0:0:0
     RDKit          3D

102105  0  0  1  0  0  0  0  0999 V2000
  -23.0000  -25.4350   20.2270 C   0  0  0  0  0  2  0  0  0  0  0  0
  -22.0840  -25.8050   21.4230 C   0  0  0  0  0  2  0  0  0  0  0  0
  -22.6910  -26.7860   23.7030 C   0  0  0  0  0  0  0  0  0  0  0  0
  -22.8520  -25.9260   22.6750 N   0  0  0  0  0  0  0  0  0  0  0  0
  -21.7750  -27.6090   23.7560 O   0  0  0  0  0  0  0  0  0  0  0  0
  -23.6450  -25.3040   22.7590 H   0  0  0  0  0  0  0  0  0  0  0  0
  -23.7480  -26.6960   24.8270 C   0  0  0  0  0  2  0  0  0  0  0  0
  -25.0960  -25.9670   24.5300 C   0  0  0  0  0  2  0  0  0  0  0  0
  -26.3070  -26.9190   24.7810 C   0  0  0  0  0  2  0  0  0  0  0  0
  -28.5250  -26.7540   23.6160 C   0  0  0  0  0  0  0  0  0  0  0  0
  -27.2310  -27.1380   23.6460 N   0  0  0  0  0  0  0  0  0  0  0  0
  -28.9960  -25.9900   24.4600 O   0  0  0  0  0  0  0  0  0  0  0  0
  -26.9120  -27.7570   22.9110 H   0  0  0  0  0  0  0  0  0  0  0  0
  -29.4610  -27.2980   22.5110 C   0  0  0  0  0  2  0  0  0  0  0  0
  -30.6120  -25.8240   20.7810 C   0  0  0  0  0  0  0  0  0  0  0  0
  -31.3170  -25.3960   18.4520 C   0  0  0  0  0  2  0  0  0  0  0  0
  -31.2300  -26.7320   17.6800 C   0  0  0  0  0  2  0  0  0  0  0  0
  -29.7960  -27.0000   17.1750 C   0  0  0  0  0  2  0  0  0  0  0  0
  -28.7180  -26.7850   18.2690 C   0  0  0  0  0  3  0  0  0  0  0  0
  -28.9430  -25.4210   18.9550 C   0  0  0  0  0  2  0  0  0  0  0  0
  -30.3060  -25.4230   19.5190 N   0  0  0  0  0  0  0  0  0  0  0  0
  -31.7660  -25.8800   21.2220 O   0  0  0  0  0  0  0  0  0  0  0  0
  -29.5470  -26.3130   21.4340 N   0  0  0  0  0  0  0  0  0  0  0  0
  -28.6580  -26.1180   21.0000 H   0  0  0  0  0  0  0  0  0  0  0  0
  -26.1920  -27.2870   18.3670 C   0  0  0  0  0  0  0  0  0  0  0  0
  -25.2220  -27.2790   17.4000 C   0  0  0  0  0  0  0  0  0  0  0  0
  -25.8740  -26.8850   16.1930 C   0  0  0  0  0  0  0  0  0  0  0  0
  -27.3630  -26.8980   17.7330 N   0  0  0  0  0  0  0  0  0  0  0  0
  -27.1500  -26.6100   16.4250 N   0  0  0  0  0  0  0  0  0  0  0  0
  -25.3730  -26.8140   14.8140 C   0  0  0  0  0  0  0  0  0  0  0  0
  -24.5510  -25.7520   14.3790 C   0  0  0  0  0  3  0  0  0  0  0  0
  -24.0720  -25.7180   13.0520 C   0  0  0  0  0  3  0  0  0  0  0  0
  -24.4110  -26.7510   12.1470 C   0  0  0  0  0  0  0  0  0  0  0  0
  -25.2440  -27.7960   12.5820 C   0  0  0  0  0  3  0  0  0  0  0  0
  -25.7260  -27.8270   13.9010 C   0  0  0  0  0  3  0  0  0  0  0  0
  -24.0100  -26.7880   10.8350 O   0  0  0  0  0  0  0  0  0  0  0  0
  -22.7450  -27.1800   10.4810 C   0  0  0  0  0  0  0  0  0  0  0  0
  -22.2640  -28.4800   10.7530 C   0  0  0  0  0  3  0  0  0  0  0  0
  -20.9800  -28.8610   10.3140 C   0  0  0  0  0  3  0  0  0  0  0  0
  -20.1830  -27.9520    9.5930 C   0  0  0  0  0  0  0  0  0  0  0  0
  -20.6620  -26.6600    9.3180 C   0  0  0  0  0  3  0  0  0  0  0  0
  -21.9400  -26.2760    9.7580 C   0  0  0  0  0  0  0  0  0  0  0  0
  -22.4050  -25.0360    9.4720 F   0  0  0  0  0  0  0  0  0  0  0  0
  -18.9530  -28.3220    9.1640 F   0  0  0  0  0  0  0  0  0  0  0  0
  -23.7930  -27.7090   17.5640 C   0  0  0  0  0  0  0  0  0  0  0  0
  -22.8720  -27.0860   16.8350 N   0  0  0  0  0  0  0  0  0  0  0  0
  -23.4750  -28.5740   18.3810 O   0  0  0  0  0  0  0  0  0  0  0  0
  -23.1240  -26.3630   16.1780 H   0  0  0  0  0  0  0  0  0  0  0  0
  -21.8980  -27.3320   16.9430 H   0  0  0  0  0  0  0  0  0  0  0  0
  -26.1760  -27.6190   19.7180 N   0  0  0  0  0  0  0  0  0  0  0  0
  -25.3480  -28.0220   20.1380 H   0  0  0  0  0  0  0  0  0  0  0  0
  -27.0070  -27.7480   20.2800 H   0  0  0  0  0  0  0  0  0  0  0  0
  -22.3710  -24.5110   19.1260 C   0  0  0  0  0  2  0  0  0  0  0  0
  -21.3340  -23.4070   19.5740 C   0  0  0  0  0  2  0  0  0  0  0  0
  -19.7610  -23.2230   19.1230 C   0  0  0  0  0  1  0  0  0  0  0  0
  -17.4620  -24.8890   19.0120 C   0  0  0  0  0  1  0  0  0  0  0  0
  -16.7860  -25.9740   21.7800 C   0  0  0  0  0  0  0  0  0  0  0  0
  -16.7300  -25.7160   20.3320 N   0  0  0  0  0  0  0  0  0  0  0  0
  -17.8800  -26.2790   22.2510 O   0  0  0  0  0  0  0  0  0  0  0  0
  -15.7560  -25.7910   20.0900 H   0  0  0  0  0  0  0  0  0  0  0  0
  -15.5210  -25.6950   22.9480 C   0  0  0  0  0  2  0  0  0  0  0  0
  -15.4290  -25.8730   24.5660 O   0  0  0  0  0  0  0  0  0  0  0  0
  -10.7450  -25.1720   28.7110 C   0  0  0  0  0  0  0  0  0  0  0  0
  -15.0570  -27.0810   25.0680 C   0  0  0  0  0  3  0  0  0  0  0  0
  -10.6290  -25.3480   26.2880 C   0  0  0  0  0  3  0  0  0  0  0  0
  -12.3450  -26.8750   25.1150 C   0  0  0  0  0  3  0  0  0  0  0  0
  -12.1990  -26.8620   27.6000 C   0  0  0  0  0  2  0  0  0  0  0  0
  -13.0180  -26.9630   26.3370 C   0  0  0  0  0  0  0  0  0  0  0  0
  -14.4240  -27.0920   26.3320 C   0  0  0  0  0  3  0  0  0  0  0  0
  -14.3780  -27.5290   23.9530 C   0  0  0  0  0  3  0  0  0  0  0  0
  -13.0020  -27.2690   23.9300 C   0  0  0  0  0  3  0  0  0  0  0  0
  -10.9220  -26.3770   25.1460 C   0  0  0  0  0  2  0  0  0  0  0  0
  -11.1800  -25.7920   27.5850 N   0  0  0  0  0  0  0  0  0  0  0  0
   -9.8580  -24.3040   28.6730 O   0  0  0  0  0  0  0  0  0  0  0  0
  -11.1100  -23.8950   26.0390 C   0  0  0  0  0  0  0  0  0  0  0  0
  -10.1990  -23.0120   25.7290 N   0  0  0  0  0  0  0  0  0  0  0  0
  -12.2790  -23.5440   26.1290 O   0  0  0  0  0  0  0  0  0  0  0  0
   -9.2300  -23.2820   25.8070 H   0  0  0  0  0  0  0  0  0  0  0  0
   -7.7720  -20.2470   24.9530 C   0  0  0  0  0  0  0  0  0  0  0  0
  -10.4450  -21.6730   25.1870 C   0  0  0  0  0  2  0  0  0  0  0  0
  -10.9020  -21.5110   23.2140 C   0  0  0  0  0 15  0  0  0  0  0  0
   -9.3310  -20.7230   22.0540 C   0  0  0  0  0 15  0  0  0  0  0  0
   -7.7580  -20.1010   23.1140 C   0  0  0  0  0  1  0  0  0  0  0  0
   -8.9190  -20.9350   25.8210 C   0  0  0  0  0  0  0  0  0  0  0  0
   -8.9160  -20.7460   27.2180 C   0  0  0  0  0  3  0  0  0  0  0  0
   -8.0150  -19.8750   27.8460 C   0  0  0  0  0  3  0  0  0  0  0  0
   -7.1070  -19.1250   27.0810 C   0  0  0  0  0  3  0  0  0  0  0  0
   -7.0020  -19.2980   25.6810 C   0  0  0  0  0  3  0  0  0  0  0  0
  -11.3310  -25.5410   30.0950 C   0  0  0  0  0  3  0  0  0  0  0  0
  -10.2140  -26.0600   30.8880 N   0  0  0  0  0  0  0  0  0  0  0  0
   -9.9070  -27.3580   30.9920 C   0  0  0  0  0  0  0  0  0  0  0  0
  -10.5990  -28.2510   30.4950 O   0  0  0  0  0  0  0  0  0  0  0  0
   -9.5800  -25.3810   31.2820 H   0  0  0  0  0  0  0  0  0  0  0  0
   -7.5310  -28.1580   30.7980 C   0  0  0  0  0  1  0  0  0  0  0  0
   -8.6350  -27.7220   31.7760 C   0  0  0  0  0  3  0  0  0  0  0  0
   -9.6210  -28.3160   33.9440 C   0  0  0  0  0  1  0  0  0  0  0  0
   -8.8550  -28.7770   32.7880 N   0  0  0  0  0  0  0  0  0  0  0  0
   -7.9700  -29.1460   33.1240 H   0  0  0  0  0  0  0  0  0  0  0  0
  -12.0250  -24.3230   30.8140 C   0  0  1  0  0  0  0  0  0  0  0  0
  -11.1020  -23.5700   31.8000 C   0  0  0  0  0  1  0  0  0  0  0  0
  -12.5460  -23.2970   29.7820 C   0  0  0  0  0  1  0  0  0  0  0  0
  -13.2610  -24.8290   31.5910 C   0  0  0  0  0  1  0  0  0  0  0  0
  1  2  1  0
  2  4  1  0
  3  5  2  0
  3  7  1  0
  4  6  1  0
  4  3  1  0
  8  9  1  0
  8  7  1  0
 10 11  1  0
 10 12  2  0
 11  9  1  0
 13 11  1  0
 14 10  1  0
 15 22  2  0
 15 23  1  0
 16 21  1  0
 17 16  1  0
 18 17  1  0
 19 18  1  0
 19 20  1  0
 20 21  1  0
 21 15  1  0
 23 14  1  0
 24 23  1  0
 25 50  1  0
 26 45  1  0
 26 25  2  0
 27 29  2  0
 27 26  1  0
 28 19  1  0
 28 25  1  0
 29 28  1  0
 30 27  1  0
 31 30  1  0
 32 31  2  0
 33 34  2  0
 33 32  1  0
 34 35  1  0
 35 30  2  0
 36 33  1  0
 37 38  1  0
 37 36  1  0
 39 38  2  0
 40 39  1  0
 41 40  2  0
 41 42  1  0
 42 37  2  0
 43 42  1  0
 44 40  1  0
 45 47  2  0
 46 49  1  0
 46 45  1  0
 48 46  1  0
 50 51  1  0
 50 52  1  0
 53 54  1  0
 53  1  1  0
 55 54  1  0
 56 58  1  0
 57 59  2  0
 57 61  1  0
 58 57  1  0
 60 58  1  0
 61 62  1  0
 64 62  1  0
 64 69  1  0
 65 75  1  0
 65 73  1  0
 66 71  1  0
 66 72  1  0
 66 68  1  0
 68 67  1  0
 69 68  2  0
 70 64  1  0
 71 70  2  0
 72 65  1  0
 73 67  1  0
 73 63  1  0
 74 63  2  0
 75 77  2  0
 76 78  1  0
 76 75  1  0
 79 88  2  0
 79 84  1  0
 80 76  1  0
 80 84  1  0
 83 79  1  0
 84 85  2  0
 85 86  1  0
 87 86  2  0
 88 87  1  0
 89 63  1  0
 89 99  1  0
 89 90  1  0
 90 91  1  0
 90 93  1  0
 91 95  1  0
 92 91  2  0
 95 94  1  0
 95 97  1  0
 97 98  1  0
 97 96  1  0
 99102  1  1
 99100  1  0
101 99  1  0
M  ISO  4  15 100  23 100  61 101  62 101
M  END
>  <TORSDO>  (1) 
F 29

>  <SCORE>  (1) 
-6.164

>  <name>  (1) 
0

>  <ligand_id>  (1) 
0

>  <original_smiles>  (1) 
[H]c1c([H])c([H])c2c(c1[H])C([H])([H])C([H])([H])C([H])([H])C2([H])N([H])C(=O)C1([H])N(C(=O)C([H])(N([H])C(=O)C([H])(N([H])C([H])([H])[H])C([H])([H])[H])C(C([H])([H])[H])(C([H])([H])[H])C([H])([H])[H])C([H])([H])c2c([H])c(OC([H])([H])C(=O)N([H])C([H])([H])C([H])([H])C([H])([H])C([H])([H])C([H])([H])C([H])([H])N([H])C(=O)C([H])([H])C([H])([H])C([H])([H])N([H])C(=O)C([H])([H])N([H])C(=O)N3C([H])([H])C([H])([H])C([H])([H])C([H])(n4nc(-c5c([H])c([H])c(Oc6c([H])c([H])c(F)c([H])c6F)c([H])c5[H])c(C(=O)N([H])[H])c4N([H])[H])C3([H])[H])c([H])c([H])c2C1([H])[H]

>  <smiles>  (1) 
[H]c1c([H])c([H])c2c(c1[H])C([H])([H])C([H])([H])C([H])([H])C2([H])N([H])C(=O)C1([H])N(C(=O)C([H])(N([H])C(=O)C([H])(N([H])C([H])([H])[H])C([H])([H])[H])C(C([H])([H])[H])(C([H])([H])[H])C([H])([H])[H])C([H])([H])c2c([H])c(OC([H])([H])C(=O)N([H])C([H])([H])C([H])([H])C([H])([H])C([H])([H])C([H])([H])C([H])([H])N([H])C(=O)C([H])([H])C([H])([H])C([H])([H])N([H])C(=O)C([H])([H])N([H])C(=O)N3C([H])([H])C([H])([H])C([H])([H])C([H])(n4nc(-c5c([H])c([H])c(Oc6c([H])c([H])c(F)c([H])c6F)c([H])c5[H])c(C(=O)N([H])[H])c4N([H])[H])C3([H])[H])c([H])c([H])c2C1([H])[H]

$$$$
1:0:0
     RDKit          3D

100107  0  0  1  0  0  0  0  0999 V2000
  -24.6300  -23.5080   17.3830 C   0  0  0  0  0  0  0  0  0  0  0  0
  -24.0980  -22.9370   18.4710 N   0  0  0  0  0  0  0  0  0  0  0  0
  -24.1830  -24.5520   16.9040 O   0  0  0  0  0  0  0  0  0  0  0  0
  -24.5330  -22.0850   18.7970 H   0  0  0  0  0  0  0  0  0  0  0  0
  -23.0240  -23.5040   19.2840 C   0  0  0  0  0  2  0  0  0  0  0  0
  -23.6150  -24.2380   20.4930 C   0  0  0  0  0  2  0  0  0  0  0  0
  -24.3130  -23.2790   21.2920 O   0  0  0  0  0  0  0  0  0  0  0  0
  -25.4310  -23.8250   21.9870 C   0  0  0  0  0  2  0  0  0  0  0  0
  -26.6390  -23.8910   21.0290 C   0  0  0  0  0  2  0  0  0  0  0  0
  -27.5830  -25.0810   21.2910 C   0  0  0  0  0  2  0  0  0  0  0  0
  -28.3430  -25.5480   20.0180 C   0  0  0  0  0  2  0  0  0  0  0  0
  -28.4330  -26.9770   19.9110 O   0  0  0  0  0  0  0  0  0  0  0  0
  -24.6940  -31.8800   23.4040 C   0  0  0  0  0  0  0  0  0  0  0  0
  -27.2560  -27.7030   19.9280 C   0  0  0  0  0  0  0  0  0  0  0  0
  -23.4400  -30.5900   21.7110 C   0  0  0  0  0  3  0  0  0  0  0  0
  -24.8510  -29.1840   20.1140 C   0  0  0  0  0  0  0  0  0  0  0  0
  -25.9540  -30.9870   21.4530 C   0  0  0  0  0  2  0  0  0  0  0  0
  -26.0230  -29.6710   20.7080 C   0  0  0  0  0  0  0  0  0  0  0  0
  -27.2230  -28.9360   20.6130 C   0  0  0  0  0  3  0  0  0  0  0  0
  -26.0710  -27.2380   19.3110 C   0  0  0  0  0  3  0  0  0  0  0  0
  -24.8720  -27.9690   19.4060 C   0  0  0  0  0  3  0  0  0  0  0  0
  -23.6010  -30.0150   20.2770 C   0  0  0  0  0  2  0  0  0  0  0  0
  -24.7160  -31.1630   22.2480 N   0  0  0  0  0  0  0  0  0  0  0  0
  -23.6300  -32.1010   23.9990 O   0  0  0  0  0  0  0  0  0  0  0  0
  -22.8350  -29.4940   22.6180 C   0  0  0  0  0  0  0  0  0  0  0  0
  -21.5310  -29.2260   22.4450 N   0  0  0  0  0  0  0  0  0  0  0  0
  -23.5380  -28.8850   23.4280 O   0  0  0  0  0  0  0  0  0  0  0  0
  -21.0190  -29.7680   21.7610 H   0  0  0  0  0  0  0  0  0  0  0  0
  -18.2630  -27.7100   22.7090 C   0  0  0  0  0  0  0  0  0  0  0  0
  -20.7600  -28.2060   23.1550 C   0  0  0  0  0  3  0  0  0  0  0  0
  -21.0420  -26.7960   22.5870 C   0  0  0  0  0  2  0  0  0  0  0  0
  -20.0440  -26.3730   21.5040 C   0  0  0  0  0  2  0  0  0  0  0  0
  -18.6140  -26.3840   22.0540 C   0  0  0  0  0  2  0  0  0  0  0  0
  -19.2710  -28.5730   23.2150 C   0  0  0  0  0  0  0  0  0  0  0  0
  -18.8940  -29.8100   23.7790 C   0  0  0  0  0  3  0  0  0  0  0  0
  -17.5380  -30.1810   23.8520 C   0  0  0  0  0  3  0  0  0  0  0  0
  -16.5440  -29.3160   23.3650 C   0  0  0  0  0  3  0  0  0  0  0  0
  -16.9050  -28.0850   22.7960 C   0  0  0  0  0  3  0  0  0  0  0  0
  -25.9970  -32.4780   24.0200 C   0  0  0  0  0  3  0  0  0  0  0  0
  -25.7120  -33.8740   24.3700 N   0  0  0  0  0  0  0  0  0  0  0  0
  -26.0540  -34.9300   23.6220 C   0  0  0  0  0  0  0  0  0  0  0  0
  -26.7090  -34.8290   22.5810 O   0  0  0  0  0  0  0  0  0  0  0  0
  -25.1280  -34.0250   25.1780 H   0  0  0  0  0  0  0  0  0  0  0  0
  -24.3430  -36.7480   23.3150 C   0  0  0  0  0  1  0  0  0  0  0  0
  -25.5940  -36.3200   24.1020 C   0  0  0  0  0  3  0  0  0  0  0  0
  -27.7550  -37.1630   24.9040 C   0  0  0  0  0  1  0  0  0  0  0  0
  -26.6380  -37.3620   23.9810 N   0  0  0  0  0  0  0  0  0  0  0  0
  -26.2480  -38.2860   24.1430 H   0  0  0  0  0  0  0  0  0  0  0  0
  -26.5150  -31.6760   25.2760 C   0  0  1  0  0  0  0  0  0  0  0  0
  -25.4290  -31.4290   26.3470 C   0  0  0  0  0  1  0  0  0  0  0  0
  -27.0880  -30.3040   24.8540 C   0  0  0  0  0  1  0  0  0  0  0  0
  -27.6740  -32.4540   25.9460 C   0  0  0  0  0  1  0  0  0  0  0  0
  -25.8630  -22.8420   16.7620 C   0  0  0  0  0  2  0  0  0  0  0  0
  -27.2270  -20.9070   17.5600 C   0  0  0  0  0  0  0  0  0  0  0  0
  -26.6780  -22.1110   17.7400 N   0  0  0  0  0  0  0  0  0  0  0  0
  -26.9840  -20.2030   16.5770 O   0  0  0  0  0  0  0  0  0  0  0  0
  -26.8900  -22.5860   18.6060 H   0  0  0  0  0  0  0  0  0  0  0  0
  -28.2260  -20.4520   18.6290 C   0  0  0  0  0  2  0  0  0  0  0  0
  -28.0440  -18.9810   19.0410 C   0  0  0  0  0  2  0  0  0  0  0  0
  -29.0360  -18.5320   20.1300 C   0  0  0  0  0  2  0  0  0  0  0  0
  -28.9510  -17.0230   20.3950 C   0  0  0  0  0  2  0  0  0  0  0  0
  -29.8890  -16.5330   21.5160 C   0  0  0  0  0  2  0  0  0  0  0  0
  -30.6000  -14.1880   21.0200 C   0  0  0  0  0  0  0  0  0  0  0  0
  -30.4410  -12.1000   19.7280 C   0  0  0  0  0  2  0  0  0  0  0  0
  -29.5190  -12.3550   18.5130 C   0  0  0  0  0  2  0  0  0  0  0  0
  -28.0340  -12.1600   18.8830 C   0  0  0  0  0  2  0  0  0  0  0  0
  -27.6420  -12.9090   20.1850 C   0  0  0  0  0  3  0  0  0  0  0  0
  -28.6660  -12.6120   21.3040 C   0  0  0  0  0  2  0  0  0  0  0  0
  -30.0030  -12.9890   20.8110 N   0  0  0  0  0  0  0  0  0  0  0  0
  -31.6990  -14.4990   20.5440 O   0  0  0  0  0  0  0  0  0  0  0  0
  -29.8110  -15.0780   21.6330 N   0  0  0  0  0  0  0  0  0  0  0  0
  -28.9610  -14.7000   22.0210 H   0  0  0  0  0  0  0  0  0  0  0  0
  -25.1870  -13.4210   20.7750 C   0  0  0  0  0  0  0  0  0  0  0  0
  -24.1370  -12.6080   21.0990 C   0  0  0  0  0  0  0  0  0  0  0  0
  -24.6540  -11.2760   21.0960 C   0  0  0  0  0  0  0  0  0  0  0  0
  -26.2790  -12.5850   20.5970 N   0  0  0  0  0  0  0  0  0  0  0  0
  -25.9570  -11.2910   20.8510 N   0  0  0  0  0  0  0  0  0  0  0  0
  -23.9770   -9.9850   21.2660 C   0  0  0  0  0  0  0  0  0  0  0  0
  -24.4080   -9.0430   22.2260 C   0  0  0  0  0  3  0  0  0  0  0  0
  -23.7290   -7.8150   22.3790 C   0  0  0  0  0  3  0  0  0  0  0  0
  -22.6040   -7.5180   21.5730 C   0  0  0  0  0  0  0  0  0  0  0  0
  -22.1950   -8.4500   20.6010 C   0  0  0  0  0  3  0  0  0  0  0  0
  -22.8750   -9.6690   20.4470 C   0  0  0  0  0  3  0  0  0  0  0  0
  -21.9000   -6.3400   21.6320 O   0  0  0  0  0  0  0  0  0  0  0  0
  -21.8170   -5.6120   22.7910 C   0  0  0  0  0  0  0  0  0  0  0  0
  -21.2760   -6.1590   23.9760 C   0  0  0  0  0  3  0  0  0  0  0  0
  -21.1460   -5.3540   25.1250 C   0  0  0  0  0  3  0  0  0  0  0  0
  -21.5430   -4.0040   25.0900 C   0  0  0  0  0  0  0  0  0  0  0  0
  -22.0780   -3.4580   23.9100 C   0  0  0  0  0  3  0  0  0  0  0  0
  -22.2120   -4.2590   22.7630 C   0  0  0  0  0  0  0  0  0  0  0  0
  -22.7080   -3.7240   21.6210 F   0  0  0  0  0  0  0  0  0  0  0  0
  -21.4110   -3.2270   26.1910 F   0  0  0  0  0  0  0  0  0  0  0  0
  -22.7070  -13.0220   21.3050 C   0  0  0  0  0  0  0  0  0  0  0  0
  -21.9740  -12.3040   22.1480 N   0  0  0  0  0  0  0  0  0  0  0  0
  -22.2480  -14.0250   20.7580 O   0  0  0  0  0  0  0  0  0  0  0  0
  -22.3530  -11.4880   22.6090 H   0  0  0  0  0  0  0  0  0  0  0  0
  -21.0180  -12.5730   22.3350 H   0  0  0  0  0  0  0  0  0  0  0  0
  -25.3020  -14.7970   20.5920 N   0  0  0  0  0  0  0  0  0  0  0  0
  -24.5080  -15.4230   20.6660 H   0  0  0  0  0  0  0  0  0  0  0  0
  -26.1510  -15.2710   20.3150 H   0  0  0  0  0  0  0  0  0  0  0  0
  1  2  1  0
  2  4  1  0
  2  5  1  0
  3  1  2  0
  5  6  1  0
  6  7  1  0
  7  8  1  0
  9 10  1  0
  9  8  1  0
 11 10  1  0
 12 14  1  0
 12 11  1  0
 13 24  2  0
 14 19  1  0
 15 23  1  0
 15 25  1  0
 16 22  1  0
 16 18  1  0
 17 23  1  0
 18 17  1  0
 19 18  2  0
 20 21  1  0
 20 14  2  0
 21 16  2  0
 22 15  1  0
 23 13  1  0
 25 27  2  0
 26 25  1  0
 28 26  1  0
 29 38  2  0
 29 34  1  0
 30 26  1  0
 30 34  1  0
 31 30  1  0
 32 33  1  0
 32 31  1  0
 33 29  1  0
 34 35  2  0
 35 36  1  0
 37 36  2  0
 38 37  1  0
 39 13  1  0
 39 40  1  0
 39 49  1  0
 40 43  1  0
 41 45  1  0
 41 40  1  0
 42 41  2  0
 45 44  1  0
 47 45  1  0
 47 48  1  0
 47 46  1  0
 49 52  1  1
 49 50  1  0
 51 49  1  0
 53  1  1  0
 53 55  1  0
 54 55  1  0
 54 58  1  0
 55 57  1  0
 56 54  2  0
 58 59  1  0
 59 60  1  0
 60 61  1  0
 61 62  1  0
 62 71  1  0
 63 71  1  0
 64 69  1  0
 65 66  1  0
 65 64  1  0
 67 66  1  0
 67 76  1  0
 67 68  1  0
 69 63  1  0
 69 68  1  0
 70 63  2  0
 71 72  1  0
 73 74  2  0
 74 93  1  0
 75 74  1  0
 75 78  1  0
 76 73  1  0
 76 77  1  0
 77 75  2  0
 78 79  1  0
 79 80  2  0
 81 84  1  0
 81 80  1  0
 82 81  2  0
 83 82  1  0
 83 78  2  0
 84 85  1  0
 85 86  1  0
 86 87  2  0
 88 87  1  0
 88 92  1  0
 89 88  2  0
 90 85  2  0
 90 89  1  0
 91 90  1  0
 93 94  1  0
 94 97  1  0
 94 96  1  0
 95 93  2  0
 98 99  1  0
 98 73  1  0
100 98  1  0
M  ISO  4  11 101  12 101  63 100  71 100
M  END
>  <TORSDO>  (2) 
F 30

>  <SCORE>  (2) 
-9.753

>  <name>  (2) 
1

>  <ligand_id>  (2) 
1

>  <original_smiles>  (2) 
[H]c1c([H])c([H])c2c(c1[H])C([H])([H])C([H])([H])C([H])([H])C2([H])N([H])C(=O)C1([H])N(C(=O)C([H])(N([H])C(=O)C([H])(N([H])C([H])([H])[H])C([H])([H])[H])C(C([H])([H])[H])(C([H])([H])[H])C([H])([H])[H])C([H])([H])c2c([H])c(OC([H])([H])C([H])([H])C([H])([H])C([H])([H])OC([H])([H])C([H])([H])N([H])C(=O)C([H])([H])N([H])C(=O)C([H])([H])C([H])([H])C([H])([H])C([H])([H])C([H])([H])N([H])C(=O)N3C([H])([H])C([H])([H])C([H])([H])C([H])(n4nc(-c5c([H])c([H])c(Oc6c([H])c([H])c(F)c([H])c6F)c([H])c5[H])c(C(=O)N([H])[H])c4N([H])[H])C3([H])[H])c([H])c([H])c2C1([H])[H]

>  <smiles>  (2) 
[H]c1c([H])c([H])c2c(c1[H])C([H])([H])C([H])([H])C([H])([H])C2([H])N([H])C(=O)C1([H])N(C(=O)C([H])(N([H])C(=O)C([H])(N([H])C([H])([H])[H])C([H])([H])[H])C(C([H])([H])[H])(C([H])([H])[H])C([H])([H])[H])C([H])([H])c2c([H])c(OC([H])([H])C([H])([H])C([H])([H])C([H])([H])OC([H])([H])C([H])([H])N([H])C(=O)C([H])([H])N([H])C(=O)C([H])([H])C([H])([H])C([H])([H])C([H])([H])C([H])([H])N([H])C(=O)N3C([H])([H])C([H])([H])C([H])([H])C([H])(n4nc(-c5c([H])c([H])c(Oc6c([H])c([H])c(F)c([H])c6F)c([H])c5[H])c(C(=O)N([H])[H])c4N([H])[H])C3([H])[H])c([H])c([H])c2C1([H])[H]

$$$$
2:0:0
     RDKit          3D

105112  0  0  1  0  0  0  0  0999 V2000
  -29.0730  -18.9170   15.8700 C   0  0  0  0  0  2  0  0  0  0  0  0
  -28.2240  -20.7440   17.3440 C   0  0  0  0  0  0  0  0  0  0  0  0
  -28.7960  -19.5500   17.1570 N   0  0  0  0  0  0  0  0  0  0  0  0
  -27.8590  -21.4610   16.4100 O   0  0  0  0  0  0  0  0  0  0  0  0
  -29.0530  -19.0230   17.9810 H   0  0  0  0  0  0  0  0  0  0  0  0
  -28.0450  -21.1780   18.8050 C   0  0  0  0  0  2  0  0  0  0  0  0
  -27.0190  -22.3110   19.0370 C   0  0  0  0  0  2  0  0  0  0  0  0
  -28.2440  -24.4120   19.5850 C   0  0  0  0  0  0  0  0  0  0  0  0
  -27.5510  -23.6410   18.7380 N   0  0  0  0  0  0  0  0  0  0  0  0
  -28.5250  -24.0530   20.7310 O   0  0  0  0  0  0  0  0  0  0  0  0
  -27.3700  -24.0120   17.8140 H   0  0  0  0  0  0  0  0  0  0  0  0
  -28.6770  -25.7910   19.0690 C   0  0  0  0  0  2  0  0  0  0  0  0
  -28.4480  -26.7980   20.0560 O   0  0  0  0  0  0  0  0  0  0  0  0
  -24.6140  -31.8680   23.2140 C   0  0  0  0  0  0  0  0  0  0  0  0
  -27.2410  -27.4660   20.0690 C   0  0  0  0  0  0  0  0  0  0  0  0
  -23.3990  -30.4960   21.5500 C   0  0  0  0  0  3  0  0  0  0  0  0
  -24.8430  -28.9610   20.1170 C   0  0  0  0  0  0  0  0  0  0  0  0
  -25.9260  -30.8380   21.3630 C   0  0  0  0  0  2  0  0  0  0  0  0
  -26.0000  -29.4730   20.7160 C   0  0  0  0  0  0  0  0  0  0  0  0
  -27.1960  -28.7250   20.7020 C   0  0  0  0  0  3  0  0  0  0  0  0
  -26.0600  -26.9560   19.4790 C   0  0  0  0  0  3  0  0  0  0  0  0
  -24.8650  -27.6960   19.5060 C   0  0  0  0  0  3  0  0  0  0  0  0
  -23.6080  -29.8280   20.1650 C   0  0  0  0  0  2  0  0  0  0  0  0
  -24.6640  -31.0820   22.1010 N   0  0  0  0  0  0  0  0  0  0  0  0
  -23.5340  -32.1410   23.7560 O   0  0  0  0  0  0  0  0  0  0  0  0
  -22.7400  -29.4670   22.4970 C   0  0  0  0  0  0  0  0  0  0  0  0
  -21.4130  -29.3030   22.3720 N   0  0  0  0  0  0  0  0  0  0  0  0
  -23.4200  -28.8200   23.2990 O   0  0  0  0  0  0  0  0  0  0  0  0
  -20.9280  -29.8790   21.6990 H   0  0  0  0  0  0  0  0  0  0  0  0
  -18.0290  -28.1350   22.8500 C   0  0  0  0  0  0  0  0  0  0  0  0
  -20.5880  -28.3640   23.1310 C   0  0  0  0  0  3  0  0  0  0  0  0
  -20.6770  -26.9370   22.5400 C   0  0  0  0  0  2  0  0  0  0  0  0
  -19.5750  -26.6370   21.5200 C   0  0  0  0  0  2  0  0  0  0  0  0
  -18.1930  -26.7900   22.1620 C   0  0  0  0  0  2  0  0  0  0  0  0
  -19.1530  -28.8810   23.2910 C   0  0  0  0  0  0  0  0  0  0  0  0
  -18.9470  -30.1420   23.8920 C   0  0  0  0  0  3  0  0  0  0  0  0
  -17.6470  -30.6570   24.0560 C   0  0  0  0  0  3  0  0  0  0  0  0
  -16.5370  -29.9070   23.6310 C   0  0  0  0  0  3  0  0  0  0  0  0
  -16.7280  -28.6470   23.0360 C   0  0  0  0  0  3  0  0  0  0  0  0
  -25.9030  -32.4800   23.8430 C   0  0  0  0  0  3  0  0  0  0  0  0
  -25.5900  -33.8600   24.2360 N   0  0  0  0  0  0  0  0  0  0  0  0
  -25.9020  -34.9450   23.5150 C   0  0  0  0  0  0  0  0  0  0  0  0
  -26.5560  -34.8890   22.4700 O   0  0  0  0  0  0  0  0  0  0  0  0
  -25.0080  -33.9760   25.0520 H   0  0  0  0  0  0  0  0  0  0  0  0
  -24.1480  -36.7330   23.2650 C   0  0  0  0  0  1  0  0  0  0  0  0
  -25.4090  -36.3090   24.0350 C   0  0  0  0  0  3  0  0  0  0  0  0
  -27.5570  -37.1810   24.8470 C   0  0  0  0  0  1  0  0  0  0  0  0
  -26.4280  -37.3770   23.9420 N   0  0  0  0  0  0  0  0  0  0  0  0
  -26.0160  -38.2850   24.1400 H   0  0  0  0  0  0  0  0  0  0  0  0
  -26.4470  -31.6570   25.0750 C   0  0  1  0  0  0  0  0  0  0  0  0
  -25.3790  -31.3640   26.1540 C   0  0  0  0  0  1  0  0  0  0  0  0
  -27.0290  -30.3030   24.6070 C   0  0  0  0  0  1  0  0  0  0  0  0
  -27.6050  -32.4290   25.7520 C   0  0  0  0  0  1  0  0  0  0  0  0
  -30.3570  -19.4460   15.2010 C   0  0  0  0  0  2  0  0  0  0  0  0
  -31.5840  -19.5220   16.1350 C   0  0  0  0  0  2  0  0  0  0  0  0
  -31.9640  -20.9710   16.4970 C   0  0  0  0  0  2  0  0  0  0  0  0
  -32.9510  -21.0890   17.6690 C   0  0  0  0  0  2  0  0  0  0  0  0
  -32.3710  -19.7750   19.7150 C   0  0  0  0  0  0  0  0  0  0  0  0
  -32.2730  -20.8610   18.9430 N   0  0  0  0  0  0  0  0  0  0  0  0
  -33.1060  -18.8210   19.4410 O   0  0  0  0  0  0  0  0  0  0  0  0
  -31.6770  -21.6060   19.2780 H   0  0  0  0  0  0  0  0  0  0  0  0
  -31.5210  -19.7820   20.9920 C   0  0  0  0  0  2  0  0  0  0  0  0
  -30.7800  -17.4550   21.4600 C   0  0  0  0  0  0  0  0  0  0  0  0
  -31.5600  -18.5100   21.7080 N   0  0  0  0  0  0  0  0  0  0  0  0
  -29.8830  -17.4710   20.6130 O   0  0  0  0  0  0  0  0  0  0  0  0
  -32.2820  -18.4090   22.4090 H   0  0  0  0  0  0  0  0  0  0  0  0
  -31.0400  -16.2120   22.3190 C   0  0  0  0  0  2  0  0  0  0  0  0
  -30.7810  -14.3300   20.7130 C   0  0  0  0  0  0  0  0  0  0  0  0
  -30.4140  -12.2850   19.3800 C   0  0  0  0  0  2  0  0  0  0  0  0
  -29.4780  -12.5330   18.1840 C   0  0  0  0  0  2  0  0  0  0  0  0
  -28.0040  -12.3850   18.6040 C   0  0  0  0  0  2  0  0  0  0  0  0
  -27.6660  -13.2010   19.8780 C   0  0  0  0  0  3  0  0  0  0  0  0
  -28.7030  -12.9290   20.9900 C   0  0  0  0  0  2  0  0  0  0  0  0
  -30.0490  -13.2160   20.4570 N   0  0  0  0  0  0  0  0  0  0  0  0
  -31.7790  -14.6570   20.0620 O   0  0  0  0  0  0  0  0  0  0  0  0
  -30.3960  -15.0090   21.7970 N   0  0  0  0  0  0  0  0  0  0  0  0
  -29.5810  -14.6720   22.2850 H   0  0  0  0  0  0  0  0  0  0  0  0
  -25.2610  -13.8150   20.5670 C   0  0  0  0  0  0  0  0  0  0  0  0
  -24.1850  -13.0440   20.9160 C   0  0  0  0  0  0  0  0  0  0  0  0
  -24.6390  -11.6900   20.8720 C   0  0  0  0  0  0  0  0  0  0  0  0
  -26.3050  -12.9310   20.3370 N   0  0  0  0  0  0  0  0  0  0  0  0
  -25.9310  -11.6470   20.5740 N   0  0  0  0  0  0  0  0  0  0  0  0
  -23.9050  -10.4290   21.0400 C   0  0  0  0  0  0  0  0  0  0  0  0
  -24.3610   -9.4210   21.9180 C   0  0  0  0  0  3  0  0  0  0  0  0
  -23.6290   -8.2250   22.0760 C   0  0  0  0  0  3  0  0  0  0  0  0
  -22.4270   -8.0280   21.3540 C   0  0  0  0  0  0  0  0  0  0  0  0
  -21.9900   -9.0250   20.4640 C   0  0  0  0  0  3  0  0  0  0  0  0
  -22.7230  -10.2130   20.3050 C   0  0  0  0  0  3  0  0  0  0  0  0
  -21.6640   -6.8880   21.4240 O   0  0  0  0  0  0  0  0  0  0  0  0
  -21.6850   -6.0730   22.5280 C   0  0  0  0  0  0  0  0  0  0  0  0
  -21.4010   -6.5640   23.8210 C   0  0  0  0  0  3  0  0  0  0  0  0
  -21.3660   -5.6790   24.9170 C   0  0  0  0  0  3  0  0  0  0  0  0
  -21.6050   -4.3060   24.7220 C   0  0  0  0  0  0  0  0  0  0  0  0
  -21.8820   -3.8150   23.4350 C   0  0  0  0  0  3  0  0  0  0  0  0
  -21.9190   -4.6960   22.3400 C   0  0  0  0  0  0  0  0  0  0  0  0
  -22.1660   -4.2150   21.0980 F   0  0  0  0  0  0  0  0  0  0  0  0
  -21.5630   -3.4540   25.7740 F   0  0  0  0  0  0  0  0  0  0  0  0
  -22.7870  -13.5240   21.1830 C   0  0  0  0  0  0  0  0  0  0  0  0
  -22.0510  -12.8230   22.0390 N   0  0  0  0  0  0  0  0  0  0  0  0
  -22.3550  -14.5550   20.6690 O   0  0  0  0  0  0  0  0  0  0  0  0
  -22.4120  -11.9890   22.4770 H   0  0  0  0  0  0  0  0  0  0  0  0
  -21.1130  -13.1270   22.2610 H   0  0  0  0  0  0  0  0  0  0  0  0
  -25.4360  -15.1870   20.4100 N   0  0  0  0  0  0  0  0  0  0  0  0
  -24.6780  -15.8500   20.5290 H   0  0  0  0  0  0  0  0  0  0  0  0
  -26.3040  -15.6230   20.1240 H   0  0  0  0  0  0  0  0  0  0  0  0
  1  3  1  0
  2  6  1  0
  3  2  1  0
  3  5  1  0
  4  2  2  0
  6  7  1  0
  8 10  2  0
  9  7  1  0
  9  8  1  0
 11  9  1  0
 12  8  1  0
 12 13  1  0
 13 15  1  0
 14 25  2  0
 15 20  1  0
 16 24  1  0
 16 26  1  0
 17 23  1  0
 17 19  1  0
 18 24  1  0
 19 18  1  0
 20 19  2  0
 21 22  1  0
 21 15  2  0
 22 17  2  0
 23 16  1  0
 24 14  1  0
 26 28  2  0
 27 26  1  0
 29 27  1  0
 30 39  2  0
 30 35  1  0
 31 27  1  0
 31 35  1  0
 32 31  1  0
 33 34  1  0
 33 32  1  0
 34 30  1  0
 35 36  2  0
 36 37  1  0
 38 37  2  0
 39 38  1  0
 40 14  1  0
 40 41  1  0
 40 50  1  0
 41 44  1  0
 42 46  1  0
 42 41  1  0
 43 42  2  0
 46 45  1  0
 48 46  1  0
 48 49  1  0
 48 47  1  0
 50 53  1  1
 50 51  1  0
 52 50  1  0
 54  1  1  0
 54 55  1  0
 55 56  1  0
 56 57  1  0
 57 59  1  0
 58 62  1  0
 59 61  1  0
 59 58  1  0
 60 58  2  0
 62 64  1  0
 63 64  1  0
 63 67  1  0
 64 66  1  0
 65 63  2  0
 68 76  1  0
 69 74  1  0
 70 71  1  0
 70 69  1  0
 72 71  1  0
 72 81  1  0
 72 73  1  0
 74 68  1  0
 74 73  1  0
 75 68  2  0
 76 77  1  0
 76 67  1  0
 78 79  2  0
 79 98  1  0
 80 79  1  0
 80 83  1  0
 81 78  1  0
 81 82  1  0
 82 80  2  0
 83 84  1  0
 84 85  2  0
 86 89  1  0
 86 85  1  0
 87 86  2  0
 88 87  1  0
 88 83  2  0
 89 90  1  0
 90 91  1  0
 91 92  2  0
 93 92  1  0
 93 97  1  0
 94 93  2  0
 95 90  2  0
 95 94  1  0
 96 95  1  0
 98 99  1  0
 99102  1  0
 99101  1  0
100 98  2  0
103104  1  0
103 78  1  0
105103  1  0
M  ISO  4  12 101  13 101  68 100  76 100
M  END
>  <TORSDO>  (3) 
F 29

>  <SCORE>  (3) 
-10.683

>  <name>  (3) 
2

>  <ligand_id>  (3) 
2

>  <original_smiles>  (3) 
[H]c1c([H])c([H])c2c(c1[H])C([H])([H])C([H])([H])C([H])([H])C2([H])N([H])C(=O)C1([H])N(C(=O)C([H])(N([H])C(=O)C([H])(N([H])C([H])([H])[H])C([H])([H])[H])C(C([H])([H])[H])(C([H])([H])[H])C([H])([H])[H])C([H])([H])c2c([H])c(OC([H])([H])C(=O)N([H])C([H])([H])C([H])([H])C(=O)N([H])C([H])([H])C([H])([H])C([H])([H])C([H])([H])C([H])([H])N([H])C(=O)C([H])([H])N([H])C(=O)C([H])([H])N([H])C(=O)N3C([H])([H])C([H])([H])C([H])([H])C([H])(n4nc(-c5c([H])c([H])c(Oc6c([H])c([H])c(F)c([H])c6F)c([H])c5[H])c(C(=O)N([H])[H])c4N([H])[H])C3([H])[H])c([H])c([H])c2C1([H])[H]

>  <smiles>  (3) 
[H]c1c([H])c([H])c2c(c1[H])C([H])([H])C([H])([H])C([H])([H])C2([H])N([H])C(=O)C1([H])N(C(=O)C([H])(N([H])C(=O)C([H])(N([H])C([H])([H])[H])C([H])([H])[H])C(C([H])([H])[H])(C([H])([H])[H])C([H])([H])[H])C([H])([H])c2c([H])c(OC([H])([H])C(=O)N([H])C([H])([H])C([H])([H])C(=O)N([H])C([H])([H])C([H])([H])C([H])([H])C([H])([H])C([H])([H])N([H])C(=O)C([H])([H])N([H])C(=O)C([H])([H])N([H])C(=O)N3C([H])([H])C([H])([H])C([H])([H])C([H])(n4nc(-c5c([H])c([H])c(Oc6c([H])c([H])c(F)c([H])c6F)c([H])c5[H])c(C(=O)N([H])[H])c4N([H])[H])C3([H])[H])c([H])c([H])c2C1([H])[H]

$$$$
3:0:0
     RDKit          3D

104111  0  0  1  0  0  0  0  0999 V2000
  -36.3950  -26.9860   20.7860 C   0  0  0  0  0  2  0  0  0  0  0  0
  -34.6830  -26.1420   22.3850 C   0  0  0  0  0  0  0  0  0  0  0  0
  -35.1320  -27.0490   21.5120 N   0  0  0  0  0  0  0  0  0  0  0  0
  -35.3670  -25.1980   22.7870 O   0  0  0  0  0  0  0  0  0  0  0  0
  -34.5050  -27.8010   21.2580 H   0  0  0  0  0  0  0  0  0  0  0  0
  -33.2440  -26.3120   22.8720 C   0  0  0  0  0  2  0  0  0  0  0  0
  -32.3600  -25.1140   22.4660 C   0  0  0  0  0  2  0  0  0  0  0  0
  -30.3940  -26.0190   21.2400 C   0  0  0  0  0  0  0  0  0  0  0  0
  -30.9560  -25.5010   22.3400 N   0  0  0  0  0  0  0  0  0  0  0  0
  -31.0240  -26.1990   20.1940 O   0  0  0  0  0  0  0  0  0  0  0  0
  -30.3660  -25.3830   23.1540 H   0  0  0  0  0  0  0  0  0  0  0  0
  -28.9180  -26.4100   21.3540 C   0  0  0  0  0  2  0  0  0  0  0  0
  -28.3930  -26.7370   20.0650 O   0  0  0  0  0  0  0  0  0  0  0  0
  -24.6080  -31.8720   23.2140 C   0  0  0  0  0  0  0  0  0  0  0  0
  -27.2420  -27.4790   20.1000 C   0  0  0  0  0  0  0  0  0  0  0  0
  -23.3940  -30.4940   21.5520 C   0  0  0  0  0  3  0  0  0  0  0  0
  -24.8440  -28.9610   20.1170 C   0  0  0  0  0  0  0  0  0  0  0  0
  -25.9160  -30.8520   21.3590 C   0  0  0  0  0  2  0  0  0  0  0  0
  -25.9960  -29.4860   20.7140 C   0  0  0  0  0  0  0  0  0  0  0  0
  -27.1980  -28.7520   20.7080 C   0  0  0  0  0  3  0  0  0  0  0  0
  -26.0830  -26.9620   19.4900 C   0  0  0  0  0  3  0  0  0  0  0  0
  -24.8780  -27.6940   19.5050 C   0  0  0  0  0  3  0  0  0  0  0  0
  -23.6020  -29.8210   20.1670 C   0  0  0  0  0  2  0  0  0  0  0  0
  -24.6570  -31.0860   22.1010 N   0  0  0  0  0  0  0  0  0  0  0  0
  -23.5290  -32.1450   23.7560 O   0  0  0  0  0  0  0  0  0  0  0  0
  -22.7380  -29.4660   22.5010 C   0  0  0  0  0  0  0  0  0  0  0  0
  -21.4110  -29.3030   22.3750 N   0  0  0  0  0  0  0  0  0  0  0  0
  -23.4180  -28.8210   23.3040 O   0  0  0  0  0  0  0  0  0  0  0  0
  -20.9250  -29.8750   21.6980 H   0  0  0  0  0  0  0  0  0  0  0  0
  -18.0270  -28.1370   22.8500 C   0  0  0  0  0  0  0  0  0  0  0  0
  -20.5850  -28.3650   23.1340 C   0  0  0  0  0  3  0  0  0  0  0  0
  -20.6760  -26.9380   22.5430 C   0  0  0  0  0  2  0  0  0  0  0  0
  -19.5740  -26.6390   21.5210 C   0  0  0  0  0  2  0  0  0  0  0  0
  -18.1920  -26.7920   22.1620 C   0  0  0  0  0  2  0  0  0  0  0  0
  -19.1520  -28.8830   23.2920 C   0  0  0  0  0  0  0  0  0  0  0  0
  -18.9450  -30.1430   23.8930 C   0  0  0  0  0  3  0  0  0  0  0  0
  -17.6450  -30.6580   24.0570 C   0  0  0  0  0  3  0  0  0  0  0  0
  -16.5340  -29.9090   23.6320 C   0  0  0  0  0  3  0  0  0  0  0  0
  -16.7260  -28.6500   23.0350 C   0  0  0  0  0  3  0  0  0  0  0  0
  -25.9000  -32.4840   23.8410 C   0  0  0  0  0  3  0  0  0  0  0  0
  -26.4460  -31.6610   25.0720 C   0  0  1  0  0  0  0  0  0  0  0  0
  -25.3750  -31.3710   26.1480 C   0  0  0  0  0  1  0  0  0  0  0  0
  -27.0260  -30.3060   24.6040 C   0  0  0  0  0  1  0  0  0  0  0  0
  -27.6060  -32.4310   25.7460 C   0  0  0  0  0  1  0  0  0  0  0  0
  -25.5870  -33.8640   24.2360 N   0  0  0  0  0  0  0  0  0  0  0  0
  -25.9020  -34.9490   23.5150 C   0  0  0  0  0  0  0  0  0  0  0  0
  -26.5580  -34.8930   22.4710 O   0  0  0  0  0  0  0  0  0  0  0  0
  -25.0030  -33.9810   25.0500 H   0  0  0  0  0  0  0  0  0  0  0  0
  -24.1480  -36.7330   23.2640 C   0  0  0  0  0  1  0  0  0  0  0  0
  -25.4100  -36.3130   24.0350 C   0  0  0  0  0  3  0  0  0  0  0  0
  -27.5590  -37.1810   24.8460 C   0  0  0  0  0  1  0  0  0  0  0  0
  -26.4290  -37.3810   23.9410 N   0  0  0  0  0  0  0  0  0  0  0  0
  -26.0190  -38.2890   24.1420 H   0  0  0  0  0  0  0  0  0  0  0  0
  -36.1750  -26.4260   19.3720 C   0  0  0  0  0  2  0  0  0  0  0  0
  -35.8240  -25.0510   19.4380 O   0  0  0  0  0  0  0  0  0  0  0  0
  -35.4950  -24.5250   18.1590 C   0  0  0  0  0  2  0  0  0  0  0  0
  -35.3810  -22.9980   18.2480 C   0  0  0  0  0  2  0  0  0  0  0  0
  -34.1730  -22.4920   19.0610 C   0  0  0  0  0  2  0  0  0  0  0  0
  -34.1830  -20.9570   19.1990 C   0  0  0  0  0  2  0  0  0  0  0  0
  -32.8970  -20.3710   19.8080 C   0  0  0  0  0  2  0  0  0  0  0  0
  -33.0110  -18.8480   20.0100 C   0  0  0  0  0  2  0  0  0  0  0  0
  -31.6480  -17.2960   21.4070 C   0  0  0  0  0  0  0  0  0  0  0  0
  -31.7590  -18.2580   20.4820 N   0  0  0  0  0  0  0  0  0  0  0  0
  -32.5990  -16.8860   22.0750 O   0  0  0  0  0  0  0  0  0  0  0  0
  -30.9120  -18.5410   20.0070 H   0  0  0  0  0  0  0  0  0  0  0  0
  -30.2460  -16.7150   21.6270 C   0  0  0  0  0  2  0  0  0  0  0  0
  -30.7130  -14.4010   20.6490 C   0  0  0  0  0  0  0  0  0  0  0  0
  -30.4240  -12.2850   19.4150 C   0  0  0  0  0  2  0  0  0  0  0  0
  -29.5030  -12.5400   18.2050 C   0  0  0  0  0  2  0  0  0  0  0  0
  -28.0200  -12.3870   18.6080 C   0  0  0  0  0  2  0  0  0  0  0  0
  -27.6700  -13.1990   19.8850 C   0  0  0  0  0  3  0  0  0  0  0  0
  -28.7010  -12.9180   21.0010 C   0  0  0  0  0  2  0  0  0  0  0  0
  -30.0470  -13.2280   20.4770 N   0  0  0  0  0  0  0  0  0  0  0  0
  -31.7470  -14.6780   20.0320 O   0  0  0  0  0  0  0  0  0  0  0  0
  -30.1050  -15.2560   21.4860 N   0  0  0  0  0  0  0  0  0  0  0  0
  -29.3120  -14.8600   21.9690 H   0  0  0  0  0  0  0  0  0  0  0  0
  -25.2590  -13.8140   20.5650 C   0  0  0  0  0  0  0  0  0  0  0  0
  -24.1820  -13.0430   20.9140 C   0  0  0  0  0  0  0  0  0  0  0  0
  -24.6370  -11.6900   20.8680 C   0  0  0  0  0  0  0  0  0  0  0  0
  -26.3030  -12.9320   20.3360 N   0  0  0  0  0  0  0  0  0  0  0  0
  -25.9290  -11.6480   20.5700 N   0  0  0  0  0  0  0  0  0  0  0  0
  -23.9040  -10.4290   21.0380 C   0  0  0  0  0  0  0  0  0  0  0  0
  -24.3590   -9.4210   21.9160 C   0  0  0  0  0  3  0  0  0  0  0  0
  -23.6270   -8.2250   22.0740 C   0  0  0  0  0  3  0  0  0  0  0  0
  -22.4240   -8.0280   21.3540 C   0  0  0  0  0  0  0  0  0  0  0  0
  -21.9870   -9.0240   20.4650 C   0  0  0  0  0  3  0  0  0  0  0  0
  -22.7210  -10.2110   20.3050 C   0  0  0  0  0  3  0  0  0  0  0  0
  -21.6620   -6.8870   21.4230 O   0  0  0  0  0  0  0  0  0  0  0  0
  -21.6840   -6.0730   22.5270 C   0  0  0  0  0  0  0  0  0  0  0  0
  -21.4030   -6.5630   23.8210 C   0  0  0  0  0  3  0  0  0  0  0  0
  -21.3670   -5.6770   24.9160 C   0  0  0  0  0  3  0  0  0  0  0  0
  -21.6040   -4.3040   24.7230 C   0  0  0  0  0  0  0  0  0  0  0  0
  -21.8810   -3.8130   23.4350 C   0  0  0  0  0  3  0  0  0  0  0  0
  -21.9190   -4.6960   22.3410 C   0  0  0  0  0  0  0  0  0  0  0  0
  -22.1650   -4.2150   21.0990 F   0  0  0  0  0  0  0  0  0  0  0  0
  -21.5630   -3.4540   25.7740 F   0  0  0  0  0  0  0  0  0  0  0  0
  -22.7850  -13.5250   21.1820 C   0  0  0  0  0  0  0  0  0  0  0  0
  -22.0470  -12.8280   22.0380 N   0  0  0  0  0  0  0  0  0  0  0  0
  -22.3560  -14.5550   20.6650 O   0  0  0  0  0  0  0  0  0  0  0  0
  -22.4090  -11.9960   22.4800 H   0  0  0  0  0  0  0  0  0  0  0  0
  -21.1080  -13.1310   22.2560 H   0  0  0  0  0  0  0  0  0  0  0  0
  -25.4360  -15.1860   20.4070 N   0  0  0  0  0  0  0  0  0  0  0  0
  -24.6720  -15.8450   20.5120 H   0  0  0  0  0  0  0  0  0  0  0  0
  -26.2990  -15.6210   20.1030 H   0  0  0  0  0  0  0  0  0  0  0  0
  1  3  1  0
  2  4  2  0
  2  6  1  0
  3  2  1  0
  5  3  1  0
  7  6  1  0
  8 12  1  0
  8  9  1  0
  9  7  1  0
  9 11  1  0
 10  8  2  0
 13 15  1  0
 13 12  1  0
 14 25  2  0
 15 20  1  0
 16 24  1  0
 16 26  1  0
 17 23  1  0
 17 19  1  0
 18 24  1  0
 19 18  1  0
 20 19  2  0
 21 22  1  0
 21 15  2  0
 22 17  2  0
 23 16  1  0
 24 14  1  0
 26 28  2  0
 27 26  1  0
 29 27  1  0
 30 39  2  0
 30 35  1  0
 31 27  1  0
 31 35  1  0
 32 31  1  0
 33 34  1  0
 33 32  1  0
 34 30  1  0
 35 36  2  0
 36 37  1  0
 38 37  2  0
 39 38  1  0
 40 14  1  0
 40 45  1  0
 40 41  1  0
 41 44  1  1
 41 42  1  0
 43 41  1  0
 45 48  1  0
 46 50  1  0
 46 45  1  0
 47 46  2  0
 50 49  1  0
 52 50  1  0
 52 53  1  0
 52 51  1  0
 54 55  1  0
 54  1  1  0
 56 57  1  0
 56 55  1  0
 57 58  1  0
 58 59  1  0
 59 60  1  0
 60 61  1  0
 61 63  1  0
 62 66  1  0
 62 64  2  0
 63 62  1  0
 65 63  1  0
 67 75  1  0
 68 73  1  0
 69 70  1  0
 69 68  1  0
 71 70  1  0
 71 80  1  0
 71 72  1  0
 73 67  1  0
 73 72  1  0
 74 67  2  0
 75 66  1  0
 75 76  1  0
 77 78  2  0
 78 97  1  0
 79 78  1  0
 79 82  1  0
 80 77  1  0
 80 81  1  0
 81 79  2  0
 82 83  1  0
 83 84  2  0
 85 88  1  0
 85 84  1  0
 86 85  2  0
 87 86  1  0
 87 82  2  0
 88 89  1  0
 89 90  1  0
 90 91  2  0
 92 91  1  0
 92 96  1  0
 93 92  2  0
 94 89  2  0
 94 93  1  0
 95 94  1  0
 97 98  1  0
 98101  1  0
 98100  1  0
 99 97  2  0
102103  1  0
102 77  1  0
104102  1  0
M  ISO  4  12 101  13 101  67 100  75 100
M  END
>  <TORSDO>  (4) 
F 31

>  <SCORE>  (4) 
-2.933

>  <name>  (4) 
3

>  <ligand_id>  (4) 
3

>  <original_smiles>  (4) 
[H]c1c([H])c([H])c2c(c1[H])C([H])([H])C([H])([H])C([H])([H])C2([H])N([H])C(=O)C1([H])N(C(=O)C([H])(N([H])C(=O)C([H])(N([H])C([H])([H])[H])C([H])([H])[H])C(C([H])([H])[H])(C([H])([H])[H])C([H])([H])[H])C([H])([H])c2c([H])c(OC([H])([H])C(=O)N([H])C([H])([H])C([H])([H])C(=O)N([H])C([H])([H])C([H])([H])OC([H])([H])C([H])([H])C([H])([H])C([H])([H])C([H])([H])C([H])([H])N([H])C(=O)C([H])([H])N([H])C(=O)N3C([H])([H])C([H])([H])C([H])([H])C([H])(n4nc(-c5c([H])c([H])c(Oc6c([H])c([H])c(F)c([H])c6F)c([H])c5[H])c(C(=O)N([H])[H])c4N([H])[H])C3([H])[H])c([H])c([H])c2C1([H])[H]

>  <smiles>  (4) 
[H]c1c([H])c([H])c2c(c1[H])C([H])([H])C([H])([H])C([H])([H])C2([H])N([H])C(=O)C1([H])N(C(=O)C([H])(N([H])C(=O)C([H])(N([H])C([H])([H])[H])C([H])([H])[H])C(C([H])([H])[H])(C([H])([H])[H])C([H])([H])[H])C([H])([H])c2c([H])c(OC([H])([H])C(=O)N([H])C([H])([H])C([H])([H])C(=O)N([H])C([H])([H])C([H])([H])OC([H])([H])C([H])([H])C([H])([H])C([H])([H])C([H])([H])C([H])([H])N([H])C(=O)C([H])([H])N([H])C(=O)N3C([H])([H])C([H])([H])C([H])([H])C([H])(n4nc(-c5c([H])c([H])c(Oc6c([H])c([H])c(F)c([H])c6F)c([H])c5[H])c(C(=O)N([H])[H])c4N([H])[H])C3([H])[H])c([H])c([H])c2C1([H])[H]

$$$$
5:0:0
     RDKit          3D

 96103  0  0  1  0  0  0  0  0999 V2000
  -28.7250  -21.3260   21.5460 C   0  0  0  0  0  2  0  0  0  0  0  0
  -30.0180  -20.6820   22.0510 C   0  0  0  0  0  0  0  0  0  0  0  0
  -30.1180  -19.3680   21.8410 N   0  0  0  0  0  0  0  0  0  0  0  0
  -30.9060  -21.3480   22.5950 O   0  0  0  0  0  0  0  0  0  0  0  0
  -29.3240  -18.9120   21.4100 H   0  0  0  0  0  0  0  0  0  0  0  0
  -31.3310  -18.5810   21.9970 C   0  0  0  0  0  2  0  0  0  0  0  0
  -31.6950  -17.9740   20.6360 C   0  0  0  0  0  2  0  0  0  0  0  0
  -33.1020  -17.3720   20.5990 C   0  0  0  0  0  2  0  0  0  0  0  0
  -33.3510  -16.5580   19.3190 C   0  0  0  0  0  2  0  0  0  0  0  0
  -33.3820  -15.0430   19.5440 C   0  0  0  0  0  2  0  0  0  0  0  0
  -31.7160  -13.6770   18.3030 C   0  0  0  0  0  0  0  0  0  0  0  0
  -31.0870  -11.3150   18.1170 C   0  0  0  0  0  2  0  0  0  0  0  0
  -29.9040  -10.9720   17.2050 C   0  0  0  0  0  2  0  0  0  0  0  0
  -28.5860  -11.0950   17.9810 C   0  0  0  0  0  2  0  0  0  0  0  0
  -28.4510  -12.4620   18.6980 C   0  0  0  0  0  3  0  0  0  0  0  0
  -29.7130  -12.7970   19.5220 C   0  0  0  0  0  2  0  0  0  0  0  0
  -30.9030  -12.6630   18.6640 N   0  0  0  0  0  0  0  0  0  0  0  0
  -32.3410  -13.7230   17.2380 O   0  0  0  0  0  0  0  0  0  0  0  0
  -32.0810  -14.4010   19.3680 N   0  0  0  0  0  0  0  0  0  0  0  0
  -31.5480  -14.2320   20.2080 H   0  0  0  0  0  0  0  0  0  0  0  0
  -26.6180  -13.5930   20.1100 C   0  0  0  0  0  0  0  0  0  0  0  0
  -25.4830  -13.1010   20.6990 C   0  0  0  0  0  0  0  0  0  0  0  0
  -25.4710  -11.6990   20.4240 C   0  0  0  0  0  0  0  0  0  0  0  0
  -27.2420  -12.5050   19.5210 N   0  0  0  0  0  0  0  0  0  0  0  0
  -26.5670  -11.3510   19.7610 N   0  0  0  0  0  0  0  0  0  0  0  0
  -24.4530  -10.6780   20.7040 C   0  0  0  0  0  0  0  0  0  0  0  0
  -24.7210   -9.5840   21.5560 C   0  0  0  0  0  3  0  0  0  0  0  0
  -23.7210   -8.6250   21.8250 C   0  0  0  0  0  3  0  0  0  0  0  0
  -22.4390   -8.7550   21.2420 C   0  0  0  0  0  0  0  0  0  0  0  0
  -22.1850   -9.8340   20.3770 C   0  0  0  0  0  3  0  0  0  0  0  0
  -23.1820  -10.7850   20.1070 C   0  0  0  0  0  3  0  0  0  0  0  0
  -21.4140   -7.8590   21.4250 O   0  0  0  0  0  0  0  0  0  0  0  0
  -21.2790   -7.1490   22.5910 C   0  0  0  0  0  0  0  0  0  0  0  0
  -21.0380   -7.7860   23.8280 C   0  0  0  0  0  3  0  0  0  0  0  0
  -20.8350   -7.0140   24.9880 C   0  0  0  0  0  3  0  0  0  0  0  0
  -20.8660   -5.6090   24.9160 C   0  0  0  0  0  0  0  0  0  0  0  0
  -21.1010   -4.9730   23.6840 C   0  0  0  0  0  3  0  0  0  0  0  0
  -21.3040   -5.7410   22.5250 C   0  0  0  0  0  0  0  0  0  0  0  0
  -21.5090   -5.1230   21.3370 F   0  0  0  0  0  0  0  0  0  0  0  0
  -20.6630   -4.8670   26.0290 F   0  0  0  0  0  0  0  0  0  0  0  0
  -24.4200  -13.9000   21.3970 C   0  0  0  0  0  0  0  0  0  0  0  0
  -23.7670  -13.3070   22.3920 N   0  0  0  0  0  0  0  0  0  0  0  0
  -24.1940  -15.0690   21.0930 O   0  0  0  0  0  0  0  0  0  0  0  0
  -23.9650  -12.3530   22.6510 H   0  0  0  0  0  0  0  0  0  0  0  0
  -23.0620  -13.8180   22.9060 H   0  0  0  0  0  0  0  0  0  0  0  0
  -27.1600  -14.8710   20.0080 N   0  0  0  0  0  0  0  0  0  0  0  0
  -26.6950  -15.6920   20.3820 H   0  0  0  0  0  0  0  0  0  0  0  0
  -28.0040  -15.0920   19.4930 H   0  0  0  0  0  0  0  0  0  0  0  0
  -29.4340  -23.6040   20.8530 C   0  0  0  0  0  0  0  0  0  0  0  0
  -28.7240  -22.7810   21.6290 N   0  0  0  0  0  0  0  0  0  0  0  0
  -30.2780  -23.2140   20.0440 O   0  0  0  0  0  0  0  0  0  0  0  0
  -28.0580  -23.1970   22.2630 H   0  0  0  0  0  0  0  0  0  0  0  0
  -28.9970  -24.9660   21.0400 C   0  0  0  0  0  3  0  0  0  0  0  0
  -29.3650  -25.9300   20.1810 C   0  0  0  0  0  3  0  0  0  0  0  0
  -28.8080  -27.3250   20.2450 C   0  0  0  0  0  2  0  0  0  0  0  0
  -27.7570  -27.3680   19.2940 O   0  0  0  0  0  0  0  0  0  0  0  0
  -24.5200  -32.1680   23.4680 C   0  0  0  0  0  0  0  0  0  0  0  0
  -26.6450  -28.1010   19.6150 C   0  0  0  0  0  0  0  0  0  0  0  0
  -23.0810  -31.0140   21.8140 C   0  0  0  0  0  3  0  0  0  0  0  0
  -24.3110  -29.6100   20.0770 C   0  0  0  0  0  0  0  0  0  0  0  0
  -25.5760  -31.3350   21.3750 C   0  0  0  0  0  2  0  0  0  0  0  0
  -25.5400  -30.0440   20.5910 C   0  0  0  0  0  0  0  0  0  0  0  0
  -26.7110  -29.2940   20.3680 C   0  0  0  0  0  3  0  0  0  0  0  0
  -25.4050  -27.6710   19.1030 C   0  0  0  0  0  3  0  0  0  0  0  0
  -24.2340  -28.4190   19.3350 C   0  0  0  0  0  3  0  0  0  0  0  0
  -23.1130  -30.4920   20.3500 C   0  0  0  0  0  2  0  0  0  0  0  0
  -24.4170  -31.5120   22.2790 N   0  0  0  0  0  0  0  0  0  0  0  0
  -23.5180  -32.4030   24.1580 O   0  0  0  0  0  0  0  0  0  0  0  0
  -22.4930  -29.9060   22.7180 C   0  0  0  0  0  0  0  0  0  0  0  0
  -21.1750  -29.6820   22.6050 N   0  0  0  0  0  0  0  0  0  0  0  0
  -23.2200  -29.2530   23.4710 O   0  0  0  0  0  0  0  0  0  0  0  0
  -20.6460  -30.2720   21.9770 H   0  0  0  0  0  0  0  0  0  0  0  0
  -17.8960  -28.2120   22.9450 C   0  0  0  0  0  0  0  0  0  0  0  0
  -20.4120  -28.6640   23.3270 C   0  0  0  0  0  3  0  0  0  0  0  0
  -20.6530  -27.2600   22.7270 C   0  0  0  0  0  2  0  0  0  0  0  0
  -19.6210  -26.8750   21.6630 C   0  0  0  0  0  2  0  0  0  0  0  0
  -18.2070  -26.8970   22.2520 C   0  0  0  0  0  2  0  0  0  0  0  0
  -18.9320  -29.0500   23.4350 C   0  0  0  0  0  0  0  0  0  0  0  0
  -18.5900  -30.2830   24.0340 C   0  0  0  0  0  3  0  0  0  0  0  0
  -17.2450  -30.6760   24.1530 C   0  0  0  0  0  3  0  0  0  0  0  0
  -16.2220  -29.8350   23.6810 C   0  0  0  0  0  3  0  0  0  0  0  0
  -16.5490  -28.6060   23.0800 C   0  0  0  0  0  3  0  0  0  0  0  0
  -25.8940  -32.6770   24.0110 C   0  0  0  0  0  3  0  0  0  0  0  0
  -26.4820  -31.7710   25.1600 C   0  0  1  0  0  0  0  0  0  0  0  0
  -25.4860  -31.5000   26.3110 C   0  0  0  0  0  1  0  0  0  0  0  0
  -26.9390  -30.4060   24.5960 C   0  0  0  0  0  1  0  0  0  0  0  0
  -27.7350  -32.4410   25.7680 C   0  0  0  0  0  1  0  0  0  0  0  0
  -25.7050  -34.0550   24.4770 N   0  0  0  0  0  0  0  0  0  0  0  0
  -26.0930  -35.1460   23.8050 C   0  0  0  0  0  0  0  0  0  0  0  0
  -26.7220  -35.0910   22.7440 O   0  0  0  0  0  0  0  0  0  0  0  0
  -25.1560  -34.1740   25.3150 H   0  0  0  0  0  0  0  0  0  0  0  0
  -24.4900  -37.0780   23.6730 C   0  0  0  0  0  1  0  0  0  0  0  0
  -25.7220  -36.5170   24.4020 C   0  0  0  0  0  3  0  0  0  0  0  0
  -27.9370  -37.1720   25.2330 C   0  0  0  0  0  1  0  0  0  0  0  0
  -26.8230  -37.5020   24.3480 N   0  0  0  0  0  0  0  0  0  0  0  0
  -26.4900  -38.4310   24.5900 H   0  0  0  0  0  0  0  0  0  0  0  0
  1 50  1  0
  1  2  1  0
  2  4  2  0
  3  6  1  0
  3  2  1  0
  5  3  1  0
  7  6  1  0
  8  7  1  0
  9 10  1  0
  9  8  1  0
 11 17  1  0
 11 19  1  0
 12 17  1  0
 13 14  1  0
 13 12  1  0
 15 14  1  0
 15 24  1  0
 15 16  1  0
 17 16  1  0
 18 11  2  0
 19 10  1  0
 19 20  1  0
 21 22  2  0
 22 41  1  0
 23 22  1  0
 23 26  1  0
 24 25  1  0
 24 21  1  0
 25 23  2  0
 26 27  1  0
 27 28  2  0
 29 32  1  0
 29 28  1  0
 30 29  2  0
 31 30  1  0
 31 26  2  0
 32 33  1  0
 33 34  1  0
 34 35  2  0
 36 35  1  0
 36 40  1  0
 37 36  2  0
 38 33  2  0
 38 37  1  0
 39 38  1  0
 41 42  1  0
 42 44  1  0
 42 45  1  0
 43 41  2  0
 46 21  1  0
 46 47  1  0
 48 46  1  0
 49 53  1  0
 49 50  1  0
 50 52  1  0
 51 49  2  0
 54 55  1  0
 54 53  2  0
 56 58  1  0
 56 55  1  0
 57 68  2  0
 58 63  1  0
 59 67  1  0
 59 69  1  0
 60 66  1  0
 60 62  1  0
 61 67  1  0
 62 61  1  0
 63 62  2  0
 64 65  1  0
 64 58  2  0
 65 60  2  0
 66 59  1  0
 67 57  1  0
 69 71  2  0
 70 69  1  0
 72 70  1  0
 73 82  2  0
 73 78  1  0
 74 70  1  0
 74 78  1  0
 75 74  1  0
 76 77  1  0
 76 75  1  0
 77 73  1  0
 78 79  2  0
 79 80  1  0
 81 80  2  0
 82 81  1  0
 83 57  1  0
 83 88  1  0
 83 84  1  0
 84 87  1  1
 84 85  1  0
 86 84  1  0
 88 91  1  0
 89 93  1  0
 89 88  1  0
 90 89  2  0
 93 92  1  0
 95 93  1  0
 95 96  1  0
 95 94  1  0
M  ISO  4  11 100  19 100  55 101  56 101
M  END
>  <TORSDO>  (5) 
F 25

>  <SCORE>  (5) 
-7.641

>  <name>  (5) 
5

>  <ligand_id>  (5) 
5

>  <original_smiles>  (5) 
[H]C(C(=O)N([H])C([H])([H])C(=O)N([H])C([H])([H])C([H])([H])C([H])([H])C([H])([H])C([H])([H])N([H])C(=O)N1C([H])([H])C([H])([H])C([H])([H])C([H])(n2nc(-c3c([H])c([H])c(Oc4c([H])c([H])c(F)c([H])c4F)c([H])c3[H])c(C(=O)N([H])[H])c2N([H])[H])C1([H])[H])=C([H])C([H])([H])Oc1c([H])c([H])c2c(c1[H])C([H])([H])N(C(=O)C([H])(N([H])C(=O)C([H])(N([H])C([H])([H])[H])C([H])([H])[H])C(C([H])([H])[H])(C([H])([H])[H])C([H])([H])[H])C([H])(C(=O)N([H])C1([H])c3c([H])c([H])c([H])c([H])c3C([H])([H])C([H])([H])C1([H])[H])C2([H])[H]

>  <smiles>  (5) 
[H]C(C(=O)N([H])C([H])([H])C(=O)N([H])C([H])([H])C([H])([H])C([H])([H])C([H])([H])C([H])([H])N([H])C(=O)N1C([H])([H])C([H])([H])C([H])([H])C([H])(n2nc(-c3c([H])c([H])c(Oc4c([H])c([H])c(F)c([H])c4F)c([H])c3[H])c(C(=O)N([H])[H])c2N([H])[H])C1([H])[H])=C([H])C([H])([H])Oc1c([H])c([H])c2c(c1[H])C([H])([H])N(C(=O)C([H])(N([H])C(=O)C([H])(N([H])C([H])([H])[H])C([H])([H])[H])C(C([H])([H])[H])(C([H])([H])[H])C([H])([H])[H])C([H])(C(=O)N([H])C1([H])c3c([H])c([H])c([H])c([H])c3C([H])([H])C([H])([H])C1([H])[H])C2([H])[H]

$$$$
6:0:0
     RDKit          3D

 97102  0  0  1  0  0  0  0  0999 V2000
  -21.5610  -22.9500   22.4540 C   0  0  0  0  0  2  0  0  0  0  0  0
  -20.1190  -22.5520   21.9820 C   0  0  0  0  0  2  0  0  0  0  0  0
  -19.2050  -23.6030   21.2940 C   0  0  0  0  0  0  0  0  0  0  0  0
  -19.6260  -24.8810   21.2270 N   0  0  0  0  0  0  0  0  0  0  0  0
  -18.1740  -23.2230   20.7340 O   0  0  0  0  0  0  0  0  0  0  0  0
  -20.3980  -25.0560   21.8540 H   0  0  0  0  0  0  0  0  0  0  0  0
  -19.5200  -25.9320   20.0890 C   0  0  0  0  0  3  0  0  0  0  0  0
  -21.8010  -26.5320   18.0890 C   0  0  0  0  0  1  0  0  0  0  0  0
  -23.8180  -26.2220   18.4270 O   0  0  0  0  0  1  0  0  0  0  0  0
  -24.5770  -29.8820   22.1860 C   0  0  0  0  0  0  0  0  0  0  0  0
  -25.3400  -26.3860   18.1450 C   0  0  0  0  0  3  0  0  0  0  0  0
  -23.5620  -29.4310   20.0380 C   0  0  0  0  0  3  0  0  0  0  0  0
  -25.0520  -28.8020   18.0150 C   0  0  0  0  0  3  0  0  0  0  0  0
  -26.0720  -29.3740   20.2290 C   0  0  0  0  0  2  0  0  0  0  0  0
  -25.9580  -28.4600   19.0230 C   0  0  0  0  0  3  0  0  0  0  0  0
  -26.2670  -27.0910   19.0240 C   0  0  0  0  0  2  0  0  0  0  0  0
  -25.6190  -26.7550   16.8480 C   0  0  0  0  0  2  0  0  0  0  0  0
  -25.0260  -28.0190   16.8220 C   0  0  0  0  0  2  0  0  0  0  0  0
  -23.8600  -29.5800   18.4920 C   0  0  0  0  0  2  0  0  0  0  0  0
  -24.7610  -29.6280   20.8630 N   0  0  0  0  0  0  0  0  0  0  0  0
  -23.4420  -30.0420   22.6720 O   0  0  0  0  0  0  0  0  0  0  0  0
  -22.9650  -28.1080   20.5490 C   0  0  0  0  0  0  0  0  0  0  0  0
  -21.7010  -28.1100   20.8100 N   0  0  0  0  0  0  0  0  0  0  0  0
  -23.6020  -27.0850   20.7770 O   0  0  0  0  0  0  0  0  0  0  0  0
  -21.1680  -28.9690   20.7470 H   0  0  0  0  0  0  0  0  0  0  0  0
  -18.2720  -27.9580   20.4520 C   0  0  0  0  0  0  0  0  0  0  0  0
  -20.9540  -26.8800   20.8670 C   0  0  0  0  0  3  0  0  0  0  0  0
  -21.0290  -25.3390   19.3990 C   0  0  0  0  0  2  0  0  0  0  0  0
  -19.2580  -25.7890   18.0890 C   0  0  0  0  0 15  0  0  0  0  0  0
  -18.1510  -27.2500   18.8160 C   0  0  0  0  0  1  0  0  0  0  0  0
  -19.5390  -27.8410   21.2740 C   0  0  0  0  0  0  0  0  0  0  0  0
  -19.5120  -28.3810   22.6100 C   0  0  0  0  0  3  0  0  0  0  0  0
  -18.3610  -28.8710   23.2690 C   0  0  0  0  0  3  0  0  0  0  0  0
  -17.1240  -28.7570   22.6180 C   0  0  0  0  0  3  0  0  0  0  0  0
  -17.0910  -28.2990   21.2610 C   0  0  0  0  0  3  0  0  0  0  0  0
  -25.7870  -30.0000   23.1370 C   0  0  0  0  0  3  0  0  0  0  0  0
  -25.5500  -31.2200   23.9090 N   0  0  0  0  0  0  0  0  0  0  0  0
  -26.0660  -32.4150   23.5990 C   0  0  0  0  0  0  0  0  0  0  0  0
  -26.8740  -32.5710   22.6800 O   0  0  0  0  0  0  0  0  0  0  0  0
  -24.8500  -31.1690   24.6350 H   0  0  0  0  0  0  0  0  0  0  0  0
  -24.5800  -34.4420   23.6730 C   0  0  0  0  0  1  0  0  0  0  0  0
  -25.6230  -33.6190   24.4480 C   0  0  0  0  0  3  0  0  0  0  0  0
  -27.6610  -33.8400   25.7970 C   0  0  0  0  0  1  0  0  0  0  0  0
  -26.7500  -34.4860   24.8540 N   0  0  0  0  0  0  0  0  0  0  0  0
  -26.4110  -35.3440   25.2790 H   0  0  0  0  0  0  0  0  0  0  0  0
  -25.9640  -28.7530   24.0850 C   0  0  1  0  0  0  0  0  0  0  0  0
  -24.6760  -28.3380   24.8320 C   0  0  0  0  0  1  0  0  0  0  0  0
  -26.4560  -27.5190   23.2960 C   0  0  0  0  0  1  0  0  0  0  0  0
  -27.0590  -29.0680   25.1260 C   0  0  0  0  0  1  0  0  0  0  0  0
  -22.6310  -22.9230   21.3190 C   0  0  0  0  0  2  0  0  0  0  0  0
  -24.0170  -23.4980   21.7350 C   0  0  0  0  0  2  0  0  0  0  0  0
  -25.0300  -23.7100   20.5740 C   0  0  0  0  0  2  0  0  0  0  0  0
  -26.4940  -24.0150   21.0300 C   0  0  0  0  0  2  0  0  0  0  0  0
  -27.5410  -23.9280   19.8740 C   0  0  0  0  0  2  0  0  0  0  0  0
  -30.0110  -23.5200   19.6490 C   0  0  0  0  0  0  0  0  0  0  0  0
  -28.9620  -24.1310   20.2500 N   0  0  0  0  0  0  0  0  0  0  0  0
  -29.8410  -22.6700   18.7750 O   0  0  0  0  0  0  0  0  0  0  0  0
  -29.1610  -24.8340   20.9500 H   0  0  0  0  0  0  0  0  0  0  0  0
  -31.4650  -23.8820   20.0500 C   0  0  0  0  0  2  0  0  0  0  0  0
  -33.4990  -22.3360   20.4060 C   0  0  0  0  0  0  0  0  0  0  0  0
  -34.8650  -20.3290   19.9330 C   0  0  0  0  0  2  0  0  0  0  0  0
  -34.4570  -19.7770   18.5520 C   0  0  0  0  0  2  0  0  0  0  0  0
  -33.1950  -18.8910   18.6290 C   0  0  0  0  0  2  0  0  0  0  0  0
  -32.0560  -19.5430   19.4580 C   0  0  0  0  0  3  0  0  0  0  0  0
  -32.6140  -20.0300   20.8110 C   0  0  0  0  0  2  0  0  0  0  0  0
  -33.6920  -20.9960   20.5210 N   0  0  0  0  0  0  0  0  0  0  0  0
  -34.4100  -23.1260   20.1290 O   0  0  0  0  0  0  0  0  0  0  0  0
  -32.1930  -22.6820   20.4860 N   0  0  0  0  0  0  0  0  0  0  0  0
  -31.5900  -21.9060   20.7060 H   0  0  0  0  0  0  0  0  0  0  0  0
  -29.5630  -18.9220   19.6740 C   0  0  0  0  0  0  0  0  0  0  0  0
  -28.9420  -17.7110   19.8210 C   0  0  0  0  0  0  0  0  0  0  0  0
  -29.9830  -16.7330   19.8630 C   0  0  0  0  0  0  0  0  0  0  0  0
  -30.9230  -18.6430   19.6420 N   0  0  0  0  0  0  0  0  0  0  0  0
  -31.1690  -17.3210   19.8110 N   0  0  0  0  0  0  0  0  0  0  0  0
  -29.9180  -15.2670   19.8920 C   0  0  0  0  0  0  0  0  0  0  0  0
  -30.4900  -14.5270   20.9490 C   0  0  0  0  0  3  0  0  0  0  0  0
  -30.4030  -13.1180   20.9660 C   0  0  0  0  0  3  0  0  0  0  0  0
  -29.7380  -12.4350   19.9190 C   0  0  0  0  0  0  0  0  0  0  0  0
  -29.1900  -13.1760   18.8560 C   0  0  0  0  0  3  0  0  0  0  0  0
  -29.2810  -14.5780   18.8400 C   0  0  0  0  0  3  0  0  0  0  0  0
  -29.6250  -11.0680   19.8390 O   0  0  0  0  0  0  0  0  0  0  0  0
  -29.4970  -10.2870   20.9600 C   0  0  0  0  0  0  0  0  0  0  0  0
  -28.4380  -10.4660   21.8760 C   0  0  0  0  0  3  0  0  0  0  0  0
  -28.3050   -9.5980   22.9770 C   0  0  0  0  0  3  0  0  0  0  0  0
  -29.2200   -8.5450   23.1570 C   0  0  0  0  0  0  0  0  0  0  0  0
  -30.2710   -8.3600   22.2430 C   0  0  0  0  0  3  0  0  0  0  0  0
  -30.4070   -9.2270   21.1450 C   0  0  0  0  0  0  0  0  0  0  0  0
  -31.4100   -9.0320   20.2550 F   0  0  0  0  0  0  0  0  0  0  0  0
  -29.0870   -7.7040   24.2100 F   0  0  0  0  0  0  0  0  0  0  0  0
  -27.4620  -17.4560   19.8250 C   0  0  0  0  0  0  0  0  0  0  0  0
  -27.0220  -16.4090   20.5160 N   0  0  0  0  0  0  0  0  0  0  0  0
  -26.6810  -18.2110   19.2480 O   0  0  0  0  0  0  0  0  0  0  0  0
  -27.6620  -15.7960   21.0010 H   0  0  0  0  0  0  0  0  0  0  0  0
  -26.0300  -16.2150   20.5630 H   0  0  0  0  0  0  0  0  0  0  0  0
  -29.0830  -20.2220   19.5540 N   0  0  0  0  0  0  0  0  0  0  0  0
  -28.0910  -20.4280   19.5730 H   0  0  0  0  0  0  0  0  0  0  0  0
  -29.6450  -21.0550   19.3910 H   0  0  0  0  0  0  0  0  0  0  0  0
  2  1  1  0
  3  2  1  0
  4  3  1  0
  4  6  1  0
  5  3  2  0
  7 28  1  0
  7 27  1  0
  7  4  1  0
  8 28  1  0
 10 21  2  0
 11  9  1  0
 11 16  1  0
 12 22  1  0
 12 20  1  0
 13 18  1  0
 13 19  1  0
 13 15  1  0
 14 20  1  0
 15 16  1  0
 15 14  1  0
 17 11  1  0
 18 17  1  0
 19 12  1  0
 20 10  1  0
 22 24  2  0
 22 23  1  0
 25 23  1  0
 26 35  2  0
 26 31  1  0
 27 23  1  0
 27 31  1  0
 30 26  1  0
 31 32  2  0
 32 33  1  0
 34 33  2  0
 35 34  1  0
 36 10  1  0
 36 37  1  0
 36 46  1  0
 37 40  1  0
 38 37  1  0
 38 42  1  0
 39 38  2  0
 42 41  1  0
 42 44  1  0
 44 45  1  0
 44 43  1  0
 46 47  1  1
 46 49  1  0
 48 46  1  0
 50 51  1  0
 50  1  1  0
 52 53  1  0
 52 51  1  0
 54 56  1  0
 54 53  1  0
 55 59  1  0
 55 56  1  0
 56 58  1  0
 57 55  2  0
 59 68  1  0
 60 68  1  0
 60 66  1  0
 61 66  1  0
 62 63  1  0
 62 61  1  0
 64 63  1  0
 64 73  1  0
 64 65  1  0
 66 65  1  0
 67 60  2  0
 68 69  1  0
 70 71  2  0
 71 90  1  0
 71 72  1  0
 72 75  1  0
 73 70  1  0
 73 74  1  0
 74 72  2  0
 75 76  1  0
 76 77  2  0
 78 77  1  0
 79 78  2  0
 80 79  1  0
 80 75  2  0
 81 78  1  0
 81 82  1  0
 82 87  2  0
 82 83  1  0
 83 84  2  0
 84 85  1  0
 85 89  1  0
 86 85  2  0
 87 86  1  0
 88 87  1  0
 90 91  1  0
 91 94  1  0
 91 93  1  0
 92 90  2  0
 95 96  1  0
 95 70  1  0
 97 95  1  0
M  ISO  4   8 101   9 101  60 100  68 100
M  END
>  <TORSDO>  (6) 
F 27

>  <SCORE>  (6) 
-2.014

>  <name>  (6) 
6

>  <ligand_id>  (6) 
6

>  <original_smiles>  (6) 
[H]c1c([H])c([H])c2c(c1[H])C([H])([H])C([H])([H])C([H])([H])C2([H])N([H])C(=O)C1([H])N(C(=O)C([H])(N([H])C(=O)C([H])(N([H])C([H])([H])[H])C([H])([H])[H])C(C([H])([H])[H])(C([H])([H])[H])C([H])([H])[H])C([H])([H])c2c([H])c(OC([H])([H])C([H])([H])N([H])C(=O)C([H])([H])C([H])([H])C([H])([H])C([H])([H])C([H])([H])C([H])([H])C([H])([H])N([H])C(=O)C([H])([H])N([H])C(=O)N3C([H])([H])C([H])([H])C([H])([H])C([H])(n4nc(-c5c([H])c([H])c(Oc6c([H])c([H])c(F)c([H])c6F)c([H])c5[H])c(C(=O)N([H])[H])c4N([H])[H])C3([H])[H])c([H])c([H])c2C1([H])[H]

>  <smiles>  (6) 
[H]c1c([H])c([H])c2c(c1[H])C([H])([H])C([H])([H])C([H])([H])C2([H])N([H])C(=O)C1([H])N(C(=O)C([H])(N([H])C(=O)C([H])(N([H])C([H])([H])[H])C([H])([H])[H])C(C([H])([H])[H])(C([H])([H])[H])C([H])([H])[H])C([H])([H])c2c([H])c(OC([H])([H])C([H])([H])N([H])C(=O)C([H])([H])C([H])([H])C([H])([H])C([H])([H])C([H])([H])C([H])([H])C([H])([H])N([H])C(=O)C([H])([H])N([H])C(=O)N3C([H])([H])C([H])([H])C([H])([H])C([H])(n4nc(-c5c([H])c([H])c(Oc6c([H])c([H])c(F)c([H])c6F)c([H])c5[H])c(C(=O)N([H])[H])c4N([H])[H])C3([H])[H])c([H])c([H])c2C1([H])[H]

$$$$
8:0:0
     RDKit          3D

 94101  0  0  1  0  0  0  0  0999 V2000
  -30.5750  -23.3570   21.6710 C   0  0  0  0  0  2  0  0  0  0  0  0
  -30.3630  -21.8320   21.5340 C   0  0  0  0  0  2  0  0  0  0  0  0
  -31.6730  -21.0100   21.5750 C   0  0  0  0  0  2  0  0  0  0  0  0
  -31.5100  -19.5930   21.0090 C   0  0  0  0  0  0  0  0  0  0  0  0
  -31.9230  -18.5600   21.7630 N   0  0  0  0  0  0  0  0  0  0  0  0
  -31.0190  -19.4340   19.8910 O   0  0  0  0  0  0  0  0  0  0  0  0
  -32.3540  -18.7760   22.6530 H   0  0  0  0  0  0  0  0  0  0  0  0
  -31.8410  -17.1470   21.3850 C   0  0  0  0  0  2  0  0  0  0  0  0
  -30.3720  -16.6510   21.3610 C   0  0  0  0  0  2  0  0  0  0  0  0
  -30.6190  -14.4230   20.1930 C   0  0  0  0  0  0  0  0  0  0  0  0
  -30.2230  -12.3460   18.9190 C   0  0  0  0  0  2  0  0  0  0  0  0
  -29.2150  -12.5920   17.7790 C   0  0  0  0  0  2  0  0  0  0  0  0
  -27.7630  -12.4490   18.2720 C   0  0  0  0  0  2  0  0  0  0  0  0
  -27.4990  -13.2410   19.5800 C   0  0  0  0  0  3  0  0  0  0  0  0
  -28.6040  -12.9650   20.6250 C   0  0  0  0  0  2  0  0  0  0  0  0
  -29.9160  -13.2720   20.0190 N   0  0  0  0  0  0  0  0  0  0  0  0
  -31.5820  -14.7380   19.4880 O   0  0  0  0  0  0  0  0  0  0  0  0
  -30.1700  -15.2100   21.1810 N   0  0  0  0  0  0  0  0  0  0  0  0
  -29.4260  -14.8040   21.7300 H   0  0  0  0  0  0  0  0  0  0  0  0
  -25.1310  -13.8430   20.3940 C   0  0  0  0  0  0  0  0  0  0  0  0
  -24.0820  -13.0660   20.8090 C   0  0  0  0  0  0  0  0  0  0  0  0
  -24.5440  -11.7150   20.7480 C   0  0  0  0  0  0  0  0  0  0  0  0
  -26.1670  -12.9630   20.1140 N   0  0  0  0  0  0  0  0  0  0  0  0
  -25.8180  -11.6780   20.3790 N   0  0  0  0  0  0  0  0  0  0  0  0
  -23.8280  -10.4500   20.9670 C   0  0  0  0  0  0  0  0  0  0  0  0
  -24.3030   -9.4850   21.8820 C   0  0  0  0  0  3  0  0  0  0  0  0
  -23.5900   -8.2820   22.0880 C   0  0  0  0  0  3  0  0  0  0  0  0
  -22.3880   -8.0390   21.3820 C   0  0  0  0  0  0  0  0  0  0  0  0
  -21.9330   -8.9930   20.4550 C   0  0  0  0  0  3  0  0  0  0  0  0
  -22.6460  -10.1870   20.2480 C   0  0  0  0  0  3  0  0  0  0  0  0
  -21.6440   -6.8900   21.4980 O   0  0  0  0  0  0  0  0  0  0  0  0
  -21.6390   -6.1510   22.6540 C   0  0  0  0  0  0  0  0  0  0  0  0
  -21.2690   -6.7100   23.8970 C   0  0  0  0  0  3  0  0  0  0  0  0
  -21.2110   -5.8960   25.0460 C   0  0  0  0  0  3  0  0  0  0  0  0
  -21.5110   -4.5240   24.9530 C   0  0  0  0  0  0  0  0  0  0  0  0
  -21.8730   -3.9640   23.7150 C   0  0  0  0  0  3  0  0  0  0  0  0
  -21.9330   -4.7740   22.5680 C   0  0  0  0  0  0  0  0  0  0  0  0
  -22.2610   -4.2250   21.3750 F   0  0  0  0  0  0  0  0  0  0  0  0
  -21.4460   -3.7400   26.0560 F   0  0  0  0  0  0  0  0  0  0  0  0
  -22.6990  -13.5380   21.1520 C   0  0  0  0  0  0  0  0  0  0  0  0
  -22.0150  -12.8340   22.0470 N   0  0  0  0  0  0  0  0  0  0  0  0
  -22.2340  -14.5660   20.6620 O   0  0  0  0  0  0  0  0  0  0  0  0
  -22.4050  -12.0030   22.4680 H   0  0  0  0  0  0  0  0  0  0  0  0
  -21.0880  -13.1310   22.3160 H   0  0  0  0  0  0  0  0  0  0  0  0
  -25.2860  -15.2120   20.2130 N   0  0  0  0  0  0  0  0  0  0  0  0
  -24.5270  -15.8720   20.3450 H   0  0  0  0  0  0  0  0  0  0  0  0
  -26.1270  -15.6450   19.8470 H   0  0  0  0  0  0  0  0  0  0  0  0
  -29.2670  -24.1640   21.8220 C   0  0  0  0  0  2  0  0  0  0  0  0
  -27.9210  -24.3930   19.6860 C   0  0  0  0  0  0  0  0  0  0  0  0
  -28.2660  -23.7840   20.8290 N   0  0  0  0  0  0  0  0  0  0  0  0
  -27.0730  -23.8700   18.9620 O   0  0  0  0  0  0  0  0  0  0  0  0
  -27.7720  -22.9240   21.0200 H   0  0  0  0  0  0  0  0  0  0  0  0
  -28.5710  -25.7200   19.2390 C   0  0  0  0  0  2  0  0  0  0  0  0
  -28.3480  -26.8020   20.1560 O   0  0  0  0  0  0  0  0  0  0  0  0
  -24.5720  -31.9710   23.2400 C   0  0  0  0  0  0  0  0  0  0  0  0
  -27.1580  -27.5030   20.1330 C   0  0  0  0  0  0  0  0  0  0  0  0
  -23.3400  -30.5690   21.6150 C   0  0  0  0  0  3  0  0  0  0  0  0
  -24.7690  -29.0210   20.1780 C   0  0  0  0  0  0  0  0  0  0  0  0
  -25.8670  -30.9050   21.3960 C   0  0  0  0  0  2  0  0  0  0  0  0
  -25.9330  -29.5320   20.7620 C   0  0  0  0  0  0  0  0  0  0  0  0
  -27.1260  -28.7740   20.7490 C   0  0  0  0  0  3  0  0  0  0  0  0
  -25.9750  -27.0130   19.5340 C   0  0  0  0  0  3  0  0  0  0  0  0
  -24.7830  -27.7600   19.5640 C   0  0  0  0  0  3  0  0  0  0  0  0
  -23.5290  -29.8840   20.2370 C   0  0  0  0  0  2  0  0  0  0  0  0
  -24.6120  -31.1630   22.1410 N   0  0  0  0  0  0  0  0  0  0  0  0
  -23.4980  -32.2520   23.7880 O   0  0  0  0  0  0  0  0  0  0  0  0
  -22.6910  -29.5560   22.5860 C   0  0  0  0  0  0  0  0  0  0  0  0
  -21.3670  -29.3700   22.4620 N   0  0  0  0  0  0  0  0  0  0  0  0
  -23.3760  -28.9370   23.4060 O   0  0  0  0  0  0  0  0  0  0  0  0
  -20.8760  -29.9210   21.7730 H   0  0  0  0  0  0  0  0  0  0  0  0
  -17.9970  -28.1600   22.9490 C   0  0  0  0  0  0  0  0  0  0  0  0
  -20.5520  -28.4380   23.2390 C   0  0  0  0  0  3  0  0  0  0  0  0
  -20.6690  -27.0000   22.6840 C   0  0  0  0  0  2  0  0  0  0  0  0
  -19.5780  -26.6530   21.6660 C   0  0  0  0  0  2  0  0  0  0  0  0
  -18.1900  -26.8000   22.2970 C   0  0  0  0  0  2  0  0  0  0  0  0
  -19.1070  -28.9360   23.3770 C   0  0  0  0  0  0  0  0  0  0  0  0
  -18.8780  -30.2100   23.9420 C   0  0  0  0  0  3  0  0  0  0  0  0
  -17.5680  -30.7060   24.0890 C   0  0  0  0  0  3  0  0  0  0  0  0
  -16.4720  -29.9260   23.6800 C   0  0  0  0  0  3  0  0  0  0  0  0
  -16.6880  -28.6570   23.1150 C   0  0  0  0  0  3  0  0  0  0  0  0
  -25.8690  -32.5940   23.8430 C   0  0  0  0  0  3  0  0  0  0  0  0
  -25.5700  -33.9910   24.1850 N   0  0  0  0  0  0  0  0  0  0  0  0
  -25.8920  -35.0440   23.4240 C   0  0  0  0  0  0  0  0  0  0  0  0
  -26.5460  -34.9450   22.3820 O   0  0  0  0  0  0  0  0  0  0  0  0
  -24.9900  -34.1430   24.9980 H   0  0  0  0  0  0  0  0  0  0  0  0
  -24.1580  -36.8390   23.1060 C   0  0  0  0  0  1  0  0  0  0  0  0
  -25.4140  -36.4320   23.8950 C   0  0  0  0  0  3  0  0  0  0  0  0
  -27.5670  -37.3100   24.6850 C   0  0  0  0  0  1  0  0  0  0  0  0
  -26.4460  -37.4840   23.7650 N   0  0  0  0  0  0  0  0  0  0  0  0
  -26.0440  -38.4050   23.9190 H   0  0  0  0  0  0  0  0  0  0  0  0
  -26.4020  -31.8110   25.1050 C   0  0  1  0  0  0  0  0  0  0  0  0
  -25.3260  -31.5700   26.1900 C   0  0  0  0  0  1  0  0  0  0  0  0
  -26.9740  -30.4350   24.6930 C   0  0  0  0  0  1  0  0  0  0  0  0
  -27.5670  -32.5950   25.7520 C   0  0  0  0  0  1  0  0  0  0  0  0
  1 48  1  0
  2  3  1  0
  2  1  1  0
  4  3  1  0
  4  5  1  0
  5  7  1  0
  6  4  2  0
  8  5  1  0
  9  8  1  0
 10 18  1  0
 11 16  1  0
 12 13  1  0
 12 11  1  0
 14 13  1  0
 14 23  1  0
 14 15  1  0
 16 10  1  0
 16 15  1  0
 17 10  2  0
 18  9  1  0
 18 19  1  0
 20 21  2  0
 21 40  1  0
 22 21  1  0
 22 25  1  0
 23 24  1  0
 23 20  1  0
 24 22  2  0
 25 26  1  0
 26 27  2  0
 28 31  1  0
 28 27  1  0
 29 28  2  0
 30 29  1  0
 30 25  2  0
 31 32  1  0
 32 33  1  0
 33 34  2  0
 35 34  1  0
 35 39  1  0
 36 35  2  0
 37 32  2  0
 37 36  1  0
 38 37  1  0
 40 41  1  0
 41 44  1  0
 41 43  1  0
 42 40  2  0
 45 46  1  0
 45 20  1  0
 47 45  1  0
 49 50  1  0
 50 52  1  0
 50 48  1  0
 51 49  2  0
 53 49  1  0
 53 54  1  0
 55 66  2  0
 56 54  1  0
 56 61  1  0
 57 65  1  0
 57 67  1  0
 58 64  1  0
 58 60  1  0
 59 65  1  0
 60 59  1  0
 61 60  2  0
 62 63  1  0
 62 56  2  0
 63 58  2  0
 64 57  1  0
 65 55  1  0
 67 69  2  0
 68 67  1  0
 70 68  1  0
 71 80  2  0
 71 76  1  0
 72 68  1  0
 72 76  1  0
 73 72  1  0
 74 75  1  0
 74 73  1  0
 75 71  1  0
 76 77  2  0
 77 78  1  0
 79 78  2  0
 80 79  1  0
 81 55  1  0
 81 82  1  0
 81 91  1  0
 82 85  1  0
 83 87  1  0
 83 82  1  0
 84 83  2  0
 87 86  1  0
 89 87  1  0
 89 90  1  0
 89 88  1  0
 91 94  1  1
 91 92  1  0
 93 91  1  0
M  ISO  4  10 100  18 100  53 101  54 101
M  END
>  <TORSDO>  (7) 
F 24

>  <SCORE>  (7) 
-12.272

>  <name>  (7) 
8

>  <ligand_id>  (7) 
8

>  <original_smiles>  (7) 
[H]c1c([H])c([H])c2c(c1[H])C([H])([H])C([H])([H])C([H])([H])C2([H])N([H])C(=O)C1([H])N(C(=O)C([H])(N([H])C(=O)C([H])(N([H])C([H])([H])[H])C([H])([H])[H])C(C([H])([H])[H])(C([H])([H])[H])C([H])([H])[H])C([H])([H])c2c([H])c(OC([H])([H])C(=O)N([H])C([H])([H])C([H])([H])C([H])([H])C([H])([H])C(=O)N([H])C([H])([H])C([H])([H])N([H])C(=O)N3C([H])([H])C([H])([H])C([H])([H])C([H])(n4nc(-c5c([H])c([H])c(Oc6c([H])c([H])c(F)c([H])c6F)c([H])c5[H])c(C(=O)N([H])[H])c4N([H])[H])C3([H])[H])c([H])c([H])c2C1([H])[H]

>  <smiles>  (7) 
[H]c1c([H])c([H])c2c(c1[H])C([H])([H])C([H])([H])C([H])([H])C2([H])N([H])C(=O)C1([H])N(C(=O)C([H])(N([H])C(=O)C([H])(N([H])C([H])([H])[H])C([H])([H])[H])C(C([H])([H])[H])(C([H])([H])[H])C([H])([H])[H])C([H])([H])c2c([H])c(OC([H])([H])C(=O)N([H])C([H])([H])C([H])([H])C([H])([H])C([H])([H])C(=O)N([H])C([H])([H])C([H])([H])N([H])C(=O)N3C([H])([H])C([H])([H])C([H])([H])C([H])(n4nc(-c5c([H])c([H])c(Oc6c([H])c([H])c(F)c([H])c6F)c([H])c5[H])c(C(=O)N([H])[H])c4N([H])[H])C3([H])[H])c([H])c([H])c2C1([H])[H]

$$$$
10:0:0
     RDKit          3D

 98105  0  0  1  0  0  0  0  0999 V2000
  -33.4620  -21.8290   17.4370 C   0  0  0  0  0  2  0  0  0  0  0  0
  -33.6040  -20.4470   16.7880 C   0  0  0  0  0  0  0  0  0  0  0  0
  -32.7390  -20.1250   15.8150 N   0  0  0  0  0  0  0  0  0  0  0  0
  -34.4690  -19.6660   17.1910 O   0  0  0  0  0  0  0  0  0  0  0  0
  -32.0550  -20.8150   15.5290 H   0  0  0  0  0  0  0  0  0  0  0  0
  -32.5160  -18.7710   15.3120 C   0  0  0  0  0  2  0  0  0  0  0  0
  -31.6210  -17.9780   16.2830 C   0  0  0  0  0  2  0  0  0  0  0  0
  -30.3670  -18.7570   16.7490 C   0  0  0  0  0  2  0  0  0  0  0  0
  -29.4490  -17.9710   17.6890 C   0  0  0  0  0  2  0  0  0  0  0  0
  -30.0970  -17.6520   19.0520 C   0  0  0  0  0  2  0  0  0  0  0  0
  -29.1800  -16.7540   19.9070 C   0  0  0  0  0  2  0  0  0  0  0  0
  -30.6070  -14.9530   20.6810 C   0  0  0  0  0  0  0  0  0  0  0  0
  -30.3400  -12.8070   19.5230 C   0  0  0  0  0  2  0  0  0  0  0  0
  -29.4460  -13.0600   18.2970 C   0  0  0  0  0  2  0  0  0  0  0  0
  -27.9690  -12.8370   18.6740 C   0  0  0  0  0  2  0  0  0  0  0  0
  -27.5560  -13.6080   19.9600 C   0  0  0  0  0  3  0  0  0  0  0  0
  -28.6060  -13.4660   21.0910 C   0  0  0  0  0  2  0  0  0  0  0  0
  -29.9310  -13.7840   20.5380 N   0  0  0  0  0  0  0  0  0  0  0  0
  -31.7800  -15.1090   20.3560 O   0  0  0  0  0  0  0  0  0  0  0  0
  -29.8790  -16.0360   20.9790 N   0  0  0  0  0  0  0  0  0  0  0  0
  -30.4400  -16.6840   21.5150 H   0  0  0  0  0  0  0  0  0  0  0  0
  -25.1230  -14.0920   20.6060 C   0  0  0  0  0  0  0  0  0  0  0  0
  -24.0870  -13.2690   20.9370 C   0  0  0  0  0  0  0  0  0  0  0  0
  -24.6150  -11.9420   20.9090 C   0  0  0  0  0  0  0  0  0  0  0  0
  -26.2180  -13.2640   20.4030 N   0  0  0  0  0  0  0  0  0  0  0  0
  -25.9160  -11.9670   20.6490 N   0  0  0  0  0  0  0  0  0  0  0  0
  -23.9470  -10.6470   21.0650 C   0  0  0  0  0  0  0  0  0  0  0  0
  -24.3920   -9.7100   22.0230 C   0  0  0  0  0  3  0  0  0  0  0  0
  -23.7280   -8.4750   22.1760 C   0  0  0  0  0  3  0  0  0  0  0  0
  -22.6030   -8.1730   21.3690 C   0  0  0  0  0  0  0  0  0  0  0  0
  -22.1800   -9.0980   20.4000 C   0  0  0  0  0  3  0  0  0  0  0  0
  -22.8450  -10.3250   20.2450 C   0  0  0  0  0  3  0  0  0  0  0  0
  -21.9100   -6.9890   21.4280 O   0  0  0  0  0  0  0  0  0  0  0  0
  -21.8340   -6.2560   22.5830 C   0  0  0  0  0  0  0  0  0  0  0  0
  -21.2990   -6.7920   23.7760 C   0  0  0  0  0  3  0  0  0  0  0  0
  -21.1770   -5.9800   24.9210 C   0  0  0  0  0  3  0  0  0  0  0  0
  -21.5840   -4.6340   24.8740 C   0  0  0  0  0  0  0  0  0  0  0  0
  -22.1160   -4.0970   23.6890 C   0  0  0  0  0  3  0  0  0  0  0  0
  -22.2370   -4.9070   22.5450 C   0  0  0  0  0  0  0  0  0  0  0  0
  -22.7270   -4.3790   21.3970 F   0  0  0  0  0  0  0  0  0  0  0  0
  -21.4610   -3.8520   25.9720 F   0  0  0  0  0  0  0  0  0  0  0  0
  -22.6600  -13.6750   21.1560 C   0  0  0  0  0  0  0  0  0  0  0  0
  -21.9310  -12.9390   21.9860 N   0  0  0  0  0  0  0  0  0  0  0  0
  -22.1970  -14.6820   20.6240 O   0  0  0  0  0  0  0  0  0  0  0  0
  -22.3150  -12.1260   22.4440 H   0  0  0  0  0  0  0  0  0  0  0  0
  -20.9690  -13.1950   22.1560 H   0  0  0  0  0  0  0  0  0  0  0  0
  -25.2120  -15.4710   20.4460 N   0  0  0  0  0  0  0  0  0  0  0  0
  -24.4110  -16.0750   20.5940 H   0  0  0  0  0  0  0  0  0  0  0  0
  -26.0600  -15.9800   20.2300 H   0  0  0  0  0  0  0  0  0  0  0  0
  -32.7590  -21.7560   18.8130 C   0  0  0  0  0  2  0  0  0  0  0  0
  -30.9660  -23.4850   18.8150 C   0  0  0  0  0  0  0  0  0  0  0  0
  -32.1600  -23.0310   19.2220 N   0  0  0  0  0  0  0  0  0  0  0  0
  -30.2960  -22.9040   17.9610 O   0  0  0  0  0  0  0  0  0  0  0  0
  -32.6470  -23.5630   19.9300 H   0  0  0  0  0  0  0  0  0  0  0  0
  -30.4360  -24.7590   19.4800 C   0  0  0  0  0  2  0  0  0  0  0  0
  -29.0280  -24.5570   20.0820 C   0  0  0  0  0  2  0  0  0  0  0  0
  -28.6240  -25.6950   21.0260 C   0  0  0  0  0  2  0  0  0  0  0  0
  -28.6370  -26.9330   20.3250 O   0  0  0  0  0  0  0  0  0  0  0  0
  -24.6590  -31.9700   23.3320 C   0  0  0  0  0  0  0  0  0  0  0  0
  -27.4440  -27.6070   20.3070 C   0  0  0  0  0  0  0  0  0  0  0  0
  -23.5030  -30.5370   21.6780 C   0  0  0  0  0  3  0  0  0  0  0  0
  -25.0070  -29.0260   20.2800 C   0  0  0  0  0  0  0  0  0  0  0  0
  -26.0160  -30.9650   21.5050 C   0  0  0  0  0  2  0  0  0  0  0  0
  -26.1430  -29.5940   20.8740 C   0  0  0  0  0  0  0  0  0  0  0  0
  -27.3670  -28.8930   20.8790 C   0  0  0  0  0  3  0  0  0  0  0  0
  -26.2960  -27.0410   19.7110 C   0  0  0  0  0  3  0  0  0  0  0  0
  -25.0780  -27.7490   19.6950 C   0  0  0  0  0  3  0  0  0  0  0  0
  -23.7410  -29.8530   20.3050 C   0  0  0  0  0  2  0  0  0  0  0  0
  -24.7430  -31.1720   22.2300 N   0  0  0  0  0  0  0  0  0  0  0  0
  -23.5670  -32.2200   23.8600 O   0  0  0  0  0  0  0  0  0  0  0  0
  -22.8660  -29.5060   22.6350 C   0  0  0  0  0  0  0  0  0  0  0  0
  -21.5510  -29.2810   22.4790 N   0  0  0  0  0  0  0  0  0  0  0  0
  -23.5490  -28.9110   23.4730 O   0  0  0  0  0  0  0  0  0  0  0  0
  -21.0610  -29.8160   21.7760 H   0  0  0  0  0  0  0  0  0  0  0  0
  -18.2040  -27.9910   22.9040 C   0  0  0  0  0  0  0  0  0  0  0  0
  -20.7450  -28.3260   23.2380 C   0  0  0  0  0  3  0  0  0  0  0  0
  -20.9050  -26.8940   22.6780 C   0  0  0  0  0  2  0  0  0  0  0  0
  -19.8400  -26.5310   21.6380 C   0  0  0  0  0  2  0  0  0  0  0  0
  -18.4370  -26.6410   22.2460 C   0  0  0  0  0  2  0  0  0  0  0  0
  -19.2880  -28.7890   23.3550 C   0  0  0  0  0  0  0  0  0  0  0  0
  -19.0210  -30.0510   23.9270 C   0  0  0  0  0  3  0  0  0  0  0  0
  -17.6990  -30.5170   24.0540 C   0  0  0  0  0  3  0  0  0  0  0  0
  -16.6280  -29.7180   23.6220 C   0  0  0  0  0  3  0  0  0  0  0  0
  -16.8800  -28.4560   23.0530 C   0  0  0  0  0  3  0  0  0  0  0  0
  -25.9270  -32.6300   23.9640 C   0  0  0  0  0  3  0  0  0  0  0  0
  -25.5960  -34.0300   24.2580 N   0  0  0  0  0  0  0  0  0  0  0  0
  -25.9380  -35.0700   23.4870 C   0  0  0  0  0  0  0  0  0  0  0  0
  -26.6390  -34.9540   22.4770 O   0  0  0  0  0  0  0  0  0  0  0  0
  -24.9760  -34.1930   25.0380 H   0  0  0  0  0  0  0  0  0  0  0  0
  -24.2060  -36.8380   23.0380 C   0  0  0  0  0  1  0  0  0  0  0  0
  -25.4220  -36.4610   23.9020 C   0  0  0  0  0  3  0  0  0  0  0  0
  -27.5160  -37.3810   24.7930 C   0  0  0  0  0  1  0  0  0  0  0  0
  -26.4460  -37.5230   23.8080 N   0  0  0  0  0  0  0  0  0  0  0  0
  -26.0250  -38.4400   23.9290 H   0  0  0  0  0  0  0  0  0  0  0  0
  -26.4280  -31.8890   25.2640 C   0  0  1  0  0  0  0  0  0  0  0  0
  -25.3170  -31.6560   26.3130 C   0  0  0  0  0  1  0  0  0  0  0  0
  -27.0370  -30.5120   24.9050 C   0  0  0  0  0  1  0  0  0  0  0  0
  -27.5550  -32.7100   25.9340 C   0  0  0  0  0  1  0  0  0  0  0  0
  1 50  1  0
  2  4  2  0
  2  1  1  0
  3  2  1  0
  5  3  1  0
  6  3  1  0
  6  7  1  0
  7  8  1  0
  8  9  1  0
  9 10  1  0
 10 11  1  0
 11 20  1  0
 12 20  1  0
 13 18  1  0
 14 15  1  0
 14 13  1  0
 16 15  1  0
 16 25  1  0
 16 17  1  0
 18 12  1  0
 18 17  1  0
 19 12  2  0
 20 21  1  0
 22 23  2  0
 23 42  1  0
 24 23  1  0
 24 27  1  0
 25 22  1  0
 25 26  1  0
 26 24  2  0
 27 28  1  0
 28 29  2  0
 30 33  1  0
 30 29  1  0
 31 30  2  0
 32 31  1  0
 32 27  2  0
 33 34  1  0
 34 35  1  0
 35 36  2  0
 37 36  1  0
 37 41  1  0
 38 37  2  0
 39 34  2  0
 39 38  1  0
 40 39  1  0
 42 43  1  0
 43 46  1  0
 43 45  1  0
 44 42  2  0
 47 48  1  0
 47 22  1  0
 49 47  1  0
 50 52  1  0
 51 52  1  0
 51 55  1  0
 52 54  1  0
 53 51  2  0
 55 56  1  0
 56 57  1  0
 58 57  1  0
 59 70  2  0
 60 58  1  0
 60 65  1  0
 61 69  1  0
 61 71  1  0
 62 68  1  0
 62 64  1  0
 63 69  1  0
 64 65  2  0
 64 63  1  0
 66 60  2  0
 67 66  1  0
 67 62  2  0
 68 61  1  0
 69 59  1  0
 71 73  2  0
 72 71  1  0
 74 72  1  0
 75 84  2  0
 75 80  1  0
 76 72  1  0
 76 80  1  0
 77 76  1  0
 78 79  1  0
 78 77  1  0
 79 75  1  0
 80 81  2  0
 81 82  1  0
 83 82  2  0
 84 83  1  0
 85 59  1  0
 85 86  1  0
 85 95  1  0
 86 89  1  0
 87 91  1  0
 87 86  1  0
 88 87  2  0
 91 90  1  0
 93 91  1  0
 93 94  1  0
 93 92  1  0
 95 98  1  1
 95 96  1  0
 97 95  1  0
M  ISO  4  12 100  20 100  57 101  58 101
M  END
>  <TORSDO>  (8) 
F 28

>  <SCORE>  (8) 
-11.150

>  <name>  (8) 
10

>  <ligand_id>  (8) 
10

>  <original_smiles>  (8) 
[H]c1c([H])c([H])c2c(c1[H])C([H])([H])C([H])([H])C([H])([H])C2([H])N([H])C(=O)C1([H])N(C(=O)C([H])(N([H])C(=O)C([H])(N([H])C([H])([H])[H])C([H])([H])[H])C(C([H])([H])[H])(C([H])([H])[H])C([H])([H])[H])C([H])([H])c2c([H])c(OC([H])([H])C([H])([H])C([H])([H])C(=O)N([H])C([H])([H])C([H])([H])C(=O)N([H])C([H])([H])C([H])([H])C([H])([H])C([H])([H])C([H])([H])C([H])([H])N([H])C(=O)N3C([H])([H])C([H])([H])C([H])([H])C([H])(n4nc(-c5c([H])c([H])c(Oc6c([H])c([H])c(F)c([H])c6F)c([H])c5[H])c(C(=O)N([H])[H])c4N([H])[H])C3([H])[H])c([H])c([H])c2C1([H])[H]

>  <smiles>  (8) 
[H]c1c([H])c([H])c2c(c1[H])C([H])([H])C([H])([H])C([H])([H])C2([H])N([H])C(=O)C1([H])N(C(=O)C([H])(N([H])C(=O)C([H])(N([H])C([H])([H])[H])C([H])([H])[H])C(C([H])([H])[H])(C([H])([H])[H])C([H])([H])[H])C([H])([H])c2c([H])c(OC([H])([H])C([H])([H])C([H])([H])C(=O)N([H])C([H])([H])C([H])([H])C(=O)N([H])C([H])([H])C([H])([H])C([H])([H])C([H])([H])C([H])([H])C([H])([H])N([H])C(=O)N3C([H])([H])C([H])([H])C([H])([H])C([H])(n4nc(-c5c([H])c([H])c(Oc6c([H])c([H])c(F)c([H])c6F)c([H])c5[H])c(C(=O)N([H])[H])c4N([H])[H])C3([H])[H])c([H])c([H])c2C1([H])[H]

$$$$
11:0:0
     RDKit          3D

 95102  0  0  1  0  0  0  0  0999 V2000
  -27.3320  -20.2770   19.8380 C   0  0  0  0  0  0  0  0  0  0  0  0
  -26.2740  -20.9830   20.2600 N   0  0  0  0  0  0  0  0  0  0  0  0
  -28.2250  -20.7370   19.1270 O   0  0  0  0  0  0  0  0  0  0  0  0
  -25.6090  -20.4870   20.8380 H   0  0  0  0  0  0  0  0  0  0  0  0
  -27.3610  -18.8100   20.2550 C   0  0  0  0  0  2  0  0  0  0  0  0
  -29.4350  -17.4460   20.1980 C   0  0  0  0  0  0  0  0  0  0  0  0
  -28.6760  -18.4020   20.7410 N   0  0  0  0  0  0  0  0  0  0  0  0
  -29.1400  -16.8720   19.1490 O   0  0  0  0  0  0  0  0  0  0  0  0
  -29.0110  -18.8640   21.5760 H   0  0  0  0  0  0  0  0  0  0  0  0
  -30.6750  -17.0110   20.9780 C   0  0  0  0  0  2  0  0  0  0  0  0
  -31.1310  -14.6340   20.4340 C   0  0  0  0  0  0  0  0  0  0  0  0
  -30.7790  -12.4700   19.3150 C   0  0  0  0  0  2  0  0  0  0  0  0
  -29.8370  -12.6750   18.1100 C   0  0  0  0  0  2  0  0  0  0  0  0
  -28.3630  -12.5670   18.5460 C   0  0  0  0  0  2  0  0  0  0  0  0
  -28.0410  -13.4450   19.7820 C   0  0  0  0  0  3  0  0  0  0  0  0
  -29.0930  -13.2210   20.8950 C   0  0  0  0  0  2  0  0  0  0  0  0
  -30.4330  -13.4720   20.3320 N   0  0  0  0  0  0  0  0  0  0  0  0
  -32.1770  -14.8590   19.8230 O   0  0  0  0  0  0  0  0  0  0  0  0
  -30.5490  -15.5680   21.1900 N   0  0  0  0  0  0  0  0  0  0  0  0
  -29.7200  -15.2720   21.6810 H   0  0  0  0  0  0  0  0  0  0  0  0
  -25.7000  -14.1220   20.6300 C   0  0  0  0  0  0  0  0  0  0  0  0
  -24.5920  -13.3810   20.9400 C   0  0  0  0  0  0  0  0  0  0  0  0
  -24.9590  -12.0150   20.7320 C   0  0  0  0  0  0  0  0  0  0  0  0
  -26.6790  -13.2090   20.2650 N   0  0  0  0  0  0  0  0  0  0  0  0
  -26.2350  -11.9310   20.3790 N   0  0  0  0  0  0  0  0  0  0  0  0
  -24.1530  -10.7880   20.7900 C   0  0  0  0  0  0  0  0  0  0  0  0
  -24.5070   -9.7080   21.6280 C   0  0  0  0  0  3  0  0  0  0  0  0
  -23.7040   -8.5470   21.6790 C   0  0  0  0  0  3  0  0  0  0  0  0
  -22.5340   -8.4580   20.8900 C   0  0  0  0  0  0  0  0  0  0  0  0
  -22.1990   -9.5290   20.0390 C   0  0  0  0  0  3  0  0  0  0  0  0
  -23.0020  -10.6800   19.9850 C   0  0  0  0  0  3  0  0  0  0  0  0
  -21.7060   -7.3630   20.8590 O   0  0  0  0  0  0  0  0  0  0  0  0
  -21.5520   -6.5460   21.9510 C   0  0  0  0  0  0  0  0  0  0  0  0
  -21.0750   -7.0350   23.1850 C   0  0  0  0  0  3  0  0  0  0  0  0
  -20.8630   -6.1490   24.2610 C   0  0  0  0  0  3  0  0  0  0  0  0
  -21.1220   -4.7750   24.1030 C   0  0  0  0  0  0  0  0  0  0  0  0
  -21.5930   -4.2840   22.8720 C   0  0  0  0  0  3  0  0  0  0  0  0
  -21.8050   -5.1670   21.8000 C   0  0  0  0  0  0  0  0  0  0  0  0
  -22.2390   -4.6870   20.6080 F   0  0  0  0  0  0  0  0  0  0  0  0
  -20.9120   -3.9200   25.1320 F   0  0  0  0  0  0  0  0  0  0  0  0
  -23.2340  -13.9080   21.3120 C   0  0  0  0  0  0  0  0  0  0  0  0
  -22.4880  -13.1650   22.1240 N   0  0  0  0  0  0  0  0  0  0  0  0
  -22.8480  -15.0110   20.9240 O   0  0  0  0  0  0  0  0  0  0  0  0
  -22.8100  -12.2700   22.4610 H   0  0  0  0  0  0  0  0  0  0  0  0
  -21.5820  -13.4990   22.4210 H   0  0  0  0  0  0  0  0  0  0  0  0
  -25.9540  -15.4900   20.6010 N   0  0  0  0  0  0  0  0  0  0  0  0
  -25.2270  -16.1760   20.7660 H   0  0  0  0  0  0  0  0  0  0  0  0
  -26.8190  -15.8890   20.2540 H   0  0  0  0  0  0  0  0  0  0  0  0
  -25.9100  -22.3520   19.9000 C   0  0  0  0  0  2  0  0  0  0  0  0
  -26.4920  -23.4150   20.8500 C   0  0  0  0  0  2  0  0  0  0  0  0
  -27.9420  -23.8080   20.5530 C   0  0  0  0  0  2  0  0  0  0  0  0
  -27.9830  -24.4920   19.3060 O   0  0  0  0  0  0  0  0  0  0  0  0
  -29.1790  -25.2360   19.1250 C   0  0  0  0  0  2  0  0  0  0  0  0
  -29.1130  -26.5550   19.9130 C   0  0  0  0  0  2  0  0  0  0  0  0
  -28.7100  -27.6100   19.0550 O   0  0  0  0  0  0  0  0  0  0  0  0
  -24.5500  -31.6670   23.1530 C   0  0  0  0  0  0  0  0  0  0  0  0
  -27.4630  -28.1200   19.2940 C   0  0  0  0  0  0  0  0  0  0  0  0
  -23.3970  -30.3990   21.3660 C   0  0  0  0  0  3  0  0  0  0  0  0
  -24.9170  -29.2680   19.6590 C   0  0  0  0  0  0  0  0  0  0  0  0
  -25.8430  -31.0880   21.1070 C   0  0  0  0  0  2  0  0  0  0  0  0
  -26.0400  -29.8460   20.2660 C   0  0  0  0  0  0  0  0  0  0  0  0
  -27.3170  -29.2780   20.0820 C   0  0  0  0  0  3  0  0  0  0  0  0
  -26.3290  -27.5330   18.6970 C   0  0  0  0  0  3  0  0  0  0  0  0
  -25.0550  -28.1070   18.8740 C   0  0  0  0  0  3  0  0  0  0  0  0
  -23.5890  -29.9530   19.8920 C   0  0  0  0  0  2  0  0  0  0  0  0
  -24.6160  -31.0590   21.9350 N   0  0  0  0  0  0  0  0  0  0  0  0
  -23.4840  -31.7270   23.7800 O   0  0  0  0  0  0  0  0  0  0  0  0
  -22.9230  -29.1780   22.1860 C   0  0  0  0  0  0  0  0  0  0  0  0
  -21.6380  -28.8180   22.0310 N   0  0  0  0  0  0  0  0  0  0  0  0
  -23.7060  -28.5610   22.9110 O   0  0  0  0  0  0  0  0  0  0  0  0
  -21.0620  -29.3770   21.4160 H   0  0  0  0  0  0  0  0  0  0  0  0
  -18.5180  -27.0110   22.2680 C   0  0  0  0  0  0  0  0  0  0  0  0
  -20.9820  -27.6790   22.6740 C   0  0  0  0  0  3  0  0  0  0  0  0
  -21.3530  -26.3540   21.9680 C   0  0  0  0  0  2  0  0  0  0  0  0
  -20.3520  -25.9450   20.8830 C   0  0  0  0  0  2  0  0  0  0  0  0
  -18.9480  -25.7870   21.4760 C   0  0  0  0  0  2  0  0  0  0  0  0
  -19.4730  -27.9060   22.8180 C   0  0  0  0  0  0  0  0  0  0  0  0
  -19.0190  -29.0460   23.5170 C   0  0  0  0  0  3  0  0  0  0  0  0
  -17.6430  -29.2940   23.6730 C   0  0  0  0  0  3  0  0  0  0  0  0
  -16.7010  -28.3960   23.1420 C   0  0  0  0  0  3  0  0  0  0  0  0
  -17.1400  -27.2560   22.4440 C   0  0  0  0  0  3  0  0  0  0  0  0
  -25.8000  -32.3390   23.8020 C   0  0  0  0  0  3  0  0  0  0  0  0
  -26.3440  -31.5580   25.0610 C   0  0  1  0  0  0  0  0  0  0  0  0
  -25.2580  -31.2500   26.1190 C   0  0  0  0  0  1  0  0  0  0  0  0
  -26.9820  -30.2150   24.6330 C   0  0  0  0  0  1  0  0  0  0  0  0
  -27.4600  -32.3800   25.7480 C   0  0  0  0  0  1  0  0  0  0  0  0
  -25.4230  -33.7120   24.1650 N   0  0  0  0  0  0  0  0  0  0  0  0
  -25.7560  -34.8010   23.4600 C   0  0  0  0  0  0  0  0  0  0  0  0
  -26.4800  -34.7570   22.4610 O   0  0  0  0  0  0  0  0  0  0  0  0
  -24.7810  -33.8160   24.9350 H   0  0  0  0  0  0  0  0  0  0  0  0
  -23.9820  -36.5420   23.0700 C   0  0  0  0  0  1  0  0  0  0  0  0
  -25.1920  -36.1540   23.9350 C   0  0  0  0  0  3  0  0  0  0  0  0
  -27.2460  -37.0790   24.9120 C   0  0  0  0  0  1  0  0  0  0  0  0
  -26.1890  -37.2450   23.9170 N   0  0  0  0  0  0  0  0  0  0  0  0
  -25.7430  -38.1440   24.0720 H   0  0  0  0  0  0  0  0  0  0  0  0
  1  5  1  0
  1  2  1  0
  2  4  1  0
  3  1  2  0
  5  7  1  0
  6  7  1  0
  6 10  1  0
  7  9  1  0
  8  6  2  0
 10 19  1  0
 11 19  1  0
 12 17  1  0
 13 14  1  0
 13 12  1  0
 15 14  1  0
 15 24  1  0
 15 16  1  0
 17 11  1  0
 17 16  1  0
 18 11  2  0
 19 20  1  0
 21 22  2  0
 22 41  1  0
 23 26  1  0
 23 22  1  0
 24 25  1  0
 24 21  1  0
 25 23  2  0
 26 27  1  0
 27 28  2  0
 29 28  1  0
 30 29  2  0
 31 30  1  0
 31 26  2  0
 32 29  1  0
 32 33  1  0
 33 34  1  0
 34 35  2  0
 36 35  1  0
 36 40  1  0
 37 36  2  0
 38 33  2  0
 38 37  1  0
 39 38  1  0
 41 42  1  0
 42 45  1  0
 42 44  1  0
 43 41  2  0
 46 21  1  0
 46 47  1  0
 48 46  1  0
 49  2  1  0
 49 50  1  0
 51 50  1  0
 52 51  1  0
 53 52  1  0
 53 54  1  0
 55 57  1  0
 55 54  1  0
 56 67  2  0
 57 62  1  0
 58 66  1  0
 58 68  1  0
 59 65  1  0
 59 61  1  0
 60 66  1  0
 61 60  1  0
 62 61  2  0
 63 64  1  0
 63 57  2  0
 64 59  2  0
 65 58  1  0
 66 56  1  0
 68 70  2  0
 69 68  1  0
 71 69  1  0
 72 81  2  0
 72 77  1  0
 73 69  1  0
 73 77  1  0
 74 73  1  0
 75 76  1  0
 75 74  1  0
 76 72  1  0
 77 78  2  0
 78 79  1  0
 80 79  2  0
 81 80  1  0
 82 56  1  0
 82 87  1  0
 82 83  1  0
 83 86  1  1
 83 84  1  0
 85 83  1  0
 87 90  1  0
 88 92  1  0
 88 87  1  0
 89 88  2  0
 92 91  1  0
 94 92  1  0
 94 95  1  0
 94 93  1  0
M  ISO  4  11 100  19 100  54 101  55 101
M  END
>  <TORSDO>  (9) 
F 25

>  <SCORE>  (9) 
-8.432

>  <name>  (9) 
11

>  <ligand_id>  (9) 
11

>  <original_smiles>  (9) 
[H]c1c([H])c([H])c2c(c1[H])C([H])([H])C([H])([H])C([H])([H])C2([H])N([H])C(=O)C1([H])N(C(=O)C([H])(N([H])C(=O)C([H])(N([H])C([H])([H])[H])C([H])([H])[H])C(C([H])([H])[H])(C([H])([H])[H])C([H])([H])[H])C([H])([H])c2c([H])c(OC([H])([H])C([H])([H])OC([H])([H])C([H])([H])C([H])([H])N([H])C(=O)C([H])([H])N([H])C(=O)C([H])([H])N([H])C(=O)N3C([H])([H])C([H])([H])C([H])([H])C([H])(n4nc(-c5c([H])c([H])c(Oc6c([H])c([H])c(F)c([H])c6F)c([H])c5[H])c(C(=O)N([H])[H])c4N([H])[H])C3([H])[H])c([H])c([H])c2C1([H])[H]

>  <smiles>  (9) 
[H]c1c([H])c([H])c2c(c1[H])C([H])([H])C([H])([H])C([H])([H])C2([H])N([H])C(=O)C1([H])N(C(=O)C([H])(N([H])C(=O)C([H])(N([H])C([H])([H])[H])C([H])([H])[H])C(C([H])([H])[H])(C([H])([H])[H])C([H])([H])[H])C([H])([H])c2c([H])c(OC([H])([H])C([H])([H])OC([H])([H])C([H])([H])C([H])([H])N([H])C(=O)C([H])([H])N([H])C(=O)C([H])([H])N([H])C(=O)N3C([H])([H])C([H])([H])C([H])([H])C([H])(n4nc(-c5c([H])c([H])c(Oc6c([H])c([H])c(F)c([H])c6F)c([H])c5[H])c(C(=O)N([H])[H])c4N([H])[H])C3([H])[H])c([H])c([H])c2C1([H])[H]

$$$$
12:0:0
     RDKit          3D

101108  0  0  1  0  0  0  0  0999 V2000
  -27.2090  -21.2090   18.6260 C   0  0  0  0  0  0  0  0  0  0  0  0
  -27.6210  -20.3130   17.7230 N   0  0  0  0  0  0  0  0  0  0  0  0
  -27.2260  -20.9870   19.8410 O   0  0  0  0  0  0  0  0  0  0  0  0
  -27.5640  -20.5780   16.7480 H   0  0  0  0  0  0  0  0  0  0  0  0
  -26.6920  -22.5490   18.0950 C   0  0  0  0  0  2  0  0  0  0  0  0
  -27.9470  -24.6110   18.7350 C   0  0  0  0  0  0  0  0  0  0  0  0
  -27.0900  -23.6200   19.0000 N   0  0  0  0  0  0  0  0  0  0  0  0
  -28.4390  -24.7930   17.6200 O   0  0  0  0  0  0  0  0  0  0  0  0
  -26.7680  -23.5150   19.9540 H   0  0  0  0  0  0  0  0  0  0  0  0
  -28.2930  -25.5420   19.9040 C   0  0  0  0  0  2  0  0  0  0  0  0
  -28.2790  -26.9100   19.4920 O   0  0  0  0  0  0  0  0  0  0  0  0
  -24.6160  -31.7250   23.1920 C   0  0  0  0  0  0  0  0  0  0  0  0
  -27.0840  -27.5770   19.6270 C   0  0  0  0  0  0  0  0  0  0  0  0
  -23.3090  -30.4210   21.5440 C   0  0  0  0  0  3  0  0  0  0  0  0
  -24.6730  -29.0100   19.9220 C   0  0  0  0  0  0  0  0  0  0  0  0
  -25.8070  -30.8420   21.1920 C   0  0  0  0  0  2  0  0  0  0  0  0
  -25.8630  -29.5240   20.4510 C   0  0  0  0  0  0  0  0  0  0  0  0
  -27.0740  -28.8160   20.2960 C   0  0  0  0  0  3  0  0  0  0  0  0
  -25.8770  -27.0670   19.1020 C   0  0  0  0  0  3  0  0  0  0  0  0
  -24.6730  -27.7780   19.2480 C   0  0  0  0  0  3  0  0  0  0  0  0
  -23.4230  -29.8390   20.1090 C   0  0  0  0  0  2  0  0  0  0  0  0
  -24.5990  -31.0060   22.0340 N   0  0  0  0  0  0  0  0  0  0  0  0
  -23.5740  -31.9390   23.8260 O   0  0  0  0  0  0  0  0  0  0  0  0
  -22.7460  -29.3230   22.4760 C   0  0  0  0  0  0  0  0  0  0  0  0
  -21.4560  -28.9980   22.2980 N   0  0  0  0  0  0  0  0  0  0  0  0
  -23.4650  -28.7700   23.3120 O   0  0  0  0  0  0  0  0  0  0  0  0
  -20.9330  -29.5060   21.5990 H   0  0  0  0  0  0  0  0  0  0  0  0
  -18.2730  -27.2980   22.5220 C   0  0  0  0  0  0  0  0  0  0  0  0
  -20.7180  -27.9650   23.0270 C   0  0  0  0  0  3  0  0  0  0  0  0
  -21.0980  -26.5500   22.5330 C   0  0  0  0  0  2  0  0  0  0  0  0
  -20.1700  -26.0220   21.4360 C   0  0  0  0  0  2  0  0  0  0  0  0
  -18.7220  -25.9720   21.9340 C   0  0  0  0  0  2  0  0  0  0  0  0
  -19.2110  -28.2410   23.0190 C   0  0  0  0  0  0  0  0  0  0  0  0
  -18.7410  -29.4750   23.5200 C   0  0  0  0  0  3  0  0  0  0  0  0
  -17.3640  -29.7680   23.5330 C   0  0  0  0  0  3  0  0  0  0  0  0
  -16.4400  -28.8240   23.0560 C   0  0  0  0  0  3  0  0  0  0  0  0
  -16.8940  -27.5900   22.5560 C   0  0  0  0  0  3  0  0  0  0  0  0
  -25.9390  -32.3320   23.7600 C   0  0  0  0  0  3  0  0  0  0  0  0
  -25.6460  -33.7110   24.1740 N   0  0  0  0  0  0  0  0  0  0  0  0
  -25.9300  -34.8000   23.4460 C   0  0  0  0  0  0  0  0  0  0  0  0
  -26.5380  -34.7490   22.3750 O   0  0  0  0  0  0  0  0  0  0  0  0
  -25.1090  -33.8250   25.0200 H   0  0  0  0  0  0  0  0  0  0  0  0
  -24.1760  -36.5940   23.2750 C   0  0  0  0  0  1  0  0  0  0  0  0
  -25.4640  -36.1610   23.9950 C   0  0  0  0  0  3  0  0  0  0  0  0
  -27.6340  -37.0280   24.7490 C   0  0  0  0  0  1  0  0  0  0  0  0
  -26.4830  -37.2250   23.8720 N   0  0  0  0  0  0  0  0  0  0  0  0
  -26.0810  -38.1360   24.0740 H   0  0  0  0  0  0  0  0  0  0  0  0
  -26.5390  -31.5030   24.9630 C   0  0  1  0  0  0  0  0  0  0  0  0
  -25.5150  -31.2000   26.0830 C   0  0  0  0  0  1  0  0  0  0  0  0
  -27.1080  -30.1540   24.4670 C   0  0  0  0  0  1  0  0  0  0  0  0
  -27.7190  -32.2770   25.5930 C   0  0  0  0  0  1  0  0  0  0  0  0
  -28.1620  -18.9870   18.0190 C   0  0  0  0  0  2  0  0  0  0  0  0
  -29.7000  -18.9970   18.1200 C   0  0  0  0  0  2  0  0  0  0  0  0
  -30.4050  -19.4340   16.8200 C   0  0  0  0  0  2  0  0  0  0  0  0
  -31.6730  -20.2510   17.0890 C   0  0  0  0  0  2  0  0  0  0  0  0
  -32.4370  -20.6150   15.8000 C   0  0  0  0  0  2  0  0  0  0  0  0
  -33.5160  -21.6960   16.0150 C   0  0  0  0  0  2  0  0  0  0  0  0
  -35.3590  -20.4600   17.1120 C   0  0  0  0  0  0  0  0  0  0  0  0
  -34.3600  -21.3450   17.1510 N   0  0  0  0  0  0  0  0  0  0  0  0
  -35.9140  -20.1350   16.0600 O   0  0  0  0  0  0  0  0  0  0  0  0
  -34.0340  -21.6390   18.0640 H   0  0  0  0  0  0  0  0  0  0  0  0
  -35.7700  -19.8380   18.4530 C   0  0  0  0  0  2  0  0  0  0  0  0
  -36.1490  -18.3390   18.3890 C   0  0  0  0  0  2  0  0  0  0  0  0
  -34.7920  -16.6330   17.1940 C   0  0  0  0  0  0  0  0  0  0  0  0
  -34.9450  -14.2380   16.6880 C   0  0  0  0  0  2  0  0  0  0  0  0
  -33.7580  -13.6360   15.9240 C   0  0  0  0  0  2  0  0  0  0  0  0
  -32.6680  -13.1850   16.9080 C   0  0  0  0  0  2  0  0  0  0  0  0
  -32.2750  -14.3070   17.9020 C   0  0  0  0  0  3  0  0  0  0  0  0
  -33.5230  -14.9380   18.5630 C   0  0  0  0  0  2  0  0  0  0  0  0
  -34.4710  -15.3580   17.5120 N   0  0  0  0  0  0  0  0  0  0  0  0
  -35.1690  -16.9860   16.0730 O   0  0  0  0  0  0  0  0  0  0  0  0
  -35.0290  -17.3910   18.2730 N   0  0  0  0  0  0  0  0  0  0  0  0
  -34.6960  -16.9980   19.1430 H   0  0  0  0  0  0  0  0  0  0  0  0
  -30.1560  -14.3990   19.3600 C   0  0  0  0  0  0  0  0  0  0  0  0
  -29.5940  -13.4890   20.2160 C   0  0  0  0  0  0  0  0  0  0  0  0
  -30.4660  -12.3570   20.2180 C   0  0  0  0  0  0  0  0  0  0  0  0
  -31.3220  -13.8100   18.8940 N   0  0  0  0  0  0  0  0  0  0  0  0
  -31.5290  -12.5940   19.4600 N   0  0  0  0  0  0  0  0  0  0  0  0
  -30.3250  -11.0390   20.8560 C   0  0  0  0  0  0  0  0  0  0  0  0
  -31.4520  -10.2820   21.2440 C   0  0  0  0  0  3  0  0  0  0  0  0
  -31.2920   -9.0290   21.8740 C   0  0  0  0  0  3  0  0  0  0  0  0
  -29.9950   -8.5210   22.1250 C   0  0  0  0  0  0  0  0  0  0  0  0
  -28.8770   -9.2690   21.7190 C   0  0  0  0  0  3  0  0  0  0  0  0
  -29.0370  -10.5140   21.0870 C   0  0  0  0  0  3  0  0  0  0  0  0
  -29.7430   -7.3020   22.7070 O   0  0  0  0  0  0  0  0  0  0  0  0
  -30.7560   -6.5140   23.1930 C   0  0  0  0  0  0  0  0  0  0  0  0
  -31.9780   -7.0620   23.6390 C   0  0  0  0  0  3  0  0  0  0  0  0
  -32.9640   -6.2240   24.1970 C   0  0  0  0  0  3  0  0  0  0  0  0
  -32.7270   -4.8420   24.3200 C   0  0  0  0  0  0  0  0  0  0  0  0
  -31.5090   -4.2940   23.8800 C   0  0  0  0  0  3  0  0  0  0  0  0
  -30.5250   -5.1290   23.3220 C   0  0  0  0  0  0  0  0  0  0  0  0
  -29.3450   -4.5980   22.9190 F   0  0  0  0  0  0  0  0  0  0  0  0
  -33.6710   -4.0390   24.8620 F   0  0  0  0  0  0  0  0  0  0  0  0
  -28.2760  -13.6230   20.9210 C   0  0  0  0  0  0  0  0  0  0  0  0
  -28.1600  -13.0420   22.1100 N   0  0  0  0  0  0  0  0  0  0  0  0
  -27.3580  -14.2880   20.4450 O   0  0  0  0  0  0  0  0  0  0  0  0
  -28.9210  -12.5100   22.5040 H   0  0  0  0  0  0  0  0  0  0  0  0
  -27.2970  -13.1310   22.6300 H   0  0  0  0  0  0  0  0  0  0  0  0
  -29.7680  -15.6620   18.9230 N   0  0  0  0  0  0  0  0  0  0  0  0
  -28.8970  -16.0950   19.2090 H   0  0  0  0  0  0  0  0  0  0  0  0
  -30.2880  -16.2170   18.2550 H   0  0  0  0  0  0  0  0  0  0  0  0
  1  3  2  0
  2 52  1  0
  2  1  1  0
  4  2  1  0
  5  1  1  0
  5  7  1  0
  6  7  1  0
  6 10  1  0
  7  9  1  0
  8  6  2  0
 11 13  1  0
 11 10  1  0
 12 23  2  0
 13 18  1  0
 14 22  1  0
 14 24  1  0
 15 21  1  0
 15 17  1  0
 16 22  1  0
 17 16  1  0
 18 17  2  0
 19 20  1  0
 19 13  2  0
 20 15  2  0
 21 14  1  0
 22 12  1  0
 24 26  2  0
 25 24  1  0
 27 25  1  0
 28 37  2  0
 28 33  1  0
 29 25  1  0
 30 29  1  0
 31 32  1  0
 31 30  1  0
 32 28  1  0
 33 29  1  0
 33 34  2  0
 34 35  1  0
 36 35  2  0
 37 36  1  0
 38 12  1  0
 38 39  1  0
 38 48  1  0
 39 42  1  0
 40 44  1  0
 40 39  1  0
 41 40  2  0
 44 43  1  0
 46 44  1  0
 46 47  1  0
 46 45  1  0
 48 51  1  1
 48 49  1  0
 50 48  1  0
 52 53  1  0
 54 55  1  0
 54 53  1  0
 56 57  1  0
 56 55  1  0
 57 59  1  0
 58 59  1  0
 58 62  1  0
 59 61  1  0
 60 58  2  0
 63 62  1  0
 64 70  1  0
 64 72  1  0
 65 70  1  0
 66 65  1  0
 66 67  1  0
 68 67  1  0
 68 69  1  0
 68 77  1  0
 70 69  1  0
 71 64  2  0
 72 63  1  0
 72 73  1  0
 74 75  2  0
 75 76  1  0
 75 94  1  0
 76 79  1  0
 77 74  1  0
 77 78  1  0
 78 76  2  0
 79 84  2  0
 79 80  1  0
 80 81  2  0
 81 82  1  0
 82 85  1  0
 83 82  2  0
 84 83  1  0
 85 86  1  0
 86 91  2  0
 86 87  1  0
 87 88  2  0
 88 89  1  0
 89 93  1  0
 90 89  2  0
 91 90  1  0
 92 91  1  0
 94 95  1  0
 95 97  1  0
 95 98  1  0
 96 94  2  0
 99100  1  0
 99 74  1  0
101 99  1  0
M  ISO  4  10 101  11 101  64 100  72 100
M  END
>  <TORSDO>  (10) 
F 28

>  <SCORE>  (10) 
-7.885

>  <name>  (10) 
12

>  <ligand_id>  (10) 
12

>  <original_smiles>  (10) 
[H]c1c([H])c([H])c2c(c1[H])C([H])([H])C([H])([H])C([H])([H])C2([H])N([H])C(=O)C1([H])N(C(=O)C([H])(N([H])C(=O)C([H])(N([H])C([H])([H])[H])C([H])([H])[H])C(C([H])([H])[H])(C([H])([H])[H])C([H])([H])[H])C([H])([H])c2c([H])c(OC([H])([H])C(=O)N([H])C([H])([H])C(=O)N([H])C([H])([H])C([H])([H])C([H])([H])C([H])([H])C([H])([H])C([H])([H])N([H])C(=O)C([H])([H])C([H])([H])N([H])C(=O)N3C([H])([H])C([H])([H])C([H])([H])C([H])(n4nc(-c5c([H])c([H])c(Oc6c([H])c([H])c(F)c([H])c6F)c([H])c5[H])c(C(=O)N([H])[H])c4N([H])[H])C3([H])[H])c([H])c([H])c2C1([H])[H]

>  <smiles>  (10) 
[H]c1c([H])c([H])c2c(c1[H])C([H])([H])C([H])([H])C([H])([H])C2([H])N([H])C(=O)C1([H])N(C(=O)C([H])(N([H])C(=O)C([H])(N([H])C([H])([H])[H])C([H])([H])[H])C(C([H])([H])[H])(C([H])([H])[H])C([H])([H])[H])C([H])([H])c2c([H])c(OC([H])([H])C(=O)N([H])C([H])([H])C(=O)N([H])C([H])([H])C([H])([H])C([H])([H])C([H])([H])C([H])([H])C([H])([H])N([H])C(=O)C([H])([H])C([H])([H])N([H])C(=O)N3C([H])([H])C([H])([H])C([H])([H])C([H])(n4nc(-c5c([H])c([H])c(Oc6c([H])c([H])c(F)c([H])c6F)c([H])c5[H])c(C(=O)N([H])[H])c4N([H])[H])C3([H])[H])c([H])c([H])c2C1([H])[H]

$$$$
13:0:0
     RDKit          3D

102109  0  0  1  0  0  0  0  0999 V2000
  -31.3670  -21.0670   16.0230 C   0  0  0  0  0  0  0  0  0  0  0  0
  -31.7010  -19.9880   15.3050 N   0  0  0  0  0  0  0  0  0  0  0  0
  -30.3180  -21.6890   15.8320 O   0  0  0  0  0  0  0  0  0  0  0  0
  -32.6070  -19.5730   15.4880 H   0  0  0  0  0  0  0  0  0  0  0  0
  -30.8680  -19.3550   14.2810 C   0  0  0  0  0  2  0  0  0  0  0  0
  -29.4620  -18.9480   14.7830 C   0  0  0  0  0  2  0  0  0  0  0  0
  -29.4830  -18.2780   16.1640 C   0  0  0  0  0  2  0  0  0  0  0  0
  -28.0940  -18.1240   16.7910 C   0  0  0  0  0  2  0  0  0  0  0  0
  -28.1360  -17.2570   18.0550 C   0  0  0  0  0  2  0  0  0  0  0  0
  -28.0530  -18.0250   19.3910 C   0  0  0  0  0  2  0  0  0  0  0  0
  -30.4460  -18.6180   20.0550 C   0  0  0  0  0  0  0  0  0  0  0  0
  -29.1680  -18.9060   19.7540 N   0  0  0  0  0  0  0  0  0  0  0  0
  -31.1290  -19.4480   20.6520 O   0  0  0  0  0  0  0  0  0  0  0  0
  -28.8900  -19.8380   20.0230 H   0  0  0  0  0  0  0  0  0  0  0  0
  -31.1080  -17.3060   19.6150 C   0  0  0  0  0  2  0  0  0  0  0  0
  -31.4430  -15.0050   20.3720 C   0  0  0  0  0  0  0  0  0  0  0  0
  -31.0350  -13.0350   19.0110 C   0  0  0  0  0  2  0  0  0  0  0  0
  -30.1230  -13.5240   17.8640 C   0  0  0  0  0  2  0  0  0  0  0  0
  -28.6410  -13.4320   18.2750 C   0  0  0  0  0  2  0  0  0  0  0  0
  -28.3560  -14.0230   19.6830 C   0  0  0  0  0  3  0  0  0  0  0  0
  -29.4000  -13.5780   20.7280 C   0  0  0  0  0  2  0  0  0  0  0  0
  -30.7320  -13.8690   20.1770 N   0  0  0  0  0  0  0  0  0  0  0  0
  -32.6530  -15.0960   20.1600 O   0  0  0  0  0  0  0  0  0  0  0  0
  -30.6790  -16.1080   20.3440 N   0  0  0  0  0  0  0  0  0  0  0  0
  -29.6930  -15.9850   20.4980 H   0  0  0  0  0  0  0  0  0  0  0  0
  -25.9340  -14.6660   20.2480 C   0  0  0  0  0  0  0  0  0  0  0  0
  -24.8490  -13.9030   20.5770 C   0  0  0  0  0  0  0  0  0  0  0  0
  -25.3070  -12.5500   20.6050 C   0  0  0  0  0  0  0  0  0  0  0  0
  -26.9860  -13.7750   20.1070 N   0  0  0  0  0  0  0  0  0  0  0  0
  -26.6140  -12.5020   20.3800 N   0  0  0  0  0  0  0  0  0  0  0  0
  -24.5750  -11.2940   20.7880 C   0  0  0  0  0  0  0  0  0  0  0  0
  -24.9740  -10.3440   21.7520 C   0  0  0  0  0  3  0  0  0  0  0  0
  -24.2420   -9.1490   21.9200 C   0  0  0  0  0  3  0  0  0  0  0  0
  -23.0970   -8.8980   21.1260 C   0  0  0  0  0  0  0  0  0  0  0  0
  -22.7170   -9.8370   20.1530 C   0  0  0  0  0  3  0  0  0  0  0  0
  -23.4530  -11.0230   19.9820 C   0  0  0  0  0  3  0  0  0  0  0  0
  -22.3460   -7.7500   21.2060 O   0  0  0  0  0  0  0  0  0  0  0  0
  -22.1820   -7.0820   22.3910 C   0  0  0  0  0  0  0  0  0  0  0  0
  -21.6970   -7.7280   23.5500 C   0  0  0  0  0  3  0  0  0  0  0  0
  -21.4680   -6.9850   24.7250 C   0  0  0  0  0  3  0  0  0  0  0  0
  -21.7170   -5.5990   24.7440 C   0  0  0  0  0  0  0  0  0  0  0  0
  -22.1980   -4.9550   23.5900 C   0  0  0  0  0  3  0  0  0  0  0  0
  -22.4220   -5.6960   22.4160 C   0  0  0  0  0  0  0  0  0  0  0  0
  -22.8610   -5.0650   21.3000 F   0  0  0  0  0  0  0  0  0  0  0  0
  -21.4940   -4.8820   25.8710 F   0  0  0  0  0  0  0  0  0  0  0  0
  -23.4400  -14.3870   20.7710 C   0  0  0  0  0  0  0  0  0  0  0  0
  -22.6860  -13.7270   21.6440 N   0  0  0  0  0  0  0  0  0  0  0  0
  -23.0190  -15.3820   20.1850 O   0  0  0  0  0  0  0  0  0  0  0  0
  -23.0370  -12.9090   22.1250 H   0  0  0  0  0  0  0  0  0  0  0  0
  -21.7400  -14.0340   21.8160 H   0  0  0  0  0  0  0  0  0  0  0  0
  -26.1140  -16.0350   20.0430 N   0  0  0  0  0  0  0  0  0  0  0  0
  -25.3420  -16.6890   20.0950 H   0  0  0  0  0  0  0  0  0  0  0  0
  -26.9890  -16.4790   19.8030 H   0  0  0  0  0  0  0  0  0  0  0  0
  -32.3300  -21.4920   17.1350 C   0  0  0  0  0  2  0  0  0  0  0  0
  -31.7110  -23.1380   18.9010 C   0  0  0  0  0  0  0  0  0  0  0  0
  -31.5540  -21.9720   18.2740 N   0  0  0  0  0  0  0  0  0  0  0  0
  -32.6850  -23.8680   18.7090 O   0  0  0  0  0  0  0  0  0  0  0  0
  -30.7290  -21.4300   18.4900 H   0  0  0  0  0  0  0  0  0  0  0  0
  -30.5950  -23.5420   19.8660 C   0  0  0  0  0  2  0  0  0  0  0  0
  -30.5430  -25.0530   20.1800 C   0  0  0  0  0  2  0  0  0  0  0  0
  -29.1010  -25.5620   20.2180 C   0  0  0  0  0  2  0  0  0  0  0  0
  -29.0490  -26.9390   20.5810 O   0  0  0  0  0  0  0  0  0  0  0  0
  -24.7630  -31.8480   23.4080 C   0  0  0  0  0  0  0  0  0  0  0  0
  -27.8210  -27.5640   20.5030 C   0  0  0  0  0  0  0  0  0  0  0  0
  -23.7340  -30.3860   21.6980 C   0  0  0  0  0  3  0  0  0  0  0  0
  -25.3470  -28.9290   20.3740 C   0  0  0  0  0  0  0  0  0  0  0  0
  -26.2440  -30.8770   21.6550 C   0  0  0  0  0  2  0  0  0  0  0  0
  -26.4380  -29.5150   21.0260 C   0  0  0  0  0  0  0  0  0  0  0  0
  -27.6770  -28.8400   21.0880 C   0  0  0  0  0  3  0  0  0  0  0  0
  -26.7030  -26.9820   19.8550 C   0  0  0  0  0  3  0  0  0  0  0  0
  -25.4730  -27.6600   19.7870 C   0  0  0  0  0  3  0  0  0  0  0  0
  -24.0600  -29.7190   20.3370 C   0  0  0  0  0  2  0  0  0  0  0  0
  -24.9270  -31.0520   22.3130 N   0  0  0  0  0  0  0  0  0  0  0  0
  -23.6360  -32.0620   23.8790 O   0  0  0  0  0  0  0  0  0  0  0  0
  -23.0810  -29.3290   22.6190 C   0  0  0  0  0  0  0  0  0  0  0  0
  -21.7750  -29.0870   22.4160 N   0  0  0  0  0  0  0  0  0  0  0  0
  -23.7460  -28.7320   23.4690 O   0  0  0  0  0  0  0  0  0  0  0  0
  -21.3020  -29.6220   21.7030 H   0  0  0  0  0  0  0  0  0  0  0  0
  -18.4400  -27.7310   22.7070 C   0  0  0  0  0  0  0  0  0  0  0  0
  -20.9600  -28.1090   23.1360 C   0  0  0  0  0  3  0  0  0  0  0  0
  -21.1670  -26.6870   22.5690 C   0  0  0  0  0  2  0  0  0  0  0  0
  -20.1450  -26.3130   21.4910 C   0  0  0  0  0  2  0  0  0  0  0  0
  -18.7220  -26.3910   22.0490 C   0  0  0  0  0  2  0  0  0  0  0  0
  -19.4920  -28.5450   23.2040 C   0  0  0  0  0  0  0  0  0  0  0  0
  -19.1780  -29.7980   23.7760 C   0  0  0  0  0  3  0  0  0  0  0  0
  -17.8430  -30.2370   23.8580 C   0  0  0  0  0  3  0  0  0  0  0  0
  -16.8040  -29.4200   23.3780 C   0  0  0  0  0  3  0  0  0  0  0  0
  -17.1030  -28.1690   22.8090 C   0  0  0  0  0  3  0  0  0  0  0  0
  -25.9740  -32.5430   24.1040 C   0  0  0  0  0  3  0  0  0  0  0  0
  -25.6070  -33.9470   24.3270 N   0  0  0  0  0  0  0  0  0  0  0  0
  -25.9870  -34.9650   23.5430 C   0  0  0  0  0  0  0  0  0  0  0  0
  -26.7520  -34.8230   22.5850 O   0  0  0  0  0  0  0  0  0  0  0  0
  -24.9360  -34.1290   25.0570 H   0  0  0  0  0  0  0  0  0  0  0  0
  -24.2590  -36.6860   22.9330 C   0  0  0  0  0  1  0  0  0  0  0  0
  -25.4300  -36.3620   23.8740 C   0  0  0  0  0  3  0  0  0  0  0  0
  -27.4610  -37.3450   24.8390 C   0  0  0  0  0  1  0  0  0  0  0  0
  -26.4450  -37.4340   23.7940 N   0  0  0  0  0  0  0  0  0  0  0  0
  -26.0080  -38.3500   23.8540 H   0  0  0  0  0  0  0  0  0  0  0  0
  -26.3910  -31.8520   25.4590 C   0  0  1  0  0  0  0  0  0  0  0  0
  -25.2120  -31.6330   26.4350 C   0  0  0  0  0  1  0  0  0  0  0  0
  -27.0440  -30.4760   25.1910 C   0  0  0  0  0  1  0  0  0  0  0  0
  -27.4560  -32.7120   26.1790 C   0  0  0  0  0  1  0  0  0  0  0  0
  1 54  1  0
  2  4  1  0
  2  1  1  0
  3  1  2  0
  5  6  1  0
  5  2  1  0
  6  7  1  0
  7  8  1  0
  8  9  1  0
  9 10  1  0
 10 12  1  0
 11 13  2  0
 12 14  1  0
 12 11  1  0
 15 11  1  0
 15 24  1  0
 17 22  1  0
 18 19  1  0
 18 17  1  0
 20 19  1  0
 20 29  1  0
 20 21  1  0
 22 16  1  0
 22 21  1  0
 23 16  2  0
 24 16  1  0
 24 25  1  0
 26 27  2  0
 27 28  1  0
 27 46  1  0
 28 31  1  0
 29 26  1  0
 29 30  1  0
 30 28  2  0
 31 32  1  0
 32 33  2  0
 34 37  1  0
 34 33  1  0
 35 34  2  0
 36 35  1  0
 36 31  2  0
 37 38  1  0
 38 43  2  0
 38 39  1  0
 39 40  2  0
 40 41  1  0
 41 45  1  0
 42 41  2  0
 43 42  1  0
 44 43  1  0
 46 47  1  0
 47 50  1  0
 47 49  1  0
 48 46  2  0
 51 52  1  0
 51 26  1  0
 53 51  1  0
 54 56  1  0
 55 59  1  0
 56 58  1  0
 56 55  1  0
 57 55  2  0
 59 60  1  0
 60 61  1  0
 61 62  1  0
 63 74  2  0
 64 62  1  0
 64 69  1  0
 65 73  1  0
 65 75  1  0
 66 68  1  0
 67 73  1  0
 68 69  2  0
 68 67  1  0
 70 64  2  0
 71 70  1  0
 71 66  2  0
 72 66  1  0
 72 65  1  0
 73 63  1  0
 75 77  2  0
 76 75  1  0
 78 76  1  0
 79 88  2  0
 79 84  1  0
 80 76  1  0
 80 84  1  0
 81 80  1  0
 82 83  1  0
 82 81  1  0
 83 79  1  0
 84 85  2  0
 85 86  1  0
 87 86  2  0
 88 87  1  0
 89 63  1  0
 89 90  1  0
 89 99  1  0
 90 93  1  0
 91 95  1  0
 91 90  1  0
 92 91  2  0
 95 94  1  0
 97 98  1  0
 97 95  1  0
 97 96  1  0
 99102  1  1
 99100  1  0
101 99  1  0
M  ISO  4  16 100  24 100  61 101  62 101
M  END
>  <TORSDO>  (11) 
F 29

>  <SCORE>  (11) 
-8.899

>  <name>  (11) 
13

>  <ligand_id>  (11) 
13

>  <original_smiles>  (11) 
[H]c1c([H])c([H])c2c(c1[H])C([H])([H])C([H])([H])C([H])([H])C2([H])N([H])C(=O)C1([H])N(C(=O)C([H])(N([H])C(=O)C([H])(N([H])C([H])([H])[H])C([H])([H])[H])C(C([H])([H])[H])(C([H])([H])[H])C([H])([H])[H])C([H])([H])c2c([H])c(OC([H])([H])C([H])([H])C([H])([H])C(=O)N([H])C([H])([H])C(=O)N([H])C([H])([H])C([H])([H])C([H])([H])C([H])([H])C([H])([H])C([H])([H])N([H])C(=O)C([H])([H])N([H])C(=O)N3C([H])([H])C([H])([H])C([H])([H])C([H])(n4nc(-c5c([H])c([H])c(Oc6c([H])c([H])c(F)c([H])c6F)c([H])c5[H])c(C(=O)N([H])[H])c4N([H])[H])C3([H])[H])c([H])c([H])c2C1([H])[H]

>  <smiles>  (11) 
[H]c1c([H])c([H])c2c(c1[H])C([H])([H])C([H])([H])C([H])([H])C2([H])N([H])C(=O)C1([H])N(C(=O)C([H])(N([H])C(=O)C([H])(N([H])C([H])([H])[H])C([H])([H])[H])C(C([H])([H])[H])(C([H])([H])[H])C([H])([H])[H])C([H])([H])c2c([H])c(OC([H])([H])C([H])([H])C([H])([H])C(=O)N([H])C([H])([H])C(=O)N([H])C([H])([H])C([H])([H])C([H])([H])C([H])([H])C([H])([H])C([H])([H])N([H])C(=O)C([H])([H])N([H])C(=O)N3C([H])([H])C([H])([H])C([H])([H])C([H])(n4nc(-c5c([H])c([H])c(Oc6c([H])c([H])c(F)c([H])c6F)c([H])c5[H])c(C(=O)N([H])[H])c4N([H])[H])C3([H])[H])c([H])c([H])c2C1([H])[H]

$$$$
14:0:0
     RDKit          3D

 96100  0  0  1  0  0  0  0  0999 V2000
  -22.4400  -24.3740   21.4250 C   0  0  0  0  0  2  0  0  0  0  0  0
  -20.9420  -25.3180   21.8640 C   0  0  0  0  0  0  0  0  0  0  0  0
  -20.5100  -26.7550   21.3830 N   0  0  1  0  0  4  0  0  0  0  0  0
  -20.1970  -24.7540   22.6660 O   0  0  0  0  0  0  0  0  0  0  0  0
  -19.6610  -27.1050   21.8090 H   0  0  0  0  0  0  0  0  0  0  0  0
  -21.2850  -28.2240   19.4480 C   0  0  0  0  0 15  0  0  0  0  0  0
  -23.1190  -27.8440   18.4740 C   0  0  0  0  0  1  0  0  0  0  0  0
  -24.8850  -27.3060   18.6840 O   0  0  0  0  0  0  0  0  0  0  0  0
  -25.9170  -30.4510   22.9820 C   0  0  0  0  0  0  0  0  0  0  0  0
  -26.2140  -27.5550   18.1160 C   0  0  0  0  0  3  0  0  0  0  0  0
  -24.4110  -30.3200   21.0790 C   0  0  0  0  0  3  0  0  0  0  0  0
  -25.4460  -29.8970   18.7360 C   0  0  0  0  0  3  0  0  0  0  0  0
  -26.9250  -30.1680   20.7170 C   0  0  0  0  0  2  0  0  0  0  0  0
  -26.5540  -29.4380   19.4500 C   0  0  0  0  0  3  0  0  0  0  0  0
  -27.1160  -28.2320   18.9990 C   0  0  0  0  0  2  0  0  0  0  0  0
  -25.9480  -28.2680   16.9830 C   0  0  0  0  0  2  0  0  0  0  0  0
  -25.2810  -29.4380   17.3910 C   0  0  0  0  0  2  0  0  0  0  0  0
  -24.4200  -30.6690   19.5420 C   0  0  0  0  0  2  0  0  0  0  0  0
  -25.7810  -30.3570   21.6360 N   0  0  0  0  0  0  0  0  0  0  0  0
  -24.9340  -30.5990   23.7250 O   0  0  0  0  0  0  0  0  0  0  0  0
  -23.8280  -28.9480   21.5120 C   0  0  0  0  0  0  0  0  0  0  0  0
  -22.5960  -28.8640   21.9350 N   0  0  0  0  0  0  0  0  0  0  0  0
  -24.5090  -27.9360   21.5910 O   0  0  0  0  0  0  0  0  0  0  0  0
  -22.0430  -29.7040   22.0310 H   0  0  0  0  0  0  0  0  0  0  0  0
  -18.9460  -28.3650   21.5680 C   0  0  0  0  0  0  0  0  0  0  0  0
  -21.8760  -27.5770   21.9040 C   0  0  0  0  0  3  0  0  0  0  0  0
  -22.1680  -26.4780   20.1060 C   0  0  0  0  0 15  0  0  0  0  0  0
  -20.1700  -26.7190   18.7280 C   0  0  0  0  0 15  0  0  0  0  0  0
  -18.6820  -27.7320   19.8430 C   0  0  0  0  0  1  0  0  0  0  0  0
  -20.2870  -28.3200   22.3800 C   0  0  2  0  0  0  0  0  0  0  0  0
  -20.3000  -29.0300   23.6400 C   0  0  0  0  0  2  0  0  0  0  0  0
  -19.1770  -29.6160   24.2680 C   0  0  0  0  0  3  0  0  0  0  0  0
  -17.9240  -29.4800   23.6560 C   0  0  0  0  0  3  0  0  0  0  0  0
  -17.8290  -28.8760   22.3610 C   0  0  0  0  0  3  0  0  0  0  0  0
  -27.3170  -30.4060   23.6360 C   0  0  0  0  0  3  0  0  0  0  0  0
  -27.4280  -31.6300   24.4330 N   0  0  0  0  0  0  0  0  0  0  0  0
  -28.0960  -32.7200   24.0450 C   0  0  0  0  0  0  0  0  0  0  0  0
  -28.7660  -32.7620   23.0090 O   0  0  0  0  0  0  0  0  0  0  0  0
  -26.8590  -31.6830   25.2660 H   0  0  0  0  0  0  0  0  0  0  0  0
  -27.0700  -34.9980   24.3350 C   0  0  0  0  0  1  0  0  0  0  0  0
  -28.0150  -33.9570   24.9570 C   0  0  0  0  0  3  0  0  0  0  0  0
  -30.2040  -33.7340   26.0450 C   0  0  0  0  0  1  0  0  0  0  0  0
  -29.3330  -34.5720   25.2240 N   0  0  0  0  0  0  0  0  0  0  0  0
  -29.2240  -35.4690   25.6880 H   0  0  0  0  0  0  0  0  0  0  0  0
  -27.5480  -29.1250   24.5230 C   0  0  1  0  0  0  0  0  0  0  0  0
  -26.4050  -28.8400   25.5240 C   0  0  0  0  0  1  0  0  0  0  0  0
  -27.7230  -27.8630   23.6470 C   0  0  0  0  0  1  0  0  0  0  0  0
  -28.8600  -29.2950   25.3200 C   0  0  0  0  0  1  0  0  0  0  0  0
  -24.2880  -22.5720   20.1100 C   0  0  0  0  0  0  0  0  0  0  0  0
  -22.9970  -22.9550   20.7410 N   0  0  0  0  0  0  0  0  0  0  0  0
  -25.1080  -23.4890   20.0450 O   0  0  0  0  0  0  0  0  0  0  0  0
  -22.3230  -22.2020   20.7800 H   0  0  0  0  0  0  0  0  0  0  0  0
  -24.9110  -21.0770   19.4310 C   0  0  0  0  0  2  0  0  0  0  0  0
  -27.0820  -19.1260   19.1030 C   0  0  0  0  0  0  0  0  0  0  0  0
  -26.4520  -20.4660   19.1740 N   0  0  0  0  0  0  0  0  0  0  0  0
  -26.3250  -18.2010   19.3880 O   0  0  0  0  0  0  0  0  0  0  0  0
  -27.1180  -21.2070   18.9930 H   0  0  0  0  0  0  0  0  0  0  0  0
  -28.7070  -18.5770   18.7220 C   0  0  0  0  0  2  0  0  0  0  0  0
  -30.8620  -16.4990   19.1270 C   0  0  0  0  0  0  0  0  0  0  0  0
  -31.7280  -14.0380   19.1120 C   0  0  0  0  0  2  0  0  0  0  0  0
  -30.9120  -13.2130   18.0730 C   0  0  0  0  0  2  0  0  0  0  0  0
  -29.4970  -12.8700   18.5940 C   0  0  0  0  0  2  0  0  0  0  0  0
  -28.8570  -14.0900   19.2960 C   0  0  0  0  0  3  0  0  0  0  0  0
  -29.7950  -14.6530   20.3680 C   0  0  0  0  0  2  0  0  0  0  0  0
  -30.8950  -15.1900   19.6080 N   0  0  0  0  0  0  0  0  0  0  0  0
  -31.9360  -16.8290   18.5690 O   0  0  0  0  0  0  0  0  0  0  0  0
  -29.5720  -17.2460   19.2310 N   0  0  0  0  0  0  0  0  0  0  0  0
  -28.9570  -16.6990   19.8180 H   0  0  0  0  0  0  0  0  0  0  0  0
  -26.6390  -14.7450   20.3390 C   0  0  0  0  0  0  0  0  0  0  0  0
  -25.5950  -13.9950   20.7960 C   0  0  0  0  0  0  0  0  0  0  0  0
  -25.9680  -12.6330   20.5840 C   0  0  0  0  0  0  0  0  0  0  0  0
  -27.5710  -13.8330   19.8820 N   0  0  0  0  0  0  0  0  0  0  0  0
  -27.1940  -12.5530   20.0920 N   0  0  0  0  0  0  0  0  0  0  0  0
  -25.2060  -11.3980   20.7460 C   0  0  0  0  0  0  0  0  0  0  0  0
  -25.5610  -10.4320   21.7130 C   0  0  0  0  0  3  0  0  0  0  0  0
  -24.7990   -9.2550   21.8540 C   0  0  0  0  0  3  0  0  0  0  0  0
  -23.6710   -9.0380   21.0270 C   0  0  0  0  0  0  0  0  0  0  0  0
  -23.3390   -9.9920   20.0490 C   0  0  0  0  0  3  0  0  0  0  0  0
  -24.1010  -11.1610   19.9070 C   0  0  0  0  0  3  0  0  0  0  0  0
  -22.8850   -7.9130   21.0770 O   0  0  0  0  0  0  0  0  0  0  0  0
  -22.5100   -7.3540   22.2710 C   0  0  0  0  0  0  0  0  0  0  0  0
  -21.8320   -8.0960   23.2620 C   0  0  0  0  0  3  0  0  0  0  0  0
  -21.4040   -7.4630   24.4460 C   0  0  0  0  0  3  0  0  0  0  0  0
  -21.6440   -6.0880   24.6350 C   0  0  0  0  0  0  0  0  0  0  0  0
  -22.3150   -5.3460   23.6470 C   0  0  0  0  0  3  0  0  0  0  0  0
  -22.7440   -5.9780   22.4660 C   0  0  0  0  0  0  0  0  0  0  0  0
  -23.3730   -5.2560   21.5080 F   0  0  0  0  0  0  0  0  0  0  0  0
  -21.2250   -5.4760   25.7670 F   0  0  0  0  0  0  0  0  0  0  0  0
  -24.2810  -14.5160   21.2950 C   0  0  0  0  0  0  0  0  0  0  0  0
  -23.6490  -13.7940   22.2130 N   0  0  0  0  0  0  0  0  0  0  0  0
  -23.8310  -15.5940   20.9060 O   0  0  0  0  0  0  0  0  0  0  0  0
  -24.0310  -12.9220   22.5460 H   0  0  0  0  0  0  0  0  0  0  0  0
  -22.7700  -14.1190   22.5900 H   0  0  0  0  0  0  0  0  0  0  0  0
  -26.8640  -16.1120   20.2430 N   0  0  0  0  0  0  0  0  0  0  0  0
  -26.1880  -16.7910   20.5720 H   0  0  0  0  0  0  0  0  0  0  0  0
  -27.6660  -16.5380   19.7990 H   0  0  0  0  0  0  0  0  0  0  0  0
  1  2  1  0
  2  4  2  0
  3  5  1  1
  3  2  1  0
  3 26  1  0
  3 30  1  0
  7  8  1  0
  9 20  2  0
 10  8  1  0
 10 15  1  0
 11 21  1  0
 11 19  1  0
 12 17  1  0
 12 14  1  0
 12 18  1  0
 13 19  1  0
 14 15  1  0
 14 13  1  0
 16 17  1  0
 16 10  1  0
 18 11  1  0
 19  9  1  0
 21 23  2  0
 21 22  1  0
 22 24  1  0
 25 34  2  0
 25 30  1  0
 26 22  1  0
 26 30  1  0
 29 25  1  0
 30 31  1  1
 31 32  1  0
 33 32  2  0
 34 33  1  0
 35  9  1  0
 35 36  1  0
 35 45  1  0
 36 39  1  0
 37 36  1  0
 37 41  1  0
 38 37  2  0
 41 40  1  0
 41 43  1  0
 43 44  1  0
 43 42  1  0
 45 48  1  1
 45 46  1  0
 47 45  1  0
 49 50  1  0
 50 52  1  0
 50  1  1  0
 51 49  2  0
 53 49  1  0
 54 55  1  0
 54 56  2  0
 55 53  1  0
 57 55  1  0
 58 54  1  0
 58 67  1  0
 59 67  1  0
 59 65  1  0
 60 65  1  0
 61 62  1  0
 61 60  1  0
 63 62  1  0
 63 72  1  0
 63 64  1  0
 65 64  1  0
 66 59  2  0
 67 68  1  0
 69 70  2  0
 70 89  1  0
 71 74  1  0
 71 70  1  0
 72 73  1  0
 72 69  1  0
 73 71  2  0
 74 75  1  0
 75 76  2  0
 77 80  1  0
 77 76  1  0
 78 77  2  0
 79 78  1  0
 79 74  2  0
 80 81  1  0
 81 86  2  0
 81 82  1  0
 82 83  2  0
 83 84  1  0
 84 88  1  0
 85 84  2  0
 86 85  1  0
 87 86  1  0
 89 90  1  0
 90 92  1  0
 90 93  1  0
 91 89  2  0
 94 69  1  0
 94 95  1  0
 96 94  1  0
M  ISO  4   7 101   8 101  59 100  67 100
M  END
>  <TORSDO>  (12) 
F 23

>  <SCORE>  (12) 
-3.253

>  <name>  (12) 
14

>  <ligand_id>  (12) 
14

>  <original_smiles>  (12) 
[H]c1c([H])c([H])c2c(c1[H])C([H])([H])C([H])([H])C([H])([H])C2([H])N([H])C(=O)C1([H])N(C(=O)C([H])(N([H])C(=O)C([H])(N([H])C([H])([H])[H])C([H])([H])[H])C(C([H])([H])[H])(C([H])([H])[H])C([H])([H])[H])C([H])([H])c2c([H])c(OC([H])([H])C([H])([H])N([H])C(=O)C([H])([H])N([H])C(=O)C([H])([H])N([H])C(=O)C([H])([H])N([H])C(=O)N3C([H])([H])C([H])([H])C([H])([H])C([H])(n4nc(-c5c([H])c([H])c(Oc6c([H])c([H])c(F)c([H])c6F)c([H])c5[H])c(C(=O)N([H])[H])c4N([H])[H])C3([H])[H])c([H])c([H])c2C1([H])[H]

>  <smiles>  (12) 
[H]c1c([H])c([H])c2c(c1[H])C([H])([H])C([H])([H])C([H])([H])C2([H])N([H])C(=O)C1([H])N(C(=O)C([H])(N([H])C(=O)C([H])(N([H])C([H])([H])[H])C([H])([H])[H])C(C([H])([H])[H])(C([H])([H])[H])C([H])([H])[H])C([H])([H])c2c([H])c(OC([H])([H])C([H])([H])N([H])C(=O)C([H])([H])N([H])C(=O)C([H])([H])N([H])C(=O)C([H])([H])N([H])C(=O)N3C([H])([H])C([H])([H])C([H])([H])C([H])(n4nc(-c5c([H])c([H])c(Oc6c([H])c([H])c(F)c([H])c6F)c([H])c5[H])c(C(=O)N([H])[H])c4N([H])[H])C3([H])[H])c([H])c([H])c2C1([H])[H]

$$$$
15:0:0
     RDKit          3D

 92 99  0  0  1  0  0  0  0  0999 V2000
  -29.4040  -22.4130   19.7680 C   0  0  0  0  0  2  0  0  0  0  0  0
  -28.6790  -23.6850   19.5100 N   0  0  0  0  0  4  0  0  0  0  0  0
  -28.2650  -23.9900   20.3780 H   0  0  0  0  0  0  0  0  0  0  0  0
  -27.9300  -23.5060   18.8580 H   0  0  0  0  0  0  0  0  0  0  0  0
  -29.5310  -24.7890   18.9950 C   0  0  0  0  0  2  0  0  0  0  0  0
  -28.7710  -26.1200   18.8040 C   0  0  0  0  0  2  0  0  0  0  0  0
  -28.4200  -26.7290   20.0590 O   0  0  0  0  0  0  0  0  0  0  0  0
  -24.6110  -31.8820   23.2280 C   0  0  0  0  0  0  0  0  0  0  0  0
  -27.2430  -27.4490   20.0970 C   0  0  0  0  0  0  0  0  0  0  0  0
  -23.3970  -30.4830   21.5910 C   0  0  0  0  0  3  0  0  0  0  0  0
  -24.8400  -28.9460   20.1630 C   0  0  0  0  0  0  0  0  0  0  0  0
  -25.9240  -30.8370   21.3840 C   0  0  0  0  0  2  0  0  0  0  0  0
  -26.0060  -29.4680   20.7400 C   0  0  0  0  0  0  0  0  0  0  0  0
  -27.2070  -28.7240   20.7150 C   0  0  0  0  0  3  0  0  0  0  0  0
  -26.0460  -26.9230   19.5600 C   0  0  0  0  0  3  0  0  0  0  0  0
  -24.8520  -27.6660   19.5850 C   0  0  0  0  0  3  0  0  0  0  0  0
  -23.6030  -29.8120   20.2100 C   0  0  0  0  0  2  0  0  0  0  0  0
  -24.6620  -31.0820   22.1250 N   0  0  0  0  0  0  0  0  0  0  0  0
  -23.5320  -32.1540   23.7720 O   0  0  0  0  0  0  0  0  0  0  0  0
  -22.7530  -29.4580   22.5530 C   0  0  0  0  0  0  0  0  0  0  0  0
  -21.4280  -29.2750   22.4320 N   0  0  0  0  0  0  0  0  0  0  0  0
  -23.4410  -28.8310   23.3630 O   0  0  0  0  0  0  0  0  0  0  0  0
  -20.9350  -29.8320   21.7490 H   0  0  0  0  0  0  0  0  0  0  0  0
  -18.0580  -28.0760   22.9440 C   0  0  0  0  0  0  0  0  0  0  0  0
  -20.6150  -28.3370   23.2070 C   0  0  0  0  0  3  0  0  0  0  0  0
  -20.7200  -26.9050   22.6330 C   0  0  0  0  0  2  0  0  0  0  0  0
  -19.6140  -26.5780   21.6230 C   0  0  0  0  0  2  0  0  0  0  0  0
  -18.2330  -26.7250   22.2700 C   0  0  0  0  0  2  0  0  0  0  0  0
  -19.1760  -28.8390   23.3700 C   0  0  0  0  0  0  0  0  0  0  0  0
  -18.9580  -30.1030   23.9610 C   0  0  0  0  0  3  0  0  0  0  0  0
  -17.6530  -30.6030   24.1300 C   0  0  0  0  0  3  0  0  0  0  0  0
  -16.5490  -29.8370   23.7190 C   0  0  0  0  0  3  0  0  0  0  0  0
  -16.7520  -28.5750   23.1320 C   0  0  0  0  0  3  0  0  0  0  0  0
  -25.8990  -32.5140   23.8390 C   0  0  0  0  0  3  0  0  0  0  0  0
  -25.5880  -33.9100   24.1780 N   0  0  0  0  0  0  0  0  0  0  0  0
  -25.9120  -34.9660   23.4200 C   0  0  0  0  0  0  0  0  0  0  0  0
  -26.5750  -34.8680   22.3840 O   0  0  0  0  0  0  0  0  0  0  0  0
  -25.0010  -34.0600   24.9840 H   0  0  0  0  0  0  0  0  0  0  0  0
  -24.1750  -36.7520   23.0820 C   0  0  0  0  0  1  0  0  0  0  0  0
  -25.4230  -36.3500   23.8840 C   0  0  0  0  0  3  0  0  0  0  0  0
  -27.5610  -37.2370   24.7040 C   0  0  0  0  0  1  0  0  0  0  0  0
  -26.4510  -37.4070   23.7700 N   0  0  0  0  0  0  0  0  0  0  0  0
  -26.0430  -38.3250   23.9240 H   0  0  0  0  0  0  0  0  0  0  0  0
  -26.4310  -31.7370   25.1060 C   0  0  1  0  0  0  0  0  0  0  0  0
  -25.3510  -31.4900   26.1840 C   0  0  0  0  0  1  0  0  0  0  0  0
  -27.0120  -30.3630   24.7000 C   0  0  0  0  0  1  0  0  0  0  0  0
  -27.5850  -32.5330   25.7620 C   0  0  0  0  0  1  0  0  0  0  0  0
  -28.5070  -21.3420   20.4400 C   0  0  0  0  0  2  0  0  0  0  0  0
  -29.8610  -19.2440   20.1610 C   0  0  0  0  0  0  0  0  0  0  0  0
  -29.2320  -20.1550   20.9130 N   0  0  0  0  0  0  0  0  0  0  0  0
  -30.0180  -19.3930   18.9490 O   0  0  0  0  0  0  0  0  0  0  0  0
  -29.1530  -19.9560   21.9030 H   0  0  0  0  0  0  0  0  0  0  0  0
  -30.3500  -17.9500   20.8460 C   0  0  0  0  0  2  0  0  0  0  0  0
  -29.6510  -16.7180   20.2330 C   0  0  0  0  0  2  0  0  0  0  0  0
  -30.6240  -14.4520   20.5180 C   0  0  0  0  0  0  0  0  0  0  0  0
  -30.3720  -12.2970   19.3640 C   0  0  0  0  0  2  0  0  0  0  0  0
  -29.4310  -12.5350   18.1630 C   0  0  0  0  0  2  0  0  0  0  0  0
  -27.9490  -12.4110   18.5760 C   0  0  0  0  0  2  0  0  0  0  0  0
  -27.6180  -13.2150   19.8610 C   0  0  0  0  0  3  0  0  0  0  0  0
  -28.6660  -12.9390   20.9650 C   0  0  0  0  0  2  0  0  0  0  0  0
  -29.9990  -13.2520   20.4210 N   0  0  0  0  0  0  0  0  0  0  0  0
  -31.7360  -14.6900   20.0370 O   0  0  0  0  0  0  0  0  0  0  0  0
  -29.8210  -15.4420   20.9460 N   0  0  0  0  0  0  0  0  0  0  0  0
  -28.9870  -15.1080   21.4040 H   0  0  0  0  0  0  0  0  0  0  0  0
  -25.2120  -13.8340   20.5440 C   0  0  0  0  0  0  0  0  0  0  0  0
  -24.1420  -13.0630   20.9110 C   0  0  0  0  0  0  0  0  0  0  0  0
  -24.6030  -11.7110   20.8880 C   0  0  0  0  0  0  0  0  0  0  0  0
  -26.2570  -12.9490   20.3250 N   0  0  0  0  0  0  0  0  0  0  0  0
  -25.8930  -11.6680   20.5880 N   0  0  0  0  0  0  0  0  0  0  0  0
  -23.8730  -10.4500   21.0780 C   0  0  0  0  0  0  0  0  0  0  0  0
  -24.3150   -9.4790   22.0010 C   0  0  0  0  0  3  0  0  0  0  0  0
  -23.5900   -8.2810   22.1790 C   0  0  0  0  0  3  0  0  0  0  0  0
  -22.4090   -8.0480   21.4340 C   0  0  0  0  0  0  0  0  0  0  0  0
  -21.9880   -9.0080   20.4990 C   0  0  0  0  0  3  0  0  0  0  0  0
  -22.7130  -10.1980   20.3180 C   0  0  0  0  0  3  0  0  0  0  0  0
  -21.6550   -6.9040   21.5260 O   0  0  0  0  0  0  0  0  0  0  0  0
  -21.6310   -6.1450   22.6700 C   0  0  0  0  0  0  0  0  0  0  0  0
  -21.2490   -6.6870   23.9170 C   0  0  0  0  0  3  0  0  0  0  0  0
  -21.1700   -5.8530   25.0510 C   0  0  0  0  0  3  0  0  0  0  0  0
  -21.4640   -4.4800   24.9400 C   0  0  0  0  0  0  0  0  0  0  0  0
  -21.8380   -3.9400   23.6970 C   0  0  0  0  0  3  0  0  0  0  0  0
  -21.9180   -4.7710   22.5660 C   0  0  0  0  0  0  0  0  0  0  0  0
  -22.2580   -4.2410   21.3660 F   0  0  0  0  0  0  0  0  0  0  0  0
  -21.3820   -3.6760   26.0260 F   0  0  0  0  0  0  0  0  0  0  0  0
  -22.7430  -13.5410   21.1760 C   0  0  0  0  0  0  0  0  0  0  0  0
  -22.0150  -12.8440   22.0420 N   0  0  0  0  0  0  0  0  0  0  0  0
  -22.3070  -14.5630   20.6470 O   0  0  0  0  0  0  0  0  0  0  0  0
  -22.3810  -12.0170   22.4900 H   0  0  0  0  0  0  0  0  0  0  0  0
  -21.0730  -13.1420   22.2560 H   0  0  0  0  0  0  0  0  0  0  0  0
  -25.3800  -15.2030   20.3580 N   0  0  0  0  0  0  0  0  0  0  0  0
  -24.6120  -15.8580   20.4480 H   0  0  0  0  0  0  0  0  0  0  0  0
  -26.2260  -15.6330   20.0050 H   0  0  0  0  0  0  0  0  0  0  0  0
  1 48  1  0
  2  1  1  0
  2  3  1  0
  4  2  1  0
  5  2  1  0
  6  5  1  0
  6  7  1  0
  7  9  1  0
  8 19  2  0
  9 14  1  0
 10 18  1  0
 10 20  1  0
 11 17  1  0
 11 13  1  0
 12 18  1  0
 13 12  1  0
 14 13  2  0
 15 16  1  0
 15  9  2  0
 16 11  2  0
 17 10  1  0
 18  8  1  0
 20 22  2  0
 21 20  1  0
 23 21  1  0
 24 33  2  0
 24 29  1  0
 25 21  1  0
 25 29  1  0
 26 25  1  0
 27 28  1  0
 27 26  1  0
 28 24  1  0
 29 30  2  0
 30 31  1  0
 32 31  2  0
 33 32  1  0
 34  8  1  0
 34 35  1  0
 34 44  1  0
 35 38  1  0
 36 40  1  0
 36 35  1  0
 37 36  2  0
 40 39  1  0
 42 40  1  0
 42 43  1  0
 42 41  1  0
 44 47  1  1
 44 45  1  0
 46 44  1  0
 48 50  1  0
 49 53  1  0
 49 50  1  0
 50 52  1  0
 51 49  2  0
 54 53  1  0
 54 63  1  0
 55 63  1  0
 56 61  1  0
 57 58  1  0
 57 56  1  0
 59 58  1  0
 59 68  1  0
 59 60  1  0
 61 55  1  0
 61 60  1  0
 62 55  2  0
 63 64  1  0
 65 66  2  0
 66 85  1  0
 67 66  1  0
 67 70  1  0
 68 65  1  0
 68 69  1  0
 69 67  2  0
 70 71  1  0
 71 72  2  0
 73 76  1  0
 73 72  1  0
 74 73  2  0
 75 74  1  0
 75 70  2  0
 76 77  1  0
 77 78  1  0
 78 79  2  0
 80 79  1  0
 80 84  1  0
 81 80  2  0
 82 77  2  0
 82 81  1  0
 83 82  1  0
 85 86  1  0
 86 89  1  0
 86 88  1  0
 87 85  2  0
 90 91  1  0
 90 65  1  0
 92 90  1  0
M  ISO  4   6 101   7 101  55 100  63 100
M  END
>  <TORSDO>  (13) 
F 23

>  <SCORE>  (13) 
-12.835

>  <name>  (13) 
15

>  <ligand_id>  (13) 
15

>  <original_smiles>  (13) 
[H]c1c([H])c([H])c2c(c1[H])C([H])([H])C([H])([H])C([H])([H])C2([H])N([H])C(=O)C1([H])N(C(=O)C([H])(N([H])C(=O)C([H])(N([H])C([H])([H])[H])C([H])([H])[H])C(C([H])([H])[H])(C([H])([H])[H])C([H])([H])[H])C([H])([H])c2c([H])c(OC([H])([H])C([H])([H])[N+]([H])([H])C([H])([H])C([H])([H])N([H])C(=O)C([H])([H])C([H])([H])N([H])C(=O)N3C([H])([H])C([H])([H])C([H])([H])C([H])(n4nc(-c5c([H])c([H])c(Oc6c([H])c([H])c(F)c([H])c6F)c([H])c5[H])c(C(=O)N([H])[H])c4N([H])[H])C3([H])[H])c([H])c([H])c2C1([H])[H]

>  <smiles>  (13) 
[H]c1c([H])c([H])c2c(c1[H])C([H])([H])C([H])([H])C([H])([H])C2([H])N([H])C(=O)C1([H])N(C(=O)C([H])(N([H])C(=O)C([H])(N([H])C([H])([H])[H])C([H])([H])[H])C(C([H])([H])[H])(C([H])([H])[H])C([H])([H])[H])C([H])([H])c2c([H])c(OC([H])([H])C([H])([H])[N+]([H])([H])C([H])([H])C([H])([H])N([H])C(=O)C([H])([H])C([H])([H])N([H])C(=O)N3C([H])([H])C([H])([H])C([H])([H])C([H])(n4nc(-c5c([H])c([H])c(Oc6c([H])c([H])c(F)c([H])c6F)c([H])c5[H])c(C(=O)N([H])[H])c4N([H])[H])C3([H])[H])c([H])c([H])c2C1([H])[H]

$$$$
16:0:0
     RDKit          3D

103110  0  0  1  0  0  0  0  0999 V2000
  -28.8250  -18.2730   25.8510 C   0  0  0  0  0  0  0  0  0  0  0  0
  -28.6970  -17.0070   25.4390 N   0  0  0  0  0  0  0  0  0  0  0  0
  -28.1970  -18.7280   26.8080 O   0  0  0  0  0  0  0  0  0  0  0  0
  -29.2530  -16.7300   24.6410 H   0  0  0  0  0  0  0  0  0  0  0  0
  -27.8780  -15.9670   26.0520 C   0  0  0  0  0  2  0  0  0  0  0  0
  -28.7490  -14.7710   26.4810 C   0  0  0  0  0  2  0  0  0  0  0  0
  -28.1550  -13.4040   26.0710 C   0  0  0  0  0  2  0  0  0  0  0  0
  -28.9090  -12.1810   26.6490 C   0  0  0  0  0  2  0  0  0  0  0  0
  -30.4060  -11.2570   24.9020 C   0  0  0  0  0  0  0  0  0  0  0  0
  -30.2040  -11.9970   25.9970 N   0  0  0  0  0  0  0  0  0  0  0  0
  -29.6230  -10.3780   24.5320 O   0  0  0  0  0  0  0  0  0  0  0  0
  -30.9270  -12.6600   26.2440 H   0  0  0  0  0  0  0  0  0  0  0  0
  -31.5720  -11.7130   24.1730 C   0  0  0  0  0  3  0  0  0  0  0  0
  -31.6630  -11.5120   22.8470 C   0  0  0  0  0  3  0  0  0  0  0  0
  -32.8130  -11.9890   21.9840 C   0  0  0  0  0  2  0  0  0  0  0  0
  -32.2860  -12.9330   19.8130 C   0  0  0  0  0  0  0  0  0  0  0  0
  -31.1780  -11.3950   18.2490 C   0  0  0  0  0  2  0  0  0  0  0  0
  -30.3280  -12.0730   17.1650 C   0  0  0  0  0  2  0  0  0  0  0  0
  -28.9060  -12.3500   17.6810 C   0  0  0  0  0  2  0  0  0  0  0  0
  -28.9010  -13.0800   19.0480 C   0  0  0  0  0  3  0  0  0  0  0  0
  -29.8500  -12.3940   20.0580 C   0  0  0  0  0  2  0  0  0  0  0  0
  -31.1860  -12.2300   19.4550 N   0  0  0  0  0  0  0  0  0  0  0  0
  -33.2090  -13.2170   19.0480 O   0  0  0  0  0  0  0  0  0  0  0  0
  -32.4250  -13.1140   21.1300 N   0  0  0  0  0  0  0  0  0  0  0  0
  -32.9850  -13.9320   21.3330 H   0  0  0  0  0  0  0  0  0  0  0  0
  -26.7990  -14.3450   19.8400 C   0  0  0  0  0  0  0  0  0  0  0  0
  -25.5680  -13.9070   20.2520 C   0  0  0  0  0  0  0  0  0  0  0  0
  -25.6250  -12.4790   20.2180 C   0  0  0  0  0  0  0  0  0  0  0  0
  -27.5420  -13.2030   19.5770 N   0  0  0  0  0  0  0  0  0  0  0  0
  -26.8380  -12.0760   19.8610 N   0  0  0  0  0  0  0  0  0  0  0  0
  -24.5770  -11.4770   20.4490 C   0  0  0  0  0  0  0  0  0  0  0  0
  -24.7740  -10.3930   21.3340 C   0  0  0  0  0  3  0  0  0  0  0  0
  -23.7440   -9.4520   21.5510 C   0  0  0  0  0  3  0  0  0  0  0  0
  -22.5030   -9.5890   20.8820 C   0  0  0  0  0  0  0  0  0  0  0  0
  -22.3230  -10.6550   19.9840 C   0  0  0  0  0  3  0  0  0  0  0  0
  -23.3500  -11.5880   19.7650 C   0  0  0  0  0  3  0  0  0  0  0  0
  -21.4570   -8.7070   21.0100 O   0  0  0  0  0  0  0  0  0  0  0  0
  -21.3580   -7.8570   22.0830 C   0  0  0  0  0  0  0  0  0  0  0  0
  -21.2410   -8.3370   23.4050 C   0  0  0  0  0  3  0  0  0  0  0  0
  -21.0730   -7.4300   24.4710 C   0  0  0  0  0  3  0  0  0  0  0  0
  -21.0120   -6.0470   24.2170 C   0  0  0  0  0  0  0  0  0  0  0  0
  -21.1230   -5.5670   22.9010 C   0  0  0  0  0  3  0  0  0  0  0  0
  -21.2930   -6.4700   21.8370 C   0  0  0  0  0  0  0  0  0  0  0  0
  -21.3790   -6.0040   20.5670 F   0  0  0  0  0  0  0  0  0  0  0  0
  -20.8450   -5.1760   25.2400 F   0  0  0  0  0  0  0  0  0  0  0  0
  -24.3750  -14.7600   20.5750 C   0  0  0  0  0  0  0  0  0  0  0  0
  -23.5170  -14.3020   21.4790 N   0  0  0  0  0  0  0  0  0  0  0  0
  -24.2240  -15.8670   20.0580 O   0  0  0  0  0  0  0  0  0  0  0  0
  -23.6520  -13.4020   21.9170 H   0  0  0  0  0  0  0  0  0  0  0  0
  -22.7160  -14.8600   21.7390 H   0  0  0  0  0  0  0  0  0  0  0  0
  -27.3360  -15.6120   19.6470 N   0  0  0  0  0  0  0  0  0  0  0  0
  -26.7810  -16.4530   19.7610 H   0  0  0  0  0  0  0  0  0  0  0  0
  -28.2720  -15.7960   19.3100 H   0  0  0  0  0  0  0  0  0  0  0  0
  -29.8330  -19.1340   25.0840 C   0  0  0  0  0  2  0  0  0  0  0  0
  -29.5010  -20.6380   25.0900 C   0  0  0  0  0  2  0  0  0  0  0  0
  -30.3220  -21.3860   24.1110 N   0  0  0  0  0  4  0  0  0  0  0  0
  -30.2990  -20.9000   23.2290 H   0  0  0  0  0  0  0  0  0  0  0  0
  -31.2780  -21.4030   24.4310 H   0  0  0  0  0  0  0  0  0  0  0  0
  -29.8790  -22.7760   23.8920 C   0  0  0  0  0  2  0  0  0  0  0  0
  -30.5300  -23.4030   22.6450 C   0  0  0  0  0  2  0  0  0  0  0  0
  -30.0390  -24.8400   22.4170 C   0  0  0  0  0  2  0  0  0  0  0  0
  -30.5970  -25.4750   21.1330 C   0  0  0  0  0  2  0  0  0  0  0  0
  -30.3300  -26.8730   21.1330 O   0  0  0  0  0  0  0  0  0  0  0  0
  -25.2890  -31.4040   23.1990 C   0  0  0  0  0  0  0  0  0  0  0  0
  -29.0500  -27.3230   20.8990 C   0  0  0  0  0  0  0  0  0  0  0  0
  -24.6030  -29.7730   21.4710 C   0  0  0  0  0  3  0  0  0  0  0  0
  -26.4870  -28.4130   20.4210 C   0  0  0  0  0  0  0  0  0  0  0  0
  -27.0410  -30.5070   21.6740 C   0  0  0  0  0  2  0  0  0  0  0  0
  -27.4310  -29.1390   21.1560 C   0  0  0  0  0  0  0  0  0  0  0  0
  -28.7100  -28.6010   21.3920 C   0  0  0  0  0  3  0  0  0  0  0  0
  -28.0840  -26.5940   20.1670 C   0  0  0  0  0  3  0  0  0  0  0  0
  -26.8050  -27.1350   19.9310 C   0  0  0  0  0  3  0  0  0  0  0  0
  -25.1450  -29.0700   20.1960 C   0  0  0  0  0  2  0  0  0  0  0  0
  -25.6500  -30.5810   22.1750 N   0  0  0  0  0  0  0  0  0  0  0  0
  -24.1020  -31.5300   23.5300 O   0  0  0  0  0  0  0  0  0  0  0  0
  -23.9420  -28.7060   22.3730 C   0  0  0  0  0  0  0  0  0  0  0  0
  -22.6800  -28.3660   22.0670 N   0  0  0  0  0  0  0  0  0  0  0  0
  -24.5670  -28.1850   23.3000 O   0  0  0  0  0  0  0  0  0  0  0  0
  -22.2340  -28.8460   21.2990 H   0  0  0  0  0  0  0  0  0  0  0  0
  -19.3980  -26.8680   22.1880 C   0  0  0  0  0  0  0  0  0  0  0  0
  -21.8720  -27.3570   22.7500 C   0  0  0  0  0  3  0  0  0  0  0  0
  -22.1710  -25.9430   22.2030 C   0  0  0  0  0  2  0  0  0  0  0  0
  -21.2270  -25.5200   21.0740 C   0  0  0  0  0  2  0  0  0  0  0  0
  -19.7720  -25.5390   21.5530 C   0  0  0  0  0  2  0  0  0  0  0  0
  -20.3860  -27.7280   22.7350 C   0  0  0  0  0  0  0  0  0  0  0  0
  -19.9860  -28.9680   23.2800 C   0  0  0  0  0  3  0  0  0  0  0  0
  -18.6330  -29.3490   23.2900 C   0  0  0  0  0  3  0  0  0  0  0  0
  -17.6570  -28.4850   22.7620 C   0  0  0  0  0  3  0  0  0  0  0  0
  -18.0400  -27.2480   22.2160 C   0  0  0  0  0  3  0  0  0  0  0  0
  -26.3440  -32.2410   23.9870 C   0  0  0  0  0  3  0  0  0  0  0  0
  -25.7900  -33.5870   24.1770 N   0  0  0  0  0  0  0  0  0  0  0  0
  -26.1120  -34.6530   23.4320 C   0  0  0  0  0  0  0  0  0  0  0  0
  -26.9710  -34.6180   22.5470 O   0  0  0  0  0  0  0  0  0  0  0  0
  -25.0390  -33.6780   24.8450 H   0  0  0  0  0  0  0  0  0  0  0  0
  -24.2550  -36.1630   22.6550 C   0  0  0  0  0  1  0  0  0  0  0  0
  -25.3570  -35.9680   23.7100 C   0  0  0  0  0  3  0  0  0  0  0  0
  -27.1520  -37.1690   24.8760 C   0  0  0  0  0  1  0  0  0  0  0  0
  -26.2360  -37.1570   23.7380 N   0  0  0  0  0  0  0  0  0  0  0  0
  -25.6860  -38.0130   23.7640 H   0  0  0  0  0  0  0  0  0  0  0  0
  -26.7400  -31.6000   25.3730 C   0  0  1  0  0  0  0  0  0  0  0  0
  -25.5240  -31.2040   26.2420 C   0  0  0  0  0  1  0  0  0  0  0  0
  -27.6020  -30.3340   25.1590 C   0  0  0  0  0  1  0  0  0  0  0  0
  -27.6050  -32.5920   26.1840 C   0  0  0  0  0  1  0  0  0  0  0  0
  1  3  2  0
  2  1  1  0
  2  5  1  0
  4  2  1  0
  5  6  1  0
  7  6  1  0
  7  8  1  0
  9 10  1  0
 10 12  1  0
 10  8  1  0
 11  9  2  0
 13  9  1  0
 14 13  2  0
 15 14  1  0
 16 24  1  0
 17 22  1  0
 18 19  1  0
 18 17  1  0
 20 19  1  0
 20 29  1  0
 20 21  1  0
 22 16  1  0
 22 21  1  0
 23 16  2  0
 24 25  1  0
 24 15  1  0
 26 27  2  0
 27 46  1  0
 28 27  1  0
 28 31  1  0
 29 26  1  0
 29 30  1  0
 30 28  2  0
 31 32  1  0
 32 33  2  0
 34 37  1  0
 34 33  1  0
 35 34  2  0
 36 35  1  0
 36 31  2  0
 37 38  1  0
 38 39  1  0
 39 40  2  0
 41 40  1  0
 41 45  1  0
 42 41  2  0
 43 38  2  0
 43 42  1  0
 44 43  1  0
 46 47  1  0
 47 50  1  0
 47 49  1  0
 48 46  2  0
 51 52  1  0
 51 26  1  0
 53 51  1  0
 54 55  1  0
 54  1  1  0
 56 58  1  0
 56 55  1  0
 57 56  1  0
 59 56  1  0
 60 59  1  0
 61 60  1  0
 62 63  1  0
 62 61  1  0
 64 75  2  0
 65 63  1  0
 65 70  1  0
 66 74  1  0
 66 76  1  0
 67 69  1  0
 68 74  1  0
 69 70  2  0
 69 68  1  0
 71 65  2  0
 72 71  1  0
 72 67  2  0
 73 67  1  0
 73 66  1  0
 74 64  1  0
 76 78  2  0
 77 76  1  0
 79 77  1  0
 80 89  2  0
 80 85  1  0
 81 77  1  0
 82 81  1  0
 83 84  1  0
 83 82  1  0
 84 80  1  0
 85 81  1  0
 85 86  2  0
 86 87  1  0
 88 87  2  0
 89 88  1  0
 90 64  1  0
 90 91  1  0
 90100  1  0
 91 94  1  0
 92 96  1  0
 92 91  1  0
 93 92  2  0
 96 95  1  0
 96 98  1  0
 98 99  1  0
 98 97  1  0
100103  1  1
100101  1  0
102100  1  0
M  ISO  4  16 100  24 100  62 101  63 101
M  END
>  <TORSDO>  (14) 
F 30

>  <SCORE>  (14) 
32.144

>  <name>  (14) 
16

>  <ligand_id>  (14) 
16

>  <original_smiles>  (14) 
[H]C(C(=O)N([H])C([H])([H])C([H])([H])C([H])([H])C([H])([H])N([H])C(=O)C([H])([H])C([H])([H])[N+]([H])([H])C([H])([H])C([H])([H])C([H])([H])C([H])([H])Oc1c([H])c([H])c2c(c1[H])C([H])([H])N(C(=O)C([H])(N([H])C(=O)C([H])(N([H])C([H])([H])[H])C([H])([H])[H])C(C([H])([H])[H])(C([H])([H])[H])C([H])([H])[H])C([H])(C(=O)N([H])C1([H])c3c([H])c([H])c([H])c([H])c3C([H])([H])C([H])([H])C1([H])[H])C2([H])[H])=C([H])C([H])([H])N([H])C(=O)N1C([H])([H])C([H])([H])C([H])([H])C([H])(n2nc(-c3c([H])c([H])c(Oc4c([H])c([H])c(F)c([H])c4F)c([H])c3[H])c(C(=O)N([H])[H])c2N([H])[H])C1([H])[H]

>  <smiles>  (14) 
[H]C(C(=O)N([H])C([H])([H])C([H])([H])C([H])([H])C([H])([H])N([H])C(=O)C([H])([H])C([H])([H])[N+]([H])([H])C([H])([H])C([H])([H])C([H])([H])C([H])([H])Oc1c([H])c([H])c2c(c1[H])C([H])([H])N(C(=O)C([H])(N([H])C(=O)C([H])(N([H])C([H])([H])[H])C([H])([H])[H])C(C([H])([H])[H])(C([H])([H])[H])C([H])([H])[H])C([H])(C(=O)N([H])C1([H])c3c([H])c([H])c([H])c([H])c3C([H])([H])C([H])([H])C1([H])[H])C2([H])[H])=C([H])C([H])([H])N([H])C(=O)N1C([H])([H])C([H])([H])C([H])([H])C([H])(n2nc(-c3c([H])c([H])c(Oc4c([H])c([H])c(F)c([H])c4F)c([H])c3[H])c(C(=O)N([H])[H])c2N([H])[H])C1([H])[H]

$$$$
17:0:0
     RDKit          3D

100107  0  0  1  0  0  0  0  0999 V2000
  -28.0170  -23.5820   26.7680 C   0  0  0  0  0  2  0  0  0  0  0  0
  -28.0190  -24.4700   28.0280 C   0  0  0  0  0  2  0  0  0  0  0  0
  -27.1960  -25.7640   27.8980 C   0  0  0  0  0  2  0  0  0  0  0  0
  -27.9680  -27.6230   26.4160 C   0  0  0  0  0  0  0  0  0  0  0  0
  -28.0360  -26.9020   27.5410 N   0  0  0  0  0  0  0  0  0  0  0  0
  -27.1940  -27.3610   25.4940 O   0  0  0  0  0  0  0  0  0  0  0  0
  -28.7080  -27.2010   28.2370 H   0  0  0  0  0  0  0  0  0  0  0  0
  -28.9090  -28.8260   26.3290 C   0  0  0  0  0  2  0  0  0  0  0  0
  -28.2070  -30.1050   25.8310 C   0  0  0  0  0  2  0  0  0  0  0  0
  -29.1300  -31.3360   25.8650 C   0  0  0  0  0  2  0  0  0  0  0  0
  -29.6180  -31.5930   27.1840 O   0  0  0  0  0  0  0  0  0  0  0  0
  -27.7940  -31.8330   34.0330 C   0  0  0  0  0  0  0  0  0  0  0  0
  -28.7650  -32.1510   28.1130 C   0  0  0  0  0  0  0  0  0  0  0  0
  -26.2450  -32.9690   32.4770 C   0  0  0  0  0  3  0  0  0  0  0  0
  -27.0970  -33.2790   30.0950 C   0  0  0  0  0  0  0  0  0  0  0  0
  -28.7300  -32.7390   31.9110 C   0  0  0  0  0  2  0  0  0  0  0  0
  -28.3310  -32.7230   30.4530 C   0  0  0  0  0  0  0  0  0  0  0  0
  -29.1700  -32.1640   29.4640 C   0  0  0  0  0  3  0  0  0  0  0  0
  -27.5140  -32.7150   27.7680 C   0  0  0  0  0  3  0  0  0  0  0  0
  -26.6820  -33.2760   28.7540 C   0  0  0  0  0  3  0  0  0  0  0  0
  -26.2610  -33.8640   31.2080 C   0  0  0  0  0  2  0  0  0  0  0  0
  -27.6080  -32.4640   32.8410 N   0  0  0  0  0  0  0  0  0  0  0  0
  -26.8640  -31.7060   34.8420 O   0  0  0  0  0  0  0  0  0  0  0  0
  -25.2090  -31.8410   32.2700 C   0  0  0  0  0  0  0  0  0  0  0  0
  -24.0290  -31.9940   32.8910 N   0  0  0  0  0  0  0  0  0  0  0  0
  -25.4630  -30.8720   31.5490 O   0  0  0  0  0  0  0  0  0  0  0  0
  -23.8970  -32.8140   33.4660 H   0  0  0  0  0  0  0  0  0  0  0  0
  -20.8420  -31.1840   34.3810 C   0  0  0  0  0  0  0  0  0  0  0  0
  -22.8930  -31.0760   32.8140 C   0  0  0  0  0  3  0  0  0  0  0  0
  -21.9250  -31.4860   31.6800 C   0  0  0  0  0  2  0  0  0  0  0  0
  -20.7910  -32.3970   32.1600 C   0  0  0  0  0  2  0  0  0  0  0  0
  -19.9690  -31.7050   33.2510 C   0  0  0  0  0  2  0  0  0  0  0  0
  -22.2180  -30.9030   34.1780 C   0  0  0  0  0  0  0  0  0  0  0  0
  -22.9940  -30.4520   35.2680 C   0  0  0  0  0  3  0  0  0  0  0  0
  -22.4170  -30.2820   36.5400 C   0  0  0  0  0  3  0  0  0  0  0  0
  -21.0510  -30.5450   36.7330 C   0  0  0  0  0  3  0  0  0  0  0  0
  -20.2650  -30.9900   35.6540 C   0  0  0  0  0  3  0  0  0  0  0  0
  -29.1860  -31.2640   34.4500 C   0  0  0  0  0  3  0  0  0  0  0  0
  -29.5150  -31.8230   35.7680 N   0  0  0  0  0  0  0  0  0  0  0  0
  -30.3860  -32.8190   35.9760 C   0  0  0  0  0  0  0  0  0  0  0  0
  -31.0560  -33.3230   35.0710 O   0  0  0  0  0  0  0  0  0  0  0  0
  -28.9590  -31.5000   36.5470 H   0  0  0  0  0  0  0  0  0  0  0  0
  -29.9200  -34.7490   37.5210 C   0  0  0  0  0  1  0  0  0  0  0  0
  -30.5350  -33.3440   37.4180 C   0  0  0  0  0  3  0  0  0  0  0  0
  -32.4790  -32.0490   38.1740 C   0  0  0  0  0  1  0  0  0  0  0  0
  -31.9380  -33.3740   37.8880 N   0  0  0  0  0  0  0  0  0  0  0  0
  -32.0250  -33.9400   38.7290 H   0  0  0  0  0  0  0  0  0  0  0  0
  -29.2270  -29.6880   34.4820 C   0  0  1  0  0  0  0  0  0  0  0  0
  -28.0210  -29.0520   35.2110 C   0  0  0  0  0  1  0  0  0  0  0  0
  -29.2690  -29.1130   33.0470 C   0  0  0  0  0  1  0  0  0  0  0  0
  -30.5180  -29.2130   35.1870 C   0  0  0  0  0  1  0  0  0  0  0  0
  -29.2930  -22.7240   26.6660 C   0  0  0  0  0  2  0  0  0  0  0  0
  -29.3410  -21.7750   25.4520 C   0  0  0  0  0  2  0  0  0  0  0  0
  -29.6750  -23.3160   23.5240 C   0  0  0  0  0  0  0  0  0  0  0  0
  -28.9570  -22.4050   24.1910 N   0  0  0  0  0  0  0  0  0  0  0  0
  -30.7150  -23.7950   23.9800 O   0  0  0  0  0  0  0  0  0  0  0  0
  -28.1100  -22.0670   23.7540 H   0  0  0  0  0  0  0  0  0  0  0  0
  -29.1440  -23.7410   22.1460 C   0  0  0  0  0  2  0  0  0  0  0  0
  -30.2110  -24.3650   21.2090 C   0  0  0  0  0  2  0  0  0  0  0  0
  -29.7760  -25.6890   20.5500 C   0  0  0  0  0  2  0  0  0  0  0  0
  -30.9880  -26.5000   20.0680 C   0  0  0  0  0  2  0  0  0  0  0  0
  -30.6280  -27.8390   19.4080 C   0  0  0  0  0  2  0  0  0  0  0  0
  -30.3340  -28.6160   17.0780 C   0  0  0  0  0  0  0  0  0  0  0  0
  -30.0710  -29.1910   14.6970 C   0  0  0  0  0  2  0  0  0  0  0  0
  -28.7160  -29.8610   14.4160 C   0  0  0  0  0  2  0  0  0  0  0  0
  -27.6300  -28.8010   14.1520 C   0  0  0  0  0  2  0  0  0  0  0  0
  -27.6060  -27.6930   15.2380 C   0  0  0  0  0  3  0  0  0  0  0  0
  -29.0240  -27.1430   15.5010 C   0  0  0  0  0  2  0  0  0  0  0  0
  -29.9120  -28.2730   15.8350 N   0  0  0  0  0  0  0  0  0  0  0  0
  -30.8710  -29.6980   17.3330 O   0  0  0  0  0  0  0  0  0  0  0  0
  -30.1870  -27.6780   18.0240 N   0  0  0  0  0  0  0  0  0  0  0  0
  -29.7540  -26.8060   17.7550 H   0  0  0  0  0  0  0  0  0  0  0  0
  -25.7020  -26.0090   15.6610 C   0  0  0  0  0  0  0  0  0  0  0  0
  -25.0590  -25.1290   14.8320 C   0  0  0  0  0  0  0  0  0  0  0  0
  -25.6800  -25.2650   13.5540 C   0  0  0  0  0  0  0  0  0  0  0  0
  -26.6710  -26.6260   14.8830 N   0  0  0  0  0  0  0  0  0  0  0  0
  -26.6850  -26.1290   13.6200 N   0  0  0  0  0  0  0  0  0  0  0  0
  -25.3420  -24.6630   12.2560 C   0  0  0  0  0  0  0  0  0  0  0  0
  -26.3110  -23.9910   11.4800 C   0  0  0  0  0  3  0  0  0  0  0  0
  -25.9590  -23.4040   10.2450 C   0  0  0  0  0  3  0  0  0  0  0  0
  -24.6260  -23.4830    9.7770 C   0  0  0  0  0  0  0  0  0  0  0  0
  -23.6710  -24.1750   10.5430 C   0  0  0  0  0  3  0  0  0  0  0  0
  -24.0240  -24.7620   11.7700 C   0  0  0  0  0  3  0  0  0  0  0  0
  -24.1980  -22.9680    8.5790 O   0  0  0  0  0  0  0  0  0  0  0  0
  -24.8370  -21.9110    7.9810 C   0  0  0  0  0  0  0  0  0  0  0  0
  -25.0080  -20.6740    8.6400 C   0  0  0  0  0  3  0  0  0  0  0  0
  -25.6080  -19.5930    7.9630 C   0  0  0  0  0  3  0  0  0  0  0  0
  -26.0270  -19.7420    6.6280 C   0  0  0  0  0  0  0  0  0  0  0  0
  -25.8500  -20.9700    5.9680 C   0  0  0  0  0  3  0  0  0  0  0  0
  -25.2530  -22.0510    6.6420 C   0  0  0  0  0  0  0  0  0  0  0  0
  -25.0660  -23.2260    5.9950 F   0  0  0  0  0  0  0  0  0  0  0  0
  -26.5960  -18.7020    5.9750 F   0  0  0  0  0  0  0  0  0  0  0  0
  -23.8710  -24.2770   15.1770 C   0  0  0  0  0  0  0  0  0  0  0  0
  -23.7530  -23.1080   14.5580 N   0  0  0  0  0  0  0  0  0  0  0  0
  -23.0620  -24.6250   16.0370 O   0  0  0  0  0  0  0  0  0  0  0  0
  -24.4290  -22.8140   13.8680 H   0  0  0  0  0  0  0  0  0  0  0  0
  -22.9760  -22.5000   14.7740 H   0  0  0  0  0  0  0  0  0  0  0  0
  -25.5370  -26.3500   17.0000 N   0  0  0  0  0  0  0  0  0  0  0  0
  -24.8030  -25.9550   17.5790 H   0  0  0  0  0  0  0  0  0  0  0  0
  -26.0830  -27.0550   17.4810 H   0  0  0  0  0  0  0  0  0  0  0  0
  1  2  1  0
  3  2  1  0
  4  5  1  0
  5  3  1  0
  5  7  1  0
  6  4  2  0
  8  4  1  0
  9 10  1  0
  9  8  1  0
 10 11  1  0
 11 13  1  0
 12 23  2  0
 13 18  1  0
 14 24  1  0
 14 22  1  0
 15 17  1  0
 15 21  1  0
 16 22  1  0
 17 16  1  0
 18 17  2  0
 19 13  2  0
 19 20  1  0
 20 15  2  0
 21 14  1  0
 22 12  1  0
 24 25  1  0
 25 27  1  0
 26 24  2  0
 28 37  1  0
 29 25  1  0
 29 33  1  0
 30 31  1  0
 30 29  1  0
 31 32  1  0
 32 28  1  0
 33 28  2  0
 33 34  1  0
 34 35  2  0
 35 36  1  0
 37 36  2  0
 38 12  1  0
 38 48  1  0
 38 39  1  0
 39 40  1  0
 39 42  1  0
 40 44  1  0
 41 40  2  0
 44 43  1  0
 44 46  1  0
 46 45  1  0
 46 47  1  0
 48 51  1  1
 48 49  1  0
 50 48  1  0
 52  1  1  0
 53 52  1  0
 54 56  2  0
 54 55  1  0
 55 53  1  0
 57 55  1  0
 58 54  1  0
 59 58  1  0
 60 59  1  0
 61 60  1  0
 62 61  1  0
 63 70  2  0
 63 71  1  0
 64 69  1  0
 65 64  1  0
 66 65  1  0
 67 66  1  0
 67 68  1  0
 68 69  1  0
 69 63  1  0
 71 62  1  0
 72 71  1  0
 73 98  1  0
 74 93  1  0
 74 73  2  0
 75 77  2  0
 75 74  1  0
 76 67  1  0
 76 73  1  0
 77 76  1  0
 78 75  1  0
 79 78  2  0
 80 79  1  0
 81 80  2  0
 81 82  1  0
 82 83  2  0
 83 78  1  0
 84 81  1  0
 85 84  1  0
 85 86  1  0
 87 86  2  0
 88 87  1  0
 89 88  2  0
 89 90  1  0
 90 85  2  0
 91 90  1  0
 92 88  1  0
 93 95  2  0
 94 97  1  0
 94 93  1  0
 96 94  1  0
 98100  1  0
 98 99  1  0
M  ISO  4  10 101  11 101  63 100  71 100
M  END
>  <TORSDO>  (15) 
F 30

>  <SCORE>  (15) 
16.962

>  <name>  (15) 
17

>  <ligand_id>  (15) 
17

>  <original_smiles>  (15) 
[H]c1c([H])c([H])c2c(c1[H])C([H])([H])C([H])([H])C([H])([H])C2([H])N([H])C(=O)C1([H])N(C(=O)C([H])(N([H])C(=O)C([H])(N([H])C([H])([H])[H])C([H])([H])[H])C(C([H])([H])[H])(C([H])([H])[H])C([H])([H])[H])C([H])([H])c2c([H])c(OC([H])([H])C([H])([H])C([H])([H])C(=O)N([H])C([H])([H])C([H])([H])C([H])([H])C([H])([H])C([H])([H])N([H])C(=O)C([H])([H])C([H])([H])C([H])([H])C([H])([H])C([H])([H])N([H])C(=O)N3C([H])([H])C([H])([H])C([H])([H])C([H])(n4nc(-c5c([H])c([H])c(Oc6c([H])c([H])c(F)c([H])c6F)c([H])c5[H])c(C(=O)N([H])[H])c4N([H])[H])C3([H])[H])c([H])c([H])c2C1([H])[H]

>  <smiles>  (15) 
[H]c1c([H])c([H])c2c(c1[H])C([H])([H])C([H])([H])C([H])([H])C2([H])N([H])C(=O)C1([H])N(C(=O)C([H])(N([H])C(=O)C([H])(N([H])C([H])([H])[H])C([H])([H])[H])C(C([H])([H])[H])(C([H])([H])[H])C([H])([H])[H])C([H])([H])c2c([H])c(OC([H])([H])C([H])([H])C([H])([H])C(=O)N([H])C([H])([H])C([H])([H])C([H])([H])C([H])([H])C([H])([H])N([H])C(=O)C([H])([H])C([H])([H])C([H])([H])C([H])([H])C([H])([H])N([H])C(=O)N3C([H])([H])C([H])([H])C([H])([H])C([H])(n4nc(-c5c([H])c([H])c(Oc6c([H])c([H])c(F)c([H])c6F)c([H])c5[H])c(C(=O)N([H])[H])c4N([H])[H])C3([H])[H])c([H])c([H])c2C1([H])[H]

$$$$
18:0:0
     RDKit          3D

102109  0  0  1  0  0  0  0  0999 V2000
  -23.8110  -22.5740   16.4640 C   0  0  0  0  0  0  0  0  0  0  0  0
  -24.4600  -21.4130   16.5680 N   0  0  0  0  0  0  0  0  0  0  0  0
  -23.3330  -23.1650   17.4340 O   0  0  0  0  0  0  0  0  0  0  0  0
  -24.8530  -21.0170   15.7250 H   0  0  0  0  0  0  0  0  0  0  0  0
  -24.8020  -20.7250   17.8110 C   0  0  0  0  0  2  0  0  0  0  0  0
  -26.3200  -20.5720   17.9650 C   0  0  0  0  0  0  0  0  0  0  0  0
  -26.7310  -19.6420   18.8310 N   0  0  0  0  0  0  0  0  0  0  0  0
  -27.1020  -21.2660   17.3100 O   0  0  0  0  0  0  0  0  0  0  0  0
  -26.0140  -19.1300   19.3280 H   0  0  0  0  0  0  0  0  0  0  0  0
  -28.1150  -19.2510   19.0710 C   0  0  0  0  0  2  0  0  0  0  0  0
  -28.1570  -18.1690   20.1600 C   0  0  0  0  0  2  0  0  0  0  0  0
  -29.4960  -17.4220   20.2550 C   0  0  0  0  0  2  0  0  0  0  0  0
  -29.4430  -16.3260   21.3390 C   0  0  0  0  0  2  0  0  0  0  0  0
  -30.9890  -14.6530   20.3380 C   0  0  0  0  0  0  0  0  0  0  0  0
  -30.5820  -12.6010   19.0310 C   0  0  0  0  0  2  0  0  0  0  0  0
  -29.5920  -12.8660   17.8820 C   0  0  0  0  0  2  0  0  0  0  0  0
  -28.1370  -12.7100   18.3620 C   0  0  0  0  0  2  0  0  0  0  0  0
  -27.8610  -13.4910   19.6740 C   0  0  0  0  0  3  0  0  0  0  0  0
  -28.9560  -13.1830   20.7240 C   0  0  0  0  0  2  0  0  0  0  0  0
  -30.2610  -13.5210   20.1310 N   0  0  0  0  0  0  0  0  0  0  0  0
  -32.0260  -14.9070   19.7230 O   0  0  0  0  0  0  0  0  0  0  0  0
  -30.6210  -15.4540   21.3470 N   0  0  0  0  0  0  0  0  0  0  0  0
  -31.4220  -15.9290   21.7400 H   0  0  0  0  0  0  0  0  0  0  0  0
  -25.4860  -14.0970   20.4670 C   0  0  0  0  0  0  0  0  0  0  0  0
  -24.4270  -13.3220   20.8540 C   0  0  0  0  0  0  0  0  0  0  0  0
  -24.8800  -11.9700   20.7760 C   0  0  0  0  0  0  0  0  0  0  0  0
  -26.5220  -13.2170   20.1880 N   0  0  0  0  0  0  0  0  0  0  0  0
  -26.1600  -11.9310   20.4250 N   0  0  0  0  0  0  0  0  0  0  0  0
  -24.1560  -10.7080   20.9590 C   0  0  0  0  0  0  0  0  0  0  0  0
  -24.5670   -9.7540   21.9170 C   0  0  0  0  0  3  0  0  0  0  0  0
  -23.8440   -8.5540   22.0870 C   0  0  0  0  0  3  0  0  0  0  0  0
  -22.6970   -8.2990   21.2980 C   0  0  0  0  0  0  0  0  0  0  0  0
  -22.3070   -9.2410   20.3300 C   0  0  0  0  0  3  0  0  0  0  0  0
  -23.0300  -10.4330   20.1590 C   0  0  0  0  0  3  0  0  0  0  0  0
  -21.9470   -7.1510   21.3770 O   0  0  0  0  0  0  0  0  0  0  0  0
  -21.7980   -6.4690   22.5570 C   0  0  0  0  0  0  0  0  0  0  0  0
  -21.2620   -7.0820   23.7100 C   0  0  0  0  0  3  0  0  0  0  0  0
  -21.0610   -6.3250   24.8810 C   0  0  0  0  0  3  0  0  0  0  0  0
  -21.3860   -4.9560   24.9000 C   0  0  0  0  0  0  0  0  0  0  0  0
  -21.9140   -4.3420   23.7510 C   0  0  0  0  0  3  0  0  0  0  0  0
  -22.1180   -5.0960   22.5810 C   0  0  0  0  0  0  0  0  0  0  0  0
  -22.6080   -4.4950   21.4710 F   0  0  0  0  0  0  0  0  0  0  0  0
  -21.1850   -4.2260   26.0210 F   0  0  0  0  0  0  0  0  0  0  0  0
  -23.0420  -13.7990   21.1820 C   0  0  0  0  0  0  0  0  0  0  0  0
  -22.3430  -13.0910   22.0620 N   0  0  0  0  0  0  0  0  0  0  0  0
  -22.5900  -14.8330   20.6940 O   0  0  0  0  0  0  0  0  0  0  0  0
  -22.7210  -12.2520   22.4780 H   0  0  0  0  0  0  0  0  0  0  0  0
  -21.4150  -13.3920   22.3250 H   0  0  0  0  0  0  0  0  0  0  0  0
  -25.6430  -15.4700   20.3120 N   0  0  0  0  0  0  0  0  0  0  0  0
  -24.8720  -16.1120   20.4540 H   0  0  0  0  0  0  0  0  0  0  0  0
  -26.4750  -15.9110   19.9480 H   0  0  0  0  0  0  0  0  0  0  0  0
  -23.6900  -23.1680   15.0580 C   0  0  0  0  0  2  0  0  0  0  0  0
  -24.3130  -24.5740   14.9340 C   0  0  0  0  0  2  0  0  0  0  0  0
  -25.8300  -24.5950   15.1890 C   0  0  0  0  0  2  0  0  0  0  0  0
  -26.4430  -25.9980   15.0430 C   0  0  0  0  0  2  0  0  0  0  0  0
  -27.9280  -26.0510   15.4350 C   0  0  0  0  0  2  0  0  0  0  0  0
  -28.6690  -26.4180   17.7940 C   0  0  0  0  0  0  0  0  0  0  0  0
  -28.0980  -25.6800   16.8380 N   0  0  0  0  0  0  0  0  0  0  0  0
  -29.2240  -27.4970   17.5650 O   0  0  0  0  0  0  0  0  0  0  0  0
  -27.6930  -24.7980   17.1240 H   0  0  0  0  0  0  0  0  0  0  0  0
  -28.5830  -25.8680   19.2280 C   0  0  0  0  0  2  0  0  0  0  0  0
  -28.3770  -26.9290   20.1650 O   0  0  0  0  0  0  0  0  0  0  0  0
  -24.6250  -31.9860   23.4330 C   0  0  0  0  0  0  0  0  0  0  0  0
  -27.1710  -27.5990   20.2000 C   0  0  0  0  0  0  0  0  0  0  0  0
  -23.3690  -30.6250   21.7930 C   0  0  0  0  0  3  0  0  0  0  0  0
  -24.7770  -29.1010   20.3100 C   0  0  0  0  0  0  0  0  0  0  0  0
  -25.8900  -30.9670   21.5470 C   0  0  0  0  0  2  0  0  0  0  0  0
  -25.9470  -29.6070   20.8850 C   0  0  0  0  0  0  0  0  0  0  0  0
  -27.1410  -28.8560   20.8400 C   0  0  0  0  0  3  0  0  0  0  0  0
  -25.9750  -27.0970   19.6290 C   0  0  0  0  0  3  0  0  0  0  0  0
  -24.7820  -27.8410   19.6880 C   0  0  0  0  0  3  0  0  0  0  0  0
  -23.5430  -29.9690   20.3960 C   0  0  0  0  0  2  0  0  0  0  0  0
  -24.6470  -31.2050   22.3160 N   0  0  0  0  0  0  0  0  0  0  0  0
  -23.5590  -32.2590   24.0020 O   0  0  0  0  0  0  0  0  0  0  0  0
  -22.7320  -29.5900   22.7480 C   0  0  0  0  0  0  0  0  0  0  0  0
  -21.4170  -29.3660   22.5930 N   0  0  0  0  0  0  0  0  0  0  0  0
  -23.4170  -28.9930   23.5820 O   0  0  0  0  0  0  0  0  0  0  0  0
  -20.9240  -29.9030   21.8930 H   0  0  0  0  0  0  0  0  0  0  0  0
  -18.0970  -27.9890   22.9400 C   0  0  0  0  0  0  0  0  0  0  0  0
  -20.6120  -28.4110   23.3520 C   0  0  0  0  0  3  0  0  0  0  0  0
  -20.8330  -26.9680   22.8440 C   0  0  0  0  0  2  0  0  0  0  0  0
  -19.8170  -26.5400   21.7800 C   0  0  0  0  0  2  0  0  0  0  0  0
  -18.3920  -26.6280   22.3360 C   0  0  0  0  0  2  0  0  0  0  0  0
  -19.1410  -28.8340   23.4040 C   0  0  0  0  0  0  0  0  0  0  0  0
  -18.8150  -30.1040   23.9260 C   0  0  0  0  0  3  0  0  0  0  0  0
  -17.4760  -30.5330   23.9920 C   0  0  0  0  0  3  0  0  0  0  0  0
  -16.4450  -29.6880   23.5470 C   0  0  0  0  0  3  0  0  0  0  0  0
  -16.7550  -28.4190   23.0270 C   0  0  0  0  0  3  0  0  0  0  0  0
  -25.9300  -32.5930   24.0350 C   0  0  0  0  0  3  0  0  0  0  0  0
  -25.6700  -34.0110   24.3160 N   0  0  0  0  0  0  0  0  0  0  0  0
  -26.0380  -35.0230   23.5200 C   0  0  0  0  0  0  0  0  0  0  0  0
  -26.7040  -34.8620   22.4930 O   0  0  0  0  0  0  0  0  0  0  0  0
  -25.0800  -34.2140   25.1090 H   0  0  0  0  0  0  0  0  0  0  0  0
  -24.3630  -36.8530   23.1050 C   0  0  0  0  0  1  0  0  0  0  0  0
  -25.5950  -36.4420   23.9270 C   0  0  0  0  0  3  0  0  0  0  0  0
  -27.7620  -37.2870   24.7140 C   0  0  0  0  0  1  0  0  0  0  0  0
  -26.6590  -37.4570   23.7710 N   0  0  0  0  0  0  0  0  0  0  0  0
  -26.2830  -38.3940   23.8920 H   0  0  0  0  0  0  0  0  0  0  0  0
  -26.4250  -31.8460   25.3350 C   0  0  1  0  0  0  0  0  0  0  0  0
  -25.3240  -31.6740   26.4070 C   0  0  0  0  0  1  0  0  0  0  0  0
  -26.9650  -30.4420   24.9840 C   0  0  0  0  0  1  0  0  0  0  0  0
  -27.6000  -32.6240   25.9730 C   0  0  0  0  0  1  0  0  0  0  0  0
  1  2  1  0
  1  3  2  0
  2  5  1  0
  4  2  1  0
  5  6  1  0
  6  7  1  0
  7 10  1  0
  7  9  1  0
  8  6  2  0
 10 11  1  0
 11 12  1  0
 12 13  1  0
 13 22  1  0
 14 22  1  0
 15 20  1  0
 16 17  1  0
 16 15  1  0
 18 17  1  0
 18 27  1  0
 18 19  1  0
 20 14  1  0
 20 19  1  0
 21 14  2  0
 22 23  1  0
 24 25  2  0
 25 44  1  0
 26 25  1  0
 26 29  1  0
 27 28  1  0
 27 24  1  0
 28 26  2  0
 29 30  1  0
 30 31  2  0
 32 35  1  0
 32 31  1  0
 33 32  2  0
 34 33  1  0
 34 29  2  0
 35 36  1  0
 36 41  2  0
 36 37  1  0
 37 38  2  0
 38 39  1  0
 39 43  1  0
 40 39  2  0
 41 40  1  0
 42 41  1  0
 44 45  1  0
 45 48  1  0
 45 47  1  0
 46 44  2  0
 49 50  1  0
 49 24  1  0
 51 49  1  0
 52  1  1  0
 53 52  1  0
 53 54  1  0
 55 54  1  0
 55 56  1  0
 56 58  1  0
 57 61  1  0
 58 60  1  0
 58 57  1  0
 59 57  2  0
 61 62  1  0
 62 64  1  0
 63 74  2  0
 64 69  1  0
 65 73  1  0
 65 75  1  0
 66 72  1  0
 66 68  1  0
 67 73  1  0
 68 67  1  0
 69 68  2  0
 70 71  1  0
 70 64  2  0
 71 66  2  0
 72 65  1  0
 73 63  1  0
 75 77  2  0
 76 75  1  0
 78 76  1  0
 79 88  2  0
 79 84  1  0
 80 76  1  0
 80 84  1  0
 81 80  1  0
 82 83  1  0
 82 81  1  0
 83 79  1  0
 84 85  2  0
 85 86  1  0
 87 86  2  0
 88 87  1  0
 89 63  1  0
 89 90  1  0
 89 99  1  0
 90 93  1  0
 91 95  1  0
 91 90  1  0
 92 91  2  0
 95 94  1  0
 97 98  1  0
 97 95  1  0
 97 96  1  0
 99102  1  1
 99100  1  0
101 99  1  0
M  ISO  4  14 100  22 100  61 101  62 101
M  END
>  <TORSDO>  (16) 
F 29

>  <SCORE>  (16) 
-10.775

>  <name>  (16) 
18

>  <ligand_id>  (16) 
18

>  <original_smiles>  (16) 
[H]c1c([H])c([H])c2c(c1[H])C([H])([H])C([H])([H])C([H])([H])C2([H])N([H])C(=O)C1([H])N(C(=O)C([H])(N([H])C(=O)C([H])(N([H])C([H])([H])[H])C([H])([H])[H])C(C([H])([H])[H])(C([H])([H])[H])C([H])([H])[H])C([H])([H])c2c([H])c(OC([H])([H])C(=O)N([H])C([H])([H])C([H])([H])C([H])([H])C([H])([H])C([H])([H])C(=O)N([H])C([H])([H])C(=O)N([H])C([H])([H])C([H])([H])C([H])([H])C([H])([H])N([H])C(=O)N3C([H])([H])C([H])([H])C([H])([H])C([H])(n4nc(-c5c([H])c([H])c(Oc6c([H])c([H])c(F)c([H])c6F)c([H])c5[H])c(C(=O)N([H])[H])c4N([H])[H])C3([H])[H])c([H])c([H])c2C1([H])[H]

>  <smiles>  (16) 
[H]c1c([H])c([H])c2c(c1[H])C([H])([H])C([H])([H])C([H])([H])C2([H])N([H])C(=O)C1([H])N(C(=O)C([H])(N([H])C(=O)C([H])(N([H])C([H])([H])[H])C([H])([H])[H])C(C([H])([H])[H])(C([H])([H])[H])C([H])([H])[H])C([H])([H])c2c([H])c(OC([H])([H])C(=O)N([H])C([H])([H])C([H])([H])C([H])([H])C([H])([H])C([H])([H])C(=O)N([H])C([H])([H])C(=O)N([H])C([H])([H])C([H])([H])C([H])([H])C([H])([H])N([H])C(=O)N3C([H])([H])C([H])([H])C([H])([H])C([H])(n4nc(-c5c([H])c([H])c(Oc6c([H])c([H])c(F)c([H])c6F)c([H])c5[H])c(C(=O)N([H])[H])c4N([H])[H])C3([H])[H])c([H])c([H])c2C1([H])[H]

$$$$
19:0:0
     RDKit          3D

104111  0  0  1  0  0  0  0  0999 V2000
  -29.9160  -19.5100   17.5930 C   0  0  0  0  0  0  0  0  0  0  0  0
  -30.8880  -19.4450   16.6750 N   0  0  0  0  0  0  0  0  0  0  0  0
  -29.9810  -18.8070   18.6020 O   0  0  0  0  0  0  0  0  0  0  0  0
  -31.6320  -18.7950   16.8880 H   0  0  0  0  0  0  0  0  0  0  0  0
  -31.0390  -20.1710   15.4150 C   0  0  0  0  0  2  0  0  0  0  0  0
  -31.7290  -21.5470   15.5550 C   0  0  0  0  0  2  0  0  0  0  0  0
  -33.0320  -21.5560   16.3820 C   0  0  0  0  0  2  0  0  0  0  0  0
  -32.8210  -22.1000   17.8040 C   0  0  0  0  0  2  0  0  0  0  0  0
  -33.9790  -21.8300   18.7810 C   0  0  0  0  0  2  0  0  0  0  0  0
  -33.9490  -20.4290   19.4190 C   0  0  0  0  0  2  0  0  0  0  0  0
  -32.7490  -20.1960   20.3580 C   0  0  0  0  0  2  0  0  0  0  0  0
  -32.7820  -18.8260   21.0480 C   0  0  0  0  0  2  0  0  0  0  0  0
  -30.8720  -17.5130   22.0000 C   0  0  0  0  0  0  0  0  0  0  0  0
  -31.5810  -18.6420   21.8630 N   0  0  0  0  0  0  0  0  0  0  0  0
  -29.8170  -17.4990   22.6380 O   0  0  0  0  0  0  0  0  0  0  0  0
  -31.2270  -19.4580   22.3400 H   0  0  0  0  0  0  0  0  0  0  0  0
  -31.4150  -16.2400   21.3440 C   0  0  0  0  0  2  0  0  0  0  0  0
  -30.9670  -14.1540   20.1680 C   0  0  0  0  0  0  0  0  0  0  0  0
  -30.4220  -12.1000   18.9340 C   0  0  0  0  0  2  0  0  0  0  0  0
  -29.4470  -12.3840   17.7770 C   0  0  0  0  0  2  0  0  0  0  0  0
  -27.9880  -12.3270   18.2700 C   0  0  0  0  0  2  0  0  0  0  0  0
  -27.7550  -13.1480   19.5660 C   0  0  0  0  0  3  0  0  0  0  0  0
  -28.8450  -12.8560   20.6260 C   0  0  0  0  0  2  0  0  0  0  0  0
  -30.1650  -13.0720   20.0060 N   0  0  0  0  0  0  0  0  0  0  0  0
  -31.9920  -14.3360   19.5060 O   0  0  0  0  0  0  0  0  0  0  0  0
  -30.6060  -15.0490   21.0900 N   0  0  0  0  0  0  0  0  0  0  0  0
  -29.7480  -14.9320   21.6080 H   0  0  0  0  0  0  0  0  0  0  0  0
  -25.4090  -13.8500   20.3590 C   0  0  0  0  0  0  0  0  0  0  0  0
  -24.3260  -13.1230   20.7680 C   0  0  0  0  0  0  0  0  0  0  0  0
  -24.7300  -11.7520   20.7230 C   0  0  0  0  0  0  0  0  0  0  0  0
  -26.4110  -12.9280   20.0940 N   0  0  0  0  0  0  0  0  0  0  0  0
  -26.0050  -11.6610   20.3710 N   0  0  0  0  0  0  0  0  0  0  0  0
  -23.9610  -10.5210   20.9460 C   0  0  0  0  0  0  0  0  0  0  0  0
  -24.4000   -9.5320   21.8540 C   0  0  0  0  0  3  0  0  0  0  0  0
  -23.6340   -8.3650   22.0640 C   0  0  0  0  0  3  0  0  0  0  0  0
  -22.4170   -8.1800   21.3660 C   0  0  0  0  0  0  0  0  0  0  0  0
  -21.9990   -9.1550   20.4440 C   0  0  0  0  0  3  0  0  0  0  0  0
  -22.7630  -10.3140   20.2330 C   0  0  0  0  0  3  0  0  0  0  0  0
  -21.6210   -7.0660   21.4880 O   0  0  0  0  0  0  0  0  0  0  0  0
  -21.6070   -6.3130   22.6340 C   0  0  0  0  0  0  0  0  0  0  0  0
  -21.3010   -6.8760   23.8920 C   0  0  0  0  0  3  0  0  0  0  0  0
  -21.2290   -6.0520   25.0330 C   0  0  0  0  0  3  0  0  0  0  0  0
  -21.4520   -4.6670   24.9160 C   0  0  0  0  0  0  0  0  0  0  0  0
  -21.7510   -4.1040   23.6640 C   0  0  0  0  0  3  0  0  0  0  0  0
  -21.8260   -4.9250   22.5250 C   0  0  0  0  0  0  0  0  0  0  0  0
  -22.0920   -4.3740   21.3160 F   0  0  0  0  0  0  0  0  0  0  0  0
  -21.3760   -3.8740   26.0120 F   0  0  0  0  0  0  0  0  0  0  0  0
  -22.9590  -13.6550   21.0860 C   0  0  0  0  0  0  0  0  0  0  0  0
  -22.2380  -12.9980   21.9890 N   0  0  0  0  0  0  0  0  0  0  0  0
  -22.5390  -14.6930   20.5730 O   0  0  0  0  0  0  0  0  0  0  0  0
  -22.5940  -12.1610   22.4290 H   0  0  0  0  0  0  0  0  0  0  0  0
  -21.3200  -13.3350   22.2410 H   0  0  0  0  0  0  0  0  0  0  0  0
  -25.6200  -15.2120   20.1690 N   0  0  0  0  0  0  0  0  0  0  0  0
  -24.8870  -15.8970   20.3180 H   0  0  0  0  0  0  0  0  0  0  0  0
  -26.4760  -15.6160   19.8120 H   0  0  0  0  0  0  0  0  0  0  0  0
  -28.7220  -20.4590   17.4340 C   0  0  0  0  0  2  0  0  0  0  0  0
  -29.0600  -22.4840   18.7980 C   0  0  0  0  0  0  0  0  0  0  0  0
  -28.6190  -21.2310   18.6680 N   0  0  0  0  0  0  0  0  0  0  0  0
  -29.3010  -23.2030   17.8280 O   0  0  0  0  0  0  0  0  0  0  0  0
  -28.4530  -20.6920   19.5080 H   0  0  0  0  0  0  0  0  0  0  0  0
  -29.3040  -22.9810   20.2260 C   0  0  0  0  0  2  0  0  0  0  0  0
  -29.5430  -24.5030   20.3270 C   0  0  0  0  0  2  0  0  0  0  0  0
  -28.2950  -25.2960   19.9440 C   0  0  0  0  0  2  0  0  0  0  0  0
  -28.4430  -26.6970   20.1570 O   0  0  0  0  0  0  0  0  0  0  0  0
  -24.6160  -31.8400   23.2020 C   0  0  0  0  0  0  0  0  0  0  0  0
  -27.2690  -27.4200   20.1240 C   0  0  0  0  0  0  0  0  0  0  0  0
  -23.4170  -30.4460   21.5510 C   0  0  0  0  0  3  0  0  0  0  0  0
  -24.8760  -28.9240   20.1250 C   0  0  0  0  0  0  0  0  0  0  0  0
  -25.9440  -30.8080   21.3680 C   0  0  0  0  0  2  0  0  0  0  0  0
  -26.0330  -29.4430   20.7220 C   0  0  0  0  0  0  0  0  0  0  0  0
  -27.2320  -28.7000   20.7160 C   0  0  0  0  0  3  0  0  0  0  0  0
  -26.0890  -26.9160   19.5180 C   0  0  0  0  0  3  0  0  0  0  0  0
  -24.9020  -27.6620   19.5170 C   0  0  0  0  0  3  0  0  0  0  0  0
  -23.6300  -29.7770   20.1690 C   0  0  0  0  0  2  0  0  0  0  0  0
  -24.6780  -31.0430   22.0980 N   0  0  0  0  0  0  0  0  0  0  0  0
  -23.5320  -32.1120   23.7340 O   0  0  0  0  0  0  0  0  0  0  0  0
  -22.7610  -29.4180   22.5020 C   0  0  0  0  0  0  0  0  0  0  0  0
  -21.4380  -29.2350   22.3630 N   0  0  0  0  0  0  0  0  0  0  0  0
  -23.4380  -28.7850   23.3160 O   0  0  0  0  0  0  0  0  0  0  0  0
  -20.9570  -29.7940   21.6750 H   0  0  0  0  0  0  0  0  0  0  0  0
  -18.0590  -28.0500   22.8260 C   0  0  0  0  0  0  0  0  0  0  0  0
  -20.6130  -28.3010   23.1270 C   0  0  0  0  0  3  0  0  0  0  0  0
  -20.7200  -26.8700   22.5530 C   0  0  0  0  0  2  0  0  0  0  0  0
  -19.6270  -26.5490   21.5280 C   0  0  0  0  0  2  0  0  0  0  0  0
  -18.2390  -26.6980   22.1550 C   0  0  0  0  0  2  0  0  0  0  0  0
  -19.1730  -28.8100   23.2680 C   0  0  0  0  0  0  0  0  0  0  0  0
  -18.9500  -30.0760   23.8530 C   0  0  0  0  0  3  0  0  0  0  0  0
  -17.6450  -30.5810   24.0010 C   0  0  0  0  0  3  0  0  0  0  0  0
  -16.5430  -29.8180   23.5760 C   0  0  0  0  0  3  0  0  0  0  0  0
  -16.7510  -28.5540   22.9960 C   0  0  0  0  0  3  0  0  0  0  0  0
  -25.9010  -32.4670   23.8280 C   0  0  0  0  0  3  0  0  0  0  0  0
  -26.4210  -31.6810   25.0940 C   0  0  1  0  0  0  0  0  0  0  0  0
  -25.3290  -31.4310   26.1600 C   0  0  0  0  0  1  0  0  0  0  0  0
  -27.0040  -30.3090   24.6830 C   0  0  0  0  0  1  0  0  0  0  0  0
  -27.5680  -32.4700   25.7660 C   0  0  0  0  0  1  0  0  0  0  0  0
  -25.5860  -33.8610   24.1710 N   0  0  0  0  0  0  0  0  0  0  0  0
  -25.9180  -34.9200   23.4210 C   0  0  0  0  0  0  0  0  0  0  0  0
  -26.5900  -34.8260   22.3910 O   0  0  0  0  0  0  0  0  0  0  0  0
  -24.9910  -34.0090   24.9730 H   0  0  0  0  0  0  0  0  0  0  0  0
  -24.1820  -36.7050   23.0770 C   0  0  0  0  0  1  0  0  0  0  0  0
  -25.4250  -36.3030   23.8870 C   0  0  0  0  0  3  0  0  0  0  0  0
  -27.5580  -37.1860   24.7230 C   0  0  0  0  0  1  0  0  0  0  0  0
  -26.4540  -37.3590   23.7820 N   0  0  0  0  0  0  0  0  0  0  0  0
  -26.0470  -38.2760   23.9390 H   0  0  0  0  0  0  0  0  0  0  0  0
  1  3  2  0
  2  4  1  0
  2  1  1  0
  5  6  1  0
  5  2  1  0
  6  7  1  0
  7  8  1  0
  8  9  1  0
  9 10  1  0
 10 11  1  0
 11 12  1  0
 12 14  1  0
 13 15  2  0
 14 13  1  0
 14 16  1  0
 17 13  1  0
 18 26  1  0
 19 24  1  0
 20 21  1  0
 20 19  1  0
 22 21  1  0
 22 31  1  0
 22 23  1  0
 24 18  1  0
 24 23  1  0
 25 18  2  0
 26 17  1  0
 26 27  1  0
 28 29  2  0
 29 48  1  0
 30 29  1  0
 30 33  1  0
 31 28  1  0
 31 32  1  0
 32 30  2  0
 33 34  1  0
 34 35  2  0
 36 39  1  0
 36 35  1  0
 37 36  2  0
 38 37  1  0
 38 33  2  0
 39 40  1  0
 40 41  1  0
 41 42  2  0
 43 42  1  0
 43 47  1  0
 44 43  2  0
 45 40  2  0
 45 44  1  0
 46 45  1  0
 48 49  1  0
 49 52  1  0
 49 51  1  0
 50 48  2  0
 53 54  1  0
 53 28  1  0
 55 53  1  0
 56  1  1  0
 56 58  1  0
 57 61  1  0
 58 57  1  0
 58 60  1  0
 59 57  2  0
 61 62  1  0
 63 64  1  0
 63 62  1  0
 65 76  2  0
 66 64  1  0
 66 71  1  0
 67 75  1  0
 67 77  1  0
 68 74  1  0
 68 70  1  0
 69 75  1  0
 70 69  1  0
 71 70  2  0
 72 66  2  0
 73 72  1  0
 73 68  2  0
 74 67  1  0
 75 65  1  0
 77 79  2  0
 78 77  1  0
 80 78  1  0
 81 90  2  0
 81 86  1  0
 82 78  1  0
 82 86  1  0
 83 82  1  0
 84 85  1  0
 84 83  1  0
 85 81  1  0
 86 87  2  0
 87 88  1  0
 89 88  2  0
 90 89  1  0
 91 65  1  0
 91 96  1  0
 91 92  1  0
 92 95  1  1
 92 93  1  0
 94 92  1  0
 96 99  1  0
 97101  1  0
 97 96  1  0
 98 97  2  0
101100  1  0
103101  1  0
103104  1  0
103102  1  0
M  ISO  4  18 100  26 100  63 101  64 101
M  END
>  <TORSDO>  (17) 
F 31

>  <SCORE>  (17) 
-10.556

>  <name>  (17) 
19

>  <ligand_id>  (17) 
19

>  <original_smiles>  (17) 
[H]c1c([H])c([H])c2c(c1[H])C([H])([H])C([H])([H])C([H])([H])C2([H])N([H])C(=O)C1([H])N(C(=O)C([H])(N([H])C(=O)C([H])(N([H])C([H])([H])[H])C([H])([H])[H])C(C([H])([H])[H])(C([H])([H])[H])C([H])([H])[H])C([H])([H])c2c([H])c(OC([H])([H])C([H])([H])C([H])([H])C(=O)N([H])C([H])([H])C(=O)N([H])C([H])([H])C([H])([H])C([H])([H])C([H])([H])C([H])([H])C([H])([H])C([H])([H])C([H])([H])N([H])C(=O)C([H])([H])N([H])C(=O)N3C([H])([H])C([H])([H])C([H])([H])C([H])(n4nc(-c5c([H])c([H])c(Oc6c([H])c([H])c(F)c([H])c6F)c([H])c5[H])c(C(=O)N([H])[H])c4N([H])[H])C3([H])[H])c([H])c([H])c2C1([H])[H]

>  <smiles>  (17) 
[H]c1c([H])c([H])c2c(c1[H])C([H])([H])C([H])([H])C([H])([H])C2([H])N([H])C(=O)C1([H])N(C(=O)C([H])(N([H])C(=O)C([H])(N([H])C([H])([H])[H])C([H])([H])[H])C(C([H])([H])[H])(C([H])([H])[H])C([H])([H])[H])C([H])([H])c2c([H])c(OC([H])([H])C([H])([H])C([H])([H])C(=O)N([H])C([H])([H])C(=O)N([H])C([H])([H])C([H])([H])C([H])([H])C([H])([H])C([H])([H])C([H])([H])C([H])([H])C([H])([H])N([H])C(=O)C([H])([H])N([H])C(=O)N3C([H])([H])C([H])([H])C([H])([H])C([H])(n4nc(-c5c([H])c([H])c(Oc6c([H])c([H])c(F)c([H])c6F)c([H])c5[H])c(C(=O)N([H])[H])c4N([H])[H])C3([H])[H])c([H])c([H])c2C1([H])[H]

$$$$
20:0:0
     RDKit          3D

 96102  0  0  1  0  0  0  0  0999 V2000
  -22.8190  -27.7450   25.0790 C   0  0  0  0  0  1  0  0  0  0  0  0
  -24.0170  -26.3100   24.6140 C   0  0  0  0  0  3  0  0  0  0  0  0
  -24.1820  -24.6220   23.8310 C   0  0  0  0  0  3  0  0  0  0  0  0
  -25.5220  -23.5770   23.5730 N   0  0  0  0  0  4  0  0  0  0  0  0
  -26.1020  -24.0890   22.9270 H   0  0  0  0  0  0  0  0  0  0  0  0
  -26.0230  -23.6030   24.4460 H   0  0  0  0  0  0  0  0  0  0  0  0
  -25.6750  -21.9460   23.0650 C   0  0  0  0  0  3  0  0  0  0  0  0
  -27.1170  -20.8460   22.6030 C   0  0  0  0  0  3  0  0  0  0  0  0
  -27.4090  -19.0460   22.1750 C   0  0  0  0  0  3  0  0  0  0  0  0
  -28.8260  -17.9660   21.6020 C   0  0  0  0  0  3  0  0  0  0  0  0
  -30.0700  -15.2640   20.7750 C   0  0  0  0  0  0  0  0  0  0  0  0
  -30.4110  -12.8860   19.6450 C   0  0  0  0  0  2  0  0  0  0  0  0
  -29.5530  -12.6580   18.3630 C   0  0  0  0  0  2  0  0  0  0  0  0
  -28.0910  -12.3300   18.7190 C   0  0  0  0  0  2  0  0  0  0  0  0
  -27.5870  -13.2420   19.8630 C   0  0  0  0  0  3  0  0  0  0  0  0
  -28.5390  -13.2620   21.0630 C   0  0  0  0  0  2  0  0  0  0  0  0
  -29.7430  -13.8970   20.5680 N   0  0  0  0  0  0  0  0  0  0  0  0
  -31.2480  -15.4870   20.4100 O   0  0  0  0  0  0  0  0  0  0  0  0
  -29.0640  -16.2960   21.2680 N   0  0  0  0  0  0  0  0  0  0  0  0
  -28.2060  -15.8010   21.4700 H   0  0  0  0  0  0  0  0  0  0  0  0
  -25.2210  -13.8160   20.5640 C   0  0  0  0  0  0  0  0  0  0  0  0
  -24.1580  -13.0400   20.9200 C   0  0  0  0  0  0  0  0  0  0  0  0
  -24.6200  -11.6870   20.8710 C   0  0  0  0  0  0  0  0  0  0  0  0
  -26.2500  -12.9320   20.3040 N   0  0  0  0  0  0  0  0  0  0  0  0
  -25.9070  -11.6480   20.5580 N   0  0  0  0  0  0  0  0  0  0  0  0
  -23.8950  -10.4260   21.0420 C   0  0  0  0  0  0  0  0  0  0  0  0
  -24.3560   -9.4200   21.9190 C   0  0  0  0  0  3  0  0  0  0  0  0
  -23.6270   -8.2220   22.0750 C   0  0  0  0  0  3  0  0  0  0  0  0
  -22.4250   -8.0240   21.3540 C   0  0  0  0  0  0  0  0  0  0  0  0
  -21.9850   -9.0200   20.4650 C   0  0  0  0  0  3  0  0  0  0  0  0
  -22.7140  -10.2090   20.3060 C   0  0  0  0  0  3  0  0  0  0  0  0
  -21.6630   -6.8840   21.4240 O   0  0  0  0  0  0  0  0  0  0  0  0
  -21.6850   -6.0710   22.5280 C   0  0  0  0  0  0  0  0  0  0  0  0
  -21.4000   -6.5620   23.8210 C   0  0  0  0  0  3  0  0  0  0  0  0
  -21.3660   -5.6780   24.9180 C   0  0  0  0  0  3  0  0  0  0  0  0
  -21.6050   -4.3050   24.7230 C   0  0  0  0  0  0  0  0  0  0  0  0
  -21.8820   -3.8130   23.4360 C   0  0  0  0  0  3  0  0  0  0  0  0
  -21.9190   -4.6940   22.3410 C   0  0  0  0  0  0  0  0  0  0  0  0
  -22.1660   -4.2130   21.0990 F   0  0  0  0  0  0  0  0  0  0  0  0
  -21.5640   -3.4540   25.7750 F   0  0  0  0  0  0  0  0  0  0  0  0
  -22.7650  -13.5190   21.1920 C   0  0  0  0  0  0  0  0  0  0  0  0
  -22.0330  -12.8190   22.0490 N   0  0  0  0  0  0  0  0  0  0  0  0
  -22.3360  -14.5530   20.6770 O   0  0  0  0  0  0  0  0  0  0  0  0
  -22.3960  -11.9840   22.4850 H   0  0  0  0  0  0  0  0  0  0  0  0
  -21.0960  -13.1210   22.2730 H   0  0  0  0  0  0  0  0  0  0  0  0
  -25.3960  -15.1910   20.4140 N   0  0  0  0  0  0  0  0  0  0  0  0
  -24.6160  -15.8320   20.5030 H   0  0  0  0  0  0  0  0  0  0  0  0
  -26.2190  -15.6240   20.0150 H   0  0  0  0  0  0  0  0  0  0  0  0
  -22.0260  -29.4430   24.4180 C   0  0  0  0  0  1  0  0  0  0  0  0
  -21.2270  -29.6270   21.2630 C   0  0  0  0  0  0  0  0  0  0  0  0
  -21.3740  -30.0530   22.7870 N   0  0  0  0  0  0  0  0  0  0  0  0
  -20.4360  -30.3020   20.6070 O   0  0  0  0  0  0  0  0  0  0  0  0
  -20.7890  -30.8640   22.9470 H   0  0  0  0  0  0  0  0  0  0  0  0
  -22.1580  -28.3330   20.2230 C   0  0  0  0  0  2  0  0  0  0  0  0
  -23.6660  -27.1010   20.3440 C   0  0  0  0  0  2  0  0  0  0  0  0
  -25.3550  -26.9410   20.7560 O   0  0  0  0  0  0  0  0  0  0  0  0
  -24.7480  -31.8700   23.2410 C   0  0  0  0  0  0  0  0  0  0  0  0
  -26.5550  -27.3130   20.1350 C   0  0  0  0  0  3  0  0  0  0  0  0
  -23.7990  -30.2760   21.6410 C   0  0  0  0  0  3  0  0  0  0  0  0
  -25.1350  -29.4480   19.7240 C   0  0  0  0  0  3  0  0  0  0  0  0
  -26.2120  -30.7940   21.5250 C   0  0  0  0  0  2  0  0  0  0  0  0
  -26.1930  -29.5760   20.6220 C   0  0  0  0  0  3  0  0  0  0  0  0
  -27.0670  -28.4910   20.7340 C   0  0  0  0  0  2  0  0  0  0  0  0
  -26.1020  -27.4040   18.8490 C   0  0  0  0  0  2  0  0  0  0  0  0
  -25.1800  -28.4600   18.7060 C   0  0  0  0  0  2  0  0  0  0  0  0
  -23.9940  -30.3230   20.0760 C   0  0  0  0  0  2  0  0  0  0  0  0
  -24.9220  -31.0170   22.2010 N   0  0  0  0  0  0  0  0  0  0  0  0
  -23.6360  -32.1680   23.7040 O   0  0  0  0  0  0  0  0  0  0  0  0
  -23.6000  -28.7980   22.4570 C   0  0  0  0  0  0  0  0  0  0  0  0
  -22.4340  -27.8160   22.6350 N   0  0  0  0  0  0  0  0  0  0  0  0
  -24.5080  -28.6020   23.1950 O   0  0  0  0  0  0  0  0  0  0  0  0
  -22.8930  -27.0340   23.0790 H   0  0  0  0  0  0  0  0  0  0  0  0
  -18.0580  -27.9710   22.7990 C   0  0  0  0  0  0  0  0  0  0  0  0
  -20.7640  -27.5980   23.0400 C   0  0  0  0  0  3  0  0  0  0  0  0
  -20.4850  -26.3280   22.3160 C   0  0  0  0  0  2  0  0  0  0  0  0
  -19.3430  -26.4310   21.3380 C   0  0  0  0  0  2  0  0  0  0  0  0
  -18.0550  -26.6490   22.0920 C   0  0  0  0  0  2  0  0  0  0  0  0
  -19.2940  -28.5160   23.2720 C   0  0  0  0  0  0  0  0  0  0  0  0
  -19.0110  -29.7860   23.9620 C   0  0  0  0  0  3  0  0  0  0  0  0
  -17.7570  -30.4390   24.0660 C   0  0  0  0  0  3  0  0  0  0  0  0
  -16.6140  -29.8200   23.5720 C   0  0  0  0  0  3  0  0  0  0  0  0
  -16.7810  -28.5780   22.9530 C   0  0  0  0  0  3  0  0  0  0  0  0
  -25.9920  -32.5070   23.8890 C   0  0  0  0  0  3  0  0  0  0  0  0
  -25.6380  -33.8800   24.2630 N   0  0  0  0  0  0  0  0  0  0  0  0
  -25.9130  -34.9570   23.5170 C   0  0  0  0  0  0  0  0  0  0  0  0
  -26.5520  -34.8960   22.4630 O   0  0  0  0  0  0  0  0  0  0  0  0
  -25.0670  -33.9980   25.0860 H   0  0  0  0  0  0  0  0  0  0  0  0
  -24.1500  -36.7340   23.2580 C   0  0  0  0  0  1  0  0  0  0  0  0
  -25.4110  -36.3190   24.0310 C   0  0  0  0  0  3  0  0  0  0  0  0
  -27.5580  -37.1860   24.8460 C   0  0  0  0  0  1  0  0  0  0  0  0
  -26.4300  -37.3870   23.9400 N   0  0  0  0  0  0  0  0  0  0  0  0
  -26.0190  -38.2940   24.1430 H   0  0  0  0  0  0  0  0  0  0  0  0
  -26.4950  -31.6830   25.1320 C   0  0  1  0  0  0  0  0  0  0  0  0
  -25.3930  -31.3870   26.1750 C   0  0  0  0  0  1  0  0  0  0  0  0
  -27.1170  -30.3280   24.7210 C   0  0  0  0  0  1  0  0  0  0  0  0
  -27.6270  -32.4700   25.8230 C   0  0  0  0  0  1  0  0  0  0  0  0
  2  1  1  0
  3  2  2  0
  4  3  1  0
  4  6  1  0
  5  4  1  0
  7  4  1  0
  8  7  2  0
  9  8  1  0
 10  9  2  0
 11 19  1  0
 12 17  1  0
 13 14  1  0
 13 12  1  0
 15 14  1  0
 15 24  1  0
 15 16  1  0
 17 11  1  0
 17 16  1  0
 18 11  2  0
 19 20  1  0
 19 10  1  0
 21 22  2  0
 22 41  1  0
 23 22  1  0
 23 26  1  0
 24 25  1  0
 24 21  1  0
 25 23  2  0
 26 27  1  0
 27 28  2  0
 29 32  1  0
 29 28  1  0
 30 29  2  0
 31 30  1  0
 31 26  2  0
 32 33  1  0
 33 34  1  0
 34 35  2  0
 36 35  1  0
 36 40  1  0
 37 36  2  0
 38 33  2  0
 38 37  1  0
 39 38  1  0
 41 42  1  0
 42 45  1  0
 42 44  1  0
 43 41  2  0
 46 47  1  0
 46 21  1  0
 48 46  1  0
 50 51  1  0
 51 53  1  0
 51 49  1  0
 52 50  2  0
 54 55  1  0
 54 50  1  0
 55 56  1  0
 57 68  2  0
 58 63  1  0
 58 56  1  0
 59 67  1  0
 59 69  1  0
 60 65  1  0
 60 66  1  0
 60 62  1  0
 61 67  1  0
 62 63  1  0
 62 61  1  0
 64 58  1  0
 65 64  1  0
 66 59  1  0
 67 57  1  0
 69 70  1  0
 69 71  2  0
 70 72  1  0
 73 82  2  0
 73 78  1  0
 74 70  1  0
 74 78  1  0
 75 74  1  0
 76 77  1  0
 76 75  1  0
 77 73  1  0
 78 79  2  0
 79 80  1  0
 81 80  2  0
 82 81  1  0
 83 57  1  0
 83 84  1  0
 83 93  1  0
 84 87  1  0
 85 89  1  0
 85 84  1  0
 86 85  2  0
 89 88  1  0
 91 89  1  0
 91 92  1  0
 91 90  1  0
 93 96  1  1
 93 94  1  0
 95 93  1  0
M  ISO  4  11 100  19 100  55 101  56 101
M  END
>  <TORSDO>  (18) 
F 27

>  <SCORE>  (18) 
13.209

>  <name>  (18) 
20

>  <ligand_id>  (18) 
20

>  <original_smiles>  (18) 
[H]c1c([H])c([H])c2c(c1[H])C([H])([H])C([H])([H])C([H])([H])C2([H])N([H])C(=O)C1([H])N(C(=O)C([H])(N([H])C(=O)C([H])(N([H])C([H])([H])[H])C([H])([H])[H])C(C([H])([H])[H])(C([H])([H])[H])C([H])([H])[H])C([H])([H])c2c([H])c(OC([H])([H])C([H])([H])C(=O)N([H])C([H])([H])C([H])([H])C([H])([H])C([H])([H])[N+]([H])([H])C([H])([H])C([H])([H])C([H])([H])C([H])([H])N([H])C(=O)N3C([H])([H])C([H])([H])C([H])([H])C([H])(n4nc(-c5c([H])c([H])c(Oc6c([H])c([H])c(F)c([H])c6F)c([H])c5[H])c(C(=O)N([H])[H])c4N([H])[H])C3([H])[H])c([H])c([H])c2C1([H])[H]

>  <smiles>  (18) 
[H]c1c([H])c([H])c2c(c1[H])C([H])([H])C([H])([H])C([H])([H])C2([H])N([H])C(=O)C1([H])N(C(=O)C([H])(N([H])C(=O)C([H])(N([H])C([H])([H])[H])C([H])([H])[H])C(C([H])([H])[H])(C([H])([H])[H])C([H])([H])[H])C([H])([H])c2c([H])c(OC([H])([H])C([H])([H])C(=O)N([H])C([H])([H])C([H])([H])C([H])([H])C([H])([H])[N+]([H])([H])C([H])([H])C([H])([H])C([H])([H])C([H])([H])N([H])C(=O)N3C([H])([H])C([H])([H])C([H])([H])C([H])(n4nc(-c5c([H])c([H])c(Oc6c([H])c([H])c(F)c([H])c6F)c([H])c5[H])c(C(=O)N([H])[H])c4N([H])[H])C3([H])[H])c([H])c([H])c2C1([H])[H]

$$$$
21:0:0
     RDKit          3D

 93100  0  0  1  0  0  0  0  0999 V2000
  -29.0180  -23.2050   21.1150 C   0  0  0  0  0  0  0  0  0  0  0  0
  -28.6470  -23.1280   19.8330 N   0  0  0  0  0  0  0  0  0  0  0  0
  -29.3590  -24.2640   21.6480 O   0  0  0  0  0  0  0  0  0  0  0  0
  -28.3740  -22.2210   19.4750 H   0  0  0  0  0  0  0  0  0  0  0  0
  -28.5180  -24.2680   18.9260 C   0  0  0  0  0  2  0  0  0  0  0  0
  -29.7220  -24.4020   17.9620 C   0  0  0  0  0  2  0  0  0  0  0  0
  -29.4450  -23.9880   16.4960 C   0  0  0  0  0  2  0  0  0  0  0  0
  -30.6680  -23.3510   15.7950 C   0  0  0  0  0  2  0  0  0  0  0  0
  -31.9850  -24.1420   15.8930 C   0  0  0  0  0  2  0  0  0  0  0  0
  -31.8530  -25.4280   15.2830 O   0  0  0  0  0  0  0  0  0  0  0  0
  -35.4450  -28.2450   20.7490 C   0  0  0  0  0  0  0  0  0  0  0  0
  -32.0010  -26.4760   16.1530 C   0  0  0  0  0  0  0  0  0  0  0  0
  -33.2870  -29.3200   20.1880 C   0  0  0  0  0  3  0  0  0  0  0  0
  -32.2390  -28.6180   17.9680 C   0  0  0  0  0  0  0  0  0  0  0  0
  -34.6500  -28.1080   18.3970 C   0  0  0  0  0  2  0  0  0  0  0  0
  -33.3420  -27.7910   17.7090 C   0  0  0  0  0  0  0  0  0  0  0  0
  -33.2230  -26.7060   16.8160 C   0  0  0  0  0  3  0  0  0  0  0  0
  -30.9220  -27.3560   16.3620 C   0  0  0  0  0  3  0  0  0  0  0  0
  -31.0260  -28.4090   17.2910 C   0  0  0  0  0  3  0  0  0  0  0  0
  -32.4380  -29.7430   18.9560 C   0  0  0  0  0  2  0  0  0  0  0  0
  -34.4990  -28.5220   19.8090 N   0  0  0  0  0  0  0  0  0  0  0  0
  -35.3480  -28.6790   21.9040 O   0  0  0  0  0  0  0  0  0  0  0  0
  -32.3660  -28.5940   21.1960 C   0  0  0  0  0  0  0  0  0  0  0  0
  -31.5070  -29.3640   21.8840 N   0  0  0  0  0  0  0  0  0  0  0  0
  -32.4130  -27.3670   21.3290 O   0  0  0  0  0  0  0  0  0  0  0  0
  -31.5190  -30.3580   21.7090 H   0  0  0  0  0  0  0  0  0  0  0  0
  -28.8610  -30.4440   24.0850 C   0  0  0  0  0  0  0  0  0  0  0  0
  -30.5400  -28.8920   22.8730 C   0  0  0  0  0  3  0  0  0  0  0  0
  -29.3010  -28.2720   22.1930 C   0  0  0  0  0  2  0  0  0  0  0  0
  -28.1940  -29.3010   21.9350 C   0  0  0  0  0  2  0  0  0  0  0  0
  -27.7120  -29.8880   23.2630 C   0  0  0  0  0  2  0  0  0  0  0  0
  -30.1930  -29.9910   23.8850 C   0  0  0  0  0  0  0  0  0  0  0  0
  -31.2340  -30.5690   24.6440 C   0  0  0  0  0  3  0  0  0  0  0  0
  -30.9610  -31.5720   25.5940 C   0  0  0  0  0  3  0  0  0  0  0  0
  -29.6390  -32.0040   25.8040 C   0  0  0  0  0  3  0  0  0  0  0  0
  -28.5940  -31.4360   25.0520 C   0  0  0  0  0  3  0  0  0  0  0  0
  -36.7080  -27.3910   20.4090 C   0  0  0  0  0  3  0  0  0  0  0  0
  -36.5490  -25.8680   20.7900 C   0  0  1  0  0  0  0  0  0  0  0  0
  -36.8480  -25.5660   22.2750 C   0  0  0  0  0  1  0  0  0  0  0  0
  -35.1140  -25.3740   20.4880 C   0  0  0  0  0  1  0  0  0  0  0  0
  -37.4950  -25.0100   19.9170 C   0  0  0  0  0  1  0  0  0  0  0  0
  -37.8490  -27.9890   21.1160 N   0  0  0  0  0  0  0  0  0  0  0  0
  -38.6980  -28.8720   20.5730 C   0  0  0  0  0  0  0  0  0  0  0  0
  -38.6460  -29.2120   19.3880 O   0  0  0  0  0  0  0  0  0  0  0  0
  -37.9190  -27.7980   22.1040 H   0  0  0  0  0  0  0  0  0  0  0  0
  -39.4300  -30.9370   21.8030 C   0  0  0  0  0  1  0  0  0  0  0  0
  -39.7780  -29.4730   21.4920 C   0  0  0  0  0  3  0  0  0  0  0  0
  -41.7110  -28.0520   20.9680 C   0  0  0  0  0  1  0  0  0  0  0  0
  -41.1420  -29.3970   20.9210 N   0  0  0  0  0  0  0  0  0  0  0  0
  -41.7720  -30.0260   21.4120 H   0  0  0  0  0  0  0  0  0  0  0  0
  -29.0070  -21.9110   21.9290 C   0  0  0  0  0  2  0  0  0  0  0  0
  -29.7220  -20.7600   21.2010 C   0  0  0  0  0  2  0  0  0  0  0  0
  -28.6990  -19.9140   20.3720 C   0  0  0  0  0  2  0  0  0  0  0  0
  -28.5700  -18.3610   20.3930 C   0  0  0  0  0  2  0  0  0  0  0  0
  -29.1830  -17.6730   19.1510 C   0  0  0  0  0  2  0  0  0  0  0  0
  -30.7400  -18.6690   17.4760 C   0  0  0  0  0  0  0  0  0  0  0  0
  -32.3340  -19.8910   16.0180 C   0  0  0  0  0  2  0  0  0  0  0  0
  -33.3790  -18.9590   15.3810 C   0  0  0  0  0  2  0  0  0  0  0  0
  -34.5810  -18.7740   16.3220 C   0  0  0  0  0  2  0  0  0  0  0  0
  -34.1450  -18.3860   17.7570 C   0  0  0  0  0  3  0  0  0  0  0  0
  -33.0370  -19.3190   18.2870 C   0  0  0  0  0  2  0  0  0  0  0  0
  -31.9220  -19.3200   17.3170 N   0  0  0  0  0  0  0  0  0  0  0  0
  -29.9200  -18.5390   16.5580 O   0  0  0  0  0  0  0  0  0  0  0  0
  -30.4760  -18.2220   18.7210 N   0  0  0  0  0  0  0  0  0  0  0  0
  -31.2040  -18.3200   19.4160 H   0  0  0  0  0  0  0  0  0  0  0  0
  -36.1230  -17.2960   18.9880 C   0  0  0  0  0  0  0  0  0  0  0  0
  -37.0560  -17.8080   19.8420 C   0  0  0  0  0  0  0  0  0  0  0  0
  -36.7300  -19.1910   20.0040 C   0  0  0  0  0  0  0  0  0  0  0  0
  -35.2820  -18.3500   18.6690 N   0  0  0  0  0  0  0  0  0  0  0  0
  -35.6250  -19.4840   19.3320 N   0  0  0  0  0  0  0  0  0  0  0  0
  -37.4370  -20.2600   20.7150 C   0  0  0  0  0  0  0  0  0  0  0  0
  -37.0760  -20.6470   22.0270 C   0  0  0  0  0  3  0  0  0  0  0  0
  -37.7830  -21.6720   22.6920 C   0  0  0  0  0  3  0  0  0  0  0  0
  -38.8640  -22.3200   22.0480 C   0  0  0  0  0  0  0  0  0  0  0  0
  -39.2040  -21.9480   20.7350 C   0  0  0  0  0  3  0  0  0  0  0  0
  -38.4990  -20.9320   20.0710 C   0  0  0  0  0  3  0  0  0  0  0  0
  -39.5920  -23.3420   22.6050 O   0  0  0  0  0  0  0  0  0  0  0  0
  -40.3830  -23.1420   23.7080 C   0  0  0  0  0  0  0  0  0  0  0  0
  -41.4250  -22.1910   23.7140 C   0  0  0  0  0  3  0  0  0  0  0  0
  -42.2590  -22.0660   24.8460 C   0  0  0  0  0  3  0  0  0  0  0  0
  -42.0570  -22.8970   25.9630 C   0  0  0  0  0  0  0  0  0  0  0  0
  -41.0220  -23.8500   25.9570 C   0  0  0  0  0  3  0  0  0  0  0  0
  -40.1880  -23.9730   24.8310 C   0  0  0  0  0  0  0  0  0  0  0  0
  -39.2060  -24.9070   24.8210 F   0  0  0  0  0  0  0  0  0  0  0  0
  -42.8600  -22.7830   27.0460 F   0  0  0  0  0  0  0  0  0  0  0  0
  -38.2420  -17.0840   20.4100 C   0  0  0  0  0  0  0  0  0  0  0  0
  -38.4100  -17.1220   21.7250 N   0  0  0  0  0  0  0  0  0  0  0  0
  -39.0000  -16.4330   19.6910 O   0  0  0  0  0  0  0  0  0  0  0  0
  -37.7690  -17.6380   22.3120 H   0  0  0  0  0  0  0  0  0  0  0  0
  -39.1790  -16.6280   22.1530 H   0  0  0  0  0  0  0  0  0  0  0  0
  -35.9330  -16.0220   18.4490 N   0  0  0  0  0  0  0  0  0  0  0  0
  -36.5880  -15.2710   18.6290 H   0  0  0  0  0  0  0  0  0  0  0  0
  -35.2090  -15.7620   17.7900 H   0  0  0  0  0  0  0  0  0  0  0  0
  1  3  2  0
  1 51  1  0
  2  1  1  0
  4  2  1  0
  5  2  1  0
  6  5  1  0
  7  6  1  0
  8  9  1  0
  8  7  1  0
 10  9  1  0
 10 12  1  0
 11 22  2  0
 12 18  2  0
 12 17  1  0
 13 23  1  0
 14 20  1  0
 15 21  1  0
 16 14  1  0
 16 15  1  0
 17 16  2  0
 18 19  1  0
 19 14  2  0
 20 13  1  0
 21 13  1  0
 21 11  1  0
 23 25  2  0
 23 24  1  0
 26 24  1  0
 27 36  1  0
 28 24  1  0
 28 32  1  0
 29 28  1  0
 30 29  1  0
 30 31  1  0
 31 27  1  0
 32 27  2  0
 32 33  1  0
 33 34  2  0
 34 35  1  0
 36 35  2  0
 37 11  1  0
 37 38  1  0
 37 42  1  0
 38 39  1  1
 40 38  1  0
 41 38  1  0
 42 45  1  0
 43 42  1  0
 43 47  1  0
 44 43  2  0
 47 46  1  0
 49 48  1  0
 49 50  1  0
 49 47  1  0
 52 51  1  0
 53 54  1  0
 53 52  1  0
 55 54  1  0
 56 64  1  0
 57 62  1  0
 58 57  1  0
 58 59  1  0
 60 59  1  0
 60 61  1  0
 60 69  1  0
 62 56  1  0
 62 61  1  0
 63 56  2  0
 64 55  1  0
 64 65  1  0
 66 67  2  0
 67 68  1  0
 67 86  1  0
 68 71  1  0
 69 66  1  0
 69 70  1  0
 70 68  2  0
 71 72  1  0
 72 73  2  0
 74 77  1  0
 74 73  1  0
 75 74  2  0
 76 71  2  0
 76 75  1  0
 77 78  1  0
 78 79  2  0
 78 83  1  0
 79 80  1  0
 80 81  2  0
 81 85  1  0
 82 81  1  0
 83 82  2  0
 84 83  1  0
 86 87  1  0
 87 90  1  0
 87 89  1  0
 88 86  2  0
 91 92  1  0
 91 66  1  0
 93 91  1  0
M  ISO  4   9 101  10 101  56 100  64 100
M  END
>  <TORSDO>  (19) 
F 26

>  <SCORE>  (19) 
-3.968

>  <name>  (19) 
21

>  <ligand_id>  (19) 
21

>  <original_smiles>  (19) 
[H]c1c([H])c([H])c2c(c1[H])C([H])([H])C([H])([H])C([H])([H])C2([H])N([H])C(=O)C1([H])N(C(=O)C([H])(N([H])C(=O)C([H])(N([H])C([H])([H])[H])C([H])([H])[H])C(C([H])([H])[H])(C([H])([H])[H])C([H])([H])[H])C([H])([H])c2c([H])c(OC([H])([H])C([H])([H])C([H])([H])C([H])([H])C([H])([H])N([H])C(=O)C([H])([H])C([H])([H])C([H])([H])C([H])([H])C([H])([H])N([H])C(=O)N3C([H])([H])C([H])([H])C([H])([H])C([H])(n4nc(-c5c([H])c([H])c(Oc6c([H])c([H])c(F)c([H])c6F)c([H])c5[H])c(C(=O)N([H])[H])c4N([H])[H])C3([H])[H])c([H])c([H])c2C1([H])[H]

>  <smiles>  (19) 
[H]c1c([H])c([H])c2c(c1[H])C([H])([H])C([H])([H])C([H])([H])C2([H])N([H])C(=O)C1([H])N(C(=O)C([H])(N([H])C(=O)C([H])(N([H])C([H])([H])[H])C([H])([H])[H])C(C([H])([H])[H])(C([H])([H])[H])C([H])([H])[H])C([H])([H])c2c([H])c(OC([H])([H])C([H])([H])C([H])([H])C([H])([H])C([H])([H])N([H])C(=O)C([H])([H])C([H])([H])C([H])([H])C([H])([H])C([H])([H])N([H])C(=O)N3C([H])([H])C([H])([H])C([H])([H])C([H])(n4nc(-c5c([H])c([H])c(Oc6c([H])c([H])c(F)c([H])c6F)c([H])c5[H])c(C(=O)N([H])[H])c4N([H])[H])C3([H])[H])c([H])c([H])c2C1([H])[H]

$$$$
22:0:0
     RDKit          3D

101108  0  0  1  0  0  0  0  0999 V2000
  -22.3540  -23.2400   20.0770 C   0  0  0  0  0  0  0  0  0  0  0  0
  -23.2810  -23.2090   21.0410 N   0  0  0  0  0  0  0  0  0  0  0  0
  -21.4190  -24.0430   20.0780 O   0  0  0  0  0  0  0  0  0  0  0  0
  -24.0320  -22.5340   20.9850 H   0  0  0  0  0  0  0  0  0  0  0  0
  -23.2710  -24.0970   22.1930 C   0  0  0  0  0  2  0  0  0  0  0  0
  -24.6700  -24.3140   22.7830 C   0  0  0  0  0  2  0  0  0  0  0  0
  -25.6260  -24.3820   21.7300 O   0  0  0  0  0  0  0  0  0  0  0  0
  -26.6670  -25.3190   21.9890 C   0  0  0  0  0  2  0  0  0  0  0  0
  -27.8100  -25.1270   20.9730 C   0  0  0  0  0  2  0  0  0  0  0  0
  -28.7030  -26.3780   20.7720 C   0  0  0  0  0  2  0  0  0  0  0  0
  -28.3960  -27.1030   19.5750 O   0  0  0  0  0  0  0  0  0  0  0  0
  -24.6340  -32.0350   23.0320 C   0  0  0  0  0  0  0  0  0  0  0  0
  -27.2370  -27.8270   19.6470 C   0  0  0  0  0  0  0  0  0  0  0  0
  -23.3890  -30.6720   21.3860 C   0  0  0  0  0  3  0  0  0  0  0  0
  -24.8120  -29.2420   19.8280 C   0  0  0  0  0  0  0  0  0  0  0  0
  -25.8860  -31.1170   21.0850 C   0  0  0  0  0  2  0  0  0  0  0  0
  -25.9780  -29.7780   20.3910 C   0  0  0  0  0  0  0  0  0  0  0  0
  -27.1970  -29.0720   20.3060 C   0  0  0  0  0  3  0  0  0  0  0  0
  -26.0650  -27.3060   19.0640 C   0  0  0  0  0  3  0  0  0  0  0  0
  -24.8460  -28.0000   19.1690 C   0  0  0  0  0  3  0  0  0  0  0  0
  -23.5470  -30.0560   19.9710 C   0  0  0  0  0  2  0  0  0  0  0  0
  -24.6570  -31.2860   21.8930 N   0  0  0  0  0  0  0  0  0  0  0  0
  -23.5720  -32.2520   23.6340 O   0  0  0  0  0  0  0  0  0  0  0  0
  -22.8110  -29.5920   22.3290 C   0  0  0  0  0  0  0  0  0  0  0  0
  -21.4910  -29.3640   22.2360 N   0  0  0  0  0  0  0  0  0  0  0  0
  -23.5460  -28.9610   23.0940 O   0  0  0  0  0  0  0  0  0  0  0  0
  -20.9570  -29.9260   21.5870 H   0  0  0  0  0  0  0  0  0  0  0  0
  -18.1790  -28.0390   22.8090 C   0  0  0  0  0  0  0  0  0  0  0  0
  -20.7340  -28.3670   22.9930 C   0  0  0  0  0  3  0  0  0  0  0  0
  -20.8540  -26.9750   22.3420 C   0  0  0  0  0  2  0  0  0  0  0  0
  -19.7220  -26.6570   21.3610 C   0  0  0  0  0  2  0  0  0  0  0  0
  -18.3660  -26.7260   22.0670 C   0  0  0  0  0  2  0  0  0  0  0  0
  -19.2910  -28.8150   23.2290 C   0  0  0  0  0  0  0  0  0  0  0  0
  -19.0610  -30.0450   23.8830 C   0  0  0  0  0  3  0  0  0  0  0  0
  -17.7510  -30.4970   24.1250 C   0  0  0  0  0  3  0  0  0  0  0  0
  -16.6520  -29.7160   23.7220 C   0  0  0  0  0  3  0  0  0  0  0  0
  -16.8680  -28.4890   23.0700 C   0  0  0  0  0  3  0  0  0  0  0  0
  -25.9320  -32.6720   23.6180 C   0  0  0  0  0  3  0  0  0  0  0  0
  -26.5920  -31.8030   24.7570 C   0  0  1  0  0  0  0  0  0  0  0  0
  -25.5920  -31.3360   25.8400 C   0  0  0  0  0  1  0  0  0  0  0  0
  -27.2660  -30.5450   24.1610 C   0  0  0  0  0  1  0  0  0  0  0  0
  -27.7100  -32.6140   25.4560 C   0  0  0  0  0  1  0  0  0  0  0  0
  -25.5850  -34.0100   24.1160 N   0  0  0  0  0  0  0  0  0  0  0  0
  -25.8110  -35.1500   23.4520 C   0  0  0  0  0  0  0  0  0  0  0  0
  -26.4100  -35.1890   22.3720 O   0  0  0  0  0  0  0  0  0  0  0  0
  -25.0440  -34.0480   24.9680 H   0  0  0  0  0  0  0  0  0  0  0  0
  -23.9740  -36.8650   23.4030 C   0  0  0  0  0  1  0  0  0  0  0  0
  -25.2890  -36.4540   24.0840 C   0  0  0  0  0  3  0  0  0  0  0  0
  -27.4320  -37.3670   24.8560 C   0  0  0  0  0  1  0  0  0  0  0  0
  -26.2570  -37.5700   24.0140 N   0  0  0  0  0  0  0  0  0  0  0  0
  -25.8190  -38.4460   24.2860 H   0  0  0  0  0  0  0  0  0  0  0  0
  -22.4820  -22.2380   18.9390 C   0  0  0  0  0  2  0  0  0  0  0  0
  -23.0450  -22.9130   17.7490 N   0  0  0  0  0  4  0  0  0  0  0  0
  -23.7810  -23.5340   18.0390 H   0  0  0  0  0  0  0  0  0  0  0  0
  -22.3100  -23.4980   17.3820 H   0  0  0  0  0  0  0  0  0  0  0  0
  -23.5300  -22.0200   16.6750 C   0  0  0  0  0  2  0  0  0  0  0  0
  -25.0480  -21.7390   16.7460 C   0  0  0  0  0  2  0  0  0  0  0  0
  -25.4870  -20.9310   17.9770 C   0  0  0  0  0  2  0  0  0  0  0  0
  -26.8520  -20.2540   17.8250 C   0  0  0  0  0  2  0  0  0  0  0  0
  -27.2520  -19.5300   19.1190 C   0  0  0  0  0  2  0  0  0  0  0  0
  -28.5080  -18.6650   18.9580 C   0  0  0  0  0  2  0  0  0  0  0  0
  -28.7450  -17.7400   20.1620 C   0  0  0  0  0  2  0  0  0  0  0  0
  -30.0250  -16.9090   20.0120 C   0  0  0  0  0  2  0  0  0  0  0  0
  -30.9860  -14.9260   20.9730 C   0  0  0  0  0  0  0  0  0  0  0  0
  -30.9060  -12.6220   20.1250 C   0  0  0  0  0  2  0  0  0  0  0  0
  -30.1730  -12.6270   18.7670 C   0  0  0  0  0  2  0  0  0  0  0  0
  -28.6500  -12.4960   18.9660 C   0  0  0  0  0  2  0  0  0  0  0  0
  -28.0930  -13.4850   20.0280 C   0  0  0  0  0  3  0  0  0  0  0  0
  -28.9570  -13.4700   21.3110 C   0  0  0  0  0  2  0  0  0  0  0  0
  -30.3570  -13.7250   20.9240 N   0  0  0  0  0  0  0  0  0  0  0  0
  -32.1610  -15.1030   20.6390 O   0  0  0  0  0  0  0  0  0  0  0  0
  -30.1770  -15.9760   21.1250 N   0  0  0  0  0  0  0  0  0  0  0  0
  -30.2690  -16.4260   22.0260 H   0  0  0  0  0  0  0  0  0  0  0  0
  -25.5980  -14.0780   20.2650 C   0  0  0  0  0  0  0  0  0  0  0  0
  -24.5000  -13.3130   20.5530 C   0  0  0  0  0  0  0  0  0  0  0  0
  -24.9840  -11.9850   20.7540 C   0  0  0  0  0  0  0  0  0  0  0  0
  -26.6840  -13.2180   20.3140 N   0  0  0  0  0  0  0  0  0  0  0  0
  -26.3080  -11.9600   20.6610 N   0  0  0  0  0  0  0  0  0  0  0  0
  -24.2610  -10.7270   20.9760 C   0  0  0  0  0  0  0  0  0  0  0  0
  -24.5960   -9.8600   22.0380 C   0  0  0  0  0  3  0  0  0  0  0  0
  -23.8730   -8.6650   22.2410 C   0  0  0  0  0  3  0  0  0  0  0  0
  -22.8000   -8.3300   21.3810 C   0  0  0  0  0  0  0  0  0  0  0  0
  -22.4850   -9.1870   20.3110 C   0  0  0  0  0  3  0  0  0  0  0  0
  -23.2100  -10.3730   20.1080 C   0  0  0  0  0  3  0  0  0  0  0  0
  -22.0570   -7.1800   21.4880 O   0  0  0  0  0  0  0  0  0  0  0  0
  -21.8200   -6.5870   22.7010 C   0  0  0  0  0  0  0  0  0  0  0  0
  -21.2310   -7.2910   23.7750 C   0  0  0  0  0  3  0  0  0  0  0  0
  -20.9420   -6.6220   24.9810 C   0  0  0  0  0  3  0  0  0  0  0  0
  -21.2320   -5.2510   25.1130 C   0  0  0  0  0  0  0  0  0  0  0  0
  -21.8120   -4.5470   24.0440 C   0  0  0  0  0  3  0  0  0  0  0  0
  -22.1030   -5.2120   22.8400 C   0  0  0  0  0  0  0  0  0  0  0  0
  -22.6430   -4.5250   21.8060 F   0  0  0  0  0  0  0  0  0  0  0  0
  -20.9480   -4.6050   26.2690 F   0  0  0  0  0  0  0  0  0  0  0  0
  -23.0690  -13.7680   20.5480 C   0  0  0  0  0  0  0  0  0  0  0  0
  -22.2210  -13.1290   21.3480 N   0  0  0  0  0  0  0  0  0  0  0  0
  -22.7050  -14.7290   19.8720 O   0  0  0  0  0  0  0  0  0  0  0  0
  -22.5260  -12.3560   21.9200 H   0  0  0  0  0  0  0  0  0  0  0  0
  -21.2540  -13.4200   21.3860 H   0  0  0  0  0  0  0  0  0  0  0  0
  -25.7560  -15.4220   19.9520 N   0  0  0  0  0  0  0  0  0  0  0  0
  -24.9610  -16.0460   19.8690 H   0  0  0  0  0  0  0  0  0  0  0  0
  -26.6370  -15.8690   19.7430 H   0  0  0  0  0  0  0  0  0  0  0  0
  1  3  2  0
  1  2  1  0
  2  5  1  0
  4  2  1  0
  5  6  1  0
  7  8  1  0
  7  6  1  0
  9  8  1  0
 10  9  1  0
 11 13  1  0
 11 10  1  0
 12 23  2  0
 13 18  1  0
 14 22  1  0
 14 24  1  0
 15 21  1  0
 15 17  1  0
 16 22  1  0
 17 16  1  0
 18 17  2  0
 19 20  1  0
 19 13  2  0
 20 15  2  0
 21 14  1  0
 22 12  1  0
 24 26  2  0
 25 24  1  0
 27 25  1  0
 28 37  2  0
 28 33  1  0
 29 25  1  0
 29 33  1  0
 30 29  1  0
 31 32  1  0
 31 30  1  0
 32 28  1  0
 33 34  2  0
 34 35  1  0
 36 35  2  0
 37 36  1  0
 38 12  1  0
 38 43  1  0
 38 39  1  0
 39 42  1  1
 39 40  1  0
 41 39  1  0
 43 46  1  0
 44 48  1  0
 44 43  1  0
 45 44  2  0
 48 47  1  0
 50 48  1  0
 50 51  1  0
 50 49  1  0
 52  1  1  0
 53 54  1  0
 53 52  1  0
 55 53  1  0
 56 57  1  0
 56 53  1  0
 57 58  1  0
 59 58  1  0
 59 60  1  0
 61 60  1  0
 61 62  1  0
 63 62  1  0
 63 72  1  0
 64 72  1  0
 65 70  1  0
 66 67  1  0
 66 65  1  0
 68 67  1  0
 68 77  1  0
 68 69  1  0
 70 64  1  0
 70 69  1  0
 71 64  2  0
 72 73  1  0
 74 77  1  0
 74 75  2  0
 75 76  1  0
 76 79  1  0
 77 78  1  0
 78 76  2  0
 79 80  1  0
 80 81  2  0
 82 85  1  0
 82 81  1  0
 83 82  2  0
 84 83  1  0
 84 79  2  0
 85 86  1  0
 86 91  2  0
 86 87  1  0
 87 88  2  0
 88 89  1  0
 89 93  1  0
 90 89  2  0
 91 90  1  0
 92 91  1  0
 94 75  1  0
 94 95  1  0
 95 98  1  0
 95 97  1  0
 96 94  2  0
 99 74  1  0
100 99  1  0
101 99  1  0
M  ISO  4  10 101  11 101  64 100  72 100
M  END
>  <TORSDO>  (20) 
F 32

>  <SCORE>  (20) 
-7.897

>  <name>  (20) 
22

>  <ligand_id>  (20) 
22

>  <original_smiles>  (20) 
[H]c1c([H])c([H])c2c(c1[H])C([H])([H])C([H])([H])C([H])([H])C2([H])N([H])C(=O)C1([H])N(C(=O)C([H])(N([H])C(=O)C([H])(N([H])C([H])([H])[H])C([H])([H])[H])C(C([H])([H])[H])(C([H])([H])[H])C([H])([H])[H])C([H])([H])c2c([H])c(OC([H])([H])C([H])([H])C([H])([H])OC([H])([H])C([H])([H])N([H])C(=O)C([H])([H])[N+]([H])([H])C([H])([H])C([H])([H])C([H])([H])C([H])([H])C([H])([H])C([H])([H])C([H])([H])C([H])([H])N([H])C(=O)N3C([H])([H])C([H])([H])C([H])([H])C([H])(n4nc(-c5c([H])c([H])c(Oc6c([H])c([H])c(F)c([H])c6F)c([H])c5[H])c(C(=O)N([H])[H])c4N([H])[H])C3([H])[H])c([H])c([H])c2C1([H])[H]

>  <smiles>  (20) 
[H]c1c([H])c([H])c2c(c1[H])C([H])([H])C([H])([H])C([H])([H])C2([H])N([H])C(=O)C1([H])N(C(=O)C([H])(N([H])C(=O)C([H])(N([H])C([H])([H])[H])C([H])([H])[H])C(C([H])([H])[H])(C([H])([H])[H])C([H])([H])[H])C([H])([H])c2c([H])c(OC([H])([H])C([H])([H])C([H])([H])OC([H])([H])C([H])([H])N([H])C(=O)C([H])([H])[N+]([H])([H])C([H])([H])C([H])([H])C([H])([H])C([H])([H])C([H])([H])C([H])([H])C([H])([H])C([H])([H])N([H])C(=O)N3C([H])([H])C([H])([H])C([H])([H])C([H])(n4nc(-c5c([H])c([H])c(Oc6c([H])c([H])c(F)c([H])c6F)c([H])c5[H])c(C(=O)N([H])[H])c4N([H])[H])C3([H])[H])c([H])c([H])c2C1([H])[H]

$$$$
23:0:0
     RDKit          3D

 99106  0  0  1  0  0  0  0  0999 V2000
  -31.7080  -22.0990   24.2650 C   0  0  0  0  0  2  0  0  0  0  0  0
  -30.3110  -22.6090   23.8850 C   0  0  0  0  0  2  0  0  0  0  0  0
  -30.3470  -23.9920   23.2100 C   0  0  0  0  0  2  0  0  0  0  0  0
  -28.5780  -23.7550   21.4660 C   0  0  0  0  0  0  0  0  0  0  0  0
  -29.0770  -24.3250   22.5710 N   0  0  0  0  0  0  0  0  0  0  0  0
  -29.1280  -22.8130   20.8940 O   0  0  0  0  0  0  0  0  0  0  0  0
  -28.5620  -25.1000   22.9690 H   0  0  0  0  0  0  0  0  0  0  0  0
  -27.2720  -24.3290   20.9110 C   0  0  0  0  0  2  0  0  0  0  0  0
  -27.3880  -24.7000   19.4160 C   0  0  0  0  0  2  0  0  0  0  0  0
  -27.5200  -26.1150   19.2530 O   0  0  0  0  0  0  0  0  0  0  0  0
  -24.6120  -31.2740   23.1690 C   0  0  0  0  0  0  0  0  0  0  0  0
  -26.4120  -26.9030   19.4610 C   0  0  0  0  0  0  0  0  0  0  0  0
  -23.0920  -30.1580   21.5710 C   0  0  0  0  0  3  0  0  0  0  0  0
  -24.2090  -28.6240   19.8690 C   0  0  0  0  0  0  0  0  0  0  0  0
  -25.6060  -30.2800   21.1150 C   0  0  0  0  0  2  0  0  0  0  0  0
  -25.4710  -28.9750   20.3630 C   0  0  0  0  0  0  0  0  0  0  0  0
  -26.5760  -28.1240   20.1520 C   0  0  0  0  0  3  0  0  0  0  0  0
  -25.1300  -26.5640   18.9670 C   0  0  0  0  0  3  0  0  0  0  0  0
  -24.0310  -27.4200   19.1700 C   0  0  0  0  0  3  0  0  0  0  0  0
  -23.0780  -29.5940   20.1270 C   0  0  0  0  0  2  0  0  0  0  0  0
  -24.4620  -30.5780   22.0080 N   0  0  0  0  0  0  0  0  0  0  0  0
  -23.6320  -31.6020   23.8520 O   0  0  0  0  0  0  0  0  0  0  0  0
  -22.4400  -29.1200   22.5120 C   0  0  0  0  0  0  0  0  0  0  0  0
  -21.1150  -28.9430   22.3820 N   0  0  0  0  0  0  0  0  0  0  0  0
  -23.1230  -28.4780   23.3150 O   0  0  0  0  0  0  0  0  0  0  0  0
  -20.6260  -29.5140   21.7060 H   0  0  0  0  0  0  0  0  0  0  0  0
  -17.7670  -27.6370   22.7370 C   0  0  0  0  0  0  0  0  0  0  0  0
  -20.2940  -27.9970   23.1370 C   0  0  0  0  0  3  0  0  0  0  0  0
  -20.4810  -26.5550   22.6090 C   0  0  0  0  0  2  0  0  0  0  0  0
  -19.4470  -26.1630   21.5490 C   0  0  0  0  0  2  0  0  0  0  0  0
  -18.0280  -26.2780   22.1140 C   0  0  0  0  0  2  0  0  0  0  0  0
  -18.8320  -28.4510   23.2030 C   0  0  0  0  0  0  0  0  0  0  0  0
  -18.5380  -29.7240   23.7400 C   0  0  0  0  0  3  0  0  0  0  0  0
  -17.2090  -30.1820   23.8200 C   0  0  0  0  0  3  0  0  0  0  0  0
  -16.1570  -29.3650   23.3730 C   0  0  0  0  0  3  0  0  0  0  0  0
  -16.4350  -28.0960   22.8350 C   0  0  0  0  0  3  0  0  0  0  0  0
  -26.0190  -31.7130   23.6840 C   0  0  0  0  0  3  0  0  0  0  0  0
  -25.8970  -33.0890   24.1840 N   0  0  0  0  0  0  0  0  0  0  0  0
  -26.3080  -34.1770   23.5190 C   0  0  0  0  0  0  0  0  0  0  0  0
  -26.9050  -34.1180   22.4400 O   0  0  0  0  0  0  0  0  0  0  0  0
  -25.3710  -33.2180   25.0350 H   0  0  0  0  0  0  0  0  0  0  0  0
  -24.8010  -36.1860   23.4560 C   0  0  0  0  0  1  0  0  0  0  0  0
  -26.0150  -35.5500   24.1530 C   0  0  0  0  0  3  0  0  0  0  0  0
  -28.2740  -36.0680   24.9560 C   0  0  0  0  0  1  0  0  0  0  0  0
  -27.1630  -36.4790   24.1040 N   0  0  0  0  0  0  0  0  0  0  0  0
  -26.8800  -37.4150   24.3820 H   0  0  0  0  0  0  0  0  0  0  0  0
  -26.5960  -30.7620   24.8030 C   0  0  1  0  0  0  0  0  0  0  0  0
  -25.6080  -30.4950   25.9620 C   0  0  0  0  0  1  0  0  0  0  0  0
  -26.9990  -29.3950   24.2020 C   0  0  0  0  0  1  0  0  0  0  0  0
  -27.8820  -31.3780   25.4040 C   0  0  0  0  0  1  0  0  0  0  0  0
  -31.7940  -20.5630   24.2360 C   0  0  0  0  0  2  0  0  0  0  0  0
  -33.1410  -19.9990   23.7390 C   0  0  0  0  0  2  0  0  0  0  0  0
  -33.5390  -20.5090   22.3510 C   0  0  0  0  0  0  0  0  0  0  0  0
  -33.3170  -19.6810   21.3220 N   0  0  0  0  0  0  0  0  0  0  0  0
  -34.0280  -21.6320   22.2150 O   0  0  0  0  0  0  0  0  0  0  0  0
  -32.9160  -18.7770   21.5360 H   0  0  0  0  0  0  0  0  0  0  0  0
  -33.4800  -20.0130   19.9100 C   0  0  0  0  0  2  0  0  0  0  0  0
  -32.1300  -20.3690   19.2650 C   0  0  0  0  0  2  0  0  0  0  0  0
  -31.0040  -19.3710   19.6020 C   0  0  0  0  0  2  0  0  0  0  0  0
  -29.7860  -19.5320   18.6870 C   0  0  0  0  0  2  0  0  0  0  0  0
  -28.5350  -18.7680   19.1680 C   0  0  0  0  0  2  0  0  0  0  0  0
  -29.6860  -16.5750   19.5410 C   0  0  0  0  0  0  0  0  0  0  0  0
  -30.2430  -14.1780   19.6080 C   0  0  0  0  0  2  0  0  0  0  0  0
  -29.5140  -13.4410   18.4690 C   0  0  0  0  0  2  0  0  0  0  0  0
  -28.1020  -13.0090   18.9080 C   0  0  0  0  0  2  0  0  0  0  0  0
  -27.3040  -14.1680   19.5630 C   0  0  0  0  0  3  0  0  0  0  0  0
  -28.1570  -14.8900   20.6350 C   0  0  0  0  0  2  0  0  0  0  0  0
  -29.4230  -15.3290   20.0120 N   0  0  0  0  0  0  0  0  0  0  0  0
  -30.6590  -16.8360   18.8290 O   0  0  0  0  0  0  0  0  0  0  0  0
  -28.7830  -17.5080   19.8710 N   0  0  0  0  0  0  0  0  0  0  0  0
  -28.0600  -17.2040   20.5090 H   0  0  0  0  0  0  0  0  0  0  0  0
  -24.9040  -14.4140   20.4610 C   0  0  0  0  0  0  0  0  0  0  0  0
  -23.9760  -13.4880   20.8570 C   0  0  0  0  0  0  0  0  0  0  0  0
  -24.6040  -12.2140   20.7140 C   0  0  0  0  0  0  0  0  0  0  0  0
  -26.0350  -13.6950   20.1110 N   0  0  0  0  0  0  0  0  0  0  0  0
  -25.8630  -12.3640   20.3170 N   0  0  0  0  0  0  0  0  0  0  0  0
  -24.0670  -10.8590   20.8790 C   0  0  0  0  0  0  0  0  0  0  0  0
  -24.5520   -9.9900   21.8820 C   0  0  0  0  0  3  0  0  0  0  0  0
  -24.0050   -8.6970   22.0350 C   0  0  0  0  0  3  0  0  0  0  0  0
  -22.9610   -8.2620   21.1840 C   0  0  0  0  0  0  0  0  0  0  0  0
  -22.4990   -9.1220   20.1740 C   0  0  0  0  0  3  0  0  0  0  0  0
  -23.0460  -10.4070   20.0180 C   0  0  0  0  0  3  0  0  0  0  0  0
  -22.3880   -7.0150   21.2420 O   0  0  0  0  0  0  0  0  0  0  0  0
  -22.1450   -6.3890   22.4380 C   0  0  0  0  0  0  0  0  0  0  0  0
  -21.3620   -6.9890   23.4490 C   0  0  0  0  0  3  0  0  0  0  0  0
  -21.0810   -6.2810   24.6350 C   0  0  0  0  0  3  0  0  0  0  0  0
  -21.5710   -4.9720   24.8080 C   0  0  0  0  0  0  0  0  0  0  0  0
  -22.3470   -4.3730   23.8010 C   0  0  0  0  0  3  0  0  0  0  0  0
  -22.6300   -5.0780   22.6190 C   0  0  0  0  0  0  0  0  0  0  0  0
  -23.3590   -4.4850   21.6410 F   0  0  0  0  0  0  0  0  0  0  0  0
  -21.2950   -4.2890   25.9440 F   0  0  0  0  0  0  0  0  0  0  0  0
  -22.5560  -13.7600   21.2590 C   0  0  0  0  0  0  0  0  0  0  0  0
  -22.0060  -12.9450   22.1530 N   0  0  0  0  0  0  0  0  0  0  0  0
  -21.9400  -14.7250   20.8150 O   0  0  0  0  0  0  0  0  0  0  0  0
  -22.5200  -12.1630   22.5310 H   0  0  0  0  0  0  0  0  0  0  0  0
  -21.0570  -13.1060   22.4630 H   0  0  0  0  0  0  0  0  0  0  0  0
  -24.8760  -15.8020   20.3480 N   0  0  0  0  0  0  0  0  0  0  0  0
  -24.0460  -16.3500   20.5480 H   0  0  0  0  0  0  0  0  0  0  0  0
  -25.6450  -16.3640   20.0000 H   0  0  0  0  0  0  0  0  0  0  0  0
  2  1  1  0
  3  2  1  0
  4  5  1  0
  5  7  1  0
  5  3  1  0
  6  4  2  0
  8  4  1  0
  9  8  1  0
 10  9  1  0
 10 12  1  0
 11 22  2  0
 12 17  1  0
 13 21  1  0
 13 23  1  0
 14 20  1  0
 14 16  1  0
 15 21  1  0
 16 15  1  0
 17 16  2  0
 18 19  1  0
 18 12  2  0
 19 14  2  0
 20 13  1  0
 21 11  1  0
 23 25  2  0
 24 23  1  0
 26 24  1  0
 27 36  2  0
 27 32  1  0
 28 24  1  0
 28 32  1  0
 29 28  1  0
 30 31  1  0
 30 29  1  0
 31 27  1  0
 32 33  2  0
 33 34  1  0
 35 34  2  0
 36 35  1  0
 37 11  1  0
 37 38  1  0
 37 47  1  0
 38 41  1  0
 39 43  1  0
 39 38  1  0
 40 39  2  0
 43 42  1  0
 45 43  1  0
 45 46  1  0
 45 44  1  0
 47 50  1  1
 47 48  1  0
 49 47  1  0
 51  1  1  0
 52 51  1  0
 53 52  1  0
 54 56  1  0
 54 53  1  0
 55 53  2  0
 57 54  1  0
 58 59  1  0
 58 57  1  0
 60 61  1  0
 60 59  1  0
 61 70  1  0
 62 70  1  0
 62 68  1  0
 63 68  1  0
 64 65  1  0
 64 63  1  0
 66 65  1  0
 66 75  1  0
 66 67  1  0
 68 67  1  0
 69 62  2  0
 70 71  1  0
 72 73  2  0
 73 92  1  0
 74 73  1  0
 74 77  1  0
 75 76  1  0
 75 72  1  0
 76 74  2  0
 77 78  1  0
 78 79  2  0
 80 83  1  0
 80 79  1  0
 81 80  2  0
 82 81  1  0
 82 77  2  0
 83 84  1  0
 84 89  2  0
 84 85  1  0
 85 86  2  0
 86 87  1  0
 87 91  1  0
 88 87  2  0
 89 88  1  0
 90 89  1  0
 92 93  1  0
 93 96  1  0
 93 95  1  0
 94 92  2  0
 97 72  1  0
 97 98  1  0
 99 97  1  0
M  ISO  4   9 101  10 101  62 100  70 100
M  END
>  <TORSDO>  (21) 
F 29

>  <SCORE>  (21) 
-7.940

>  <name>  (21) 
23

>  <ligand_id>  (21) 
23

>  <original_smiles>  (21) 
[H]c1c([H])c([H])c2c(c1[H])C([H])([H])C([H])([H])C([H])([H])C2([H])N([H])C(=O)C1([H])N(C(=O)C([H])(N([H])C(=O)C([H])(N([H])C([H])([H])[H])C([H])([H])[H])C(C([H])([H])[H])(C([H])([H])[H])C([H])([H])[H])C([H])([H])c2c([H])c(OC([H])([H])C([H])([H])C(=O)N([H])C([H])([H])C([H])([H])C([H])([H])C([H])([H])C([H])([H])C(=O)N([H])C([H])([H])C([H])([H])C([H])([H])C([H])([H])C([H])([H])N([H])C(=O)N3C([H])([H])C([H])([H])C([H])([H])C([H])(n4nc(-c5c([H])c([H])c(Oc6c([H])c([H])c(F)c([H])c6F)c([H])c5[H])c(C(=O)N([H])[H])c4N([H])[H])C3([H])[H])c([H])c([H])c2C1([H])[H]

>  <smiles>  (21) 
[H]c1c([H])c([H])c2c(c1[H])C([H])([H])C([H])([H])C([H])([H])C2([H])N([H])C(=O)C1([H])N(C(=O)C([H])(N([H])C(=O)C([H])(N([H])C([H])([H])[H])C([H])([H])[H])C(C([H])([H])[H])(C([H])([H])[H])C([H])([H])[H])C([H])([H])c2c([H])c(OC([H])([H])C([H])([H])C(=O)N([H])C([H])([H])C([H])([H])C([H])([H])C([H])([H])C([H])([H])C(=O)N([H])C([H])([H])C([H])([H])C([H])([H])C([H])([H])C([H])([H])N([H])C(=O)N3C([H])([H])C([H])([H])C([H])([H])C([H])(n4nc(-c5c([H])c([H])c(Oc6c([H])c([H])c(F)c([H])c6F)c([H])c5[H])c(C(=O)N([H])[H])c4N([H])[H])C3([H])[H])c([H])c([H])c2C1([H])[H]

$$$$
24:0:0
     RDKit          3D

103110  0  0  1  0  0  0  0  0999 V2000
  -22.0910  -21.9380   20.2210 C   0  0  0  0  0  2  0  0  0  0  0  0
  -23.0490  -21.4590   19.1040 C   0  0  0  0  0  2  0  0  0  0  0  0
  -24.4990  -21.9890   19.2000 C   0  0  0  0  0  2  0  0  0  0  0  0
  -24.7060  -23.1410   18.3050 N   0  0  0  0  0  4  0  0  0  0  0  0
  -23.9810  -23.8150   18.4930 H   0  0  0  0  0  0  0  0  0  0  0  0
  -24.5800  -22.7940   17.3690 H   0  0  0  0  0  0  0  0  0  0  0  0
  -26.0190  -23.8110   18.3570 C   0  0  0  0  0  2  0  0  0  0  0  0
  -26.1980  -24.6960   17.1130 C   0  0  0  0  0  2  0  0  0  0  0  0
  -27.0630  -25.9390   17.3590 C   0  0  0  0  0  2  0  0  0  0  0  0
  -29.4150  -26.5740   16.9070 C   0  0  0  0  0  0  0  0  0  0  0  0
  -28.4280  -25.6770   16.9240 N   0  0  0  0  0  0  0  0  0  0  0  0
  -29.2220  -27.7780   17.0820 O   0  0  0  0  0  0  0  0  0  0  0  0
  -28.6800  -24.7160   16.7370 H   0  0  0  0  0  0  0  0  0  0  0  0
  -30.8200  -26.0240   16.6710 C   0  0  0  0  0  2  0  0  0  0  0  0
  -33.0260  -26.9730   17.1170 C   0  0  0  0  0  0  0  0  0  0  0  0
  -34.5120  -27.7150   18.9440 C   0  0  0  0  0  2  0  0  0  0  0  0
  -34.7050  -26.6250   20.0150 C   0  0  0  0  0  2  0  0  0  0  0  0
  -33.5840  -26.6910   21.0680 C   0  0  0  0  0  2  0  0  0  0  0  0
  -32.1730  -26.7400   20.4270 C   0  0  0  0  0  3  0  0  0  0  0  0
  -32.1150  -27.8170   19.3240 C   0  0  0  0  0  2  0  0  0  0  0  0
  -33.1820  -27.5470   18.3410 N   0  0  0  0  0  0  0  0  0  0  0  0
  -33.9670  -26.5360   16.4510 O   0  0  0  0  0  0  0  0  0  0  0  0
  -31.8200  -27.0850   16.5550 N   0  0  0  0  0  0  0  0  0  0  0  0
  -31.8900  -27.3680   15.5880 H   0  0  0  0  0  0  0  0  0  0  0  0
  -30.0000  -26.1920   21.7000 C   0  0  0  0  0  0  0  0  0  0  0  0
  -29.4120  -26.7650   22.7950 C   0  0  0  0  0  0  0  0  0  0  0  0
  -30.2560  -27.8570   23.1700 C   0  0  0  0  0  0  0  0  0  0  0  0
  -31.1360  -26.9430   21.4390 N   0  0  0  0  0  0  0  0  0  0  0  0
  -31.2590  -27.9790   22.3080 N   0  0  0  0  0  0  0  0  0  0  0  0
  -30.1970  -28.7550   24.3290 C   0  0  0  0  0  0  0  0  0  0  0  0
  -29.1830  -29.7320   24.4540 C   0  0  0  0  0  3  0  0  0  0  0  0
  -29.1400  -30.5750   25.5840 C   0  0  0  0  0  3  0  0  0  0  0  0
  -30.1080  -30.4440   26.6070 C   0  0  0  0  0  0  0  0  0  0  0  0
  -31.1300  -29.4880   26.4650 C   0  0  0  0  0  3  0  0  0  0  0  0
  -31.1760  -28.6530   25.3370 C   0  0  0  0  0  3  0  0  0  0  0  0
  -30.1570  -31.2350   27.7270 O   0  0  0  0  0  0  0  0  0  0  0  0
  -29.3550  -30.9950   28.8130 C   0  0  0  0  0  0  0  0  0  0  0  0
  -29.1430  -29.6900   29.3100 C   0  0  0  0  0  3  0  0  0  0  0  0
  -28.3670  -29.4960   30.4700 C   0  0  0  0  0  3  0  0  0  0  0  0
  -27.8100  -30.6040   31.1370 C   0  0  0  0  0  0  0  0  0  0  0  0
  -28.0210  -31.9040   30.6460 C   0  0  0  0  0  3  0  0  0  0  0  0
  -28.7950  -32.0980   29.4880 C   0  0  0  0  0  0  0  0  0  0  0  0
  -29.0140  -33.3550   29.0300 F   0  0  0  0  0  0  0  0  0  0  0  0
  -27.0690  -30.4190   32.2560 F   0  0  0  0  0  0  0  0  0  0  0  0
  -28.1920  -26.2670   23.5150 C   0  0  0  0  0  0  0  0  0  0  0  0
  -27.4890  -27.1420   24.2200 N   0  0  0  0  0  0  0  0  0  0  0  0
  -27.8230  -25.0950   23.4140 O   0  0  0  0  0  0  0  0  0  0  0  0
  -27.7480  -28.1170   24.2660 H   0  0  0  0  0  0  0  0  0  0  0  0
  -26.6750  -26.8320   24.7310 H   0  0  0  0  0  0  0  0  0  0  0  0
  -29.6770  -25.0820   20.9250 N   0  0  0  0  0  0  0  0  0  0  0  0
  -28.9920  -24.4190   21.2640 H   0  0  0  0  0  0  0  0  0  0  0  0
  -30.3060  -24.6830   20.2420 H   0  0  0  0  0  0  0  0  0  0  0  0
  -21.6270  -23.4080   20.0890 C   0  0  0  0  0  2  0  0  0  0  0  0
  -21.9460  -24.2860   21.3190 C   0  0  0  0  0  2  0  0  0  0  0  0
  -22.2130  -25.7480   20.9230 C   0  0  0  0  0  2  0  0  0  0  0  0
  -23.9740  -27.0570   22.1250 C   0  0  0  0  0  0  0  0  0  0  0  0
  -22.7520  -26.5190   22.0350 N   0  0  0  0  0  0  0  0  0  0  0  0
  -24.8890  -26.8080   21.3380 O   0  0  0  0  0  0  0  0  0  0  0  0
  -22.0890  -26.7830   22.7560 H   0  0  0  0  0  0  0  0  0  0  0  0
  -24.1410  -28.0530   23.2710 C   0  0  0  0  0  2  0  0  0  0  0  0
  -25.4060  -28.9380   23.2590 C   0  0  0  0  0  2  0  0  0  0  0  0
  -25.1650  -30.3800   23.7850 C   0  0  0  0  0  2  0  0  0  0  0  0
  -25.9600  -31.4100   23.1780 O   0  0  0  0  0  0  0  0  0  0  0  0
  -30.1540  -37.0860   23.9420 C   0  0  0  0  0  0  0  0  0  0  0  0
  -26.0720  -32.6630   23.7480 C   0  0  0  0  0  0  0  0  0  0  0  0
  -28.1910  -37.0010   25.4450 C   0  0  0  0  0  3  0  0  0  0  0  0
  -26.4400  -35.2340   24.8780 C   0  0  0  0  0  0  0  0  0  0  0  0
  -28.1330  -35.8650   23.1560 C   0  0  0  0  0  2  0  0  0  0  0  0
  -27.1700  -34.8560   23.7470 C   0  0  0  0  0  0  0  0  0  0  0  0
  -26.9980  -33.5710   23.1850 C   0  0  0  0  0  3  0  0  0  0  0  0
  -25.3050  -33.0910   24.8560 C   0  0  0  0  0  3  0  0  0  0  0  0
  -25.5050  -34.3530   25.4410 C   0  0  0  0  0  3  0  0  0  0  0  0
  -26.6850  -36.6210   25.4270 C   0  0  0  0  0  2  0  0  0  0  0  0
  -28.8860  -36.6390   24.1690 N   0  0  0  0  0  0  0  0  0  0  0  0
  -30.7300  -37.8160   24.7600 O   0  0  0  0  0  0  0  0  0  0  0  0
  -28.8450  -36.3700   26.6940 C   0  0  0  0  0  0  0  0  0  0  0  0
  -30.0580  -36.8340   27.0310 N   0  0  0  0  0  0  0  0  0  0  0  0
  -28.2570  -35.5050   27.3490 O   0  0  0  0  0  0  0  0  0  0  0  0
  -30.4750  -37.5400   26.4410 H   0  0  0  0  0  0  0  0  0  0  0  0
  -33.4330  -36.3360   28.2210 C   0  0  0  0  0  0  0  0  0  0  0  0
  -30.8500  -36.4090   28.1850 C   0  0  0  0  0  3  0  0  0  0  0  0
  -30.9680  -37.5470   29.2250 C   0  0  0  0  0  2  0  0  0  0  0  0
  -32.2240  -38.4050   29.0400 C   0  0  0  0  0  2  0  0  0  0  0  0
  -33.4840  -37.5410   29.1460 C   0  0  0  0  0  2  0  0  0  0  0  0
  -32.1960  -35.8150   27.7570 C   0  0  0  0  0  0  0  0  0  0  0  0
  -32.2050  -34.7170   26.8700 C   0  0  0  0  0  3  0  0  0  0  0  0
  -33.4180  -34.1430   26.4470 C   0  0  0  0  0  3  0  0  0  0  0  0
  -34.6390  -34.6530   26.9200 C   0  0  0  0  0  3  0  0  0  0  0  0
  -34.6440  -35.7420   27.8110 C   0  0  0  0  0  3  0  0  0  0  0  0
  -30.9290  -36.7180   22.6370 C   0  0  0  0  0  3  0  0  0  0  0  0
  -31.6200  -35.3010   22.7000 C   0  0  1  0  0  0  0  0  0  0  0  0
  -32.9150  -35.2780   23.5450 C   0  0  0  0  0  1  0  0  0  0  0  0
  -30.6530  -34.2460   23.2880 C   0  0  0  0  0  1  0  0  0  0  0  0
  -31.9750  -34.8220   21.2710 C   0  0  0  0  0  1  0  0  0  0  0  0
  -31.9270  -37.7710   22.4080 N   0  0  0  0  0  0  0  0  0  0  0  0
  -31.8180  -38.7280   21.4770 C   0  0  0  0  0  0  0  0  0  0  0  0
  -30.8900  -38.7700   20.6630 O   0  0  0  0  0  0  0  0  0  0  0  0
  -32.6880  -37.8240   23.0700 H   0  0  0  0  0  0  0  0  0  0  0  0
  -32.3070  -41.1690   21.8340 C   0  0  0  0  0  1  0  0  0  0  0  0
  -32.9130  -39.8110   21.4420 C   0  0  0  0  0  3  0  0  0  0  0  0
  -34.5070  -38.8260   19.8560 C   0  0  0  0  0  1  0  0  0  0  0  0
  -33.5860  -39.9260   20.1300 N   0  0  0  0  0  0  0  0  0  0  0  0
  -34.1100  -40.7950   20.0710 H   0  0  0  0  0  0  0  0  0  0  0  0
  2  3  1  0
  2  1  1  0
  4  7  1  0
  4  5  1  0
  4  3  1  0
  6  4  1  0
  8  9  1  0
  8  7  1  0
 10 11  1  0
 10 12  2  0
 11  9  1  0
 13 11  1  0
 14 10  1  0
 15 21  1  0
 16 17  1  0
 17 18  1  0
 19 20  1  0
 19 18  1  0
 19 28  1  0
 21 16  1  0
 21 20  1  0
 22 15  2  0
 23 14  1  0
 23 15  1  0
 24 23  1  0
 25 26  2  0
 26 27  1  0
 26 45  1  0
 27 30  1  0
 28 25  1  0
 28 29  1  0
 29 27  2  0
 30 31  2  0
 30 35  1  0
 31 32  1  0
 32 33  2  0
 33 36  1  0
 34 33  1  0
 35 34  2  0
 36 37  1  0
 37 38  2  0
 37 42  1  0
 38 39  1  0
 39 40  2  0
 40 44  1  0
 41 40  1  0
 42 41  2  0
 43 42  1  0
 45 46  1  0
 46 48  1  0
 46 49  1  0
 47 45  2  0
 50 51  1  0
 50 25  1  0
 52 50  1  0
 53  1  1  0
 53 54  1  0
 55 54  1  0
 55 57  1  0
 56 60  1  0
 57 56  1  0
 57 59  1  0
 58 56  2  0
 61 60  1  0
 61 62  1  0
 63 65  1  0
 63 62  1  0
 64 74  1  0
 64 75  2  0
 65 71  1  0
 66 76  1  0
 67 73  1  0
 67 72  1  0
 68 69  1  0
 68 74  1  0
 69 67  2  0
 70 69  1  0
 70 65  2  0
 71 72  2  0
 73 66  1  0
 74 66  1  0
 76 77  1  0
 76 78  2  0
 79 77  1  0
 80 84  1  0
 81 77  1  0
 81 82  1  0
 83 84  1  0
 83 82  1  0
 85 81  1  0
 85 80  2  0
 86 85  1  0
 87 86  2  0
 87 88  1  0
 88 89  2  0
 89 80  1  0
 90 91  1  0
 90 64  1  0
 91 93  1  1
 91 92  1  0
 94 91  1  0
 95 90  1  0
 95 98  1  0
 96 95  1  0
 97 96  2  0
100 96  1  0
100 99  1  0
101102  1  0
102100  1  0
103102  1  0
M  ISO  4  15 100  23 100  62 101  63 101
M  END
>  <TORSDO>  (22) 
F 31

>  <SCORE>  (22) 
2.434

>  <name>  (22) 
24

>  <ligand_id>  (22) 
24

>  <original_smiles>  (22) 
[H]c1c([H])c([H])c2c(c1[H])C([H])([H])C([H])([H])C([H])([H])C2([H])N([H])C(=O)C1([H])N(C(=O)C([H])(N([H])C(=O)C([H])(N([H])C([H])([H])[H])C([H])([H])[H])C(C([H])([H])[H])(C([H])([H])[H])C([H])([H])[H])C([H])([H])c2c([H])c(OC([H])([H])C([H])([H])C([H])([H])C(=O)N([H])C([H])([H])C([H])([H])C([H])([H])C([H])([H])C([H])([H])C([H])([H])[N+]([H])([H])C([H])([H])C([H])([H])C([H])([H])N([H])C(=O)C([H])([H])N([H])C(=O)N3C([H])([H])C([H])([H])C([H])([H])C([H])(n4nc(-c5c([H])c([H])c(Oc6c([H])c([H])c(F)c([H])c6F)c([H])c5[H])c(C(=O)N([H])[H])c4N([H])[H])C3([H])[H])c([H])c([H])c2C1([H])[H]

>  <smiles>  (22) 
[H]c1c([H])c([H])c2c(c1[H])C([H])([H])C([H])([H])C([H])([H])C2([H])N([H])C(=O)C1([H])N(C(=O)C([H])(N([H])C(=O)C([H])(N([H])C([H])([H])[H])C([H])([H])[H])C(C([H])([H])[H])(C([H])([H])[H])C([H])([H])[H])C([H])([H])c2c([H])c(OC([H])([H])C([H])([H])C([H])([H])C(=O)N([H])C([H])([H])C([H])([H])C([H])([H])C([H])([H])C([H])([H])C([H])([H])[N+]([H])([H])C([H])([H])C([H])([H])C([H])([H])N([H])C(=O)C([H])([H])N([H])C(=O)N3C([H])([H])C([H])([H])C([H])([H])C([H])(n4nc(-c5c([H])c([H])c(Oc6c([H])c([H])c(F)c([H])c6F)c([H])c5[H])c(C(=O)N([H])[H])c4N([H])[H])C3([H])[H])c([H])c([H])c2C1([H])[H]

$$$$
25:0:0
     RDKit          3D

108115  0  0  1  0  0  0  0  0999 V2000
  -28.4660  -22.5990   13.1730 C   0  0  0  0  0  2  0  0  0  0  0  0
  -29.9710  -22.5450   13.5040 C   0  0  0  0  0  2  0  0  0  0  0  0
  -30.2700  -21.8600   14.8510 C   0  0  0  0  0  2  0  0  0  0  0  0
  -31.6610  -22.1940   15.4110 C   0  0  0  0  0  2  0  0  0  0  0  0
  -31.3860  -24.0120   17.0770 C   0  0  0  0  0  0  0  0  0  0  0  0
  -31.7210  -23.5840   15.8530 N   0  0  0  0  0  0  0  0  0  0  0  0
  -31.0710  -23.2440   17.9890 O   0  0  0  0  0  0  0  0  0  0  0  0
  -31.9740  -24.2750   15.1590 H   0  0  0  0  0  0  0  0  0  0  0  0
  -31.3960  -25.5180   17.3170 C   0  0  0  0  0  2  0  0  0  0  0  0
  -30.7210  -25.8380   18.5900 N   0  0  0  0  0  4  0  0  0  0  0  0
  -31.2310  -25.3810   19.3300 H   0  0  0  0  0  0  0  0  0  0  0  0
  -29.8100  -25.4060   18.5650 H   0  0  0  0  0  0  0  0  0  0  0  0
  -30.5640  -27.2830   18.8640 C   0  0  0  0  0  2  0  0  0  0  0  0
  -29.7930  -27.5260   20.1650 C   0  0  0  0  0  2  0  0  0  0  0  0
  -28.5110  -26.9050   20.0300 O   0  0  0  0  0  0  0  0  0  0  0  0
  -24.5450  -31.9370   23.2160 C   0  0  0  0  0  0  0  0  0  0  0  0
  -27.3600  -27.6610   20.0890 C   0  0  0  0  0  0  0  0  0  0  0  0
  -23.3930  -30.5450   21.5190 C   0  0  0  0  0  3  0  0  0  0  0  0
  -24.9070  -29.0690   20.0930 C   0  0  0  0  0  0  0  0  0  0  0  0
  -25.9050  -30.9750   21.3710 C   0  0  0  0  0  2  0  0  0  0  0  0
  -26.0330  -29.6180   20.7140 C   0  0  0  0  0  0  0  0  0  0  0  0
  -27.2560  -28.9190   20.7280 C   0  0  0  0  0  3  0  0  0  0  0  0
  -26.2100  -27.1100   19.4830 C   0  0  0  0  0  3  0  0  0  0  0  0
  -24.9860  -27.8070   19.4780 C   0  0  0  0  0  3  0  0  0  0  0  0
  -23.6400  -29.8930   20.1300 C   0  0  0  0  0  2  0  0  0  0  0  0
  -24.6310  -31.1650   22.0950 N   0  0  0  0  0  0  0  0  0  0  0  0
  -23.4510  -32.1760   23.7430 O   0  0  0  0  0  0  0  0  0  0  0  0
  -22.7470  -29.4940   22.4480 C   0  0  0  0  0  0  0  0  0  0  0  0
  -21.4210  -29.3260   22.3250 N   0  0  0  0  0  0  0  0  0  0  0  0
  -23.4340  -28.8330   23.2310 O   0  0  0  0  0  0  0  0  0  0  0  0
  -20.9290  -29.9110   21.6660 H   0  0  0  0  0  0  0  0  0  0  0  0
  -18.0360  -28.1840   22.8450 C   0  0  0  0  0  0  0  0  0  0  0  0
  -20.6050  -28.3660   23.0650 C   0  0  0  0  0  3  0  0  0  0  0  0
  -20.6590  -26.9670   22.4090 C   0  0  0  0  0  2  0  0  0  0  0  0
  -19.5240  -26.7260   21.4080 C   0  0  0  0  0  2  0  0  0  0  0  0
  -18.1630  -26.8680   22.0940 C   0  0  0  0  0  2  0  0  0  0  0  0
  -19.1830  -28.8940   23.2870 C   0  0  0  0  0  0  0  0  0  0  0  0
  -19.0100  -30.1300   23.9480 C   0  0  0  0  0  3  0  0  0  0  0  0
  -17.7230  -30.6540   24.1710 C   0  0  0  0  0  3  0  0  0  0  0  0
  -16.5900  -29.9380   23.7460 C   0  0  0  0  0  3  0  0  0  0  0  0
  -16.7480  -28.7040   23.0890 C   0  0  0  0  0  3  0  0  0  0  0  0
  -25.8110  -32.5740   23.8710 C   0  0  0  0  0  3  0  0  0  0  0  0
  -26.3560  -31.7510   25.1020 C   0  0  1  0  0  0  0  0  0  0  0  0
  -25.2690  -31.4070   26.1460 C   0  0  0  0  0  1  0  0  0  0  0  0
  -26.9970  -30.4260   24.6300 C   0  0  0  0  0  1  0  0  0  0  0  0
  -27.4700  -32.5520   25.8170 C   0  0  0  0  0  1  0  0  0  0  0  0
  -25.4590  -33.9420   24.2710 N   0  0  0  0  0  0  0  0  0  0  0  0
  -25.7600  -35.0400   23.5660 C   0  0  0  0  0  0  0  0  0  0  0  0
  -26.4340  -35.0100   22.5330 O   0  0  0  0  0  0  0  0  0  0  0  0
  -24.8570  -34.0370   25.0770 H   0  0  0  0  0  0  0  0  0  0  0  0
  -23.9690  -36.7850   23.3010 C   0  0  0  0  0  1  0  0  0  0  0  0
  -25.2270  -36.3870   24.0900 C   0  0  0  0  0  3  0  0  0  0  0  0
  -27.3340  -37.3040   24.9560 C   0  0  0  0  0  1  0  0  0  0  0  0
  -26.2230  -37.4790   24.0250 N   0  0  0  0  0  0  0  0  0  0  0  0
  -25.7860  -38.3760   24.2150 H   0  0  0  0  0  0  0  0  0  0  0  0
  -27.7710  -23.9470   13.4670 C   0  0  0  0  0  2  0  0  0  0  0  0
  -27.8830  -24.4190   14.9170 C   0  0  0  0  0  0  0  0  0  0  0  0
  -26.9470  -23.9810   15.7670 N   0  0  0  0  0  0  0  0  0  0  0  0
  -28.7880  -25.1860   15.2530 O   0  0  0  0  0  0  0  0  0  0  0  0
  -26.2410  -23.3550   15.4020 H   0  0  0  0  0  0  0  0  0  0  0  0
  -26.8120  -24.3930   17.1630 C   0  0  0  0  0  2  0  0  0  0  0  0
  -27.8260  -23.7020   18.0970 C   0  0  0  0  0  2  0  0  0  0  0  0
  -27.7080  -22.1690   18.1230 C   0  0  0  0  0  2  0  0  0  0  0  0
  -28.7140  -21.5050   19.0800 C   0  0  0  0  0  2  0  0  0  0  0  0
  -28.5870  -19.9730   19.0630 C   0  0  0  0  0  2  0  0  0  0  0  0
  -29.3950  -18.1150   20.4800 C   0  0  0  0  0  0  0  0  0  0  0  0
  -29.5750  -19.3180   19.9220 N   0  0  0  0  0  0  0  0  0  0  0  0
  -28.3380  -17.4920   20.3570 O   0  0  0  0  0  0  0  0  0  0  0  0
  -30.4620  -19.7800   20.0670 H   0  0  0  0  0  0  0  0  0  0  0  0
  -30.5460  -17.5110   21.2920 C   0  0  0  0  0  2  0  0  0  0  0  0
  -30.9890  -15.2130   20.4840 C   0  0  0  0  0  0  0  0  0  0  0  0
  -30.6500  -13.2160   19.0820 C   0  0  0  0  0  2  0  0  0  0  0  0
  -29.7070  -13.5620   17.9120 C   0  0  0  0  0  2  0  0  0  0  0  0
  -28.2350  -13.3980   18.3320 C   0  0  0  0  0  2  0  0  0  0  0  0
  -27.9130  -14.1090   19.6700 C   0  0  0  0  0  3  0  0  0  0  0  0
  -28.9610  -13.7410   20.7470 C   0  0  0  0  0  2  0  0  0  0  0  0
  -30.2980  -14.0730   20.2240 N   0  0  0  0  0  0  0  0  0  0  0  0
  -32.0480  -15.5120   19.9220 O   0  0  0  0  0  0  0  0  0  0  0  0
  -30.3910  -16.0550   21.3290 N   0  0  0  0  0  0  0  0  0  0  0  0
  -29.5290  -15.7250   21.7360 H   0  0  0  0  0  0  0  0  0  0  0  0
  -25.4910  -14.6870   20.3470 C   0  0  0  0  0  0  0  0  0  0  0  0
  -24.4220  -13.8960   20.6730 C   0  0  0  0  0  0  0  0  0  0  0  0
  -24.8970  -12.5510   20.6120 C   0  0  0  0  0  0  0  0  0  0  0  0
  -26.5500  -13.8230   20.1150 N   0  0  0  0  0  0  0  0  0  0  0  0
  -26.1920  -12.5300   20.3290 N   0  0  0  0  0  0  0  0  0  0  0  0
  -24.1800  -11.2760   20.7540 C   0  0  0  0  0  0  0  0  0  0  0  0
  -24.6200  -10.2830   21.6570 C   0  0  0  0  0  3  0  0  0  0  0  0
  -23.9080   -9.0730   21.7930 C   0  0  0  0  0  3  0  0  0  0  0  0
  -22.7420   -8.8460   21.0260 C   0  0  0  0  0  0  0  0  0  0  0  0
  -22.3200   -9.8280   20.1120 C   0  0  0  0  0  3  0  0  0  0  0  0
  -23.0320  -11.0320   19.9740 C   0  0  0  0  0  3  0  0  0  0  0  0
  -22.0010   -7.6910   21.0710 O   0  0  0  0  0  0  0  0  0  0  0  0
  -21.9300   -6.9230   22.2060 C   0  0  0  0  0  0  0  0  0  0  0  0
  -21.4990   -7.4560   23.4410 C   0  0  0  0  0  3  0  0  0  0  0  0
  -21.3780   -6.6140   24.5660 C   0  0  0  0  0  3  0  0  0  0  0  0
  -21.6770   -5.2430   24.4550 C   0  0  0  0  0  0  0  0  0  0  0  0
  -22.0990   -4.7110   23.2240 C   0  0  0  0  0  3  0  0  0  0  0  0
  -22.2230   -5.5490   22.1020 C   0  0  0  0  0  0  0  0  0  0  0  0
  -22.6120   -5.0270   20.9140 F   0  0  0  0  0  0  0  0  0  0  0  0
  -21.5520   -4.4340   25.5320 F   0  0  0  0  0  0  0  0  0  0  0  0
  -23.0160  -14.3520   20.9380 C   0  0  0  0  0  0  0  0  0  0  0  0
  -22.2860  -13.6250   21.7770 N   0  0  0  0  0  0  0  0  0  0  0  0
  -22.5700  -15.3840   20.4370 O   0  0  0  0  0  0  0  0  0  0  0  0
  -22.6570  -12.7880   22.2040 H   0  0  0  0  0  0  0  0  0  0  0  0
  -21.3420  -13.9070   21.9990 H   0  0  0  0  0  0  0  0  0  0  0  0
  -25.6470  -16.0650   20.2160 N   0  0  0  0  0  0  0  0  0  0  0  0
  -24.8850  -16.7160   20.3680 H   0  0  0  0  0  0  0  0  0  0  0  0
  -26.5380  -16.5280   20.0460 H   0  0  0  0  0  0  0  0  0  0  0  0
  1 56  1  0
  1  2  1  0
  2  3  1  0
  3  4  1  0
  4  6  1  0
  5  9  1  0
  5  7  2  0
  6  5  1  0
  8  6  1  0
  9 10  1  0
 10 13  1  0
 10 11  1  0
 12 10  1  0
 13 14  1  0
 15 17  1  0
 15 14  1  0
 16 27  2  0
 17 22  1  0
 18 26  1  0
 18 28  1  0
 19 25  1  0
 19 21  1  0
 20 26  1  0
 21 22  2  0
 21 20  1  0
 23 17  2  0
 24 23  1  0
 24 19  2  0
 25 18  1  0
 26 16  1  0
 28 30  2  0
 29 28  1  0
 31 29  1  0
 32 41  2  0
 32 37  1  0
 33 29  1  0
 33 37  1  0
 34 33  1  0
 35 36  1  0
 35 34  1  0
 36 32  1  0
 37 38  2  0
 38 39  1  0
 40 39  2  0
 41 40  1  0
 42 16  1  0
 42 47  1  0
 42 43  1  0
 43 46  1  1
 43 44  1  0
 45 43  1  0
 47 50  1  0
 48 52  1  0
 48 47  1  0
 49 48  2  0
 52 51  1  0
 54 52  1  0
 54 55  1  0
 54 53  1  0
 56 57  1  0
 57 59  2  0
 57 58  1  0
 58 61  1  0
 60 58  1  0
 61 62  1  0
 62 63  1  0
 63 64  1  0
 65 64  1  0
 65 67  1  0
 66 70  1  0
 67 69  1  0
 67 66  1  0
 68 66  2  0
 70 79  1  0
 71 79  1  0
 72 77  1  0
 73 74  1  0
 73 72  1  0
 75 74  1  0
 75 84  1  0
 75 76  1  0
 77 71  1  0
 77 76  1  0
 78 71  2  0
 79 80  1  0
 81 82  2  0
 82101  1  0
 83 82  1  0
 83 86  1  0
 84 85  1  0
 84 81  1  0
 85 83  2  0
 86 87  1  0
 87 88  2  0
 89 92  1  0
 89 88  1  0
 90 89  2  0
 91 90  1  0
 91 86  2  0
 92 93  1  0
 93 94  1  0
 94 95  2  0
 96 95  1  0
 96100  1  0
 97 96  2  0
 98 93  2  0
 98 97  1  0
 99 98  1  0
101102  1  0
102105  1  0
102104  1  0
103101  2  0
106 81  1  0
106107  1  0
108106  1  0
M  ISO  4  14 101  15 101  71 100  79 100
M  END
>  <TORSDO>  (23) 
F 33

>  <SCORE>  (23) 
-5.969

>  <name>  (23) 
25

>  <ligand_id>  (23) 
25

>  <original_smiles>  (23) 
[H]c1c([H])c([H])c2c(c1[H])C([H])([H])C([H])([H])C([H])([H])C2([H])N([H])C(=O)C1([H])N(C(=O)C([H])(N([H])C(=O)C([H])(N([H])C([H])([H])[H])C([H])([H])[H])C(C([H])([H])[H])(C([H])([H])[H])C([H])([H])[H])C([H])([H])c2c([H])c(OC([H])([H])C([H])([H])[N+]([H])([H])C([H])([H])C(=O)N([H])C([H])([H])C([H])([H])C([H])([H])C([H])([H])C([H])([H])C(=O)N([H])C([H])([H])C([H])([H])C([H])([H])C([H])([H])C([H])([H])N([H])C(=O)C([H])([H])N([H])C(=O)N3C([H])([H])C([H])([H])C([H])([H])C([H])(n4nc(-c5c([H])c([H])c(Oc6c([H])c([H])c(F)c([H])c6F)c([H])c5[H])c(C(=O)N([H])[H])c4N([H])[H])C3([H])[H])c([H])c([H])c2C1([H])[H]

>  <smiles>  (23) 
[H]c1c([H])c([H])c2c(c1[H])C([H])([H])C([H])([H])C([H])([H])C2([H])N([H])C(=O)C1([H])N(C(=O)C([H])(N([H])C(=O)C([H])(N([H])C([H])([H])[H])C([H])([H])[H])C(C([H])([H])[H])(C([H])([H])[H])C([H])([H])[H])C([H])([H])c2c([H])c(OC([H])([H])C([H])([H])[N+]([H])([H])C([H])([H])C(=O)N([H])C([H])([H])C([H])([H])C([H])([H])C([H])([H])C([H])([H])C(=O)N([H])C([H])([H])C([H])([H])C([H])([H])C([H])([H])C([H])([H])N([H])C(=O)C([H])([H])N([H])C(=O)N3C([H])([H])C([H])([H])C([H])([H])C([H])(n4nc(-c5c([H])c([H])c(Oc6c([H])c([H])c(F)c([H])c6F)c([H])c5[H])c(C(=O)N([H])[H])c4N([H])[H])C3([H])[H])c([H])c([H])c2C1([H])[H]

$$$$
26:0:0
     RDKit          3D

 98102  0  0  1  0  0  0  0  0999 V2000
  -23.8670  -29.8010   24.6640 C   0  0  0  0  0  2  0  0  0  0  0  0
  -22.7350  -28.0850   25.4050 C   0  0  0  0  0  2  0  0  0  0  0  0
  -22.4590  -30.5530   23.9520 C   0  0  0  0  0  3  0  0  0  0  0  0
  -21.4750  -29.1190   24.8610 C   0  0  0  0  0  3  0  0  0  0  0  0
  -24.1440  -28.3320   24.9330 N   0  0  0  0  0  0  0  0  0  0  0  0
  -21.3380  -29.8120   23.2800 N   0  0  0  0  0  0  0  0  0  0  0  0
  -20.5450  -30.4380   23.3190 H   0  0  0  0  0  0  0  0  0  0  0  0
  -25.4040  -27.3380   24.4800 C   0  0  0  0  0  2  0  0  0  0  0  0
  -26.0920  -26.5380   22.9830 C   0  0  0  0  0  2  0  0  0  0  0  0
  -27.2680  -26.6850   21.8550 O   0  0  0  0  0  0  0  0  0  0  0  0
  -24.8210  -32.0570   22.9950 C   0  0  0  0  0  0  0  0  0  0  0  0
  -27.0380  -27.3920   20.6870 C   0  0  0  0  0  0  0  0  0  0  0  0
  -23.5880  -30.1680   21.4900 C   0  0  0  0  0  3  0  0  0  0  0  0
  -25.0950  -29.0950   19.8270 C   0  0  0  0  0  0  0  0  0  0  0  0
  -26.0510  -30.8950   21.2900 C   0  0  0  0  0  2  0  0  0  0  0  0
  -26.1830  -29.5880   20.5570 C   0  0  0  0  0  0  0  0  0  0  0  0
  -27.2500  -28.7500   20.8680 C   0  0  0  0  0  3  0  0  0  0  0  0
  -26.1440  -26.9210   19.7050 C   0  0  0  0  0  3  0  0  0  0  0  0
  -25.1300  -27.7980   19.2720 C   0  0  0  0  0  3  0  0  0  0  0  0
  -23.8550  -29.9260   19.9760 C   0  0  0  0  0  2  0  0  0  0  0  0
  -24.7840  -31.0460   22.0240 N   0  0  0  0  0  0  0  0  0  0  0  0
  -23.8260  -32.6510   23.4070 O   0  0  0  0  0  0  0  0  0  0  0  0
  -23.4430  -28.6440   22.2470 C   0  0  0  0  0  0  0  0  0  0  0  0
  -22.3970  -27.6880   22.8700 N   0  0  0  0  0  0  0  0  0  0  0  0
  -24.5140  -28.3690   22.4050 O   0  0  0  0  0  0  0  0  0  0  0  0
  -22.9570  -27.0370   23.3940 H   0  0  0  0  0  0  0  0  0  0  0  0
  -17.9600  -27.8790   22.8260 C   0  0  0  0  0  0  0  0  0  0  0  0
  -20.6800  -27.3790   23.2350 C   0  0  0  0  0  3  0  0  0  0  0  0
  -20.3300  -26.1420   22.5510 C   0  0  0  0  0  2  0  0  0  0  0  0
  -19.3380  -26.3450   21.4160 C   0  0  0  0  0  2  0  0  0  0  0  0
  -17.9910  -26.5930   22.0530 C   0  0  0  0  0  2  0  0  0  0  0  0
  -19.1720  -28.3700   23.3850 C   0  0  0  0  0  0  0  0  0  0  0  0
  -18.8570  -29.6910   24.0130 C   0  0  0  0  0  3  0  0  0  0  0  0
  -17.6320  -30.3840   24.0500 C   0  0  0  0  0  3  0  0  0  0  0  0
  -16.5080  -29.7630   23.5360 C   0  0  0  0  0  3  0  0  0  0  0  0
  -16.6850  -28.5080   22.9440 C   0  0  0  0  0  3  0  0  0  0  0  0
  -26.1120  -32.5430   23.7560 C   0  0  0  0  0  3  0  0  0  0  0  0
  -26.5740  -31.7270   25.0330 C   0  0  1  0  0  0  0  0  0  0  0  0
  -25.5110  -31.6530   26.1680 C   0  0  0  0  0  1  0  0  0  0  0  0
  -27.1840  -30.3410   24.6430 C   0  0  0  0  0  1  0  0  0  0  0  0
  -27.7570  -32.4720   25.6970 C   0  0  0  0  0  1  0  0  0  0  0  0
  -25.8140  -33.9060   24.2230 N   0  0  0  0  0  0  0  0  0  0  0  0
  -25.9710  -34.9920   23.4720 C   0  0  0  0  0  0  0  0  0  0  0  0
  -26.5530  -34.9520   22.3870 O   0  0  0  0  0  0  0  0  0  0  0  0
  -25.3380  -33.9890   25.1080 H   0  0  0  0  0  0  0  0  0  0  0  0
  -24.1680  -36.7250   23.2550 C   0  0  0  0  0  1  0  0  0  0  0  0
  -25.4400  -36.3240   24.0180 C   0  0  0  0  0  3  0  0  0  0  0  0
  -27.5720  -37.2020   24.8490 C   0  0  0  0  0  1  0  0  0  0  0  0
  -26.4410  -37.4080   23.9450 N   0  0  0  0  0  0  0  0  0  0  0  0
  -26.0190  -38.3060   24.1660 H   0  0  0  0  0  0  0  0  0  0  0  0
  -21.0640  -29.0710   21.4630 C   0  0  0  0  0 15  0  0  0  0  0  0
  -21.9260  -27.3470   20.4570 C   0  0  0  0  0 15  0  0  0  0  0  0
  -22.6400  -25.4340   20.4460 C   0  0  0  0  0 15  0  0  0  0  0  0
  -24.0850  -24.0620   20.7540 C   0  0  0  0  0 15  0  0  0  0  0  0
  -24.7210  -22.2180   20.2720 C   0  0  0  0  0  1  0  0  0  0  0  0
  -26.5190  -19.4940   20.3610 C   0  0  0  0  0  0  0  0  0  0  0  0
  -26.1000  -21.0230   20.4740 N   0  0  0  0  0  0  0  0  0  0  0  0
  -25.5360  -18.7930   20.1170 O   0  0  0  0  0  0  0  0  0  0  0  0
  -26.9530  -21.5490   20.5940 H   0  0  0  0  0  0  0  0  0  0  0  0
  -28.0630  -18.3670   20.4470 C   0  0  0  0  0  2  0  0  0  0  0  0
  -29.7290  -15.5360   20.3220 C   0  0  0  0  0  0  0  0  0  0  0  0
  -30.3260  -13.0330   19.5020 C   0  0  0  0  0  2  0  0  0  0  0  0
  -29.4900  -12.5770   18.2690 C   0  0  0  0  0  2  0  0  0  0  0  0
  -28.0550  -12.2110   18.6970 C   0  0  0  0  0  2  0  0  0  0  0  0
  -27.5140  -13.2090   19.7480 C   0  0  0  0  0  3  0  0  0  0  0  0
  -28.4700  -13.3930   20.9160 C   0  0  0  0  0  2  0  0  0  0  0  0
  -29.5640  -14.1040   20.2980 N   0  0  0  0  0  0  0  0  0  0  0  0
  -30.9590  -15.7360   20.1530 O   0  0  0  0  0  0  0  0  0  0  0  0
  -28.5660  -16.6200   20.3930 N   0  0  0  0  0  0  0  0  0  0  0  0
  -27.6980  -16.0980   20.4720 H   0  0  0  0  0  0  0  0  0  0  0  0
  -25.2070  -13.8080   20.5510 C   0  0  0  0  0  0  0  0  0  0  0  0
  -24.1500  -13.0370   20.9340 C   0  0  0  0  0  0  0  0  0  0  0  0
  -24.6030  -11.6820   20.8770 C   0  0  0  0  0  0  0  0  0  0  0  0
  -26.2110  -12.9110   20.2560 N   0  0  0  0  0  0  0  0  0  0  0  0
  -25.8800  -11.6320   20.5340 N   0  0  0  0  0  0  0  0  0  0  0  0
  -23.8800  -10.4210   21.0490 C   0  0  0  0  0  0  0  0  0  0  0  0
  -24.3450   -9.4140   21.9230 C   0  0  0  0  0  3  0  0  0  0  0  0
  -23.6180   -8.2150   22.0760 C   0  0  0  0  0  3  0  0  0  0  0  0
  -22.4180   -8.0170   21.3550 C   0  0  0  0  0  0  0  0  0  0  0  0
  -21.9770   -9.0110   20.4660 C   0  0  0  0  0  3  0  0  0  0  0  0
  -22.7020  -10.2020   20.3100 C   0  0  0  0  0  3  0  0  0  0  0  0
  -21.6590   -6.8750   21.4230 O   0  0  0  0  0  0  0  0  0  0  0  0
  -21.6810   -6.0630   22.5270 C   0  0  0  0  0  0  0  0  0  0  0  0
  -21.3960   -6.5570   23.8190 C   0  0  0  0  0  3  0  0  0  0  0  0
  -21.3660   -5.6750   24.9180 C   0  0  0  0  0  3  0  0  0  0  0  0
  -21.6050   -4.3020   24.7260 C   0  0  0  0  0  0  0  0  0  0  0  0
  -21.8830   -3.8070   23.4390 C   0  0  0  0  0  3  0  0  0  0  0  0
  -21.9160   -4.6860   22.3420 C   0  0  0  0  0  0  0  0  0  0  0  0
  -22.1650   -4.2050   21.1000 F   0  0  0  0  0  0  0  0  0  0  0  0
  -21.5650   -3.4510   25.7780 F   0  0  0  0  0  0  0  0  0  0  0  0
  -22.7610  -13.5220   21.2060 C   0  0  0  0  0  0  0  0  0  0  0  0
  -22.0210  -12.8200   22.0560 N   0  0  0  0  0  0  0  0  0  0  0  0
  -22.3380  -14.5550   20.6880 O   0  0  0  0  0  0  0  0  0  0  0  0
  -22.3730  -11.9790   22.4920 H   0  0  0  0  0  0  0  0  0  0  0  0
  -21.0840  -13.1310   22.2730 H   0  0  0  0  0  0  0  0  0  0  0  0
  -25.3930  -15.1780   20.3750 N   0  0  0  0  0  0  0  0  0  0  0  0
  -24.5750  -15.7670   20.5000 H   0  0  0  0  0  0  0  0  0  0  0  0
  -25.8820  -15.4530   19.5310 H   0  0  0  0  0  0  0  0  0  0  0  0
  1  5  1  0
  3  1  1  0
  3  4  1  0
  4  2  1  0
  5  2  1  0
  6  7  1  0
  6  3  1  0
  6  4  1  0
  8  5  1  0
  9  8  1  0
 10  9  1  0
 11 22  2  0
 12 17  1  0
 12 10  1  0
 13 21  1  0
 13 23  1  0
 14 20  1  0
 14 16  1  0
 15 21  1  0
 16 17  2  0
 16 15  1  0
 18 12  2  0
 19 18  1  0
 19 14  2  0
 20 13  1  0
 21 11  1  0
 23 25  2  0
 23 24  1  0
 24 26  1  0
 27 36  2  0
 27 32  1  0
 28 24  1  0
 28 32  1  0
 29 28  1  0
 30 31  1  0
 30 29  1  0
 31 27  1  0
 32 33  2  0
 33 34  1  0
 35 34  2  0
 36 35  1  0
 37 11  1  0
 37 42  1  0
 37 38  1  0
 38 41  1  1
 38 39  1  0
 40 38  1  0
 42 45  1  0
 43 47  1  0
 43 42  1  0
 44 43  2  0
 47 46  1  0
 49 47  1  0
 49 50  1  0
 49 48  1  0
 55 57  1  0
 56 60  1  0
 56 57  1  0
 57 59  1  0
 58 56  2  0
 61 69  1  0
 62 67  1  0
 63 64  1  0
 63 62  1  0
 65 64  1  0
 65 74  1  0
 65 66  1  0
 67 61  1  0
 67 66  1  0
 68 61  2  0
 69 60  1  0
 69 70  1  0
 71 72  2  0
 72 91  1  0
 73 72  1  0
 73 76  1  0
 74 75  1  0
 74 71  1  0
 75 73  2  0
 76 77  1  0
 77 78  2  0
 79 82  1  0
 79 78  1  0
 80 79  2  0
 81 80  1  0
 81 76  2  0
 82 83  1  0
 83 84  1  0
 84 85  2  0
 86 85  1  0
 86 90  1  0
 87 86  2  0
 88 83  2  0
 88 87  1  0
 89 88  1  0
 91 92  1  0
 92 95  1  0
 92 94  1  0
 93 91  2  0
 96 97  1  0
 96 71  1  0
 98 96  1  0
M  ISO  4   9 101  10 101  61 100  69 100
M  END
>  <TORSDO>  (24) 
F 25

>  <SCORE>  (24) 
-7.563

>  <name>  (24) 
26

>  <ligand_id>  (24) 
26

>  <original_smiles>  (24) 
[H]c1c([H])c([H])c2c(c1[H])C([H])([H])C([H])([H])C([H])([H])C2([H])N([H])C(=O)C1([H])N(C(=O)C([H])(N([H])C(=O)C([H])(N([H])C([H])([H])[H])C([H])([H])[H])C(C([H])([H])[H])(C([H])([H])[H])C([H])([H])[H])C([H])([H])c2c([H])c(OC([H])([H])C([H])([H])N3C([H])([H])C([H])([H])[N+]([H])(C([H])([H])C([H])([H])C([H])([H])C([H])([H])C([H])([H])N([H])C(=O)C([H])([H])N([H])C(=O)N4C([H])([H])C([H])([H])C([H])([H])C([H])(n5nc(-c6c([H])c([H])c(Oc7c([H])c([H])c(F)c([H])c7F)c([H])c6[H])c(C(=O)N([H])[H])c5N([H])[H])C4([H])[H])C([H])([H])C3([H])[H])c([H])c([H])c2C1([H])[H]

>  <smiles>  (24) 
[H]c1c([H])c([H])c2c(c1[H])C([H])([H])C([H])([H])C([H])([H])C2([H])N([H])C(=O)C1([H])N(C(=O)C([H])(N([H])C(=O)C([H])(N([H])C([H])([H])[H])C([H])([H])[H])C(C([H])([H])[H])(C([H])([H])[H])C([H])([H])[H])C([H])([H])c2c([H])c(OC([H])([H])C([H])([H])N3C([H])([H])C([H])([H])[N+]([H])(C([H])([H])C([H])([H])C([H])([H])C([H])([H])C([H])([H])N([H])C(=O)C([H])([H])N([H])C(=O)N4C([H])([H])C([H])([H])C([H])([H])C([H])(n5nc(-c6c([H])c([H])c(Oc7c([H])c([H])c(F)c([H])c7F)c([H])c6[H])c(C(=O)N([H])[H])c5N([H])[H])C4([H])[H])C([H])([H])C3([H])[H])c([H])c([H])c2C1([H])[H]

$$$$
27:0:0
     RDKit          3D

100107  0  0  1  0  0  0  0  0999 V2000
  -35.1260  -23.3040   21.1540 C   0  0  0  0  0  2  0  0  0  0  0  0
  -35.8870  -22.1790   21.8780 C   0  0  0  0  0  2  0  0  0  0  0  0
  -36.2690  -20.9990   20.9690 C   0  0  0  0  0  2  0  0  0  0  0  0
  -36.7410  -19.9180   21.7690 O   0  0  0  0  0  0  0  0  0  0  0  0
  -36.4710  -18.6360   21.2020 C   0  0  0  0  0  2  0  0  0  0  0  0
  -35.3640  -17.9120   21.9920 C   0  0  0  0  0  2  0  0  0  0  0  0
  -34.0920  -18.7530   22.2150 C   0  0  0  0  0  2  0  0  0  0  0  0
  -32.9440  -17.9900   22.9060 C   0  0  0  0  0  2  0  0  0  0  0  0
  -31.0490  -17.7800   21.3070 C   0  0  0  0  0  0  0  0  0  0  0  0
  -32.0890  -17.2550   21.9690 N   0  0  0  0  0  0  0  0  0  0  0  0
  -30.7700  -18.9780   21.3720 O   0  0  0  0  0  0  0  0  0  0  0  0
  -32.2790  -16.2720   21.8270 H   0  0  0  0  0  0  0  0  0  0  0  0
  -30.1540  -16.8580   20.4660 C   0  0  0  0  0  2  0  0  0  0  0  0
  -30.7230  -14.4470   20.5420 C   0  0  0  0  0  0  0  0  0  0  0  0
  -30.4200  -12.2860   19.4150 C   0  0  0  0  0  2  0  0  0  0  0  0
  -29.4940  -12.5100   18.2010 C   0  0  0  0  0  2  0  0  0  0  0  0
  -28.0090  -12.4060   18.6070 C   0  0  0  0  0  2  0  0  0  0  0  0
  -27.6670  -13.2190   19.8840 C   0  0  0  0  0  3  0  0  0  0  0  0
  -28.7160  -12.9850   20.9990 C   0  0  0  0  0  2  0  0  0  0  0  0
  -30.0520  -13.2690   20.4440 N   0  0  0  0  0  0  0  0  0  0  0  0
  -31.8530  -14.6320   20.0870 O   0  0  0  0  0  0  0  0  0  0  0  0
  -29.9860  -15.4820   20.9550 N   0  0  0  0  0  0  0  0  0  0  0  0
  -29.0880  -15.2570   21.3530 H   0  0  0  0  0  0  0  0  0  0  0  0
  -25.2590  -13.8220   20.5700 C   0  0  0  0  0  0  0  0  0  0  0  0
  -24.1850  -13.0450   20.9190 C   0  0  0  0  0  0  0  0  0  0  0  0
  -24.6440  -11.6940   20.8750 C   0  0  0  0  0  0  0  0  0  0  0  0
  -26.3060  -12.9410   20.3430 N   0  0  0  0  0  0  0  0  0  0  0  0
  -25.9370  -11.6560   20.5810 N   0  0  0  0  0  0  0  0  0  0  0  0
  -23.9100  -10.4310   21.0430 C   0  0  0  0  0  0  0  0  0  0  0  0
  -24.3650   -9.4230   21.9210 C   0  0  0  0  0  3  0  0  0  0  0  0
  -23.6330   -8.2250   22.0760 C   0  0  0  0  0  3  0  0  0  0  0  0
  -22.4320   -8.0290   21.3530 C   0  0  0  0  0  0  0  0  0  0  0  0
  -21.9950   -9.0270   20.4650 C   0  0  0  0  0  3  0  0  0  0  0  0
  -22.7280  -10.2160   20.3070 C   0  0  0  0  0  3  0  0  0  0  0  0
  -21.6650   -6.8910   21.4250 O   0  0  0  0  0  0  0  0  0  0  0  0
  -21.6850   -6.0760   22.5280 C   0  0  0  0  0  0  0  0  0  0  0  0
  -21.4010   -6.5670   23.8220 C   0  0  0  0  0  3  0  0  0  0  0  0
  -21.3650   -5.6820   24.9180 C   0  0  0  0  0  3  0  0  0  0  0  0
  -21.6040   -4.3070   24.7230 C   0  0  0  0  0  0  0  0  0  0  0  0
  -21.8820   -3.8170   23.4340 C   0  0  0  0  0  3  0  0  0  0  0  0
  -21.9190   -4.6980   22.3400 C   0  0  0  0  0  0  0  0  0  0  0  0
  -22.1660   -4.2170   21.0980 F   0  0  0  0  0  0  0  0  0  0  0  0
  -21.5620   -3.4550   25.7730 F   0  0  0  0  0  0  0  0  0  0  0  0
  -22.7870  -13.5230   21.1850 C   0  0  0  0  0  0  0  0  0  0  0  0
  -22.0520  -12.8190   22.0420 N   0  0  0  0  0  0  0  0  0  0  0  0
  -22.3540  -14.5530   20.6730 O   0  0  0  0  0  0  0  0  0  0  0  0
  -22.4150  -11.9820   22.4750 H   0  0  0  0  0  0  0  0  0  0  0  0
  -21.1140  -13.1180   22.2660 H   0  0  0  0  0  0  0  0  0  0  0  0
  -25.4290  -15.1940   20.4100 N   0  0  0  0  0  0  0  0  0  0  0  0
  -24.6630  -15.8520   20.5070 H   0  0  0  0  0  0  0  0  0  0  0  0
  -26.2830  -15.6260   20.0800 H   0  0  0  0  0  0  0  0  0  0  0  0
  -33.7640  -22.8380   20.6230 C   0  0  0  0  0  2  0  0  0  0  0  0
  -32.8420  -23.9730   20.1660 C   0  0  0  0  0  2  0  0  0  0  0  0
  -31.6090  -23.3830   19.4670 C   0  0  0  0  0  2  0  0  0  0  0  0
  -29.6340  -24.7020   20.1370 C   0  0  0  0  0  0  0  0  0  0  0  0
  -30.5600  -24.3660   19.2320 N   0  0  0  0  0  0  0  0  0  0  0  0
  -29.7290  -24.4090   21.3310 O   0  0  0  0  0  0  0  0  0  0  0  0
  -30.4210  -24.6910   18.2830 H   0  0  0  0  0  0  0  0  0  0  0  0
  -28.3930  -25.4230   19.6250 C   0  0  0  0  0  2  0  0  0  0  0  0
  -28.4090  -26.7710   20.0800 O   0  0  0  0  0  0  0  0  0  0  0  0
  -24.6120  -31.8710   23.2160 C   0  0  0  0  0  0  0  0  0  0  0  0
  -27.2190  -27.4620   20.0730 C   0  0  0  0  0  0  0  0  0  0  0  0
  -23.3930  -30.4970   21.5610 C   0  0  0  0  0  3  0  0  0  0  0  0
  -24.8310  -28.9710   20.1160 C   0  0  0  0  0  0  0  0  0  0  0  0
  -25.9180  -30.8420   21.3630 C   0  0  0  0  0  2  0  0  0  0  0  0
  -25.9910  -29.4790   20.7110 C   0  0  0  0  0  0  0  0  0  0  0  0
  -27.1860  -28.7300   20.6920 C   0  0  0  0  0  3  0  0  0  0  0  0
  -26.0350  -26.9630   19.4730 C   0  0  0  0  0  3  0  0  0  0  0  0
  -24.8440  -27.7100   19.5000 C   0  0  0  0  0  3  0  0  0  0  0  0
  -23.5950  -29.8370   20.1720 C   0  0  0  0  0  2  0  0  0  0  0  0
  -24.6590  -31.0820   22.1070 N   0  0  0  0  0  0  0  0  0  0  0  0
  -23.5330  -32.1470   23.7570 O   0  0  0  0  0  0  0  0  0  0  0  0
  -22.7390  -29.4660   22.5070 C   0  0  0  0  0  0  0  0  0  0  0  0
  -21.4130  -29.3010   22.3800 N   0  0  0  0  0  0  0  0  0  0  0  0
  -23.4190  -28.8210   23.3100 O   0  0  0  0  0  0  0  0  0  0  0  0
  -20.9320  -29.8690   21.6980 H   0  0  0  0  0  0  0  0  0  0  0  0
  -18.0250  -28.1390   22.8470 C   0  0  0  0  0  0  0  0  0  0  0  0
  -20.5830  -28.3650   23.1370 C   0  0  0  0  0  3  0  0  0  0  0  0
  -20.6760  -26.9410   22.5420 C   0  0  0  0  0  2  0  0  0  0  0  0
  -19.5760  -26.6400   21.5200 C   0  0  0  0  0  2  0  0  0  0  0  0
  -18.1930  -26.7930   22.1590 C   0  0  0  0  0  2  0  0  0  0  0  0
  -19.1500  -28.8840   23.2900 C   0  0  0  0  0  0  0  0  0  0  0  0
  -18.9430  -30.1440   23.8900 C   0  0  0  0  0  3  0  0  0  0  0  0
  -17.6440  -30.6590   24.0560 C   0  0  0  0  0  3  0  0  0  0  0  0
  -16.5330  -29.9100   23.6330 C   0  0  0  0  0  3  0  0  0  0  0  0
  -16.7240  -28.6520   23.0330 C   0  0  0  0  0  3  0  0  0  0  0  0
  -25.9050  -32.4820   23.8410 C   0  0  0  0  0  3  0  0  0  0  0  0
  -25.5930  -33.8620   24.2350 N   0  0  0  0  0  0  0  0  0  0  0  0
  -25.9040  -34.9470   23.5120 C   0  0  0  0  0  0  0  0  0  0  0  0
  -26.5580  -34.8930   22.4680 O   0  0  0  0  0  0  0  0  0  0  0  0
  -25.0120  -33.9770   25.0520 H   0  0  0  0  0  0  0  0  0  0  0  0
  -24.1500  -36.7340   23.2620 C   0  0  0  0  0  1  0  0  0  0  0  0
  -25.4110  -36.3120   24.0320 C   0  0  0  0  0  3  0  0  0  0  0  0
  -27.5610  -37.1810   24.8440 C   0  0  0  0  0  1  0  0  0  0  0  0
  -26.4300  -37.3810   23.9430 N   0  0  0  0  0  0  0  0  0  0  0  0
  -26.0170  -38.2870   24.1480 H   0  0  0  0  0  0  0  0  0  0  0  0
  -26.4490  -31.6570   25.0710 C   0  0  1  0  0  0  0  0  0  0  0  0
  -25.3780  -31.3640   26.1470 C   0  0  0  0  0  1  0  0  0  0  0  0
  -27.0310  -30.3020   24.6050 C   0  0  0  0  0  1  0  0  0  0  0  0
  -27.6080  -32.4270   25.7490 C   0  0  0  0  0  1  0  0  0  0  0  0
  1  2  1  0
  3  4  1  0
  3  2  1  0
  5  4  1  0
  5  6  1  0
  6  7  1  0
  7  8  1  0
  9 11  2  0
  9 10  1  0
 10  8  1  0
 12 10  1  0
 13 22  1  0
 13  9  1  0
 14 22  1  0
 15 20  1  0
 16 17  1  0
 16 15  1  0
 18 17  1  0
 18 27  1  0
 18 19  1  0
 20 14  1  0
 20 19  1  0
 21 14  2  0
 22 23  1  0
 24 25  2  0
 25 44  1  0
 26 25  1  0
 26 29  1  0
 27 24  1  0
 27 28  1  0
 28 26  2  0
 29 30  1  0
 30 31  2  0
 32 35  1  0
 32 31  1  0
 33 32  2  0
 34 33  1  0
 34 29  2  0
 35 36  1  0
 36 37  1  0
 37 38  2  0
 39 38  1  0
 39 43  1  0
 40 39  2  0
 41 36  2  0
 41 40  1  0
 42 41  1  0
 44 45  1  0
 45 48  1  0
 45 47  1  0
 46 44  2  0
 49 50  1  0
 49 24  1  0
 51 49  1  0
 52  1  1  0
 53 52  1  0
 54 53  1  0
 55 57  2  0
 56 54  1  0
 56 55  1  0
 58 56  1  0
 59 60  1  0
 59 55  1  0
 61 72  2  0
 62 60  1  0
 62 67  1  0
 63 71  1  0
 63 73  1  0
 64 70  1  0
 64 66  1  0
 65 71  1  0
 66 65  1  0
 67 66  2  0
 68 69  1  0
 68 62  2  0
 69 64  2  0
 70 63  1  0
 71 61  1  0
 73 75  2  0
 74 73  1  0
 76 74  1  0
 77 86  2  0
 77 82  1  0
 78 74  1  0
 78 82  1  0
 79 78  1  0
 80 81  1  0
 80 79  1  0
 81 77  1  0
 82 83  2  0
 83 84  1  0
 85 84  2  0
 86 85  1  0
 87 61  1  0
 87 88  1  0
 87 97  1  0
 88 91  1  0
 89 93  1  0
 89 88  1  0
 90 89  2  0
 93 92  1  0
 95 93  1  0
 95 96  1  0
 95 94  1  0
 97100  1  1
 97 98  1  0
 99 97  1  0
M  ISO  4  14 100  22 100  59 101  60 101
M  END
>  <TORSDO>  (25) 
F 30

>  <SCORE>  (25) 
-3.973

>  <name>  (25) 
27

>  <ligand_id>  (25) 
27

>  <original_smiles>  (25) 
[H]c1c([H])c([H])c2c(c1[H])C([H])([H])C([H])([H])C([H])([H])C2([H])N([H])C(=O)C1([H])N(C(=O)C([H])(N([H])C(=O)C([H])(N([H])C([H])([H])[H])C([H])([H])[H])C(C([H])([H])[H])(C([H])([H])[H])C([H])([H])[H])C([H])([H])c2c([H])c(OC([H])([H])C(=O)N([H])C([H])([H])C([H])([H])C([H])([H])C([H])([H])C([H])([H])C([H])([H])OC([H])([H])C([H])([H])C([H])([H])C([H])([H])N([H])C(=O)C([H])([H])N([H])C(=O)N3C([H])([H])C([H])([H])C([H])([H])C([H])(n4nc(-c5c([H])c([H])c(Oc6c([H])c([H])c(F)c([H])c6F)c([H])c5[H])c(C(=O)N([H])[H])c4N([H])[H])C3([H])[H])c([H])c([H])c2C1([H])[H]

>  <smiles>  (25) 
[H]c1c([H])c([H])c2c(c1[H])C([H])([H])C([H])([H])C([H])([H])C2([H])N([H])C(=O)C1([H])N(C(=O)C([H])(N([H])C(=O)C([H])(N([H])C([H])([H])[H])C([H])([H])[H])C(C([H])([H])[H])(C([H])([H])[H])C([H])([H])[H])C([H])([H])c2c([H])c(OC([H])([H])C(=O)N([H])C([H])([H])C([H])([H])C([H])([H])C([H])([H])C([H])([H])C([H])([H])OC([H])([H])C([H])([H])C([H])([H])C([H])([H])N([H])C(=O)C([H])([H])N([H])C(=O)N3C([H])([H])C([H])([H])C([H])([H])C([H])(n4nc(-c5c([H])c([H])c(Oc6c([H])c([H])c(F)c([H])c6F)c([H])c5[H])c(C(=O)N([H])[H])c4N([H])[H])C3([H])[H])c([H])c([H])c2C1([H])[H]

$$$$
28:0:0
     RDKit          3D

109116  0  0  1  0  0  0  0  0999 V2000
  -27.2930  -15.7060   18.2660 C   0  0  0  0  0  3  0  0  0  0  0  0
  -26.6440  -14.3180   18.6500 C   0  0  0  0  0  3  0  0  0  0  0  0
  -27.2190  -12.9890   18.0260 C   0  0  0  0  0  2  0  0  0  0  0  0
  -27.8500  -12.0520   18.9400 O   0  0  0  0  0  0  0  0  0  0  0  0
  -28.4990  -10.9140   18.3100 C   0  0  0  0  0  2  0  0  0  0  0  0
  -28.4230   -9.5350   19.0730 C   0  0  0  0  0  2  0  0  0  0  0  0
  -29.9300   -8.1400   20.5600 C   0  0  0  0  0  0  0  0  0  0  0  0
  -29.7190   -8.9360   19.4860 N   0  0  0  0  0  0  0  0  0  0  0  0
  -29.0280   -7.5610   21.1660 O   0  0  0  0  0  0  0  0  0  0  0  0
  -30.5600   -9.2950   19.0530 H   0  0  0  0  0  0  0  0  0  0  0  0
  -31.4190   -8.0040   21.0810 C   0  0  0  0  0  0  0  0  0  0  0  0
  -31.6130   -8.3590   22.3710 N   0  0  0  0  0  0  0  0  0  0  0  0
  -32.3220   -7.6400   20.3230 O   0  0  0  0  0  0  0  0  0  0  0  0
  -30.7550   -8.6150   22.8350 H   0  0  0  0  0  0  0  0  0  0  0  0
  -32.8740   -8.5660   23.1340 C   0  0  0  0  0  2  0  0  0  0  0  0
  -32.7220   -9.6760   24.2290 C   0  0  0  0  0  2  0  0  0  0  0  0
  -33.5480  -11.0220   24.3080 C   0  0  0  0  0  2  0  0  0  0  0  0
  -33.9450  -12.2970   22.1120 C   0  0  0  0  0  0  0  0  0  0  0  0
  -33.0820  -10.7920   20.4790 C   0  0  0  0  0  2  0  0  0  0  0  0
  -32.3260  -11.2670   19.2730 C   0  0  0  0  0  2  0  0  0  0  0  0
  -30.8750  -11.5650   19.6260 C   0  0  0  0  0  2  0  0  0  0  0  0
  -30.6390  -12.4400   20.8670 C   0  0  0  0  0  3  0  0  0  0  0  0
  -31.4860  -11.9580   22.0420 C   0  0  0  0  0  2  0  0  0  0  0  0
  -32.8640  -11.7220   21.5890 N   0  0  0  0  0  0  0  0  0  0  0  0
  -34.8270  -12.8520   21.4450 O   0  0  0  0  0  0  0  0  0  0  0  0
  -34.3270  -11.5630   23.1730 N   0  0  0  0  0  0  0  0  0  0  0  0
  -35.3100  -11.6690   23.3700 H   0  0  0  0  0  0  0  0  0  0  0  0
  -28.4520  -13.6390   21.4910 C   0  0  0  0  0  0  0  0  0  0  0  0
  -27.1660  -13.2100   21.6570 C   0  0  0  0  0  0  0  0  0  0  0  0
  -27.1990  -11.7910   21.4940 C   0  0  0  0  0  0  0  0  0  0  0  0
  -29.2110  -12.5170   21.2130 N   0  0  0  0  0  0  0  0  0  0  0  0
  -28.4510  -11.3870   21.2830 N   0  0  0  0  0  0  0  0  0  0  0  0
  -26.0980  -10.8140   21.4930 C   0  0  0  0  0  0  0  0  0  0  0  0
  -26.0880   -9.7070   22.3710 C   0  0  0  0  0  3  0  0  0  0  0  0
  -25.0150   -8.7880   22.3590 C   0  0  0  0  0  3  0  0  0  0  0  0
  -23.9220   -8.9840   21.4800 C   0  0  0  0  0  0  0  0  0  0  0  0
  -23.9400  -10.0820   20.6000 C   0  0  0  0  0  3  0  0  0  0  0  0
  -25.0190  -10.9820   20.6010 C   0  0  0  0  0  3  0  0  0  0  0  0
  -22.8460   -8.1340   21.3860 O   0  0  0  0  0  0  0  0  0  0  0  0
  -22.3190   -7.5130   22.4900 C   0  0  0  0  0  0  0  0  0  0  0  0
  -21.8800   -8.2420   23.6170 C   0  0  0  0  0  3  0  0  0  0  0  0
  -21.2860   -7.5690   24.7030 C   0  0  0  0  0  3  0  0  0  0  0  0
  -21.1150   -6.1730   24.6600 C   0  0  0  0  0  0  0  0  0  0  0  0
  -21.5450   -5.4460   23.5350 C   0  0  0  0  0  3  0  0  0  0  0  0
  -22.1430   -6.1150   22.4520 C   0  0  0  0  0  0  0  0  0  0  0  0
  -22.5370   -5.4100   21.3630 F   0  0  0  0  0  0  0  0  0  0  0  0
  -20.5370   -5.5270   25.6990 F   0  0  0  0  0  0  0  0  0  0  0  0
  -25.9600  -14.0780   21.8860 C   0  0  0  0  0  0  0  0  0  0  0  0
  -24.9810  -13.5840   22.6350 N   0  0  0  0  0  0  0  0  0  0  0  0
  -25.9050  -15.2220   21.4380 O   0  0  0  0  0  0  0  0  0  0  0  0
  -25.0350  -12.6510   23.0180 H   0  0  0  0  0  0  0  0  0  0  0  0
  -24.1700  -14.1520   22.8330 H   0  0  0  0  0  0  0  0  0  0  0  0
  -29.0440  -14.8930   21.5620 N   0  0  0  0  0  0  0  0  0  0  0  0
  -28.5000  -15.7290   21.7350 H   0  0  0  0  0  0  0  0  0  0  0  0
  -30.0240  -15.0710   21.3980 H   0  0  0  0  0  0  0  0  0  0  0  0
  -26.7100  -16.9710   19.0190 C   0  0  0  0  0  3  0  0  0  0  0  0
  -27.3040  -18.3870   18.6580 C   0  0  0  0  0  3  0  0  0  0  0  0
  -27.0620  -19.5750   19.6740 C   0  0  0  0  0  2  0  0  0  0  0  0
  -26.9700  -22.1820   19.3590 C   0  0  0  0  0  0  0  0  0  0  0  0
  -26.2770  -23.0990   18.6840 N   0  0  0  0  0  4  0  0  0  0  0  0
  -27.8440  -22.5970   20.3120 N   0  0  0  0  0  0  0  0  0  0  0  0
  -26.7210  -20.8810   19.0290 N   0  0  0  0  0  0  0  0  0  0  0  0
  -26.4430  -24.0870   18.8020 H   0  0  0  0  0  0  0  0  0  0  0  0
  -25.5760  -22.8470   18.0010 H   0  0  0  0  0  0  0  0  0  0  0  0
  -28.4210  -21.8760   20.7320 H   0  0  0  0  0  0  0  0  0  0  0  0
  -26.0720  -20.7560   18.2660 H   0  0  0  0  0  0  0  0  0  0  0  0
  -28.0190  -23.9500   20.9630 C   0  0  0  0  0  3  0  0  0  0  0  0
  -28.6530  -25.1190   20.1190 C   0  0  0  0  0  3  0  0  0  0  0  0
  -28.6570  -26.4700   20.7010 O   0  0  0  0  0  0  0  0  0  0  0  0
  -24.8920  -31.9440   23.4720 C   0  0  0  0  0  0  0  0  0  0  0  0
  -27.5270  -27.2790   20.6290 C   0  0  0  0  0  0  0  0  0  0  0  0
  -23.7190  -30.4950   21.8530 C   0  0  0  0  0  3  0  0  0  0  0  0
  -25.1790  -28.8810   20.5360 C   0  0  0  0  0  0  0  0  0  0  0  0
  -26.2640  -30.7850   21.7260 C   0  0  0  0  0  2  0  0  0  0  0  0
  -26.3380  -29.3850   21.1400 C   0  0  0  0  0  0  0  0  0  0  0  0
  -27.5140  -28.5900   21.1890 C   0  0  0  0  0  3  0  0  0  0  0  0
  -26.3430  -26.8180   20.0090 C   0  0  0  0  0  3  0  0  0  0  0  0
  -25.1780  -27.5950   19.9780 C   0  0  0  0  0  3  0  0  0  0  0  0
  -23.9620  -29.7740   20.5050 C   0  0  0  0  0  2  0  0  0  0  0  0
  -24.9760  -31.0930   22.4090 N   0  0  0  0  0  0  0  0  0  0  0  0
  -23.7980  -32.2500   23.9640 O   0  0  0  0  0  0  0  0  0  0  0  0
  -23.0240  -29.5190   22.8270 C   0  0  0  0  0  0  0  0  0  0  0  0
  -21.7140  -29.2930   22.6250 N   0  0  0  0  0  0  0  0  0  0  0  0
  -23.6610  -28.9660   23.7270 O   0  0  0  0  0  0  0  0  0  0  0  0
  -21.2550  -29.7960   21.8780 H   0  0  0  0  0  0  0  0  0  0  0  0
  -18.3610  -27.9720   22.9290 C   0  0  0  0  0  0  0  0  0  0  0  0
  -20.8700  -28.3820   23.4010 C   0  0  0  0  0  3  0  0  0  0  0  0
  -21.0840  -26.9140   22.9680 C   0  0  0  0  0  2  0  0  0  0  0  0
  -20.0960  -26.4490   21.8920 C   0  0  0  0  0  2  0  0  0  0  0  0
  -18.6560  -26.5810   22.3960 C   0  0  0  0  0  2  0  0  0  0  0  0
  -19.4040  -28.8220   23.3880 C   0  0  0  0  0  0  0  0  0  0  0  0
  -19.0810  -30.1160   23.8460 C   0  0  0  0  0  3  0  0  0  0  0  0
  -17.7480  -30.5660   23.8550 C   0  0  0  0  0  3  0  0  0  0  0  0
  -16.7180  -29.7180   23.4120 C   0  0  0  0  0  3  0  0  0  0  0  0
  -17.0250  -28.4240   22.9550 C   0  0  0  0  0  3  0  0  0  0  0  0
  -26.1650  -32.5900   24.1020 C   0  0  0  0  0  3  0  0  0  0  0  0
  -26.6100  -31.8950   25.4470 C   0  0  1  0  0  0  0  0  0  0  0  0
  -25.4680  -31.7390   26.4790 C   0  0  0  0  0  1  0  0  0  0  0  0
  -27.1930  -30.4880   25.1760 C   0  0  0  0  0  1  0  0  0  0  0  0
  -27.7360  -32.7170   26.1190 C   0  0  0  0  0  1  0  0  0  0  0  0
  -25.8730  -34.0140   24.3300 N   0  0  0  0  0  0  0  0  0  0  0  0
  -26.2750  -35.0100   23.5310 C   0  0  0  0  0  0  0  0  0  0  0  0
  -27.0050  -34.8300   22.5520 O   0  0  0  0  0  0  0  0  0  0  0  0
  -25.2420  -34.2290   25.0890 H   0  0  0  0  0  0  0  0  0  0  0  0
  -24.6350  -36.8250   22.9380 C   0  0  0  0  0  1  0  0  0  0  0  0
  -25.7960  -36.4360   23.8700 C   0  0  0  0  0  3  0  0  0  0  0  0
  -27.8870  -37.3120   24.8150 C   0  0  0  0  0  1  0  0  0  0  0  0
  -26.8670  -37.4530   23.7790 N   0  0  0  0  0  0  0  0  0  0  0  0
  -26.4780  -38.3910   23.8390 H   0  0  0  0  0  0  0  0  0  0  0  0
  1  2  2  0
  1 56  1  0
  3  2  1  0
  3  4  1  0
  5  4  1  0
  5  6  1  0
  6  8  1  0
  7 11  1  0
  7  9  2  0
  8  7  1  0
 10  8  1  0
 11 12  1  0
 12 14  1  0
 12 15  1  0
 13 11  2  0
 15 16  1  0
 16 17  1  0
 18 26  1  0
 19 24  1  0
 20 21  1  0
 20 19  1  0
 22 21  1  0
 22 31  1  0
 22 23  1  0
 24 23  1  0
 24 18  1  0
 25 18  2  0
 26 27  1  0
 26 17  1  0
 28 53  1  0
 28 29  2  0
 29 48  1  0
 30 29  1  0
 31 32  1  0
 31 28  1  0
 32 30  2  0
 33 30  1  0
 33 34  1  0
 35 34  2  0
 36 35  1  0
 37 38  1  0
 37 36  2  0
 38 33  2  0
 39 36  1  0
 39 40  1  0
 40 41  1  0
 41 42  2  0
 43 42  1  0
 43 47  1  0
 44 43  2  0
 45 40  2  0
 45 44  1  0
 46 45  1  0
 48 49  1  0
 49 52  1  0
 49 51  1  0
 50 48  2  0
 53 54  1  0
 55 53  1  0
 57 56  2  0
 57 58  1  0
 59 61  1  0
 60 63  1  0
 60 59  2  0
 61 65  1  0
 61 67  1  0
 62 59  1  0
 62 58  1  0
 64 60  1  0
 66 62  1  0
 68 69  1  0
 68 67  2  0
 70 81  2  0
 71 69  1  0
 71 76  1  0
 72 80  1  0
 72 82  1  0
 73 75  1  0
 74 80  1  0
 75 76  2  0
 75 74  1  0
 77 71  2  0
 78 77  1  0
 78 73  2  0
 79 73  1  0
 79 72  1  0
 80 70  1  0
 82 84  2  0
 83 82  1  0
 85 83  1  0
 86 95  2  0
 86 91  1  0
 87 83  1  0
 88 87  1  0
 89 90  1  0
 89 88  1  0
 90 86  1  0
 91 87  1  0
 91 92  2  0
 92 93  1  0
 94 93  2  0
 95 94  1  0
 96 70  1  0
 96101  1  0
 96 97  1  0
 97100  1  1
 97 98  1  0
 99 97  1  0
101104  1  0
102106  1  0
102101  1  0
103102  2  0
106105  1  0
108109  1  0
108106  1  0
108107  1  0
M  ISO  4  18 100  26 100  68 101  69 101
M  END
>  <TORSDO>  (26) 
F 32

>  <SCORE>  (26) 
-4.821

>  <name>  (26) 
28

>  <ligand_id>  (26) 
28

>  <original_smiles>  (26) 
[H]c1c([H])c([H])c2c(c1[H])C([H])([H])C([H])([H])C([H])([H])C2([H])N([H])C(=O)C1([H])N(C(=O)C([H])(N([H])C(=O)C([H])(N([H])C([H])([H])[H])C([H])([H])[H])C(C([H])([H])[H])(C([H])([H])[H])C([H])([H])[H])C([H])([H])c2c([H])c(OC([H])([H])C([H])([H])N([H])C(N([H])[H])=[N+]([H])C([H])([H])C([H])([H])C([H])([H])C([H])([H])C([H])([H])C([H])([H])OC([H])([H])C([H])([H])N([H])C(=O)C(=O)N([H])C([H])([H])C([H])([H])C([H])([H])N([H])C(=O)N3C([H])([H])C([H])([H])C([H])([H])C([H])(n4nc(-c5c([H])c([H])c(Oc6c([H])c([H])c(F)c([H])c6F)c([H])c5[H])c(C(=O)N([H])[H])c4N([H])[H])C3([H])[H])c([H])c([H])c2C1([H])[H]

>  <smiles>  (26) 
[H]c1c([H])c([H])c2c(c1[H])C([H])([H])C([H])([H])C([H])([H])C2([H])N([H])C(=O)C1([H])N(C(=O)C([H])(N([H])C(=O)C([H])(N([H])C([H])([H])[H])C([H])([H])[H])C(C([H])([H])[H])(C([H])([H])[H])C([H])([H])[H])C([H])([H])c2c([H])c(OC([H])([H])C([H])([H])N([H])C(N([H])[H])=[N+]([H])C([H])([H])C([H])([H])C([H])([H])C([H])([H])C([H])([H])C([H])([H])OC([H])([H])C([H])([H])N([H])C(=O)C(=O)N([H])C([H])([H])C([H])([H])C([H])([H])N([H])C(=O)N3C([H])([H])C([H])([H])C([H])([H])C([H])(n4nc(-c5c([H])c([H])c(Oc6c([H])c([H])c(F)c([H])c6F)c([H])c5[H])c(C(=O)N([H])[H])c4N([H])[H])C3([H])[H])c([H])c([H])c2C1([H])[H]

$$$$
29:0:0
     RDKit          3D

 96103  0  0  1  0  0  0  0  0999 V2000
  -31.0690  -21.7210   22.2890 C   0  0  0  0  0  2  0  0  0  0  0  0
  -31.8510  -19.3730   22.2250 C   0  0  0  0  0  0  0  0  0  0  0  0
  -31.9140  -20.6380   21.7960 N   0  0  0  0  0  0  0  0  0  0  0  0
  -31.0900  -19.0270   23.1340 O   0  0  0  0  0  0  0  0  0  0  0  0
  -32.5700  -20.8540   21.0530 H   0  0  0  0  0  0  0  0  0  0  0  0
  -32.7640  -18.3600   21.5200 C   0  0  0  0  0  2  0  0  0  0  0  0
  -32.6280  -16.2470   22.8250 C   0  0  0  0  0  0  0  0  0  0  0  0
  -32.3430  -16.9780   21.7450 N   0  0  0  0  0  0  0  0  0  0  0  0
  -33.3420  -16.6760   23.7330 O   0  0  0  0  0  0  0  0  0  0  0  0
  -31.8150  -16.5210   21.0120 H   0  0  0  0  0  0  0  0  0  0  0  0
  -32.0360  -14.8360   22.9410 C   0  0  0  0  0  2  0  0  0  0  0  0
  -30.8880  -14.2370   20.7990 C   0  0  0  0  0  0  0  0  0  0  0  0
  -30.4120  -12.3050   19.3610 C   0  0  0  0  0  2  0  0  0  0  0  0
  -29.4680  -12.5490   18.1770 C   0  0  0  0  0  2  0  0  0  0  0  0
  -28.0060  -12.3760   18.6140 C   0  0  0  0  0  2  0  0  0  0  0  0
  -27.6690  -13.2080   19.8770 C   0  0  0  0  0  3  0  0  0  0  0  0
  -28.7130  -12.9860   20.9960 C   0  0  0  0  0  2  0  0  0  0  0  0
  -30.0630  -13.2210   20.4540 N   0  0  0  0  0  0  0  0  0  0  0  0
  -31.7770  -14.6800   20.0680 O   0  0  0  0  0  0  0  0  0  0  0  0
  -30.8680  -14.5070   22.1100 N   0  0  0  0  0  0  0  0  0  0  0  0
  -30.0900  -14.1080   22.6130 H   0  0  0  0  0  0  0  0  0  0  0  0
  -25.2620  -13.8180   20.5700 C   0  0  0  0  0  0  0  0  0  0  0  0
  -24.1870  -13.0440   20.9160 C   0  0  0  0  0  0  0  0  0  0  0  0
  -24.6420  -11.6910   20.8730 C   0  0  0  0  0  0  0  0  0  0  0  0
  -26.3080  -12.9360   20.3420 N   0  0  0  0  0  0  0  0  0  0  0  0
  -25.9360  -11.6500   20.5780 N   0  0  0  0  0  0  0  0  0  0  0  0
  -23.9080  -10.4290   21.0390 C   0  0  0  0  0  0  0  0  0  0  0  0
  -24.3630   -9.4210   21.9170 C   0  0  0  0  0  3  0  0  0  0  0  0
  -23.6300   -8.2250   22.0760 C   0  0  0  0  0  3  0  0  0  0  0  0
  -22.4280   -8.0290   21.3550 C   0  0  0  0  0  0  0  0  0  0  0  0
  -21.9910   -9.0260   20.4640 C   0  0  0  0  0  3  0  0  0  0  0  0
  -22.7250  -10.2130   20.3040 C   0  0  0  0  0  3  0  0  0  0  0  0
  -21.6640   -6.8880   21.4240 O   0  0  0  0  0  0  0  0  0  0  0  0
  -21.6860   -6.0740   22.5280 C   0  0  0  0  0  0  0  0  0  0  0  0
  -21.4010   -6.5640   23.8210 C   0  0  0  0  0  3  0  0  0  0  0  0
  -21.3650   -5.6800   24.9170 C   0  0  0  0  0  3  0  0  0  0  0  0
  -21.6050   -4.3060   24.7230 C   0  0  0  0  0  0  0  0  0  0  0  0
  -21.8820   -3.8150   23.4350 C   0  0  0  0  0  3  0  0  0  0  0  0
  -21.9190   -4.6960   22.3400 C   0  0  0  0  0  0  0  0  0  0  0  0
  -22.1660   -4.2150   21.0980 F   0  0  0  0  0  0  0  0  0  0  0  0
  -21.5620   -3.4540   25.7730 F   0  0  0  0  0  0  0  0  0  0  0  0
  -22.7880  -13.5230   21.1830 C   0  0  0  0  0  0  0  0  0  0  0  0
  -22.0520  -12.8220   22.0380 N   0  0  0  0  0  0  0  0  0  0  0  0
  -22.3560  -14.5540   20.6670 O   0  0  0  0  0  0  0  0  0  0  0  0
  -22.4130  -11.9890   22.4770 H   0  0  0  0  0  0  0  0  0  0  0  0
  -21.1140  -13.1240   22.2580 H   0  0  0  0  0  0  0  0  0  0  0  0
  -25.4330  -15.1900   20.4110 N   0  0  0  0  0  0  0  0  0  0  0  0
  -24.6690  -15.8480   20.5200 H   0  0  0  0  0  0  0  0  0  0  0  0
  -26.2970  -15.6300   20.1170 H   0  0  0  0  0  0  0  0  0  0  0  0
  -30.8290  -22.7710   21.1950 C   0  0  0  0  0  2  0  0  0  0  0  0
  -29.8820  -23.8090   21.6430 N   0  0  0  0  0  4  0  0  0  0  0  0
  -30.2240  -24.2210   22.4990 H   0  0  0  0  0  0  0  0  0  0  0  0
  -29.0040  -23.3610   21.8530 H   0  0  0  0  0  0  0  0  0  0  0  0
  -29.6600  -24.8720   20.6390 C   0  0  0  0  0  2  0  0  0  0  0  0
  -28.5130  -25.8030   21.0360 C   0  0  0  0  0  2  0  0  0  0  0  0
  -28.4010  -26.7870   20.0210 O   0  0  0  0  0  0  0  0  0  0  0  0
  -24.6080  -31.8710   23.2130 C   0  0  0  0  0  0  0  0  0  0  0  0
  -27.2350  -27.4920   20.0760 C   0  0  0  0  0  0  0  0  0  0  0  0
  -23.3940  -30.4950   21.5530 C   0  0  0  0  0  3  0  0  0  0  0  0
  -24.8410  -28.9660   20.1160 C   0  0  0  0  0  0  0  0  0  0  0  0
  -25.9170  -30.8550   21.3560 C   0  0  0  0  0  2  0  0  0  0  0  0
  -25.9980  -29.4920   20.7070 C   0  0  0  0  0  0  0  0  0  0  0  0
  -27.2010  -28.7610   20.6860 C   0  0  0  0  0  3  0  0  0  0  0  0
  -26.0670  -26.9630   19.4890 C   0  0  0  0  0  3  0  0  0  0  0  0
  -24.8660  -27.6970   19.5110 C   0  0  0  0  0  3  0  0  0  0  0  0
  -23.5970  -29.8260   20.1690 C   0  0  0  0  0  2  0  0  0  0  0  0
  -24.6580  -31.0860   22.1010 N   0  0  0  0  0  0  0  0  0  0  0  0
  -23.5290  -32.1440   23.7560 O   0  0  0  0  0  0  0  0  0  0  0  0
  -22.7390  -29.4650   22.5020 C   0  0  0  0  0  0  0  0  0  0  0  0
  -21.4120  -29.3010   22.3770 N   0  0  0  0  0  0  0  0  0  0  0  0
  -23.4210  -28.8180   23.3010 O   0  0  0  0  0  0  0  0  0  0  0  0
  -20.9280  -29.8750   21.7010 H   0  0  0  0  0  0  0  0  0  0  0  0
  -18.0280  -28.1370   22.8480 C   0  0  0  0  0  0  0  0  0  0  0  0
  -20.5860  -28.3630   23.1360 C   0  0  0  0  0  3  0  0  0  0  0  0
  -20.6760  -26.9370   22.5430 C   0  0  0  0  0  2  0  0  0  0  0  0
  -19.5740  -26.6370   21.5230 C   0  0  0  0  0  2  0  0  0  0  0  0
  -18.1920  -26.7910   22.1630 C   0  0  0  0  0  2  0  0  0  0  0  0
  -19.1520  -28.8820   23.2910 C   0  0  0  0  0  0  0  0  0  0  0  0
  -18.9450  -30.1440   23.8910 C   0  0  0  0  0  3  0  0  0  0  0  0
  -17.6450  -30.6570   24.0570 C   0  0  0  0  0  3  0  0  0  0  0  0
  -16.5340  -29.9080   23.6330 C   0  0  0  0  0  3  0  0  0  0  0  0
  -16.7270  -28.6510   23.0310 C   0  0  0  0  0  3  0  0  0  0  0  0
  -25.8990  -32.4840   23.8420 C   0  0  0  0  0  3  0  0  0  0  0  0
  -25.5870  -33.8630   24.2340 N   0  0  0  0  0  0  0  0  0  0  0  0
  -25.9020  -34.9490   23.5140 C   0  0  0  0  0  0  0  0  0  0  0  0
  -26.5590  -34.8920   22.4710 O   0  0  0  0  0  0  0  0  0  0  0  0
  -24.9990  -33.9810   25.0470 H   0  0  0  0  0  0  0  0  0  0  0  0
  -24.1480  -36.7330   23.2650 C   0  0  0  0  0  1  0  0  0  0  0  0
  -25.4100  -36.3130   24.0350 C   0  0  0  0  0  3  0  0  0  0  0  0
  -27.5580  -37.1810   24.8460 C   0  0  0  0  0  1  0  0  0  0  0  0
  -26.4300  -37.3800   23.9410 N   0  0  0  0  0  0  0  0  0  0  0  0
  -26.0200  -38.2890   24.1400 H   0  0  0  0  0  0  0  0  0  0  0  0
  -26.4440  -31.6610   25.0730 C   0  0  1  0  0  0  0  0  0  0  0  0
  -25.3700  -31.3710   26.1480 C   0  0  0  0  0  1  0  0  0  0  0  0
  -27.0290  -30.3070   24.6060 C   0  0  0  0  0  1  0  0  0  0  0  0
  -27.6040  -32.4330   25.7480 C   0  0  0  0  0  1  0  0  0  0  0  0
  2  4  2  0
  3  2  1  0
  3  1  1  0
  5  3  1  0
  6  8  1  0
  6  2  1  0
  7 11  1  0
  7  9  2  0
  8  7  1  0
 10  8  1  0
 12 20  1  0
 13 18  1  0
 14 15  1  0
 14 13  1  0
 16 15  1  0
 16 25  1  0
 16 17  1  0
 18 12  1  0
 18 17  1  0
 19 12  2  0
 20 21  1  0
 20 11  1  0
 22 23  2  0
 23 42  1  0
 24 23  1  0
 24 27  1  0
 25 22  1  0
 25 26  1  0
 26 24  2  0
 27 28  1  0
 28 29  2  0
 30 33  1  0
 30 29  1  0
 31 30  2  0
 32 31  1  0
 32 27  2  0
 33 34  1  0
 34 35  1  0
 35 36  2  0
 37 36  1  0
 37 41  1  0
 38 37  2  0
 39 34  2  0
 39 38  1  0
 40 39  1  0
 42 43  1  0
 43 46  1  0
 43 45  1  0
 44 42  2  0
 47 48  1  0
 47 22  1  0
 49 47  1  0
 50 51  1  0
 50  1  1  0
 51 53  1  0
 51 52  1  0
 54 55  1  0
 54 51  1  0
 56 58  1  0
 56 55  1  0
 57 68  2  0
 58 63  1  0
 59 67  1  0
 59 69  1  0
 60 66  1  0
 60 62  1  0
 61 67  1  0
 62 61  1  0
 63 62  2  0
 64 65  1  0
 64 58  2  0
 65 60  2  0
 66 59  1  0
 67 57  1  0
 69 71  2  0
 70 69  1  0
 72 70  1  0
 73 82  2  0
 73 78  1  0
 74 70  1  0
 74 78  1  0
 75 74  1  0
 76 77  1  0
 76 75  1  0
 77 73  1  0
 78 79  2  0
 79 80  1  0
 81 80  2  0
 82 81  1  0
 83 57  1  0
 83 84  1  0
 83 93  1  0
 84 87  1  0
 85 89  1  0
 85 84  1  0
 86 85  2  0
 89 88  1  0
 91 89  1  0
 91 92  1  0
 91 90  1  0
 93 96  1  1
 93 94  1  0
 95 93  1  0
M  ISO  4  12 100  20 100  55 101  56 101
M  END
>  <TORSDO>  (27) 
F 24

>  <SCORE>  (27) 
2.795

>  <name>  (27) 
29

>  <ligand_id>  (27) 
29

>  <original_smiles>  (27) 
[H]c1c([H])c([H])c2c(c1[H])C([H])([H])C([H])([H])C([H])([H])C2([H])N([H])C(=O)C1([H])N(C(=O)C([H])(N([H])C(=O)C([H])(N([H])C([H])([H])[H])C([H])([H])[H])C(C([H])([H])[H])(C([H])([H])[H])C([H])([H])[H])C([H])([H])c2c([H])c(OC([H])([H])C([H])([H])[N+]([H])([H])C([H])([H])C([H])([H])N([H])C(=O)C([H])([H])N([H])C(=O)C([H])([H])N([H])C(=O)N3C([H])([H])C([H])([H])C([H])([H])C([H])(n4nc(-c5c([H])c([H])c(Oc6c([H])c([H])c(F)c([H])c6F)c([H])c5[H])c(C(=O)N([H])[H])c4N([H])[H])C3([H])[H])c([H])c([H])c2C1([H])[H]

>  <smiles>  (27) 
[H]c1c([H])c([H])c2c(c1[H])C([H])([H])C([H])([H])C([H])([H])C2([H])N([H])C(=O)C1([H])N(C(=O)C([H])(N([H])C(=O)C([H])(N([H])C([H])([H])[H])C([H])([H])[H])C(C([H])([H])[H])(C([H])([H])[H])C([H])([H])[H])C([H])([H])c2c([H])c(OC([H])([H])C([H])([H])[N+]([H])([H])C([H])([H])C([H])([H])N([H])C(=O)C([H])([H])N([H])C(=O)C([H])([H])N([H])C(=O)N3C([H])([H])C([H])([H])C([H])([H])C([H])(n4nc(-c5c([H])c([H])c(Oc6c([H])c([H])c(F)c([H])c6F)c([H])c5[H])c(C(=O)N([H])[H])c4N([H])[H])C3([H])[H])c([H])c([H])c2C1([H])[H]

$$$$
30:0:0
     RDKit          3D

104112  0  0  1  0  0  0  0  0999 V2000
  -31.9360  -20.8040   19.8300 C   0  0  0  0  0  0  0  0  0  0  0  0
  -32.8710  -21.7330   19.6250 N   0  0  0  0  0  0  0  0  0  0  0  0
  -31.0160  -20.9550   20.6380 O   0  0  0  0  0  0  0  0  0  0  0  0
  -33.5870  -21.5480   18.9340 H   0  0  0  0  0  0  0  0  0  0  0  0
  -32.0620  -19.5170   19.0080 C   0  0  0  0  0  2  0  0  0  0  0  0
  -28.7360  -16.9210   19.3330 C   0  0  0  0  0  3  0  0  0  0  0  0
  -28.6960  -18.0360   18.4330 C   0  0  0  0  0  3  0  0  0  0  0  0
  -29.8250  -16.6670   20.0840 C   0  0  0  0  0  0  0  0  0  0  0  0
  -29.7610  -18.8470   18.3200 C   0  0  0  0  0  0  0  0  0  0  0  0
  -30.9620  -17.6060   20.0840 C   0  0  0  0  0  0  0  0  0  0  0  0
  -30.9010  -18.6170   19.1490 N   0  0  0  0  0  0  0  0  0  0  0  0
  -31.9080  -17.4990   20.8740 O   0  0  0  0  0  0  0  0  0  0  0  0
  -30.6530  -14.4390   20.4440 C   0  0  0  0  0  0  0  0  0  0  0  0
  -30.3650  -12.2860   19.3100 C   0  0  0  0  0  2  0  0  0  0  0  0
  -29.4100  -12.5040   18.1140 C   0  0  0  0  0  2  0  0  0  0  0  0
  -27.9350  -12.3740   18.5430 C   0  0  0  0  0  2  0  0  0  0  0  0
  -27.6080  -13.2080   19.8070 C   0  0  0  0  0  3  0  0  0  0  0  0
  -28.6630  -12.9650   20.9150 C   0  0  0  0  0  2  0  0  0  0  0  0
  -29.9980  -13.2530   20.3550 N   0  0  0  0  0  0  0  0  0  0  0  0
  -31.7870  -14.6140   19.9880 O   0  0  0  0  0  0  0  0  0  0  0  0
  -29.8600  -15.4620   20.8050 N   0  0  0  0  0  0  0  0  0  0  0  0
  -28.9770  -15.1740   21.1930 H   0  0  0  0  0  0  0  0  0  0  0  0
  -25.2130  -13.8660   20.5030 C   0  0  0  0  0  0  0  0  0  0  0  0
  -24.1340  -13.1080   20.8690 C   0  0  0  0  0  0  0  0  0  0  0  0
  -24.5780  -11.7510   20.8470 C   0  0  0  0  0  0  0  0  0  0  0  0
  -26.2480  -12.9680   20.2820 N   0  0  0  0  0  0  0  0  0  0  0  0
  -25.8680  -11.6940   20.5460 N   0  0  0  0  0  0  0  0  0  0  0  0
  -23.8410  -10.4980   21.0380 C   0  0  0  0  0  0  0  0  0  0  0  0
  -24.2690   -9.5260   21.9690 C   0  0  0  0  0  3  0  0  0  0  0  0
  -23.5310   -8.3350   22.1480 C   0  0  0  0  0  3  0  0  0  0  0  0
  -22.3530   -8.1110   21.3960 C   0  0  0  0  0  0  0  0  0  0  0  0
  -21.9480   -9.0710   20.4530 C   0  0  0  0  0  3  0  0  0  0  0  0
  -22.6850  -10.2530   20.2710 C   0  0  0  0  0  3  0  0  0  0  0  0
  -21.5880   -6.9730   21.4830 O   0  0  0  0  0  0  0  0  0  0  0  0
  -21.5380   -6.2260   22.6320 C   0  0  0  0  0  0  0  0  0  0  0  0
  -21.1330   -6.7820   23.8660 C   0  0  0  0  0  3  0  0  0  0  0  0
  -21.0310   -5.9610   25.0070 C   0  0  0  0  0  3  0  0  0  0  0  0
  -21.3250   -4.5880   24.9170 C   0  0  0  0  0  0  0  0  0  0  0  0
  -21.7250   -4.0320   23.6890 C   0  0  0  0  0  3  0  0  0  0  0  0
  -21.8280   -4.8490   22.5490 C   0  0  0  0  0  0  0  0  0  0  0  0
  -22.1930   -4.3040   21.3630 F   0  0  0  0  0  0  0  0  0  0  0  0
  -21.2180   -3.7980   26.0120 F   0  0  0  0  0  0  0  0  0  0  0  0
  -22.7400  -13.6030   21.1330 C   0  0  0  0  0  0  0  0  0  0  0  0
  -21.9990  -12.9190   21.9990 N   0  0  0  0  0  0  0  0  0  0  0  0
  -22.3150  -14.6290   20.6070 O   0  0  0  0  0  0  0  0  0  0  0  0
  -22.3520  -12.0880   22.4520 H   0  0  0  0  0  0  0  0  0  0  0  0
  -21.0630  -13.2330   22.2140 H   0  0  0  0  0  0  0  0  0  0  0  0
  -25.3950  -15.2350   20.3280 N   0  0  0  0  0  0  0  0  0  0  0  0
  -24.6400  -15.9020   20.4490 H   0  0  0  0  0  0  0  0  0  0  0  0
  -26.2650  -15.6730   20.0580 H   0  0  0  0  0  0  0  0  0  0  0  0
  -28.7980  -20.0770   16.3110 C   0  0  0  0  0  1  0  0  0  0  0  0
  -29.7340  -19.9060   17.4160 N   0  0  0  0  0  0  0  0  0  0  0  0
  -30.3600  -20.6930   17.5600 H   0  0  0  0  0  0  0  0  0  0  0  0
  -32.9350  -23.0300   20.2970 C   0  0  0  0  0  2  0  0  0  0  0  0
  -32.9910  -24.2150   19.3280 C   0  0  0  0  0  0  0  0  0  0  0  0
  -33.0760  -25.4220   19.9060 N   0  0  0  0  0  0  0  0  0  0  0  0
  -32.9500  -24.0500   18.1050 O   0  0  0  0  0  0  0  0  0  0  0  0
  -33.1190  -25.4310   20.9190 H   0  0  0  0  0  0  0  0  0  0  0  0
  -33.0600  -26.7220   19.2340 C   0  0  0  0  0  2  0  0  0  0  0  0
  -31.6960  -27.0380   18.5780 C   0  0  0  0  0  2  0  0  0  0  0  0
  -30.5590  -26.9980   19.6120 C   0  0  0  0  0  2  0  0  0  0  0  0
  -29.2250  -27.0270   19.0370 N   0  0  0  0  0  0  0  0  0  0  0  0
  -28.9660  -27.9600   18.7270 H   0  0  0  0  0  0  0  0  0  0  0  0
  -28.3900  -26.7430   20.1720 O   0  0  0  0  0  0  0  0  0  0  0  0
  -24.5720  -31.9000   23.2470 C   0  0  0  0  0  0  0  0  0  0  0  0
  -27.2460  -27.4940   20.1580 C   0  0  0  0  0  0  0  0  0  0  0  0
  -23.3760  -30.4880   21.6050 C   0  0  0  0  0  3  0  0  0  0  0  0
  -24.8400  -28.9560   20.1860 C   0  0  0  0  0  0  0  0  0  0  0  0
  -25.8980  -30.8650   21.4110 C   0  0  0  0  0  2  0  0  0  0  0  0
  -25.9940  -29.4950   20.7700 C   0  0  0  0  0  0  0  0  0  0  0  0
  -27.2030  -28.7680   20.7600 C   0  0  0  0  0  3  0  0  0  0  0  0
  -26.0810  -26.9510   19.5840 C   0  0  0  0  0  3  0  0  0  0  0  0
  -24.8730  -27.6780   19.5960 C   0  0  0  0  0  3  0  0  0  0  0  0
  -23.5880  -29.8010   20.2310 C   0  0  0  0  0  2  0  0  0  0  0  0
  -24.6330  -31.0960   22.1470 N   0  0  0  0  0  0  0  0  0  0  0  0
  -23.4870  -32.1700   23.7830 O   0  0  0  0  0  0  0  0  0  0  0  0
  -22.7260  -29.4680   22.5660 C   0  0  0  0  0  0  0  0  0  0  0  0
  -21.4030  -29.2880   22.4430 N   0  0  0  0  0  0  0  0  0  0  0  0
  -23.4120  -28.8420   23.3790 O   0  0  0  0  0  0  0  0  0  0  0  0
  -20.9100  -29.8430   21.7590 H   0  0  0  0  0  0  0  0  0  0  0  0
  -18.0250  -28.1120   22.9520 C   0  0  0  0  0  0  0  0  0  0  0  0
  -20.5860  -28.3520   23.2150 C   0  0  0  0  0  3  0  0  0  0  0  0
  -20.6780  -26.9200   22.6360 C   0  0  0  0  0  2  0  0  0  0  0  0
  -19.5710  -26.6060   21.6260 C   0  0  0  0  0  2  0  0  0  0  0  0
  -18.1920  -26.7620   22.2730 C   0  0  0  0  0  2  0  0  0  0  0  0
  -19.1500  -28.8650   23.3800 C   0  0  0  0  0  0  0  0  0  0  0  0
  -18.9390  -30.1290   23.9710 C   0  0  0  0  0  3  0  0  0  0  0  0
  -17.6390  -30.6400   24.1380 C   0  0  0  0  0  3  0  0  0  0  0  0
  -16.5290  -29.8830   23.7260 C   0  0  0  0  0  3  0  0  0  0  0  0
  -16.7230  -28.6200   23.1390 C   0  0  0  0  0  3  0  0  0  0  0  0
  -25.8550  -32.5380   23.8660 C   0  0  0  0  0  3  0  0  0  0  0  0
  -26.3720  -31.7740   25.1440 C   0  0  1  0  0  0  0  0  0  0  0  0
  -25.2780  -31.5430   26.2120 C   0  0  0  0  0  1  0  0  0  0  0  0
  -26.9570  -30.3960   24.7560 C   0  0  0  0  0  1  0  0  0  0  0  0
  -27.5190  -32.5740   25.8050 C   0  0  0  0  0  1  0  0  0  0  0  0
  -25.5440  -33.9380   24.1830 N   0  0  0  0  0  0  0  0  0  0  0  0
  -25.8900  -34.9840   23.4220 C   0  0  0  0  0  0  0  0  0  0  0  0
  -26.5760  -34.8740   22.4020 O   0  0  0  0  0  0  0  0  0  0  0  0
  -24.9420  -34.0970   24.9790 H   0  0  0  0  0  0  0  0  0  0  0  0
  -24.1790  -36.7780   23.0190 C   0  0  0  0  0  1  0  0  0  0  0  0
  -25.3980  -36.3750   23.8640 C   0  0  0  0  0  3  0  0  0  0  0  0
  -27.5200  -37.2470   24.7400 C   0  0  0  0  0  1  0  0  0  0  0  0
  -26.4370  -37.4240   23.7750 N   0  0  0  0  0  0  0  0  0  0  0  0
  -26.0310  -38.3440   23.9220 H   0  0  0  0  0  0  0  0  0  0  0  0
  1  3  2  0
  2  1  1  0
  2 54  1  0
  4  2  1  0
  5 11  1  0
  5  1  1  0
  6  8  2  0
  7  6  1  0
  8 21  1  0
  9  7  2  0
  9 11  1  0
 10  8  1  0
 10 12  2  0
 11 10  1  0
 13 21  1  0
 14 19  1  0
 15 16  1  0
 15 14  1  0
 17 16  1  0
 17 26  1  0
 17 18  1  0
 19 13  1  0
 19 18  1  0
 20 13  2  0
 21 22  1  0
 23 24  2  0
 24 43  1  0
 25 24  1  0
 25 28  1  0
 26 23  1  0
 26 27  1  0
 27 25  2  0
 28 29  1  0
 29 30  2  0
 31 34  1  0
 31 30  1  0
 32 31  2  0
 33 32  1  0
 33 28  2  0
 34 35  1  0
 35 36  1  0
 36 37  2  0
 38 37  1  0
 38 42  1  0
 39 38  2  0
 40 35  2  0
 40 39  1  0
 41 40  1  0
 43 44  1  0
 44 47  1  0
 44 46  1  0
 45 43  2  0
 48 49  1  0
 48 23  1  0
 50 48  1  0
 51 52  1  0
 52 53  1  0
 52  9  1  0
 55 56  1  0
 55 54  1  0
 56 58  1  0
 57 55  2  0
 59 56  1  0
 60 59  1  0
 60 61  1  0
 62 61  1  0
 62 64  1  0
 63 62  1  0
 65 76  2  0
 66 64  1  0
 66 71  1  0
 67 75  1  0
 67 77  1  0
 68 74  1  0
 68 70  1  0
 69 75  1  0
 70 69  1  0
 71 70  2  0
 72 73  1  0
 72 66  2  0
 73 68  2  0
 74 67  1  0
 75 65  1  0
 77 79  2  0
 78 77  1  0
 80 78  1  0
 81 90  2  0
 81 86  1  0
 82 78  1  0
 82 86  1  0
 83 82  1  0
 84 85  1  0
 84 83  1  0
 85 81  1  0
 86 87  2  0
 87 88  1  0
 89 88  2  0
 90 89  1  0
 91 65  1  0
 91 96  1  0
 91 92  1  0
 92 95  1  1
 92 93  1  0
 94 92  1  0
 96 99  1  0
 97101  1  0
 97 96  1  0
 98 97  2  0
101100  1  0
103101  1  0
103104  1  0
103102  1  0
M  ISO  4  13 100  21 100  62 101  64 101
M  END
>  <TORSDO>  (28) 
F 25

>  <SCORE>  (28) 
-12.404

>  <name>  (28) 
30

>  <ligand_id>  (28) 
30

>  <original_smiles>  (28) 
[H]c1c([H])c([H])c2c(c1[H])C([H])([H])C([H])([H])C([H])([H])C2([H])N([H])C(=O)C1([H])N(C(=O)C([H])(N([H])C(=O)C([H])(N([H])C([H])([H])[H])C([H])([H])[H])C(C([H])([H])[H])(C([H])([H])[H])C([H])([H])[H])C([H])([H])c2c([H])c(ON([H])C([H])([H])C([H])([H])C([H])([H])N([H])C(=O)C([H])([H])N([H])C(=O)C([H])([H])n3c(N([H])C([H])([H])[H])c([H])c([H])c(N([H])C(=O)N4C([H])([H])C([H])([H])C([H])([H])C([H])(n5nc(-c6c([H])c([H])c(Oc7c([H])c([H])c(F)c([H])c7F)c([H])c6[H])c(C(=O)N([H])[H])c5N([H])[H])C4([H])[H])c3=O)c([H])c([H])c2C1([H])[H]

>  <smiles>  (28) 
[H]c1c([H])c([H])c2c(c1[H])C([H])([H])C([H])([H])C([H])([H])C2([H])N([H])C(=O)C1([H])N(C(=O)C([H])(N([H])C(=O)C([H])(N([H])C([H])([H])[H])C([H])([H])[H])C(C([H])([H])[H])(C([H])([H])[H])C([H])([H])[H])C([H])([H])c2c([H])c(ON([H])C([H])([H])C([H])([H])C([H])([H])N([H])C(=O)C([H])([H])N([H])C(=O)C([H])([H])n3c(N([H])C([H])([H])[H])c([H])c([H])c(N([H])C(=O)N4C([H])([H])C([H])([H])C([H])([H])C([H])(n5nc(-c6c([H])c([H])c(Oc7c([H])c([H])c(F)c([H])c7F)c([H])c6[H])c(C(=O)N([H])[H])c5N([H])[H])C4([H])[H])c3=O)c([H])c([H])c2C1([H])[H]

$$$$
31:0:0
     RDKit          3D

104112  0  0  1  0  0  0  0  0999 V2000
  -20.4960  -30.6040   21.8900 C   0  0  0  0  0  2  0  0  0  0  0  0
  -20.4880  -30.0760   20.2100 C   0  0  0  0  0  2  0  0  0  0  0  0
  -21.7050  -28.2530   18.3790 C   0  0  0  0  0  0  0  0  0  0  0  0
  -21.0360  -28.7720   19.4800 N   0  0  0  0  0  0  0  0  0  0  0  0
  -21.7270  -28.8750   17.3260 O   0  0  0  0  0  0  0  0  0  0  0  0
  -20.8760  -28.0130   20.0970 H   0  0  0  0  0  0  0  0  0  0  0  0
  -22.4610  -26.8320   18.5130 C   0  0  0  0  0  2  0  0  0  0  0  0
  -24.8410  -25.7280   18.1730 C   0  0  0  0  0  0  0  0  0  0  0  0
  -23.8670  -26.6810   17.9990 N   0  0  0  0  0  0  0  0  0  0  0  0
  -24.4270  -24.6300   18.5090 O   0  0  0  0  0  0  0  0  0  0  0  0
  -24.2380  -27.5240   17.5760 H   0  0  0  0  0  0  0  0  0  0  0  0
  -26.4290  -25.8600   17.7460 C   0  0  0  0  0  2  0  0  0  0  0  0
  -27.3970  -26.9050   18.2840 O   0  0  0  0  0  0  0  0  0  0  0  0
  -24.8980  -31.7870   22.8050 C   0  0  0  0  0  0  0  0  0  0  0  0
  -26.8710  -28.1540   18.3940 C   0  0  0  0  0  0  0  0  0  0  0  0
  -23.5000  -30.6060   21.0330 C   0  0  0  0  0  3  0  0  0  0  0  0
  -24.7940  -29.8510   19.0330 C   0  0  0  0  0  0  0  0  0  0  0  0
  -26.0120  -31.0460   20.7560 C   0  0  0  0  0  2  0  0  0  0  0  0
  -25.9840  -29.9490   19.7380 C   0  0  0  0  0  0  0  0  0  0  0  0
  -27.0550  -29.0580   19.4640 C   0  0  0  0  0  3  0  0  0  0  0  0
  -25.8980  -28.4510   17.4520 C   0  0  0  0  0  3  0  0  0  0  0  0
  -24.7920  -29.1860   17.8350 C   0  0  0  0  0  3  0  0  0  0  0  0
  -23.6250  -30.6370   19.5090 C   0  0  0  0  0  2  0  0  0  0  0  0
  -24.7910  -31.1630   21.5980 N   0  0  0  0  0  0  0  0  0  0  0  0
  -23.9500  -32.0510   23.5340 O   0  0  0  0  0  0  0  0  0  0  0  0
  -23.2250  -29.1310   21.5870 C   0  0  0  0  0  3  0  0  0  0  0  0
  -21.9940  -28.4780   21.6250 N   0  0  0  0  0  0  0  0  0  0  0  0
  -24.2320  -28.5480   21.9450 O   0  0  0  0  0  0  0  0  0  0  0  0
  -22.0110  -28.1060   20.7040 H   0  0  0  0  0  0  0  0  0  0  0  0
  -18.2000  -27.7720   22.2900 C   0  0  0  0  0  0  0  0  0  0  0  0
  -20.8650  -27.7360   22.4070 C   0  0  0  0  0  3  0  0  0  0  0  0
  -20.6980  -26.4690   21.5990 C   0  0  0  0  0  2  0  0  0  0  0  0
  -19.5370  -26.4930   20.6060 C   0  0  0  0  0  2  0  0  0  0  0  0
  -18.2440  -26.5590   21.3770 C   0  0  0  0  0  2  0  0  0  0  0  0
  -19.3940  -28.2980   22.8370 C   0  0  0  0  0  0  0  0  0  0  0  0
  -19.1360  -29.1980   23.9300 C   0  0  0  0  0  3  0  0  0  0  0  0
  -17.9090  -29.8270   24.1870 C   0  0  0  0  0  3  0  0  0  0  0  0
  -16.7640  -29.3300   23.5570 C   0  0  0  0  0  3  0  0  0  0  0  0
  -16.9120  -28.2620   22.6610 C   0  0  0  0  0  3  0  0  0  0  0  0
  -26.2610  -32.2810   23.3720 C   0  0  0  0  0  3  0  0  0  0  0  0
  -26.9150  -31.2600   24.3810 C   0  0  1  0  0  0  0  0  0  0  0  0
  -25.9640  -30.7690   25.4970 C   0  0  0  0  0  1  0  0  0  0  0  0
  -27.4280  -29.9900   23.6600 C   0  0  0  0  0  1  0  0  0  0  0  0
  -28.1380  -31.9170   25.0750 C   0  0  0  0  0  1  0  0  0  0  0  0
  -25.9860  -33.5550   24.0660 N   0  0  0  0  0  0  0  0  0  0  0  0
  -26.1160  -34.7590   23.5120 C   0  0  0  0  0  0  0  0  0  0  0  0
  -26.6080  -34.9200   22.3870 O   0  0  0  0  0  0  0  0  0  0  0  0
  -25.4870  -33.5100   24.9450 H   0  0  0  0  0  0  0  0  0  0  0  0
  -24.2880  -36.4950   23.8160 C   0  0  0  0  0  1  0  0  0  0  0  0
  -25.6400  -35.9790   24.3430 C   0  0  0  0  0  3  0  0  0  0  0  0
  -27.8530  -36.7520   25.0630 C   0  0  0  0  0  1  0  0  0  0  0  0
  -26.6190  -37.0930   24.3610 N   0  0  0  0  0  0  0  0  0  0  0  0
  -26.2190  -37.9270   24.7800 H   0  0  0  0  0  0  0  0  0  0  0  0
  -21.5010  -30.4920   23.3590 C   0  0  0  0  0  2  0  0  0  0  0  0
  -22.7440  -29.4110   24.1370 C   0  0  0  0  0  2  0  0  0  0  0  0
  -24.3560  -28.5760   23.9120 C   0  0  0  0  0  2  0  0  0  0  0  0
  -25.2950  -27.5480   22.7770 C   0  0  0  0  0  3  0  0  0  0  0  0
  -27.6010  -26.8100   21.1680 C   0  0  0  0  0  0  0  0  0  0  0  0
  -26.6920  -27.7180   21.9060 N   0  0  0  0  0  0  0  0  0  0  0  0
  -27.3190  -25.6170   21.2560 O   0  0  0  0  0  0  0  0  0  0  0  0
  -27.0210  -28.6680   21.8530 H   0  0  0  0  0  0  0  0  0  0  0  0
  -28.9580  -27.1160   20.1360 C   0  0  0  0  0  3  0  0  0  0  0  0
  -30.1010  -26.0760   19.2880 C   0  0  0  0  0  3  0  0  0  0  0  0
  -31.5720  -26.4120   18.3590 C   0  0  0  0  0  2  0  0  0  0  0  0
  -32.5550  -25.4910   17.1810 C   0  0  0  0  0  3  0  0  0  0  0  0
  -34.1940  -25.6900   16.4840 C   0  0  0  0  0  3  0  0  0  0  0  0
  -36.2580  -24.7000   14.5800 C   0  0  0  0  0  0  0  0  0  0  0  0
  -37.3420  -23.8010   12.3820 C   0  0  0  0  0  2  0  0  0  0  0  0
  -36.5480  -24.1710   11.0940 C   0  0  0  0  0  2  0  0  0  0  0  0
  -35.3390  -23.2350   10.8920 C   0  0  0  0  0  2  0  0  0  0  0  0
  -34.5920  -22.9770   12.2260 C   0  0  0  0  0  3  0  0  0  0  0  0
  -35.5450  -22.5890   13.3660 C   0  0  0  0  0  2  0  0  0  0  0  0
  -36.3940  -23.7530   13.5500 N   0  0  0  0  0  0  0  0  0  0  0  0
  -37.2940  -25.3570   14.7910 O   0  0  0  0  0  0  0  0  0  0  0  0
  -34.9150  -24.9650   15.1690 N   0  0  0  0  0  0  0  0  0  0  0  0
  -34.2660  -24.9450   14.3730 H   0  0  0  0  0  0  0  0  0  0  0  0
  -32.2320  -22.1100   12.5990 C   0  0  0  0  0  0  0  0  0  0  0  0
  -31.5900  -20.9700   12.1670 C   0  0  0  0  0  0  0  0  0  0  0  0
  -32.5600  -20.2290   11.4450 C   0  0  0  0  0  0  0  0  0  0  0  0
  -33.5230  -22.0100   12.1010 N   0  0  0  0  0  0  0  0  0  0  0  0
  -33.7390  -20.8350   11.4650 N   0  0  0  0  0  0  0  0  0  0  0  0
  -32.4200  -18.9870   10.6680 C   0  0  0  0  0  0  0  0  0  0  0  0
  -33.2890  -17.8950   10.8570 C   0  0  0  0  0  3  0  0  0  0  0  0
  -33.1170  -16.7080   10.1090 C   0  0  0  0  0  3  0  0  0  0  0  0
  -32.0660  -16.6080    9.1670 C   0  0  0  0  0  0  0  0  0  0  0  0
  -31.2180  -17.7150    8.9670 C   0  0  0  0  0  3  0  0  0  0  0  0
  -31.3950  -18.8950    9.7090 C   0  0  0  0  0  3  0  0  0  0  0  0
  -31.8360  -15.5080    8.3810 O   0  0  0  0  0  0  0  0  0  0  0  0
  -32.2390  -14.2580    8.7640 C   0  0  0  0  0  0  0  0  0  0  0  0
  -31.8440  -13.6850    9.9930 C   0  0  0  0  0  3  0  0  0  0  0  0
  -32.2250  -12.3720   10.3100 C   0  0  0  0  0  3  0  0  0  0  0  0
  -32.9920  -11.6170    9.4060 C   0  0  0  0  0  0  0  0  0  0  0  0
  -33.3830  -12.1770    8.1770 C   0  0  0  0  0  3  0  0  0  0  0  0
  -33.0050  -13.4960    7.8520 C   0  0  0  0  0  0  0  0  0  0  0  0
  -33.3650  -14.0250    6.6640 F   0  0  0  0  0  0  0  0  0  0  0  0
  -33.3520  -10.3450    9.7080 F   0  0  0  0  0  0  0  0  0  0  0  0
  -30.1380  -20.6700   12.3560 C   0  0  0  0  0  0  0  0  0  0  0  0
  -29.7950  -19.3870   12.4490 N   0  0  0  0  0  0  0  0  0  0  0  0
  -29.3030  -21.5640   12.4710 O   0  0  0  0  0  0  0  0  0  0  0  0
  -30.4860  -18.6580   12.3760 H   0  0  0  0  0  0  0  0  0  0  0  0
  -28.8290  -19.1400   12.5930 H   0  0  0  0  0  0  0  0  0  0  0  0
  -31.8340  -23.2100   13.3360 N   0  0  0  0  0  0  0  0  0  0  0  0
  -30.8860  -23.3300   13.6820 H   0  0  0  0  0  0  0  0  0  0  0  0
  -32.4420  -23.9750   13.6040 H   0  0  0  0  0  0  0  0  0  0  0  0
  1 54  1  0
  2  1  1  0
  3  7  1  0
  3  4  1  0
  4  6  1  0
  4  2  1  0
  5  3  2  0
  8 10  2  0
  9  8  1  0
  9  7  1  0
 11  9  1  0
 12  8  1  0
 12 13  1  0
 13 15  1  0
 14 25  2  0
 15 20  1  0
 16 23  1  0
 16 26  1  0
 16 24  1  0
 17 23  1  0
 17 19  1  0
 18 24  1  0
 19 18  1  0
 20 19  2  0
 21 22  1  0
 21 15  2  0
 22 17  2  0
 24 14  1  0
 26 27  1  0
 26 28  1  0
 28 57  1  0
 29 27  1  0
 30 39  2  0
 30 35  1  0
 31 27  1  0
 31 35  1  0
 32 31  1  0
 33 34  1  0
 33 32  1  0
 34 30  1  0
 35 36  2  0
 36 37  1  0
 38 37  2  0
 39 38  1  0
 40 14  1  0
 40 45  1  0
 40 41  1  0
 41 44  1  1
 41 42  1  0
 43 41  1  0
 45 48  1  0
 46 45  1  0
 46 50  1  0
 47 46  2  0
 50 49  1  0
 50 52  1  0
 52 53  1  0
 52 51  1  0
 54 55  1  0
 56 55  1  0
 57 59  1  0
 57 56  1  0
 58 60  2  0
 58 59  1  0
 61 59  1  0
 62 58  1  0
 63 62  2  0
 64 63  1  0
 65 64  1  0
 66 65  2  0
 67 74  2  0
 67 75  1  0
 68 73  1  0
 69 68  1  0
 70 69  1  0
 71 70  1  0
 71 72  1  0
 72 73  1  0
 73 67  1  0
 75 66  1  0
 76 75  1  0
 77102  1  0
 78 97  1  0
 78 77  2  0
 79 81  2  0
 79 78  1  0
 80 71  1  0
 80 77  1  0
 81 80  1  0
 82 83  1  0
 82 79  1  0
 84 83  2  0
 85 84  1  0
 86 85  2  0
 86 87  1  0
 87 82  2  0
 88 89  1  0
 88 85  1  0
 89 90  1  0
 90 91  2  0
 92 96  1  0
 92 91  1  0
 93 92  2  0
 94 93  1  0
 94 89  2  0
 95 94  1  0
 97 98  1  0
 97 99  2  0
 98101  1  0
100 98  1  0
102104  1  0
102103  1  0
M  ISO  4  12 101  13 101  67 100  75 100
M  END
>  <TORSDO>  (29) 
F 31

>  <SCORE>  (29) 
6.654

>  <name>  (29) 
31

>  <ligand_id>  (29) 
31

>  <original_smiles>  (29) 
[H]c1c([H])c([H])c2c(c1[H])C([H])([H])C([H])([H])C([H])([H])C2([H])N([H])C(=O)C1([H])N(C(=O)C([H])(N([H])C(=O)C([H])(N([H])C([H])([H])[H])C([H])([H])[H])C(C([H])([H])[H])(C([H])([H])[H])C([H])([H])[H])C([H])([H])c2c([H])c(OC([H])([H])C(=O)N([H])C([H])([H])C(=O)N([H])C([H])([H])C([H])([H])C([H])([H])C([H])([H])C([H])([H])C([H])([H])N([H])C(=O)C([H])([H])C([H])([H])C([H])([H])C([H])([H])C([H])([H])N([H])C(=O)N3C([H])([H])C([H])([H])C([H])([H])C([H])(n4nc(-c5c([H])c([H])c(Oc6c([H])c([H])c(F)c([H])c6F)c([H])c5[H])c(C(=O)N([H])[H])c4N([H])[H])C3([H])[H])c([H])c([H])c2C1([H])[H]

>  <smiles>  (29) 
[H]c1c([H])c([H])c2c(c1[H])C([H])([H])C([H])([H])C([H])([H])C2([H])N([H])C(=O)C1([H])N(C(=O)C([H])(N([H])C(=O)C([H])(N([H])C([H])([H])[H])C([H])([H])[H])C(C([H])([H])[H])(C([H])([H])[H])C([H])([H])[H])C([H])([H])c2c([H])c(OC([H])([H])C(=O)N([H])C([H])([H])C(=O)N([H])C([H])([H])C([H])([H])C([H])([H])C([H])([H])C([H])([H])C([H])([H])N([H])C(=O)C([H])([H])C([H])([H])C([H])([H])C([H])([H])C([H])([H])N([H])C(=O)N3C([H])([H])C([H])([H])C([H])([H])C([H])(n4nc(-c5c([H])c([H])c(Oc6c([H])c([H])c(F)c([H])c6F)c([H])c5[H])c(C(=O)N([H])[H])c4N([H])[H])C3([H])[H])c([H])c([H])c2C1([H])[H]

$$$$
32:0:0
     RDKit          3D

 94101  0  0  1  0  0  0  0  0999 V2000
  -25.3980  -22.0770   18.5420 C   0  0  0  0  0  2  0  0  0  0  0  0
  -25.6850  -20.8300   19.4100 C   0  0  0  0  0  2  0  0  0  0  0  0
  -25.8460  -19.5050   18.6320 C   0  0  0  0  0  2  0  0  0  0  0  0
  -27.8680  -18.3950   19.5810 C   0  0  0  0  0  0  0  0  0  0  0  0
  -27.2230  -19.0170   18.5790 N   0  0  0  0  0  0  0  0  0  0  0  0
  -27.4140  -18.3190   20.7230 O   0  0  0  0  0  0  0  0  0  0  0  0
  -27.6830  -19.0460   17.6770 H   0  0  0  0  0  0  0  0  0  0  0  0
  -29.2160  -17.7530   19.2320 C   0  0  0  0  0  2  0  0  0  0  0  0
  -29.6900  -16.6260   20.1880 C   0  0  0  0  0  2  0  0  0  0  0  0
  -31.3130  -14.6990   19.8390 C   0  0  0  0  0  0  0  0  0  0  0  0
  -30.9430  -12.4430   18.9760 C   0  0  0  0  0  2  0  0  0  0  0  0
  -29.9680  -12.5220   17.7840 C   0  0  0  0  0  2  0  0  0  0  0  0
  -28.5080  -12.4530   18.2690 C   0  0  0  0  0  2  0  0  0  0  0  0
  -28.2140  -13.4350   19.4330 C   0  0  0  0  0  3  0  0  0  0  0  0
  -29.3030  -13.3380   20.5300 C   0  0  0  0  0  2  0  0  0  0  0  0
  -30.6020  -13.5460   19.8800 N   0  0  0  0  0  0  0  0  0  0  0  0
  -32.5020  -14.7450   19.5340 O   0  0  0  0  0  0  0  0  0  0  0  0
  -30.6150  -15.7700   19.4480 N   0  0  0  0  0  0  0  0  0  0  0  0
  -31.2080  -16.3250   18.8460 H   0  0  0  0  0  0  0  0  0  0  0  0
  -25.8970  -14.1700   20.2740 C   0  0  0  0  0  0  0  0  0  0  0  0
  -24.8060  -13.4540   20.6820 C   0  0  0  0  0  0  0  0  0  0  0  0
  -25.1850  -12.0790   20.6040 C   0  0  0  0  0  0  0  0  0  0  0  0
  -26.8750  -13.2340   19.9770 N   0  0  0  0  0  0  0  0  0  0  0  0
  -26.4530  -11.9710   20.2350 N   0  0  0  0  0  0  0  0  0  0  0  0
  -24.3970  -10.8570   20.8040 C   0  0  0  0  0  0  0  0  0  0  0  0
  -24.7490   -9.9060   21.7850 C   0  0  0  0  0  3  0  0  0  0  0  0
  -23.9680   -8.7450   21.9690 C   0  0  0  0  0  3  0  0  0  0  0  0
  -22.8200   -8.5270   21.1710 C   0  0  0  0  0  0  0  0  0  0  0  0
  -22.4880   -9.4660   20.1770 C   0  0  0  0  0  3  0  0  0  0  0  0
  -23.2690  -10.6190   19.9920 C   0  0  0  0  0  3  0  0  0  0  0  0
  -22.0150   -7.4170   21.2610 O   0  0  0  0  0  0  0  0  0  0  0  0
  -21.8110   -6.7720   22.4560 C   0  0  0  0  0  0  0  0  0  0  0  0
  -21.2670   -7.4340   23.5770 C   0  0  0  0  0  3  0  0  0  0  0  0
  -21.0120   -6.7160   24.7630 C   0  0  0  0  0  3  0  0  0  0  0  0
  -21.2890   -5.3370   24.8250 C   0  0  0  0  0  0  0  0  0  0  0  0
  -21.8260   -4.6760   23.7070 C   0  0  0  0  0  3  0  0  0  0  0  0
  -22.0850   -5.3920   22.5250 C   0  0  0  0  0  0  0  0  0  0  0  0
  -22.5830   -4.7450   21.4440 F   0  0  0  0  0  0  0  0  0  0  0  0
  -21.0360   -4.6460   25.9610 F   0  0  0  0  0  0  0  0  0  0  0  0
  -23.4530  -14.0050   21.0310 C   0  0  0  0  0  0  0  0  0  0  0  0
  -22.7300  -13.3370   21.9250 N   0  0  0  0  0  0  0  0  0  0  0  0
  -23.0470  -15.0580   20.5440 O   0  0  0  0  0  0  0  0  0  0  0  0
  -23.0710  -12.4830   22.3390 H   0  0  0  0  0  0  0  0  0  0  0  0
  -21.8230  -13.6890   22.1970 H   0  0  0  0  0  0  0  0  0  0  0  0
  -26.1360  -15.5310   20.1140 N   0  0  0  0  0  0  0  0  0  0  0  0
  -25.4380  -16.2340   20.3320 H   0  0  0  0  0  0  0  0  0  0  0  0
  -27.0010  -15.9200   19.7700 H   0  0  0  0  0  0  0  0  0  0  0  0
  -26.6360  -22.9000   18.1630 C   0  0  0  0  0  2  0  0  0  0  0  0
  -28.1460  -24.5310   19.2760 C   0  0  0  0  0  0  0  0  0  0  0  0
  -27.1240  -23.6640   19.3050 N   0  0  0  0  0  0  0  0  0  0  0  0
  -28.8770  -24.6680   18.2910 O   0  0  0  0  0  0  0  0  0  0  0  0
  -26.5880  -23.6080   20.1610 H   0  0  0  0  0  0  0  0  0  0  0  0
  -28.3520  -25.4040   20.5230 C   0  0  0  0  0  2  0  0  0  0  0  0
  -28.4200  -26.7980   20.1930 O   0  0  0  0  0  0  0  0  0  0  0  0
  -24.6490  -31.9180   23.4010 C   0  0  0  0  0  0  0  0  0  0  0  0
  -27.2360  -27.5030   20.2370 C   0  0  0  0  0  0  0  0  0  0  0  0
  -23.4410  -30.5430   21.7620 C   0  0  0  0  0  3  0  0  0  0  0  0
  -24.8500  -29.0110   20.3040 C   0  0  0  0  0  0  0  0  0  0  0  0
  -25.9530  -30.8890   21.5370 C   0  0  0  0  0  2  0  0  0  0  0  0
  -26.0180  -29.5260   20.8790 C   0  0  0  0  0  0  0  0  0  0  0  0
  -27.2140  -28.7780   20.8400 C   0  0  0  0  0  3  0  0  0  0  0  0
  -26.0480  -27.0000   19.6580 C   0  0  0  0  0  3  0  0  0  0  0  0
  -24.8570  -27.7460   19.6930 C   0  0  0  0  0  3  0  0  0  0  0  0
  -23.6150  -29.8720   20.3720 C   0  0  0  0  0  2  0  0  0  0  0  0
  -24.7040  -31.1290   22.2910 N   0  0  0  0  0  0  0  0  0  0  0  0
  -23.5720  -32.1890   23.9480 O   0  0  0  0  0  0  0  0  0  0  0  0
  -22.7910  -29.5240   22.7250 C   0  0  0  0  0  0  0  0  0  0  0  0
  -21.4750  -29.4430   22.5680 N   0  0  0  0  0  0  0  0  0  0  0  0
  -23.4470  -28.8380   23.5100 O   0  0  0  0  0  0  0  0  0  0  0  0
  -21.0880  -30.1180   21.9230 H   0  0  0  0  0  0  0  0  0  0  0  0
  -18.0440  -28.0240   22.9890 C   0  0  0  0  0  0  0  0  0  0  0  0
  -20.5190  -28.4380   22.9530 C   0  0  0  0  0  3  0  0  0  0  0  0
  -20.7850  -26.9430   22.7380 C   0  0  0  0  0  2  0  0  0  0  0  0
  -19.6850  -26.3860   21.8070 C   0  0  0  0  0  2  0  0  0  0  0  0
  -18.2640  -26.6480   22.3550 C   0  0  0  0  0  2  0  0  0  0  0  0
  -19.1310  -28.8450   23.3820 C   0  0  0  0  0  0  0  0  0  0  0  0
  -18.8960  -30.1060   23.9680 C   0  0  0  0  0  3  0  0  0  0  0  0
  -17.5790  -30.5750   24.1150 C   0  0  0  0  0  3  0  0  0  0  0  0
  -16.4960  -29.7780   23.6990 C   0  0  0  0  0  3  0  0  0  0  0  0
  -16.7290  -28.5010   23.1550 C   0  0  0  0  0  3  0  0  0  0  0  0
  -25.9380  -32.5350   24.0210 C   0  0  0  0  0  3  0  0  0  0  0  0
  -25.6560  -33.9470   24.3050 N   0  0  0  0  0  0  0  0  0  0  0  0
  -26.0040  -34.9630   23.5050 C   0  0  0  0  0  0  0  0  0  0  0  0
  -26.6670  -34.8100   22.4730 O   0  0  0  0  0  0  0  0  0  0  0  0
  -25.0700  -34.1390   25.1030 H   0  0  0  0  0  0  0  0  0  0  0  0
  -24.3010  -36.7700   23.0970 C   0  0  0  0  0  1  0  0  0  0  0  0
  -25.5450  -36.3760   23.9130 C   0  0  0  0  0  3  0  0  0  0  0  0
  -27.7000  -37.2540   24.6920 C   0  0  0  0  0  1  0  0  0  0  0  0
  -26.5950  -37.4050   23.7500 N   0  0  0  0  0  0  0  0  0  0  0  0
  -26.2080  -38.3380   23.8640 H   0  0  0  0  0  0  0  0  0  0  0  0
  -26.4140  -31.7830   25.3230 C   0  0  1  0  0  0  0  0  0  0  0  0
  -25.3010  -31.5940   26.3790 C   0  0  0  0  0  1  0  0  0  0  0  0
  -26.9700  -30.3840   24.9690 C   0  0  0  0  0  1  0  0  0  0  0  0
  -27.5750  -32.5670   25.9810 C   0  0  0  0  0  1  0  0  0  0  0  0
  1  2  1  0
  3  2  1  0
  4  6  2  0
  5  3  1  0
  5  4  1  0
  7  5  1  0
  8  4  1  0
  8  9  1  0
 10 16  1  0
 11 16  1  0
 12 13  1  0
 12 11  1  0
 14 13  1  0
 14 23  1  0
 14 15  1  0
 16 15  1  0
 17 10  2  0
 18 10  1  0
 18  9  1  0
 19 18  1  0
 20 21  2  0
 21 40  1  0
 22 21  1  0
 22 25  1  0
 23 24  1  0
 23 20  1  0
 24 22  2  0
 25 26  1  0
 26 27  2  0
 28 31  1  0
 28 27  1  0
 29 28  2  0
 30 29  1  0
 30 25  2  0
 31 32  1  0
 32 37  2  0
 32 33  1  0
 33 34  2  0
 34 35  1  0
 35 39  1  0
 36 35  2  0
 37 36  1  0
 38 37  1  0
 40 41  1  0
 41 44  1  0
 41 43  1  0
 42 40  2  0
 45 20  1  0
 45 46  1  0
 47 45  1  0
 48  1  1  0
 48 50  1  0
 49 50  1  0
 49 53  1  0
 50 52  1  0
 51 49  2  0
 54 56  1  0
 54 53  1  0
 55 66  2  0
 56 61  1  0
 57 65  1  0
 57 67  1  0
 58 64  1  0
 58 60  1  0
 59 65  1  0
 60 59  1  0
 61 60  2  0
 62 63  1  0
 62 56  2  0
 63 58  2  0
 64 57  1  0
 65 55  1  0
 67 69  2  0
 68 67  1  0
 70 68  1  0
 71 80  2  0
 71 76  1  0
 72 68  1  0
 72 76  1  0
 73 72  1  0
 74 75  1  0
 74 73  1  0
 75 71  1  0
 76 77  2  0
 77 78  1  0
 79 78  2  0
 80 79  1  0
 81 55  1  0
 81 82  1  0
 81 91  1  0
 82 85  1  0
 83 87  1  0
 83 82  1  0
 84 83  2  0
 87 86  1  0
 89 90  1  0
 89 87  1  0
 89 88  1  0
 91 94  1  1
 91 92  1  0
 93 91  1  0
M  ISO  4  10 100  18 100  53 101  54 101
M  END
>  <TORSDO>  (30) 
F 24

>  <SCORE>  (30) 
-10.738

>  <name>  (30) 
32

>  <ligand_id>  (30) 
32

>  <original_smiles>  (30) 
[H]c1c([H])c([H])c2c(c1[H])C([H])([H])C([H])([H])C([H])([H])C2([H])N([H])C(=O)C1([H])N(C(=O)C([H])(N([H])C(=O)C([H])(N([H])C([H])([H])[H])C([H])([H])[H])C(C([H])([H])[H])(C([H])([H])[H])C([H])([H])[H])C([H])([H])c2c([H])c(OC([H])([H])C(=O)N([H])C([H])([H])C([H])([H])C([H])([H])C([H])([H])N([H])C(=O)C([H])([H])C([H])([H])N([H])C(=O)N3C([H])([H])C([H])([H])C([H])([H])C([H])(n4nc(-c5c([H])c([H])c(Oc6c([H])c([H])c(F)c([H])c6F)c([H])c5[H])c(C(=O)N([H])[H])c4N([H])[H])C3([H])[H])c([H])c([H])c2C1([H])[H]

>  <smiles>  (30) 
[H]c1c([H])c([H])c2c(c1[H])C([H])([H])C([H])([H])C([H])([H])C2([H])N([H])C(=O)C1([H])N(C(=O)C([H])(N([H])C(=O)C([H])(N([H])C([H])([H])[H])C([H])([H])[H])C(C([H])([H])[H])(C([H])([H])[H])C([H])([H])[H])C([H])([H])c2c([H])c(OC([H])([H])C(=O)N([H])C([H])([H])C([H])([H])C([H])([H])C([H])([H])N([H])C(=O)C([H])([H])C([H])([H])N([H])C(=O)N3C([H])([H])C([H])([H])C([H])([H])C([H])(n4nc(-c5c([H])c([H])c(Oc6c([H])c([H])c(F)c([H])c6F)c([H])c5[H])c(C(=O)N([H])[H])c4N([H])[H])C3([H])[H])c([H])c([H])c2C1([H])[H]

$$$$
33:0:0
     RDKit          3D

 99106  0  0  1  0  0  0  0  0999 V2000
  -32.6930  -22.9250   19.6910 C   0  0  0  0  0  0  0  0  0  0  0  0
  -33.7690  -23.6550   20.0210 N   0  0  0  0  0  0  0  0  0  0  0  0
  -31.5460  -23.2230   20.0330 O   0  0  0  0  0  0  0  0  0  0  0  0
  -34.6680  -23.3150   19.7040 H   0  0  0  0  0  0  0  0  0  0  0  0
  -32.9270  -21.6830   18.8230 C   0  0  0  0  0  2  0  0  0  0  0  0
  -32.5760  -19.4520   19.9180 C   0  0  0  0  0  0  0  0  0  0  0  0
  -32.1290  -20.5550   19.3010 N   0  0  0  0  0  0  0  0  0  0  0  0
  -33.7690  -19.2470   20.1460 O   0  0  0  0  0  0  0  0  0  0  0  0
  -31.1270  -20.6800   19.2460 H   0  0  0  0  0  0  0  0  0  0  0  0
  -31.4680  -18.5790   20.2610 C   0  0  0  0  0  3  0  0  0  0  0  0
  -31.5570  -17.5070   21.0800 C   0  0  0  0  0  3  0  0  0  0  0  0
  -30.3020  -16.7220   21.4570 C   0  0  0  0  0  2  0  0  0  0  0  0
  -30.7710  -14.4540   20.3630 C   0  0  0  0  0  0  0  0  0  0  0  0
  -30.3700  -12.3970   19.0460 C   0  0  0  0  0  2  0  0  0  0  0  0
  -29.3880  -12.6910   17.8920 C   0  0  0  0  0  2  0  0  0  0  0  0
  -27.9290  -12.5550   18.3630 C   0  0  0  0  0  2  0  0  0  0  0  0
  -27.6530  -13.3100   19.6890 C   0  0  0  0  0  3  0  0  0  0  0  0
  -28.7410  -12.9930   20.7450 C   0  0  0  0  0  2  0  0  0  0  0  0
  -30.0630  -13.3070   20.1610 N   0  0  0  0  0  0  0  0  0  0  0  0
  -31.7780  -14.7560   19.7170 O   0  0  0  0  0  0  0  0  0  0  0  0
  -30.2540  -15.2640   21.2950 N   0  0  0  0  0  0  0  0  0  0  0  0
  -29.4810  -14.8330   21.7820 H   0  0  0  0  0  0  0  0  0  0  0  0
  -25.2520  -13.9020   20.4290 C   0  0  0  0  0  0  0  0  0  0  0  0
  -24.1950  -13.1260   20.8130 C   0  0  0  0  0  0  0  0  0  0  0  0
  -24.6640  -11.7750   20.7760 C   0  0  0  0  0  0  0  0  0  0  0  0
  -26.3030  -13.0290   20.1890 N   0  0  0  0  0  0  0  0  0  0  0  0
  -25.9480  -11.7440   20.4470 N   0  0  0  0  0  0  0  0  0  0  0  0
  -23.9480  -10.5100   20.9800 C   0  0  0  0  0  0  0  0  0  0  0  0
  -24.3920   -9.5500   21.9180 C   0  0  0  0  0  3  0  0  0  0  0  0
  -23.6770   -8.3470   22.1060 C   0  0  0  0  0  3  0  0  0  0  0  0
  -22.5040   -8.0950   21.3550 C   0  0  0  0  0  0  0  0  0  0  0  0
  -22.0820   -9.0380   20.4030 C   0  0  0  0  0  3  0  0  0  0  0  0
  -22.7970  -10.2330   20.2140 C   0  0  0  0  0  3  0  0  0  0  0  0
  -21.7620   -6.9420   21.4510 O   0  0  0  0  0  0  0  0  0  0  0  0
  -21.7150   -6.2120   22.6110 C   0  0  0  0  0  0  0  0  0  0  0  0
  -21.2670   -6.7750   23.8270 C   0  0  0  0  0  3  0  0  0  0  0  0
  -21.1650   -5.9710   24.9800 C   0  0  0  0  0  3  0  0  0  0  0  0
  -21.5020   -4.6050   24.9170 C   0  0  0  0  0  0  0  0  0  0  0  0
  -21.9450   -4.0420   23.7070 C   0  0  0  0  0  3  0  0  0  0  0  0
  -22.0470   -4.8430   22.5570 C   0  0  0  0  0  0  0  0  0  0  0  0
  -22.4520   -4.2900   21.3890 F   0  0  0  0  0  0  0  0  0  0  0  0
  -21.3990   -3.8320   26.0230 F   0  0  0  0  0  0  0  0  0  0  0  0
  -22.7980  -13.5920   21.1150 C   0  0  0  0  0  0  0  0  0  0  0  0
  -22.0940  -12.8860   21.9900 N   0  0  0  0  0  0  0  0  0  0  0  0
  -22.3420  -14.6190   20.6110 O   0  0  0  0  0  0  0  0  0  0  0  0
  -22.4770  -12.0560   22.4160 H   0  0  0  0  0  0  0  0  0  0  0  0
  -21.1610  -13.1790   22.2420 H   0  0  0  0  0  0  0  0  0  0  0  0
  -25.4110  -15.2750   20.2460 N   0  0  0  0  0  0  0  0  0  0  0  0
  -24.6500  -15.9370   20.3560 H   0  0  0  0  0  0  0  0  0  0  0  0
  -26.2620  -15.7030   19.9020 H   0  0  0  0  0  0  0  0  0  0  0  0
  -33.7580  -24.9060   20.7780 C   0  0  0  0  0  2  0  0  0  0  0  0
  -34.3070  -26.0720   19.9310 C   0  0  0  0  0  2  0  0  0  0  0  0
  -33.7440  -27.4470   20.3390 C   0  0  0  0  0  2  0  0  0  0  0  0
  -32.5820  -27.9460   19.4490 C   0  0  0  0  0  2  0  0  0  0  0  0
  -31.2810  -27.1180   19.5500 C   0  0  0  0  0  2  0  0  0  0  0  0
  -30.1020  -27.7540   18.7820 C   0  0  0  0  0  2  0  0  0  0  0  0
  -28.9260  -26.8870   18.7150 N   0  0  0  0  0  0  0  0  0  0  0  0
  -28.2140  -27.3480   18.1540 H   0  0  0  0  0  0  0  0  0  0  0  0
  -28.3630  -26.8020   20.0460 O   0  0  0  0  0  0  0  0  0  0  0  0
  -24.5270  -31.8780   23.2200 C   0  0  0  0  0  0  0  0  0  0  0  0
  -27.1720  -27.4840   20.0980 C   0  0  0  0  0  0  0  0  0  0  0  0
  -23.2960  -30.4730   21.5940 C   0  0  0  0  0  3  0  0  0  0  0  0
  -24.7390  -28.9220   20.1680 C   0  0  0  0  0  0  0  0  0  0  0  0
  -25.8160  -30.8410   21.3600 C   0  0  0  0  0  2  0  0  0  0  0  0
  -25.8980  -29.4690   20.7330 C   0  0  0  0  0  0  0  0  0  0  0  0
  -27.1150  -28.7550   20.6990 C   0  0  0  0  0  3  0  0  0  0  0  0
  -25.9970  -26.9240   19.5530 C   0  0  0  0  0  3  0  0  0  0  0  0
  -24.7800  -27.6420   19.5800 C   0  0  0  0  0  3  0  0  0  0  0  0
  -23.4890  -29.7730   20.2230 C   0  0  0  0  0  2  0  0  0  0  0  0
  -24.5650  -31.0810   22.1150 N   0  0  0  0  0  0  0  0  0  0  0  0
  -23.4540  -32.1570   23.7730 O   0  0  0  0  0  0  0  0  0  0  0  0
  -22.6530  -29.4620   22.5700 C   0  0  0  0  0  0  0  0  0  0  0  0
  -21.3260  -29.2780   22.4520 N   0  0  0  0  0  0  0  0  0  0  0  0
  -23.3430  -28.8400   23.3820 O   0  0  0  0  0  0  0  0  0  0  0  0
  -20.8320  -29.8230   21.7590 H   0  0  0  0  0  0  0  0  0  0  0  0
  -17.9570  -28.1040   22.9770 C   0  0  0  0  0  0  0  0  0  0  0  0
  -20.5160  -28.3480   23.2360 C   0  0  0  0  0  3  0  0  0  0  0  0
  -20.6100  -26.9140   22.6650 C   0  0  0  0  0  2  0  0  0  0  0  0
  -19.5040  -26.5930   21.6570 C   0  0  0  0  0  2  0  0  0  0  0  0
  -18.1240  -26.7490   22.3040 C   0  0  0  0  0  2  0  0  0  0  0  0
  -19.0810  -28.8600   23.3990 C   0  0  0  0  0  0  0  0  0  0  0  0
  -18.8700  -30.1280   23.9840 C   0  0  0  0  0  3  0  0  0  0  0  0
  -17.5690  -30.6370   24.1550 C   0  0  0  0  0  3  0  0  0  0  0  0
  -16.4610  -29.8730   23.7530 C   0  0  0  0  0  3  0  0  0  0  0  0
  -16.6540  -28.6100   23.1670 C   0  0  0  0  0  3  0  0  0  0  0  0
  -25.8250  -32.5030   23.8260 C   0  0  0  0  0  3  0  0  0  0  0  0
  -25.5290  -33.9020   24.1560 N   0  0  0  0  0  0  0  0  0  0  0  0
  -25.8730  -34.9530   23.3990 C   0  0  0  0  0  0  0  0  0  0  0  0
  -26.5470  -34.8450   22.3720 O   0  0  0  0  0  0  0  0  0  0  0  0
  -24.9250  -34.0580   24.9490 H   0  0  0  0  0  0  0  0  0  0  0  0
  -24.1700  -36.7640   23.0260 C   0  0  0  0  0  1  0  0  0  0  0  0
  -25.3920  -36.3420   23.8570 C   0  0  0  0  0  3  0  0  0  0  0  0
  -27.5240  -37.1970   24.7280 C   0  0  0  0  0  1  0  0  0  0  0  0
  -26.4390  -37.3870   23.7710 N   0  0  0  0  0  0  0  0  0  0  0  0
  -26.0390  -38.3090   23.9170 H   0  0  0  0  0  0  0  0  0  0  0  0
  -26.3520  -31.7270   25.0960 C   0  0  1  0  0  0  0  0  0  0  0  0
  -25.2670  -31.5020   26.1760 C   0  0  0  0  0  1  0  0  0  0  0  0
  -26.9220  -30.3460   24.6950 C   0  0  0  0  0  1  0  0  0  0  0  0
  -27.5100  -32.5130   25.7530 C   0  0  0  0  0  1  0  0  0  0  0  0
  1  2  1  0
  1  3  2  0
  2 51  1  0
  4  2  1  0
  5  7  1  0
  5  1  1  0
  6  8  2  0
  6 10  1  0
  7  6  1  0
  9  7  1  0
 10 11  2  0
 11 12  1  0
 13 21  1  0
 14 19  1  0
 15 16  1  0
 15 14  1  0
 17 16  1  0
 17 26  1  0
 17 18  1  0
 19 13  1  0
 19 18  1  0
 20 13  2  0
 21 12  1  0
 21 22  1  0
 23 24  2  0
 24 43  1  0
 25 24  1  0
 25 28  1  0
 26 23  1  0
 26 27  1  0
 27 25  2  0
 28 29  1  0
 29 30  2  0
 31 34  1  0
 31 30  1  0
 32 31  2  0
 33 32  1  0
 33 28  2  0
 34 35  1  0
 35 36  1  0
 36 37  2  0
 38 37  1  0
 38 42  1  0
 39 38  2  0
 40 35  2  0
 40 39  1  0
 41 40  1  0
 43 44  1  0
 44 47  1  0
 44 46  1  0
 45 43  2  0
 48 49  1  0
 48 23  1  0
 50 48  1  0
 52 53  1  0
 52 51  1  0
 54 55  1  0
 54 53  1  0
 56 55  1  0
 57 56  1  0
 57 59  1  0
 58 57  1  0
 59 61  1  0
 60 71  2  0
 61 66  1  0
 62 70  1  0
 62 72  1  0
 63 69  1  0
 63 65  1  0
 64 70  1  0
 65 64  1  0
 66 65  2  0
 67 68  1  0
 67 61  2  0
 68 63  2  0
 69 62  1  0
 70 60  1  0
 72 74  2  0
 73 72  1  0
 75 73  1  0
 76 85  2  0
 76 81  1  0
 77 73  1  0
 77 81  1  0
 78 77  1  0
 79 80  1  0
 79 78  1  0
 80 76  1  0
 81 82  2  0
 82 83  1  0
 84 83  2  0
 85 84  1  0
 86 60  1  0
 86 87  1  0
 86 96  1  0
 87 90  1  0
 88 92  1  0
 88 87  1  0
 89 88  2  0
 92 91  1  0
 94 92  1  0
 94 95  1  0
 94 93  1  0
 96 99  1  1
 96 97  1  0
 98 96  1  0
M  ISO  4  13 100  21 100  57 101  59 101
M  END
>  <TORSDO>  (31) 
F 27

>  <SCORE>  (31) 
-11.241

>  <name>  (31) 
33

>  <ligand_id>  (31) 
33

>  <original_smiles>  (31) 
[H]C(C(=O)N([H])C([H])([H])C(=O)N([H])C([H])([H])C([H])([H])C([H])([H])C([H])([H])C([H])([H])C([H])([H])N([H])Oc1c([H])c([H])c2c(c1[H])C([H])([H])N(C(=O)C([H])(N([H])C(=O)C([H])(N([H])C([H])([H])[H])C([H])([H])[H])C(C([H])([H])[H])(C([H])([H])[H])C([H])([H])[H])C([H])(C(=O)N([H])C1([H])c3c([H])c([H])c([H])c([H])c3C([H])([H])C([H])([H])C1([H])[H])C2([H])[H])=C([H])C([H])([H])N([H])C(=O)N1C([H])([H])C([H])([H])C([H])([H])C([H])(n2nc(-c3c([H])c([H])c(Oc4c([H])c([H])c(F)c([H])c4F)c([H])c3[H])c(C(=O)N([H])[H])c2N([H])[H])C1([H])[H]

>  <smiles>  (31) 
[H]C(C(=O)N([H])C([H])([H])C(=O)N([H])C([H])([H])C([H])([H])C([H])([H])C([H])([H])C([H])([H])C([H])([H])N([H])Oc1c([H])c([H])c2c(c1[H])C([H])([H])N(C(=O)C([H])(N([H])C(=O)C([H])(N([H])C([H])([H])[H])C([H])([H])[H])C(C([H])([H])[H])(C([H])([H])[H])C([H])([H])[H])C([H])(C(=O)N([H])C1([H])c3c([H])c([H])c([H])c([H])c3C([H])([H])C([H])([H])C1([H])[H])C2([H])[H])=C([H])C([H])([H])N([H])C(=O)N1C([H])([H])C([H])([H])C([H])([H])C([H])(n2nc(-c3c([H])c([H])c(Oc4c([H])c([H])c(F)c([H])c4F)c([H])c3[H])c(C(=O)N([H])[H])c2N([H])[H])C1([H])[H]

$$$$
34:0:0
     RDKit          3D

107114  0  0  1  0  0  0  0  0999 V2000
  -23.5680  -24.4350   21.6950 C   0  0  0  0  0  2  0  0  0  0  0  0
  -24.5350  -24.0240   20.5670 C   0  0  0  0  0  2  0  0  0  0  0  0
  -25.7380  -23.1540   20.9910 C   0  0  0  0  0  2  0  0  0  0  0  0
  -26.7710  -22.9740   19.8500 C   0  0  0  0  0  2  0  0  0  0  0  0
  -27.5810  -24.2360   19.4890 C   0  0  0  0  0  2  0  0  0  0  0  0
  -29.2360  -26.2280   15.2130 C   0  0  0  0  0  0  0  0  0  0  0  0
  -28.5550  -25.2730   17.4050 C   0  0  0  0  0  0  0  0  0  0  0  0
  -29.1540  -26.2180   18.1510 N   0  0  0  0  0  4  0  0  0  0  0  0
  -28.6040  -25.2510   16.0500 N   0  0  0  0  0  0  0  0  0  0  0  0
  -27.8460  -24.3190   18.0410 N   0  0  0  0  0  0  0  0  0  0  0  0
  -29.8490  -27.2010   15.6730 O   0  0  0  0  0  0  0  0  0  0  0  0
  -29.1230  -26.2350   19.1580 H   0  0  0  0  0  0  0  0  0  0  0  0
  -29.7030  -26.9310   17.6750 H   0  0  0  0  0  0  0  0  0  0  0  0
  -28.0950  -24.4970   15.6190 H   0  0  0  0  0  0  0  0  0  0  0  0
  -27.3980  -23.6050   17.4880 H   0  0  0  0  0  0  0  0  0  0  0  0
  -29.0590  -26.0210   13.7100 C   0  0  0  0  0  2  0  0  0  0  0  0
  -30.3190  -27.3470   11.9480 C   0  0  0  0  0  0  0  0  0  0  0  0
  -30.0380  -27.7210    9.5280 C   0  0  0  0  0  2  0  0  0  0  0  0
  -28.8690  -28.7030    9.2990 C   0  0  0  0  0  2  0  0  0  0  0  0
  -27.5110  -27.9690    9.2700 C   0  0  0  0  0  2  0  0  0  0  0  0
  -27.3460  -26.9600   10.4360 C   0  0  0  0  0  3  0  0  0  0  0  0
  -28.6090  -26.0820   10.5650 C   0  0  0  0  0  2  0  0  0  0  0  0
  -29.7560  -26.9770   10.7660 N   0  0  0  0  0  0  0  0  0  0  0  0
  -31.2950  -28.0960   12.0130 O   0  0  0  0  0  0  0  0  0  0  0  0
  -29.5620  -27.2200   13.0420 N   0  0  0  0  0  0  0  0  0  0  0  0
  -29.8640  -27.8760   13.7510 H   0  0  0  0  0  0  0  0  0  0  0  0
  -24.9500  -26.2090   10.9920 C   0  0  0  0  0  0  0  0  0  0  0  0
  -24.1200  -25.2990   10.4050 C   0  0  0  0  0  0  0  0  0  0  0  0
  -24.8640  -24.7190    9.3330 C   0  0  0  0  0  0  0  0  0  0  0  0
  -26.1370  -26.1570   10.2820 N   0  0  0  0  0  0  0  0  0  0  0  0
  -26.0950  -25.2120    9.3080 N   0  0  0  0  0  0  0  0  0  0  0  0
  -24.4640  -23.7610    8.2960 C   0  0  0  0  0  0  0  0  0  0  0  0
  -25.1770  -22.5610    8.0880 C   0  0  0  0  0  3  0  0  0  0  0  0
  -24.7650  -21.6480    7.0930 C   0  0  0  0  0  3  0  0  0  0  0  0
  -23.6300  -21.9290    6.2970 C   0  0  0  0  0  0  0  0  0  0  0  0
  -22.9370  -23.1370    6.4930 C   0  0  0  0  0  3  0  0  0  0  0  0
  -23.3510  -24.0470    7.4810 C   0  0  0  0  0  3  0  0  0  0  0  0
  -23.1690  -21.1130    5.2940 O   0  0  0  0  0  0  0  0  0  0  0  0
  -23.3730  -19.7560    5.3170 C   0  0  0  0  0  0  0  0  0  0  0  0
  -22.9310  -18.9530    6.3940 C   0  0  0  0  0  3  0  0  0  0  0  0
  -23.0990  -17.5570    6.3430 C   0  0  0  0  0  3  0  0  0  0  0  0
  -23.7000  -16.9560    5.2190 C   0  0  0  0  0  0  0  0  0  0  0  0
  -24.1340  -17.7530    4.1460 C   0  0  0  0  0  3  0  0  0  0  0  0
  -23.9690  -19.1490    4.1950 C   0  0  0  0  0  0  0  0  0  0  0  0
  -24.3710  -19.9110    3.1490 F   0  0  0  0  0  0  0  0  0  0  0  0
  -23.8540  -15.6140    5.1680 F   0  0  0  0  0  0  0  0  0  0  0  0
  -22.6810  -25.0380   10.7490 C   0  0  0  0  0  0  0  0  0  0  0  0
  -22.2180  -23.8120   10.5450 N   0  0  0  0  0  0  0  0  0  0  0  0
  -21.9760  -25.9130   11.2510 O   0  0  0  0  0  0  0  0  0  0  0  0
  -22.8070  -23.0910   10.1540 H   0  0  0  0  0  0  0  0  0  0  0  0
  -21.2610  -23.5900   10.7850 H   0  0  0  0  0  0  0  0  0  0  0  0
  -24.7940  -27.0930   12.0590 N   0  0  0  0  0  0  0  0  0  0  0  0
  -23.9130  -27.1980   12.5500 H   0  0  0  0  0  0  0  0  0  0  0  0
  -25.4880  -27.7770   12.3330 H   0  0  0  0  0  0  0  0  0  0  0  0
  -22.0630  -24.3820   21.3340 C   0  0  0  0  0  2  0  0  0  0  0  0
  -21.6800  -24.3530   19.8390 C   0  0  0  0  0  2  0  0  0  0  0  0
  -22.8770  -24.2990   17.6660 C   0  0  0  0  0  0  0  0  0  0  0  0
  -22.8170  -24.6040   18.9670 N   0  0  0  0  0  0  0  0  0  0  0  0
  -21.9130  -23.8780   17.0240 O   0  0  0  0  0  0  0  0  0  0  0  0
  -23.6450  -24.9770   19.4120 H   0  0  0  0  0  0  0  0  0  0  0  0
  -24.2230  -24.5080   16.9830 C   0  0  0  0  0  2  0  0  0  0  0  0
  -24.0630  -25.2600   15.7220 N   0  0  0  0  0  4  0  0  0  0  0  0
  -23.4040  -26.0110   15.8590 H   0  0  0  0  0  0  0  0  0  0  0  0
  -23.6190  -24.6360   15.0670 H   0  0  0  0  0  0  0  0  0  0  0  0
  -25.3260  -25.7790   15.1400 C   0  0  0  0  0  2  0  0  0  0  0  0
  -25.8380  -27.0790   15.7990 C   0  0  0  0  0  2  0  0  0  0  0  0
  -26.1510  -26.9170   17.1920 O   0  0  0  0  0  0  0  0  0  0  0  0
  -25.7370  -30.0370   23.6010 C   0  0  0  0  0  0  0  0  0  0  0  0
  -25.4600  -27.7510   18.0380 C   0  0  0  0  0  0  0  0  0  0  0  0
  -23.7610  -30.2890   22.1370 C   0  0  0  0  0  3  0  0  0  0  0  0
  -24.0670  -29.5300   19.7300 C   0  0  0  0  0  0  0  0  0  0  0  0
  -26.0870  -29.9340   21.1380 C   0  0  0  0  0  2  0  0  0  0  0  0
  -25.4130  -29.2350   19.9780 C   0  0  0  0  0  0  0  0  0  0  0  0
  -26.1110  -28.3250   19.1510 C   0  0  0  0  0  3  0  0  0  0  0  0
  -24.1070  -28.0730   17.8020 C   0  0  0  0  0  3  0  0  0  0  0  0
  -23.3990  -28.9370   18.6520 C   0  0  0  0  0  3  0  0  0  0  0  0
  -23.3940  -30.5190   20.6500 C   0  0  0  0  0  2  0  0  0  0  0  0
  -25.2270  -30.0590   22.3370 N   0  0  0  0  0  0  0  0  0  0  0  0
  -25.0130  -30.2440   24.5860 O   0  0  0  0  0  0  0  0  0  0  0  0
  -22.8790  -29.1440   22.6880 C   0  0  0  0  0  0  0  0  0  0  0  0
  -21.5510  -29.3340   22.6290 N   0  0  0  0  0  0  0  0  0  0  0  0
  -23.3860  -28.1100   23.1290 O   0  0  0  0  0  0  0  0  0  0  0  0
  -21.2140  -30.2120   22.2610 H   0  0  0  0  0  0  0  0  0  0  0  0
  -18.0050  -28.6490   22.5570 C   0  0  0  0  0  0  0  0  0  0  0  0
  -20.5270  -28.3790   23.0490 C   0  0  0  0  0  3  0  0  0  0  0  0
  -20.4790  -27.1600   22.0980 C   0  0  0  0  0  2  0  0  0  0  0  0
  -19.4510  -27.3110   20.9740 C   0  0  0  0  0  2  0  0  0  0  0  0
  -18.0470  -27.5090   21.5530 C   0  0  0  0  0  2  0  0  0  0  0  0
  -19.1720  -29.0650   23.2490 C   0  0  0  0  0  0  0  0  0  0  0  0
  -19.0890  -30.1490   24.1500 C   0  0  0  0  0  3  0  0  0  0  0  0
  -17.8650  -30.8090   24.3680 C   0  0  0  0  0  3  0  0  0  0  0  0
  -16.7090  -30.3840   23.6890 C   0  0  0  0  0  3  0  0  0  0  0  0
  -16.7780  -29.3050   22.7920 C   0  0  0  0  0  3  0  0  0  0  0  0
  -27.2520  -29.7740   23.8670 C   0  0  0  0  0  3  0  0  0  0  0  0
  -27.6690  -30.6630   24.9570 N   0  0  0  0  0  0  0  0  0  0  0  0
  -28.3630  -31.7950   24.7890 C   0  0  0  0  0  0  0  0  0  0  0  0
  -28.7830  -32.1690   23.6890 O   0  0  0  0  0  0  0  0  0  0  0  0
  -27.3150  -30.4450   25.8780 H   0  0  0  0  0  0  0  0  0  0  0  0
  -27.6500  -33.8330   26.0730 C   0  0  0  0  0  1  0  0  0  0  0  0
  -28.6320  -32.6520   26.0390 C   0  0  0  0  0  3  0  0  0  0  0  0
  -31.0020  -32.1000   26.3590 C   0  0  0  0  0  1  0  0  0  0  0  0
  -30.0200  -33.1540   26.1190 N   0  0  0  0  0  0  0  0  0  0  0  0
  -30.1090  -33.8450   26.8580 H   0  0  0  0  0  0  0  0  0  0  0  0
  -27.5680  -28.2680   24.2150 C   0  0  1  0  0  0  0  0  0  0  0  0
  -26.6940  -27.6980   25.3580 C   0  0  0  0  0  1  0  0  0  0  0  0
  -27.3680  -27.3670   22.9730 C   0  0  0  0  0  1  0  0  0  0  0  0
  -29.0510  -28.1310   24.6300 C   0  0  0  0  0  1  0  0  0  0  0  0
  2  3  1  0
  2  1  1  0
  4  3  1  0
  5  4  1  0
  6 11  2  0
  6  9  1  0
  7 10  1  0
  7  8  2  0
  8 12  1  0
  9  7  1  0
 10  5  1  0
 13  8  1  0
 14  9  1  0
 15 10  1  0
 16  6  1  0
 17 24  2  0
 17 25  1  0
 18 23  1  0
 19 18  1  0
 20 19  1  0
 21 20  1  0
 21 22  1  0
 22 23  1  0
 23 17  1  0
 25 16  1  0
 25 26  1  0
 27 52  1  0
 28 47  1  0
 28 27  2  0
 29 28  1  0
 30 21  1  0
 30 27  1  0
 31 29  2  0
 31 30  1  0
 32 29  1  0
 33 32  1  0
 34 33  2  0
 35 36  2  0
 35 34  1  0
 36 37  1  0
 37 32  2  0
 38 39  1  0
 38 35  1  0
 39 40  1  0
 41 40  2  0
 42 41  1  0
 43 44  1  0
 43 42  2  0
 44 39  2  0
 45 44  1  0
 46 42  1  0
 47 49  2  0
 48 47  1  0
 48 51  1  0
 50 48  1  0
 52 54  1  0
 52 53  1  0
 55  1  1  0
 56 55  1  0
 57 58  1  0
 58 60  1  0
 58 56  1  0
 59 57  2  0
 61 57  1  0
 62 63  1  0
 62 61  1  0
 64 62  1  0
 65 62  1  0
 65 66  1  0
 66 67  1  0
 67 69  1  0
 68 79  2  0
 69 74  1  0
 70 78  1  0
 70 80  1  0
 71 73  1  0
 71 77  1  0
 72 78  1  0
 73 72  1  0
 74 73  2  0
 75 69  2  0
 75 76  1  0
 76 71  2  0
 77 70  1  0
 78 68  1  0
 80 82  2  0
 81 80  1  0
 83 81  1  0
 84 93  2  0
 84 89  1  0
 85 81  1  0
 85 89  1  0
 86 85  1  0
 87 88  1  0
 87 86  1  0
 88 84  1  0
 89 90  2  0
 90 91  1  0
 92 91  2  0
 93 92  1  0
 94 68  1  0
 94104  1  0
 94 95  1  0
 95 98  1  0
 96 95  1  0
 96100  1  0
 97 96  2  0
100 99  1  0
100102  1  0
102101  1  0
102103  1  0
104107  1  1
104105  1  0
106104  1  0
M  ISO  4  17 100  25 100  66 101  67 101
M  END
>  <TORSDO>  (32) 
F 29

>  <SCORE>  (32) 
-5.769

>  <name>  (32) 
34

>  <ligand_id>  (32) 
34

>  <original_smiles>  (32) 
[H]c1c([H])c([H])c2c(c1[H])C([H])([H])C([H])([H])C([H])([H])C2([H])N([H])C(=O)C1([H])N(C(=O)C([H])(N([H])C(=O)C([H])(N([H])C([H])([H])[H])C([H])([H])[H])C(C([H])([H])[H])(C([H])([H])[H])C([H])([H])[H])C([H])([H])c2c([H])c(OC([H])([H])C([H])([H])[N+]([H])([H])C([H])([H])C(=O)N([H])C([H])([H])C([H])([H])C([H])([H])C([H])([H])C([H])([H])C([H])([H])C([H])([H])[N+]([H])=C(N([H])[H])N([H])C(=O)C([H])([H])N([H])C(=O)N3C([H])([H])C([H])([H])C([H])([H])C([H])(n4nc(-c5c([H])c([H])c(Oc6c([H])c([H])c(F)c([H])c6F)c([H])c5[H])c(C(=O)N([H])[H])c4N([H])[H])C3([H])[H])c([H])c([H])c2C1([H])[H]

>  <smiles>  (32) 
[H]c1c([H])c([H])c2c(c1[H])C([H])([H])C([H])([H])C([H])([H])C2([H])N([H])C(=O)C1([H])N(C(=O)C([H])(N([H])C(=O)C([H])(N([H])C([H])([H])[H])C([H])([H])[H])C(C([H])([H])[H])(C([H])([H])[H])C([H])([H])[H])C([H])([H])c2c([H])c(OC([H])([H])C([H])([H])[N+]([H])([H])C([H])([H])C(=O)N([H])C([H])([H])C([H])([H])C([H])([H])C([H])([H])C([H])([H])C([H])([H])C([H])([H])[N+]([H])=C(N([H])[H])N([H])C(=O)C([H])([H])N([H])C(=O)N3C([H])([H])C([H])([H])C([H])([H])C([H])(n4nc(-c5c([H])c([H])c(Oc6c([H])c([H])c(F)c([H])c6F)c([H])c5[H])c(C(=O)N([H])[H])c4N([H])[H])C3([H])[H])c([H])c([H])c2C1([H])[H]

$$$$
36:0:0
     RDKit          3D

 91 98  0  0  1  0  0  0  0  0999 V2000
  -29.2930  -21.4900   20.8420 C   0  0  0  0  0  3  0  0  0  0  0  0
  -29.6170  -22.3690   19.8750 C   0  0  0  0  0  3  0  0  0  0  0  0
  -29.3000  -20.0620   20.5820 C   0  0  0  0  0  0  0  0  0  0  0  0
  -29.3010  -19.3570   21.7200 N   0  0  0  0  0  0  0  0  0  0  0  0
  -29.3460  -19.5320   19.4700 O   0  0  0  0  0  0  0  0  0  0  0  0
  -29.2520  -19.8790   22.5860 H   0  0  0  0  0  0  0  0  0  0  0  0
  -29.4940  -17.9120   21.8330 C   0  0  0  0  0  2  0  0  0  0  0  0
  -30.9550  -17.5350   21.4970 C   0  0  0  0  0  2  0  0  0  0  0  0
  -31.3720  -16.0860   21.8070 C   0  0  0  0  0  2  0  0  0  0  0  0
  -30.8970  -14.2900   20.1300 C   0  0  0  0  0  0  0  0  0  0  0  0
  -30.4170  -12.2020   18.9010 C   0  0  0  0  0  2  0  0  0  0  0  0
  -29.4250  -12.4180   17.7430 C   0  0  0  0  0  2  0  0  0  0  0  0
  -27.9730  -12.3200   18.2440 C   0  0  0  0  0  2  0  0  0  0  0  0
  -27.7170  -13.1940   19.5000 C   0  0  0  0  0  3  0  0  0  0  0  0
  -28.8040  -12.9480   20.5670 C   0  0  0  0  0  2  0  0  0  0  0  0
  -30.1240  -13.1880   19.9510 N   0  0  0  0  0  0  0  0  0  0  0  0
  -31.8970  -14.5390   19.4480 O   0  0  0  0  0  0  0  0  0  0  0  0
  -30.5470  -15.0590   21.1700 N   0  0  0  0  0  0  0  0  0  0  0  0
  -29.7130  -14.7710   21.6630 H   0  0  0  0  0  0  0  0  0  0  0  0
  -25.3730  -13.8950   20.3100 C   0  0  0  0  0  0  0  0  0  0  0  0
  -24.2950  -13.1640   20.7310 C   0  0  0  0  0  0  0  0  0  0  0  0
  -24.7040  -11.7970   20.6830 C   0  0  0  0  0  0  0  0  0  0  0  0
  -26.3750  -12.9760   20.0370 N   0  0  0  0  0  0  0  0  0  0  0  0
  -25.9770  -11.7090   20.3180 N   0  0  0  0  0  0  0  0  0  0  0  0
  -23.9420  -10.5620   20.9100 C   0  0  0  0  0  0  0  0  0  0  0  0
  -24.3770   -9.5830   21.8320 C   0  0  0  0  0  3  0  0  0  0  0  0
  -23.6170   -8.4130   22.0450 C   0  0  0  0  0  3  0  0  0  0  0  0
  -22.4090   -8.2120   21.3370 C   0  0  0  0  0  0  0  0  0  0  0  0
  -21.9920   -9.1790   20.4050 C   0  0  0  0  0  3  0  0  0  0  0  0
  -22.7520  -10.3410   20.1890 C   0  0  0  0  0  3  0  0  0  0  0  0
  -21.6190   -7.0950   21.4610 O   0  0  0  0  0  0  0  0  0  0  0  0
  -21.5840   -6.3630   22.6210 C   0  0  0  0  0  0  0  0  0  0  0  0
  -21.2380   -6.9470   23.8600 C   0  0  0  0  0  3  0  0  0  0  0  0
  -21.1450   -6.1440   25.0140 C   0  0  0  0  0  3  0  0  0  0  0  0
  -21.3900   -4.7610   24.9320 C   0  0  0  0  0  0  0  0  0  0  0  0
  -21.7280   -4.1770   23.6990 C   0  0  0  0  0  3  0  0  0  0  0  0
  -21.8220   -4.9750   22.5460 C   0  0  0  0  0  0  0  0  0  0  0  0
  -22.1280   -4.4050   21.3550 F   0  0  0  0  0  0  0  0  0  0  0  0
  -21.2930   -3.9880   26.0390 F   0  0  0  0  0  0  0  0  0  0  0  0
  -22.9300  -13.6940   21.0640 C   0  0  0  0  0  0  0  0  0  0  0  0
  -22.2180  -13.0300   21.9690 N   0  0  0  0  0  0  0  0  0  0  0  0
  -22.5040  -14.7290   20.5550 O   0  0  0  0  0  0  0  0  0  0  0  0
  -22.5750  -12.1920   22.4050 H   0  0  0  0  0  0  0  0  0  0  0  0
  -21.3040  -13.3710   22.2330 H   0  0  0  0  0  0  0  0  0  0  0  0
  -25.5800  -15.2580   20.1190 N   0  0  0  0  0  0  0  0  0  0  0  0
  -24.8450  -15.9430   20.2590 H   0  0  0  0  0  0  0  0  0  0  0  0
  -26.4290  -15.6620   19.7400 H   0  0  0  0  0  0  0  0  0  0  0  0
  -29.6630  -23.8700   20.0610 C   0  0  0  0  0  2  0  0  0  0  0  0
  -28.4400  -24.5580   19.4330 C   0  0  0  0  0  2  0  0  0  0  0  0
  -28.7110  -26.0150   19.0390 C   0  0  0  0  0  2  0  0  0  0  0  0
  -28.4730  -26.8880   20.1400 O   0  0  0  0  0  0  0  0  0  0  0  0
  -24.5810  -31.9440   23.2600 C   0  0  0  0  0  0  0  0  0  0  0  0
  -27.2550  -27.5270   20.1910 C   0  0  0  0  0  0  0  0  0  0  0  0
  -23.3760  -30.5130   21.6430 C   0  0  0  0  0  3  0  0  0  0  0  0
  -24.8300  -28.9770   20.2280 C   0  0  0  0  0  0  0  0  0  0  0  0
  -25.8920  -30.9000   21.4220 C   0  0  0  0  0  2  0  0  0  0  0  0
  -25.9840  -29.5220   20.8020 C   0  0  0  0  0  0  0  0  0  0  0  0
  -27.1940  -28.7980   20.7940 C   0  0  0  0  0  3  0  0  0  0  0  0
  -26.0690  -26.9680   19.6520 C   0  0  0  0  0  3  0  0  0  0  0  0
  -24.8650  -27.6930   19.6580 C   0  0  0  0  0  3  0  0  0  0  0  0
  -23.5830  -29.8280   20.2680 C   0  0  0  0  0  2  0  0  0  0  0  0
  -24.6340  -31.1340   22.1660 N   0  0  0  0  0  0  0  0  0  0  0  0
  -23.5010  -32.2100   23.8040 O   0  0  0  0  0  0  0  0  0  0  0  0
  -22.7470  -29.4900   22.6160 C   0  0  0  0  0  0  0  0  0  0  0  0
  -21.4260  -29.2860   22.4910 N   0  0  0  0  0  0  0  0  0  0  0  0
  -23.4430  -28.8830   23.4350 O   0  0  0  0  0  0  0  0  0  0  0  0
  -20.9310  -29.8270   21.7980 H   0  0  0  0  0  0  0  0  0  0  0  0
  -18.0720  -28.0460   22.9960 C   0  0  0  0  0  0  0  0  0  0  0  0
  -20.6220  -28.3490   23.2730 C   0  0  0  0  0  3  0  0  0  0  0  0
  -20.7520  -26.9120   22.7220 C   0  0  0  0  0  2  0  0  0  0  0  0
  -19.6590  -26.5530   21.7110 C   0  0  0  0  0  2  0  0  0  0  0  0
  -18.2720  -26.6860   22.3450 C   0  0  0  0  0  2  0  0  0  0  0  0
  -19.1750  -28.8340   23.4150 C   0  0  0  0  0  0  0  0  0  0  0  0
  -18.9340  -30.1060   23.9780 C   0  0  0  0  0  3  0  0  0  0  0  0
  -17.6180  -30.5860   24.1360 C   0  0  0  0  0  3  0  0  0  0  0  0
  -16.5300  -29.7960   23.7300 C   0  0  0  0  0  3  0  0  0  0  0  0
  -16.7580  -28.5300   23.1640 C   0  0  0  0  0  3  0  0  0  0  0  0
  -25.8660  -32.5940   23.8630 C   0  0  0  0  0  3  0  0  0  0  0  0
  -25.5440  -33.9920   24.1780 N   0  0  0  0  0  0  0  0  0  0  0  0
  -25.8510  -35.0380   23.3990 C   0  0  0  0  0  0  0  0  0  0  0  0
  -26.5090  -34.9300   22.3620 O   0  0  0  0  0  0  0  0  0  0  0  0
  -24.9670  -34.1500   24.9910 H   0  0  0  0  0  0  0  0  0  0  0  0
  -24.0910  -36.8010   23.0500 C   0  0  0  0  0  1  0  0  0  0  0  0
  -25.3510  -36.4260   23.8450 C   0  0  0  0  0  3  0  0  0  0  0  0
  -27.4920  -37.3500   24.6160 C   0  0  0  0  0  1  0  0  0  0  0  0
  -26.3640  -37.4950   23.7000 N   0  0  0  0  0  0  0  0  0  0  0  0
  -25.9470  -38.4070   23.8580 H   0  0  0  0  0  0  0  0  0  0  0  0
  -26.4020  -31.8410   25.1410 C   0  0  1  0  0  0  0  0  0  0  0  0
  -25.3190  -31.6030   26.2220 C   0  0  0  0  0  1  0  0  0  0  0  0
  -26.9970  -30.4670   24.7550 C   0  0  0  0  0  1  0  0  0  0  0  0
  -27.5490  -32.6550   25.7850 C   0  0  0  0  0  1  0  0  0  0  0  0
  2 48  1  0
  2  1  2  0
  3  1  1  0
  3  4  1  0
  4  7  1  0
  4  6  1  0
  5  3  2  0
  8  9  1  0
  8  7  1  0
 10 18  1  0
 11 16  1  0
 12 13  1  0
 12 11  1  0
 14 13  1  0
 14 23  1  0
 14 15  1  0
 16 10  1  0
 16 15  1  0
 17 10  2  0
 18 19  1  0
 18  9  1  0
 20 21  2  0
 21 40  1  0
 22 21  1  0
 22 25  1  0
 23 20  1  0
 23 24  1  0
 24 22  2  0
 25 26  1  0
 26 27  2  0
 28 31  1  0
 28 27  1  0
 29 28  2  0
 30 29  1  0
 30 25  2  0
 31 32  1  0
 32 33  1  0
 33 34  2  0
 35 34  1  0
 35 39  1  0
 36 35  2  0
 37 32  2  0
 37 36  1  0
 38 37  1  0
 40 41  1  0
 41 44  1  0
 41 43  1  0
 42 40  2  0
 45 46  1  0
 45 20  1  0
 47 45  1  0
 49 48  1  0
 50 49  1  0
 50 51  1  0
 51 53  1  0
 52 63  2  0
 53 58  1  0
 54 62  1  0
 54 64  1  0
 55 61  1  0
 55 57  1  0
 56 62  1  0
 57 56  1  0
 58 57  2  0
 59 60  1  0
 59 53  2  0
 60 55  2  0
 61 54  1  0
 62 52  1  0
 64 66  2  0
 65 64  1  0
 67 65  1  0
 68 77  2  0
 68 73  1  0
 69 65  1  0
 69 73  1  0
 70 69  1  0
 71 72  1  0
 71 70  1  0
 72 68  1  0
 73 74  2  0
 74 75  1  0
 76 75  2  0
 77 76  1  0
 78 52  1  0
 78 79  1  0
 78 88  1  0
 79 82  1  0
 80 84  1  0
 80 79  1  0
 81 80  2  0
 84 83  1  0
 86 84  1  0
 86 87  1  0
 86 85  1  0
 88 91  1  1
 88 89  1  0
 90 88  1  0
M  ISO  4  10 100  18 100  50 101  51 101
M  END
>  <TORSDO>  (33) 
F 23

>  <SCORE>  (33) 
-11.644

>  <name>  (33) 
36

>  <ligand_id>  (33) 
36

>  <original_smiles>  (33) 
[H]C(C(=O)N([H])C([H])([H])C([H])([H])C([H])([H])N([H])C(=O)N1C([H])([H])C([H])([H])C([H])([H])C([H])(n2nc(-c3c([H])c([H])c(Oc4c([H])c([H])c(F)c([H])c4F)c([H])c3[H])c(C(=O)N([H])[H])c2N([H])[H])C1([H])[H])=C([H])C([H])([H])C([H])([H])C([H])([H])Oc1c([H])c([H])c2c(c1[H])C([H])([H])N(C(=O)C([H])(N([H])C(=O)C([H])(N([H])C([H])([H])[H])C([H])([H])[H])C(C([H])([H])[H])(C([H])([H])[H])C([H])([H])[H])C([H])(C(=O)N([H])C1([H])c3c([H])c([H])c([H])c([H])c3C([H])([H])C([H])([H])C1([H])[H])C2([H])[H]

>  <smiles>  (33) 
[H]C(C(=O)N([H])C([H])([H])C([H])([H])C([H])([H])N([H])C(=O)N1C([H])([H])C([H])([H])C([H])([H])C([H])(n2nc(-c3c([H])c([H])c(Oc4c([H])c([H])c(F)c([H])c4F)c([H])c3[H])c(C(=O)N([H])[H])c2N([H])[H])C1([H])[H])=C([H])C([H])([H])C([H])([H])C([H])([H])Oc1c([H])c([H])c2c(c1[H])C([H])([H])N(C(=O)C([H])(N([H])C(=O)C([H])(N([H])C([H])([H])[H])C([H])([H])[H])C(C([H])([H])[H])(C([H])([H])[H])C([H])([H])[H])C([H])(C(=O)N([H])C1([H])c3c([H])c([H])c([H])c([H])c3C([H])([H])C([H])([H])C1([H])[H])C2([H])[H]

$$$$
37:0:0
     RDKit          3D

 93100  0  0  1  0  0  0  0  0999 V2000
  -29.5550  -21.2010   24.0210 C   0  0  0  0  0  2  0  0  0  0  0  0
  -30.6110  -20.3880   24.6620 N   0  0  0  0  0  4  0  0  0  0  0  0
  -30.5320  -20.4970   25.6600 H   0  0  0  0  0  0  0  0  0  0  0  0
  -31.5110  -20.7480   24.3950 H   0  0  0  0  0  0  0  0  0  0  0  0
  -30.5860  -18.9460   24.3360 C   0  0  0  0  0  2  0  0  0  0  0  0
  -30.8180  -18.6970   22.8330 C   0  0  0  0  0  2  0  0  0  0  0  0
  -30.7420  -17.2160   22.4370 C   0  0  0  0  0  2  0  0  0  0  0  0
  -31.1600  -17.0050   20.9730 C   0  0  0  0  0  2  0  0  0  0  0  0
  -31.7760  -15.6280   20.7030 C   0  0  0  0  0  2  0  0  0  0  0  0
  -30.6860  -13.9890   19.1850 C   0  0  0  0  0  0  0  0  0  0  0  0
  -30.3020  -11.6770   18.4470 C   0  0  0  0  0  2  0  0  0  0  0  0
  -29.2170  -11.5010   17.3780 C   0  0  0  0  0  2  0  0  0  0  0  0
  -27.8350  -11.3620   18.0370 C   0  0  0  0  0  2  0  0  0  0  0  0
  -27.5500  -12.4970   19.0520 C   0  0  0  0  0  3  0  0  0  0  0  0
  -28.7260  -12.6770   20.0390 C   0  0  0  0  0  2  0  0  0  0  0  0
  -29.9770  -12.8420   19.2770 N   0  0  0  0  0  0  0  0  0  0  0  0
  -31.4140  -14.2790   18.2300 O   0  0  0  0  0  0  0  0  0  0  0  0
  -30.7610  -14.6410   20.3510 N   0  0  0  0  0  0  0  0  0  0  0  0
  -30.1890  -14.2790   21.1000 H   0  0  0  0  0  0  0  0  0  0  0  0
  -25.3330  -13.1860   20.1690 C   0  0  0  0  0  0  0  0  0  0  0  0
  -24.3110  -12.4480   20.7070 C   0  0  0  0  0  0  0  0  0  0  0  0
  -24.7030  -11.0810   20.5810 C   0  0  0  0  0  0  0  0  0  0  0  0
  -26.2870  -12.2700   19.7550 N   0  0  0  0  0  0  0  0  0  0  0  0
  -25.9190  -10.9980   20.0550 N   0  0  0  0  0  0  0  0  0  0  0  0
  -23.9680   -9.8440   20.8760 C   0  0  0  0  0  0  0  0  0  0  0  0
  -24.3970   -8.9520   21.8850 C   0  0  0  0  0  3  0  0  0  0  0  0
  -23.6620   -7.7790   22.1620 C   0  0  0  0  0  3  0  0  0  0  0  0
  -22.4860   -7.4880   21.4310 C   0  0  0  0  0  0  0  0  0  0  0  0
  -22.0780   -8.3680   20.4120 C   0  0  0  0  0  3  0  0  0  0  0  0
  -22.8120   -9.5310   20.1330 C   0  0  0  0  0  3  0  0  0  0  0  0
  -21.7230   -6.3600   21.6140 O   0  0  0  0  0  0  0  0  0  0  0  0
  -21.5220   -5.8210   22.8590 C   0  0  0  0  0  0  0  0  0  0  0  0
  -20.9310   -6.5620   23.9050 C   0  0  0  0  0  3  0  0  0  0  0  0
  -20.6770   -5.9480   25.1480 C   0  0  0  0  0  3  0  0  0  0  0  0
  -21.0070   -4.5940   25.3450 C   0  0  0  0  0  0  0  0  0  0  0  0
  -21.5920   -3.8530   24.3030 C   0  0  0  0  0  3  0  0  0  0  0  0
  -21.8450   -4.4650   23.0630 C   0  0  0  0  0  0  0  0  0  0  0  0
  -22.3890   -3.7400   22.0550 F   0  0  0  0  0  0  0  0  0  0  0  0
  -20.7580   -4.0010   26.5350 F   0  0  0  0  0  0  0  0  0  0  0  0
  -23.0020  -12.9730   21.2220 C   0  0  0  0  0  0  0  0  0  0  0  0
  -22.4270  -12.3150   22.2230 N   0  0  0  0  0  0  0  0  0  0  0  0
  -22.5050  -14.0040   20.7700 O   0  0  0  0  0  0  0  0  0  0  0  0
  -22.8430  -11.4800   22.6060 H   0  0  0  0  0  0  0  0  0  0  0  0
  -21.5570  -12.6530   22.6100 H   0  0  0  0  0  0  0  0  0  0  0  0
  -25.5200  -14.5520   19.9840 N   0  0  0  0  0  0  0  0  0  0  0  0
  -24.8120  -15.2360   20.2280 H   0  0  0  0  0  0  0  0  0  0  0  0
  -26.3270  -14.9630   19.5300 H   0  0  0  0  0  0  0  0  0  0  0  0
  -30.1450  -22.4940   23.4370 C   0  0  0  0  0  2  0  0  0  0  0  0
  -29.3770  -22.9970   22.2100 C   0  0  0  0  0  2  0  0  0  0  0  0
  -30.0140  -24.2590   21.6150 C   0  0  0  0  0  2  0  0  0  0  0  0
  -29.3150  -24.6790   20.3220 C   0  0  0  0  0  2  0  0  0  0  0  0
  -30.0290  -25.8260   19.5950 C   0  0  0  0  0  2  0  0  0  0  0  0
  -29.3080  -26.1230   18.4060 O   0  0  0  0  0  0  0  0  0  0  0  0
  -25.0670  -30.1380   22.4780 C   0  0  0  0  0  0  0  0  0  0  0  0
  -28.0730  -26.6750   18.6140 C   0  0  0  0  0  0  0  0  0  0  0  0
  -23.9570  -28.8910   20.6470 C   0  0  0  0  0  3  0  0  0  0  0  0
  -25.5160  -27.8010   18.9500 C   0  0  0  0  0  0  0  0  0  0  0  0
  -26.4070  -29.5930   20.4530 C   0  0  0  0  0  2  0  0  0  0  0  0
  -26.6230  -28.3680   19.5960 C   0  0  0  0  0  0  0  0  0  0  0  0
  -27.9040  -27.8070   19.4360 C   0  0  0  0  0  3  0  0  0  0  0  0
  -26.9590  -26.1090   17.9620 C   0  0  0  0  0  3  0  0  0  0  0  0
  -25.6770  -26.6650   18.1360 C   0  0  0  0  0  3  0  0  0  0  0  0
  -24.1810  -28.4750   19.1680 C   0  0  0  0  0  2  0  0  0  0  0  0
  -25.1620  -29.5470   21.2530 N   0  0  0  0  0  0  0  0  0  0  0  0
  -23.9870  -30.1840   23.0830 O   0  0  0  0  0  0  0  0  0  0  0  0
  -23.4720  -27.6550   21.4360 C   0  0  0  0  0  0  0  0  0  0  0  0
  -22.2010  -27.2780   21.2310 N   0  0  0  0  0  0  0  0  0  0  0  0
  -24.2360  -27.0450   22.1890 O   0  0  0  0  0  0  0  0  0  0  0  0
  -21.6380  -27.8350   20.6030 H   0  0  0  0  0  0  0  0  0  0  0  0
  -19.0970  -25.4340   21.3320 C   0  0  0  0  0  0  0  0  0  0  0  0
  -21.5380  -26.1220   21.8320 C   0  0  0  0  0  3  0  0  0  0  0  0
  -21.9460  -24.8130   21.1180 C   0  0  0  0  0  2  0  0  0  0  0  0
  -20.9880  -24.4150   19.9920 C   0  0  0  0  0  2  0  0  0  0  0  0
  -19.5680  -24.2270   20.5360 C   0  0  0  0  0  2  0  0  0  0  0  0
  -20.0230  -26.3310   21.9260 C   0  0  0  0  0  0  0  0  0  0  0  0
  -19.5330  -27.4560   22.6250 C   0  0  0  0  0  3  0  0  0  0  0  0
  -18.1490  -27.6890   22.7350 C   0  0  0  0  0  3  0  0  0  0  0  0
  -17.2370  -26.7870   22.1600 C   0  0  0  0  0  3  0  0  0  0  0  0
  -17.7110  -25.6620   21.4630 C   0  0  0  0  0  3  0  0  0  0  0  0
  -26.3010  -30.8050   23.1630 C   0  0  0  0  0  3  0  0  0  0  0  0
  -26.9610  -29.8960   24.2720 C   0  0  1  0  0  0  0  0  0  0  0  0
  -25.9520  -29.3480   25.3090 C   0  0  0  0  0  1  0  0  0  0  0  0
  -27.6820  -28.6890   23.6290 C   0  0  0  0  0  1  0  0  0  0  0  0
  -28.0420  -30.6990   25.0340 C   0  0  0  0  0  1  0  0  0  0  0  0
  -25.8540  -32.0810   23.7350 N   0  0  0  0  0  0  0  0  0  0  0  0
  -26.0810  -33.2810   23.1840 C   0  0  0  0  0  0  0  0  0  0  0  0
  -26.7590  -33.4330   22.1650 O   0  0  0  0  0  0  0  0  0  0  0  0
  -25.2450  -32.0280   24.5390 H   0  0  0  0  0  0  0  0  0  0  0  0
  -24.1970  -34.9430   23.0970 C   0  0  0  0  0  1  0  0  0  0  0  0
  -25.4500  -34.5080   23.8710 C   0  0  0  0  0  3  0  0  0  0  0  0
  -27.4700  -35.4070   24.9400 C   0  0  0  0  0  1  0  0  0  0  0  0
  -26.3810  -35.6520   23.9980 N   0  0  0  0  0  0  0  0  0  0  0  0
  -25.8850  -36.4890   24.2950 H   0  0  0  0  0  0  0  0  0  0  0  0
  1  2  1  0
  2  3  1  0
  4  2  1  0
  5  2  1  0
  6  5  1  0
  7  6  1  0
  8  7  1  0
  9  8  1  0
 10 16  1  0
 10 18  1  0
 11 16  1  0
 12 13  1  0
 12 11  1  0
 14 13  1  0
 14 23  1  0
 14 15  1  0
 16 15  1  0
 17 10  2  0
 18  9  1  0
 18 19  1  0
 20 21  2  0
 21 40  1  0
 22 21  1  0
 22 25  1  0
 23 24  1  0
 23 20  1  0
 24 22  2  0
 25 26  1  0
 26 27  2  0
 28 31  1  0
 28 27  1  0
 29 28  2  0
 30 29  1  0
 30 25  2  0
 31 32  1  0
 32 37  2  0
 32 33  1  0
 33 34  2  0
 34 35  1  0
 35 39  1  0
 36 35  2  0
 37 36  1  0
 38 37  1  0
 40 41  1  0
 41 43  1  0
 41 44  1  0
 42 40  2  0
 45 20  1  0
 45 46  1  0
 47 45  1  0
 48  1  1  0
 49 48  1  0
 50 49  1  0
 51 50  1  0
 52 51  1  0
 53 55  1  0
 53 52  1  0
 54 65  2  0
 55 60  1  0
 56 64  1  0
 56 66  1  0
 57 63  1  0
 57 59  1  0
 58 64  1  0
 59 58  1  0
 60 59  2  0
 61 62  1  0
 61 55  2  0
 62 57  2  0
 63 56  1  0
 64 54  1  0
 66 68  2  0
 67 66  1  0
 69 67  1  0
 70 79  2  0
 70 75  1  0
 71 67  1  0
 71 75  1  0
 72 71  1  0
 73 74  1  0
 73 72  1  0
 74 70  1  0
 75 76  2  0
 76 77  1  0
 78 77  2  0
 79 78  1  0
 80 54  1  0
 80 85  1  0
 80 81  1  0
 81 84  1  1
 81 82  1  0
 83 81  1  0
 85 88  1  0
 86 85  1  0
 86 90  1  0
 87 86  2  0
 90 89  1  0
 90 92  1  0
 92 93  1  0
 92 91  1  0
M  ISO  4  10 100  18 100  52 101  53 101
M  END
>  <TORSDO>  (34) 
F 27

>  <SCORE>  (34) 
-5.496

>  <name>  (34) 
37

>  <ligand_id>  (34) 
37

>  <original_smiles>  (34) 
[H]c1c([H])c([H])c2c(c1[H])C([H])([H])C([H])([H])C([H])([H])C2([H])N([H])C(=O)C1([H])N(C(=O)C([H])(N([H])C(=O)C([H])(N([H])C([H])([H])[H])C([H])([H])[H])C(C([H])([H])[H])(C([H])([H])[H])C([H])([H])[H])C([H])([H])c2c([H])c(OC([H])([H])C([H])([H])C([H])([H])C([H])([H])C([H])([H])C([H])([H])[N+]([H])([H])C([H])([H])C([H])([H])C([H])([H])C([H])([H])C([H])([H])N([H])C(=O)N3C([H])([H])C([H])([H])C([H])([H])C([H])(n4nc(-c5c([H])c([H])c(Oc6c([H])c([H])c(F)c([H])c6F)c([H])c5[H])c(C(=O)N([H])[H])c4N([H])[H])C3([H])[H])c([H])c([H])c2C1([H])[H]

>  <smiles>  (34) 
[H]c1c([H])c([H])c2c(c1[H])C([H])([H])C([H])([H])C([H])([H])C2([H])N([H])C(=O)C1([H])N(C(=O)C([H])(N([H])C(=O)C([H])(N([H])C([H])([H])[H])C([H])([H])[H])C(C([H])([H])[H])(C([H])([H])[H])C([H])([H])[H])C([H])([H])c2c([H])c(OC([H])([H])C([H])([H])C([H])([H])C([H])([H])C([H])([H])C([H])([H])[N+]([H])([H])C([H])([H])C([H])([H])C([H])([H])C([H])([H])C([H])([H])N([H])C(=O)N3C([H])([H])C([H])([H])C([H])([H])C([H])(n4nc(-c5c([H])c([H])c(Oc6c([H])c([H])c(F)c([H])c6F)c([H])c5[H])c(C(=O)N([H])[H])c4N([H])[H])C3([H])[H])c([H])c([H])c2C1([H])[H]

$$$$
38:0:0
     RDKit          3D

103110  0  0  1  0  0  0  0  0999 V2000
  -24.2770  -22.8490   20.1540 C   0  0  0  0  0  0  0  0  0  0  0  0
  -24.5920  -21.7880   19.4040 N   0  0  0  0  0  0  0  0  0  0  0  0
  -23.5500  -23.7600   19.7500 O   0  0  0  0  0  0  0  0  0  0  0  0
  -25.1700  -21.0730   19.8290 H   0  0  0  0  0  0  0  0  0  0  0  0
  -24.2810  -21.6330   17.9830 C   0  0  0  0  0  2  0  0  0  0  0  0
  -25.3550  -22.2730   17.0730 C   0  0  0  0  0  2  0  0  0  0  0  0
  -26.6670  -21.4840   17.0290 C   0  0  0  0  0  0  0  0  0  0  0  0
  -27.6390  -21.8740   17.8620 N   0  0  0  0  0  0  0  0  0  0  0  0
  -26.7860  -20.5240   16.2650 O   0  0  0  0  0  0  0  0  0  0  0  0
  -27.4430  -22.6510   18.4850 H   0  0  0  0  0  0  0  0  0  0  0  0
  -28.9040  -21.1830   18.0870 C   0  0  0  0  0  2  0  0  0  0  0  0
  -28.7110  -20.0210   19.0740 C   0  0  0  0  0  2  0  0  0  0  0  0
  -30.0290  -19.3540   19.4900 C   0  0  0  0  0  2  0  0  0  0  0  0
  -29.8080  -18.2480   20.5330 C   0  0  0  0  0  2  0  0  0  0  0  0
  -31.1200  -17.7410   21.1490 C   0  0  0  0  0  2  0  0  0  0  0  0
  -30.9140  -16.7380   22.3020 C   0  0  0  0  0  2  0  0  0  0  0  0
  -30.8410  -14.6680   20.9230 C   0  0  0  0  0  0  0  0  0  0  0  0
  -30.5750  -12.5760   19.6520 C   0  0  0  0  0  2  0  0  0  0  0  0
  -29.6920  -12.7810   18.4090 C   0  0  0  0  0  2  0  0  0  0  0  0
  -28.2020  -12.6120   18.7650 C   0  0  0  0  0  2  0  0  0  0  0  0
  -27.7910  -13.4420   20.0100 C   0  0  0  0  0  3  0  0  0  0  0  0
  -28.7860  -13.2220   21.1700 C   0  0  0  0  0  2  0  0  0  0  0  0
  -30.1460  -13.5280   20.6860 N   0  0  0  0  0  0  0  0  0  0  0  0
  -31.8940  -14.9520   20.3450 O   0  0  0  0  0  0  0  0  0  0  0  0
  -30.3260  -15.4750   21.8570 N   0  0  0  0  0  0  0  0  0  0  0  0
  -29.4730  -15.1700   22.3040 H   0  0  0  0  0  0  0  0  0  0  0  0
  -25.3540  -14.0100   20.6260 C   0  0  0  0  0  0  0  0  0  0  0  0
  -24.2750  -13.2170   20.9160 C   0  0  0  0  0  0  0  0  0  0  0  0
  -24.7490  -11.8700   20.8580 C   0  0  0  0  0  0  0  0  0  0  0  0
  -26.4170  -13.1440   20.4140 N   0  0  0  0  0  0  0  0  0  0  0  0
  -26.0520  -11.8510   20.6080 N   0  0  0  0  0  0  0  0  0  0  0  0
  -24.0260  -10.5970   20.9710 C   0  0  0  0  0  0  0  0  0  0  0  0
  -24.4080   -9.6110   21.9080 C   0  0  0  0  0  3  0  0  0  0  0  0
  -23.6860   -8.4030   22.0090 C   0  0  0  0  0  3  0  0  0  0  0  0
  -22.5680   -8.1720   21.1730 C   0  0  0  0  0  0  0  0  0  0  0  0
  -22.2050   -9.1470   20.2270 C   0  0  0  0  0  3  0  0  0  0  0  0
  -22.9280  -10.3470   20.1240 C   0  0  0  0  0  3  0  0  0  0  0  0
  -21.8230   -7.0170   21.1830 O   0  0  0  0  0  0  0  0  0  0  0  0
  -21.6410   -6.2890   22.3310 C   0  0  0  0  0  0  0  0  0  0  0  0
  -21.0640   -6.8530   23.4890 C   0  0  0  0  0  3  0  0  0  0  0  0
  -20.8310   -6.0510   24.6240 C   0  0  0  0  0  3  0  0  0  0  0  0
  -21.1650   -4.6830   24.6000 C   0  0  0  0  0  0  0  0  0  0  0  0
  -21.7350   -4.1170   23.4450 C   0  0  0  0  0  3  0  0  0  0  0  0
  -21.9690   -4.9170   22.3130 C   0  0  0  0  0  0  0  0  0  0  0  0
  -22.4980   -4.3630   21.1960 F   0  0  0  0  0  0  0  0  0  0  0  0
  -20.9350   -3.9090   25.6860 F   0  0  0  0  0  0  0  0  0  0  0  0
  -22.8640  -13.6750   21.1420 C   0  0  0  0  0  0  0  0  0  0  0  0
  -22.1050  -12.9440   21.9530 N   0  0  0  0  0  0  0  0  0  0  0  0
  -22.4380  -14.7130   20.6380 O   0  0  0  0  0  0  0  0  0  0  0  0
  -22.4600  -12.1040   22.3840 H   0  0  0  0  0  0  0  0  0  0  0  0
  -21.1570  -13.2320   22.1460 H   0  0  0  0  0  0  0  0  0  0  0  0
  -25.5150  -15.3860   20.5060 N   0  0  0  0  0  0  0  0  0  0  0  0
  -24.7420  -16.0320   20.6060 H   0  0  0  0  0  0  0  0  0  0  0  0
  -26.3850  -15.8410   20.2550 H   0  0  0  0  0  0  0  0  0  0  0  0
  -24.8820  -22.9020   21.5630 C   0  0  0  0  0  2  0  0  0  0  0  0
  -26.9030  -24.2780   21.0750 C   0  0  0  0  0  0  0  0  0  0  0  0
  -25.7730  -24.0460   21.7560 N   0  0  0  0  0  0  0  0  0  0  0  0
  -27.2730  -23.5620   20.1420 O   0  0  0  0  0  0  0  0  0  0  0  0
  -25.5110  -24.7000   22.4820 H   0  0  0  0  0  0  0  0  0  0  0  0
  -27.7470  -25.4670   21.5420 C   0  0  0  0  0  2  0  0  0  0  0  0
  -29.1760  -25.4840   20.9600 C   0  0  0  0  0  2  0  0  0  0  0  0
  -29.2910  -26.0010   19.5150 C   0  0  0  0  0  2  0  0  0  0  0  0
  -29.0380  -27.4030   19.4700 O   0  0  0  0  0  0  0  0  0  0  0  0
  -24.6610  -31.6470   23.0900 C   0  0  0  0  0  0  0  0  0  0  0  0
  -27.7550  -27.8930   19.5640 C   0  0  0  0  0  0  0  0  0  0  0  0
  -23.5950  -30.2830   21.3230 C   0  0  0  0  0  3  0  0  0  0  0  0
  -25.1920  -29.0730   19.7460 C   0  0  0  0  0  0  0  0  0  0  0  0
  -26.0560  -30.9600   21.1470 C   0  0  0  0  0  2  0  0  0  0  0  0
  -26.2880  -29.6790   20.3720 C   0  0  0  0  0  0  0  0  0  0  0  0
  -27.5670  -29.0960   20.2770 C   0  0  0  0  0  3  0  0  0  0  0  0
  -26.6380  -27.2850   18.9430 C   0  0  0  0  0  3  0  0  0  0  0  0
  -25.3620  -27.8740   19.0320 C   0  0  0  0  0  3  0  0  0  0  0  0
  -23.8550  -29.7670   19.8830 C   0  0  0  0  0  2  0  0  0  0  0  0
  -24.7890  -30.9730   21.9130 N   0  0  0  0  0  0  0  0  0  0  0  0
  -23.5650  -31.7380   23.6600 O   0  0  0  0  0  0  0  0  0  0  0  0
  -23.0830  -29.1020   22.1770 C   0  0  0  0  0  0  0  0  0  0  0  0
  -21.8070  -28.7300   21.9810 N   0  0  0  0  0  0  0  0  0  0  0  0
  -23.8330  -28.5260   22.9710 O   0  0  0  0  0  0  0  0  0  0  0  0
  -21.2570  -29.2600   21.3190 H   0  0  0  0  0  0  0  0  0  0  0  0
  -18.6540  -26.9840   22.2050 C   0  0  0  0  0  0  0  0  0  0  0  0
  -21.1190  -27.6230   22.6430 C   0  0  0  0  0  3  0  0  0  0  0  0
  -21.4820  -26.2690   21.9880 C   0  0  0  0  0  2  0  0  0  0  0  0
  -20.4960  -25.8480   20.8920 C   0  0  0  0  0  2  0  0  0  0  0  0
  -19.0790  -25.7300   21.4620 C   0  0  0  0  0  2  0  0  0  0  0  0
  -19.6130  -27.8820   22.7460 C   0  0  0  0  0  0  0  0  0  0  0  0
  -19.1640  -29.0540   23.3950 C   0  0  0  0  0  3  0  0  0  0  0  0
  -17.7890  -29.3310   23.5100 C   0  0  0  0  0  3  0  0  0  0  0  0
  -16.8450  -28.4290   22.9900 C   0  0  0  0  0  3  0  0  0  0  0  0
  -17.2780  -27.2580   22.3420 C   0  0  0  0  0  3  0  0  0  0  0  0
  -25.8780  -32.3550   23.7630 C   0  0  0  0  0  3  0  0  0  0  0  0
  -25.4550  -33.7160   24.1190 N   0  0  0  0  0  0  0  0  0  0  0  0
  -25.7380  -34.8100   23.4000 C   0  0  0  0  0  0  0  0  0  0  0  0
  -26.4510  -34.7850   22.3930 O   0  0  0  0  0  0  0  0  0  0  0  0
  -24.8180  -33.8030   24.8980 H   0  0  0  0  0  0  0  0  0  0  0  0
  -23.8940  -36.4750   23.0300 C   0  0  0  0  0  1  0  0  0  0  0  0
  -25.1340  -36.1440   23.8740 C   0  0  0  0  0  3  0  0  0  0  0  0
  -27.1650  -37.1600   24.8070 C   0  0  0  0  0  1  0  0  0  0  0  0
  -26.0890  -37.2720   23.8260 N   0  0  0  0  0  0  0  0  0  0  0  0
  -25.6100  -38.1560   23.9790 H   0  0  0  0  0  0  0  0  0  0  0  0
  -26.4210  -31.5880   25.0300 C   0  0  1  0  0  0  0  0  0  0  0  0
  -25.3170  -31.2040   26.0450 C   0  0  0  0  0  1  0  0  0  0  0  0
  -27.1470  -30.2890   24.6090 C   0  0  0  0  0  1  0  0  0  0  0  0
  -27.4670  -32.4620   25.7630 C   0  0  0  0  0  1  0  0  0  0  0  0
  1 55  1  0
  2  4  1  0
  2  1  1  0
  3  1  2  0
  5  2  1  0
  6  5  1  0
  7  6  1  0
  7  8  1  0
  8 11  1  0
  8 10  1  0
  9  7  2  0
 11 12  1  0
 12 13  1  0
 13 14  1  0
 14 15  1  0
 15 16  1  0
 17 25  1  0
 18 23  1  0
 19 20  1  0
 19 18  1  0
 21 20  1  0
 21 30  1  0
 21 22  1  0
 23 17  1  0
 23 22  1  0
 24 17  2  0
 25 16  1  0
 25 26  1  0
 27 28  2  0
 28 47  1  0
 29 28  1  0
 29 32  1  0
 30 31  1  0
 30 27  1  0
 31 29  2  0
 32 33  1  0
 33 34  2  0
 35 38  1  0
 35 34  1  0
 36 35  2  0
 37 36  1  0
 37 32  2  0
 38 39  1  0
 39 40  1  0
 40 41  2  0
 42 41  1  0
 42 46  1  0
 43 42  2  0
 44 39  2  0
 44 43  1  0
 45 44  1  0
 47 48  1  0
 48 51  1  0
 48 50  1  0
 49 47  2  0
 52 53  1  0
 52 27  1  0
 54 52  1  0
 55 57  1  0
 56 60  1  0
 56 57  1  0
 57 59  1  0
 58 56  2  0
 61 60  1  0
 62 61  1  0
 63 62  1  0
 63 65  1  0
 64 75  2  0
 65 70  1  0
 66 74  1  0
 66 76  1  0
 67 73  1  0
 67 69  1  0
 68 74  1  0
 69 68  1  0
 70 69  2  0
 71 72  1  0
 71 65  2  0
 72 67  2  0
 73 66  1  0
 74 64  1  0
 76 78  2  0
 77 76  1  0
 79 77  1  0
 80 89  2  0
 80 85  1  0
 81 77  1  0
 81 85  1  0
 82 81  1  0
 83 84  1  0
 83 82  1  0
 84 80  1  0
 85 86  2  0
 86 87  1  0
 88 87  2  0
 89 88  1  0
 90 64  1  0
 90 91  1  0
 90100  1  0
 91 94  1  0
 92 96  1  0
 92 91  1  0
 93 92  2  0
 96 95  1  0
 98 96  1  0
 98 99  1  0
 98 97  1  0
100103  1  1
100101  1  0
102100  1  0
M  ISO  4  17 100  25 100  62 101  63 101
M  END
>  <TORSDO>  (35) 
F 30

>  <SCORE>  (35) 
-7.881

>  <name>  (35) 
38

>  <ligand_id>  (35) 
38

>  <original_smiles>  (35) 
[H]c1c([H])c([H])c2c(c1[H])C([H])([H])C([H])([H])C([H])([H])C2([H])N([H])C(=O)C1([H])N(C(=O)C([H])(N([H])C(=O)C([H])(N([H])C([H])([H])[H])C([H])([H])[H])C(C([H])([H])[H])(C([H])([H])[H])C([H])([H])[H])C([H])([H])c2c([H])c(OC([H])([H])C([H])([H])C([H])([H])C(=O)N([H])C([H])([H])C(=O)N([H])C([H])([H])C([H])([H])C(=O)N([H])C([H])([H])C([H])([H])C([H])([H])C([H])([H])C([H])([H])C([H])([H])N([H])C(=O)N3C([H])([H])C([H])([H])C([H])([H])C([H])(n4nc(-c5c([H])c([H])c(Oc6c([H])c([H])c(F)c([H])c6F)c([H])c5[H])c(C(=O)N([H])[H])c4N([H])[H])C3([H])[H])c([H])c([H])c2C1([H])[H]

>  <smiles>  (35) 
[H]c1c([H])c([H])c2c(c1[H])C([H])([H])C([H])([H])C([H])([H])C2([H])N([H])C(=O)C1([H])N(C(=O)C([H])(N([H])C(=O)C([H])(N([H])C([H])([H])[H])C([H])([H])[H])C(C([H])([H])[H])(C([H])([H])[H])C([H])([H])[H])C([H])([H])c2c([H])c(OC([H])([H])C([H])([H])C([H])([H])C(=O)N([H])C([H])([H])C(=O)N([H])C([H])([H])C([H])([H])C(=O)N([H])C([H])([H])C([H])([H])C([H])([H])C([H])([H])C([H])([H])C([H])([H])N([H])C(=O)N3C([H])([H])C([H])([H])C([H])([H])C([H])(n4nc(-c5c([H])c([H])c(Oc6c([H])c([H])c(F)c([H])c6F)c([H])c5[H])c(C(=O)N([H])[H])c4N([H])[H])C3([H])[H])c([H])c([H])c2C1([H])[H]

$$$$
39:0:0
     RDKit          3D

105112  0  0  1  0  0  0  0  0999 V2000
  -22.4800  -30.5560   23.8740 N   0  0  0  0  0  4  0  0  0  0  0  0
  -21.5570  -30.5770   23.5540 H   0  0  0  0  0  0  0  0  0  0  0  0
  -22.3990  -30.8950   24.8220 H   0  0  0  0  0  0  0  0  0  0  0  0
  -22.6070  -28.8570   24.3160 C   0  0  0  0  0  2  0  0  0  0  0  0
  -22.9810  -27.0630   23.7480 C   0  0  0  0  0  2  0  0  0  0  0  0
  -24.2730  -25.6820   23.6680 C   0  0  0  0  0  2  0  0  0  0  0  0
  -25.7520  -23.5660   21.9170 C   0  0  0  0  0  0  0  0  0  0  0  0
  -25.4580  -24.8230   22.7160 N   0  0  0  0  0  0  0  0  0  0  0  0
  -24.7560  -23.1130   21.3440 O   0  0  0  0  0  0  0  0  0  0  0  0
  -26.3720  -25.1280   23.0320 H   0  0  0  0  0  0  0  0  0  0  0  0
  -27.2090  -22.4930   21.6950 C   0  0  0  0  0  2  0  0  0  0  0  0
  -28.6190  -20.2180   20.1110 C   0  0  0  0  0  0  0  0  0  0  0  0
  -28.1830  -21.6110   20.5360 N   0  0  0  0  0  0  0  0  0  0  0  0
  -27.8050  -19.3580   20.4630 O   0  0  0  0  0  0  0  0  0  0  0  0
  -28.7700  -22.3050   20.1010 H   0  0  0  0  0  0  0  0  0  0  0  0
  -30.1230  -19.5050   19.3240 C   0  0  0  0  0  2  0  0  0  0  0  0
  -31.7200  -17.1150   17.9600 C   0  0  0  0  0  0  0  0  0  0  0  0
  -33.5530  -16.0000   16.3280 C   0  0  0  0  0  2  0  0  0  0  0  0
  -34.6780  -16.9580   15.8190 C   0  0  0  0  0  2  0  0  0  0  0  0
  -34.1870  -17.8270   14.6500 C   0  0  0  0  0  2  0  0  0  0  0  0
  -32.7630  -18.3570   14.9470 C   0  0  0  0  0  3  0  0  0  0  0  0
  -31.7950  -17.2330   15.3520 C   0  0  0  0  0  2  0  0  0  0  0  0
  -32.2620  -16.7670   16.6500 N   0  0  0  0  0  0  0  0  0  0  0  0
  -32.2730  -16.4150   18.8230 O   0  0  0  0  0  0  0  0  0  0  0  0
  -30.6960  -18.2550   18.2250 N   0  0  0  0  0  0  0  0  0  0  0  0
  -30.3090  -18.4920   17.3320 H   0  0  0  0  0  0  0  0  0  0  0  0
  -31.4810  -20.3010   13.9470 C   0  0  0  0  0  0  0  0  0  0  0  0
  -31.1990  -20.6520   12.6780 C   0  0  0  0  0  0  0  0  0  0  0  0
  -31.7650  -19.6320   11.8390 C   0  0  0  0  0  0  0  0  0  0  0  0
  -32.1930  -19.1250   13.8680 N   0  0  0  0  0  0  0  0  0  0  0  0
  -32.3140  -18.6890   12.5920 N   0  0  0  0  0  0  0  0  0  0  0  0
  -31.8790  -19.5440   10.3870 C   0  0  0  0  0  0  0  0  0  0  0  0
  -31.4220  -18.4100    9.6780 C   0  0  0  0  0  3  0  0  0  0  0  0
  -31.5270  -18.3550    8.2730 C   0  0  0  0  0  3  0  0  0  0  0  0
  -32.0810  -19.4440    7.5590 C   0  0  0  0  0  0  0  0  0  0  0  0
  -32.5490  -20.5630    8.2700 C   0  0  0  0  0  3  0  0  0  0  0  0
  -32.4490  -20.6160    9.6700 C   0  0  0  0  0  3  0  0  0  0  0  0
  -32.2410  -19.4730    6.1980 O   0  0  0  0  0  0  0  0  0  0  0  0
  -31.4360  -18.7400    5.3640 C   0  0  0  0  0  0  0  0  0  0  0  0
  -30.0330  -18.8880    5.3630 C   0  0  0  0  0  3  0  0  0  0  0  0
  -29.2510  -18.1630    4.4440 C   0  0  0  0  0  3  0  0  0  0  0  0
  -29.8690  -17.3050    3.5150 C   0  0  0  0  0  0  0  0  0  0  0  0
  -31.2670  -17.1590    3.5140 C   0  0  0  0  0  3  0  0  0  0  0  0
  -32.0510  -17.8810    4.4320 C   0  0  0  0  0  0  0  0  0  0  0  0
  -33.3990  -17.7520    4.4110 F   0  0  0  0  0  0  0  0  0  0  0  0
  -29.1190  -16.6140    2.6240 F   0  0  0  0  0  0  0  0  0  0  0  0
  -30.5190  -21.9180   12.2280 C   0  0  0  0  0  0  0  0  0  0  0  0
  -29.7920  -21.8740   11.1290 N   0  0  0  0  0  0  0  0  0  0  0  0
  -30.6160  -22.9580   12.8930 O   0  0  0  0  0  0  0  0  0  0  0  0
  -29.6970  -21.0200   10.5940 H   0  0  0  0  0  0  0  0  0  0  0  0
  -29.2990  -22.7000   10.8120 H   0  0  0  0  0  0  0  0  0  0  0  0
  -31.2080  -20.8800   15.1960 N   0  0  0  0  0  0  0  0  0  0  0  0
  -30.7430  -21.7790   15.2710 H   0  0  0  0  0  0  0  0  0  0  0  0
  -31.6200  -20.5680   16.0630 H   0  0  0  0  0  0  0  0  0  0  0  0
  -23.3730  -32.0630   23.5930 C   0  0  0  0  0  2  0  0  0  0  0  0
  -25.0950  -32.4790   23.0550 C   0  0  0  0  0  2  0  0  0  0  0  0
  -26.7380  -32.2220   23.5830 C   0  0  0  0  0  2  0  0  0  0  0  0
  -28.3240  -31.7840   22.9860 C   0  0  0  0  0  2  0  0  0  0  0  0
  -29.1340  -30.4800   23.3510 N   0  0  0  0  0  4  0  0  0  0  0  0
  -28.5190  -29.6920   23.2060 H   0  0  0  0  0  0  0  0  0  0  0  0
  -29.3470  -30.4850   24.3450 H   0  0  0  0  0  0  0  0  0  0  0  0
  -30.4470  -30.0330   22.6260 C   0  0  0  0  0  2  0  0  0  0  0  0
  -30.9380  -28.4590   22.5030 C   0  0  0  0  0  2  0  0  0  0  0  0
  -31.4320  -27.6330   21.1760 C   0  0  0  0  0  2  0  0  0  0  0  0
  -30.6830  -26.8050   20.1440 O   0  0  0  0  0  0  0  0  0  0  0  0
  -25.7620  -28.8180   24.3830 C   0  0  0  0  0  0  0  0  0  0  0  0
  -29.3530  -27.1130   20.0510 C   0  0  0  0  0  0  0  0  0  0  0  0
  -25.1200  -29.0500   21.5810 C   0  0  0  0  0  3  0  0  0  0  0  0
  -27.0780  -28.6670   20.1490 C   0  0  0  0  0  0  0  0  0  0  0  0
  -27.3090  -28.5980   22.6420 C   0  0  0  0  0  2  0  0  0  0  0  0
  -27.7150  -28.1930   21.3150 C   0  0  0  0  0  0  0  0  0  0  0  0
  -28.7500  -27.2870   21.2790 C   0  0  0  0  0  3  0  0  0  0  0  0
  -28.6460  -27.4030   18.8630 C   0  0  0  0  0  3  0  0  0  0  0  0
  -27.4140  -28.1030   18.9070 C   0  0  0  0  0  3  0  0  0  0  0  0
  -25.9440  -29.5970   20.4140 C   0  0  0  0  0  2  0  0  0  0  0  0
  -25.9530  -28.7940   22.9580 N   0  0  0  0  0  0  0  0  0  0  0  0
  -24.7220  -28.8920   25.0300 O   0  0  0  0  0  0  0  0  0  0  0  0
  -24.2890  -27.9980   20.9210 C   0  0  0  0  0  0  0  0  0  0  0  0
  -22.9380  -28.0990   20.8560 N   0  0  0  0  0  0  0  0  0  0  0  0
  -24.9040  -27.0260   20.5890 O   0  0  0  0  0  0  0  0  0  0  0  0
  -22.5280  -29.0340   20.9230 H   0  0  0  0  0  0  0  0  0  0  0  0
  -19.5270  -27.3600   20.2370 C   0  0  0  0  0  0  0  0  0  0  0  0
  -22.0100  -26.9630   20.7900 C   0  0  0  0  0  3  0  0  0  0  0  0
  -22.1170  -26.3540   19.3680 C   0  0  0  0  0  2  0  0  0  0  0  0
  -21.2200  -27.0680   18.3770 C   0  0  0  0  0  2  0  0  0  0  0  0
  -19.7700  -26.9120   18.8030 C   0  0  0  0  0  2  0  0  0  0  0  0
  -20.5690  -27.3830   21.1930 C   0  0  0  0  0  0  0  0  0  0  0  0
  -20.2840  -27.8540   22.4900 C   0  0  0  0  0  3  0  0  0  0  0  0
  -18.9870  -28.2900   22.8560 C   0  0  0  0  0  3  0  0  0  0  0  0
  -17.9520  -28.2240   21.9140 C   0  0  0  0  0  3  0  0  0  0  0  0
  -18.2150  -27.7600   20.6220 C   0  0  0  0  0  3  0  0  0  0  0  0
  -26.7940  -28.8460   25.5620 C   0  0  0  0  0  3  0  0  0  0  0  0
  -26.5190  -27.5710   26.4110 C   0  0  1  0  0  0  0  0  0  0  0  0
  -25.1060  -27.2950   26.9490 C   0  0  0  0  0  1  0  0  0  0  0  0
  -26.9080  -26.2640   25.6800 C   0  0  0  0  0  1  0  0  0  0  0  0
  -27.3370  -27.7080   27.7040 C   0  0  0  0  0  1  0  0  0  0  0  0
  -26.5500  -30.0770   26.4110 N   0  0  0  0  0  0  0  0  0  0  0  0
  -27.4400  -31.0270   26.6170 C   0  0  0  0  0  0  0  0  0  0  0  0
  -28.6120  -30.8810   26.2300 O   0  0  0  0  0  0  0  0  0  0  0  0
  -25.5980  -30.3920   26.6020 H   0  0  0  0  0  0  0  0  0  0  0  0
  -26.7230  -33.4530   26.3030 C   0  0  0  0  0  1  0  0  0  0  0  0
  -26.9060  -32.3050   27.3100 C   0  0  0  0  0  3  0  0  0  0  0  0
  -27.8790  -31.8320   29.5330 C   0  0  0  0  0  1  0  0  0  0  0  0
  -27.7250  -32.7830   28.4290 N   0  0  0  0  0  0  0  0  0  0  0  0
  -27.2880  -33.5860   28.8590 H   0  0  0  0  0  0  0  0  0  0  0  0
  1  4  1  0
  1  3  1  0
  2  1  1  0
  5  4  1  0
  6  5  1  0
  7  8  1  0
  8 10  1  0
  8  6  1  0
  9  7  2  0
 11  7  1  0
 12 14  2  0
 12 13  1  0
 13 11  1  0
 15 13  1  0
 16 12  1  0
 17 25  1  0
 17 24  2  0
 18 23  1  0
 19 18  1  0
 20 21  1  0
 20 19  1  0
 21 30  1  0
 21 22  1  0
 22 23  1  0
 23 17  1  0
 25 16  1  0
 26 25  1  0
 27 52  1  0
 28 27  2  0
 29 31  2  0
 29 28  1  0
 30 27  1  0
 31 30  1  0
 32 29  1  0
 33 32  1  0
 34 33  2  0
 35 36  2  0
 35 34  1  0
 36 37  1  0
 37 32  2  0
 38 35  1  0
 39 38  1  0
 40 39  1  0
 41 40  2  0
 42 41  1  0
 43 42  2  0
 43 44  1  0
 44 39  2  0
 45 44  1  0
 46 42  1  0
 47 28  1  0
 47 49  2  0
 48 47  1  0
 50 48  1  0
 51 48  1  0
 52 53  1  0
 52 54  1  0
 55  1  1  0
 56 57  1  0
 56 55  1  0
 58 59  1  0
 58 57  1  0
 59 61  1  0
 60 59  1  0
 62 59  1  0
 63 62  1  0
 64 63  1  0
 65 64  1  0
 66 77  2  0
 67 65  1  0
 67 72  1  0
 68 78  1  0
 68 76  1  0
 69 75  1  0
 69 71  1  0
 70 76  1  0
 71 70  1  0
 72 71  2  0
 73 74  1  0
 73 67  2  0
 74 69  2  0
 75 68  1  0
 76 66  1  0
 79 78  1  0
 79 81  1  0
 80 78  2  0
 82 91  2  0
 82 87  1  0
 83 79  1  0
 83 87  1  0
 84 83  1  0
 85 86  1  0
 85 84  1  0
 86 82  1  0
 87 88  2  0
 88 89  1  0
 90 89  2  0
 91 90  1  0
 92 66  1  0
 92 93  1  0
 92 97  1  0
 93 94  1  1
 93 96  1  0
 95 93  1  0
 97100  1  0
 97 98  1  0
 98102  1  0
 99 98  2  0
102101  1  0
102104  1  0
104105  1  0
104103  1  0
M  ISO  4  17 100  25 100  64 101  65 101
M  END
>  <TORSDO>  (36) 
F 31

>  <SCORE>  (36) 
-5.287

>  <name>  (36) 
39

>  <ligand_id>  (36) 
39

>  <original_smiles>  (36) 
[H]c1c([H])c([H])c2c(c1[H])C([H])([H])C([H])([H])C([H])([H])C2([H])N([H])C(=O)C1([H])N(C(=O)C([H])(N([H])C(=O)C([H])(N([H])C([H])([H])[H])C([H])([H])[H])C(C([H])([H])[H])(C([H])([H])[H])C([H])([H])[H])C([H])([H])c2c([H])c(OC([H])([H])C([H])([H])C([H])([H])[N+]([H])([H])C([H])([H])C([H])([H])C([H])([H])C([H])([H])[N+]([H])([H])C([H])([H])C([H])([H])C([H])([H])N([H])C(=O)C([H])([H])N([H])C(=O)C([H])([H])N([H])C(=O)N3C([H])([H])C([H])([H])C([H])([H])C([H])(n4nc(-c5c([H])c([H])c(Oc6c([H])c([H])c(F)c([H])c6F)c([H])c5[H])c(C(=O)N([H])[H])c4N([H])[H])C3([H])[H])c([H])c([H])c2C1([H])[H]

>  <smiles>  (36) 
[H]c1c([H])c([H])c2c(c1[H])C([H])([H])C([H])([H])C([H])([H])C2([H])N([H])C(=O)C1([H])N(C(=O)C([H])(N([H])C(=O)C([H])(N([H])C([H])([H])[H])C([H])([H])[H])C(C([H])([H])[H])(C([H])([H])[H])C([H])([H])[H])C([H])([H])c2c([H])c(OC([H])([H])C([H])([H])C([H])([H])[N+]([H])([H])C([H])([H])C([H])([H])C([H])([H])C([H])([H])[N+]([H])([H])C([H])([H])C([H])([H])C([H])([H])N([H])C(=O)C([H])([H])N([H])C(=O)C([H])([H])N([H])C(=O)N3C([H])([H])C([H])([H])C([H])([H])C([H])(n4nc(-c5c([H])c([H])c(Oc6c([H])c([H])c(F)c([H])c6F)c([H])c5[H])c(C(=O)N([H])[H])c4N([H])[H])C3([H])[H])c([H])c([H])c2C1([H])[H]

$$$$
40:0:0
     RDKit          3D

100107  0  0  1  0  0  0  0  0999 V2000
  -24.2010  -22.3440   19.5670 C   0  0  0  0  0  2  0  0  0  0  0  0
  -24.2610  -23.6630   20.3620 C   0  0  0  0  0  2  0  0  0  0  0  0
  -25.0270  -24.7710   19.6190 C   0  0  0  0  0  2  0  0  0  0  0  0
  -26.4970  -24.4250   19.3080 C   0  0  0  0  0  2  0  0  0  0  0  0
  -28.6180  -25.4660   20.1090 C   0  0  0  0  0  0  0  0  0  0  0  0
  -27.3780  -25.0060   20.3180 N   0  0  0  0  0  0  0  0  0  0  0  0
  -29.2270  -25.3010   19.0490 O   0  0  0  0  0  0  0  0  0  0  0  0
  -26.9710  -25.1910   21.2250 H   0  0  0  0  0  0  0  0  0  0  0  0
  -29.2470  -26.2900   21.2420 C   0  0  0  0  0  2  0  0  0  0  0  0
  -29.3880  -27.6590   20.8380 O   0  0  0  0  0  0  0  0  0  0  0  0
  -25.4070  -31.8320   24.9800 C   0  0  0  0  0  0  0  0  0  0  0  0
  -28.2370  -28.3960   20.9610 C   0  0  0  0  0  0  0  0  0  0  0  0
  -24.3180  -30.9990   22.9220 C   0  0  0  0  0  3  0  0  0  0  0  0
  -25.8590  -29.8870   21.2230 C   0  0  0  0  0  0  0  0  0  0  0  0
  -26.8490  -31.3260   23.0140 C   0  0  0  0  0  2  0  0  0  0  0  0
  -26.9690  -30.1900   22.0230 C   0  0  0  0  0  0  0  0  0  0  0  0
  -28.1630  -29.4520   21.8930 C   0  0  0  0  0  3  0  0  0  0  0  0
  -27.1220  -28.1090   20.1480 C   0  0  0  0  0  3  0  0  0  0  0  0
  -25.9280  -28.8450   20.2830 C   0  0  0  0  0  3  0  0  0  0  0  0
  -24.6210  -30.7310   21.4240 C   0  0  0  0  0  2  0  0  0  0  0  0
  -25.5390  -31.3830   23.7000 N   0  0  0  0  0  0  0  0  0  0  0  0
  -24.2910  -31.9710   25.4980 O   0  0  0  0  0  0  0  0  0  0  0  0
  -23.5850  -29.7680   23.5020 C   0  0  0  0  0  0  0  0  0  0  0  0
  -22.3150  -29.5860   23.1050 N   0  0  0  0  0  0  0  0  0  0  0  0
  -24.1630  -28.9890   24.2650 O   0  0  0  0  0  0  0  0  0  0  0  0
  -21.8980  -30.2930   22.5150 H   0  0  0  0  0  0  0  0  0  0  0  0
  -19.0490  -28.1250   22.5880 C   0  0  0  0  0  0  0  0  0  0  0  0
  -21.4510  -28.4670   23.4810 C   0  0  0  0  0  3  0  0  0  0  0  0
  -21.8200  -27.1860   22.6960 C   0  0  0  0  0  2  0  0  0  0  0  0
  -20.9960  -27.0090   21.4180 C   0  0  0  0  0  2  0  0  0  0  0  0
  -19.5010  -26.9440   21.7450 C   0  0  0  0  0  2  0  0  0  0  0  0
  -19.9710  -28.8510   23.3880 C   0  0  0  0  0  0  0  0  0  0  0  0
  -19.5090  -29.9690   24.1170 C   0  0  0  0  0  3  0  0  0  0  0  0
  -18.1580  -30.3580   24.0630 C   0  0  0  0  0  3  0  0  0  0  0  0
  -17.2470  -29.6200   23.2860 C   0  0  0  0  0  3  0  0  0  0  0  0
  -17.6940  -28.5090   22.5490 C   0  0  0  0  0  3  0  0  0  0  0  0
  -26.6490  -32.2160   25.8430 C   0  0  0  0  0  3  0  0  0  0  0  0
  -26.6210  -33.6710   26.0310 N   0  0  0  0  0  0  0  0  0  0  0  0
  -27.3170  -34.5470   25.2930 C   0  0  0  0  0  0  0  0  0  0  0  0
  -28.1130  -34.2000   24.4170 O   0  0  0  0  0  0  0  0  0  0  0  0
  -25.9450  -34.0300   26.6900 H   0  0  0  0  0  0  0  0  0  0  0  0
  -26.1270  -36.6260   24.5280 C   0  0  0  0  0  1  0  0  0  0  0  0
  -27.0940  -36.0460   25.5730 C   0  0  0  0  0  3  0  0  0  0  0  0
  -29.1980  -36.5480   26.7340 C   0  0  0  0  0  1  0  0  0  0  0  0
  -28.3440  -36.8350   25.5830 N   0  0  0  0  0  0  0  0  0  0  0  0
  -28.1430  -37.8320   25.5750 H   0  0  0  0  0  0  0  0  0  0  0  0
  -26.6970  -31.4690   27.2330 C   0  0  1  0  0  0  0  0  0  0  0  0
  -25.3830  -31.5710   28.0410 C   0  0  0  0  0  1  0  0  0  0  0  0
  -27.0140  -29.9690   27.0370 C   0  0  0  0  0  1  0  0  0  0  0  0
  -27.8380  -32.0520   28.1000 C   0  0  0  0  0  1  0  0  0  0  0  0
  -25.3370  -21.3690   19.9190 C   0  0  0  0  0  2  0  0  0  0  0  0
  -25.9890  -20.7370   18.6730 C   0  0  0  0  0  2  0  0  0  0  0  0
  -28.0630  -19.4230   18.1790 C   0  0  0  0  0  0  0  0  0  0  0  0
  -27.0870  -19.8240   19.0010 N   0  0  0  0  0  0  0  0  0  0  0  0
  -28.1570  -19.8060   17.0110 O   0  0  0  0  0  0  0  0  0  0  0  0
  -27.0910  -19.4460   19.9400 H   0  0  0  0  0  0  0  0  0  0  0  0
  -29.1050  -18.4520   18.7360 C   0  0  0  0  0  2  0  0  0  0  0  0
  -29.4600  -17.4650   17.6950 N   0  0  0  0  0  4  0  0  0  0  0  0
  -30.0520  -17.9680   17.0510 H   0  0  0  0  0  0  0  0  0  0  0  0
  -28.6110  -17.2470   17.1910 H   0  0  0  0  0  0  0  0  0  0  0  0
  -30.1470  -16.2230   18.1390 C   0  0  0  0  0  2  0  0  0  0  0  0
  -30.1820  -16.0990   19.6770 C   0  0  0  0  0  2  0  0  0  0  0  0
  -32.2480  -14.7490   20.3110 C   0  0  0  0  0  0  0  0  0  0  0  0
  -32.4470  -12.4020   21.0690 C   0  0  0  0  0  2  0  0  0  0  0  0
  -31.8390  -11.4330   20.0360 C   0  0  0  0  0  2  0  0  0  0  0  0
  -30.3170  -11.2820   20.2320 C   0  0  0  0  0  2  0  0  0  0  0  0
  -29.6080  -12.6540   20.3760 C   0  0  0  0  0  3  0  0  0  0  0  0
  -30.3420  -13.5040   21.4420 C   0  0  0  0  0  2  0  0  0  0  0  0
  -31.7260  -13.6830   20.9810 N   0  0  0  0  0  0  0  0  0  0  0  0
  -33.4060  -14.7600   19.8850 O   0  0  0  0  0  0  0  0  0  0  0  0
  -31.5250  -15.8830   20.2560 N   0  0  0  0  0  0  0  0  0  0  0  0
  -32.1240  -16.6890   20.1420 H   0  0  0  0  0  0  0  0  0  0  0  0
  -27.1720  -13.4460   20.6600 C   0  0  0  0  0  0  0  0  0  0  0  0
  -26.0280  -12.7600   20.9760 C   0  0  0  0  0  0  0  0  0  0  0  0
  -26.4180  -11.3970   21.1610 C   0  0  0  0  0  0  0  0  0  0  0  0
  -28.1890  -12.5020   20.6810 N   0  0  0  0  0  0  0  0  0  0  0  0
  -27.7310  -11.2740   21.0340 N   0  0  0  0  0  0  0  0  0  0  0  0
  -25.6160  -10.1910   21.3920 C   0  0  0  0  0  0  0  0  0  0  0  0
  -25.4660   -9.6440   22.6870 C   0  0  0  0  0  3  0  0  0  0  0  0
  -24.6760   -8.4910   22.8890 C   0  0  0  0  0  3  0  0  0  0  0  0
  -24.0250   -7.8760   21.7930 C   0  0  0  0  0  0  0  0  0  0  0  0
  -24.1990   -8.4100   20.5050 C   0  0  0  0  0  3  0  0  0  0  0  0
  -24.9900   -9.5530   20.3040 C   0  0  0  0  0  3  0  0  0  0  0  0
  -23.2570   -6.7400   21.8910 O   0  0  0  0  0  0  0  0  0  0  0  0
  -22.2890   -6.6060   22.8530 C   0  0  0  0  0  0  0  0  0  0  0  0
  -21.1660   -7.4620   22.9030 C   0  0  0  0  0  3  0  0  0  0  0  0
  -20.1580   -7.2450   23.8620 C   0  0  0  0  0  3  0  0  0  0  0  0
  -20.2660   -6.1710   24.7670 C   0  0  0  0  0  0  0  0  0  0  0  0
  -21.3800   -5.3170   24.7170 C   0  0  0  0  0  3  0  0  0  0  0  0
  -22.3880   -5.5320   23.7610 C   0  0  0  0  0  0  0  0  0  0  0  0
  -23.4500   -4.6910   23.7020 F   0  0  0  0  0  0  0  0  0  0  0  0
  -19.2940   -5.9580   25.6850 F   0  0  0  0  0  0  0  0  0  0  0  0
  -24.6290  -13.3070   20.9970 C   0  0  0  0  0  0  0  0  0  0  0  0
  -23.7440  -12.7080   21.7870 N   0  0  0  0  0  0  0  0  0  0  0  0
  -24.3280  -14.3040   20.3440 O   0  0  0  0  0  0  0  0  0  0  0  0
  -23.9920  -11.9020   22.3410 H   0  0  0  0  0  0  0  0  0  0  0  0
  -22.7990  -13.0630   21.8360 H   0  0  0  0  0  0  0  0  0  0  0  0
  -27.4380  -14.7770   20.3180 N   0  0  0  0  0  0  0  0  0  0  0  0
  -26.5580  -15.2550   20.1510 H   0  0  0  0  0  0  0  0  0  0  0  0
  -27.9740  -14.7630   19.4580 H   0  0  0  0  0  0  0  0  0  0  0  0
  1 51  1  0
  1  2  1  0
  3  2  1  0
  4  3  1  0
  4  6  1  0
  5  6  1  0
  5  9  1  0
  6  8  1  0
  7  5  2  0
 10 12  1  0
 10  9  1  0
 11 22  2  0
 12 17  1  0
 13 23  1  0
 13 21  1  0
 14 20  1  0
 14 16  1  0
 15 21  1  0
 16 15  1  0
 17 16  2  0
 18 19  1  0
 18 12  2  0
 19 14  2  0
 20 13  1  0
 21 11  1  0
 23 25  2  0
 24 23  1  0
 26 24  1  0
 27 32  1  0
 28 24  1  0
 29 28  1  0
 30 31  1  0
 30 29  1  0
 31 27  1  0
 32 28  1  0
 32 33  2  0
 34 33  1  0
 35 34  2  0
 36 27  2  0
 36 35  1  0
 37 11  1  0
 37 38  1  0
 37 47  1  0
 38 41  1  0
 39 43  1  0
 39 38  1  0
 40 39  2  0
 43 42  1  0
 43 45  1  0
 45 44  1  0
 46 45  1  0
 47 48  1  1
 47 50  1  0
 49 47  1  0
 52 54  1  0
 52 51  1  0
 53 57  1  0
 53 54  1  0
 54 56  1  0
 55 53  2  0
 58 61  1  0
 58 57  1  0
 59 58  1  0
 60 58  1  0
 61 62  1  0
 62 71  1  0
 63 69  1  0
 65 66  1  0
 65 64  1  0
 67 66  1  0
 67 76  1  0
 67 68  1  0
 69 64  1  0
 69 68  1  0
 70 63  2  0
 71 63  1  0
 72 71  1  0
 73 76  1  0
 73 74  2  0
 74 93  1  0
 74 75  1  0
 75 78  1  0
 76 77  1  0
 77 75  2  0
 78 79  1  0
 79 80  2  0
 81 84  1  0
 81 80  1  0
 82 81  2  0
 83 82  1  0
 83 78  2  0
 84 85  1  0
 85 86  2  0
 85 90  1  0
 86 87  1  0
 87 88  2  0
 88 92  1  0
 89 88  1  0
 90 89  2  0
 91 90  1  0
 93 94  1  0
 94 97  1  0
 94 96  1  0
 95 93  2  0
 98 73  1  0
 99 98  1  0
100 98  1  0
M  ISO  4   9 101  10 101  63 100  71 100
M  END
>  <TORSDO>  (37) 
F 28

>  <SCORE>  (37) 
-4.186

>  <name>  (37) 
40

>  <ligand_id>  (37) 
40

>  <original_smiles>  (37) 
[H]c1c([H])c([H])c2c(c1[H])C([H])([H])C([H])([H])C([H])([H])C2([H])N([H])C(=O)C1([H])N(C(=O)C([H])(N([H])C(=O)C([H])(N([H])C([H])([H])[H])C([H])([H])[H])C(C([H])([H])[H])(C([H])([H])[H])C([H])([H])[H])C([H])([H])c2c([H])c(OC([H])([H])C(=O)N([H])C([H])([H])C([H])([H])C([H])([H])C([H])([H])C([H])([H])C([H])([H])N([H])C(=O)C([H])([H])[N+]([H])([H])C([H])([H])C([H])([H])N([H])C(=O)N3C([H])([H])C([H])([H])C([H])([H])C([H])(n4nc(-c5c([H])c([H])c(Oc6c([H])c([H])c(F)c([H])c6F)c([H])c5[H])c(C(=O)N([H])[H])c4N([H])[H])C3([H])[H])c([H])c([H])c2C1([H])[H]

>  <smiles>  (37) 
[H]c1c([H])c([H])c2c(c1[H])C([H])([H])C([H])([H])C([H])([H])C2([H])N([H])C(=O)C1([H])N(C(=O)C([H])(N([H])C(=O)C([H])(N([H])C([H])([H])[H])C([H])([H])[H])C(C([H])([H])[H])(C([H])([H])[H])C([H])([H])[H])C([H])([H])c2c([H])c(OC([H])([H])C(=O)N([H])C([H])([H])C([H])([H])C([H])([H])C([H])([H])C([H])([H])C([H])([H])N([H])C(=O)C([H])([H])[N+]([H])([H])C([H])([H])C([H])([H])N([H])C(=O)N3C([H])([H])C([H])([H])C([H])([H])C([H])(n4nc(-c5c([H])c([H])c(Oc6c([H])c([H])c(F)c([H])c6F)c([H])c5[H])c(C(=O)N([H])[H])c4N([H])[H])C3([H])[H])c([H])c([H])c2C1([H])[H]

$$$$
41:0:0
     RDKit          3D

103110  0  0  1  0  0  0  0  0999 V2000
  -26.5920  -25.1900   15.5380 C   0  0  0  0  0  0  0  0  0  0  0  0
  -26.2810  -26.2840   14.8350 N   0  0  0  0  0  0  0  0  0  0  0  0
  -27.7520  -24.9090   15.8460 O   0  0  0  0  0  0  0  0  0  0  0  0
  -25.3060  -26.4670   14.6360 H   0  0  0  0  0  0  0  0  0  0  0  0
  -25.4520  -24.2780   15.9770 C   0  0  0  0  0  2  0  0  0  0  0  0
  -25.8820  -23.4390   17.1140 N   0  0  0  0  0  4  0  0  0  0  0  0
  -26.0950  -24.0550   17.8810 H   0  0  0  0  0  0  0  0  0  0  0  0
  -26.7480  -23.0000   16.8440 H   0  0  0  0  0  0  0  0  0  0  0  0
  -24.9000  -22.4260   17.5490 C   0  0  0  0  0  2  0  0  0  0  0  0
  -25.4050  -21.5750   18.7340 C   0  0  0  0  0  2  0  0  0  0  0  0
  -26.7160  -20.8070   18.4680 C   0  0  0  0  0  2  0  0  0  0  0  0
  -27.0880  -19.8730   19.6330 C   0  0  0  0  0  2  0  0  0  0  0  0
  -28.5130  -19.3100   19.5200 C   0  0  0  0  0  2  0  0  0  0  0  0
  -28.8380  -18.2980   20.6330 C   0  0  0  0  0  2  0  0  0  0  0  0
  -30.3450  -18.0090   20.7350 C   0  0  0  0  0  2  0  0  0  0  0  0
  -30.7050  -16.9120   21.7570 C   0  0  0  0  0  2  0  0  0  0  0  0
  -30.7320  -14.7780   20.4720 C   0  0  0  0  0  0  0  0  0  0  0  0
  -30.4180  -12.7190   19.1540 C   0  0  0  0  0  2  0  0  0  0  0  0
  -29.4610  -12.9780   17.9750 C   0  0  0  0  0  2  0  0  0  0  0  0
  -27.9960  -12.7910   18.4100 C   0  0  0  0  0  2  0  0  0  0  0  0
  -27.6590  -13.5630   19.7140 C   0  0  0  0  0  3  0  0  0  0  0  0
  -28.7220  -13.2900   20.8010 C   0  0  0  0  0  2  0  0  0  0  0  0
  -30.0460  -13.6280   20.2480 N   0  0  0  0  0  0  0  0  0  0  0  0
  -31.7730  -15.0750   19.8790 O   0  0  0  0  0  0  0  0  0  0  0  0
  -30.1850  -15.6000   21.3760 N   0  0  0  0  0  0  0  0  0  0  0  0
  -29.3360  -15.2870   21.8240 H   0  0  0  0  0  0  0  0  0  0  0  0
  -25.2360  -14.0950   20.4060 C   0  0  0  0  0  0  0  0  0  0  0  0
  -24.1930  -13.2880   20.7780 C   0  0  0  0  0  0  0  0  0  0  0  0
  -24.7000  -11.9530   20.7540 C   0  0  0  0  0  0  0  0  0  0  0  0
  -26.3120  -13.2480   20.1860 N   0  0  0  0  0  0  0  0  0  0  0  0
  -25.9920  -11.9560   20.4490 N   0  0  0  0  0  0  0  0  0  0  0  0
  -24.0180  -10.6670   20.9500 C   0  0  0  0  0  0  0  0  0  0  0  0
  -24.4540   -9.7390   21.9210 C   0  0  0  0  0  3  0  0  0  0  0  0
  -23.7700   -8.5170   22.1020 C   0  0  0  0  0  3  0  0  0  0  0  0
  -22.6360   -8.2160   21.3130 C   0  0  0  0  0  0  0  0  0  0  0  0
  -22.2190   -9.1330   20.3320 C   0  0  0  0  0  3  0  0  0  0  0  0
  -22.9040  -10.3460   20.1480 C   0  0  0  0  0  3  0  0  0  0  0  0
  -21.9250   -7.0440   21.4010 O   0  0  0  0  0  0  0  0  0  0  0  0
  -21.8330   -6.3450   22.5780 C   0  0  0  0  0  0  0  0  0  0  0  0
  -21.2710   -6.9140   23.7400 C   0  0  0  0  0  3  0  0  0  0  0  0
  -21.1320   -6.1380   24.9080 C   0  0  0  0  0  3  0  0  0  0  0  0
  -21.5440   -4.7910   24.9130 C   0  0  0  0  0  0  0  0  0  0  0  0
  -22.0990   -4.2210   23.7530 C   0  0  0  0  0  3  0  0  0  0  0  0
  -22.2390   -4.9950   22.5880 C   0  0  0  0  0  0  0  0  0  0  0  0
  -22.7550   -4.4340   21.4680 F   0  0  0  0  0  0  0  0  0  0  0  0
  -21.4040   -4.0430   26.0320 F   0  0  0  0  0  0  0  0  0  0  0  0
  -22.7800  -13.7200   21.0450 C   0  0  0  0  0  0  0  0  0  0  0  0
  -22.0750  -13.0010   21.9120 N   0  0  0  0  0  0  0  0  0  0  0  0
  -22.3090  -14.7270   20.5220 O   0  0  0  0  0  0  0  0  0  0  0  0
  -22.4690  -12.1850   22.3570 H   0  0  0  0  0  0  0  0  0  0  0  0
  -21.1270  -13.2720   22.1350 H   0  0  0  0  0  0  0  0  0  0  0  0
  -25.3560  -15.4680   20.2220 N   0  0  0  0  0  0  0  0  0  0  0  0
  -24.5690  -16.1000   20.3260 H   0  0  0  0  0  0  0  0  0  0  0  0
  -26.1970  -15.9330   19.9020 H   0  0  0  0  0  0  0  0  0  0  0  0
  -27.2390  -27.3140   14.4270 C   0  0  0  0  0  2  0  0  0  0  0  0
  -27.7500  -28.0870   15.6490 C   0  0  0  0  0  0  0  0  0  0  0  0
  -29.0170  -27.8630   16.0220 N   0  0  0  0  0  0  0  0  0  0  0  0
  -26.9940  -28.8520   16.2500 O   0  0  0  0  0  0  0  0  0  0  0  0
  -29.5570  -27.2260   15.4510 H   0  0  0  0  0  0  0  0  0  0  0  0
  -29.6610  -28.3820   17.2290 C   0  0  0  0  0  2  0  0  0  0  0  0
  -30.1870  -27.2400   18.1200 C   0  0  0  0  0  2  0  0  0  0  0  0
  -29.1110  -26.2710   18.6560 C   0  0  0  0  0  2  0  0  0  0  0  0
  -28.6000  -26.7190   19.9090 O   0  0  0  0  0  0  0  0  0  0  0  0
  -24.6210  -31.6990   23.0130 C   0  0  0  0  0  0  0  0  0  0  0  0
  -27.4080  -27.3980   19.8890 C   0  0  0  0  0  0  0  0  0  0  0  0
  -23.4680  -30.3120   21.3160 C   0  0  0  0  0  3  0  0  0  0  0  0
  -24.9740  -28.8250   19.8920 C   0  0  0  0  0  0  0  0  0  0  0  0
  -25.9880  -30.7180   21.1790 C   0  0  0  0  0  2  0  0  0  0  0  0
  -26.1050  -29.3620   20.5190 C   0  0  0  0  0  0  0  0  0  0  0  0
  -27.3200  -28.6480   20.5300 C   0  0  0  0  0  3  0  0  0  0  0  0
  -26.2610  -26.8550   19.2710 C   0  0  0  0  0  3  0  0  0  0  0  0
  -25.0420  -27.5630   19.2730 C   0  0  0  0  0  3  0  0  0  0  0  0
  -23.7170  -29.6630   19.9270 C   0  0  0  0  0  2  0  0  0  0  0  0
  -24.7080  -30.9240   21.8960 N   0  0  0  0  0  0  0  0  0  0  0  0
  -23.5250  -31.9480   23.5360 O   0  0  0  0  0  0  0  0  0  0  0  0
  -22.8130  -29.2640   22.2420 C   0  0  0  0  0  0  0  0  0  0  0  0
  -21.4810  -29.1280   22.1440 N   0  0  0  0  0  0  0  0  0  0  0  0
  -23.4970  -28.5760   23.0050 O   0  0  0  0  0  0  0  0  0  0  0  0
  -20.9890  -29.7290   21.4980 H   0  0  0  0  0  0  0  0  0  0  0  0
  -18.0750  -28.0960   22.7550 C   0  0  0  0  0  0  0  0  0  0  0  0
  -20.6540  -28.1790   22.8880 C   0  0  0  0  0  3  0  0  0  0  0  0
  -20.6340  -26.7970   22.1940 C   0  0  0  0  0  2  0  0  0  0  0  0
  -19.4560  -26.6260   21.2280 C   0  0  0  0  0  2  0  0  0  0  0  0
  -18.1260  -26.7980   21.9670 C   0  0  0  0  0  2  0  0  0  0  0  0
  -19.2620  -28.7530   23.1750 C   0  0  0  0  0  0  0  0  0  0  0  0
  -19.1570  -29.9750   23.8750 C   0  0  0  0  0  3  0  0  0  0  0  0
  -17.8980  -30.5370   24.1580 C   0  0  0  0  0  3  0  0  0  0  0  0
  -16.7260  -29.8770   23.7500 C   0  0  0  0  0  3  0  0  0  0  0  0
  -16.8160  -28.6560   23.0560 C   0  0  0  0  0  3  0  0  0  0  0  0
  -25.8860  -32.3320   23.6720 C   0  0  0  0  0  3  0  0  0  0  0  0
  -26.4360  -31.4950   24.8920 C   0  0  1  0  0  0  0  0  0  0  0  0
  -25.3590  -31.1510   25.9450 C   0  0  0  0  0  1  0  0  0  0  0  0
  -27.0580  -30.1650   24.4070 C   0  0  0  0  0  1  0  0  0  0  0  0
  -27.5630  -32.2810   25.6040 C   0  0  0  0  0  1  0  0  0  0  0  0
  -25.5310  -33.6930   24.0920 N   0  0  0  0  0  0  0  0  0  0  0  0
  -25.8220  -34.8040   23.4000 C   0  0  0  0  0  0  0  0  0  0  0  0
  -26.4910  -34.7900   22.3630 O   0  0  0  0  0  0  0  0  0  0  0  0
  -24.9380  -33.7760   24.9030 H   0  0  0  0  0  0  0  0  0  0  0  0
  -24.0300  -36.5500   23.1550 C   0  0  0  0  0  1  0  0  0  0  0  0
  -25.2850  -36.1400   23.9440 C   0  0  0  0  0  3  0  0  0  0  0  0
  -27.3810  -37.0440   24.8470 C   0  0  0  0  0  1  0  0  0  0  0  0
  -26.2810  -37.2320   23.9040 N   0  0  0  0  0  0  0  0  0  0  0  0
  -25.8420  -38.1260   24.1080 H   0  0  0  0  0  0  0  0  0  0  0  0
  1  3  2  0
  1  5  1  0
  2  1  1  0
  4  2  1  0
  5  6  1  0
  6  9  1  0
  6  7  1  0
  8  6  1  0
  9 10  1  0
 11 10  1  0
 11 12  1  0
 13 12  1  0
 13 14  1  0
 14 15  1  0
 15 16  1  0
 17 25  1  0
 18 23  1  0
 19 20  1  0
 19 18  1  0
 21 20  1  0
 21 30  1  0
 21 22  1  0
 23 17  1  0
 23 22  1  0
 24 17  2  0
 25 16  1  0
 25 26  1  0
 27 28  2  0
 28 47  1  0
 29 28  1  0
 29 32  1  0
 30 27  1  0
 30 31  1  0
 31 29  2  0
 32 33  1  0
 33 34  2  0
 35 38  1  0
 35 34  1  0
 36 35  2  0
 37 36  1  0
 37 32  2  0
 38 39  1  0
 39 44  2  0
 39 40  1  0
 40 41  2  0
 41 42  1  0
 42 46  1  0
 43 42  2  0
 44 43  1  0
 45 44  1  0
 47 48  1  0
 48 51  1  0
 48 50  1  0
 49 47  2  0
 52 53  1  0
 52 27  1  0
 54 52  1  0
 55  2  1  0
 55 56  1  0
 56 57  1  0
 56 58  2  0
 57 60  1  0
 59 57  1  0
 60 61  1  0
 61 62  1  0
 62 63  1  0
 64 75  2  0
 65 63  1  0
 65 70  1  0
 66 74  1  0
 66 76  1  0
 67 73  1  0
 67 69  1  0
 68 74  1  0
 69 70  2  0
 69 68  1  0
 71 72  1  0
 71 65  2  0
 72 67  2  0
 73 66  1  0
 74 64  1  0
 76 78  2  0
 77 76  1  0
 79 77  1  0
 80 89  2  0
 80 85  1  0
 81 77  1  0
 81 85  1  0
 82 81  1  0
 83 84  1  0
 83 82  1  0
 84 80  1  0
 85 86  2  0
 86 87  1  0
 88 87  2  0
 89 88  1  0
 90 64  1  0
 90 95  1  0
 90 91  1  0
 91 94  1  1
 91 92  1  0
 93 91  1  0
 95 98  1  0
 96100  1  0
 96 95  1  0
 97 96  2  0
100 99  1  0
102100  1  0
102103  1  0
102101  1  0
M  ISO  4  17 100  25 100  62 101  63 101
M  END
>  <TORSDO>  (38) 
F 31

>  <SCORE>  (38) 
-9.831

>  <name>  (38) 
41

>  <ligand_id>  (38) 
41

>  <original_smiles>  (38) 
[H]c1c([H])c([H])c2c(c1[H])C([H])([H])C([H])([H])C([H])([H])C2([H])N([H])C(=O)C1([H])N(C(=O)C([H])(N([H])C(=O)C([H])(N([H])C([H])([H])[H])C([H])([H])[H])C(C([H])([H])[H])(C([H])([H])[H])C([H])([H])[H])C([H])([H])c2c([H])c(OC([H])([H])C([H])([H])C([H])([H])N([H])C(=O)C([H])([H])N([H])C(=O)C([H])([H])[N+]([H])([H])C([H])([H])C([H])([H])C([H])([H])C([H])([H])C([H])([H])C([H])([H])C([H])([H])C([H])([H])N([H])C(=O)N3C([H])([H])C([H])([H])C([H])([H])C([H])(n4nc(-c5c([H])c([H])c(Oc6c([H])c([H])c(F)c([H])c6F)c([H])c5[H])c(C(=O)N([H])[H])c4N([H])[H])C3([H])[H])c([H])c([H])c2C1([H])[H]

>  <smiles>  (38) 
[H]c1c([H])c([H])c2c(c1[H])C([H])([H])C([H])([H])C([H])([H])C2([H])N([H])C(=O)C1([H])N(C(=O)C([H])(N([H])C(=O)C([H])(N([H])C([H])([H])[H])C([H])([H])[H])C(C([H])([H])[H])(C([H])([H])[H])C([H])([H])[H])C([H])([H])c2c([H])c(OC([H])([H])C([H])([H])C([H])([H])N([H])C(=O)C([H])([H])N([H])C(=O)C([H])([H])[N+]([H])([H])C([H])([H])C([H])([H])C([H])([H])C([H])([H])C([H])([H])C([H])([H])C([H])([H])C([H])([H])N([H])C(=O)N3C([H])([H])C([H])([H])C([H])([H])C([H])(n4nc(-c5c([H])c([H])c(Oc6c([H])c([H])c(F)c([H])c6F)c([H])c5[H])c(C(=O)N([H])[H])c4N([H])[H])C3([H])[H])c([H])c([H])c2C1([H])[H]

$$$$
42:0:0
     RDKit          3D

103110  0  0  1  0  0  0  0  0999 V2000
  -22.2780  -28.5100   18.7150 C   0  0  0  0  0  0  0  0  0  0  0  0
  -22.4350  -27.4410   17.7530 N   0  0  0  0  0  0  0  0  0  0  0  0
  -22.7140  -29.5920   18.3380 O   0  0  0  0  0  0  0  0  0  0  0  0
  -22.6660  -27.9140   16.8990 H   0  0  0  0  0  0  0  0  0  0  0  0
  -22.4200  -25.8900   17.4380 C   0  0  0  0  0  2  0  0  0  0  0  0
  -23.7320  -24.9630   16.8920 C   0  0  0  0  0  0  0  0  0  0  0  0
  -24.1290  -23.6440   17.2710 N   0  0  0  0  0  0  0  0  0  0  0  0
  -24.4120  -25.5160   16.0260 O   0  0  0  0  0  0  0  0  0  0  0  0
  -23.3920  -23.1710   17.7770 H   0  0  0  0  0  0  0  0  0  0  0  0
  -25.4360  -22.7280   17.0100 C   0  0  0  0  0  3  0  0  0  0  0  0
  -25.9200  -21.2600   17.8390 C   0  0  0  0  0  3  0  0  0  0  0  0
  -27.3530  -20.2410   17.7520 C   0  0  0  0  0  2  0  0  0  0  0  0
  -27.7170  -18.7750   18.6590 C   0  0  0  0  0  3  0  0  0  0  0  0
  -29.1180  -17.7070   18.7850 C   0  0  0  0  0  3  0  0  0  0  0  0
  -30.2860  -15.2470   19.8920 C   0  0  0  0  0  0  0  0  0  0  0  0
  -30.4960  -12.7830   19.3990 C   0  0  0  0  0  2  0  0  0  0  0  0
  -29.5820  -12.5540   18.1860 C   0  0  0  0  0  2  0  0  0  0  0  0
  -28.1250  -12.3160   18.6300 C   0  0  0  0  0  2  0  0  0  0  0  0
  -27.6620  -13.3290   19.7140 C   0  0  0  0  0  3  0  0  0  0  0  0
  -28.7030  -13.4800   20.8340 C   0  0  0  0  0  2  0  0  0  0  0  0
  -29.9150  -13.9290   20.1470 N   0  0  0  0  0  0  0  0  0  0  0  0
  -31.5050  -15.4100   19.7650 O   0  0  0  0  0  0  0  0  0  0  0  0
  -29.2670  -16.2630   19.5480 N   0  0  0  0  0  0  0  0  0  0  0  0
  -28.3550  -15.8980   19.7540 H   0  0  0  0  0  0  0  0  0  0  0  0
  -25.3240  -13.9410   20.5330 C   0  0  0  0  0  0  0  0  0  0  0  0
  -24.2590  -13.1840   20.8900 C   0  0  0  0  0  0  0  0  0  0  0  0
  -24.7110  -11.8240   20.8430 C   0  0  0  0  0  0  0  0  0  0  0  0
  -26.3430  -13.0520   20.2470 N   0  0  0  0  0  0  0  0  0  0  0  0
  -25.9950  -11.7620   20.5150 N   0  0  0  0  0  0  0  0  0  0  0  0
  -23.9710  -10.5760   21.0150 C   0  0  0  0  0  0  0  0  0  0  0  0
  -24.3800   -9.5910   21.9550 C   0  0  0  0  0  3  0  0  0  0  0  0
  -23.6350   -8.4020   22.1080 C   0  0  0  0  0  3  0  0  0  0  0  0
  -22.4740   -8.1890   21.3270 C   0  0  0  0  0  0  0  0  0  0  0  0
  -22.1040   -9.1450   20.3750 C   0  0  0  0  0  3  0  0  0  0  0  0
  -22.8410  -10.3230   20.2150 C   0  0  0  0  0  3  0  0  0  0  0  0
  -21.7000   -7.0480   21.3960 O   0  0  0  0  0  0  0  0  0  0  0  0
  -21.5720   -6.3370   22.5660 C   0  0  0  0  0  0  0  0  0  0  0  0
  -21.0790   -6.9180   23.7540 C   0  0  0  0  0  3  0  0  0  0  0  0
  -20.8870   -6.1190   24.9020 C   0  0  0  0  0  3  0  0  0  0  0  0
  -21.2470   -4.7540   24.8780 C   0  0  0  0  0  0  0  0  0  0  0  0
  -21.7310   -4.1760   23.6880 C   0  0  0  0  0  3  0  0  0  0  0  0
  -21.9230   -4.9750   22.5480 C   0  0  0  0  0  0  0  0  0  0  0  0
  -22.3810   -4.3970   21.4060 F   0  0  0  0  0  0  0  0  0  0  0  0
  -21.0590   -3.9970   25.9770 F   0  0  0  0  0  0  0  0  0  0  0  0
  -22.8770  -13.6670   21.1870 C   0  0  0  0  0  0  0  0  0  0  0  0
  -22.1450  -12.9770   22.0410 N   0  0  0  0  0  0  0  0  0  0  0  0
  -22.4530  -14.7100   20.6730 O   0  0  0  0  0  0  0  0  0  0  0  0
  -22.5120  -12.1370   22.4730 H   0  0  0  0  0  0  0  0  0  0  0  0
  -21.2160  -13.2760   22.2800 H   0  0  0  0  0  0  0  0  0  0  0  0
  -25.5160  -15.3150   20.3480 N   0  0  0  0  0  0  0  0  0  0  0  0
  -24.7460  -15.9740   20.4260 H   0  0  0  0  0  0  0  0  0  0  0  0
  -26.3280  -15.7170   19.9170 H   0  0  0  0  0  0  0  0  0  0  0  0
  -21.5640  -28.6680   20.2260 C   0  0  0  0  0  2  0  0  0  0  0  0
  -22.3770  -29.0540   23.1940 C   0  0  0  0  0  0  0  0  0  0  0  0
  -21.9280  -29.2770   21.7540 N   0  0  0  0  0  0  0  0  0  0  0  0
  -22.4120  -30.1260   23.7960 O   0  0  0  0  0  0  0  0  0  0  0  0
  -21.8530  -30.2730   21.6570 H   0  0  0  0  0  0  0  0  0  0  0  0
  -22.7460  -27.6310   24.2460 C   0  0  0  0  0  2  0  0  0  0  0  0
  -24.0470  -26.3660   24.5970 C   0  0  0  0  0  2  0  0  0  0  0  0
  -25.5440  -25.4790   24.0050 C   0  0  0  0  0  2  0  0  0  0  0  0
  -27.1050  -25.6370   23.2650 C   0  0  0  0  0  3  0  0  0  0  0  0
  -27.9080  -24.7360   22.0570 C   0  0  0  0  0  3  0  0  0  0  0  0
  -29.3380  -25.0670   21.5230 O   0  0  0  0  0  0  0  0  0  0  0  0
  -25.5330  -29.6370   22.6130 C   0  0  0  0  0  0  0  0  0  0  0  0
  -29.2670  -25.8570   20.4160 C   0  0  0  0  0  0  0  0  0  0  0  0
  -25.0000  -27.7210   20.7390 C   0  0  0  0  0  3  0  0  0  0  0  0
  -26.9890  -26.9510   19.4700 C   0  0  0  0  0  0  0  0  0  0  0  0
  -27.1760  -28.9190   21.0480 C   0  0  0  0  0  2  0  0  0  0  0  0
  -27.7730  -27.7170   20.3260 C   0  0  0  0  0  0  0  0  0  0  0  0
  -28.9930  -27.1910   20.7470 C   0  0  0  0  0  3  0  0  0  0  0  0
  -28.6740  -25.2620   19.3040 C   0  0  0  0  0  3  0  0  0  0  0  0
  -27.4740  -25.7780   18.8590 C   0  0  0  0  0  3  0  0  0  0  0  0
  -25.7030  -26.7480   19.9010 C   0  0  0  0  0  2  0  0  0  0  0  0
  -25.8800  -28.6480   21.6810 N   0  0  0  0  0  0  0  0  0  0  0  0
  -24.4010  -30.1240   22.7160 O   0  0  0  0  0  0  0  0  0  0  0  0
  -24.0190  -26.3810   21.1620 C   0  0  0  0  0  0  0  0  0  0  0  0
  -22.7070  -26.1980   20.9690 N   0  0  0  0  0  0  0  0  0  0  0  0
  -24.3600  -25.3900   21.6920 O   0  0  0  0  0  0  0  0  0  0  0  0
  -22.3390  -26.9540   20.4060 H   0  0  0  0  0  0  0  0  0  0  0  0
  -19.3510  -25.3300   20.8500 C   0  0  0  0  0  0  0  0  0  0  0  0
  -21.7400  -25.3990   21.6970 C   0  0  0  0  0  3  0  0  0  0  0  0
  -21.9000  -24.0150   21.0560 C   0  0  0  0  0  2  0  0  0  0  0  0
  -21.1380  -23.9050   19.7500 C   0  0  0  0  0  2  0  0  0  0  0  0
  -19.6690  -24.0680   20.0750 C   0  0  0  0  0  2  0  0  0  0  0  0
  -20.3140  -25.9840   21.6330 C   0  0  0  0  0  0  0  0  0  0  0  0
  -19.8610  -27.1000   22.4170 C   0  0  0  0  0  3  0  0  0  0  0  0
  -18.5670  -27.6090   22.3040 C   0  0  0  0  0  3  0  0  0  0  0  0
  -17.6470  -26.9610   21.5090 C   0  0  0  0  0  3  0  0  0  0  0  0
  -18.0230  -25.8100   20.8110 C   0  0  0  0  0  3  0  0  0  0  0  0
  -26.5100  -30.3660   23.6540 C   0  0  0  0  0  3  0  0  0  0  0  0
  -25.9260  -31.6900   23.9260 N   0  0  0  0  0  0  0  0  0  0  0  0
  -26.3470  -32.8470   23.4000 C   0  0  0  0  0  0  0  0  0  0  0  0
  -27.3080  -32.8790   22.6280 O   0  0  0  0  0  0  0  0  0  0  0  0
  -24.9970  -31.6890   24.3300 H   0  0  0  0  0  0  0  0  0  0  0  0
  -24.5910  -34.4960   22.6920 C   0  0  0  0  0  1  0  0  0  0  0  0
  -25.6000  -34.1220   23.7830 C   0  0  0  0  0  3  0  0  0  0  0  0
  -27.3040  -35.0570   25.2710 C   0  0  0  0  0  1  0  0  0  0  0  0
  -26.4980  -35.2460   24.0740 N   0  0  0  0  0  0  0  0  0  0  0  0
  -25.9790  -36.1030   24.1500 H   0  0  0  0  0  0  0  0  0  0  0  0
  -26.8190  -29.7230   25.0790 C   0  0  1  0  0  0  0  0  0  0  0  0
  -25.5830  -29.2420   25.8820 C   0  0  0  0  0  1  0  0  0  0  0  0
  -27.7710  -28.6070   24.8360 C   0  0  0  0  0  1  0  0  0  0  0  0
  -27.6290  -30.6770   25.9690 C   0  0  0  0  0  1  0  0  0  0  0  0
  1 53  1  0
  2  1  1  0
  3  1  2  0
  4  2  1  0
  5  2  1  0
  6  7  1  0
  6  5  1  0
  7  9  1  0
  8  6  2  0
 10  7  1  0
 10 11  2  0
 12 11  1  0
 12 13  1  0
 13 14  2  0
 14 23  1  0
 15 21  1  0
 16 21  1  0
 17 18  1  0
 17 16  1  0
 19 18  1  0
 19 28  1  0
 19 20  1  0
 21 20  1  0
 22 15  2  0
 23 24  1  0
 23 15  1  0
 25 26  2  0
 26 45  1  0
 27 26  1  0
 27 30  1  0
 28 29  1  0
 28 25  1  0
 29 27  2  0
 30 31  1  0
 31 32  2  0
 33 36  1  0
 33 32  1  0
 34 33  2  0
 35 34  1  0
 35 30  2  0
 36 37  1  0
 37 38  1  0
 38 39  2  0
 40 39  1  0
 40 44  1  0
 41 40  2  0
 42 37  2  0
 42 41  1  0
 43 42  1  0
 45 46  1  0
 46 49  1  0
 46 48  1  0
 47 45  2  0
 50 51  1  0
 50 25  1  0
 52 50  1  0
 53 55  1  0
 54 56  2  0
 54 58  1  0
 55 54  1  0
 57 55  1  0
 58 59  1  0
 60 59  1  0
 61 60  1  0
 62 61  2  0
 63 62  1  0
 64 75  2  0
 65 70  1  0
 65 63  1  0
 66 76  1  0
 66 74  1  0
 67 73  1  0
 67 69  1  0
 68 74  1  0
 69 70  2  0
 69 68  1  0
 71 65  2  0
 72 71  1  0
 72 67  2  0
 73 66  1  0
 74 64  1  0
 76 78  2  0
 77 76  1  0
 79 77  1  0
 80 85  1  0
 81 77  1  0
 82 81  1  0
 83 84  1  0
 83 82  1  0
 84 80  1  0
 85 81  1  0
 85 86  2  0
 87 86  1  0
 88 87  2  0
 89 80  2  0
 89 88  1  0
 90 64  1  0
 90 91  1  0
 90100  1  0
 91 94  1  0
 92 96  1  0
 92 91  1  0
 93 92  2  0
 96 95  1  0
 96 98  1  0
 98 99  1  0
 98 97  1  0
100101  1  1
100103  1  0
102100  1  0
M  ISO  4  15 100  23 100  62 101  63 101
M  END
>  <TORSDO>  (39) 
F 30

>  <SCORE>  (39) 
-10.274

>  <name>  (39) 
42

>  <ligand_id>  (39) 
42

>  <original_smiles>  (39) 
[H]c1c([H])c([H])c2c(c1[H])C([H])([H])C([H])([H])C([H])([H])C2([H])N([H])C(=O)C1([H])N(C(=O)C([H])(N([H])C(=O)C([H])(N([H])C([H])([H])[H])C([H])([H])[H])C(C([H])([H])[H])(C([H])([H])[H])C([H])([H])[H])C([H])([H])c2c([H])c(OC([H])([H])C([H])([H])C([H])([H])C([H])([H])C([H])([H])C(=O)N([H])C([H])([H])C(=O)N([H])C([H])([H])C(=O)N([H])C([H])([H])C([H])([H])C([H])([H])C([H])([H])C([H])([H])N([H])C(=O)N3C([H])([H])C([H])([H])C([H])([H])C([H])(n4nc(-c5c([H])c([H])c(Oc6c([H])c([H])c(F)c([H])c6F)c([H])c5[H])c(C(=O)N([H])[H])c4N([H])[H])C3([H])[H])c([H])c([H])c2C1([H])[H]

>  <smiles>  (39) 
[H]c1c([H])c([H])c2c(c1[H])C([H])([H])C([H])([H])C([H])([H])C2([H])N([H])C(=O)C1([H])N(C(=O)C([H])(N([H])C(=O)C([H])(N([H])C([H])([H])[H])C([H])([H])[H])C(C([H])([H])[H])(C([H])([H])[H])C([H])([H])[H])C([H])([H])c2c([H])c(OC([H])([H])C([H])([H])C([H])([H])C([H])([H])C([H])([H])C(=O)N([H])C([H])([H])C(=O)N([H])C([H])([H])C(=O)N([H])C([H])([H])C([H])([H])C([H])([H])C([H])([H])C([H])([H])N([H])C(=O)N3C([H])([H])C([H])([H])C([H])([H])C([H])(n4nc(-c5c([H])c([H])c(Oc6c([H])c([H])c(F)c([H])c6F)c([H])c5[H])c(C(=O)N([H])[H])c4N([H])[H])C3([H])[H])c([H])c([H])c2C1([H])[H]

$$$$
43:0:0
     RDKit          3D

 99106  0  0  1  0  0  0  0  0999 V2000
  -29.5040  -23.2480   18.1310 C   0  0  0  0  0  2  0  0  0  0  0  0
  -30.9130  -23.5750   17.5820 C   0  0  0  0  0  2  0  0  0  0  0  0
  -31.2440  -25.0800   17.5890 C   0  0  0  0  0  2  0  0  0  0  0  0
  -31.1750  -25.6620   18.9450 N   0  0  0  0  0  4  0  0  0  0  0  0
  -31.9900  -25.3930   19.4760 H   0  0  0  0  0  0  0  0  0  0  0  0
  -30.3630  -25.2700   19.3940 H   0  0  0  0  0  0  0  0  0  0  0  0
  -31.0140  -27.1330   18.9660 C   0  0  0  0  0  2  0  0  0  0  0  0
  -30.6410  -27.6760   20.3610 C   0  0  0  0  0  2  0  0  0  0  0  0
  -29.4930  -26.9100   21.0470 C   0  0  0  0  0  2  0  0  0  0  0  0
  -28.4270  -26.6560   20.1320 O   0  0  0  0  0  0  0  0  0  0  0  0
  -24.6180  -31.8550   23.2250 C   0  0  0  0  0  0  0  0  0  0  0  0
  -27.2950  -27.4380   20.1750 C   0  0  0  0  0  0  0  0  0  0  0  0
  -23.4130  -30.4420   21.5850 C   0  0  0  0  0  3  0  0  0  0  0  0
  -24.8770  -28.9050   20.1690 C   0  0  0  0  0  0  0  0  0  0  0  0
  -25.9310  -30.8180   21.3860 C   0  0  0  0  0  2  0  0  0  0  0  0
  -26.0240  -29.4460   20.7600 C   0  0  0  0  0  0  0  0  0  0  0  0
  -27.2350  -28.7220   20.7670 C   0  0  0  0  0  3  0  0  0  0  0  0
  -26.1330  -26.9120   19.5730 C   0  0  0  0  0  3  0  0  0  0  0  0
  -24.9230  -27.6310   19.5730 C   0  0  0  0  0  3  0  0  0  0  0  0
  -23.6250  -29.7550   20.2080 C   0  0  0  0  0  2  0  0  0  0  0  0
  -24.6710  -31.0510   22.1250 N   0  0  0  0  0  0  0  0  0  0  0  0
  -23.5380  -32.1310   23.7630 O   0  0  0  0  0  0  0  0  0  0  0  0
  -22.7630  -29.4240   22.5490 C   0  0  0  0  0  0  0  0  0  0  0  0
  -21.4370  -29.2500   22.4270 N   0  0  0  0  0  0  0  0  0  0  0  0
  -23.4460  -28.7970   23.3630 O   0  0  0  0  0  0  0  0  0  0  0  0
  -20.9490  -29.8110   21.7430 H   0  0  0  0  0  0  0  0  0  0  0  0
  -18.0590  -28.0900   22.9430 C   0  0  0  0  0  0  0  0  0  0  0  0
  -20.6190  -28.3180   23.2010 C   0  0  0  0  0  3  0  0  0  0  0  0
  -20.7030  -26.8890   22.6160 C   0  0  0  0  0  2  0  0  0  0  0  0
  -19.5920  -26.5840   21.6060 C   0  0  0  0  0  2  0  0  0  0  0  0
  -18.2170  -26.7420   22.2600 C   0  0  0  0  0  2  0  0  0  0  0  0
  -19.1870  -28.8370   23.3700 C   0  0  0  0  0  0  0  0  0  0  0  0
  -18.9890  -30.1010   23.9650 C   0  0  0  0  0  3  0  0  0  0  0  0
  -17.6920  -30.6210   24.1350 C   0  0  0  0  0  3  0  0  0  0  0  0
  -16.5760  -29.8690   23.7250 C   0  0  0  0  0  3  0  0  0  0  0  0
  -16.7600  -28.6060   23.1370 C   0  0  0  0  0  3  0  0  0  0  0  0
  -25.9070  -32.4840   23.8420 C   0  0  0  0  0  3  0  0  0  0  0  0
  -25.6000  -33.8780   24.1810 N   0  0  0  0  0  0  0  0  0  0  0  0
  -25.9300  -34.9340   23.4240 C   0  0  0  0  0  0  0  0  0  0  0  0
  -26.6000  -34.8370   22.3920 O   0  0  0  0  0  0  0  0  0  0  0  0
  -25.0070  -34.0310   24.9830 H   0  0  0  0  0  0  0  0  0  0  0  0
  -24.1970  -36.7190   23.0780 C   0  0  0  0  0  1  0  0  0  0  0  0
  -25.4390  -36.3190   23.8880 C   0  0  0  0  0  3  0  0  0  0  0  0
  -27.5740  -37.2020   24.7210 C   0  0  0  0  0  1  0  0  0  0  0  0
  -26.4700  -37.3760   23.7790 N   0  0  0  0  0  0  0  0  0  0  0  0
  -26.0620  -38.2940   23.9360 H   0  0  0  0  0  0  0  0  0  0  0  0
  -26.4360  -31.7030   25.1080 C   0  0  1  0  0  0  0  0  0  0  0  0
  -25.3510  -31.4520   26.1810 C   0  0  0  0  0  1  0  0  0  0  0  0
  -27.0180  -30.3310   24.6920 C   0  0  0  0  0  1  0  0  0  0  0  0
  -27.5860  -32.4950   25.7750 C   0  0  0  0  0  1  0  0  0  0  0  0
  -29.0160  -21.8100   17.8530 C   0  0  0  0  0  2  0  0  0  0  0  0
  -30.5070  -20.3580   19.2320 C   0  0  0  0  0  0  0  0  0  0  0  0
  -30.0410  -20.7920   18.0580 N   0  0  0  0  0  0  0  0  0  0  0  0
  -30.1490  -20.8320   20.3120 O   0  0  0  0  0  0  0  0  0  0  0  0
  -30.3900  -20.3250   17.2300 H   0  0  0  0  0  0  0  0  0  0  0  0
  -31.5490  -19.2330   19.1730 C   0  0  0  0  0  2  0  0  0  0  0  0
  -30.5200  -17.4660   20.5780 C   0  0  0  0  0  0  0  0  0  0  0  0
  -31.4970  -18.3430   20.3290 N   0  0  0  0  0  0  0  0  0  0  0  0
  -29.5210  -17.3550   19.8610 O   0  0  0  0  0  0  0  0  0  0  0  0
  -32.2740  -18.3840   20.9730 H   0  0  0  0  0  0  0  0  0  0  0  0
  -30.6960  -16.5560   21.8000 C   0  0  0  0  0  2  0  0  0  0  0  0
  -30.7230  -14.3740   20.6130 C   0  0  0  0  0  0  0  0  0  0  0  0
  -30.3580  -12.3070   19.3240 C   0  0  0  0  0  2  0  0  0  0  0  0
  -29.4210  -12.5690   18.1310 C   0  0  0  0  0  2  0  0  0  0  0  0
  -27.9480  -12.4330   18.5550 C   0  0  0  0  0  2  0  0  0  0  0  0
  -27.6220  -13.2400   19.8380 C   0  0  0  0  0  3  0  0  0  0  0  0
  -28.6630  -12.9560   20.9430 C   0  0  0  0  0  2  0  0  0  0  0  0
  -30.0040  -13.2430   20.3990 N   0  0  0  0  0  0  0  0  0  0  0  0
  -31.7630  -14.6450   20.0040 O   0  0  0  0  0  0  0  0  0  0  0  0
  -30.2130  -15.2030   21.5310 N   0  0  0  0  0  0  0  0  0  0  0  0
  -29.3530  -14.9210   21.9740 H   0  0  0  0  0  0  0  0  0  0  0  0
  -25.2140  -13.8630   20.5110 C   0  0  0  0  0  0  0  0  0  0  0  0
  -24.1410  -13.0970   20.8780 C   0  0  0  0  0  0  0  0  0  0  0  0
  -24.5990  -11.7430   20.8620 C   0  0  0  0  0  0  0  0  0  0  0  0
  -26.2610  -12.9770   20.3010 N   0  0  0  0  0  0  0  0  0  0  0  0
  -25.8900  -11.6980   20.5640 N   0  0  0  0  0  0  0  0  0  0  0  0
  -23.8690  -10.4840   21.0580 C   0  0  0  0  0  0  0  0  0  0  0  0
  -24.3060   -9.5120   21.9830 C   0  0  0  0  0  3  0  0  0  0  0  0
  -23.5760   -8.3170   22.1660 C   0  0  0  0  0  3  0  0  0  0  0  0
  -22.3950   -8.0870   21.4220 C   0  0  0  0  0  0  0  0  0  0  0  0
  -21.9750   -9.0490   20.4850 C   0  0  0  0  0  3  0  0  0  0  0  0
  -22.7060  -10.2340   20.3020 C   0  0  0  0  0  3  0  0  0  0  0  0
  -21.6370   -6.9450   21.5140 O   0  0  0  0  0  0  0  0  0  0  0  0
  -21.6170   -6.1840   22.6550 C   0  0  0  0  0  0  0  0  0  0  0  0
  -21.2410   -6.7240   23.9050 C   0  0  0  0  0  3  0  0  0  0  0  0
  -21.1680   -5.8890   25.0380 C   0  0  0  0  0  3  0  0  0  0  0  0
  -21.4600   -4.5160   24.9230 C   0  0  0  0  0  0  0  0  0  0  0  0
  -21.8300   -3.9760   23.6790 C   0  0  0  0  0  3  0  0  0  0  0  0
  -21.9050   -4.8090   22.5480 C   0  0  0  0  0  0  0  0  0  0  0  0
  -22.2400   -4.2780   21.3460 F   0  0  0  0  0  0  0  0  0  0  0  0
  -21.3830   -3.7130   26.0100 F   0  0  0  0  0  0  0  0  0  0  0  0
  -22.7420  -13.5790   21.1360 C   0  0  0  0  0  0  0  0  0  0  0  0
  -22.0070  -12.8890   22.0010 N   0  0  0  0  0  0  0  0  0  0  0  0
  -22.3100  -14.6020   20.6060 O   0  0  0  0  0  0  0  0  0  0  0  0
  -22.3670  -12.0590   22.4470 H   0  0  0  0  0  0  0  0  0  0  0  0
  -21.0680  -13.1940   22.2150 H   0  0  0  0  0  0  0  0  0  0  0  0
  -25.3860  -15.2310   20.3240 N   0  0  0  0  0  0  0  0  0  0  0  0
  -24.6230  -15.8930   20.4200 H   0  0  0  0  0  0  0  0  0  0  0  0
  -26.2480  -15.6640   20.0140 H   0  0  0  0  0  0  0  0  0  0  0  0
  2  3  1  0
  2  1  1  0
  3  4  1  0
  4  7  1  0
  4  6  1  0
  4  5  1  0
  7  8  1  0
  8  9  1  0
 10 12  1  0
 10  9  1  0
 11 22  2  0
 12 17  1  0
 13 21  1  0
 13 23  1  0
 14 20  1  0
 14 16  1  0
 15 21  1  0
 16 17  2  0
 16 15  1  0
 18 19  1  0
 18 12  2  0
 19 14  2  0
 20 13  1  0
 21 11  1  0
 23 25  2  0
 24 23  1  0
 26 24  1  0
 27 36  2  0
 27 32  1  0
 28 24  1  0
 28 32  1  0
 29 28  1  0
 30 31  1  0
 30 29  1  0
 31 27  1  0
 32 33  2  0
 33 34  1  0
 35 34  2  0
 36 35  1  0
 37 11  1  0
 37 38  1  0
 37 47  1  0
 38 41  1  0
 39 43  1  0
 39 38  1  0
 40 39  2  0
 43 42  1  0
 45 43  1  0
 45 46  1  0
 45 44  1  0
 47 50  1  1
 47 48  1  0
 49 47  1  0
 51 53  1  0
 51  1  1  0
 52 54  2  0
 53 52  1  0
 55 53  1  0
 56 52  1  0
 56 58  1  0
 57 61  1  0
 58 57  1  0
 58 60  1  0
 59 57  2  0
 62 70  1  0
 63 68  1  0
 64 65  1  0
 64 63  1  0
 66 65  1  0
 66 75  1  0
 66 67  1  0
 68 62  1  0
 68 67  1  0
 69 62  2  0
 70 61  1  0
 70 71  1  0
 72 73  2  0
 73 92  1  0
 74 73  1  0
 74 77  1  0
 75 72  1  0
 75 76  1  0
 76 74  2  0
 77 78  1  0
 78 79  2  0
 80 83  1  0
 80 79  1  0
 81 80  2  0
 82 81  1  0
 82 77  2  0
 83 84  1  0
 84 85  1  0
 85 86  2  0
 87 86  1  0
 87 91  1  0
 88 87  2  0
 89 84  2  0
 89 88  1  0
 90 89  1  0
 92 93  1  0
 93 96  1  0
 93 95  1  0
 94 92  2  0
 97 98  1  0
 97 72  1  0
 99 97  1  0
M  ISO  4   9 101  10 101  62 100  70 100
M  END
>  <TORSDO>  (40) 
F 27

>  <SCORE>  (40) 
-11.750

>  <name>  (40) 
43

>  <ligand_id>  (40) 
43

>  <original_smiles>  (40) 
[H]c1c([H])c([H])c2c(c1[H])C([H])([H])C([H])([H])C([H])([H])C2([H])N([H])C(=O)C1([H])N(C(=O)C([H])(N([H])C(=O)C([H])(N([H])C([H])([H])[H])C([H])([H])[H])C(C([H])([H])[H])(C([H])([H])[H])C([H])([H])[H])C([H])([H])c2c([H])c(OC([H])([H])C([H])([H])C([H])([H])[N+]([H])([H])C([H])([H])C([H])([H])C([H])([H])C([H])([H])N([H])C(=O)C([H])([H])N([H])C(=O)C([H])([H])N([H])C(=O)N3C([H])([H])C([H])([H])C([H])([H])C([H])(n4nc(-c5c([H])c([H])c(Oc6c([H])c([H])c(F)c([H])c6F)c([H])c5[H])c(C(=O)N([H])[H])c4N([H])[H])C3([H])[H])c([H])c([H])c2C1([H])[H]

>  <smiles>  (40) 
[H]c1c([H])c([H])c2c(c1[H])C([H])([H])C([H])([H])C([H])([H])C2([H])N([H])C(=O)C1([H])N(C(=O)C([H])(N([H])C(=O)C([H])(N([H])C([H])([H])[H])C([H])([H])[H])C(C([H])([H])[H])(C([H])([H])[H])C([H])([H])[H])C([H])([H])c2c([H])c(OC([H])([H])C([H])([H])C([H])([H])[N+]([H])([H])C([H])([H])C([H])([H])C([H])([H])C([H])([H])N([H])C(=O)C([H])([H])N([H])C(=O)C([H])([H])N([H])C(=O)N3C([H])([H])C([H])([H])C([H])([H])C([H])(n4nc(-c5c([H])c([H])c(Oc6c([H])c([H])c(F)c([H])c6F)c([H])c5[H])c(C(=O)N([H])[H])c4N([H])[H])C3([H])[H])c([H])c([H])c2C1([H])[H]

$$$$
44:0:0
     RDKit          3D

104111  0  0  1  0  0  0  0  0999 V2000
  -25.1590  -25.0390   24.8900 C   0  0  0  0  0  2  0  0  0  0  0  0
  -26.4400  -25.5430   25.2380 O   0  0  0  0  0  0  0  0  0  0  0  0
  -26.3730  -26.5770   26.2140 C   0  0  0  0  0  2  0  0  0  0  0  0
  -27.7830  -27.0750   26.5640 C   0  0  0  0  0  0  0  0  0  0  0  0
  -27.8340  -28.2190   27.2520 N   0  0  0  0  0  0  0  0  0  0  0  0
  -28.7900  -26.4500   26.2200 O   0  0  0  0  0  0  0  0  0  0  0  0
  -26.9470  -28.6280   27.5060 H   0  0  0  0  0  0  0  0  0  0  0  0
  -29.0230  -28.9630   27.6520 C   0  0  0  0  0  2  0  0  0  0  0  0
  -28.9160  -30.4110   27.1490 C   0  0  0  0  0  2  0  0  0  0  0  0
  -29.3810  -30.4830   25.8040 O   0  0  0  0  0  0  0  0  0  0  0  0
  -28.5590  -31.2350   24.9170 C   0  0  0  0  0  2  0  0  0  0  0  0
  -27.8160  -30.2690   23.9820 C   0  0  0  0  0  2  0  0  0  0  0  0
  -26.9040  -30.9480   23.1210 O   0  0  0  0  0  0  0  0  0  0  0  0
  -21.7630  -28.3110   27.2880 C   0  0  0  0  0  0  0  0  0  0  0  0
  -25.5740  -30.6510   23.3000 C   0  0  0  0  0  0  0  0  0  0  0  0
  -21.1490  -28.6950   24.9180 C   0  0  0  0  0  3  0  0  0  0  0  0
  -22.8310  -30.0410   23.5500 C   0  0  0  0  0  0  0  0  0  0  0  0
  -22.9500  -30.1110   26.0450 C   0  0  0  0  0  2  0  0  0  0  0  0
  -23.6160  -30.2310   24.6940 C   0  0  0  0  0  0  0  0  0  0  0  0
  -24.9860  -30.5330   24.5780 C   0  0  0  0  0  3  0  0  0  0  0  0
  -24.7760  -30.4750   22.1520 C   0  0  0  0  0  3  0  0  0  0  0  0
  -23.4070  -30.1590   22.2710 C   0  0  0  0  0  3  0  0  0  0  0  0
  -21.3700  -29.7190   23.7710 C   0  0  0  0  0  2  0  0  0  0  0  0
  -21.9750  -29.0010   26.1330 N   0  0  0  0  0  0  0  0  0  0  0  0
  -20.8650  -27.4620   27.3710 O   0  0  0  0  0  0  0  0  0  0  0  0
  -21.3860  -27.2740   24.3600 C   0  0  0  0  0  0  0  0  0  0  0  0
  -20.3800  -26.7380   23.6510 N   0  0  0  0  0  0  0  0  0  0  0  0
  -22.4610  -26.6950   24.5420 O   0  0  0  0  0  0  0  0  0  0  0  0
  -19.5300  -27.2750   23.5540 H   0  0  0  0  0  0  0  0  0  0  0  0
  -18.4010  -24.4710   21.6570 C   0  0  0  0  0  0  0  0  0  0  0  0
  -20.3910  -25.4290   22.9980 C   0  0  0  0  0  3  0  0  0  0  0  0
  -21.1410  -25.4870   21.6460 C   0  0  0  0  0  2  0  0  0  0  0  0
  -20.2170  -25.7620   20.4550 C   0  0  0  0  0  2  0  0  0  0  0  0
  -19.1420  -24.6780   20.3470 C   0  0  0  0  0  2  0  0  0  0  0  0
  -18.9800  -24.8420   22.9000 C   0  0  0  0  0  0  0  0  0  0  0  0
  -18.2310  -24.6670   24.0840 C   0  0  0  0  0  3  0  0  0  0  0  0
  -16.9310  -24.1280   24.0390 C   0  0  0  0  0  3  0  0  0  0  0  0
  -16.3690  -23.7500   22.8080 C   0  0  0  0  0  3  0  0  0  0  0  0
  -17.1050  -23.9180   21.6210 C   0  0  0  0  0  3  0  0  0  0  0  0
  -22.6220  -28.5690   28.5670 C   0  0  0  0  0  3  0  0  0  0  0  0
  -23.7980  -27.5340   28.7490 C   0  0  1  0  0  0  0  0  0  0  0  0
  -23.3480  -26.0580   28.6610 C   0  0  0  0  0  1  0  0  0  0  0  0
  -24.8880  -27.7580   27.6760 C   0  0  0  0  0  1  0  0  0  0  0  0
  -24.4760  -27.7490   30.1240 C   0  0  0  0  0  1  0  0  0  0  0  0
  -21.7140  -28.5330   29.7210 N   0  0  0  0  0  0  0  0  0  0  0  0
  -21.2180  -29.6200   30.3290 C   0  0  0  0  0  0  0  0  0  0  0  0
  -21.5360  -30.7700   30.0140 O   0  0  0  0  0  0  0  0  0  0  0  0
  -21.3600  -27.6270   29.9910 H   0  0  0  0  0  0  0  0  0  0  0  0
  -18.7790  -29.6020   30.9370 C   0  0  0  0  0  1  0  0  0  0  0  0
  -20.2060  -29.3930   31.4670 C   0  0  0  0  0  3  0  0  0  0  0  0
  -21.6620  -29.9530   33.3630 C   0  0  0  0  0  1  0  0  0  0  0  0
  -20.4330  -30.2670   32.6390 N   0  0  0  0  0  0  0  0  0  0  0  0
  -19.6560  -30.2040   33.2910 H   0  0  0  0  0  0  0  0  0  0  0  0
  -25.3310  -23.7170   24.1330 C   0  0  0  0  0  2  0  0  0  0  0  0
  -25.6230  -23.8400   22.6270 C   0  0  0  0  0  2  0  0  0  0  0  0
  -26.8500  -24.6990   22.2700 C   0  0  0  0  0  2  0  0  0  0  0  0
  -27.5100  -25.8550   20.1460 C   0  0  0  0  0  0  0  0  0  0  0  0
  -26.9150  -24.8710   20.8240 N   0  0  0  0  0  0  0  0  0  0  0  0
  -28.0950  -26.7970   20.6840 O   0  0  0  0  0  0  0  0  0  0  0  0
  -26.4650  -24.1540   20.2680 H   0  0  0  0  0  0  0  0  0  0  0  0
  -27.4100  -25.7410   18.6240 C   0  0  0  0  0  2  0  0  0  0  0  0
  -28.6200  -26.5540   16.6400 C   0  0  0  0  0  0  0  0  0  0  0  0
  -28.2340  -26.7140   17.9080 N   0  0  0  0  0  0  0  0  0  0  0  0
  -28.3520  -25.5320   16.0010 O   0  0  0  0  0  0  0  0  0  0  0  0
  -28.4980  -27.5480   18.4160 H   0  0  0  0  0  0  0  0  0  0  0  0
  -29.3890  -27.6820   15.9480 C   0  0  0  0  0  2  0  0  0  0  0  0
  -28.7770  -28.8470   13.8150 C   0  0  0  0  0  0  0  0  0  0  0  0
  -27.7190  -29.7880   11.7920 C   0  0  0  0  0  2  0  0  0  0  0  0
  -26.4750  -30.6230   12.1570 C   0  0  0  0  0  2  0  0  0  0  0  0
  -25.2250  -29.7290   12.2630 C   0  0  0  0  0  2  0  0  0  0  0  0
  -25.4620  -28.4880   13.1630 C   0  0  0  0  0  3  0  0  0  0  0  0
  -26.7640  -27.7660   12.7540 C   0  0  0  0  0  2  0  0  0  0  0  0
  -27.8800  -28.7330   12.8020 N   0  0  0  0  0  0  0  0  0  0  0  0
  -29.5110  -29.8250   13.9870 O   0  0  0  0  0  0  0  0  0  0  0  0
  -28.8250  -27.7800   14.6100 N   0  0  0  0  0  0  0  0  0  0  0  0
  -28.2340  -27.0000   14.3550 H   0  0  0  0  0  0  0  0  0  0  0  0
  -23.5830  -27.0560   14.1940 C   0  0  0  0  0  0  0  0  0  0  0  0
  -22.5710  -26.3300   13.6250 C   0  0  0  0  0  0  0  0  0  0  0  0
  -22.7310  -26.4720   12.2120 C   0  0  0  0  0  0  0  0  0  0  0  0
  -24.3130  -27.5860   13.1400 N   0  0  0  0  0  0  0  0  0  0  0  0
  -23.8150  -27.1870   11.9400 N   0  0  0  0  0  0  0  0  0  0  0  0
  -21.8870  -26.0100   11.1040 C   0  0  0  0  0  0  0  0  0  0  0  0
  -22.4220  -25.2790   10.0190 C   0  0  0  0  0  3  0  0  0  0  0  0
  -21.5860  -24.8310    8.9750 C   0  0  0  0  0  3  0  0  0  0  0  0
  -20.2000  -25.1090    9.0070 C   0  0  0  0  0  0  0  0  0  0  0  0
  -19.6750  -25.8560   10.0760 C   0  0  0  0  0  3  0  0  0  0  0  0
  -20.5090  -26.3050   11.1130 C   0  0  0  0  0  3  0  0  0  0  0  0
  -19.3150  -24.7390    8.0230 O   0  0  0  0  0  0  0  0  0  0  0  0
  -19.5480  -23.6530    7.2170 C   0  0  0  0  0  0  0  0  0  0  0  0
  -19.7710  -22.3660    7.7500 C   0  0  0  0  0  3  0  0  0  0  0  0
  -19.9390  -21.2650    6.8870 C   0  0  0  0  0  3  0  0  0  0  0  0
  -19.8700  -21.4480    5.4920 C   0  0  0  0  0  0  0  0  0  0  0  0
  -19.6420  -22.7280    4.9590 C   0  0  0  0  0  3  0  0  0  0  0  0
  -19.4770  -23.8270    5.8200 C   0  0  0  0  0  0  0  0  0  0  0  0
  -19.2350  -25.0570    5.3030 F   0  0  0  0  0  0  0  0  0  0  0  0
  -20.0230  -20.3910    4.6610 F   0  0  0  0  0  0  0  0  0  0  0  0
  -21.4590  -25.6260   14.3460 C   0  0  0  0  0  0  0  0  0  0  0  0
  -20.9470  -24.5440   13.7730 N   0  0  0  0  0  0  0  0  0  0  0  0
  -21.0690  -26.0060   15.4490 O   0  0  0  0  0  0  0  0  0  0  0  0
  -21.2850  -24.2220   12.8760 H   0  0  0  0  0  0  0  0  0  0  0  0
  -20.2120  -24.0300   14.2350 H   0  0  0  0  0  0  0  0  0  0  0  0
  -23.9350  -27.3160   15.5150 N   0  0  0  0  0  0  0  0  0  0  0  0
  -23.3760  -26.9830   16.2930 H   0  0  0  0  0  0  0  0  0  0  0  0
  -24.7190  -27.8850   15.8070 H   0  0  0  0  0  0  0  0  0  0  0  0
  1  2  1  0
  2  3  1  0
  3  4  1  0
  4  5  1  0
  5  7  1  0
  5  8  1  0
  6  4  2  0
  9  8  1  0
 10  9  1  0
 11 10  1  0
 12 11  1  0
 13 15  1  0
 13 12  1  0
 14 25  2  0
 15 20  1  0
 16 26  1  0
 16 24  1  0
 17 23  1  0
 17 19  1  0
 18 24  1  0
 19 18  1  0
 20 19  2  0
 21 22  1  0
 21 15  2  0
 22 17  2  0
 23 16  1  0
 24 14  1  0
 26 28  2  0
 27 26  1  0
 29 27  1  0
 30 35  1  0
 31 27  1  0
 32 31  1  0
 33 32  1  0
 34 33  1  0
 34 30  1  0
 35 31  1  0
 35 36  2  0
 37 36  1  0
 38 37  2  0
 39 30  2  0
 39 38  1  0
 40 14  1  0
 40 41  1  0
 40 45  1  0
 41 44  1  1
 42 41  1  0
 43 41  1  0
 45 48  1  0
 45 46  1  0
 46 50  1  0
 47 46  2  0
 50 49  1  0
 50 52  1  0
 52 53  1  0
 52 51  1  0
 54  1  1  0
 55 54  1  0
 56 55  1  0
 57 59  2  0
 57 58  1  0
 58 56  1  0
 60 58  1  0
 61 57  1  0
 62 63  1  0
 63 65  1  0
 63 61  1  0
 64 62  2  0
 66 62  1  0
 67 74  2  0
 67 75  1  0
 68 69  1  0
 68 73  1  0
 69 70  1  0
 71 70  1  0
 72 73  1  0
 72 71  1  0
 73 67  1  0
 75 66  1  0
 76 75  1  0
 77102  1  0
 78 77  2  0
 78 97  1  0
 79 78  1  0
 80 71  1  0
 80 77  1  0
 81 79  2  0
 81 80  1  0
 82 87  1  0
 82 79  1  0
 83 82  2  0
 84 85  2  0
 84 83  1  0
 85 86  1  0
 86 87  2  0
 88 85  1  0
 89 90  1  0
 89 88  1  0
 91 90  2  0
 92 91  1  0
 93 92  2  0
 93 94  1  0
 94 89  2  0
 95 94  1  0
 96 92  1  0
 97 99  2  0
 98101  1  0
 98 97  1  0
100 98  1  0
102104  1  0
102103  1  0
M  ISO  4  12 101  13 101  67 100  75 100
M  END
>  <TORSDO>  (41) 
F 31

>  <SCORE>  (41) 
26.168

>  <name>  (41) 
44

>  <ligand_id>  (41) 
44

>  <original_smiles>  (41) 
[H]c1c([H])c([H])c2c(c1[H])C([H])([H])C([H])([H])C([H])([H])C2([H])N([H])C(=O)C1([H])N(C(=O)C([H])(N([H])C(=O)C([H])(N([H])C([H])([H])[H])C([H])([H])[H])C(C([H])([H])[H])(C([H])([H])[H])C([H])([H])[H])C([H])([H])c2c([H])c(OC([H])([H])C([H])([H])OC([H])([H])C([H])([H])N([H])C(=O)C([H])([H])OC([H])([H])C([H])([H])C([H])([H])C([H])([H])N([H])C(=O)C([H])([H])N([H])C(=O)C([H])([H])N([H])C(=O)N3C([H])([H])C([H])([H])C([H])([H])C([H])(n4nc(-c5c([H])c([H])c(Oc6c([H])c([H])c(F)c([H])c6F)c([H])c5[H])c(C(=O)N([H])[H])c4N([H])[H])C3([H])[H])c([H])c([H])c2C1([H])[H]

>  <smiles>  (41) 
[H]c1c([H])c([H])c2c(c1[H])C([H])([H])C([H])([H])C([H])([H])C2([H])N([H])C(=O)C1([H])N(C(=O)C([H])(N([H])C(=O)C([H])(N([H])C([H])([H])[H])C([H])([H])[H])C(C([H])([H])[H])(C([H])([H])[H])C([H])([H])[H])C([H])([H])c2c([H])c(OC([H])([H])C([H])([H])OC([H])([H])C([H])([H])N([H])C(=O)C([H])([H])OC([H])([H])C([H])([H])C([H])([H])C([H])([H])N([H])C(=O)C([H])([H])N([H])C(=O)C([H])([H])N([H])C(=O)N3C([H])([H])C([H])([H])C([H])([H])C([H])(n4nc(-c5c([H])c([H])c(Oc6c([H])c([H])c(F)c([H])c6F)c([H])c5[H])c(C(=O)N([H])[H])c4N([H])[H])C3([H])[H])c([H])c([H])c2C1([H])[H]

$$$$
47:0:0
     RDKit          3D

101108  0  0  1  0  0  0  0  0999 V2000
  -30.7990  -22.6660   23.6790 C   0  0  0  0  0  0  0  0  0  0  0  0
  -31.0180  -21.3940   24.0210 N   0  0  0  0  0  0  0  0  0  0  0  0
  -31.2620  -23.6210   24.3090 O   0  0  0  0  0  0  0  0  0  0  0  0
  -30.5810  -20.6880   23.4420 H   0  0  0  0  0  0  0  0  0  0  0  0
  -29.9380  -22.8800   22.4330 C   0  0  0  0  0  2  0  0  0  0  0  0
  -28.8400  -24.9390   21.5720 C   0  0  0  0  0  0  0  0  0  0  0  0
  -29.9010  -24.2890   22.0570 N   0  0  0  0  0  0  0  0  0  0  0  0
  -27.7660  -24.3730   21.3490 O   0  0  0  0  0  0  0  0  0  0  0  0
  -30.7400  -24.8190   22.2530 H   0  0  0  0  0  0  0  0  0  0  0  0
  -29.0140  -26.4330   21.2750 C   0  0  0  0  0  2  0  0  0  0  0  0
  -28.3930  -26.7340   20.0250 O   0  0  0  0  0  0  0  0  0  0  0  0
  -24.6100  -31.8720   23.2150 C   0  0  0  0  0  0  0  0  0  0  0  0
  -27.2420  -27.4770   20.0920 C   0  0  0  0  0  0  0  0  0  0  0  0
  -23.3970  -30.4920   21.5560 C   0  0  0  0  0  3  0  0  0  0  0  0
  -24.8460  -28.9610   20.1200 C   0  0  0  0  0  0  0  0  0  0  0  0
  -25.9200  -30.8490   21.3620 C   0  0  0  0  0  2  0  0  0  0  0  0
  -26.0010  -29.4830   20.7180 C   0  0  0  0  0  0  0  0  0  0  0  0
  -27.2010  -28.7450   20.7090 C   0  0  0  0  0  3  0  0  0  0  0  0
  -26.0800  -26.9650   19.4830 C   0  0  0  0  0  3  0  0  0  0  0  0
  -24.8760  -27.6960   19.5040 C   0  0  0  0  0  3  0  0  0  0  0  0
  -23.6060  -29.8240   20.1700 C   0  0  0  0  0  2  0  0  0  0  0  0
  -24.6600  -31.0840   22.1040 N   0  0  0  0  0  0  0  0  0  0  0  0
  -23.5300  -32.1460   23.7550 O   0  0  0  0  0  0  0  0  0  0  0  0
  -22.7390  -29.4650   22.5040 C   0  0  0  0  0  0  0  0  0  0  0  0
  -21.4130  -29.3020   22.3770 N   0  0  0  0  0  0  0  0  0  0  0  0
  -23.4160  -28.8190   23.3070 O   0  0  0  0  0  0  0  0  0  0  0  0
  -20.9310  -29.8750   21.6980 H   0  0  0  0  0  0  0  0  0  0  0  0
  -18.0260  -28.1390   22.8490 C   0  0  0  0  0  0  0  0  0  0  0  0
  -20.5840  -28.3650   23.1350 C   0  0  0  0  0  3  0  0  0  0  0  0
  -20.6760  -26.9400   22.5430 C   0  0  0  0  0  2  0  0  0  0  0  0
  -19.5740  -26.6390   21.5220 C   0  0  0  0  0  2  0  0  0  0  0  0
  -18.1910  -26.7930   22.1630 C   0  0  0  0  0  2  0  0  0  0  0  0
  -19.1510  -28.8840   23.2910 C   0  0  0  0  0  0  0  0  0  0  0  0
  -18.9450  -30.1460   23.8910 C   0  0  0  0  0  3  0  0  0  0  0  0
  -17.6450  -30.6600   24.0570 C   0  0  0  0  0  3  0  0  0  0  0  0
  -16.5340  -29.9100   23.6330 C   0  0  0  0  0  3  0  0  0  0  0  0
  -16.7250  -28.6520   23.0330 C   0  0  0  0  0  3  0  0  0  0  0  0
  -25.9000  -32.4860   23.8420 C   0  0  0  0  0  3  0  0  0  0  0  0
  -25.5870  -33.8650   24.2350 N   0  0  0  0  0  0  0  0  0  0  0  0
  -25.9020  -34.9500   23.5150 C   0  0  0  0  0  0  0  0  0  0  0  0
  -26.5590  -34.8940   22.4720 O   0  0  0  0  0  0  0  0  0  0  0  0
  -24.9960  -33.9810   25.0460 H   0  0  0  0  0  0  0  0  0  0  0  0
  -24.1480  -36.7330   23.2640 C   0  0  0  0  0  1  0  0  0  0  0  0
  -25.4100  -36.3140   24.0350 C   0  0  0  0  0  3  0  0  0  0  0  0
  -27.5580  -37.1820   24.8470 C   0  0  0  0  0  1  0  0  0  0  0  0
  -26.4310  -37.3810   23.9410 N   0  0  0  0  0  0  0  0  0  0  0  0
  -26.0220  -38.2900   24.1400 H   0  0  0  0  0  0  0  0  0  0  0  0
  -26.4440  -31.6620   25.0720 C   0  0  1  0  0  0  0  0  0  0  0  0
  -25.3710  -31.3720   26.1480 C   0  0  0  0  0  1  0  0  0  0  0  0
  -27.0270  -30.3090   24.6030 C   0  0  0  0  0  1  0  0  0  0  0  0
  -27.6030  -32.4330   25.7460 C   0  0  0  0  0  1  0  0  0  0  0  0
  -31.8330  -20.9220   25.1330 C   0  0  0  0  0  2  0  0  0  0  0  0
  -32.5840  -19.6540   24.7080 C   0  0  0  0  0  2  0  0  0  0  0  0
  -33.3690  -18.9810   25.8430 C   0  0  0  0  0  2  0  0  0  0  0  0
  -34.0750  -17.7100   25.3460 C   0  0  0  0  0  2  0  0  0  0  0  0
  -34.3570  -16.6830   26.4560 C   0  0  0  0  0  2  0  0  0  0  0  0
  -34.7050  -15.2740   25.9280 C   0  0  0  0  0  2  0  0  0  0  0  0
  -33.4920  -14.3400   25.7240 C   0  0  0  0  0  2  0  0  0  0  0  0
  -32.4790  -14.8010   23.4980 C   0  0  0  0  0  0  0  0  0  0  0  0
  -32.4970  -14.9210   24.8290 N   0  0  0  0  0  0  0  0  0  0  0  0
  -33.2610  -14.0720   22.8840 O   0  0  0  0  0  0  0  0  0  0  0  0
  -31.8050  -15.5240   25.2520 H   0  0  0  0  0  0  0  0  0  0  0  0
  -31.4440  -15.6430   22.7450 C   0  0  0  0  0  2  0  0  0  0  0  0
  -30.8100  -14.2810   20.7590 C   0  0  0  0  0  0  0  0  0  0  0  0
  -30.4090  -12.2860   19.3640 C   0  0  0  0  0  2  0  0  0  0  0  0
  -29.4690  -12.5390   18.1740 C   0  0  0  0  0  2  0  0  0  0  0  0
  -27.9990  -12.3800   18.5990 C   0  0  0  0  0  2  0  0  0  0  0  0
  -27.6630  -13.1980   19.8720 C   0  0  0  0  0  3  0  0  0  0  0  0
  -28.6980  -12.9310   20.9840 C   0  0  0  0  0  2  0  0  0  0  0  0
  -30.0490  -13.2030   20.4540 N   0  0  0  0  0  0  0  0  0  0  0  0
  -31.7510  -14.6790   20.0630 O   0  0  0  0  0  0  0  0  0  0  0  0
  -30.5620  -14.7780   21.9730 N   0  0  0  0  0  0  0  0  0  0  0  0
  -29.8000  -14.3510   22.4780 H   0  0  0  0  0  0  0  0  0  0  0  0
  -25.2600  -13.8150   20.5650 C   0  0  0  0  0  0  0  0  0  0  0  0
  -24.1830  -13.0440   20.9150 C   0  0  0  0  0  0  0  0  0  0  0  0
  -24.6380  -11.6900   20.8710 C   0  0  0  0  0  0  0  0  0  0  0  0
  -26.3020  -12.9300   20.3330 N   0  0  0  0  0  0  0  0  0  0  0  0
  -25.9290  -11.6470   20.5720 N   0  0  0  0  0  0  0  0  0  0  0  0
  -23.9040  -10.4290   21.0390 C   0  0  0  0  0  0  0  0  0  0  0  0
  -24.3600   -9.4210   21.9170 C   0  0  0  0  0  3  0  0  0  0  0  0
  -23.6280   -8.2250   22.0750 C   0  0  0  0  0  3  0  0  0  0  0  0
  -22.4270   -8.0280   21.3540 C   0  0  0  0  0  0  0  0  0  0  0  0
  -21.9890   -9.0250   20.4640 C   0  0  0  0  0  3  0  0  0  0  0  0
  -22.7220  -10.2130   20.3040 C   0  0  0  0  0  3  0  0  0  0  0  0
  -21.6640   -6.8870   21.4240 O   0  0  0  0  0  0  0  0  0  0  0  0
  -21.6850   -6.0730   22.5280 C   0  0  0  0  0  0  0  0  0  0  0  0
  -21.4010   -6.5640   23.8220 C   0  0  0  0  0  3  0  0  0  0  0  0
  -21.3660   -5.6790   24.9180 C   0  0  0  0  0  3  0  0  0  0  0  0
  -21.6040   -4.3060   24.7230 C   0  0  0  0  0  0  0  0  0  0  0  0
  -21.8820   -3.8140   23.4350 C   0  0  0  0  0  3  0  0  0  0  0  0
  -21.9190   -4.6960   22.3400 C   0  0  0  0  0  0  0  0  0  0  0  0
  -22.1660   -4.2140   21.0980 F   0  0  0  0  0  0  0  0  0  0  0  0
  -21.5630   -3.4540   25.7740 F   0  0  0  0  0  0  0  0  0  0  0  0
  -22.7870  -13.5240   21.1830 C   0  0  0  0  0  0  0  0  0  0  0  0
  -22.0510  -12.8230   22.0400 N   0  0  0  0  0  0  0  0  0  0  0  0
  -22.3550  -14.5550   20.6700 O   0  0  0  0  0  0  0  0  0  0  0  0
  -22.4120  -11.9880   22.4770 H   0  0  0  0  0  0  0  0  0  0  0  0
  -21.1140  -13.1270   22.2630 H   0  0  0  0  0  0  0  0  0  0  0  0
  -25.4350  -15.1870   20.4080 N   0  0  0  0  0  0  0  0  0  0  0  0
  -24.6760  -15.8500   20.5220 H   0  0  0  0  0  0  0  0  0  0  0  0
  -26.3000  -15.6230   20.1130 H   0  0  0  0  0  0  0  0  0  0  0  0
  1  2  1  0
  1  3  2  0
  2 52  1  0
  4  2  1  0
  5  1  1  0
  6  7  1  0
  7  9  1  0
  7  5  1  0
  8  6  2  0
 10  6  1  0
 11 13  1  0
 11 10  1  0
 12 23  2  0
 13 18  1  0
 14 22  1  0
 14 24  1  0
 15 21  1  0
 15 17  1  0
 16 22  1  0
 17 16  1  0
 18 17  2  0
 19 20  1  0
 19 13  2  0
 20 15  2  0
 21 14  1  0
 22 12  1  0
 24 26  2  0
 25 24  1  0
 27 25  1  0
 28 37  2  0
 28 33  1  0
 29 25  1  0
 29 33  1  0
 30 29  1  0
 31 32  1  0
 31 30  1  0
 32 28  1  0
 33 34  2  0
 34 35  1  0
 36 35  2  0
 37 36  1  0
 38 12  1  0
 38 39  1  0
 38 48  1  0
 39 42  1  0
 40 44  1  0
 40 39  1  0
 41 40  2  0
 44 43  1  0
 46 44  1  0
 46 47  1  0
 46 45  1  0
 48 51  1  1
 48 49  1  0
 50 48  1  0
 53 52  1  0
 53 54  1  0
 55 54  1  0
 55 56  1  0
 57 56  1  0
 58 57  1  0
 59 60  1  0
 60 62  1  0
 60 58  1  0
 61 59  2  0
 63 59  1  0
 64 72  1  0
 65 70  1  0
 66 67  1  0
 66 65  1  0
 68 67  1  0
 68 77  1  0
 68 69  1  0
 70 64  1  0
 70 69  1  0
 71 64  2  0
 72 73  1  0
 72 63  1  0
 74 75  2  0
 75 94  1  0
 76 75  1  0
 76 79  1  0
 77 74  1  0
 77 78  1  0
 78 76  2  0
 79 80  1  0
 80 81  2  0
 82 85  1  0
 82 81  1  0
 83 82  2  0
 84 83  1  0
 84 79  2  0
 85 86  1  0
 86 87  1  0
 87 88  2  0
 89 88  1  0
 89 93  1  0
 90 89  2  0
 91 86  2  0
 91 90  1  0
 92 91  1  0
 94 95  1  0
 95 98  1  0
 95 97  1  0
 96 94  2  0
 99100  1  0
 99 74  1  0
101 99  1  0
M  ISO  4  10 101  11 101  64 100  72 100
M  END
>  <TORSDO>  (42) 
F 28

>  <SCORE>  (42) 
44.050

>  <name>  (42) 
47

>  <ligand_id>  (42) 
47

>  <original_smiles>  (42) 
[H]c1c([H])c([H])c2c(c1[H])C([H])([H])C([H])([H])C([H])([H])C2([H])N([H])C(=O)C1([H])N(C(=O)C([H])(N([H])C(=O)C([H])(N([H])C([H])([H])[H])C([H])([H])[H])C(C([H])([H])[H])(C([H])([H])[H])C([H])([H])[H])C([H])([H])c2c([H])c(OC([H])([H])C(=O)N([H])C([H])([H])C(=O)N([H])C([H])([H])C([H])([H])C([H])([H])C([H])([H])C([H])([H])C([H])([H])C([H])([H])N([H])C(=O)C([H])([H])N([H])C(=O)N3C([H])([H])C([H])([H])C([H])([H])C([H])(n4nc(-c5c([H])c([H])c(Oc6c([H])c([H])c(F)c([H])c6F)c([H])c5[H])c(C(=O)N([H])[H])c4N([H])[H])C3([H])[H])c([H])c([H])c2C1([H])[H]

>  <smiles>  (42) 
[H]c1c([H])c([H])c2c(c1[H])C([H])([H])C([H])([H])C([H])([H])C2([H])N([H])C(=O)C1([H])N(C(=O)C([H])(N([H])C(=O)C([H])(N([H])C([H])([H])[H])C([H])([H])[H])C(C([H])([H])[H])(C([H])([H])[H])C([H])([H])[H])C([H])([H])c2c([H])c(OC([H])([H])C(=O)N([H])C([H])([H])C(=O)N([H])C([H])([H])C([H])([H])C([H])([H])C([H])([H])C([H])([H])C([H])([H])C([H])([H])N([H])C(=O)C([H])([H])N([H])C(=O)N3C([H])([H])C([H])([H])C([H])([H])C([H])(n4nc(-c5c([H])c([H])c(Oc6c([H])c([H])c(F)c([H])c6F)c([H])c5[H])c(C(=O)N([H])[H])c4N([H])[H])C3([H])[H])c([H])c([H])c2C1([H])[H]

$$$$
48:0:0
     RDKit          3D

101108  0  0  1  0  0  0  0  0999 V2000
  -30.5230  -21.8500   16.5230 C   0  0  0  0  0  0  0  0  0  0  0  0
  -30.6890  -23.1720   16.4620 N   0  0  0  0  0  0  0  0  0  0  0  0
  -29.9010  -21.2030   15.6740 O   0  0  0  0  0  0  0  0  0  0  0  0
  -31.2550  -23.6030   17.1820 H   0  0  0  0  0  0  0  0  0  0  0  0
  -31.1440  -21.1580   17.7330 C   0  0  0  0  0  2  0  0  0  0  0  0
  -32.0980  -20.2130   17.2810 O   0  0  0  0  0  0  0  0  0  0  0  0
  -33.0820  -19.9440   18.2630 C   0  0  0  0  0  2  0  0  0  0  0  0
  -33.8660  -18.7070   17.8380 C   0  0  0  0  0  2  0  0  0  0  0  0
  -33.2180  -17.3800   18.2700 C   0  0  0  0  0  2  0  0  0  0  0  0
  -31.8090  -17.0660   17.7120 C   0  0  0  0  0  2  0  0  0  0  0  0
  -29.9980  -17.7040   19.4010 C   0  0  0  0  0  0  0  0  0  0  0  0
  -30.6940  -17.8390   18.2600 N   0  0  0  0  0  0  0  0  0  0  0  0
  -28.9090  -18.2640   19.5090 O   0  0  0  0  0  0  0  0  0  0  0  0
  -30.3000  -18.5090   17.6120 H   0  0  0  0  0  0  0  0  0  0  0  0
  -30.5280  -16.9280   20.6160 C   0  0  0  0  0  2  0  0  0  0  0  0
  -30.6570  -14.4720   20.4450 C   0  0  0  0  0  0  0  0  0  0  0  0
  -30.3100  -12.2880   19.4080 C   0  0  0  0  0  2  0  0  0  0  0  0
  -29.3940  -12.4850   18.1840 C   0  0  0  0  0  2  0  0  0  0  0  0
  -27.9120  -12.4060   18.5970 C   0  0  0  0  0  2  0  0  0  0  0  0
  -27.5690  -13.2450   19.8590 C   0  0  0  0  0  3  0  0  0  0  0  0
  -28.6270  -13.0660   20.9760 C   0  0  0  0  0  2  0  0  0  0  0  0
  -29.9500  -13.3200   20.3830 N   0  0  0  0  0  0  0  0  0  0  0  0
  -31.8250  -14.5650   20.0640 O   0  0  0  0  0  0  0  0  0  0  0  0
  -29.9700  -15.5810   20.7400 N   0  0  0  0  0  0  0  0  0  0  0  0
  -28.9940  -15.5010   20.9830 H   0  0  0  0  0  0  0  0  0  0  0  0
  -25.1650  -13.8350   20.5610 C   0  0  0  0  0  0  0  0  0  0  0  0
  -24.0980  -13.0610   20.9260 C   0  0  0  0  0  0  0  0  0  0  0  0
  -24.5640  -11.7110   20.8970 C   0  0  0  0  0  0  0  0  0  0  0  0
  -26.2160  -12.9610   20.3360 N   0  0  0  0  0  0  0  0  0  0  0  0
  -25.8570  -11.6780   20.5960 N   0  0  0  0  0  0  0  0  0  0  0  0
  -23.8360  -10.4450   21.0820 C   0  0  0  0  0  0  0  0  0  0  0  0
  -24.2770   -9.4660   22.0000 C   0  0  0  0  0  3  0  0  0  0  0  0
  -23.5540   -8.2670   22.1750 C   0  0  0  0  0  3  0  0  0  0  0  0
  -22.3750   -8.0340   21.4280 C   0  0  0  0  0  0  0  0  0  0  0  0
  -21.9490   -9.0010   20.4990 C   0  0  0  0  0  3  0  0  0  0  0  0
  -22.6760  -10.1910   20.3230 C   0  0  0  0  0  3  0  0  0  0  0  0
  -21.6180   -6.8880   21.5130 O   0  0  0  0  0  0  0  0  0  0  0  0
  -21.5920   -6.1250   22.6540 C   0  0  0  0  0  0  0  0  0  0  0  0
  -21.2090   -6.6610   23.9020 C   0  0  0  0  0  3  0  0  0  0  0  0
  -21.1370   -5.8250   25.0330 C   0  0  0  0  0  3  0  0  0  0  0  0
  -21.4320   -4.4530   24.9150 C   0  0  0  0  0  0  0  0  0  0  0  0
  -21.8030   -3.9150   23.6720 C   0  0  0  0  0  3  0  0  0  0  0  0
  -21.8830   -4.7480   22.5420 C   0  0  0  0  0  0  0  0  0  0  0  0
  -22.2230   -4.2230   21.3380 F   0  0  0  0  0  0  0  0  0  0  0  0
  -21.3510   -3.6460   25.9970 F   0  0  0  0  0  0  0  0  0  0  0  0
  -22.6990  -13.5310   21.1950 C   0  0  0  0  0  0  0  0  0  0  0  0
  -21.9710  -12.8320   22.0570 N   0  0  0  0  0  0  0  0  0  0  0  0
  -22.2630  -14.5590   20.6750 O   0  0  0  0  0  0  0  0  0  0  0  0
  -22.3340  -12.0040   22.5050 H   0  0  0  0  0  0  0  0  0  0  0  0
  -21.0330  -13.1390   22.2750 H   0  0  0  0  0  0  0  0  0  0  0  0
  -25.3270  -15.2060   20.3810 N   0  0  0  0  0  0  0  0  0  0  0  0
  -24.5570  -15.8580   20.4780 H   0  0  0  0  0  0  0  0  0  0  0  0
  -26.1730  -15.6400   20.0370 H   0  0  0  0  0  0  0  0  0  0  0  0
  -29.9650  -24.0580   15.5600 C   0  0  0  0  0  2  0  0  0  0  0  0
  -28.4920  -24.2180   16.0020 C   0  0  0  0  0  2  0  0  0  0  0  0
  -28.6780  -25.5530   18.0900 C   0  0  0  0  0  0  0  0  0  0  0  0
  -28.3730  -24.4210   17.4470 N   0  0  0  0  0  0  0  0  0  0  0  0
  -29.0230  -26.5770   17.4940 O   0  0  0  0  0  0  0  0  0  0  0  0
  -28.0830  -23.6290   18.0050 H   0  0  0  0  0  0  0  0  0  0  0  0
  -28.6010  -25.5230   19.6260 C   0  0  0  0  0  2  0  0  0  0  0  0
  -28.5150  -26.8470   20.1700 O   0  0  0  0  0  0  0  0  0  0  0  0
  -24.6160  -31.9120   23.2460 C   0  0  0  0  0  0  0  0  0  0  0  0
  -27.3020  -27.5060   20.1660 C   0  0  0  0  0  0  0  0  0  0  0  0
  -23.4220  -30.5000   21.6030 C   0  0  0  0  0  3  0  0  0  0  0  0
  -24.8870  -28.9770   20.1850 C   0  0  0  0  0  0  0  0  0  0  0  0
  -25.9420  -30.8870   21.4050 C   0  0  0  0  0  2  0  0  0  0  0  0
  -26.0380  -29.5160   20.7700 C   0  0  0  0  0  0  0  0  0  0  0  0
  -27.2460  -28.7860   20.7610 C   0  0  0  0  0  3  0  0  0  0  0  0
  -26.1230  -26.9710   19.5920 C   0  0  0  0  0  3  0  0  0  0  0  0
  -24.9220  -27.7030   19.5960 C   0  0  0  0  0  3  0  0  0  0  0  0
  -23.6360  -29.8220   20.2250 C   0  0  0  0  0  2  0  0  0  0  0  0
  -24.6780  -31.1140   22.1440 N   0  0  0  0  0  0  0  0  0  0  0  0
  -23.5320  -32.1770   23.7850 O   0  0  0  0  0  0  0  0  0  0  0  0
  -22.7810  -29.4730   22.5640 C   0  0  0  0  0  0  0  0  0  0  0  0
  -21.4600  -29.2700   22.4260 N   0  0  0  0  0  0  0  0  0  0  0  0
  -23.4670  -28.8590   23.3850 O   0  0  0  0  0  0  0  0  0  0  0  0
  -20.9660  -29.8170   21.7350 H   0  0  0  0  0  0  0  0  0  0  0  0
  -18.1030  -28.0190   22.8820 C   0  0  0  0  0  0  0  0  0  0  0  0
  -20.6500  -28.3240   23.1940 C   0  0  0  0  0  3  0  0  0  0  0  0
  -20.7890  -26.8900   22.6330 C   0  0  0  0  0  2  0  0  0  0  0  0
  -19.7100  -26.5380   21.6060 C   0  0  0  0  0  2  0  0  0  0  0  0
  -18.3160  -26.6640   22.2270 C   0  0  0  0  0  2  0  0  0  0  0  0
  -19.2000  -28.8050   23.3220 C   0  0  0  0  0  0  0  0  0  0  0  0
  -18.9500  -30.0720   23.8920 C   0  0  0  0  0  3  0  0  0  0  0  0
  -17.6340  -30.5530   24.0270 C   0  0  0  0  0  3  0  0  0  0  0  0
  -16.5510  -29.7650   23.6050 C   0  0  0  0  0  3  0  0  0  0  0  0
  -16.7860  -28.4990   23.0380 C   0  0  0  0  0  3  0  0  0  0  0  0
  -25.8970  -32.5530   23.8650 C   0  0  0  0  0  3  0  0  0  0  0  0
  -25.5780  -33.9470   24.1960 N   0  0  0  0  0  0  0  0  0  0  0  0
  -25.9030  -35.0010   23.4360 C   0  0  0  0  0  0  0  0  0  0  0  0
  -26.5740  -34.9020   22.4050 O   0  0  0  0  0  0  0  0  0  0  0  0
  -24.9810  -34.0980   24.9970 H   0  0  0  0  0  0  0  0  0  0  0  0
  -24.1590  -36.7770   23.0780 C   0  0  0  0  0  1  0  0  0  0  0  0
  -25.4030  -36.3860   23.8900 C   0  0  0  0  0  3  0  0  0  0  0  0
  -27.5270  -37.2940   24.7220 C   0  0  0  0  0  1  0  0  0  0  0  0
  -26.4290  -37.4460   23.7710 N   0  0  0  0  0  0  0  0  0  0  0  0
  -26.0160  -38.3650   23.9050 H   0  0  0  0  0  0  0  0  0  0  0  0
  -26.4250  -31.7820   25.1370 C   0  0  1  0  0  0  0  0  0  0  0  0
  -25.3370  -31.5290   26.2070 C   0  0  0  0  0  1  0  0  0  0  0  0
  -27.0190  -30.4120   24.7350 C   0  0  0  0  0  1  0  0  0  0  0  0
  -27.5700  -32.5860   25.7980 C   0  0  0  0  0  1  0  0  0  0  0  0
  1  5  1  0
  2  1  1  0
  2  4  1  0
  3  1  2  0
  6  5  1  0
  6  7  1  0
  8  7  1  0
  8  9  1  0
 10 12  1  0
 10  9  1  0
 11 13  2  0
 11 15  1  0
 12 11  1  0
 14 12  1  0
 15 24  1  0
 16 24  1  0
 17 22  1  0
 18 19  1  0
 18 17  1  0
 20 19  1  0
 20 29  1  0
 20 21  1  0
 22 16  1  0
 22 21  1  0
 23 16  2  0
 24 25  1  0
 26 27  2  0
 27 46  1  0
 28 27  1  0
 28 31  1  0
 29 26  1  0
 29 30  1  0
 30 28  2  0
 31 32  1  0
 32 33  2  0
 34 37  1  0
 34 33  1  0
 35 34  2  0
 36 35  1  0
 36 31  2  0
 37 38  1  0
 38 39  1  0
 39 40  2  0
 41 40  1  0
 41 45  1  0
 42 41  2  0
 43 38  2  0
 43 42  1  0
 44 43  1  0
 46 47  1  0
 47 50  1  0
 47 49  1  0
 48 46  2  0
 51 52  1  0
 51 26  1  0
 53 51  1  0
 54 55  1  0
 54  2  1  0
 55 57  1  0
 56 60  1  0
 57 59  1  0
 57 56  1  0
 58 56  2  0
 60 61  1  0
 62 73  2  0
 63 61  1  0
 63 68  1  0
 64 72  1  0
 64 74  1  0
 65 71  1  0
 65 67  1  0
 66 72  1  0
 67 66  1  0
 68 67  2  0
 69 70  1  0
 69 63  2  0
 70 65  2  0
 71 64  1  0
 72 62  1  0
 74 76  2  0
 75 74  1  0
 77 75  1  0
 78 87  2  0
 78 83  1  0
 79 75  1  0
 79 83  1  0
 80 79  1  0
 81 82  1  0
 81 80  1  0
 82 78  1  0
 83 84  2  0
 84 85  1  0
 86 85  2  0
 87 86  1  0
 88 62  1  0
 88 89  1  0
 88 98  1  0
 89 92  1  0
 90 94  1  0
 90 89  1  0
 91 90  2  0
 94 93  1  0
 96 94  1  0
 96 97  1  0
 96 95  1  0
 98101  1  1
 98 99  1  0
100 98  1  0
M  ISO  4  16 100  24 100  60 101  61 101
M  END
>  <TORSDO>  (43) 
F 28

>  <SCORE>  (43) 
-11.127

>  <name>  (43) 
48

>  <ligand_id>  (43) 
48

>  <original_smiles>  (43) 
[H]c1c([H])c([H])c2c(c1[H])C([H])([H])C([H])([H])C([H])([H])C2([H])N([H])C(=O)C1([H])N(C(=O)C([H])(N([H])C(=O)C([H])(N([H])C([H])([H])[H])C([H])([H])[H])C(C([H])([H])[H])(C([H])([H])[H])C([H])([H])[H])C([H])([H])c2c([H])c(OC([H])([H])C(=O)N([H])C([H])([H])C([H])([H])N([H])C(=O)C([H])([H])OC([H])([H])C([H])([H])C([H])([H])C([H])([H])N([H])C(=O)C([H])([H])N([H])C(=O)N3C([H])([H])C([H])([H])C([H])([H])C([H])(n4nc(-c5c([H])c([H])c(Oc6c([H])c([H])c(F)c([H])c6F)c([H])c5[H])c(C(=O)N([H])[H])c4N([H])[H])C3([H])[H])c([H])c([H])c2C1([H])[H]

>  <smiles>  (43) 
[H]c1c([H])c([H])c2c(c1[H])C([H])([H])C([H])([H])C([H])([H])C2([H])N([H])C(=O)C1([H])N(C(=O)C([H])(N([H])C(=O)C([H])(N([H])C([H])([H])[H])C([H])([H])[H])C(C([H])([H])[H])(C([H])([H])[H])C([H])([H])[H])C([H])([H])c2c([H])c(OC([H])([H])C(=O)N([H])C([H])([H])C([H])([H])N([H])C(=O)C([H])([H])OC([H])([H])C([H])([H])C([H])([H])C([H])([H])N([H])C(=O)C([H])([H])N([H])C(=O)N3C([H])([H])C([H])([H])C([H])([H])C([H])(n4nc(-c5c([H])c([H])c(Oc6c([H])c([H])c(F)c([H])c6F)c([H])c5[H])c(C(=O)N([H])[H])c4N([H])[H])C3([H])[H])c([H])c([H])c2C1([H])[H]

$$$$
49:0:0
     RDKit          3D

107114  0  0  1  0  0  0  0  0999 V2000
  -28.2940  -21.5090   22.6010 C   0  0  0  0  0  0  0  0  0  0  0  0
  -27.4150  -22.0390   21.7450 N   0  0  0  0  0  0  0  0  0  0  0  0
  -27.9700  -21.1430   23.7330 O   0  0  0  0  0  0  0  0  0  0  0  0
  -27.7350  -22.2580   20.8100 H   0  0  0  0  0  0  0  0  0  0  0  0
  -26.0720  -22.4830   22.0950 C   0  0  0  0  0  2  0  0  0  0  0  0
  -25.2960  -22.9800   20.8590 C   0  0  0  0  0  2  0  0  0  0  0  0
  -26.1110  -23.8310   19.8600 C   0  0  0  0  0  2  0  0  0  0  0  0
  -26.4240  -23.0990   18.5390 C   0  0  0  0  0  2  0  0  0  0  0  0
  -26.9760  -24.0130   17.4340 C   0  0  0  0  0  2  0  0  0  0  0  0
  -29.3940  -23.9000   16.8490 C   0  0  0  0  0  0  0  0  0  0  0  0
  -28.3850  -24.3730   17.6000 N   0  0  0  0  0  0  0  0  0  0  0  0
  -29.3190  -22.8380   16.2280 O   0  0  0  0  0  0  0  0  0  0  0  0
  -28.5570  -25.2540   18.0670 H   0  0  0  0  0  0  0  0  0  0  0  0
  -30.6270  -24.8170   16.6910 C   0  0  0  0  0  2  0  0  0  0  0  0
  -30.3580  -25.9070   15.7880 O   0  0  0  0  0  0  0  0  0  0  0  0
  -25.0740  -27.7420   20.1640 C   0  0  0  0  0  0  0  0  0  0  0  0
  -29.0940  -26.4280   15.9090 C   0  0  0  0  0  0  0  0  0  0  0  0
  -24.4740  -27.4760   17.7790 C   0  0  0  0  0  3  0  0  0  0  0  0
  -26.4330  -27.3040   16.1560 C   0  0  0  0  0  0  0  0  0  0  0  0
  -26.8350  -28.1810   18.4630 C   0  0  0  0  0  2  0  0  0  0  0  0
  -27.3340  -27.4940   17.2110 C   0  0  0  0  0  0  0  0  0  0  0  0
  -28.6680  -27.0480   17.1000 C   0  0  0  0  0  3  0  0  0  0  0  0
  -28.1920  -26.2820   14.8340 C   0  0  0  0  0  3  0  0  0  0  0  0
  -26.8540  -26.6910   14.9630 C   0  0  0  0  0  3  0  0  0  0  0  0
  -25.0200  -27.7970   16.3620 C   0  0  0  0  0  2  0  0  0  0  0  0
  -25.4670  -27.7770   18.8600 N   0  0  0  0  0  0  0  0  0  0  0  0
  -23.8970  -27.5030   20.4700 O   0  0  0  0  0  0  0  0  0  0  0  0
  -23.9750  -26.0130   17.7960 C   0  0  0  0  0  0  0  0  0  0  0  0
  -22.7680  -25.7900   17.2530 N   0  0  0  0  0  0  0  0  0  0  0  0
  -24.6760  -25.1110   18.2610 O   0  0  0  0  0  0  0  0  0  0  0  0
  -22.2550  -26.5840   16.8970 H   0  0  0  0  0  0  0  0  0  0  0  0
  -19.7220  -24.1630   16.1910 C   0  0  0  0  0  0  0  0  0  0  0  0
  -22.1090  -24.4890   17.1270 C   0  0  0  0  0  3  0  0  0  0  0  0
  -22.5950  -23.7380   15.8660 C   0  0  0  0  0  2  0  0  0  0  0  0
  -21.7130  -23.9850   14.6380 C   0  0  0  0  0  2  0  0  0  0  0  0
  -20.2730  -23.5460   14.9170 C   0  0  0  0  0  2  0  0  0  0  0  0
  -20.5850  -24.6210   17.2220 C   0  0  0  0  0  0  0  0  0  0  0  0
  -20.0250  -25.2220   18.3700 C   0  0  0  0  0  3  0  0  0  0  0  0
  -18.6310  -25.3640   18.5010 C   0  0  0  0  0  3  0  0  0  0  0  0
  -17.7790  -24.8910   17.4880 C   0  0  0  0  0  3  0  0  0  0  0  0
  -18.3240  -24.2910   16.3380 C   0  0  0  0  0  3  0  0  0  0  0  0
  -26.0760  -28.0190   21.3270 C   0  0  0  0  0  3  0  0  0  0  0  0
  -25.4740  -29.0410   22.1910 N   0  0  0  0  0  0  0  0  0  0  0  0
  -25.7920  -30.3430   22.1630 C   0  0  0  0  0  0  0  0  0  0  0  0
  -26.6840  -30.8000   21.4430 O   0  0  0  0  0  0  0  0  0  0  0  0
  -24.6980  -28.7470   22.7640 H   0  0  0  0  0  0  0  0  0  0  0  0
  -23.9100  -32.0120   22.2510 C   0  0  0  0  0  1  0  0  0  0  0  0
  -24.9880  -31.2880   23.0760 C   0  0  0  0  0  3  0  0  0  0  0  0
  -26.6940  -31.6930   24.7960 C   0  0  0  0  0  1  0  0  0  0  0  0
  -25.8290  -32.2820   23.7780 N   0  0  0  0  0  0  0  0  0  0  0  0
  -25.2530  -32.9920   24.2240 H   0  0  0  0  0  0  0  0  0  0  0  0
  -26.4430  -26.7270   22.1550 C   0  0  1  0  0  0  0  0  0  0  0  0
  -25.2080  -25.9370   22.6480 C   0  0  0  0  0  1  0  0  0  0  0  0
  -27.3100  -25.7640   21.3110 C   0  0  0  0  0  1  0  0  0  0  0  0
  -27.2850  -27.1160   23.3920 C   0  0  0  0  0  1  0  0  0  0  0  0
  -29.7690  -21.5180   22.1680 C   0  0  0  0  0  3  0  0  0  0  0  0
  -30.8630  -22.5510   24.1820 C   0  0  0  0  0  0  0  0  0  0  0  0
  -31.6440  -22.3610   25.2390 N   0  0  0  0  0  0  0  0  0  0  0  0
  -30.3200  -23.7550   24.0070 N   0  0  0  0  0  4  0  0  0  0  0  0
  -30.6640  -21.5350   23.3320 N   0  0  0  0  0  0  0  0  0  0  0  0
  -31.8430  -23.0900   25.9060 H   0  0  0  0  0  0  0  0  0  0  0  0
  -32.0760  -21.4660   25.4240 H   0  0  0  0  0  0  0  0  0  0  0  0
  -30.4410  -24.4900   24.6890 H   0  0  0  0  0  0  0  0  0  0  0  0
  -29.7200  -23.9580   23.2250 H   0  0  0  0  0  0  0  0  0  0  0  0
  -31.0390  -20.6300   23.5690 H   0  0  0  0  0  0  0  0  0  0  0  0
  -30.1420  -20.3640   21.2070 C   0  0  0  0  0  2  0  0  0  0  0  0
  -31.0050  -19.2430   21.8230 C   0  0  0  0  0  2  0  0  0  0  0  0
  -31.0940  -18.0010   20.9260 C   0  0  0  0  0  2  0  0  0  0  0  0
  -32.1900  -17.0220   21.3790 C   0  0  0  0  0  2  0  0  0  0  0  0
  -32.1660  -14.8450   20.1140 C   0  0  0  0  0  0  0  0  0  0  0  0
  -31.6670  -12.6970   19.0030 C   0  0  0  0  0  2  0  0  0  0  0  0
  -30.6770  -12.8830   17.8370 C   0  0  0  0  0  2  0  0  0  0  0  0
  -29.2180  -12.8610   18.3360 C   0  0  0  0  0  2  0  0  0  0  0  0
  -28.9900  -13.8110   19.5390 C   0  0  0  0  0  3  0  0  0  0  0  0
  -30.0620  -13.5580   20.6180 C   0  0  0  0  0  2  0  0  0  0  0  0
  -31.3980  -13.7310   20.0080 N   0  0  0  0  0  0  0  0  0  0  0  0
  -33.1430  -15.0860   19.3950 O   0  0  0  0  0  0  0  0  0  0  0  0
  -31.7780  -15.6570   21.1010 N   0  0  0  0  0  0  0  0  0  0  0  0
  -31.0240  -15.2990   21.6700 H   0  0  0  0  0  0  0  0  0  0  0  0
  -26.7370  -14.6600   20.4690 C   0  0  0  0  0  0  0  0  0  0  0  0
  -25.5980  -14.0000   20.8470 C   0  0  0  0  0  0  0  0  0  0  0  0
  -25.8690  -12.6090   20.6640 C   0  0  0  0  0  0  0  0  0  0  0  0
  -27.6390  -13.6760   20.0850 N   0  0  0  0  0  0  0  0  0  0  0  0
  -27.1190  -12.4330   20.2550 N   0  0  0  0  0  0  0  0  0  0  0  0
  -24.9970  -11.4360   20.8000 C   0  0  0  0  0  0  0  0  0  0  0  0
  -25.2780  -10.4070   21.7260 C   0  0  0  0  0  3  0  0  0  0  0  0
  -24.4140   -9.2970   21.8460 C   0  0  0  0  0  3  0  0  0  0  0  0
  -23.2530   -9.2120   21.0420 C   0  0  0  0  0  0  0  0  0  0  0  0
  -22.9910  -10.2280   20.1070 C   0  0  0  0  0  3  0  0  0  0  0  0
  -23.8540  -11.3290   19.9830 C   0  0  0  0  0  3  0  0  0  0  0  0
  -22.3700   -8.1600   21.0740 O   0  0  0  0  0  0  0  0  0  0  0  0
  -22.0180   -7.5500   22.2520 C   0  0  0  0  0  0  0  0  0  0  0  0
  -21.3970   -8.2600   23.3040 C   0  0  0  0  0  3  0  0  0  0  0  0
  -20.9920   -7.5790   24.4690 C   0  0  0  0  0  3  0  0  0  0  0  0
  -21.1920   -6.1890   24.5810 C   0  0  0  0  0  0  0  0  0  0  0  0
  -21.8030   -5.4810   23.5330 C   0  0  0  0  0  3  0  0  0  0  0  0
  -22.2140   -6.1590   22.3710 C   0  0  0  0  0  0  0  0  0  0  0  0
  -22.7840   -5.4660   21.3560 F   0  0  0  0  0  0  0  0  0  0  0  0
  -20.7950   -5.5350   25.6970 F   0  0  0  0  0  0  0  0  0  0  0  0
  -24.2960  -14.6230   21.2630 C   0  0  0  0  0  0  0  0  0  0  0  0
  -23.5350  -13.9510   22.1190 N   0  0  0  0  0  0  0  0  0  0  0  0
  -23.9670  -15.7380   20.8620 O   0  0  0  0  0  0  0  0  0  0  0  0
  -23.8140  -13.0470   22.4710 H   0  0  0  0  0  0  0  0  0  0  0  0
  -22.6600  -14.3520   22.4310 H   0  0  0  0  0  0  0  0  0  0  0  0
  -27.0740  -16.0090   20.4020 N   0  0  0  0  0  0  0  0  0  0  0  0
  -26.4090  -16.7450   20.6130 H   0  0  0  0  0  0  0  0  0  0  0  0
  -27.9560  -16.3620   20.0490 H   0  0  0  0  0  0  0  0  0  0  0  0
  1  3  2  0
  2  5  1  0
  2  1  1  0
  4  2  1  0
  6  5  1  0
  7  6  1  0
  8  7  1  0
  9 11  1  0
  9  8  1  0
 10 11  1  0
 11 13  1  0
 12 10  2  0
 14 10  1  0
 15 17  1  0
 15 14  1  0
 16 27  2  0
 17 22  1  0
 18 28  1  0
 18 26  1  0
 19 25  1  0
 19 21  1  0
 20 26  1  0
 21 20  1  0
 22 21  2  0
 23 24  1  0
 23 17  2  0
 24 19  2  0
 25 18  1  0
 26 16  1  0
 28 30  2  0
 29 28  1  0
 31 29  1  0
 32 41  2  0
 32 37  1  0
 33 37  1  0
 33 29  1  0
 34 33  1  0
 35 36  1  0
 35 34  1  0
 36 32  1  0
 37 38  2  0
 38 39  1  0
 40 39  2  0
 41 40  1  0
 42 16  1  0
 42 52  1  0
 42 43  1  0
 43 46  1  0
 44 43  1  0
 44 48  1  0
 45 44  2  0
 48 47  1  0
 48 50  1  0
 50 51  1  0
 50 49  1  0
 52 53  1  1
 52 55  1  0
 54 52  1  0
 56 66  1  0
 56  1  1  0
 56 60  1  0
 57 58  1  0
 58 62  1  0
 58 61  1  0
 59 57  2  0
 59 63  1  0
 60 65  1  0
 60 57  1  0
 64 59  1  0
 66 67  1  0
 68 69  1  0
 68 67  1  0
 70 78  1  0
 71 76  1  0
 72 73  1  0
 72 71  1  0
 74 73  1  0
 74 83  1  0
 74 75  1  0
 76 70  1  0
 76 75  1  0
 77 70  2  0
 78 69  1  0
 78 79  1  0
 80 81  2  0
 81100  1  0
 82 85  1  0
 82 81  1  0
 83 84  1  0
 83 80  1  0
 84 82  2  0
 85 86  1  0
 86 87  2  0
 88 91  1  0
 88 87  1  0
 89 88  2  0
 90 89  1  0
 90 85  2  0
 91 92  1  0
 92 97  2  0
 92 93  1  0
 93 94  2  0
 94 95  1  0
 95 99  1  0
 96 95  2  0
 97 96  1  0
 98 97  1  0
100101  1  0
101104  1  0
101103  1  0
102100  2  0
105 80  1  0
105106  1  0
107105  1  0
M  ISO  4  14 101  15 101  70 100  78 100
M  END
>  <TORSDO>  (44) 
F 29

>  <SCORE>  (44) 
-0.442

>  <name>  (44) 
49

>  <ligand_id>  (44) 
49

>  <original_smiles>  (44) 
[H]c1c([H])c([H])c2c(c1[H])C([H])([H])C([H])([H])C([H])([H])C2([H])N([H])C(=O)C1([H])N(C(=O)C([H])(N([H])C(=O)C([H])(N([H])C([H])([H])[H])C([H])([H])[H])C(C([H])([H])[H])(C([H])([H])[H])C([H])([H])[H])C([H])([H])c2c([H])c(OC([H])([H])C(=O)N([H])C([H])([H])C([H])([H])C([H])([H])C([H])([H])C([H])([H])N([H])C(=O)C([H])(N([H])C(N([H])[H])=[N+]([H])[H])C([H])([H])C([H])([H])C([H])([H])C([H])([H])N([H])C(=O)N3C([H])([H])C([H])([H])C([H])([H])C([H])(n4nc(-c5c([H])c([H])c(Oc6c([H])c([H])c(F)c([H])c6F)c([H])c5[H])c(C(=O)N([H])[H])c4N([H])[H])C3([H])[H])c([H])c([H])c2C1([H])[H]

>  <smiles>  (44) 
[H]c1c([H])c([H])c2c(c1[H])C([H])([H])C([H])([H])C([H])([H])C2([H])N([H])C(=O)C1([H])N(C(=O)C([H])(N([H])C(=O)C([H])(N([H])C([H])([H])[H])C([H])([H])[H])C(C([H])([H])[H])(C([H])([H])[H])C([H])([H])[H])C([H])([H])c2c([H])c(OC([H])([H])C(=O)N([H])C([H])([H])C([H])([H])C([H])([H])C([H])([H])C([H])([H])N([H])C(=O)C([H])(N([H])C(N([H])[H])=[N+]([H])[H])C([H])([H])C([H])([H])C([H])([H])C([H])([H])N([H])C(=O)N3C([H])([H])C([H])([H])C([H])([H])C([H])(n4nc(-c5c([H])c([H])c(Oc6c([H])c([H])c(F)c([H])c6F)c([H])c5[H])c(C(=O)N([H])[H])c4N([H])[H])C3([H])[H])c([H])c([H])c2C1([H])[H]

$$$$
50:0:0
     RDKit          3D

104109  0  0  1  0  0  0  0  0999 V2000
  -24.9130  -25.4710   16.8740 C   0  0  0  0  0  2  0  0  0  0  0  0
  -24.4940  -26.9950   17.0720 C   0  0  0  0  0  2  0  0  0  0  0  0
  -25.3220  -28.1800   17.8160 C   0  0  0  0  0  2  0  0  0  0  0  0
  -25.7890  -27.4080   21.6020 C   0  0  0  0  0  2  0  0  0  0  0  0
  -25.9690  -28.1520   19.2350 N   0  0  0  0  0  2  0  0  0  0  0  0
  -24.8220  -26.9530   22.2540 O   0  0  0  0  0  1  0  0  0  0  0  0
  -26.8430  -28.6510   19.2140 H   0  0  0  0  0  0  0  0  0  0  0  0
  -26.9640  -27.2270   22.7340 C   0  0  0  0  0  2  0  0  0  0  0  0
  -27.4580  -25.8950   23.0110 O   0  0  0  0  0  0  0  0  0  0  0  0
  -26.9070  -24.7070   22.4320 C   0  0  0  0  0  2  0  0  0  0  0  0
  -27.7580  -23.9990   21.3460 C   0  0  0  0  0  3  0  0  0  0  0  0
  -28.6540  -24.7790   20.3440 C   0  0  0  0  0  3  0  0  0  0  0  0
  -28.6580  -26.1940   20.3060 O   0  0  0  0  0  0  0  0  0  0  0  0
  -24.5040  -31.8480   23.2490 C   0  0  0  0  0  0  0  0  0  0  0  0
  -27.5030  -26.8230   20.0970 C   0  0  0  0  0  3  0  0  0  0  0  0
  -23.1410  -30.4850   21.7240 C   0  0  0  0  0  3  0  0  0  0  0  0
  -24.1880  -28.7970   20.3510 C   0  0  0  0  0  0  0  0  0  0  0  0
  -25.6870  -30.9850   21.2760 C   0  0  0  0  0  2  0  0  0  0  0  0
  -25.8290  -29.6780   20.6240 C   0  0  0  0  0  3  0  0  0  0  0  0
  -27.5030  -28.7500   20.4610 C   0  0  0  0  0  3  0  0  0  0  0  0
  -25.7900  -25.8800   19.8520 C   0  0  0  0  0  1  0  0  0  0  0  0
  -24.1140  -26.8940   19.9800 C   0  0  0  0  0  3  0  0  0  0  0  0
  -23.0970  -29.7790   20.3540 C   0  0  0  0  0  2  0  0  0  0  0  0
  -24.4810  -31.0660   22.1390 N   0  0  0  0  0  0  0  0  0  0  0  0
  -23.4550  -32.1520   23.8270 O   0  0  0  0  0  0  0  0  0  0  0  0
  -22.5090  -29.5020   22.7370 C   0  0  0  0  0  0  0  0  0  0  0  0
  -21.2110  -29.2510   22.5430 N   0  0  0  0  0  0  0  0  0  0  0  0
  -23.1640  -28.9870   23.6440 O   0  0  0  0  0  0  0  0  0  0  0  0
  -20.7440  -29.7310   21.7950 H   0  0  0  0  0  0  0  0  0  0  0  0
  -17.8530  -28.0460   22.9450 C   0  0  0  0  0  0  0  0  0  0  0  0
  -20.3840  -28.3360   23.3280 C   0  0  0  0  0  3  0  0  0  0  0  0
  -20.5440  -26.8860   22.8270 C   0  0  0  0  0  2  0  0  0  0  0  0
  -19.4880  -26.4740   21.7910 C   0  0  0  0  0  2  0  0  0  0  0  0
  -18.0680  -26.6680   22.3420 C   0  0  0  0  0  2  0  0  0  0  0  0
  -18.9380  -28.8380   23.3870 C   0  0  0  0  0  0  0  0  0  0  0  0
  -18.6900  -30.1340   23.8790 C   0  0  0  0  0  3  0  0  0  0  0  0
  -17.3810  -30.6340   23.9610 C   0  0  0  0  0  3  0  0  0  0  0  0
  -16.2970  -29.8340   23.5490 C   0  0  0  0  0  3  0  0  0  0  0  0
  -16.5340  -28.5410   23.0370 C   0  0  0  0  0  3  0  0  0  0  0  0
  -25.8220  -32.4360   23.8330 C   0  0  0  0  0  3  0  0  0  0  0  0
  -26.3560  -31.6420   25.0750 C   0  0  1  0  0  0  0  0  0  0  0  0
  -25.2960  -31.3910   26.1740 C   0  0  0  0  0  1  0  0  0  0  0  0
  -26.8800  -30.2720   24.6270 C   0  0  0  0  0  1  0  0  0  0  0  0
  -27.5580  -32.3880   25.6970 C   0  0  0  0  0  1  0  0  0  0  0  0
  -25.5570  -33.8330   24.1800 N   0  0  0  0  0  0  0  0  0  0  0  0
  -25.8800  -34.8750   23.4050 C   0  0  0  0  0  0  0  0  0  0  0  0
  -26.5090  -34.7590   22.3500 O   0  0  0  0  0  0  0  0  0  0  0  0
  -25.0040  -33.9930   25.0120 H   0  0  0  0  0  0  0  0  0  0  0  0
  -24.1770  -36.6900   23.0930 C   0  0  0  0  0  1  0  0  0  0  0  0
  -25.4300  -36.2750   23.8780 C   0  0  0  0  0  3  0  0  0  0  0  0
  -27.6060  -37.0990   24.6460 C   0  0  0  0  0  1  0  0  0  0  0  0
  -26.4840  -37.3000   23.7370 N   0  0  0  0  0  0  0  0  0  0  0  0
  -26.1110  -38.2350   23.8900 H   0  0  0  0  0  0  0  0  0  0  0  0
  -23.9370  -24.3580   17.4280 C   0  0  0  0  0  2  0  0  0  0  0  0
  -24.3830  -22.8940   17.1270 C   0  0  0  0  0  2  0  0  0  0  0  0
  -26.0780  -21.2320   17.8960 C   0  0  0  0  0  0  0  0  0  0  0  0
  -25.4100  -22.3900   18.0490 N   0  0  0  0  0  0  0  0  0  0  0  0
  -25.9670  -20.5040   16.9060 O   0  0  0  0  0  0  0  0  0  0  0  0
  -25.5420  -22.8300   18.9450 H   0  0  0  0  0  0  0  0  0  0  0  0
  -26.9530  -20.8300   19.1270 C   0  0  0  0  0  0  0  0  0  0  0  0
  -28.0590  -20.0780   18.9220 N   0  0  0  0  0  0  0  0  0  0  0  0
  -26.6950  -21.3140   20.2310 O   0  0  0  0  0  0  0  0  0  0  0  0
  -28.8480  -20.6380   18.6560 H   0  0  0  0  0  0  0  0  0  0  0  0
  -28.1360  -18.6200   18.6630 C   0  0  0  0  0  2  0  0  0  0  0  0
  -29.0560  -17.8220   19.6600 C   0  0  0  0  0  2  0  0  0  0  0  0
  -29.9240  -16.6110   19.2050 C   0  0  0  0  0  2  0  0  0  0  0  0
  -30.9810  -14.5560   20.2120 C   0  0  0  0  0  0  0  0  0  0  0  0
  -30.7200  -12.2800   19.3060 C   0  0  0  0  0  2  0  0  0  0  0  0
  -29.8020  -12.4400   18.0760 C   0  0  0  0  0  2  0  0  0  0  0  0
  -28.3290  -12.3570   18.5160 C   0  0  0  0  0  2  0  0  0  0  0  0
  -27.9890  -13.3100   19.6940 C   0  0  0  0  0  3  0  0  0  0  0  0
  -29.0100  -13.1790   20.8480 C   0  0  0  0  0  2  0  0  0  0  0  0
  -30.3570  -13.3490   20.2720 N   0  0  0  0  0  0  0  0  0  0  0  0
  -32.1690  -14.6880   19.8920 O   0  0  0  0  0  0  0  0  0  0  0  0
  -30.1140  -15.5970   20.2770 N   0  0  0  0  0  0  0  0  0  0  0  0
  -29.2410  -15.3060   20.7010 H   0  0  0  0  0  0  0  0  0  0  0  0
  -25.6330  -14.0760   20.3820 C   0  0  0  0  0  0  0  0  0  0  0  0
  -24.5200  -13.3670   20.7470 C   0  0  0  0  0  0  0  0  0  0  0  0
  -24.9080  -11.9900   20.7430 C   0  0  0  0  0  0  0  0  0  0  0  0
  -26.6220  -13.1290   20.1580 N   0  0  0  0  0  0  0  0  0  0  0  0
  -26.1930  -11.8760   20.4430 N   0  0  0  0  0  0  0  0  0  0  0  0
  -24.1210  -10.7720   20.9390 C   0  0  0  0  0  0  0  0  0  0  0  0
  -24.4920   -9.7890   21.8860 C   0  0  0  0  0  3  0  0  0  0  0  0
  -23.6970   -8.6350   22.0700 C   0  0  0  0  0  3  0  0  0  0  0  0
  -22.5160   -8.4590   21.3050 C   0  0  0  0  0  0  0  0  0  0  0  0
  -22.1660   -9.4300   20.3470 C   0  0  0  0  0  3  0  0  0  0  0  0
  -22.9630  -10.5730   20.1640 C   0  0  0  0  0  3  0  0  0  0  0  0
  -21.6990   -7.3570   21.3960 O   0  0  0  0  0  0  0  0  0  0  0  0
  -21.5960   -6.6310   22.5580 C   0  0  0  0  0  0  0  0  0  0  0  0
  -21.1990   -7.2250   23.7770 C   0  0  0  0  0  3  0  0  0  0  0  0
  -21.0400   -6.4280   24.9270 C   0  0  0  0  0  3  0  0  0  0  0  0
  -21.2650   -5.0400   24.8610 C   0  0  0  0  0  0  0  0  0  0  0  0
  -21.6530   -4.4470   23.6470 C   0  0  0  0  0  3  0  0  0  0  0  0
  -21.8150   -5.2410   22.4980 C   0  0  0  0  0  0  0  0  0  0  0  0
  -22.1660   -4.6590   21.3260 F   0  0  0  0  0  0  0  0  0  0  0  0
  -21.1050   -4.2730   25.9640 F   0  0  0  0  0  0  0  0  0  0  0  0
  -23.1470  -13.9240   20.9930 C   0  0  0  0  0  0  0  0  0  0  0  0
  -22.3790  -13.2920   21.8690 N   0  0  0  0  0  0  0  0  0  0  0  0
  -22.7680  -14.9610   20.4520 O   0  0  0  0  0  0  0  0  0  0  0  0
  -22.7000  -12.4550   22.3400 H   0  0  0  0  0  0  0  0  0  0  0  0
  -21.4530  -13.6420   22.0670 H   0  0  0  0  0  0  0  0  0  0  0  0
  -25.8730  -15.4370   20.1790 N   0  0  0  0  0  0  0  0  0  0  0  0
  -25.1260  -16.1130   20.2670 H   0  0  0  0  0  0  0  0  0  0  0  0
  -26.7310  -15.8410   19.8310 H   0  0  0  0  0  0  0  0  0  0  0  0
  1  2  1  0
  1 54  1  0
  2  3  1  0
  3  5  1  0
  4  6  1  0
  4  8  1  0
  7  5  1  0
  8  9  1  0
 10  9  1  0
 11 10  1  0
 12 11  2  0
 13 12  1  0
 14 25  2  0
 15 13  1  0
 15 20  2  0
 16 24  1  0
 16 26  1  0
 17 23  1  0
 17 19  1  0
 18 24  1  0
 19 20  1  0
 19 18  1  0
 21 22  1  0
 22 17  2  0
 23 16  1  0
 24 14  1  0
 26 28  2  0
 27 26  1  0
 29 27  1  0
 30 39  2  0
 30 35  1  0
 31 27  1  0
 31 35  1  0
 32 31  1  0
 33 34  1  0
 33 32  1  0
 34 30  1  0
 35 36  2  0
 36 37  1  0
 38 37  2  0
 39 38  1  0
 40 14  1  0
 40 45  1  0
 40 41  1  0
 41 44  1  1
 41 42  1  0
 43 41  1  0
 45 48  1  0
 46 50  1  0
 46 45  1  0
 47 46  2  0
 50 49  1  0
 52 50  1  0
 52 53  1  0
 52 51  1  0
 55 54  1  0
 55 57  1  0
 56 57  1  0
 56 60  1  0
 57 59  1  0
 58 56  2  0
 60 62  2  0
 61 60  1  0
 63 61  1  0
 64 61  1  0
 64 65  1  0
 66 65  1  0
 66 75  1  0
 67 73  1  0
 67 75  1  0
 68 73  1  0
 69 70  1  0
 69 68  1  0
 71 70  1  0
 71 80  1  0
 71 72  1  0
 73 72  1  0
 74 67  2  0
 75 76  1  0
 77 78  2  0
 78 97  1  0
 79 78  1  0
 79 82  1  0
 80 77  1  0
 80 81  1  0
 81 79  2  0
 82 83  1  0
 83 84  2  0
 85 88  1  0
 85 84  1  0
 86 85  2  0
 87 86  1  0
 87 82  2  0
 88 89  1  0
 89 90  1  0
 90 91  2  0
 92 91  1  0
 92 96  1  0
 93 92  2  0
 94 89  2  0
 94 93  1  0
 95 94  1  0
 97 98  1  0
 98101  1  0
 98100  1  0
 99 97  2  0
102103  1  0
102 77  1  0
104102  1  0
M  ISO  4  12 101  13 101  67 100  75 100
M  END
>  <TORSDO>  (45) 
F 31

>  <SCORE>  (45) 
-10.404

>  <name>  (45) 
50

>  <ligand_id>  (45) 
50

>  <original_smiles>  (45) 
[H]c1c([H])c([H])c2c(c1[H])C([H])([H])C([H])([H])C([H])([H])C2([H])N([H])C(=O)C1([H])N(C(=O)C([H])(N([H])C(=O)C([H])(N([H])C([H])([H])[H])C([H])([H])[H])C(C([H])([H])[H])(C([H])([H])[H])C([H])([H])[H])C([H])([H])c2c([H])c(OC([H])([H])C([H])([H])C([H])([H])OC([H])([H])C(=O)N([H])C([H])([H])C([H])([H])C([H])([H])C([H])([H])C([H])([H])N([H])C(=O)C(=O)N([H])C([H])([H])C([H])([H])C([H])([H])N([H])C(=O)N3C([H])([H])C([H])([H])C([H])([H])C([H])(n4nc(-c5c([H])c([H])c(Oc6c([H])c([H])c(F)c([H])c6F)c([H])c5[H])c(C(=O)N([H])[H])c4N([H])[H])C3([H])[H])c([H])c([H])c2C1([H])[H]

>  <smiles>  (45) 
[H]c1c([H])c([H])c2c(c1[H])C([H])([H])C([H])([H])C([H])([H])C2([H])N([H])C(=O)C1([H])N(C(=O)C([H])(N([H])C(=O)C([H])(N([H])C([H])([H])[H])C([H])([H])[H])C(C([H])([H])[H])(C([H])([H])[H])C([H])([H])[H])C([H])([H])c2c([H])c(OC([H])([H])C([H])([H])C([H])([H])OC([H])([H])C(=O)N([H])C([H])([H])C([H])([H])C([H])([H])C([H])([H])C([H])([H])N([H])C(=O)C(=O)N([H])C([H])([H])C([H])([H])C([H])([H])N([H])C(=O)N3C([H])([H])C([H])([H])C([H])([H])C([H])(n4nc(-c5c([H])c([H])c(Oc6c([H])c([H])c(F)c([H])c6F)c([H])c5[H])c(C(=O)N([H])[H])c4N([H])[H])C3([H])[H])c([H])c([H])c2C1([H])[H]

$$$$
51:0:0
     RDKit          3D

 95102  0  0  1  0  0  0  0  0999 V2000
  -31.0360  -23.2460   18.4290 C   0  0  0  0  0  2  0  0  0  0  0  0
  -29.8210  -22.4810   18.9830 C   0  0  0  0  0  2  0  0  0  0  0  0
  -29.2830  -21.4420   17.9860 C   0  0  0  0  0  2  0  0  0  0  0  0
  -28.1770  -20.5390   18.5670 C   0  0  0  0  0  2  0  0  0  0  0  0
  -29.3590  -18.5540   19.4890 C   0  0  0  0  0  0  0  0  0  0  0  0
  -28.6670  -19.6890   19.6510 N   0  0  0  0  0  0  0  0  0  0  0  0
  -29.6840  -18.1310   18.3760 O   0  0  0  0  0  0  0  0  0  0  0  0
  -28.4330  -19.9690   20.5960 H   0  0  0  0  0  0  0  0  0  0  0  0
  -29.7590  -17.7740   20.7500 C   0  0  0  0  0  2  0  0  0  0  0  0
  -29.1830  -16.3370   20.7740 C   0  0  0  0  0  2  0  0  0  0  0  0
  -30.6850  -14.4330   20.5860 C   0  0  0  0  0  0  0  0  0  0  0  0
  -30.3450  -12.3320   19.3430 C   0  0  0  0  0  2  0  0  0  0  0  0
  -29.4000  -12.5580   18.1470 C   0  0  0  0  0  2  0  0  0  0  0  0
  -27.9270  -12.4160   18.5710 C   0  0  0  0  0  2  0  0  0  0  0  0
  -27.5930  -13.2410   19.8420 C   0  0  0  0  0  3  0  0  0  0  0  0
  -28.6440  -12.9950   20.9490 C   0  0  0  0  0  2  0  0  0  0  0  0
  -29.9750  -13.2920   20.3930 N   0  0  0  0  0  0  0  0  0  0  0  0
  -31.7820  -14.6550   20.0690 O   0  0  0  0  0  0  0  0  0  0  0  0
  -30.1140  -15.3630   21.3590 N   0  0  0  0  0  0  0  0  0  0  0  0
  -30.7950  -15.8280   21.9410 H   0  0  0  0  0  0  0  0  0  0  0  0
  -25.1900  -13.8720   20.5150 C   0  0  0  0  0  0  0  0  0  0  0  0
  -24.1190  -13.1050   20.8840 C   0  0  0  0  0  0  0  0  0  0  0  0
  -24.5770  -11.7520   20.8710 C   0  0  0  0  0  0  0  0  0  0  0  0
  -26.2360  -12.9830   20.3090 N   0  0  0  0  0  0  0  0  0  0  0  0
  -25.8690  -11.7050   20.5800 N   0  0  0  0  0  0  0  0  0  0  0  0
  -23.8460  -10.4950   21.0630 C   0  0  0  0  0  0  0  0  0  0  0  0
  -24.2850   -9.5250   21.9900 C   0  0  0  0  0  3  0  0  0  0  0  0
  -23.5580   -8.3290   22.1730 C   0  0  0  0  0  3  0  0  0  0  0  0
  -22.3780   -8.0960   21.4290 C   0  0  0  0  0  0  0  0  0  0  0  0
  -21.9600   -9.0550   20.4880 C   0  0  0  0  0  3  0  0  0  0  0  0
  -22.6880  -10.2410   20.3040 C   0  0  0  0  0  3  0  0  0  0  0  0
  -21.6210   -6.9530   21.5210 O   0  0  0  0  0  0  0  0  0  0  0  0
  -21.5950   -6.1970   22.6650 C   0  0  0  0  0  0  0  0  0  0  0  0
  -21.2090   -6.7400   23.9100 C   0  0  0  0  0  3  0  0  0  0  0  0
  -21.1320   -5.9090   25.0460 C   0  0  0  0  0  3  0  0  0  0  0  0
  -21.4300   -4.5380   24.9380 C   0  0  0  0  0  0  0  0  0  0  0  0
  -21.8100   -3.9940   23.6980 C   0  0  0  0  0  3  0  0  0  0  0  0
  -21.8890   -4.8230   22.5650 C   0  0  0  0  0  0  0  0  0  0  0  0
  -22.2330   -4.2900   21.3680 F   0  0  0  0  0  0  0  0  0  0  0  0
  -21.3470   -3.7370   26.0270 F   0  0  0  0  0  0  0  0  0  0  0  0
  -22.7190  -13.5860   21.1360 C   0  0  0  0  0  0  0  0  0  0  0  0
  -21.9820  -12.9010   22.0020 N   0  0  0  0  0  0  0  0  0  0  0  0
  -22.2870  -14.6050   20.5960 O   0  0  0  0  0  0  0  0  0  0  0  0
  -22.3450  -12.0810   22.4670 H   0  0  0  0  0  0  0  0  0  0  0  0
  -21.0410  -13.2070   22.2090 H   0  0  0  0  0  0  0  0  0  0  0  0
  -25.3530  -15.2400   20.3160 N   0  0  0  0  0  0  0  0  0  0  0  0
  -24.5720  -15.8820   20.3930 H   0  0  0  0  0  0  0  0  0  0  0  0
  -26.1930  -15.6770   19.9610 H   0  0  0  0  0  0  0  0  0  0  0  0
  -31.5970  -24.2910   19.4040 C   0  0  0  0  0  2  0  0  0  0  0  0
  -30.7590  -26.3130   20.5700 C   0  0  0  0  0  0  0  0  0  0  0  0
  -30.6030  -25.3110   19.7020 N   0  0  0  0  0  0  0  0  0  0  0  0
  -31.8060  -26.4920   21.1990 O   0  0  0  0  0  0  0  0  0  0  0  0
  -29.7040  -25.2570   19.2430 H   0  0  0  0  0  0  0  0  0  0  0  0
  -29.5690  -27.2550   20.7580 C   0  0  0  0  0  2  0  0  0  0  0  0
  -28.4000  -26.7150   20.1240 O   0  0  0  0  0  0  0  0  0  0  0  0
  -24.6080  -31.8840   23.2480 C   0  0  0  0  0  0  0  0  0  0  0  0
  -27.2460  -27.4660   20.1810 C   0  0  0  0  0  0  0  0  0  0  0  0
  -23.3800  -30.4810   21.6140 C   0  0  0  0  0  3  0  0  0  0  0  0
  -24.8220  -28.9290   20.1910 C   0  0  0  0  0  0  0  0  0  0  0  0
  -25.8960  -30.8480   21.3890 C   0  0  0  0  0  2  0  0  0  0  0  0
  -25.9740  -29.4700   20.7710 C   0  0  0  0  0  0  0  0  0  0  0  0
  -27.1800  -28.7490   20.7750 C   0  0  0  0  0  3  0  0  0  0  0  0
  -26.0770  -26.9270   19.6030 C   0  0  0  0  0  3  0  0  0  0  0  0
  -24.8640  -27.6490   19.6070 C   0  0  0  0  0  3  0  0  0  0  0  0
  -23.5750  -29.7860   20.2380 C   0  0  0  0  0  2  0  0  0  0  0  0
  -24.6470  -31.0850   22.1440 N   0  0  0  0  0  0  0  0  0  0  0  0
  -23.5340  -32.1630   23.7980 O   0  0  0  0  0  0  0  0  0  0  0  0
  -22.7350  -29.4680   22.5850 C   0  0  0  0  0  0  0  0  0  0  0  0
  -21.4110  -29.2850   22.4590 N   0  0  0  0  0  0  0  0  0  0  0  0
  -23.4200  -28.8490   23.4030 O   0  0  0  0  0  0  0  0  0  0  0  0
  -20.9200  -29.8390   21.7700 H   0  0  0  0  0  0  0  0  0  0  0  0
  -18.0370  -28.0970   22.9520 C   0  0  0  0  0  0  0  0  0  0  0  0
  -20.5940  -28.3550   23.2350 C   0  0  0  0  0  3  0  0  0  0  0  0
  -20.6990  -26.9180   22.6730 C   0  0  0  0  0  2  0  0  0  0  0  0
  -19.6020  -26.5870   21.6560 C   0  0  0  0  0  2  0  0  0  0  0  0
  -18.2170  -26.7410   22.2910 C   0  0  0  0  0  2  0  0  0  0  0  0
  -19.1550  -28.8620   23.3820 C   0  0  0  0  0  0  0  0  0  0  0  0
  -18.9360  -30.1330   23.9560 C   0  0  0  0  0  3  0  0  0  0  0  0
  -17.6320  -30.6380   24.1100 C   0  0  0  0  0  3  0  0  0  0  0  0
  -16.5280  -29.8720   23.6990 C   0  0  0  0  0  3  0  0  0  0  0  0
  -16.7330  -28.6030   23.1260 C   0  0  0  0  0  3  0  0  0  0  0  0
  -25.9060  -32.5050   23.8570 C   0  0  0  0  0  3  0  0  0  0  0  0
  -26.4360  -31.7270   25.1240 C   0  0  1  0  0  0  0  0  0  0  0  0
  -25.3540  -31.4870   26.2020 C   0  0  0  0  0  1  0  0  0  0  0  0
  -27.0110  -30.3510   24.7140 C   0  0  0  0  0  1  0  0  0  0  0  0
  -27.5940  -32.5150   25.7790 C   0  0  0  0  0  1  0  0  0  0  0  0
  -25.6110  -33.9040   24.1890 N   0  0  0  0  0  0  0  0  0  0  0  0
  -25.9480  -34.9530   23.4270 C   0  0  0  0  0  0  0  0  0  0  0  0
  -26.6130  -34.8440   22.3930 O   0  0  0  0  0  0  0  0  0  0  0  0
  -25.0220  -34.0650   24.9940 H   0  0  0  0  0  0  0  0  0  0  0  0
  -24.2320  -36.7550   23.0720 C   0  0  0  0  0  1  0  0  0  0  0  0
  -25.4720  -36.3450   23.8820 C   0  0  0  0  0  3  0  0  0  0  0  0
  -27.6160  -37.2120   24.7050 C   0  0  0  0  0  1  0  0  0  0  0  0
  -26.5110  -37.3900   23.7670 N   0  0  0  0  0  0  0  0  0  0  0  0
  -26.1140  -38.3130   23.9150 H   0  0  0  0  0  0  0  0  0  0  0  0
  1  2  1  0
  1 49  1  0
  3  4  1  0
  3  2  1  0
  4  6  1  0
  5  6  1  0
  5  9  1  0
  6  8  1  0
  7  5  2  0
  9 10  1  0
 10 19  1  0
 11 19  1  0
 12 17  1  0
 13 14  1  0
 13 12  1  0
 15 14  1  0
 15 24  1  0
 15 16  1  0
 17 11  1  0
 17 16  1  0
 18 11  2  0
 19 20  1  0
 21 22  2  0
 22 41  1  0
 23 22  1  0
 23 26  1  0
 24 21  1  0
 24 25  1  0
 25 23  2  0
 26 27  1  0
 27 28  2  0
 29 32  1  0
 29 28  1  0
 30 29  2  0
 31 30  1  0
 31 26  2  0
 32 33  1  0
 33 34  1  0
 34 35  2  0
 36 35  1  0
 36 40  1  0
 37 36  2  0
 38 33  2  0
 38 37  1  0
 39 38  1  0
 41 42  1  0
 42 45  1  0
 42 44  1  0
 43 41  2  0
 46 47  1  0
 46 21  1  0
 48 46  1  0
 49 51  1  0
 50 54  1  0
 50 52  2  0
 51 50  1  0
 53 51  1  0
 55 57  1  0
 55 54  1  0
 56 67  2  0
 57 62  1  0
 58 66  1  0
 58 68  1  0
 59 65  1  0
 59 61  1  0
 60 66  1  0
 61 62  2  0
 61 60  1  0
 63 64  1  0
 63 57  2  0
 64 59  2  0
 65 58  1  0
 66 56  1  0
 68 70  2  0
 69 68  1  0
 71 69  1  0
 72 81  2  0
 72 77  1  0
 73 69  1  0
 73 77  1  0
 74 73  1  0
 75 76  1  0
 75 74  1  0
 76 72  1  0
 77 78  2  0
 78 79  1  0
 80 79  2  0
 81 80  1  0
 82 56  1  0
 82 87  1  0
 82 83  1  0
 83 86  1  1
 83 84  1  0
 85 83  1  0
 87 90  1  0
 88 92  1  0
 88 87  1  0
 89 88  2  0
 92 91  1  0
 94 92  1  0
 94 95  1  0
 94 93  1  0
M  ISO  4  11 100  19 100  54 101  55 101
M  END
>  <TORSDO>  (46) 
F 25

>  <SCORE>  (46) 
-12.294

>  <name>  (46) 
51

>  <ligand_id>  (46) 
51

>  <original_smiles>  (46) 
[H]c1c([H])c([H])c2c(c1[H])C([H])([H])C([H])([H])C([H])([H])C2([H])N([H])C(=O)C1([H])N(C(=O)C([H])(N([H])C(=O)C([H])(N([H])C([H])([H])[H])C([H])([H])[H])C(C([H])([H])[H])(C([H])([H])[H])C([H])([H])[H])C([H])([H])c2c([H])c(OC([H])([H])C(=O)N([H])C([H])([H])C([H])([H])C([H])([H])C([H])([H])C([H])([H])N([H])C(=O)C([H])([H])C([H])([H])N([H])C(=O)N3C([H])([H])C([H])([H])C([H])([H])C([H])(n4nc(-c5c([H])c([H])c(Oc6c([H])c([H])c(F)c([H])c6F)c([H])c5[H])c(C(=O)N([H])[H])c4N([H])[H])C3([H])[H])c([H])c([H])c2C1([H])[H]

>  <smiles>  (46) 
[H]c1c([H])c([H])c2c(c1[H])C([H])([H])C([H])([H])C([H])([H])C2([H])N([H])C(=O)C1([H])N(C(=O)C([H])(N([H])C(=O)C([H])(N([H])C([H])([H])[H])C([H])([H])[H])C(C([H])([H])[H])(C([H])([H])[H])C([H])([H])[H])C([H])([H])c2c([H])c(OC([H])([H])C(=O)N([H])C([H])([H])C([H])([H])C([H])([H])C([H])([H])C([H])([H])N([H])C(=O)C([H])([H])C([H])([H])N([H])C(=O)N3C([H])([H])C([H])([H])C([H])([H])C([H])(n4nc(-c5c([H])c([H])c(Oc6c([H])c([H])c(F)c([H])c6F)c([H])c5[H])c(C(=O)N([H])[H])c4N([H])[H])C3([H])[H])c([H])c([H])c2C1([H])[H]

$$$$
52:0:0
     RDKit          3D

 95 99  0  0  1  0  0  0  0  0999 V2000
  -23.1400  -27.4480   24.9850 N   0  0  0  0  0  4  0  0  0  0  0  0
  -23.9730  -27.8390   24.5440 H   0  0  0  0  0  0  0  0  0  0  0  0
  -23.3330  -27.4710   25.9740 H   0  0  0  0  0  0  0  0  0  0  0  0
  -23.4310  -25.7750   24.4460 C   0  0  0  0  0  3  0  0  0  0  0  0
  -25.6250  -23.4950   23.4640 C   0  0  0  0  0  3  0  0  0  0  0  0
  -24.8800  -24.7830   23.8990 C   0  0  0  0  0  0  0  0  0  0  0  0
  -25.6650  -21.8400   23.1220 C   0  0  0  0  0  0  0  0  0  0  0  0
  -26.8190  -20.9140   22.6670 N   0  0  0  0  0  0  0  0  0  0  0  0
  -24.5980  -21.2400   23.2470 O   0  0  0  0  0  0  0  0  0  0  0  0
  -27.6720  -21.4540   22.5980 H   0  0  0  0  0  0  0  0  0  0  0  0
  -27.1520  -19.2300   22.2370 C   0  0  0  0  0  3  0  0  0  0  0  0
  -28.6200  -18.1370   21.6550 C   0  0  0  0  0  3  0  0  0  0  0  0
  -29.9700  -15.3960   20.7910 C   0  0  0  0  0  0  0  0  0  0  0  0
  -30.3970  -12.9940   19.6690 C   0  0  0  0  0  2  0  0  0  0  0  0
  -29.5660  -12.6980   18.3810 C   0  0  0  0  0  2  0  0  0  0  0  0
  -28.1080  -12.3360   18.7240 C   0  0  0  0  0  2  0  0  0  0  0  0
  -27.5740  -13.2530   19.8500 C   0  0  0  0  0  3  0  0  0  0  0  0
  -28.5080  -13.3310   21.0600 C   0  0  0  0  0  2  0  0  0  0  0  0
  -29.6850  -14.0090   20.5670 N   0  0  0  0  0  0  0  0  0  0  0  0
  -31.1650  -15.6030   20.4580 O   0  0  0  0  0  0  0  0  0  0  0  0
  -28.9300  -16.4480   21.2580 N   0  0  0  0  0  0  0  0  0  0  0  0
  -28.0600  -15.9450   21.3640 H   0  0  0  0  0  0  0  0  0  0  0  0
  -25.2160  -13.8160   20.5590 C   0  0  0  0  0  0  0  0  0  0  0  0
  -24.1560  -13.0370   20.9200 C   0  0  0  0  0  0  0  0  0  0  0  0
  -24.6200  -11.6850   20.8700 C   0  0  0  0  0  0  0  0  0  0  0  0
  -26.2430  -12.9330   20.2930 N   0  0  0  0  0  0  0  0  0  0  0  0
  -25.9070  -11.6470   20.5510 N   0  0  0  0  0  0  0  0  0  0  0  0
  -23.8970  -10.4250   21.0410 C   0  0  0  0  0  0  0  0  0  0  0  0
  -24.3580   -9.4190   21.9180 C   0  0  0  0  0  3  0  0  0  0  0  0
  -23.6270   -8.2220   22.0760 C   0  0  0  0  0  3  0  0  0  0  0  0
  -22.4260   -8.0260   21.3540 C   0  0  0  0  0  0  0  0  0  0  0  0
  -21.9860   -9.0220   20.4650 C   0  0  0  0  0  3  0  0  0  0  0  0
  -22.7170  -10.2100   20.3050 C   0  0  0  0  0  3  0  0  0  0  0  0
  -21.6630   -6.8850   21.4240 O   0  0  0  0  0  0  0  0  0  0  0  0
  -21.6850   -6.0720   22.5290 C   0  0  0  0  0  0  0  0  0  0  0  0
  -21.4000   -6.5630   23.8220 C   0  0  0  0  0  3  0  0  0  0  0  0
  -21.3660   -5.6780   24.9180 C   0  0  0  0  0  3  0  0  0  0  0  0
  -21.6040   -4.3040   24.7230 C   0  0  0  0  0  0  0  0  0  0  0  0
  -21.8830   -3.8130   23.4360 C   0  0  0  0  0  3  0  0  0  0  0  0
  -21.9190   -4.6940   22.3410 C   0  0  0  0  0  0  0  0  0  0  0  0
  -22.1660   -4.2130   21.0990 F   0  0  0  0  0  0  0  0  0  0  0  0
  -21.5640   -3.4540   25.7750 F   0  0  0  0  0  0  0  0  0  0  0  0
  -22.7640  -13.5170   21.1940 C   0  0  0  0  0  0  0  0  0  0  0  0
  -22.0300  -12.8170   22.0500 N   0  0  0  0  0  0  0  0  0  0  0  0
  -22.3360  -14.5520   20.6830 O   0  0  0  0  0  0  0  0  0  0  0  0
  -22.3930  -11.9840   22.4890 H   0  0  0  0  0  0  0  0  0  0  0  0
  -21.0910  -13.1190   22.2690 H   0  0  0  0  0  0  0  0  0  0  0  0
  -25.3850  -15.1910   20.4110 N   0  0  0  0  0  0  0  0  0  0  0  0
  -24.5930  -15.8180   20.4980 H   0  0  0  0  0  0  0  0  0  0  0  0
  -26.1870  -15.6300   19.9770 H   0  0  0  0  0  0  0  0  0  0  0  0
  -22.1130  -28.9280   24.6290 C   0  0  0  0  0  1  0  0  0  0  0  0
  -21.5340  -29.8870   22.8550 C   0  0  0  0  0 15  0  0  0  0  0  0
  -21.7040  -29.1580   20.9150 C   0  0  0  0  0 15  0  0  0  0  0  0
  -23.1200  -27.8220   20.1540 C   0  0  0  0  0  1  0  0  0  0  0  0
  -24.7940  -27.1850   20.6330 O   0  0  0  0  0  0  0  0  0  0  0  0
  -24.7760  -31.8610   23.2420 C   0  0  0  0  0  0  0  0  0  0  0  0
  -26.1930  -27.3000   20.2590 C   0  0  0  0  0  3  0  0  0  0  0  0
  -23.8800  -30.2290   21.6320 C   0  0  0  0  0  3  0  0  0  0  0  0
  -25.2570  -29.5450   19.6300 C   0  0  0  0  0  3  0  0  0  0  0  0
  -26.2560  -30.8000   21.5310 C   0  0  0  0  0  2  0  0  0  0  0  0
  -26.2370  -29.5980   20.6090 C   0  0  0  0  0  3  0  0  0  0  0  0
  -26.8990  -28.3940   20.8440 C   0  0  0  0  0  2  0  0  0  0  0  0
  -26.0590  -27.3650   18.9080 C   0  0  0  0  0  2  0  0  0  0  0  0
  -25.2860  -28.5080   18.6440 C   0  0  0  0  0  2  0  0  0  0  0  0
  -24.0710  -30.3270   20.0290 C   0  0  0  0  0  2  0  0  0  0  0  0
  -24.9610  -31.0080   22.2020 N   0  0  0  0  0  0  0  0  0  0  0  0
  -23.6700  -32.1410   23.7200 O   0  0  0  0  0  0  0  0  0  0  0  0
  -23.7060  -28.7320   22.5030 C   0  0  0  0  0  0  0  0  0  0  0  0
  -22.5310  -27.7050   22.5860 N   0  0  0  0  0  0  0  0  0  0  0  0
  -24.5870  -28.5480   23.2900 O   0  0  0  0  0  0  0  0  0  0  0  0
  -22.9560  -26.7940   22.6830 H   0  0  0  0  0  0  0  0  0  0  0  0
  -18.0950  -27.9710   22.7420 C   0  0  0  0  0  0  0  0  0  0  0  0
  -20.8150  -27.5100   22.9370 C   0  0  0  0  0  3  0  0  0  0  0  0
  -20.4930  -26.2630   22.2140 C   0  0  0  0  0  2  0  0  0  0  0  0
  -19.3460  -26.3870   21.2540 C   0  0  0  0  0  2  0  0  0  0  0  0
  -18.0550  -26.6680   22.0000 C   0  0  0  0  0  2  0  0  0  0  0  0
  -19.3530  -28.4520   23.2340 C   0  0  0  0  0  0  0  0  0  0  0  0
  -19.0810  -29.6460   24.0560 C   0  0  0  0  0  3  0  0  0  0  0  0
  -17.8570  -30.3680   24.1440 C   0  0  0  0  0  3  0  0  0  0  0  0
  -16.7030  -29.8370   23.5730 C   0  0  0  0  0  3  0  0  0  0  0  0
  -16.8300  -28.6070   22.9230 C   0  0  0  0  0  3  0  0  0  0  0  0
  -26.0100  -32.5090   23.8960 C   0  0  0  0  0  3  0  0  0  0  0  0
  -26.5040  -31.6860   25.1430 C   0  0  1  0  0  0  0  0  0  0  0  0
  -25.3990  -31.3760   26.1800 C   0  0  0  0  0  1  0  0  0  0  0  0
  -27.1370  -30.3380   24.7300 C   0  0  0  0  0  1  0  0  0  0  0  0
  -27.6280  -32.4760   25.8440 C   0  0  0  0  0  1  0  0  0  0  0  0
  -25.6460  -33.8810   24.2670 N   0  0  0  0  0  0  0  0  0  0  0  0
  -25.9140  -34.9560   23.5170 C   0  0  0  0  0  0  0  0  0  0  0  0
  -26.5520  -34.8940   22.4620 O   0  0  0  0  0  0  0  0  0  0  0  0
  -25.0890  -33.9970   25.1020 H   0  0  0  0  0  0  0  0  0  0  0  0
  -24.1520  -36.7340   23.2560 C   0  0  0  0  0  1  0  0  0  0  0  0
  -25.4110  -36.3170   24.0310 C   0  0  0  0  0  3  0  0  0  0  0  0
  -27.5590  -37.1860   24.8460 C   0  0  0  0  0  1  0  0  0  0  0  0
  -26.4290  -37.3850   23.9410 N   0  0  0  0  0  0  0  0  0  0  0  0
  -26.0170  -38.2940   24.1320 H   0  0  0  0  0  0  0  0  0  0  0  0
  1  3  1  0
  2  1  1  0
  4  1  1  0
  5  6  2  0
  6  4  2  0
  7  9  2  0
  7  5  1  0
  8  7  1  0
 10  8  1  0
 11  8  1  0
 12 11  2  0
 13 21  1  0
 14 19  1  0
 15 16  1  0
 15 14  1  0
 17 16  1  0
 17 26  1  0
 17 18  1  0
 19 13  1  0
 19 18  1  0
 20 13  2  0
 21 22  1  0
 21 12  1  0
 23 24  2  0
 24 43  1  0
 25 24  1  0
 25 28  1  0
 26 27  1  0
 26 23  1  0
 27 25  2  0
 28 29  1  0
 29 30  2  0
 31 34  1  0
 31 30  1  0
 32 31  2  0
 33 32  1  0
 33 28  2  0
 34 35  1  0
 35 36  1  0
 36 37  2  0
 38 37  1  0
 38 42  1  0
 39 38  2  0
 40 35  2  0
 40 39  1  0
 41 40  1  0
 43 44  1  0
 44 47  1  0
 44 46  1  0
 45 43  2  0
 48 49  1  0
 48 23  1  0
 50 48  1  0
 51  1  1  0
 54 55  1  0
 56 67  2  0
 57 55  1  0
 57 62  1  0
 58 66  1  0
 58 68  1  0
 59 64  1  0
 59 65  1  0
 59 61  1  0
 60 66  1  0
 61 62  1  0
 61 60  1  0
 63 57  1  0
 64 63  1  0
 65 58  1  0
 66 56  1  0
 68 69  1  0
 68 70  2  0
 69 71  1  0
 72 81  2  0
 72 77  1  0
 73 69  1  0
 73 77  1  0
 74 73  1  0
 75 76  1  0
 75 74  1  0
 76 72  1  0
 77 78  2  0
 78 79  1  0
 80 79  2  0
 81 80  1  0
 82 56  1  0
 82 87  1  0
 82 83  1  0
 83 86  1  1
 83 84  1  0
 85 83  1  0
 87 90  1  0
 88 92  1  0
 88 87  1  0
 89 88  2  0
 92 91  1  0
 94 92  1  0
 94 95  1  0
 94 93  1  0
M  ISO  4  13 100  21 100  54 101  55 101
M  END
>  <TORSDO>  (47) 
F 25

>  <SCORE>  (47) 
18.184

>  <name>  (47) 
52

>  <ligand_id>  (47) 
52

>  <original_smiles>  (47) 
[H]C(C(=O)N([H])C([H])([H])C([H])([H])N([H])C(=O)N1C([H])([H])C([H])([H])C([H])([H])C([H])(n2nc(-c3c([H])c([H])c(Oc4c([H])c([H])c(F)c([H])c4F)c([H])c3[H])c(C(=O)N([H])[H])c2N([H])[H])C1([H])[H])=C([H])C([H])([H])[N+]([H])([H])C([H])([H])C([H])([H])C([H])([H])C([H])([H])Oc1c([H])c([H])c2c(c1[H])C([H])([H])N(C(=O)C([H])(N([H])C(=O)C([H])(N([H])C([H])([H])[H])C([H])([H])[H])C(C([H])([H])[H])(C([H])([H])[H])C([H])([H])[H])C([H])(C(=O)N([H])C1([H])c3c([H])c([H])c([H])c([H])c3C([H])([H])C([H])([H])C1([H])[H])C2([H])[H]

>  <smiles>  (47) 
[H]C(C(=O)N([H])C([H])([H])C([H])([H])N([H])C(=O)N1C([H])([H])C([H])([H])C([H])([H])C([H])(n2nc(-c3c([H])c([H])c(Oc4c([H])c([H])c(F)c([H])c4F)c([H])c3[H])c(C(=O)N([H])[H])c2N([H])[H])C1([H])[H])=C([H])C([H])([H])[N+]([H])([H])C([H])([H])C([H])([H])C([H])([H])C([H])([H])Oc1c([H])c([H])c2c(c1[H])C([H])([H])N(C(=O)C([H])(N([H])C(=O)C([H])(N([H])C([H])([H])[H])C([H])([H])[H])C(C([H])([H])[H])(C([H])([H])[H])C([H])([H])[H])C([H])(C(=O)N([H])C1([H])c3c([H])c([H])c([H])c([H])c3C([H])([H])C([H])([H])C1([H])[H])C2([H])[H]

$$$$
53:0:0
     RDKit          3D

 97 99  0  0  1  0  0  0  0  0999 V2000
  -21.7920  -23.2350   24.2030 C   0  0  0  0  0  0  0  0  0  0  0  0
  -20.5690  -23.8340   24.0360 N   0  0  0  0  0  0  0  0  0  0  0  0
  -22.6590  -23.7130   24.9360 O   0  0  0  0  0  0  0  0  0  0  0  0
  -19.9490  -23.3060   23.4360 H   0  0  0  0  0  0  0  0  0  0  0  0
  -22.0810  -21.8720   23.4680 C   0  0  0  0  0  2  0  0  0  0  0  0
  -23.5220  -21.5280   22.8610 C   0  0  0  0  0  2  0  0  0  0  0  0
  -24.3480  -20.3110   23.4630 C   0  0  0  0  0  2  0  0  0  0  0  0
  -25.1070  -19.2520   22.5380 C   0  0  0  0  0  2  0  0  0  0  0  0
  -26.5900  -19.5090   22.0580 C   0  0  0  0  0  2  0  0  0  0  0  0
  -28.0990  -17.5230   21.2930 C   0  0  0  0  0  0  0  0  0  0  0  0
  -27.6170  -18.4180   22.2040 N   0  0  0  0  0  0  0  0  0  0  0  0
  -27.4920  -17.2740   20.2520 O   0  0  0  0  0  0  0  0  0  0  0  0
  -28.1780  -18.4950   23.0440 H   0  0  0  0  0  0  0  0  0  0  0  0
  -29.5040  -16.8490   21.5150 C   0  0  0  0  0  2  0  0  0  0  0  0
  -30.4770  -14.5540   20.6510 C   0  0  0  0  0  0  0  0  0  0  0  0
  -30.4400  -12.3740   19.4270 C   0  0  0  0  0  2  0  0  0  0  0  0
  -29.5030  -12.5440   18.2070 C   0  0  0  0  0  2  0  0  0  0  0  0
  -28.0150  -12.3800   18.5950 C   0  0  0  0  0  2  0  0  0  0  0  0
  -27.6480  -13.1810   19.8720 C   0  0  0  0  0  3  0  0  0  0  0  0
  -28.6670  -12.8730   20.9850 C   0  0  0  0  0  2  0  0  0  0  0  0
  -29.9800  -13.2960   20.4800 N   0  0  0  0  0  0  0  0  0  0  0  0
  -31.5900  -14.8890   20.2160 O   0  0  0  0  0  0  0  0  0  0  0  0
  -29.5660  -15.3920   21.2320 N   0  0  0  0  0  0  0  0  0  0  0  0
  -28.7120  -14.9150   21.4750 H   0  0  0  0  0  0  0  0  0  0  0  0
  -25.2500  -13.8080   20.5550 C   0  0  0  0  0  0  0  0  0  0  0  0
  -24.1750  -13.0400   20.9110 C   0  0  0  0  0  0  0  0  0  0  0  0
  -24.6300  -11.6870   20.8670 C   0  0  0  0  0  0  0  0  0  0  0  0
  -26.2880  -12.9200   20.3210 N   0  0  0  0  0  0  0  0  0  0  0  0
  -25.9190  -11.6390   20.5640 N   0  0  0  0  0  0  0  0  0  0  0  0
  -23.8990  -10.4280   21.0380 C   0  0  0  0  0  0  0  0  0  0  0  0
  -24.3580   -9.4220   21.9160 C   0  0  0  0  0  3  0  0  0  0  0  0
  -23.6280   -8.2250   22.0760 C   0  0  0  0  0  3  0  0  0  0  0  0
  -22.4250   -8.0280   21.3560 C   0  0  0  0  0  0  0  0  0  0  0  0
  -21.9860   -9.0230   20.4650 C   0  0  0  0  0  3  0  0  0  0  0  0
  -22.7170  -10.2110   20.3040 C   0  0  0  0  0  3  0  0  0  0  0  0
  -21.6630   -6.8870   21.4240 O   0  0  0  0  0  0  0  0  0  0  0  0
  -21.6850   -6.0740   22.5280 C   0  0  0  0  0  0  0  0  0  0  0  0
  -21.4030   -6.5660   23.8210 C   0  0  0  0  0  3  0  0  0  0  0  0
  -21.3650   -5.6800   24.9170 C   0  0  0  0  0  3  0  0  0  0  0  0
  -21.6030   -4.3060   24.7220 C   0  0  0  0  0  0  0  0  0  0  0  0
  -21.8830   -3.8160   23.4350 C   0  0  0  0  0  3  0  0  0  0  0  0
  -21.9200   -4.6970   22.3400 C   0  0  0  0  0  0  0  0  0  0  0  0
  -22.1670   -4.2160   21.0980 F   0  0  0  0  0  0  0  0  0  0  0  0
  -21.5600   -3.4550   25.7730 F   0  0  0  0  0  0  0  0  0  0  0  0
  -22.7800  -13.5230   21.1840 C   0  0  0  0  0  0  0  0  0  0  0  0
  -22.0480  -12.8220   22.0430 N   0  0  0  0  0  0  0  0  0  0  0  0
  -22.3500  -14.5560   20.6730 O   0  0  0  0  0  0  0  0  0  0  0  0
  -22.4080  -11.9850   22.4760 H   0  0  0  0  0  0  0  0  0  0  0  0
  -21.1110  -13.1260   22.2680 H   0  0  0  0  0  0  0  0  0  0  0  0
  -25.4170  -15.1800   20.3990 N   0  0  0  0  0  0  0  0  0  0  0  0
  -24.6490  -15.8260   20.5410 H   0  0  0  0  0  0  0  0  0  0  0  0
  -26.2730  -15.6650   20.1340 H   0  0  0  0  0  0  0  0  0  0  0  0
  -19.9480  -25.1310   24.5500 C   0  0  0  0  0  2  0  0  0  0  0  0
  -19.6310  -26.5320   23.6460 C   0  0  0  0  0  1  0  0  0  0  0  0
  -20.9860  -27.6280   21.3440 C   0  0  0  0  0 15  0  0  0  0  0  0
  -22.9270  -27.1460   20.7600 C   0  0  0  0  0  1  0  0  0  0  0  0
  -24.7390  -27.0080   21.1360 O   0  0  0  0  0  0  0  0  0  0  0  0
  -24.6670  -31.9380   23.2210 C   0  0  0  0  0  0  0  0  0  0  0  0
  -26.0530  -27.2060   20.5000 C   0  0  0  0  0  3  0  0  0  0  0  0
  -23.4720  -30.6010   21.5750 C   0  0  0  0  0  3  0  0  0  0  0  0
  -24.8340  -29.3140   19.7990 C   0  0  0  0  0  3  0  0  0  0  0  0
  -25.9910  -30.8460   21.4020 C   0  0  0  0  0  2  0  0  0  0  0  0
  -25.9160  -29.5290   20.6600 C   0  0  0  0  0  3  0  0  0  0  0  0
  -26.7250  -28.4070   20.9060 C   0  0  0  0  0  2  0  0  0  0  0  0
  -25.8050  -27.1710   19.1550 C   0  0  0  0  0  2  0  0  0  0  0  0
  -24.8990  -28.2110   18.8920 C   0  0  0  0  0  2  0  0  0  0  0  0
  -23.5960  -30.1260   20.0800 C   0  0  0  0  0  2  0  0  0  0  0  0
  -24.7270  -31.1900   22.0880 N   0  0  0  0  0  0  0  0  0  0  0  0
  -23.5860  -32.2050   23.7680 O   0  0  0  0  0  0  0  0  0  0  0  0
  -23.0500  -29.5310   22.6070 C   0  0  0  0  0  0  0  0  0  0  0  0
  -21.7980  -29.4960   22.9410 N   0  0  0  0  0  0  0  0  0  0  0  0
  -23.8310  -28.7950   23.1980 O   0  0  0  0  0  0  0  0  0  0  0  0
  -21.1700  -30.1740   22.5320 H   0  0  0  0  0  0  0  0  0  0  0  0
  -18.4490  -28.1750   22.2940 C   0  0  0  0  0  0  0  0  0  0  0  0
  -21.1680  -28.3430   23.5640 C   0  0  0  0  0  2  0  0  0  0  0  0
  -21.7970  -26.4200   23.0500 C   0  0  0  0  0 15  0  0  0  0  0  0
  -20.3180  -25.4980   21.7280 C   0  0  0  0  0 15  0  0  0  0  0  0
  -18.7090  -26.6070   21.4500 C   0  0  0  0  0  1  0  0  0  0  0  0
  -19.5170  -28.9210   23.1420 C   0  0  0  0  0  0  0  0  0  0  0  0
  -19.0860  -30.0710   23.8690 C   0  0  0  0  0  3  0  0  0  0  0  0
  -17.7400  -30.4850   23.9660 C   0  0  0  0  0  3  0  0  0  0  0  0
  -16.7370  -29.7100   23.3690 C   0  0  0  0  0  3  0  0  0  0  0  0
  -17.0890  -28.5850   22.5730 C   0  0  0  0  0  3  0  0  0  0  0  0
  -25.9570  -32.5070   23.8580 C   0  0  0  0  0  3  0  0  0  0  0  0
  -25.6430  -33.8810   24.2560 N   0  0  0  0  0  0  0  0  0  0  0  0
  -25.9170  -34.9610   23.5150 C   0  0  0  0  0  0  0  0  0  0  0  0
  -26.5520  -34.9020   22.4570 O   0  0  0  0  0  0  0  0  0  0  0  0
  -25.0840  -33.9970   25.0880 H   0  0  0  0  0  0  0  0  0  0  0  0
  -24.1530  -36.7340   23.2600 C   0  0  0  0  0  1  0  0  0  0  0  0
  -25.4160  -36.3200   24.0330 C   0  0  0  0  0  3  0  0  0  0  0  0
  -27.5610  -37.1900   24.8470 C   0  0  0  0  0  1  0  0  0  0  0  0
  -26.4320  -37.3900   23.9410 N   0  0  0  0  0  0  0  0  0  0  0  0
  -26.0210  -38.2960   24.1450 H   0  0  0  0  0  0  0  0  0  0  0  0
  -26.4640  -31.6630   25.0870 C   0  0  1  0  0  0  0  0  0  0  0  0
  -25.3740  -31.3740   26.1460 C   0  0  0  0  0  1  0  0  0  0  0  0
  -27.0420  -30.3020   24.6290 C   0  0  0  0  0  1  0  0  0  0  0  0
  -27.6210  -32.4200   25.7770 C   0  0  0  0  0  1  0  0  0  0  0  0
  1  3  2  0
  2  1  1  0
  2 53  1  0
  4  2  1  0
  5  1  1  0
  6  7  1  0
  6  5  1  0
  8  7  1  0
  9 11  1  0
  9  8  1  0
 10 14  1  0
 10 11  1  0
 11 13  1  0
 12 10  2  0
 15 23  1  0
 16 21  1  0
 17 18  1  0
 17 16  1  0
 19 18  1  0
 19 28  1  0
 19 20  1  0
 21 15  1  0
 21 20  1  0
 22 15  2  0
 23 24  1  0
 23 14  1  0
 25 26  2  0
 26 45  1  0
 27 26  1  0
 27 30  1  0
 28 25  1  0
 28 29  1  0
 29 27  2  0
 30 31  1  0
 31 32  2  0
 33 36  1  0
 33 32  1  0
 34 33  2  0
 35 34  1  0
 35 30  2  0
 36 37  1  0
 37 38  1  0
 38 39  2  0
 40 39  1  0
 40 44  1  0
 41 40  2  0
 42 37  2  0
 42 41  1  0
 43 42  1  0
 45 46  1  0
 46 49  1  0
 46 48  1  0
 47 45  2  0
 50 51  1  0
 50 25  1  0
 52 50  1  0
 54 53  1  0
 56 57  1  0
 58 69  2  0
 59 64  1  0
 59 57  1  0
 60 68  1  0
 60 70  1  0
 61 66  1  0
 61 67  1  0
 61 63  1  0
 62 68  1  0
 63 64  1  0
 63 62  1  0
 65 59  1  0
 66 65  1  0
 67 60  1  0
 68 58  1  0
 70 71  1  0
 70 72  2  0
 71 75  1  0
 73 71  1  0
 74 83  2  0
 74 79  1  0
 78 74  1  0
 79 75  1  0
 79 80  2  0
 80 81  1  0
 82 81  2  0
 83 82  1  0
 84 58  1  0
 84 85  1  0
 84 94  1  0
 85 88  1  0
 86 90  1  0
 86 85  1  0
 87 86  2  0
 90 89  1  0
 92 90  1  0
 92 93  1  0
 92 91  1  0
 94 97  1  1
 94 95  1  0
 96 94  1  0
M  ISO  4  15 100  23 100  56 101  57 101
M  END
>  <TORSDO>  (48) 
F 27

>  <SCORE>  (48) 
49.231

>  <name>  (48) 
53

>  <ligand_id>  (48) 
53

>  <original_smiles>  (48) 
[H]c1c([H])c([H])c2c(c1[H])C([H])([H])C([H])([H])C([H])([H])C2([H])N([H])C(=O)C1([H])N(C(=O)C([H])(N([H])C(=O)C([H])(N([H])C([H])([H])[H])C([H])([H])[H])C(C([H])([H])[H])(C([H])([H])[H])C([H])([H])[H])C([H])([H])c2c([H])c(OC([H])([H])C([H])([H])C([H])([H])C([H])([H])N([H])C(=O)C([H])([H])C([H])([H])C([H])([H])C([H])([H])C([H])([H])N([H])C(=O)C([H])([H])N([H])C(=O)N3C([H])([H])C([H])([H])C([H])([H])C([H])(n4nc(-c5c([H])c([H])c(Oc6c([H])c([H])c(F)c([H])c6F)c([H])c5[H])c(C(=O)N([H])[H])c4N([H])[H])C3([H])[H])c([H])c([H])c2C1([H])[H]

>  <smiles>  (48) 
[H]c1c([H])c([H])c2c(c1[H])C([H])([H])C([H])([H])C([H])([H])C2([H])N([H])C(=O)C1([H])N(C(=O)C([H])(N([H])C(=O)C([H])(N([H])C([H])([H])[H])C([H])([H])[H])C(C([H])([H])[H])(C([H])([H])[H])C([H])([H])[H])C([H])([H])c2c([H])c(OC([H])([H])C([H])([H])C([H])([H])C([H])([H])N([H])C(=O)C([H])([H])C([H])([H])C([H])([H])C([H])([H])C([H])([H])N([H])C(=O)C([H])([H])N([H])C(=O)N3C([H])([H])C([H])([H])C([H])([H])C([H])(n4nc(-c5c([H])c([H])c(Oc6c([H])c([H])c(F)c([H])c6F)c([H])c5[H])c(C(=O)N([H])[H])c4N([H])[H])C3([H])[H])c([H])c([H])c2C1([H])[H]

$$$$
54:0:0
     RDKit          3D

103111  0  0  1  0  0  0  0  0999 V2000
  -21.1720  -30.8090   23.1280 C   0  0  0  0  0  2  0  0  0  0  0  0
  -20.4420  -29.8820   20.3220 C   0  0  0  0  0  0  0  0  0  0  0  0
  -20.4630  -30.5550   21.6310 N   0  0  0  0  0  0  0  0  0  0  0  0
  -19.5970  -30.3800   19.5830 O   0  0  0  0  0  0  0  0  0  0  0  0
  -19.6140  -31.1030   21.6600 H   0  0  0  0  0  0  0  0  0  0  0  0
  -21.2600  -28.5490   19.5400 C   0  0  0  0  0  2  0  0  0  0  0  0
  -23.1860  -26.4310   19.5940 C   0  0  0  0  0  0  0  0  0  0  0  0
  -22.6320  -27.7220   19.7170 N   0  0  0  0  0  0  0  0  0  0  0  0
  -22.3370  -25.5610   19.3980 O   0  0  0  0  0  0  0  0  0  0  0  0
  -23.4080  -28.3580   19.8650 H   0  0  0  0  0  0  0  0  0  0  0  0
  -24.7780  -25.7940   19.6590 C   0  0  0  0  0  2  0  0  0  0  0  0
  -26.2570  -26.3570   19.5980 O   0  0  0  0  0  0  0  0  0  0  0  0
  -24.9000  -31.5480   23.2660 C   0  0  0  0  0  0  0  0  0  0  0  0
  -26.4500  -27.5810   19.1200 C   0  0  0  0  0  0  0  0  0  0  0  0
  -23.4850  -30.3590   21.5810 C   0  0  0  0  0  3  0  0  0  0  0  0
  -24.6830  -29.5680   19.4890 C   0  0  0  0  0  0  0  0  0  0  0  0
  -25.9870  -30.6820   21.2570 C   0  0  0  0  0  2  0  0  0  0  0  0
  -25.8540  -29.5930   20.2280 C   0  0  0  0  0  0  0  0  0  0  0  0
  -26.8040  -28.5810   20.0410 C   0  0  0  0  0  3  0  0  0  0  0  0
  -25.5270  -27.7760   18.1180 C   0  0  0  0  0  3  0  0  0  0  0  0
  -24.5690  -28.7510   18.3500 C   0  0  0  0  0  3  0  0  0  0  0  0
  -23.5940  -30.4390   20.0210 C   0  0  0  0  0  2  0  0  0  0  0  0
  -24.7880  -30.8650   22.0990 N   0  0  0  0  0  0  0  0  0  0  0  0
  -23.9310  -31.8970   23.9290 O   0  0  0  0  0  0  0  0  0  0  0  0
  -23.1080  -28.9410   22.3000 C   0  0  0  0  0  3  0  0  0  0  0  0
  -21.7870  -28.4420   22.3970 N   0  0  0  0  0  0  0  0  0  0  0  0
  -24.0400  -28.3560   22.7870 O   0  0  0  0  0  0  0  0  0  0  0  0
  -21.2930  -29.2450   22.0200 H   0  0  0  0  0  0  0  0  0  0  0  0
  -17.9070  -28.0110   22.9930 C   0  0  0  0  0  0  0  0  0  0  0  0
  -20.5730  -27.7600   23.1030 C   0  0  0  0  0  3  0  0  0  0  0  0
  -20.3260  -26.5380   22.2390 C   0  0  0  0  0  2  0  0  0  0  0  0
  -19.1170  -26.6650   21.3030 C   0  0  0  0  0  2  0  0  0  0  0  0
  -17.8510  -26.7850   22.1140 C   0  0  0  0  0  2  0  0  0  0  0  0
  -19.1570  -28.4920   23.4790 C   0  0  0  0  0  0  0  0  0  0  0  0
  -18.9670  -29.5070   24.4690 C   0  0  0  0  0  3  0  0  0  0  0  0
  -17.7920  -30.2540   24.6740 C   0  0  0  0  0  3  0  0  0  0  0  0
  -16.6100  -29.7800   24.1130 C   0  0  0  0  0  3  0  0  0  0  0  0
  -16.6670  -28.6060   23.3450 C   0  0  0  0  0  3  0  0  0  0  0  0
  -26.2820  -31.9720   23.8250 C   0  0  0  0  0  3  0  0  0  0  0  0
  -26.1040  -33.3000   24.4290 N   0  0  0  0  0  0  0  0  0  0  0  0
  -26.3460  -34.4520   23.7990 C   0  0  0  0  0  0  0  0  0  0  0  0
  -26.8360  -34.5070   22.6690 O   0  0  0  0  0  0  0  0  0  0  0  0
  -25.6770  -33.3400   25.3430 H   0  0  0  0  0  0  0  0  0  0  0  0
  -24.6950  -36.3350   23.9940 C   0  0  0  0  0  1  0  0  0  0  0  0
  -25.9980  -35.7440   24.5530 C   0  0  0  0  0  3  0  0  0  0  0  0
  -28.2660  -36.3770   25.2250 C   0  0  0  0  0  1  0  0  0  0  0  0
  -27.0620  -36.7650   24.4970 N   0  0  0  0  0  0  0  0  0  0  0  0
  -26.7260  -37.6480   24.8730 H   0  0  0  0  0  0  0  0  0  0  0  0
  -26.8390  -30.9550   24.8970 C   0  0  1  0  0  0  0  0  0  0  0  0
  -25.8340  -30.6060   26.0130 C   0  0  0  0  0  1  0  0  0  0  0  0
  -27.2710  -29.6200   24.2470 C   0  0  0  0  0  1  0  0  0  0  0  0
  -28.0940  -31.5550   25.5730 C   0  0  0  0  0  1  0  0  0  0  0  0
  -22.2630  -29.8790   24.3050 C   0  0  0  0  0  3  0  0  0  0  0  0
  -23.6150  -28.6810   24.4660 C   0  0  0  0  0  3  0  0  0  0  0  0
  -24.7430  -27.6230   23.5930 C   0  0  0  0  0  3  0  0  0  0  0  0
  -26.2280  -27.7670   22.7440 C   0  0  0  0  0  3  0  0  0  0  0  0
  -27.3550  -26.5170   22.4090 C   0  0  0  0  0  3  0  0  0  0  0  0
  -29.6910  -25.6540   21.1630 C   0  0  0  0  0  0  0  0  0  0  0  0
  -28.5830  -26.5330   21.3800 N   0  0  0  0  0  0  0  0  0  0  0  0
  -29.8510  -24.7300   21.9630 O   0  0  0  0  0  0  0  0  0  0  0  0
  -28.5270  -27.2730   20.6930 H   0  0  0  0  0  0  0  0  0  0  0  0
  -30.7900  -25.6870   19.9080 C   0  0  0  0  0  3  0  0  0  0  0  0
  -32.3200  -24.9380   19.8680 C   0  0  0  0  0  3  0  0  0  0  0  0
  -33.3050  -24.6000   18.5230 C   0  0  0  0  0  3  0  0  0  0  0  0
  -34.9790  -24.3120   18.5170 C   0  0  0  0  0  3  0  0  0  0  0  0
  -37.0710  -23.5750   16.7660 C   0  0  0  0  0  0  0  0  0  0  0  0
  -38.3510  -22.5460   14.7960 C   0  0  0  0  0  2  0  0  0  0  0  0
  -37.5860  -22.7250   13.4590 C   0  0  0  0  0  2  0  0  0  0  0  0
  -36.4790  -21.6600   13.2930 C   0  0  0  0  0  2  0  0  0  0  0  0
  -35.6410  -21.4990   14.5880 C   0  0  0  0  0  3  0  0  0  0  0  0
  -36.5520  -21.3140   15.8130 C   0  0  0  0  0  2  0  0  0  0  0  0
  -37.3620  -22.5250   15.9130 N   0  0  0  0  0  0  0  0  0  0  0  0
  -37.9210  -24.4750   16.8810 O   0  0  0  0  0  0  0  0  0  0  0  0
  -35.7670  -23.5850   17.3540 N   0  0  0  0  0  0  0  0  0  0  0  0
  -35.2280  -22.8200   16.9810 H   0  0  0  0  0  0  0  0  0  0  0  0
  -33.3340  -20.4310   14.8540 C   0  0  0  0  0  0  0  0  0  0  0  0
  -32.8650  -19.1770   14.5530 C   0  0  0  0  0  0  0  0  0  0  0  0
  -33.9800  -18.4490   14.0440 C   0  0  0  0  0  0  0  0  0  0  0  0
  -34.6760  -20.4140   14.5110 N   0  0  0  0  0  0  0  0  0  0  0  0
  -35.0790  -19.1920   14.0820 N   0  0  0  0  0  0  0  0  0  0  0  0
  -34.0540  -17.1030   13.4580 C   0  0  0  0  0  0  0  0  0  0  0  0
  -35.0120  -16.1610   13.8880 C   0  0  0  0  0  3  0  0  0  0  0  0
  -35.0470  -14.8690   13.3210 C   0  0  0  0  0  3  0  0  0  0  0  0
  -34.1160  -14.5070   12.3170 C   0  0  0  0  0  0  0  0  0  0  0  0
  -33.1790  -15.4580   11.8790 C   0  0  0  0  0  3  0  0  0  0  0  0
  -33.1490  -16.7460   12.4400 C   0  0  0  0  0  3  0  0  0  0  0  0
  -34.0920  -13.2860   11.6900 O   0  0  0  0  0  0  0  0  0  0  0  0
  -34.6070  -12.1620   12.2840 C   0  0  0  0  0  0  0  0  0  0  0  0
  -34.1790  -11.7290   13.5590 C   0  0  0  0  0  3  0  0  0  0  0  0
  -34.6830  -10.5300   14.1000 C   0  0  0  0  0  3  0  0  0  0  0  0
  -35.6080   -9.7610   13.3690 C   0  0  0  0  0  0  0  0  0  0  0  0
  -36.0310  -10.1880   12.0980 C   0  0  0  0  0  3  0  0  0  0  0  0
  -35.5300  -11.3850   11.5560 C   0  0  0  0  0  0  0  0  0  0  0  0
  -35.9260  -11.7820   10.3230 F   0  0  0  0  0  0  0  0  0  0  0  0
  -36.0860   -8.6040   13.8860 F   0  0  0  0  0  0  0  0  0  0  0  0
  -31.4370  -18.7280   14.6390 C   0  0  0  0  0  0  0  0  0  0  0  0
  -31.2130  -17.4400   14.8910 N   0  0  0  0  0  0  0  0  0  0  0  0
  -30.5080  -19.5240   14.5250 O   0  0  0  0  0  0  0  0  0  0  0  0
  -31.9710  -16.7870   15.0120 H   0  0  0  0  0  0  0  0  0  0  0  0
  -30.2630  -17.1060   14.9670 H   0  0  0  0  0  0  0  0  0  0  0  0
  -32.7300  -21.5710   15.3630 N   0  0  0  0  0  0  0  0  0  0  0  0
  -31.7280  -21.6030   15.5270 H   0  0  0  0  0  0  0  0  0  0  0  0
  -33.1750  -22.4740   15.4770 H   0  0  0  0  0  0  0  0  0  0  0  0
  1 53  1  0
  2  3  1  0
  3  5  1  0
  3  1  1  0
  4  2  2  0
  6  8  1  0
  6  2  1  0
  7 11  1  0
  7  8  1  0
  8 10  1  0
  9  7  2  0
 12 11  1  0
 13 24  2  0
 14 12  1  0
 14 19  1  0
 15 22  1  0
 15 23  1  0
 15 25  1  0
 16 22  1  0
 16 18  1  0
 17 23  1  0
 18 17  1  0
 19 18  2  0
 20 21  1  0
 20 14  2  0
 21 16  2  0
 23 13  1  0
 25 26  1  0
 25 27  1  0
 27 55  1  0
 28 26  1  0
 29 38  2  0
 29 34  1  0
 30 26  1  0
 30 34  1  0
 31 30  1  0
 32 33  1  0
 32 31  1  0
 33 29  1  0
 34 35  2  0
 35 36  1  0
 37 36  2  0
 38 37  1  0
 39 13  1  0
 39 40  1  0
 39 49  1  0
 40 43  1  0
 41 40  1  0
 41 45  1  0
 42 41  2  0
 45 44  1  0
 47 45  1  0
 47 48  1  0
 47 46  1  0
 49 52  1  1
 49 50  1  0
 51 49  1  0
 53 54  2  0
 55 56  1  0
 55 54  1  0
 57 56  2  0
 58 59  1  0
 58 60  2  0
 59 57  1  0
 61 59  1  0
 62 58  1  0
 63 62  2  0
 64 63  1  0
 65 64  2  0
 66 73  2  0
 66 74  1  0
 67 72  1  0
 68 67  1  0
 69 68  1  0
 70 69  1  0
 70 71  1  0
 71 72  1  0
 72 66  1  0
 74 65  1  0
 75 74  1  0
 76101  1  0
 77 96  1  0
 77 76  2  0
 78 80  2  0
 78 77  1  0
 79 70  1  0
 79 76  1  0
 80 79  1  0
 81 82  1  0
 81 78  1  0
 83 82  2  0
 84 83  1  0
 85 84  2  0
 85 86  1  0
 86 81  2  0
 87 88  1  0
 87 84  1  0
 88 89  1  0
 89 90  2  0
 91 95  1  0
 91 90  1  0
 92 91  2  0
 93 92  1  0
 93 88  2  0
 94 93  1  0
 96 97  1  0
 97100  1  0
 97 99  1  0
 98 96  2  0
101103  1  0
101102  1  0
M  ISO  4  11 101  12 101  66 100  74 100
M  END
>  <TORSDO>  (49) 
F 30

>  <SCORE>  (49) 
9.408

>  <name>  (49) 
54

>  <ligand_id>  (49) 
54

>  <original_smiles>  (49) 
[H]c1c([H])c([H])c2c(c1[H])C([H])([H])C([H])([H])C([H])([H])C2([H])N([H])C(=O)C1([H])N(C(=O)C([H])(N([H])C(=O)C([H])(N([H])C([H])([H])[H])C([H])([H])[H])C(C([H])([H])[H])(C([H])([H])[H])C([H])([H])[H])C([H])([H])c2c([H])c(OC([H])([H])C(=O)N([H])C([H])([H])C(=O)N([H])C([H])([H])C([H])([H])C([H])([H])C([H])([H])C([H])([H])C([H])([H])N([H])C(=O)C([H])([H])C([H])([H])C([H])([H])C([H])([H])N([H])C(=O)N3C([H])([H])C([H])([H])C([H])([H])C([H])(n4nc(-c5c([H])c([H])c(Oc6c([H])c([H])c(F)c([H])c6F)c([H])c5[H])c(C(=O)N([H])[H])c4N([H])[H])C3([H])[H])c([H])c([H])c2C1([H])[H]

>  <smiles>  (49) 
[H]c1c([H])c([H])c2c(c1[H])C([H])([H])C([H])([H])C([H])([H])C2([H])N([H])C(=O)C1([H])N(C(=O)C([H])(N([H])C(=O)C([H])(N([H])C([H])([H])[H])C([H])([H])[H])C(C([H])([H])[H])(C([H])([H])[H])C([H])([H])[H])C([H])([H])c2c([H])c(OC([H])([H])C(=O)N([H])C([H])([H])C(=O)N([H])C([H])([H])C([H])([H])C([H])([H])C([H])([H])C([H])([H])C([H])([H])N([H])C(=O)C([H])([H])C([H])([H])C([H])([H])C([H])([H])N([H])C(=O)N3C([H])([H])C([H])([H])C([H])([H])C([H])(n4nc(-c5c([H])c([H])c(Oc6c([H])c([H])c(F)c([H])c6F)c([H])c5[H])c(C(=O)N([H])[H])c4N([H])[H])C3([H])[H])c([H])c([H])c2C1([H])[H]

$$$$
55:0:0
     RDKit          3D

100107  0  0  1  0  0  0  0  0999 V2000
  -34.7390  -24.0490   24.2360 C   0  0  0  0  0  2  0  0  0  0  0  0
  -34.6650  -25.5460   24.5880 C   0  0  0  0  0  2  0  0  0  0  0  0
  -33.4490  -25.9360   25.4470 C   0  0  0  0  0  2  0  0  0  0  0  0
  -31.5990  -26.5180   23.8860 C   0  0  0  0  0  0  0  0  0  0  0  0
  -32.1900  -25.6890   24.7520 N   0  0  0  0  0  0  0  0  0  0  0  0
  -32.0700  -27.6160   23.5820 O   0  0  0  0  0  0  0  0  0  0  0  0
  -31.7270  -24.8090   24.9440 H   0  0  0  0  0  0  0  0  0  0  0  0
  -30.2820  -26.0320   23.2790 C   0  0  0  0  0  2  0  0  0  0  0  0
  -29.9030  -26.7440   21.9680 C   0  0  0  0  0  2  0  0  0  0  0  0
  -28.6920  -26.0870   21.2960 C   0  0  0  0  0  2  0  0  0  0  0  0
  -28.3920  -26.7350   20.0640 O   0  0  0  0  0  0  0  0  0  0  0  0
  -24.6090  -31.8710   23.2140 C   0  0  0  0  0  0  0  0  0  0  0  0
  -27.2420  -27.4780   20.0950 C   0  0  0  0  0  0  0  0  0  0  0  0
  -23.3970  -30.4920   21.5520 C   0  0  0  0  0  3  0  0  0  0  0  0
  -24.8480  -28.9600   20.1190 C   0  0  0  0  0  0  0  0  0  0  0  0
  -25.9200  -30.8490   21.3620 C   0  0  0  0  0  2  0  0  0  0  0  0
  -26.0020  -29.4830   20.7180 C   0  0  0  0  0  0  0  0  0  0  0  0
  -27.2030  -28.7450   20.7120 C   0  0  0  0  0  3  0  0  0  0  0  0
  -26.0800  -26.9600   19.4910 C   0  0  0  0  0  3  0  0  0  0  0  0
  -24.8790  -27.6940   19.5060 C   0  0  0  0  0  3  0  0  0  0  0  0
  -23.6070  -29.8200   20.1670 C   0  0  0  0  0  2  0  0  0  0  0  0
  -24.6600  -31.0840   22.1020 N   0  0  0  0  0  0  0  0  0  0  0  0
  -23.5290  -32.1440   23.7550 O   0  0  0  0  0  0  0  0  0  0  0  0
  -22.7380  -29.4660   22.5010 C   0  0  0  0  0  0  0  0  0  0  0  0
  -21.4120  -29.3020   22.3750 N   0  0  0  0  0  0  0  0  0  0  0  0
  -23.4170  -28.8210   23.3040 O   0  0  0  0  0  0  0  0  0  0  0  0
  -20.9260  -29.8780   21.7010 H   0  0  0  0  0  0  0  0  0  0  0  0
  -18.0270  -28.1370   22.8490 C   0  0  0  0  0  0  0  0  0  0  0  0
  -20.5850  -28.3640   23.1330 C   0  0  0  0  0  3  0  0  0  0  0  0
  -20.6750  -26.9380   22.5420 C   0  0  0  0  0  2  0  0  0  0  0  0
  -19.5740  -26.6380   21.5210 C   0  0  0  0  0  2  0  0  0  0  0  0
  -18.1910  -26.7920   22.1610 C   0  0  0  0  0  2  0  0  0  0  0  0
  -19.1510  -28.8820   23.2910 C   0  0  0  0  0  0  0  0  0  0  0  0
  -18.9450  -30.1430   23.8920 C   0  0  0  0  0  3  0  0  0  0  0  0
  -17.6450  -30.6580   24.0560 C   0  0  0  0  0  3  0  0  0  0  0  0
  -16.5340  -29.9080   23.6320 C   0  0  0  0  0  3  0  0  0  0  0  0
  -16.7260  -28.6500   23.0350 C   0  0  0  0  0  3  0  0  0  0  0  0
  -25.9000  -32.4840   23.8420 C   0  0  0  0  0  3  0  0  0  0  0  0
  -25.5880  -33.8640   24.2360 N   0  0  0  0  0  0  0  0  0  0  0  0
  -25.9020  -34.9490   23.5150 C   0  0  0  0  0  0  0  0  0  0  0  0
  -26.5580  -34.8930   22.4710 O   0  0  0  0  0  0  0  0  0  0  0  0
  -25.0060  -33.9820   25.0530 H   0  0  0  0  0  0  0  0  0  0  0  0
  -24.1480  -36.7320   23.2640 C   0  0  0  0  0  1  0  0  0  0  0  0
  -25.4100  -36.3130   24.0350 C   0  0  0  0  0  3  0  0  0  0  0  0
  -27.5590  -37.1810   24.8460 C   0  0  0  0  0  1  0  0  0  0  0  0
  -26.4290  -37.3800   23.9420 N   0  0  0  0  0  0  0  0  0  0  0  0
  -26.0190  -38.2880   24.1440 H   0  0  0  0  0  0  0  0  0  0  0  0
  -26.4470  -31.6600   25.0720 C   0  0  1  0  0  0  0  0  0  0  0  0
  -25.3760  -31.3690   26.1490 C   0  0  0  0  0  1  0  0  0  0  0  0
  -27.0290  -30.3050   24.6050 C   0  0  0  0  0  1  0  0  0  0  0  0
  -27.6060  -32.4300   25.7470 C   0  0  0  0  0  1  0  0  0  0  0  0
  -35.9350  -23.7360   23.3180 C   0  0  0  0  0  2  0  0  0  0  0  0
  -36.1560  -22.2350   23.0320 C   0  0  0  0  0  2  0  0  0  0  0  0
  -35.0740  -21.5750   22.1680 C   0  0  0  0  0  0  0  0  0  0  0  0
  -34.7740  -20.3010   22.4540 N   0  0  0  0  0  0  0  0  0  0  0  0
  -34.5240  -22.1990   21.2580 O   0  0  0  0  0  0  0  0  0  0  0  0
  -35.3030  -19.8530   23.1920 H   0  0  0  0  0  0  0  0  0  0  0  0
  -33.7510  -19.4950   21.7940 C   0  0  0  0  0  2  0  0  0  0  0  0
  -32.3740  -19.6930   22.4540 C   0  0  0  0  0  2  0  0  0  0  0  0
  -31.2410  -18.9520   21.7280 C   0  0  0  0  0  2  0  0  0  0  0  0
  -31.2530  -17.4270   21.9230 C   0  0  0  0  0  2  0  0  0  0  0  0
  -30.1510  -16.7670   21.0820 C   0  0  0  0  0  2  0  0  0  0  0  0
  -30.7140  -14.3960   20.6140 C   0  0  0  0  0  0  0  0  0  0  0  0
  -30.4250  -12.2770   19.4020 C   0  0  0  0  0  2  0  0  0  0  0  0
  -29.4940  -12.5240   18.1980 C   0  0  0  0  0  2  0  0  0  0  0  0
  -28.0140  -12.3830   18.6070 C   0  0  0  0  0  2  0  0  0  0  0  0
  -27.6690  -13.1950   19.8840 C   0  0  0  0  0  3  0  0  0  0  0  0
  -28.7080  -12.9210   20.9980 C   0  0  0  0  0  2  0  0  0  0  0  0
  -30.0500  -13.2220   20.4620 N   0  0  0  0  0  0  0  0  0  0  0  0
  -31.7880  -14.6520   20.0620 O   0  0  0  0  0  0  0  0  0  0  0  0
  -30.0340  -15.3280   21.2910 N   0  0  0  0  0  0  0  0  0  0  0  0
  -29.1980  -15.0060   21.7550 H   0  0  0  0  0  0  0  0  0  0  0  0
  -25.2620  -13.8140   20.5650 C   0  0  0  0  0  0  0  0  0  0  0  0
  -24.1850  -13.0440   20.9140 C   0  0  0  0  0  0  0  0  0  0  0  0
  -24.6370  -11.6890   20.8690 C   0  0  0  0  0  0  0  0  0  0  0  0
  -26.3060  -12.9270   20.3380 N   0  0  0  0  0  0  0  0  0  0  0  0
  -25.9290  -11.6440   20.5730 N   0  0  0  0  0  0  0  0  0  0  0  0
  -23.9020  -10.4300   21.0380 C   0  0  0  0  0  0  0  0  0  0  0  0
  -24.3590   -9.4230   21.9170 C   0  0  0  0  0  3  0  0  0  0  0  0
  -23.6290   -8.2260   22.0750 C   0  0  0  0  0  3  0  0  0  0  0  0
  -22.4270   -8.0270   21.3530 C   0  0  0  0  0  0  0  0  0  0  0  0
  -21.9880   -9.0230   20.4630 C   0  0  0  0  0  3  0  0  0  0  0  0
  -22.7180  -10.2130   20.3030 C   0  0  0  0  0  3  0  0  0  0  0  0
  -21.6650   -6.8860   21.4220 O   0  0  0  0  0  0  0  0  0  0  0  0
  -21.6870   -6.0730   22.5260 C   0  0  0  0  0  0  0  0  0  0  0  0
  -21.4020   -6.5630   23.8190 C   0  0  0  0  0  3  0  0  0  0  0  0
  -21.3670   -5.6790   24.9160 C   0  0  0  0  0  3  0  0  0  0  0  0
  -21.6050   -4.3050   24.7220 C   0  0  0  0  0  0  0  0  0  0  0  0
  -21.8830   -3.8140   23.4350 C   0  0  0  0  0  3  0  0  0  0  0  0
  -21.9210   -4.6960   22.3400 C   0  0  0  0  0  0  0  0  0  0  0  0
  -22.1680   -4.2150   21.0980 F   0  0  0  0  0  0  0  0  0  0  0  0
  -21.5640   -3.4530   25.7740 F   0  0  0  0  0  0  0  0  0  0  0  0
  -22.7880  -13.5250   21.1820 C   0  0  0  0  0  0  0  0  0  0  0  0
  -22.0530  -12.8240   22.0380 N   0  0  0  0  0  0  0  0  0  0  0  0
  -22.3570  -14.5560   20.6680 O   0  0  0  0  0  0  0  0  0  0  0  0
  -22.4170  -11.9920   22.4790 H   0  0  0  0  0  0  0  0  0  0  0  0
  -21.1130  -13.1220   22.2540 H   0  0  0  0  0  0  0  0  0  0  0  0
  -25.4410  -15.1860   20.4040 N   0  0  0  0  0  0  0  0  0  0  0  0
  -24.6810  -15.8500   20.5000 H   0  0  0  0  0  0  0  0  0  0  0  0
  -26.3070  -15.6170   20.1040 H   0  0  0  0  0  0  0  0  0  0  0  0
  1  2  1  0
  2  3  1  0
  4  5  1  0
  5  7  1  0
  5  3  1  0
  6  4  2  0
  8  4  1  0
  9  8  1  0
 10  9  1  0
 11 13  1  0
 11 10  1  0
 12 23  2  0
 13 18  1  0
 14 22  1  0
 14 24  1  0
 15 21  1  0
 15 17  1  0
 16 22  1  0
 17 16  1  0
 18 17  2  0
 19 20  1  0
 19 13  2  0
 20 15  2  0
 21 14  1  0
 22 12  1  0
 24 26  2  0
 25 24  1  0
 27 25  1  0
 28 37  2  0
 28 33  1  0
 29 25  1  0
 29 33  1  0
 30 29  1  0
 31 32  1  0
 31 30  1  0
 32 28  1  0
 33 34  2  0
 34 35  1  0
 36 35  2  0
 37 36  1  0
 38 12  1  0
 38 39  1  0
 38 48  1  0
 39 42  1  0
 40 44  1  0
 40 39  1  0
 41 40  2  0
 44 43  1  0
 46 44  1  0
 46 47  1  0
 46 45  1  0
 48 51  1  1
 48 49  1  0
 50 48  1  0
 52  1  1  0
 53 52  1  0
 54 55  1  0
 54 53  1  0
 55 57  1  0
 56 54  2  0
 58 55  1  0
 58 59  1  0
 60 61  1  0
 60 59  1  0
 62 71  1  0
 62 61  1  0
 63 71  1  0
 64 69  1  0
 65 66  1  0
 65 64  1  0
 67 66  1  0
 67 76  1  0
 67 68  1  0
 69 63  1  0
 69 68  1  0
 70 63  2  0
 71 72  1  0
 73 74  2  0
 74 93  1  0
 75 74  1  0
 75 78  1  0
 76 73  1  0
 76 77  1  0
 77 75  2  0
 78 79  1  0
 79 80  2  0
 81 84  1  0
 81 80  1  0
 82 81  2  0
 83 82  1  0
 83 78  2  0
 84 85  1  0
 85 86  1  0
 86 87  2  0
 88 87  1  0
 88 92  1  0
 89 88  2  0
 90 85  2  0
 90 89  1  0
 91 90  1  0
 93 94  1  0
 94 97  1  0
 94 96  1  0
 95 93  2  0
 98 99  1  0
 98 73  1  0
100 98  1  0
M  ISO  4  10 101  11 101  63 100  71 100
M  END
>  <TORSDO>  (50) 
F 30

>  <SCORE>  (50) 
10.371

>  <name>  (50) 
55

>  <ligand_id>  (50) 
55

>  <original_smiles>  (50) 
[H]c1c([H])c([H])c2c(c1[H])C([H])([H])C([H])([H])C([H])([H])C2([H])N([H])C(=O)C1([H])N(C(=O)C([H])(N([H])C(=O)C([H])(N([H])C([H])([H])[H])C([H])([H])[H])C(C([H])([H])[H])(C([H])([H])[H])C([H])([H])[H])C([H])([H])c2c([H])c(OC([H])([H])C([H])([H])C([H])([H])C(=O)N([H])C([H])([H])C([H])([H])C([H])([H])C([H])([H])C([H])([H])C(=O)N([H])C([H])([H])C([H])([H])C([H])([H])C([H])([H])C([H])([H])N([H])C(=O)N3C([H])([H])C([H])([H])C([H])([H])C([H])(n4nc(-c5c([H])c([H])c(Oc6c([H])c([H])c(F)c([H])c6F)c([H])c5[H])c(C(=O)N([H])[H])c4N([H])[H])C3([H])[H])c([H])c([H])c2C1([H])[H]

>  <smiles>  (50) 
[H]c1c([H])c([H])c2c(c1[H])C([H])([H])C([H])([H])C([H])([H])C2([H])N([H])C(=O)C1([H])N(C(=O)C([H])(N([H])C(=O)C([H])(N([H])C([H])([H])[H])C([H])([H])[H])C(C([H])([H])[H])(C([H])([H])[H])C([H])([H])[H])C([H])([H])c2c([H])c(OC([H])([H])C([H])([H])C([H])([H])C(=O)N([H])C([H])([H])C([H])([H])C([H])([H])C([H])([H])C([H])([H])C(=O)N([H])C([H])([H])C([H])([H])C([H])([H])C([H])([H])C([H])([H])N([H])C(=O)N3C([H])([H])C([H])([H])C([H])([H])C([H])(n4nc(-c5c([H])c([H])c(Oc6c([H])c([H])c(F)c([H])c6F)c([H])c5[H])c(C(=O)N([H])[H])c4N([H])[H])C3([H])[H])c([H])c([H])c2C1([H])[H]

$$$$
57:0:0
     RDKit          3D

 98105  0  0  1  0  0  0  0  0999 V2000
  -29.1570  -22.5070   19.5990 C   0  0  0  0  0  3  0  0  0  0  0  0
  -29.7430  -23.9250   19.4230 C   0  0  0  0  0  0  0  0  0  0  0  0
  -30.0590  -24.5630   20.5580 N   0  0  0  0  0  0  0  0  0  0  0  0
  -29.8830  -24.4270   18.3030 O   0  0  0  0  0  0  0  0  0  0  0  0
  -29.8900  -24.0640   21.4220 H   0  0  0  0  0  0  0  0  0  0  0  0
  -30.5500  -25.9340   20.6780 C   0  0  0  0  0  2  0  0  0  0  0  0
  -29.4060  -26.9020   21.0170 C   0  0  0  0  0  2  0  0  0  0  0  0
  -28.3780  -26.7200   20.0520 O   0  0  0  0  0  0  0  0  0  0  0  0
  -24.5820  -31.8840   23.2330 C   0  0  0  0  0  0  0  0  0  0  0  0
  -27.2380  -27.4790   20.1430 C   0  0  0  0  0  0  0  0  0  0  0  0
  -23.3660  -30.4780   21.5960 C   0  0  0  0  0  3  0  0  0  0  0  0
  -24.8190  -28.9410   20.1690 C   0  0  0  0  0  0  0  0  0  0  0  0
  -25.8820  -30.8550   21.3790 C   0  0  0  0  0  2  0  0  0  0  0  0
  -25.9720  -29.4790   20.7540 C   0  0  0  0  0  0  0  0  0  0  0  0
  -27.1790  -28.7540   20.7550 C   0  0  0  0  0  3  0  0  0  0  0  0
  -26.0700  -26.9500   19.5560 C   0  0  0  0  0  3  0  0  0  0  0  0
  -24.8590  -27.6700   19.5720 C   0  0  0  0  0  3  0  0  0  0  0  0
  -23.5700  -29.7900   20.2180 C   0  0  0  0  0  2  0  0  0  0  0  0
  -24.6290  -31.0860   22.1280 N   0  0  0  0  0  0  0  0  0  0  0  0
  -23.5060  -32.1550   23.7810 O   0  0  0  0  0  0  0  0  0  0  0  0
  -22.7260  -29.4560   22.5600 C   0  0  0  0  0  0  0  0  0  0  0  0
  -21.4030  -29.2690   22.4370 N   0  0  0  0  0  0  0  0  0  0  0  0
  -23.4160  -28.8370   23.3740 O   0  0  0  0  0  0  0  0  0  0  0  0
  -20.9130  -29.8160   21.7420 H   0  0  0  0  0  0  0  0  0  0  0  0
  -18.0360  -28.0690   22.9410 C   0  0  0  0  0  0  0  0  0  0  0  0
  -20.5930  -28.3310   23.2110 C   0  0  0  0  0  3  0  0  0  0  0  0
  -20.6990  -26.9000   22.6400 C   0  0  0  0  0  2  0  0  0  0  0  0
  -19.5980  -26.5690   21.6300 C   0  0  0  0  0  2  0  0  0  0  0  0
  -18.2150  -26.7160   22.2720 C   0  0  0  0  0  2  0  0  0  0  0  0
  -19.1530  -28.8340   23.3680 C   0  0  0  0  0  0  0  0  0  0  0  0
  -18.9330  -30.0980   23.9520 C   0  0  0  0  0  3  0  0  0  0  0  0
  -17.6280  -30.6010   24.1140 C   0  0  0  0  0  3  0  0  0  0  0  0
  -16.5250  -29.8300   23.7050 C   0  0  0  0  0  3  0  0  0  0  0  0
  -16.7290  -28.5660   23.1260 C   0  0  0  0  0  3  0  0  0  0  0  0
  -25.8740  -32.5140   23.8430 C   0  0  0  0  0  3  0  0  0  0  0  0
  -26.4030  -31.7460   25.1150 C   0  0  1  0  0  0  0  0  0  0  0  0
  -25.3190  -31.5090   26.1930 C   0  0  0  0  0  1  0  0  0  0  0  0
  -26.9860  -30.3710   24.7170 C   0  0  0  0  0  1  0  0  0  0  0  0
  -27.5630  -32.5390   25.7630 C   0  0  0  0  0  1  0  0  0  0  0  0
  -25.5710  -33.9130   24.1690 N   0  0  0  0  0  0  0  0  0  0  0  0
  -25.9040  -34.9600   23.4030 C   0  0  0  0  0  0  0  0  0  0  0  0
  -26.5740  -34.8500   22.3730 O   0  0  0  0  0  0  0  0  0  0  0  0
  -24.9840  -34.0750   24.9750 H   0  0  0  0  0  0  0  0  0  0  0  0
  -24.1840  -36.7530   23.0280 C   0  0  0  0  0  1  0  0  0  0  0  0
  -25.4190  -36.3520   23.8520 C   0  0  0  0  0  3  0  0  0  0  0  0
  -27.5560  -37.2290   24.6870 C   0  0  0  0  0  1  0  0  0  0  0  0
  -26.4560  -37.4010   23.7410 N   0  0  0  0  0  0  0  0  0  0  0  0
  -26.0530  -38.3220   23.8890 H   0  0  0  0  0  0  0  0  0  0  0  0
  -30.6250  -21.2090   17.9850 C   0  0  0  0  0  0  0  0  0  0  0  0
  -29.4610  -21.5490   18.5420 N   0  0  0  0  0  0  0  0  0  0  0  0
  -31.6890  -21.7940   18.1920 O   0  0  0  0  0  0  0  0  0  0  0  0
  -28.6680  -20.9960   18.2540 H   0  0  0  0  0  0  0  0  0  0  0  0
  -30.5760  -19.9560   17.1100 C   0  0  0  0  0  2  0  0  0  0  0  0
  -29.8250  -18.7810   17.7820 C   0  0  0  0  0  2  0  0  0  0  0  0
  -30.3780  -18.4050   19.1710 C   0  0  0  0  0  2  0  0  0  0  0  0
  -29.6350  -17.2300   19.7940 C   0  0  0  0  0  2  0  0  0  0  0  0
  -30.3600  -16.7000   21.0440 C   0  0  0  0  0  2  0  0  0  0  0  0
  -30.7070  -14.3540   20.4420 C   0  0  0  0  0  0  0  0  0  0  0  0
  -30.3100  -12.2860   19.1710 C   0  0  0  0  0  2  0  0  0  0  0  0
  -29.3530  -12.5760   18.0000 C   0  0  0  0  0  2  0  0  0  0  0  0
  -27.8800  -12.4880   18.4470 C   0  0  0  0  0  2  0  0  0  0  0  0
  -27.6000  -13.2810   19.7500 C   0  0  0  0  0  3  0  0  0  0  0  0
  -28.6560  -12.9480   20.8260 C   0  0  0  0  0  2  0  0  0  0  0  0
  -29.9940  -13.2170   20.2630 N   0  0  0  0  0  0  0  0  0  0  0  0
  -31.7730  -14.5920   19.8640 O   0  0  0  0  0  0  0  0  0  0  0  0
  -30.0920  -15.2780   21.1850 N   0  0  0  0  0  0  0  0  0  0  0  0
  -29.2300  -15.0000   21.6300 H   0  0  0  0  0  0  0  0  0  0  0  0
  -25.2200  -13.9380   20.4850 C   0  0  0  0  0  0  0  0  0  0  0  0
  -24.1440  -13.1830   20.8680 C   0  0  0  0  0  0  0  0  0  0  0  0
  -24.5830  -11.8250   20.8340 C   0  0  0  0  0  0  0  0  0  0  0  0
  -26.2460  -13.0380   20.2410 N   0  0  0  0  0  0  0  0  0  0  0  0
  -25.8650  -11.7620   20.5070 N   0  0  0  0  0  0  0  0  0  0  0  0
  -23.8410  -10.5730   21.0390 C   0  0  0  0  0  0  0  0  0  0  0  0
  -24.2900   -9.5950   21.9520 C   0  0  0  0  0  3  0  0  0  0  0  0
  -23.5560   -8.4060   22.1450 C   0  0  0  0  0  3  0  0  0  0  0  0
  -22.3580   -8.1860   21.4230 C   0  0  0  0  0  0  0  0  0  0  0  0
  -21.9270   -9.1530   20.4980 C   0  0  0  0  0  3  0  0  0  0  0  0
  -22.6610  -10.3340   20.3040 C   0  0  0  0  0  3  0  0  0  0  0  0
  -21.5950   -7.0480   21.5230 O   0  0  0  0  0  0  0  0  0  0  0  0
  -21.5860   -6.2830   22.6630 C   0  0  0  0  0  0  0  0  0  0  0  0
  -21.2320   -6.8240   23.9180 C   0  0  0  0  0  3  0  0  0  0  0  0
  -21.1720   -5.9890   25.0510 C   0  0  0  0  0  3  0  0  0  0  0  0
  -21.4530   -4.6140   24.9310 C   0  0  0  0  0  0  0  0  0  0  0  0
  -21.7970   -4.0740   23.6800 C   0  0  0  0  0  3  0  0  0  0  0  0
  -21.8620   -4.9070   22.5490 C   0  0  0  0  0  0  0  0  0  0  0  0
  -22.1760   -4.3790   21.3410 F   0  0  0  0  0  0  0  0  0  0  0  0
  -21.3850   -3.8110   26.0180 F   0  0  0  0  0  0  0  0  0  0  0  0
  -22.7590  -13.6800   21.1650 C   0  0  0  0  0  0  0  0  0  0  0  0
  -22.0400  -12.9920   22.0440 N   0  0  0  0  0  0  0  0  0  0  0  0
  -22.3250  -14.7100   20.6520 O   0  0  0  0  0  0  0  0  0  0  0  0
  -22.4040  -12.1540   22.4720 H   0  0  0  0  0  0  0  0  0  0  0  0
  -21.1110  -13.3050   22.2870 H   0  0  0  0  0  0  0  0  0  0  0  0
  -25.4120  -15.3060   20.3010 N   0  0  0  0  0  0  0  0  0  0  0  0
  -24.6760  -15.9920   20.4280 H   0  0  0  0  0  0  0  0  0  0  0  0
  -26.2760  -15.7120   19.9610 H   0  0  0  0  0  0  0  0  0  0  0  0
  -26.8150  -22.7070   18.5290 C   0  0  0  0  0  1  0  0  0  0  0  0
  -27.1860  -21.1680   20.4980 C   0  0  0  0  0  1  0  0  0  0  0  0
  -27.6230  -22.4860   19.8260 C   0  0  0  0  0  3  0  0  0  0  0  0
  1  2  1  0
  1 98  1  0
  2  3  1  0
  3  6  1  0
  3  5  1  0
  4  2  2  0
  6  7  1  0
  8 10  1  0
  8  7  1  0
  9 20  2  0
 10 15  1  0
 11 19  1  0
 11 21  1  0
 12 18  1  0
 12 14  1  0
 13 19  1  0
 14 15  2  0
 14 13  1  0
 16 17  1  0
 16 10  2  0
 17 12  2  0
 18 11  1  0
 19  9  1  0
 21 23  2  0
 22 21  1  0
 24 22  1  0
 25 34  2  0
 25 30  1  0
 26 22  1  0
 26 30  1  0
 27 26  1  0
 28 29  1  0
 28 27  1  0
 29 25  1  0
 30 31  2  0
 31 32  1  0
 33 32  2  0
 34 33  1  0
 35  9  1  0
 35 40  1  0
 35 36  1  0
 36 39  1  1
 36 37  1  0
 38 36  1  0
 40 43  1  0
 41 45  1  0
 41 40  1  0
 42 41  2  0
 45 44  1  0
 47 45  1  0
 47 48  1  0
 47 46  1  0
 49 51  2  0
 49 50  1  0
 50  1  1  0
 52 50  1  0
 53 54  1  0
 53 49  1  0
 54 55  1  0
 55 56  1  0
 56 57  1  0
 57 66  1  0
 58 66  1  0
 59 64  1  0
 60 61  1  0
 60 59  1  0
 62 61  1  0
 62 71  1  0
 62 63  1  0
 64 58  1  0
 64 63  1  0
 65 58  2  0
 66 67  1  0
 68 69  2  0
 69 88  1  0
 70 69  1  0
 70 73  1  0
 71 68  1  0
 71 72  1  0
 72 70  2  0
 73 74  1  0
 74 75  2  0
 76 79  1  0
 76 75  1  0
 77 76  2  0
 78 77  1  0
 78 73  2  0
 79 80  1  0
 80 81  1  0
 81 82  2  0
 83 82  1  0
 83 87  1  0
 84 83  2  0
 85 80  2  0
 85 84  1  0
 86 85  1  0
 88 89  1  0
 89 92  1  0
 89 91  1  0
 90 88  2  0
 93 94  1  0
 93 68  1  0
 95 93  1  0
 96 98  1  0
 98 97  1  0
M  ISO  4   7 101   8 101  58 100  66 100
M  END
>  <TORSDO>  (51) 
F 26

>  <SCORE>  (51) 
-11.599

>  <name>  (51) 
57

>  <ligand_id>  (51) 
57

>  <original_smiles>  (51) 
[H]c1c([H])c([H])c2c(c1[H])C([H])([H])C([H])([H])C([H])([H])C2([H])N([H])C(=O)C1([H])N(C(=O)C([H])(N([H])C(=O)C([H])(N([H])C([H])([H])[H])C([H])([H])[H])C(C([H])([H])[H])(C([H])([H])[H])C([H])([H])[H])C([H])([H])c2c([H])c(OC([H])([H])C([H])([H])N([H])C(=O)C([H])(N([H])C(=O)C([H])([H])C([H])([H])C([H])([H])C([H])([H])C([H])([H])N([H])C(=O)N3C([H])([H])C([H])([H])C([H])([H])C([H])(n4nc(-c5c([H])c([H])c(Oc6c([H])c([H])c(F)c([H])c6F)c([H])c5[H])c(C(=O)N([H])[H])c4N([H])[H])C3([H])[H])C([H])(C([H])([H])[H])C([H])([H])[H])c([H])c([H])c2C1([H])[H]

>  <smiles>  (51) 
[H]c1c([H])c([H])c2c(c1[H])C([H])([H])C([H])([H])C([H])([H])C2([H])N([H])C(=O)C1([H])N(C(=O)C([H])(N([H])C(=O)C([H])(N([H])C([H])([H])[H])C([H])([H])[H])C(C([H])([H])[H])(C([H])([H])[H])C([H])([H])[H])C([H])([H])c2c([H])c(OC([H])([H])C([H])([H])N([H])C(=O)C([H])(N([H])C(=O)C([H])([H])C([H])([H])C([H])([H])C([H])([H])C([H])([H])N([H])C(=O)N3C([H])([H])C([H])([H])C([H])([H])C([H])(n4nc(-c5c([H])c([H])c(Oc6c([H])c([H])c(F)c([H])c6F)c([H])c5[H])c(C(=O)N([H])[H])c4N([H])[H])C3([H])[H])C([H])(C([H])([H])[H])C([H])([H])[H])c([H])c([H])c2C1([H])[H]

$$$$
58:0:0
     RDKit          3D

 99106  0  0  1  0  0  0  0  0999 V2000
  -25.5900  -21.4180   18.8720 C   0  0  0  0  0  0  0  0  0  0  0  0
  -25.6660  -22.6750   19.3260 N   0  0  0  0  0  0  0  0  0  0  0  0
  -25.1890  -20.4750   19.5590 O   0  0  0  0  0  0  0  0  0  0  0  0
  -25.9510  -23.3900   18.6690 H   0  0  0  0  0  0  0  0  0  0  0  0
  -25.2470  -23.1350   20.6510 C   0  0  0  0  0  2  0  0  0  0  0  0
  -26.2510  -22.8140   21.7790 C   0  0  0  0  0  2  0  0  0  0  0  0
  -27.2380  -23.9410   22.1230 C   0  0  0  0  0  2  0  0  0  0  0  0
  -28.1670  -24.3430   20.9640 C   0  0  0  0  0  2  0  0  0  0  0  0
  -28.1300  -25.8520   20.6610 C   0  0  0  0  0  2  0  0  0  0  0  0
  -28.4270  -26.1880   19.1850 C   0  0  0  0  0  2  0  0  0  0  0  0
  -28.3070  -27.5900   18.9490 O   0  0  0  0  0  0  0  0  0  0  0  0
  -24.6130  -31.8500   23.2430 C   0  0  0  0  0  0  0  0  0  0  0  0
  -27.0910  -28.1970   19.1720 C   0  0  0  0  0  0  0  0  0  0  0  0
  -23.2930  -30.7290   21.4730 C   0  0  0  0  0  3  0  0  0  0  0  0
  -24.6530  -29.5330   19.6770 C   0  0  0  0  0  0  0  0  0  0  0  0
  -25.7760  -31.2280   21.1310 C   0  0  0  0  0  2  0  0  0  0  0  0
  -25.8420  -30.0020   20.2500 C   0  0  0  0  0  0  0  0  0  0  0  0
  -27.0620  -29.3450   19.9910 C   0  0  0  0  0  3  0  0  0  0  0  0
  -25.8850  -27.7270   18.6050 C   0  0  0  0  0  3  0  0  0  0  0  0
  -24.6690  -28.3910   18.8560 C   0  0  0  0  0  3  0  0  0  0  0  0
  -23.3900  -30.3070   19.9790 C   0  0  0  0  0  2  0  0  0  0  0  0
  -24.5850  -31.2720   22.0100 N   0  0  0  0  0  0  0  0  0  0  0  0
  -23.5810  -31.9750   23.9150 O   0  0  0  0  0  0  0  0  0  0  0  0
  -22.7510  -29.5300   22.2810 C   0  0  0  0  0  0  0  0  0  0  0  0
  -21.4330  -29.2860   22.1760 N   0  0  0  0  0  0  0  0  0  0  0  0
  -23.5070  -28.8280   22.9550 O   0  0  0  0  0  0  0  0  0  0  0  0
  -20.8810  -29.9050   21.5990 H   0  0  0  0  0  0  0  0  0  0  0  0
  -18.1840  -27.7470   22.4950 C   0  0  0  0  0  0  0  0  0  0  0  0
  -20.7150  -28.1840   22.8110 C   0  0  0  0  0  3  0  0  0  0  0  0
  -20.9370  -26.8620   22.0390 C   0  0  0  0  0  2  0  0  0  0  0  0
  -19.8570  -26.5910   20.9860 C   0  0  0  0  0  2  0  0  0  0  0  0
  -18.4740  -26.5260   21.6400 C   0  0  0  0  0  2  0  0  0  0  0  0
  -19.2370  -28.5370   23.0320 C   0  0  0  0  0  0  0  0  0  0  0  0
  -18.9150  -29.6850   23.7890 C   0  0  0  0  0  3  0  0  0  0  0  0
  -17.5730  -30.0430   24.0190 C   0  0  0  0  0  3  0  0  0  0  0  0
  -16.5360  -29.2490   23.5020 C   0  0  0  0  0  3  0  0  0  0  0  0
  -16.8420  -28.1040   22.7460 C   0  0  0  0  0  3  0  0  0  0  0  0
  -25.9380  -32.4040   23.8580 C   0  0  0  0  0  3  0  0  0  0  0  0
  -25.6550  -33.7390   24.3970 N   0  0  0  0  0  0  0  0  0  0  0  0
  -25.9540  -34.8910   23.7800 C   0  0  0  0  0  0  0  0  0  0  0  0
  -26.5720  -34.9350   22.7130 O   0  0  0  0  0  0  0  0  0  0  0  0
  -25.1090  -33.7780   25.2450 H   0  0  0  0  0  0  0  0  0  0  0  0
  -24.2230  -36.7150   23.7540 C   0  0  0  0  0  1  0  0  0  0  0  0
  -25.4920  -36.1980   24.4510 C   0  0  0  0  0  3  0  0  0  0  0  0
  -27.6640  -36.9520   25.3130 C   0  0  0  0  0  1  0  0  0  0  0  0
  -26.5220  -37.2580   24.4550 N   0  0  0  0  0  0  0  0  0  0  0  0
  -26.1280  -38.1430   24.7570 H   0  0  0  0  0  0  0  0  0  0  0  0
  -26.5450  -31.4670   24.9740 C   0  0  1  0  0  0  0  0  0  0  0  0
  -25.5330  -31.0800   26.0770 C   0  0  0  0  0  1  0  0  0  0  0  0
  -27.0880  -30.1580   24.3520 C   0  0  0  0  0  1  0  0  0  0  0  0
  -27.7380  -32.1710   25.6590 C   0  0  0  0  0  1  0  0  0  0  0  0
  -25.9940  -21.1820   17.4140 C   0  0  0  0  0  2  0  0  0  0  0  0
  -26.3770  -19.7780   17.1490 N   0  0  0  0  0  4  0  0  0  0  0  0
  -26.2740  -19.6240   16.1600 H   0  0  0  0  0  0  0  0  0  0  0  0
  -25.7260  -19.1720   17.6250 H   0  0  0  0  0  0  0  0  0  0  0  0
  -27.7670  -19.4090   17.4950 C   0  0  0  0  0  2  0  0  0  0  0  0
  -27.8880  -18.6850   18.8490 C   0  0  0  0  0  2  0  0  0  0  0  0
  -29.3450  -18.4500   19.2540 C   0  0  0  0  0  2  0  0  0  0  0  0
  -29.4670  -17.7050   20.5880 C   0  0  0  0  0  2  0  0  0  0  0  0
  -30.9420  -17.5410   20.9940 C   0  0  0  0  0  2  0  0  0  0  0  0
  -31.2190  -16.3800   21.9690 C   0  0  0  0  0  2  0  0  0  0  0  0
  -30.9460  -14.4320   20.4160 C   0  0  0  0  0  0  0  0  0  0  0  0
  -30.5070  -12.3500   19.1650 C   0  0  0  0  0  2  0  0  0  0  0  0
  -29.5420  -12.5660   17.9870 C   0  0  0  0  0  2  0  0  0  0  0  0
  -28.0830  -12.4310   18.4580 C   0  0  0  0  0  2  0  0  0  0  0  0
  -27.7820  -13.3010   19.7060 C   0  0  0  0  0  3  0  0  0  0  0  0
  -28.8530  -13.0830   20.7990 C   0  0  0  0  0  2  0  0  0  0  0  0
  -30.1890  -13.3240   20.2170 N   0  0  0  0  0  0  0  0  0  0  0  0
  -31.8950  -14.7490   19.6920 O   0  0  0  0  0  0  0  0  0  0  0  0
  -30.6390  -15.1150   21.5230 N   0  0  0  0  0  0  0  0  0  0  0  0
  -29.9050  -14.7230   22.0960 H   0  0  0  0  0  0  0  0  0  0  0  0
  -25.4170  -13.9530   20.5010 C   0  0  0  0  0  0  0  0  0  0  0  0
  -24.3380  -13.1990   20.8730 C   0  0  0  0  0  0  0  0  0  0  0  0
  -24.7570  -11.8360   20.7760 C   0  0  0  0  0  0  0  0  0  0  0  0
  -26.4310  -13.0520   20.2100 N   0  0  0  0  0  0  0  0  0  0  0  0
  -26.0360  -11.7710   20.4280 N   0  0  0  0  0  0  0  0  0  0  0  0
  -23.9980  -10.5890   20.9440 C   0  0  0  0  0  0  0  0  0  0  0  0
  -24.4260   -9.5770   21.8330 C   0  0  0  0  0  3  0  0  0  0  0  0
  -23.6700   -8.3960   21.9880 C   0  0  0  0  0  3  0  0  0  0  0  0
  -22.4720   -8.2160   21.2570 C   0  0  0  0  0  0  0  0  0  0  0  0
  -22.0630   -9.2170   20.3570 C   0  0  0  0  0  3  0  0  0  0  0  0
  -22.8190  -10.3910   20.1990 C   0  0  0  0  0  3  0  0  0  0  0  0
  -21.6890   -7.0900   21.3250 O   0  0  0  0  0  0  0  0  0  0  0  0
  -21.6420   -6.3120   22.4530 C   0  0  0  0  0  0  0  0  0  0  0  0
  -21.2610   -6.8390   23.7060 C   0  0  0  0  0  3  0  0  0  0  0  0
  -21.1590   -5.9890   24.8260 C   0  0  0  0  0  3  0  0  0  0  0  0
  -21.4300   -4.6150   24.6940 C   0  0  0  0  0  0  0  0  0  0  0  0
  -21.8060   -4.0860   23.4460 C   0  0  0  0  0  3  0  0  0  0  0  0
  -21.9090   -4.9330   22.3280 C   0  0  0  0  0  0  0  0  0  0  0  0
  -22.2500   -4.4160   21.1230 F   0  0  0  0  0  0  0  0  0  0  0  0
  -21.3250   -3.7960   25.7670 F   0  0  0  0  0  0  0  0  0  0  0  0
  -22.9650  -13.7070   21.2100 C   0  0  0  0  0  0  0  0  0  0  0  0
  -22.2480  -13.0030   22.0780 N   0  0  0  0  0  0  0  0  0  0  0  0
  -22.5390  -14.7600   20.7370 O   0  0  0  0  0  0  0  0  0  0  0  0
  -22.6040  -12.1480   22.4780 H   0  0  0  0  0  0  0  0  0  0  0  0
  -21.3290  -13.3260   22.3470 H   0  0  0  0  0  0  0  0  0  0  0  0
  -25.6210  -15.3250   20.3720 N   0  0  0  0  0  0  0  0  0  0  0  0
  -24.8850  -15.9980   20.5480 H   0  0  0  0  0  0  0  0  0  0  0  0
  -26.4900  -15.7510   20.0820 H   0  0  0  0  0  0  0  0  0  0  0  0
  1  2  1  0
  1  3  2  0
  2  5  1  0
  4  2  1  0
  5  6  1  0
  6  7  1  0
  8  7  1  0
  9  8  1  0
 10  9  1  0
 11 13  1  0
 11 10  1  0
 12 23  2  0
 13 18  1  0
 14 22  1  0
 14 24  1  0
 15 21  1  0
 15 17  1  0
 16 22  1  0
 17 16  1  0
 18 17  2  0
 19 20  1  0
 19 13  2  0
 20 15  2  0
 21 14  1  0
 22 12  1  0
 24 26  2  0
 25 24  1  0
 27 25  1  0
 28 37  2  0
 28 33  1  0
 29 25  1  0
 29 33  1  0
 30 29  1  0
 31 32  1  0
 31 30  1  0
 32 28  1  0
 33 34  2  0
 34 35  1  0
 36 35  2  0
 37 36  1  0
 38 12  1  0
 38 39  1  0
 38 48  1  0
 39 42  1  0
 40 39  1  0
 40 44  1  0
 41 40  2  0
 44 43  1  0
 44 46  1  0
 46 47  1  0
 46 45  1  0
 48 51  1  1
 48 49  1  0
 50 48  1  0
 52  1  1  0
 53 52  1  0
 53 56  1  0
 53 55  1  0
 54 53  1  0
 56 57  1  0
 57 58  1  0
 58 59  1  0
 59 60  1  0
 60 61  1  0
 62 70  1  0
 63 68  1  0
 64 65  1  0
 64 63  1  0
 66 65  1  0
 66 75  1  0
 66 67  1  0
 68 62  1  0
 68 67  1  0
 69 62  2  0
 70 61  1  0
 70 71  1  0
 72 73  2  0
 73 92  1  0
 74 73  1  0
 74 77  1  0
 75 76  1  0
 75 72  1  0
 76 74  2  0
 77 78  1  0
 78 79  2  0
 80 83  1  0
 80 79  1  0
 81 80  2  0
 82 81  1  0
 82 77  2  0
 83 84  1  0
 84 85  1  0
 85 86  2  0
 87 86  1  0
 87 91  1  0
 88 87  2  0
 89 84  2  0
 89 88  1  0
 90 89  1  0
 92 93  1  0
 93 96  1  0
 93 95  1  0
 94 92  2  0
 97 72  1  0
 97 98  1  0
 99 97  1  0
M  ISO  4  10 101  11 101  62 100  70 100
M  END
>  <TORSDO>  (52) 
F 30

>  <SCORE>  (52) 
-7.933

>  <name>  (52) 
58

>  <ligand_id>  (52) 
58

>  <original_smiles>  (52) 
[H]c1c([H])c([H])c2c(c1[H])C([H])([H])C([H])([H])C([H])([H])C2([H])N([H])C(=O)C1([H])N(C(=O)C([H])(N([H])C(=O)C([H])(N([H])C([H])([H])[H])C([H])([H])[H])C(C([H])([H])[H])(C([H])([H])[H])C([H])([H])[H])C([H])([H])c2c([H])c(OC([H])([H])C([H])([H])C([H])([H])C([H])([H])C([H])([H])C([H])([H])N([H])C(=O)C([H])([H])[N+]([H])([H])C([H])([H])C([H])([H])C([H])([H])C([H])([H])C([H])([H])C([H])([H])N([H])C(=O)N3C([H])([H])C([H])([H])C([H])([H])C([H])(n4nc(-c5c([H])c([H])c(Oc6c([H])c([H])c(F)c([H])c6F)c([H])c5[H])c(C(=O)N([H])[H])c4N([H])[H])C3([H])[H])c([H])c([H])c2C1([H])[H]

>  <smiles>  (52) 
[H]c1c([H])c([H])c2c(c1[H])C([H])([H])C([H])([H])C([H])([H])C2([H])N([H])C(=O)C1([H])N(C(=O)C([H])(N([H])C(=O)C([H])(N([H])C([H])([H])[H])C([H])([H])[H])C(C([H])([H])[H])(C([H])([H])[H])C([H])([H])[H])C([H])([H])c2c([H])c(OC([H])([H])C([H])([H])C([H])([H])C([H])([H])C([H])([H])C([H])([H])N([H])C(=O)C([H])([H])[N+]([H])([H])C([H])([H])C([H])([H])C([H])([H])C([H])([H])C([H])([H])C([H])([H])N([H])C(=O)N3C([H])([H])C([H])([H])C([H])([H])C([H])(n4nc(-c5c([H])c([H])c(Oc6c([H])c([H])c(F)c([H])c6F)c([H])c5[H])c(C(=O)N([H])[H])c4N([H])[H])C3([H])[H])c([H])c([H])c2C1([H])[H]

$$$$
59:0:0
     RDKit          3D

 90 97  0  0  1  0  0  0  0  0999 V2000
  -29.3290  -23.3200   21.1010 N   0  0  0  0  0  4  0  0  0  0  0  0
  -29.4590  -23.1770   22.0920 H   0  0  0  0  0  0  0  0  0  0  0  0
  -28.3670  -23.1050   20.9030 H   0  0  0  0  0  0  0  0  0  0  0  0
  -30.1670  -22.3330   20.3850 C   0  0  0  0  0  2  0  0  0  0  0  0
  -29.3810  -21.0380   20.0790 C   0  0  0  0  0  2  0  0  0  0  0  0
  -29.0720  -20.1340   21.2970 C   0  0  0  0  0  2  0  0  0  0  0  0
  -30.1360  -19.0590   21.5940 C   0  0  0  0  0  2  0  0  0  0  0  0
  -29.8630  -17.7070   20.9020 C   0  0  0  0  0  2  0  0  0  0  0  0
  -30.9370  -16.6490   21.2180 C   0  0  0  0  0  2  0  0  0  0  0  0
  -31.0100  -14.3820   20.1160 C   0  0  0  0  0  0  0  0  0  0  0  0
  -30.6300  -12.2350   18.9580 C   0  0  0  0  0  2  0  0  0  0  0  0
  -29.6590  -12.4560   17.7810 C   0  0  0  0  0  2  0  0  0  0  0  0
  -28.2000  -12.3210   18.2530 C   0  0  0  0  0  2  0  0  0  0  0  0
  -27.9050  -13.2000   19.4980 C   0  0  0  0  0  3  0  0  0  0  0  0
  -28.9720  -12.9750   20.5890 C   0  0  0  0  0  2  0  0  0  0  0  0
  -30.3010  -13.2290   19.9940 N   0  0  0  0  0  0  0  0  0  0  0  0
  -32.0610  -14.5990   19.5040 O   0  0  0  0  0  0  0  0  0  0  0  0
  -30.4580  -15.2970   20.9230 N   0  0  0  0  0  0  0  0  0  0  0  0
  -29.6070  -15.0150   21.3810 H   0  0  0  0  0  0  0  0  0  0  0  0
  -25.5340  -13.8880   20.2380 C   0  0  0  0  0  0  0  0  0  0  0  0
  -24.4540  -13.1520   20.6450 C   0  0  0  0  0  0  0  0  0  0  0  0
  -24.8810  -11.7890   20.6340 C   0  0  0  0  0  0  0  0  0  0  0  0
  -26.5550  -12.9750   20.0070 N   0  0  0  0  0  0  0  0  0  0  0  0
  -26.1630  -11.7070   20.3020 N   0  0  0  0  0  0  0  0  0  0  0  0
  -24.1290  -10.5490   20.8690 C   0  0  0  0  0  0  0  0  0  0  0  0
  -24.5520   -9.5970   21.8240 C   0  0  0  0  0  3  0  0  0  0  0  0
  -23.8030   -8.4190   22.0400 C   0  0  0  0  0  3  0  0  0  0  0  0
  -22.6210   -8.1850   21.3000 C   0  0  0  0  0  0  0  0  0  0  0  0
  -22.2180   -9.1230   20.3340 C   0  0  0  0  0  3  0  0  0  0  0  0
  -22.9650  -10.2900   20.1160 C   0  0  0  0  0  3  0  0  0  0  0  0
  -21.8430   -7.0580   21.4250 O   0  0  0  0  0  0  0  0  0  0  0  0
  -21.7760   -6.3590   22.6040 C   0  0  0  0  0  0  0  0  0  0  0  0
  -21.3680   -6.9690   23.8100 C   0  0  0  0  0  3  0  0  0  0  0  0
  -21.2430   -6.1970   24.9830 C   0  0  0  0  0  3  0  0  0  0  0  0
  -21.5190   -4.8160   24.9500 C   0  0  0  0  0  0  0  0  0  0  0  0
  -21.9180   -4.2060   23.7490 C   0  0  0  0  0  3  0  0  0  0  0  0
  -22.0430   -4.9750   22.5790 C   0  0  0  0  0  0  0  0  0  0  0  0
  -22.4110   -4.3770   21.4190 F   0  0  0  0  0  0  0  0  0  0  0  0
  -21.3910   -4.0740   26.0750 F   0  0  0  0  0  0  0  0  0  0  0  0
  -23.0770  -13.6680   20.9430 C   0  0  0  0  0  0  0  0  0  0  0  0
  -22.3570  -13.0080   21.8430 N   0  0  0  0  0  0  0  0  0  0  0  0
  -22.6490  -14.6910   20.4110 O   0  0  0  0  0  0  0  0  0  0  0  0
  -22.7170  -12.1790   22.2930 H   0  0  0  0  0  0  0  0  0  0  0  0
  -21.4320  -13.3330   22.0900 H   0  0  0  0  0  0  0  0  0  0  0  0
  -25.7350  -15.2500   20.0290 N   0  0  0  0  0  0  0  0  0  0  0  0
  -24.9960  -15.9380   20.1220 H   0  0  0  0  0  0  0  0  0  0  0  0
  -26.6060  -15.6480   19.6980 H   0  0  0  0  0  0  0  0  0  0  0  0
  -29.5590  -24.7530   20.7800 C   0  0  0  0  0  2  0  0  0  0  0  0
  -28.2890  -25.3970   20.2060 C   0  0  0  0  0  2  0  0  0  0  0  0
  -28.4080  -26.8210   20.1940 O   0  0  0  0  0  0  0  0  0  0  0  0
  -24.5540  -31.9390   23.2550 C   0  0  0  0  0  0  0  0  0  0  0  0
  -27.2200  -27.5190   20.1750 C   0  0  0  0  0  0  0  0  0  0  0  0
  -23.3510  -30.5250   21.6200 C   0  0  0  0  0  3  0  0  0  0  0  0
  -24.8120  -28.9950   20.1960 C   0  0  0  0  0  0  0  0  0  0  0  0
  -25.8740  -30.9000   21.4190 C   0  0  0  0  0  2  0  0  0  0  0  0
  -25.9660  -29.5320   20.7780 C   0  0  0  0  0  0  0  0  0  0  0  0
  -27.1700  -28.8000   20.7650 C   0  0  0  0  0  3  0  0  0  0  0  0
  -26.0440  -26.9950   19.5830 C   0  0  0  0  0  3  0  0  0  0  0  0
  -24.8410  -27.7270   19.5960 C   0  0  0  0  0  3  0  0  0  0  0  0
  -23.5630  -29.8460   20.2420 C   0  0  0  0  0  2  0  0  0  0  0  0
  -24.6110  -31.1350   22.1570 N   0  0  0  0  0  0  0  0  0  0  0  0
  -23.4710  -32.2100   23.7930 O   0  0  0  0  0  0  0  0  0  0  0  0
  -22.7100  -29.5000   22.5830 C   0  0  0  0  0  0  0  0  0  0  0  0
  -21.3860  -29.3120   22.4610 N   0  0  0  0  0  0  0  0  0  0  0  0
  -23.3990  -28.8790   23.3970 O   0  0  0  0  0  0  0  0  0  0  0  0
  -20.8910  -29.8650   21.7750 H   0  0  0  0  0  0  0  0  0  0  0  0
  -18.0200  -28.1080   22.9550 C   0  0  0  0  0  0  0  0  0  0  0  0
  -20.5760  -28.3770   23.2360 C   0  0  0  0  0  3  0  0  0  0  0  0
  -20.6860  -26.9430   22.6710 C   0  0  0  0  0  2  0  0  0  0  0  0
  -19.5920  -26.6120   21.6510 C   0  0  0  0  0  2  0  0  0  0  0  0
  -18.2040  -26.7580   22.2830 C   0  0  0  0  0  2  0  0  0  0  0  0
  -19.1350  -28.8740   23.3880 C   0  0  0  0  0  0  0  0  0  0  0  0
  -18.9110  -30.1400   23.9750 C   0  0  0  0  0  3  0  0  0  0  0  0
  -17.6050  -30.6380   24.1320 C   0  0  0  0  0  3  0  0  0  0  0  0
  -16.5050  -29.8700   23.7170 C   0  0  0  0  0  3  0  0  0  0  0  0
  -16.7130  -28.6060   23.1340 C   0  0  0  0  0  3  0  0  0  0  0  0
  -25.8380  -32.5780   23.8690 C   0  0  0  0  0  3  0  0  0  0  0  0
  -26.3680  -31.8110   25.1430 C   0  0  1  0  0  0  0  0  0  0  0  0
  -25.2810  -31.5690   26.2150 C   0  0  0  0  0  1  0  0  0  0  0  0
  -26.9580  -30.4370   24.7480 C   0  0  0  0  0  1  0  0  0  0  0  0
  -27.5160  -32.6150   25.7970 C   0  0  0  0  0  1  0  0  0  0  0  0
  -25.5230  -33.9760   24.1940 N   0  0  0  0  0  0  0  0  0  0  0  0
  -25.8600  -35.0270   23.4360 C   0  0  0  0  0  0  0  0  0  0  0  0
  -26.5360  -34.9220   22.4090 O   0  0  0  0  0  0  0  0  0  0  0  0
  -24.9210  -34.1310   24.9900 H   0  0  0  0  0  0  0  0  0  0  0  0
  -24.1300  -36.8150   23.0590 C   0  0  0  0  0  1  0  0  0  0  0  0
  -25.3620  -36.4120   23.8860 C   0  0  0  0  0  3  0  0  0  0  0  0
  -27.4860  -37.3020   24.7400 C   0  0  0  0  0  1  0  0  0  0  0  0
  -26.3930  -37.4690   23.7860 N   0  0  0  0  0  0  0  0  0  0  0  0
  -25.9850  -38.3880   23.9260 H   0  0  0  0  0  0  0  0  0  0  0  0
  1  2  1  0
  3  1  1  0
  4  1  1  0
  5  4  1  0
  5  6  1  0
  6  7  1  0
  8  9  1  0
  8  7  1  0
 10 18  1  0
 11 16  1  0
 12 13  1  0
 12 11  1  0
 14 13  1  0
 14 23  1  0
 14 15  1  0
 16 10  1  0
 16 15  1  0
 17 10  2  0
 18  9  1  0
 18 19  1  0
 20 21  2  0
 21 40  1  0
 22 21  1  0
 22 25  1  0
 23 20  1  0
 23 24  1  0
 24 22  2  0
 25 26  1  0
 26 27  2  0
 28 31  1  0
 28 27  1  0
 29 28  2  0
 30 29  1  0
 30 25  2  0
 31 32  1  0
 32 33  1  0
 33 34  2  0
 35 34  1  0
 35 39  1  0
 36 35  2  0
 37 32  2  0
 37 36  1  0
 38 37  1  0
 40 41  1  0
 41 44  1  0
 41 43  1  0
 42 40  2  0
 45 46  1  0
 45 20  1  0
 47 45  1  0
 48  1  1  0
 49 48  1  0
 50 49  1  0
 51 62  2  0
 52 50  1  0
 52 57  1  0
 53 61  1  0
 53 63  1  0
 54 60  1  0
 54 56  1  0
 55 61  1  0
 56 55  1  0
 57 56  2  0
 58 59  1  0
 58 52  2  0
 59 54  2  0
 60 53  1  0
 61 51  1  0
 63 65  2  0
 64 63  1  0
 66 64  1  0
 67 76  2  0
 67 72  1  0
 68 64  1  0
 68 72  1  0
 69 68  1  0
 70 71  1  0
 70 69  1  0
 71 67  1  0
 72 73  2  0
 73 74  1  0
 75 74  2  0
 76 75  1  0
 77 51  1  0
 77 82  1  0
 77 78  1  0
 78 81  1  1
 78 79  1  0
 80 78  1  0
 82 85  1  0
 83 87  1  0
 83 82  1  0
 84 83  2  0
 87 86  1  0
 89 87  1  0
 89 90  1  0
 89 88  1  0
M  ISO  4  10 100  18 100  49 101  50 101
M  END
>  <TORSDO>  (53) 
F 24

>  <SCORE>  (53) 
-11.828

>  <name>  (53) 
59

>  <ligand_id>  (53) 
59

>  <original_smiles>  (53) 
[H]c1c([H])c([H])c2c(c1[H])C([H])([H])C([H])([H])C([H])([H])C2([H])N([H])C(=O)C1([H])N(C(=O)C([H])(N([H])C(=O)C([H])(N([H])C([H])([H])[H])C([H])([H])[H])C(C([H])([H])[H])(C([H])([H])[H])C([H])([H])[H])C([H])([H])c2c([H])c(OC([H])([H])C([H])([H])[N+]([H])([H])C([H])([H])C([H])([H])C([H])([H])C([H])([H])C([H])([H])C([H])([H])N([H])C(=O)N3C([H])([H])C([H])([H])C([H])([H])C([H])(n4nc(-c5c([H])c([H])c(Oc6c([H])c([H])c(F)c([H])c6F)c([H])c5[H])c(C(=O)N([H])[H])c4N([H])[H])C3([H])[H])c([H])c([H])c2C1([H])[H]

>  <smiles>  (53) 
[H]c1c([H])c([H])c2c(c1[H])C([H])([H])C([H])([H])C([H])([H])C2([H])N([H])C(=O)C1([H])N(C(=O)C([H])(N([H])C(=O)C([H])(N([H])C([H])([H])[H])C([H])([H])[H])C(C([H])([H])[H])(C([H])([H])[H])C([H])([H])[H])C([H])([H])c2c([H])c(OC([H])([H])C([H])([H])[N+]([H])([H])C([H])([H])C([H])([H])C([H])([H])C([H])([H])C([H])([H])C([H])([H])N([H])C(=O)N3C([H])([H])C([H])([H])C([H])([H])C([H])(n4nc(-c5c([H])c([H])c(Oc6c([H])c([H])c(F)c([H])c6F)c([H])c5[H])c(C(=O)N([H])[H])c4N([H])[H])C3([H])[H])c([H])c([H])c2C1([H])[H]

$$$$
60:0:0
     RDKit          3D

 88 95  0  0  1  0  0  0  0  0999 V2000
  -29.1220  -21.1830   20.9520 C   0  0  0  0  0  0  0  0  0  0  0  0
  -29.0000  -22.3570   20.2290 N   0  0  0  0  0  0  0  0  0  0  0  0
  -28.9780  -21.2090   22.1750 O   0  0  0  0  0  0  0  0  0  0  0  0
  -29.0950  -22.2590   19.2270 H   0  0  0  0  0  0  0  0  0  0  0  0
  -29.5040  -19.9250   20.2140 C   0  0  0  0  0  3  0  0  0  0  0  0
  -29.7080  -18.6780   20.7930 C   0  0  0  0  0  3  0  0  0  0  0  0
  -30.2780  -17.3600   20.1080 C   0  0  0  0  0  2  0  0  0  0  0  0
  -30.6170  -14.7850   20.3000 C   0  0  0  0  0  0  0  0  0  0  0  0
  -30.3680  -12.5220   19.2800 C   0  0  0  0  0  2  0  0  0  0  0  0
  -29.4290  -12.6220   18.0590 C   0  0  0  0  0  2  0  0  0  0  0  0
  -27.9570  -12.4700   18.4910 C   0  0  0  0  0  2  0  0  0  0  0  0
  -27.6030  -13.3440   19.7260 C   0  0  0  0  0  3  0  0  0  0  0  0
  -28.6670  -13.2370   20.8390 C   0  0  0  0  0  2  0  0  0  0  0  0
  -29.9640  -13.5740   20.2410 N   0  0  0  0  0  0  0  0  0  0  0  0
  -31.7920  -14.8630   19.9320 O   0  0  0  0  0  0  0  0  0  0  0  0
  -29.8890  -15.9430   20.5380 N   0  0  0  0  0  0  0  0  0  0  0  0
  -28.9320  -15.8060   20.8260 H   0  0  0  0  0  0  0  0  0  0  0  0
  -25.2180  -13.9350   20.4650 C   0  0  0  0  0  0  0  0  0  0  0  0
  -24.1550  -13.1620   20.8450 C   0  0  0  0  0  0  0  0  0  0  0  0
  -24.6180  -11.8100   20.8140 C   0  0  0  0  0  0  0  0  0  0  0  0
  -26.2610  -13.0560   20.2250 N   0  0  0  0  0  0  0  0  0  0  0  0
  -25.9070  -11.7730   20.4980 N   0  0  0  0  0  0  0  0  0  0  0  0
  -23.8920  -10.5490   21.0120 C   0  0  0  0  0  0  0  0  0  0  0  0
  -24.3300   -9.5810   21.9420 C   0  0  0  0  0  3  0  0  0  0  0  0
  -23.6030   -8.3860   22.1290 C   0  0  0  0  0  3  0  0  0  0  0  0
  -22.4220   -8.1500   21.3850 C   0  0  0  0  0  0  0  0  0  0  0  0
  -22.0020   -9.1060   20.4440 C   0  0  0  0  0  3  0  0  0  0  0  0
  -22.7310  -10.2940   20.2560 C   0  0  0  0  0  3  0  0  0  0  0  0
  -21.6660   -7.0060   21.4810 O   0  0  0  0  0  0  0  0  0  0  0  0
  -21.6300   -6.2610   22.6320 C   0  0  0  0  0  0  0  0  0  0  0  0
  -21.2200   -6.8140   23.8650 C   0  0  0  0  0  3  0  0  0  0  0  0
  -21.1310   -5.9930   25.0080 C   0  0  0  0  0  3  0  0  0  0  0  0
  -21.4410   -4.6240   24.9190 C   0  0  0  0  0  0  0  0  0  0  0  0
  -21.8450   -4.0710   23.6920 C   0  0  0  0  0  3  0  0  0  0  0  0
  -21.9350   -4.8880   22.5500 C   0  0  0  0  0  0  0  0  0  0  0  0
  -22.3030   -4.3450   21.3640 F   0  0  0  0  0  0  0  0  0  0  0  0
  -21.3510   -3.8350   26.0160 F   0  0  0  0  0  0  0  0  0  0  0  0
  -22.7590  -13.6410   21.1210 C   0  0  0  0  0  0  0  0  0  0  0  0
  -22.0350  -12.9500   21.9940 N   0  0  0  0  0  0  0  0  0  0  0  0
  -22.3190  -14.6630   20.5970 O   0  0  0  0  0  0  0  0  0  0  0  0
  -22.4040  -12.1250   22.4430 H   0  0  0  0  0  0  0  0  0  0  0  0
  -21.0980  -13.2540   22.2210 H   0  0  0  0  0  0  0  0  0  0  0  0
  -25.3790  -15.3050   20.2830 N   0  0  0  0  0  0  0  0  0  0  0  0
  -24.6090  -15.9570   20.3980 H   0  0  0  0  0  0  0  0  0  0  0  0
  -26.2190  -15.7460   19.9300 H   0  0  0  0  0  0  0  0  0  0  0  0
  -28.9870  -23.8060   20.7370 C   0  0  0  0  0  3  0  0  0  0  0  0
  -28.0570  -24.9270   20.0310 C   0  0  0  0  0  3  0  0  0  0  0  0
  -28.2680  -26.4040   20.2680 O   0  0  0  0  0  0  0  0  0  0  0  0
  -24.6040  -31.9140   23.2220 C   0  0  0  0  0  0  0  0  0  0  0  0
  -27.1810  -27.3060   20.1740 C   0  0  0  0  0  0  0  0  0  0  0  0
  -23.3950  -30.5240   21.5800 C   0  0  0  0  0  3  0  0  0  0  0  0
  -24.8390  -28.9720   20.1450 C   0  0  0  0  0  0  0  0  0  0  0  0
  -25.9380  -30.8230   21.3990 C   0  0  0  0  0  2  0  0  0  0  0  0
  -26.0110  -29.4410   20.7510 C   0  0  0  0  0  0  0  0  0  0  0  0
  -27.1840  -28.6180   20.7580 C   0  0  0  0  0  3  0  0  0  0  0  0
  -25.9910  -26.9150   19.5180 C   0  0  0  0  0  3  0  0  0  0  0  0
  -24.8340  -27.7180   19.5180 C   0  0  0  0  0  3  0  0  0  0  0  0
  -23.6080  -29.8560   20.1970 C   0  0  0  0  0  2  0  0  0  0  0  0
  -24.6650  -31.1060   22.1230 N   0  0  0  0  0  0  0  0  0  0  0  0
  -23.5210  -32.1960   23.7560 O   0  0  0  0  0  0  0  0  0  0  0  0
  -22.7300  -29.5060   22.5390 C   0  0  0  0  0  0  0  0  0  0  0  0
  -21.4020  -29.3320   22.4180 N   0  0  0  0  0  0  0  0  0  0  0  0
  -23.4080  -28.8780   23.3560 O   0  0  0  0  0  0  0  0  0  0  0  0
  -20.9110  -29.8920   21.7350 H   0  0  0  0  0  0  0  0  0  0  0  0
  -18.0240  -28.1470   22.9350 C   0  0  0  0  0  0  0  0  0  0  0  0
  -20.5850  -28.3960   23.1910 C   0  0  0  0  0  3  0  0  0  0  0  0
  -20.6770  -26.9650   22.6100 C   0  0  0  0  0  2  0  0  0  0  0  0
  -19.5670  -26.6500   21.6020 C   0  0  0  0  0  2  0  0  0  0  0  0
  -18.1900  -26.7990   22.2530 C   0  0  0  0  0  2  0  0  0  0  0  0
  -19.1480  -28.9030   23.3610 C   0  0  0  0  0  0  0  0  0  0  0  0
  -18.9370  -30.1640   23.9590 C   0  0  0  0  0  3  0  0  0  0  0  0
  -17.6340  -30.6700   24.1330 C   0  0  0  0  0  3  0  0  0  0  0  0
  -16.5250  -29.9120   23.7210 C   0  0  0  0  0  3  0  0  0  0  0  0
  -16.7210  -28.6510   23.1270 C   0  0  0  0  0  3  0  0  0  0  0  0
  -25.8870  -32.5440   23.8430 C   0  0  0  0  0  3  0  0  0  0  0  0
  -26.3980  -31.7750   25.1240 C   0  0  1  0  0  0  0  0  0  0  0  0
  -25.3030  -31.5510   26.1920 C   0  0  0  0  0  1  0  0  0  0  0  0
  -26.9730  -30.3910   24.7400 C   0  0  0  0  0  1  0  0  0  0  0  0
  -27.5520  -32.5650   25.7850 C   0  0  0  0  0  1  0  0  0  0  0  0
  -25.5820  -33.9440   24.1700 N   0  0  0  0  0  0  0  0  0  0  0  0
  -25.9120  -34.9940   23.4060 C   0  0  0  0  0  0  0  0  0  0  0  0
  -26.5760  -34.8850   22.3710 O   0  0  0  0  0  0  0  0  0  0  0  0
  -24.9920  -34.1010   24.9730 H   0  0  0  0  0  0  0  0  0  0  0  0
  -24.1860  -36.7920   23.0620 C   0  0  0  0  0  1  0  0  0  0  0  0
  -25.4320  -36.3850   23.8640 C   0  0  0  0  0  3  0  0  0  0  0  0
  -27.5750  -37.2700   24.6750 C   0  0  0  0  0  1  0  0  0  0  0  0
  -26.4660  -37.4360   23.7390 N   0  0  0  0  0  0  0  0  0  0  0  0
  -26.0620  -38.3560   23.8870 H   0  0  0  0  0  0  0  0  0  0  0  0
  1  3  2  0
  2 46  1  0
  2  1  1  0
  4  2  1  0
  5  6  2  0
  5  1  1  0
  7 16  1  0
  7  6  1  0
  8 16  1  0
  9 14  1  0
 10 11  1  0
 10  9  1  0
 12 11  1  0
 12 21  1  0
 12 13  1  0
 14  8  1  0
 14 13  1  0
 15  8  2  0
 16 17  1  0
 18 19  2  0
 19 38  1  0
 20 19  1  0
 20 23  1  0
 21 18  1  0
 21 22  1  0
 22 20  2  0
 23 24  1  0
 24 25  2  0
 26 29  1  0
 26 25  1  0
 27 26  2  0
 28 27  1  0
 28 23  2  0
 29 30  1  0
 30 31  1  0
 31 32  2  0
 33 32  1  0
 33 37  1  0
 34 33  2  0
 35 30  2  0
 35 34  1  0
 36 35  1  0
 38 39  1  0
 39 42  1  0
 39 41  1  0
 40 38  2  0
 43 44  1  0
 43 18  1  0
 45 43  1  0
 47 48  1  0
 47 46  2  0
 49 60  2  0
 50 48  1  0
 50 55  1  0
 51 59  1  0
 51 61  1  0
 52 58  1  0
 52 54  1  0
 53 59  1  0
 54 55  2  0
 54 53  1  0
 56 50  2  0
 57 56  1  0
 57 52  2  0
 58 51  1  0
 59 49  1  0
 61 63  2  0
 62 61  1  0
 64 62  1  0
 65 74  2  0
 65 70  1  0
 66 62  1  0
 66 70  1  0
 67 66  1  0
 68 69  1  0
 68 67  1  0
 69 65  1  0
 70 71  2  0
 71 72  1  0
 73 72  2  0
 74 73  1  0
 75 49  1  0
 75 80  1  0
 75 76  1  0
 76 79  1  1
 76 77  1  0
 78 76  1  0
 80 83  1  0
 81 85  1  0
 81 80  1  0
 82 81  2  0
 85 84  1  0
 87 85  1  0
 87 88  1  0
 87 86  1  0
M  ISO  4   8 100  16 100  47 101  48 101
M  END
>  <TORSDO>  (54) 
F 20

>  <SCORE>  (54) 
-13.638

>  <name>  (54) 
60

>  <ligand_id>  (54) 
60

>  <original_smiles>  (54) 
[H]C(C(=O)N([H])C([H])([H])C([H])([H])Oc1c([H])c([H])c2c(c1[H])C([H])([H])N(C(=O)C([H])(N([H])C(=O)C([H])(N([H])C([H])([H])[H])C([H])([H])[H])C(C([H])([H])[H])(C([H])([H])[H])C([H])([H])[H])C([H])(C(=O)N([H])C1([H])c3c([H])c([H])c([H])c([H])c3C([H])([H])C([H])([H])C1([H])[H])C2([H])[H])=C([H])C([H])([H])N([H])C(=O)N1C([H])([H])C([H])([H])C([H])([H])C([H])(n2nc(-c3c([H])c([H])c(Oc4c([H])c([H])c(F)c([H])c4F)c([H])c3[H])c(C(=O)N([H])[H])c2N([H])[H])C1([H])[H]

>  <smiles>  (54) 
[H]C(C(=O)N([H])C([H])([H])C([H])([H])Oc1c([H])c([H])c2c(c1[H])C([H])([H])N(C(=O)C([H])(N([H])C(=O)C([H])(N([H])C([H])([H])[H])C([H])([H])[H])C(C([H])([H])[H])(C([H])([H])[H])C([H])([H])[H])C([H])(C(=O)N([H])C1([H])c3c([H])c([H])c([H])c([H])c3C([H])([H])C([H])([H])C1([H])[H])C2([H])[H])=C([H])C([H])([H])N([H])C(=O)N1C([H])([H])C([H])([H])C([H])([H])C([H])(n2nc(-c3c([H])c([H])c(Oc4c([H])c([H])c(F)c([H])c4F)c([H])c3[H])c(C(=O)N([H])[H])c2N([H])[H])C1([H])[H]

$$$$
61:0:0
     RDKit          3D

 99106  0  0  1  0  0  0  0  0999 V2000
  -32.7530  -18.0780   23.8220 C   0  0  0  0  0  2  0  0  0  0  0  0
  -34.0420  -17.2520   23.8910 C   0  0  0  0  0  0  0  0  0  0  0  0
  -33.9170  -16.0150   24.3960 N   0  0  0  0  0  0  0  0  0  0  0  0
  -35.1070  -17.6800   23.4410 O   0  0  0  0  0  0  0  0  0  0  0  0
  -33.0170  -15.7570   24.7840 H   0  0  0  0  0  0  0  0  0  0  0  0
  -34.8900  -14.9360   24.1880 C   0  0  0  0  0  2  0  0  0  0  0  0
  -34.3720  -13.9190   23.1470 C   0  0  0  0  0  0  0  0  0  0  0  0
  -33.0390  -13.8280   23.0380 N   0  0  0  0  0  0  0  0  0  0  0  0
  -35.1510  -13.2710   22.4490 O   0  0  0  0  0  0  0  0  0  0  0  0
  -32.5250  -14.3890   23.7020 H   0  0  0  0  0  0  0  0  0  0  0  0
  -32.2360  -13.1800   22.0170 C   0  0  0  0  0  2  0  0  0  0  0  0
  -31.6250  -14.2670   21.1010 C   0  0  0  0  0  2  0  0  0  0  0  0
  -29.7550  -14.1500   19.4490 C   0  0  0  0  0  0  0  0  0  0  0  0
  -28.9530  -12.4470   17.8950 C   0  0  0  0  0  2  0  0  0  0  0  0
  -27.7370  -12.7580   17.0170 C   0  0  0  0  0  2  0  0  0  0  0  0
  -26.4280  -12.4760   17.7720 C   0  0  0  0  0  2  0  0  0  0  0  0
  -26.3960  -13.1350   19.1750 C   0  0  0  0  0  3  0  0  0  0  0  0
  -27.6900  -12.8450   19.9750 C   0  0  0  0  0  2  0  0  0  0  0  0
  -28.8560  -13.1990   19.1480 N   0  0  0  0  0  0  0  0  0  0  0  0
  -30.3190  -14.8780   18.6240 O   0  0  0  0  0  0  0  0  0  0  0  0
  -30.2830  -13.9000   20.6540 N   0  0  0  0  0  0  0  0  0  0  0  0
  -29.7960  -13.1980   21.1960 H   0  0  0  0  0  0  0  0  0  0  0  0
  -24.1310  -13.5000   20.3580 C   0  0  0  0  0  0  0  0  0  0  0  0
  -23.2410  -12.6230   20.9160 C   0  0  0  0  0  0  0  0  0  0  0  0
  -23.8150  -11.3240   20.7620 C   0  0  0  0  0  0  0  0  0  0  0  0
  -25.1970  -12.7300   19.9140 N   0  0  0  0  0  0  0  0  0  0  0  0
  -25.0180  -11.4180   20.2110 N   0  0  0  0  0  0  0  0  0  0  0  0
  -23.2670   -9.9960   21.0640 C   0  0  0  0  0  0  0  0  0  0  0  0
  -23.9380   -9.1000   21.9280 C   0  0  0  0  0  3  0  0  0  0  0  0
  -23.3840   -7.8350   22.2220 C   0  0  0  0  0  3  0  0  0  0  0  0
  -22.1470   -7.4510   21.6500 C   0  0  0  0  0  0  0  0  0  0  0  0
  -21.4930   -8.3350   20.7750 C   0  0  0  0  0  3  0  0  0  0  0  0
  -22.0490   -9.5940   20.4800 C   0  0  0  0  0  3  0  0  0  0  0  0
  -21.5530   -6.2270   21.8470 O   0  0  0  0  0  0  0  0  0  0  0  0
  -21.7190   -5.5260   23.0120 C   0  0  0  0  0  0  0  0  0  0  0  0
  -21.4160   -6.0910   24.2680 C   0  0  0  0  0  3  0  0  0  0  0  0
  -21.5400   -5.3170   25.4390 C   0  0  0  0  0  3  0  0  0  0  0  0
  -21.9520   -3.9720   25.3520 C   0  0  0  0  0  0  0  0  0  0  0  0
  -22.2510   -3.4060   24.0970 C   0  0  0  0  0  3  0  0  0  0  0  0
  -22.1290   -4.1820   22.9310 C   0  0  0  0  0  0  0  0  0  0  0  0
  -22.3970   -3.6260   21.7250 F   0  0  0  0  0  0  0  0  0  0  0  0
  -22.0660   -3.2220   26.4730 F   0  0  0  0  0  0  0  0  0  0  0  0
  -21.8860  -12.9530   21.4690 C   0  0  0  0  0  0  0  0  0  0  0  0
  -21.4410  -12.2110   22.4780 N   0  0  0  0  0  0  0  0  0  0  0  0
  -21.2320  -13.9040   21.0430 O   0  0  0  0  0  0  0  0  0  0  0  0
  -21.9870  -11.4370   22.8290 H   0  0  0  0  0  0  0  0  0  0  0  0
  -20.5450  -12.4180   22.9010 H   0  0  0  0  0  0  0  0  0  0  0  0
  -24.1200  -14.8820   20.1820 N   0  0  0  0  0  0  0  0  0  0  0  0
  -23.3320  -15.4520   20.4680 H   0  0  0  0  0  0  0  0  0  0  0  0
  -24.8530  -15.4130   19.7230 H   0  0  0  0  0  0  0  0  0  0  0  0
  -32.7630  -18.9240   22.6760 O   0  0  0  0  0  0  0  0  0  0  0  0
  -31.4550  -19.3070   22.2690 C   0  0  0  0  0  2  0  0  0  0  0  0
  -31.5730  -20.4140   21.2130 C   0  0  0  0  0  2  0  0  0  0  0  0
  -30.2040  -20.8860   20.6880 C   0  0  0  0  0  2  0  0  0  0  0  0
  -30.3210  -22.1710   19.8510 C   0  0  0  0  0  2  0  0  0  0  0  0
  -28.9620  -22.8130   19.5140 C   0  0  0  0  0  2  0  0  0  0  0  0
  -29.0700  -24.3440   19.3860 C   0  0  0  0  0  2  0  0  0  0  0  0
  -27.7250  -25.0200   19.1130 C   0  0  0  0  0  2  0  0  0  0  0  0
  -27.8570  -26.4340   19.2780 O   0  0  0  0  0  0  0  0  0  0  0  0
  -24.4570  -31.4180   23.0580 C   0  0  0  0  0  0  0  0  0  0  0  0
  -26.6930  -27.1600   19.4370 C   0  0  0  0  0  0  0  0  0  0  0  0
  -23.0710  -30.1480   21.4540 C   0  0  0  0  0  3  0  0  0  0  0  0
  -24.3460  -28.6960   19.7950 C   0  0  0  0  0  0  0  0  0  0  0  0
  -25.5740  -30.4820   21.0350 C   0  0  0  0  0  2  0  0  0  0  0  0
  -25.5680  -29.1580   20.3000 C   0  0  0  0  0  0  0  0  0  0  0  0
  -26.7430  -28.3970   20.1170 C   0  0  0  0  0  3  0  0  0  0  0  0
  -25.4490  -26.7150   18.9310 C   0  0  0  0  0  3  0  0  0  0  0  0
  -24.2790  -27.4720   19.1130 C   0  0  0  0  0  3  0  0  0  0  0  0
  -23.1350  -29.5690   20.0170 C   0  0  0  0  0  2  0  0  0  0  0  0
  -24.3930  -30.6920   21.9060 N   0  0  0  0  0  0  0  0  0  0  0  0
  -23.4370  -31.6660   23.7150 O   0  0  0  0  0  0  0  0  0  0  0  0
  -22.4950  -29.0690   22.3980 C   0  0  0  0  0  0  0  0  0  0  0  0
  -21.1850  -28.8000   22.2690 N   0  0  0  0  0  0  0  0  0  0  0  0
  -23.2210  -28.4800   23.2020 O   0  0  0  0  0  0  0  0  0  0  0  0
  -20.6590  -29.3290   21.5880 H   0  0  0  0  0  0  0  0  0  0  0  0
  -17.9390  -27.2590   22.6290 C   0  0  0  0  0  0  0  0  0  0  0  0
  -20.4330  -27.8030   23.0300 C   0  0  0  0  0  3  0  0  0  0  0  0
  -20.7240  -26.3760   22.5090 C   0  0  0  0  0  2  0  0  0  0  0  0
  -19.7210  -25.9040   21.4520 C   0  0  0  0  0  2  0  0  0  0  0  0
  -18.2970  -25.9170   22.0130 C   0  0  0  0  0  2  0  0  0  0  0  0
  -18.9410  -28.1510   23.0910 C   0  0  0  0  0  0  0  0  0  0  0  0
  -18.5530  -29.4010   23.6200 C   0  0  0  0  0  3  0  0  0  0  0  0
  -17.1940  -29.7610   23.6940 C   0  0  0  0  0  3  0  0  0  0  0  0
  -16.2050  -28.8670   23.2470 C   0  0  0  0  0  3  0  0  0  0  0  0
  -16.5780  -27.6180   22.7200 C   0  0  0  0  0  3  0  0  0  0  0  0
  -25.8080  -31.9850   23.5930 C   0  0  0  0  0  3  0  0  0  0  0  0
  -25.5710  -33.3720   24.0110 N   0  0  0  0  0  0  0  0  0  0  0  0
  -25.8990  -34.4500   23.2890 C   0  0  0  0  0  0  0  0  0  0  0  0
  -26.5090  -34.3790   22.2180 O   0  0  0  0  0  0  0  0  0  0  0  0
  -25.0300  -33.5050   24.8530 H   0  0  0  0  0  0  0  0  0  0  0  0
  -24.2270  -36.3200   23.1090 C   0  0  0  0  0  1  0  0  0  0  0  0
  -25.4850  -35.8280   23.8410 C   0  0  0  0  0  3  0  0  0  0  0  0
  -27.6920  -36.5830   24.6090 C   0  0  0  0  0  1  0  0  0  0  0  0
  -26.5510  -36.8460   23.7360 N   0  0  0  0  0  0  0  0  0  0  0  0
  -26.1910  -37.7710   23.9590 H   0  0  0  0  0  0  0  0  0  0  0  0
  -26.4130  -31.1360   24.7780 C   0  0  1  0  0  0  0  0  0  0  0  0
  -25.4050  -30.8490   25.9140 C   0  0  0  0  0  1  0  0  0  0  0  0
  -26.9420  -29.7780   24.2590 C   0  0  0  0  0  1  0  0  0  0  0  0
  -27.6240  -31.8780   25.3890 C   0  0  0  0  0  1  0  0  0  0  0  0
  1  2  1  0
  2  3  1  0
  3  5  1  0
  4  2  2  0
  6  3  1  0
  7  6  1  0
  8  7  1  0
  8 10  1  0
  9  7  2  0
 11  8  1  0
 12 11  1  0
 13 21  1  0
 14 19  1  0
 15 16  1  0
 15 14  1  0
 17 16  1  0
 17 26  1  0
 17 18  1  0
 19 13  1  0
 19 18  1  0
 20 13  2  0
 21 12  1  0
 21 22  1  0
 23 24  2  0
 24 43  1  0
 25 24  1  0
 25 28  1  0
 26 27  1  0
 26 23  1  0
 27 25  2  0
 28 29  1  0
 29 30  2  0
 31 34  1  0
 31 30  1  0
 32 31  2  0
 33 32  1  0
 33 28  2  0
 34 35  1  0
 35 36  1  0
 36 37  2  0
 38 37  1  0
 38 42  1  0
 39 38  2  0
 40 35  2  0
 40 39  1  0
 41 40  1  0
 43 44  1  0
 44 46  1  0
 44 47  1  0
 45 43  2  0
 48 23  1  0
 48 49  1  0
 50 48  1  0
 51  1  1  0
 52 51  1  0
 53 52  1  0
 54 53  1  0
 55 54  1  0
 56 55  1  0
 57 56  1  0
 58 59  1  0
 58 57  1  0
 59 61  1  0
 60 71  2  0
 61 66  1  0
 62 70  1  0
 62 72  1  0
 63 69  1  0
 63 65  1  0
 64 70  1  0
 65 64  1  0
 66 65  2  0
 67 68  1  0
 67 61  2  0
 68 63  2  0
 69 62  1  0
 70 60  1  0
 72 74  2  0
 73 72  1  0
 75 73  1  0
 76 85  2  0
 76 81  1  0
 77 73  1  0
 77 81  1  0
 78 77  1  0
 79 80  1  0
 79 78  1  0
 80 76  1  0
 81 82  2  0
 82 83  1  0
 84 83  2  0
 85 84  1  0
 86 60  1  0
 86 87  1  0
 86 96  1  0
 87 90  1  0
 88 92  1  0
 88 87  1  0
 89 88  2  0
 92 91  1  0
 94 92  1  0
 94 95  1  0
 94 93  1  0
 96 99  1  1
 96 97  1  0
 98 96  1  0
M  ISO  4  13 100  21 100  58 101  59 101
M  END
>  <TORSDO>  (55) 
F 29

>  <SCORE>  (55) 
27.427

>  <name>  (55) 
61

>  <ligand_id>  (55) 
61

>  <original_smiles>  (55) 
[H]c1c([H])c([H])c2c(c1[H])C([H])([H])C([H])([H])C([H])([H])C2([H])N([H])C(=O)C1([H])N(C(=O)C([H])(N([H])C(=O)C([H])(N([H])C([H])([H])[H])C([H])([H])[H])C(C([H])([H])[H])(C([H])([H])[H])C([H])([H])[H])C([H])([H])c2c([H])c(OC([H])([H])C([H])([H])C([H])([H])C([H])([H])C([H])([H])C([H])([H])C([H])([H])OC([H])([H])C(=O)N([H])C([H])([H])C(=O)N([H])C([H])([H])C([H])([H])N([H])C(=O)N3C([H])([H])C([H])([H])C([H])([H])C([H])(n4nc(-c5c([H])c([H])c(Oc6c([H])c([H])c(F)c([H])c6F)c([H])c5[H])c(C(=O)N([H])[H])c4N([H])[H])C3([H])[H])c([H])c([H])c2C1([H])[H]

>  <smiles>  (55) 
[H]c1c([H])c([H])c2c(c1[H])C([H])([H])C([H])([H])C([H])([H])C2([H])N([H])C(=O)C1([H])N(C(=O)C([H])(N([H])C(=O)C([H])(N([H])C([H])([H])[H])C([H])([H])[H])C(C([H])([H])[H])(C([H])([H])[H])C([H])([H])[H])C([H])([H])c2c([H])c(OC([H])([H])C([H])([H])C([H])([H])C([H])([H])C([H])([H])C([H])([H])C([H])([H])OC([H])([H])C(=O)N([H])C([H])([H])C(=O)N([H])C([H])([H])C([H])([H])N([H])C(=O)N3C([H])([H])C([H])([H])C([H])([H])C([H])(n4nc(-c5c([H])c([H])c(Oc6c([H])c([H])c(F)c([H])c6F)c([H])c5[H])c(C(=O)N([H])[H])c4N([H])[H])C3([H])[H])c([H])c([H])c2C1([H])[H]

$$$$
62:0:0
     RDKit          3D

104111  0  0  1  0  0  0  0  0999 V2000
  -23.3720  -20.3420   16.1070 C   0  0  0  0  0  2  0  0  0  0  0  0
  -25.7580  -20.4330   16.8310 C   0  0  0  0  0  0  0  0  0  0  0  0
  -24.4620  -20.1980   17.0650 N   0  0  0  0  0  0  0  0  0  0  0  0
  -26.1910  -20.7240   15.7130 O   0  0  0  0  0  0  0  0  0  0  0  0
  -24.2050  -19.9270   18.0040 H   0  0  0  0  0  0  0  0  0  0  0  0
  -26.6890  -20.3110   18.0400 C   0  0  0  0  0  2  0  0  0  0  0  0
  -28.0540  -21.0020   17.8770 C   0  0  0  0  0  2  0  0  0  0  0  0
  -27.9580  -22.3930   18.1690 O   0  0  0  0  0  0  0  0  0  0  0  0
  -29.1550  -23.1060   17.8810 C   0  0  0  0  0  2  0  0  0  0  0  0
  -29.6950  -23.7120   19.1840 C   0  0  0  0  0  2  0  0  0  0  0  0
  -28.8420  -24.8510   19.7730 C   0  0  0  0  0  2  0  0  0  0  0  0
  -29.0590  -26.1980   19.0540 C   0  0  0  0  0  2  0  0  0  0  0  0
  -28.8430  -27.3070   19.9240 O   0  0  0  0  0  0  0  0  0  0  0  0
  -24.7670  -31.9660   23.3930 C   0  0  0  0  0  0  0  0  0  0  0  0
  -27.6000  -27.8930   19.9880 C   0  0  0  0  0  0  0  0  0  0  0  0
  -23.6090  -30.5990   21.6840 C   0  0  0  0  0  3  0  0  0  0  0  0
  -25.1170  -29.2320   20.1480 C   0  0  0  0  0  0  0  0  0  0  0  0
  -26.1060  -31.1110   21.4740 C   0  0  0  0  0  2  0  0  0  0  0  0
  -26.2490  -29.7870   20.7530 C   0  0  0  0  0  0  0  0  0  0  0  0
  -27.4880  -29.1160   20.6850 C   0  0  0  0  0  3  0  0  0  0  0  0
  -26.4440  -27.3340   19.3970 C   0  0  0  0  0  3  0  0  0  0  0  0
  -25.2050  -28.0000   19.4780 C   0  0  0  0  0  3  0  0  0  0  0  0
  -23.8290  -30.0160   20.2630 C   0  0  0  0  0  2  0  0  0  0  0  0
  -24.8450  -31.2390   22.2420 N   0  0  0  0  0  0  0  0  0  0  0  0
  -23.6840  -32.1410   23.9670 O   0  0  0  0  0  0  0  0  0  0  0  0
  -23.0370  -29.4860   22.5890 C   0  0  0  0  0  0  0  0  0  0  0  0
  -21.7380  -29.1910   22.4220 N   0  0  0  0  0  0  0  0  0  0  0  0
  -23.7590  -28.8900   23.3930 O   0  0  0  0  0  0  0  0  0  0  0  0
  -21.2130  -29.7280   21.7470 H   0  0  0  0  0  0  0  0  0  0  0  0
  -18.4960  -27.6270   22.7250 C   0  0  0  0  0  0  0  0  0  0  0  0
  -20.9930  -28.1550   23.1370 C   0  0  0  0  0  3  0  0  0  0  0  0
  -21.2820  -26.7550   22.5480 C   0  0  0  0  0  2  0  0  0  0  0  0
  -20.2770  -26.3340   21.4720 C   0  0  0  0  0  2  0  0  0  0  0  0
  -18.8550  -26.3170   22.0440 C   0  0  0  0  0  2  0  0  0  0  0  0
  -19.5010  -28.4980   23.2250 C   0  0  0  0  0  0  0  0  0  0  0  0
  -19.1150  -29.7200   23.8150 C   0  0  0  0  0  3  0  0  0  0  0  0
  -17.7570  -30.0740   23.9170 C   0  0  0  0  0  3  0  0  0  0  0  0
  -16.7660  -29.2000   23.4370 C   0  0  0  0  0  3  0  0  0  0  0  0
  -17.1360  -27.9800   22.8450 C   0  0  0  0  0  3  0  0  0  0  0  0
  -26.0300  -32.6300   24.0290 C   0  0  0  0  0  3  0  0  0  0  0  0
  -26.5780  -31.8480   25.2840 C   0  0  1  0  0  0  0  0  0  0  0  0
  -25.4980  -31.5380   26.3460 C   0  0  0  0  0  1  0  0  0  0  0  0
  -27.2160  -30.5070   24.8530 C   0  0  0  0  0  1  0  0  0  0  0  0
  -27.6970  -32.6700   25.9680 C   0  0  0  0  0  1  0  0  0  0  0  0
  -25.6700  -34.0070   24.3930 N   0  0  0  0  0  0  0  0  0  0  0  0
  -25.9720  -35.0890   23.6650 C   0  0  0  0  0  0  0  0  0  0  0  0
  -26.6570  -35.0380   22.6390 O   0  0  0  0  0  0  0  0  0  0  0  0
  -25.0700  -34.1200   25.1960 H   0  0  0  0  0  0  0  0  0  0  0  0
  -24.1780  -36.8170   23.3370 C   0  0  0  0  0  1  0  0  0  0  0  0
  -25.4280  -36.4460   24.1510 C   0  0  0  0  0  3  0  0  0  0  0  0
  -27.5210  -37.3850   25.0210 C   0  0  0  0  0  1  0  0  0  0  0  0
  -26.4200  -37.5400   24.0740 N   0  0  0  0  0  0  0  0  0  0  0  0
  -25.9780  -38.4400   24.2450 H   0  0  0  0  0  0  0  0  0  0  0  0
  -22.7890  -21.7710   16.0850 C   0  0  0  0  0  2  0  0  0  0  0  0
  -22.5650  -22.3940   17.4800 C   0  0  0  0  0  2  0  0  0  0  0  0
  -23.4740  -23.6070   17.7660 C   0  0  0  0  0  2  0  0  0  0  0  0
  -23.5560  -23.9790   19.2540 C   0  0  0  0  0  2  0  0  0  0  0  0
  -25.4280  -23.6690   20.8720 C   0  0  0  0  0  0  0  0  0  0  0  0
  -24.5820  -23.1970   19.9470 N   0  0  0  0  0  0  0  0  0  0  0  0
  -25.4030  -24.8370   21.2600 O   0  0  0  0  0  0  0  0  0  0  0  0
  -24.6460  -22.2150   19.7140 H   0  0  0  0  0  0  0  0  0  0  0  0
  -26.4360  -22.6820   21.4780 C   0  0  0  0  0  2  0  0  0  0  0  0
  -27.8460  -23.2850   21.6620 C   0  0  0  0  0  2  0  0  0  0  0  0
  -28.8110  -22.3560   22.4240 C   0  0  0  0  0  2  0  0  0  0  0  0
  -30.2050  -22.9820   22.6190 C   0  0  0  0  0  2  0  0  0  0  0  0
  -31.1730  -22.1240   23.4560 C   0  0  0  0  0  2  0  0  0  0  0  0
  -32.4290  -20.3770   22.1880 C   0  0  0  0  0  0  0  0  0  0  0  0
  -33.3740  -18.5300   20.8530 C   0  0  0  0  0  2  0  0  0  0  0  0
  -32.7790  -18.5340   19.4320 C   0  0  0  0  0  2  0  0  0  0  0  0
  -31.4520  -17.7490   19.3900 C   0  0  0  0  0  2  0  0  0  0  0  0
  -30.4740  -18.1740   20.5180 C   0  0  0  0  0  3  0  0  0  0  0  0
  -31.1970  -18.1970   21.8830 C   0  0  0  0  0  2  0  0  0  0  0  0
  -32.3690  -19.0870   21.7690 N   0  0  0  0  0  0  0  0  0  0  0  0
  -33.3760  -21.1300   21.9390 O   0  0  0  0  0  0  0  0  0  0  0  0
  -31.3680  -20.7900   22.8940 N   0  0  0  0  0  0  0  0  0  0  0  0
  -30.6490  -20.1040   23.0680 H   0  0  0  0  0  0  0  0  0  0  0  0
  -27.9550  -17.6530   20.4030 C   0  0  0  0  0  0  0  0  0  0  0  0
  -27.2640  -16.4710   20.4440 C   0  0  0  0  0  0  0  0  0  0  0  0
  -28.2440  -15.4460   20.6110 C   0  0  0  0  0  0  0  0  0  0  0  0
  -29.2920  -17.3160   20.5480 N   0  0  0  0  0  0  0  0  0  0  0  0
  -29.4530  -15.9790   20.7260 N   0  0  0  0  0  0  0  0  0  0  0  0
  -28.1090  -13.9830   20.6080 C   0  0  0  0  0  0  0  0  0  0  0  0
  -28.9480  -13.1630   21.3950 C   0  0  0  0  0  3  0  0  0  0  0  0
  -28.7870  -11.7620   21.3890 C   0  0  0  0  0  3  0  0  0  0  0  0
  -27.7770  -11.1660   20.5970 C   0  0  0  0  0  0  0  0  0  0  0  0
  -26.9600  -11.9850   19.7990 C   0  0  0  0  0  3  0  0  0  0  0  0
  -27.1250  -13.3800   19.8000 C   0  0  0  0  0  3  0  0  0  0  0  0
  -27.5640   -9.8120   20.5090 O   0  0  0  0  0  0  0  0  0  0  0  0
  -28.2230   -8.9250   21.3220 C   0  0  0  0  0  0  0  0  0  0  0  0
  -28.4170   -9.1780   22.6970 C   0  0  0  0  0  3  0  0  0  0  0  0
  -29.0390   -8.2080   23.5110 C   0  0  0  0  0  3  0  0  0  0  0  0
  -29.4570   -6.9840   22.9550 C   0  0  0  0  0  0  0  0  0  0  0  0
  -29.2600   -6.7300   21.5860 C   0  0  0  0  0  3  0  0  0  0  0  0
  -28.6410   -7.6950   20.7730 C   0  0  0  0  0  0  0  0  0  0  0  0
  -28.4340   -7.4360   19.4600 F   0  0  0  0  0  0  0  0  0  0  0  0
  -30.0470   -6.0510   23.7360 F   0  0  0  0  0  0  0  0  0  0  0  0
  -25.7860  -16.2920   20.2460 C   0  0  0  0  0  0  0  0  0  0  0  0
  -25.2010  -15.2840   20.8830 N   0  0  0  0  0  0  0  0  0  0  0  0
  -25.1320  -17.0760   19.5600 O   0  0  0  0  0  0  0  0  0  0  0  0
  -25.7340  -14.6510   21.4620 H   0  0  0  0  0  0  0  0  0  0  0  0
  -24.2040  -15.1420   20.7920 H   0  0  0  0  0  0  0  0  0  0  0  0
  -27.5640  -18.9770   20.2350 N   0  0  0  0  0  0  0  0  0  0  0  0
  -26.5970  -19.2400   20.0750 H   0  0  0  0  0  0  0  0  0  0  0  0
  -28.2030  -19.7600   20.1840 H   0  0  0  0  0  0  0  0  0  0  0  0
  1  3  1  0
  2  3  1  0
  2  6  1  0
  3  5  1  0
  4  2  2  0
  7  6  1  0
  7  8  1  0
  9  8  1  0
  9 10  1  0
 10 11  1  0
 12 11  1  0
 12 13  1  0
 13 15  1  0
 14 25  2  0
 15 20  1  0
 16 24  1  0
 16 26  1  0
 17 23  1  0
 17 19  1  0
 18 24  1  0
 19 18  1  0
 20 19  2  0
 21 22  1  0
 21 15  2  0
 22 17  2  0
 23 16  1  0
 24 14  1  0
 26 28  2  0
 27 26  1  0
 29 27  1  0
 30 39  2  0
 30 35  1  0
 31 27  1  0
 31 35  1  0
 32 31  1  0
 33 34  1  0
 33 32  1  0
 34 30  1  0
 35 36  2  0
 36 37  1  0
 38 37  2  0
 39 38  1  0
 40 14  1  0
 40 45  1  0
 40 41  1  0
 41 44  1  1
 41 42  1  0
 43 41  1  0
 45 48  1  0
 46 50  1  0
 46 45  1  0
 47 46  2  0
 50 49  1  0
 52 50  1  0
 52 53  1  0
 52 51  1  0
 54  1  1  0
 54 55  1  0
 55 56  1  0
 56 57  1  0
 57 59  1  0
 58 60  2  0
 58 62  1  0
 59 58  1  0
 61 59  1  0
 62 63  1  0
 63 64  1  0
 64 65  1  0
 65 66  1  0
 67 75  1  0
 68 73  1  0
 69 68  1  0
 70 69  1  0
 71 70  1  0
 71 80  1  0
 71 72  1  0
 73 72  1  0
 73 67  1  0
 74 67  2  0
 75 76  1  0
 75 66  1  0
 77 78  2  0
 77 80  1  0
 78 79  1  0
 79 81  2  0
 80 81  1  0
 82 79  1  0
 82 83  1  0
 84 83  2  0
 85 84  1  0
 86 87  1  0
 86 85  2  0
 87 82  2  0
 88 85  1  0
 88 89  1  0
 89 90  1  0
 90 91  2  0
 92 91  1  0
 92 96  1  0
 93 92  2  0
 94 89  2  0
 94 93  1  0
 95 94  1  0
 97 78  1  0
 97 98  1  0
 98100  1  0
 99 97  2  0
101 98  1  0
102 77  1  0
103102  1  0
104102  1  0
M  ISO  4  12 101  13 101  67 100  75 100
M  END
>  <TORSDO>  (56) 
F 34

>  <SCORE>  (56) 
-5.078

>  <name>  (56) 
62

>  <ligand_id>  (56) 
62

>  <original_smiles>  (56) 
[H]c1c([H])c([H])c2c(c1[H])C([H])([H])C([H])([H])C([H])([H])C2([H])N([H])C(=O)C1([H])N(C(=O)C([H])(N([H])C(=O)C([H])(N([H])C([H])([H])[H])C([H])([H])[H])C(C([H])([H])[H])(C([H])([H])[H])C([H])([H])[H])C([H])([H])c2c([H])c(OC([H])([H])C([H])([H])C([H])([H])C([H])([H])OC([H])([H])C([H])([H])C(=O)N([H])C([H])([H])C([H])([H])C([H])([H])C([H])([H])C([H])([H])N([H])C(=O)C([H])([H])C([H])([H])C([H])([H])C([H])([H])C([H])([H])N([H])C(=O)N3C([H])([H])C([H])([H])C([H])([H])C([H])(n4nc(-c5c([H])c([H])c(Oc6c([H])c([H])c(F)c([H])c6F)c([H])c5[H])c(C(=O)N([H])[H])c4N([H])[H])C3([H])[H])c([H])c([H])c2C1([H])[H]

>  <smiles>  (56) 
[H]c1c([H])c([H])c2c(c1[H])C([H])([H])C([H])([H])C([H])([H])C2([H])N([H])C(=O)C1([H])N(C(=O)C([H])(N([H])C(=O)C([H])(N([H])C([H])([H])[H])C([H])([H])[H])C(C([H])([H])[H])(C([H])([H])[H])C([H])([H])[H])C([H])([H])c2c([H])c(OC([H])([H])C([H])([H])C([H])([H])C([H])([H])OC([H])([H])C([H])([H])C(=O)N([H])C([H])([H])C([H])([H])C([H])([H])C([H])([H])C([H])([H])N([H])C(=O)C([H])([H])C([H])([H])C([H])([H])C([H])([H])C([H])([H])N([H])C(=O)N3C([H])([H])C([H])([H])C([H])([H])C([H])(n4nc(-c5c([H])c([H])c(Oc6c([H])c([H])c(F)c([H])c6F)c([H])c5[H])c(C(=O)N([H])[H])c4N([H])[H])C3([H])[H])c([H])c([H])c2C1([H])[H]

$$$$
63:0:0
     RDKit          3D

 97104  0  0  1  0  0  0  0  0999 V2000
  -32.2970  -22.5210   18.9220 C   0  0  0  0  0  2  0  0  0  0  0  0
  -31.1140  -20.9450   20.4530 C   0  0  0  0  0  0  0  0  0  0  0  0
  -31.1980  -21.6330   19.3080 N   0  0  0  0  0  0  0  0  0  0  0  0
  -31.9020  -21.1120   21.3870 O   0  0  0  0  0  0  0  0  0  0  0  0
  -30.5090  -21.4210   18.5960 H   0  0  0  0  0  0  0  0  0  0  0  0
  -29.9840  -19.9190   20.5730 C   0  0  0  0  0  2  0  0  0  0  0  0
  -30.0910  -17.4900   21.0800 C   0  0  0  0  0  0  0  0  0  0  0  0
  -30.4650  -18.7510   21.3040 N   0  0  0  0  0  0  0  0  0  0  0  0
  -29.2090  -17.1960   20.2690 O   0  0  0  0  0  0  0  0  0  0  0  0
  -31.2030  -18.9320   21.9760 H   0  0  0  0  0  0  0  0  0  0  0  0
  -30.8060  -16.4040   21.8950 C   0  0  0  0  0  2  0  0  0  0  0  0
  -30.7510  -14.3560   20.4780 C   0  0  0  0  0  0  0  0  0  0  0  0
  -30.3440  -12.3430   19.1080 C   0  0  0  0  0  2  0  0  0  0  0  0
  -29.3790  -12.6440   17.9460 C   0  0  0  0  0  2  0  0  0  0  0  0
  -27.9130  -12.5030   18.3970 C   0  0  0  0  0  2  0  0  0  0  0  0
  -27.6200  -13.2760   19.7090 C   0  0  0  0  0  3  0  0  0  0  0  0
  -28.6820  -12.9460   20.7810 C   0  0  0  0  0  2  0  0  0  0  0  0
  -30.0190  -13.2420   20.2250 N   0  0  0  0  0  0  0  0  0  0  0  0
  -31.7410  -14.6880   19.8190 O   0  0  0  0  0  0  0  0  0  0  0  0
  -30.3410  -15.0650   21.5360 N   0  0  0  0  0  0  0  0  0  0  0  0
  -29.5370  -14.7150   22.0330 H   0  0  0  0  0  0  0  0  0  0  0  0
  -25.2240  -13.8960   20.4270 C   0  0  0  0  0  0  0  0  0  0  0  0
  -24.1550  -13.1280   20.8060 C   0  0  0  0  0  0  0  0  0  0  0  0
  -24.6110  -11.7740   20.7750 C   0  0  0  0  0  0  0  0  0  0  0  0
  -26.2660  -13.0100   20.1930 N   0  0  0  0  0  0  0  0  0  0  0  0
  -25.8990  -11.7300   20.4550 N   0  0  0  0  0  0  0  0  0  0  0  0
  -23.8840  -10.5140   20.9750 C   0  0  0  0  0  0  0  0  0  0  0  0
  -24.3150   -9.5550   21.9170 C   0  0  0  0  0  3  0  0  0  0  0  0
  -23.5890   -8.3590   22.1050 C   0  0  0  0  0  3  0  0  0  0  0  0
  -22.4160   -8.1150   21.3500 C   0  0  0  0  0  0  0  0  0  0  0  0
  -22.0030   -9.0640   20.3980 C   0  0  0  0  0  3  0  0  0  0  0  0
  -22.7310  -10.2510   20.2100 C   0  0  0  0  0  3  0  0  0  0  0  0
  -21.6610   -6.9720   21.4470 O   0  0  0  0  0  0  0  0  0  0  0  0
  -21.6080   -6.2390   22.6060 C   0  0  0  0  0  0  0  0  0  0  0  0
  -21.1810   -6.8070   23.8260 C   0  0  0  0  0  3  0  0  0  0  0  0
  -21.0750   -6.0010   24.9770 C   0  0  0  0  0  3  0  0  0  0  0  0
  -21.3850   -4.6290   24.9100 C   0  0  0  0  0  0  0  0  0  0  0  0
  -21.8040   -4.0620   23.6940 C   0  0  0  0  0  3  0  0  0  0  0  0
  -21.9120   -4.8640   22.5440 C   0  0  0  0  0  0  0  0  0  0  0  0
  -22.2960   -4.3080   21.3700 F   0  0  0  0  0  0  0  0  0  0  0  0
  -21.2750   -3.8540   26.0140 F   0  0  0  0  0  0  0  0  0  0  0  0
  -22.7620  -13.6090   21.0920 C   0  0  0  0  0  0  0  0  0  0  0  0
  -22.0400  -12.9150   21.9650 N   0  0  0  0  0  0  0  0  0  0  0  0
  -22.3230  -14.6370   20.5770 O   0  0  0  0  0  0  0  0  0  0  0  0
  -22.4060  -12.0840   22.4030 H   0  0  0  0  0  0  0  0  0  0  0  0
  -21.1050  -13.2200   22.1970 H   0  0  0  0  0  0  0  0  0  0  0  0
  -25.3950  -15.2660   20.2470 N   0  0  0  0  0  0  0  0  0  0  0  0
  -24.6390  -15.9300   20.3710 H   0  0  0  0  0  0  0  0  0  0  0  0
  -26.2590  -15.7010   19.9480 H   0  0  0  0  0  0  0  0  0  0  0  0
  -31.8650  -23.9900   18.7630 C   0  0  0  0  0  2  0  0  0  0  0  0
  -31.2620  -24.5470   19.9930 N   0  0  0  0  0  4  0  0  0  0  0  0
  -30.3370  -24.1580   20.0890 H   0  0  0  0  0  0  0  0  0  0  0  0
  -31.8120  -24.2390   20.7800 H   0  0  0  0  0  0  0  0  0  0  0  0
  -31.1940  -26.0250   19.9880 C   0  0  0  0  0  2  0  0  0  0  0  0
  -30.5410  -26.6300   21.2490 C   0  0  0  0  0  2  0  0  0  0  0  0
  -29.0320  -26.3860   21.3650 C   0  0  0  0  0  2  0  0  0  0  0  0
  -28.4200  -26.7010   20.1200 O   0  0  0  0  0  0  0  0  0  0  0  0
  -24.6220  -31.8650   23.2370 C   0  0  0  0  0  0  0  0  0  0  0  0
  -27.2710  -27.4430   20.1810 C   0  0  0  0  0  0  0  0  0  0  0  0
  -23.4160  -30.4560   21.6000 C   0  0  0  0  0  3  0  0  0  0  0  0
  -24.8710  -28.9160   20.1840 C   0  0  0  0  0  0  0  0  0  0  0  0
  -25.9340  -30.8270   21.3940 C   0  0  0  0  0  2  0  0  0  0  0  0
  -26.0240  -29.4530   20.7730 C   0  0  0  0  0  0  0  0  0  0  0  0
  -27.2270  -28.7190   20.7800 C   0  0  0  0  0  3  0  0  0  0  0  0
  -26.1120  -26.9140   19.5810 C   0  0  0  0  0  3  0  0  0  0  0  0
  -24.9070  -27.6400   19.5930 C   0  0  0  0  0  3  0  0  0  0  0  0
  -23.6250  -29.7690   20.2240 C   0  0  0  0  0  2  0  0  0  0  0  0
  -24.6770  -31.0640   22.1360 N   0  0  0  0  0  0  0  0  0  0  0  0
  -23.5420  -32.1350   23.7790 O   0  0  0  0  0  0  0  0  0  0  0  0
  -22.7710  -29.4360   22.5640 C   0  0  0  0  0  0  0  0  0  0  0  0
  -21.4470  -29.2520   22.4390 N   0  0  0  0  0  0  0  0  0  0  0  0
  -23.4580  -28.8130   23.3780 O   0  0  0  0  0  0  0  0  0  0  0  0
  -20.9530  -29.8050   21.7530 H   0  0  0  0  0  0  0  0  0  0  0  0
  -18.0730  -28.0760   22.9590 C   0  0  0  0  0  0  0  0  0  0  0  0
  -20.6330  -28.3160   23.2160 C   0  0  0  0  0  3  0  0  0  0  0  0
  -20.7250  -26.8860   22.6350 C   0  0  0  0  0  2  0  0  0  0  0  0
  -19.6140  -26.5720   21.6280 C   0  0  0  0  0  2  0  0  0  0  0  0
  -18.2370  -26.7260   22.2800 C   0  0  0  0  0  2  0  0  0  0  0  0
  -19.1990  -28.8290   23.3850 C   0  0  0  0  0  0  0  0  0  0  0  0
  -18.9930  -30.0940   23.9760 C   0  0  0  0  0  3  0  0  0  0  0  0
  -17.6920  -30.6050   24.1500 C   0  0  0  0  0  3  0  0  0  0  0  0
  -16.5810  -29.8490   23.7400 C   0  0  0  0  0  3  0  0  0  0  0  0
  -16.7720  -28.5880   23.1490 C   0  0  0  0  0  3  0  0  0  0  0  0
  -25.9090  -32.5000   23.8510 C   0  0  0  0  0  3  0  0  0  0  0  0
  -26.4320  -31.7310   25.1260 C   0  0  1  0  0  0  0  0  0  0  0  0
  -25.3440  -31.4920   26.1990 C   0  0  0  0  0  1  0  0  0  0  0  0
  -27.0170  -30.3580   24.7280 C   0  0  0  0  0  1  0  0  0  0  0  0
  -27.5830  -32.5280   25.7850 C   0  0  0  0  0  1  0  0  0  0  0  0
  -25.5970  -33.8970   24.1790 N   0  0  0  0  0  0  0  0  0  0  0  0
  -25.9300  -34.9480   23.4160 C   0  0  0  0  0  0  0  0  0  0  0  0
  -26.6020  -34.8420   22.3860 O   0  0  0  0  0  0  0  0  0  0  0  0
  -24.9990  -34.0540   24.9760 H   0  0  0  0  0  0  0  0  0  0  0  0
  -24.2010  -36.7340   23.0480 C   0  0  0  0  0  1  0  0  0  0  0  0
  -25.4390  -36.3360   23.8680 C   0  0  0  0  0  3  0  0  0  0  0  0
  -27.5690  -37.2220   24.7060 C   0  0  0  0  0  1  0  0  0  0  0  0
  -26.4710  -37.3900   23.7580 N   0  0  0  0  0  0  0  0  0  0  0  0
  -26.0620  -38.3090   23.9070 H   0  0  0  0  0  0  0  0  0  0  0  0
  1  3  1  0
  2  6  1  0
  2  4  2  0
  3  2  1  0
  5  3  1  0
  6  8  1  0
  7  8  1  0
  7 11  1  0
  8 10  1  0
  9  7  2  0
 12 20  1  0
 13 18  1  0
 14 15  1  0
 14 13  1  0
 16 15  1  0
 16 25  1  0
 16 17  1  0
 18 12  1  0
 18 17  1  0
 19 12  2  0
 20 11  1  0
 20 21  1  0
 22 23  2  0
 23 42  1  0
 24 23  1  0
 24 27  1  0
 25 22  1  0
 25 26  1  0
 26 24  2  0
 27 28  1  0
 28 29  2  0
 30 33  1  0
 30 29  1  0
 31 30  2  0
 32 31  1  0
 32 27  2  0
 33 34  1  0
 34 35  1  0
 35 36  2  0
 37 36  1  0
 37 41  1  0
 38 37  2  0
 39 34  2  0
 39 38  1  0
 40 39  1  0
 42 43  1  0
 43 46  1  0
 43 45  1  0
 44 42  2  0
 47 48  1  0
 47 22  1  0
 49 47  1  0
 50  1  1  0
 50 51  1  0
 51 52  1  0
 51 53  1  0
 54 51  1  0
 54 55  1  0
 55 56  1  0
 57 59  1  0
 57 56  1  0
 58 69  2  0
 59 64  1  0
 60 68  1  0
 60 70  1  0
 61 67  1  0
 61 63  1  0
 62 68  1  0
 63 64  2  0
 63 62  1  0
 65 66  1  0
 65 59  2  0
 66 61  2  0
 67 60  1  0
 68 58  1  0
 70 72  2  0
 71 70  1  0
 73 71  1  0
 74 83  2  0
 74 79  1  0
 75 71  1  0
 75 79  1  0
 76 75  1  0
 77 78  1  0
 77 76  1  0
 78 74  1  0
 79 80  2  0
 80 81  1  0
 82 81  2  0
 83 82  1  0
 84 58  1  0
 84 89  1  0
 84 85  1  0
 85 88  1  1
 85 86  1  0
 87 85  1  0
 89 92  1  0
 90 94  1  0
 90 89  1  0
 91 90  2  0
 94 93  1  0
 96 94  1  0
 96 97  1  0
 96 95  1  0
M  ISO  4  12 100  20 100  56 101  57 101
M  END
>  <TORSDO>  (57) 
F 25

>  <SCORE>  (57) 
-12.385

>  <name>  (57) 
63

>  <ligand_id>  (57) 
63

>  <original_smiles>  (57) 
[H]c1c([H])c([H])c2c(c1[H])C([H])([H])C([H])([H])C([H])([H])C2([H])N([H])C(=O)C1([H])N(C(=O)C([H])(N([H])C(=O)C([H])(N([H])C([H])([H])[H])C([H])([H])[H])C(C([H])([H])[H])(C([H])([H])[H])C([H])([H])[H])C([H])([H])c2c([H])c(OC([H])([H])C([H])([H])C([H])([H])[N+]([H])([H])C([H])([H])C([H])([H])N([H])C(=O)C([H])([H])N([H])C(=O)C([H])([H])N([H])C(=O)N3C([H])([H])C([H])([H])C([H])([H])C([H])(n4nc(-c5c([H])c([H])c(Oc6c([H])c([H])c(F)c([H])c6F)c([H])c5[H])c(C(=O)N([H])[H])c4N([H])[H])C3([H])[H])c([H])c([H])c2C1([H])[H]

>  <smiles>  (57) 
[H]c1c([H])c([H])c2c(c1[H])C([H])([H])C([H])([H])C([H])([H])C2([H])N([H])C(=O)C1([H])N(C(=O)C([H])(N([H])C(=O)C([H])(N([H])C([H])([H])[H])C([H])([H])[H])C(C([H])([H])[H])(C([H])([H])[H])C([H])([H])[H])C([H])([H])c2c([H])c(OC([H])([H])C([H])([H])C([H])([H])[N+]([H])([H])C([H])([H])C([H])([H])N([H])C(=O)C([H])([H])N([H])C(=O)C([H])([H])N([H])C(=O)N3C([H])([H])C([H])([H])C([H])([H])C([H])(n4nc(-c5c([H])c([H])c(Oc6c([H])c([H])c(F)c([H])c6F)c([H])c5[H])c(C(=O)N([H])[H])c4N([H])[H])C3([H])[H])c([H])c([H])c2C1([H])[H]

$$$$
64:0:0
     RDKit          3D

105112  0  0  1  0  0  0  0  0999 V2000
  -21.1520  -29.0260   21.1250 C   0  0  0  0  0  0  0  0  0  0  0  0
  -21.5500  -27.9490   20.1900 N   0  0  0  0  0  0  0  0  0  0  0  0
  -20.0850  -29.5150   20.7520 O   0  0  0  0  0  0  0  0  0  0  0  0
  -20.7050  -27.8780   19.6310 H   0  0  0  0  0  0  0  0  0  0  0  0
  -22.5520  -26.8300   19.4590 C   0  0  0  0  0  2  0  0  0  0  0  0
  -24.1240  -26.0610   19.6270 C   0  0  0  0  0  2  0  0  0  0  0  0
  -24.8530  -24.4980   19.4970 C   0  0  0  0  0  2  0  0  0  0  0  0
  -26.2990  -24.0330   18.6150 C   0  0  0  0  0  3  0  0  0  0  0  0
  -27.6240  -22.9350   18.9470 C   0  0  0  0  0  3  0  0  0  0  0  0
  -28.9210  -22.3990   17.9130 C   0  0  0  0  0  2  0  0  0  0  0  0
  -31.4690  -21.2200   17.5810 C   0  0  0  0  0  0  0  0  0  0  0  0
  -30.4920  -22.0960   18.1890 N   0  0  0  0  0  0  0  0  0  0  0  0
  -31.0190  -20.3200   16.8730 O   0  0  0  0  0  0  0  0  0  0  0  0
  -30.9210  -22.7620   18.8180 H   0  0  0  0  0  0  0  0  0  0  0  0
  -33.1600  -21.2890   17.6700 C   0  0  0  0  0  2  0  0  0  0  0  0
  -35.5170  -19.9130   16.6940 C   0  0  0  0  0  0  0  0  0  0  0  0
  -36.7750  -17.9190   15.7150 C   0  0  0  0  0  2  0  0  0  0  0  0
  -35.7160  -17.0500   14.9950 C   0  0  0  0  0  2  0  0  0  0  0  0
  -34.9800  -16.1350   16.0050 C   0  0  0  0  0  2  0  0  0  0  0  0
  -34.5540  -16.9020   17.2880 C   0  0  0  0  0  3  0  0  0  0  0  0
  -35.7170  -17.7180   17.8680 C   0  0  0  0  0  2  0  0  0  0  0  0
  -36.0800  -18.6530   16.8150 N   0  0  0  0  0  0  0  0  0  0  0  0
  -36.1090  -20.6960   15.9260 O   0  0  0  0  0  0  0  0  0  0  0  0
  -34.2450  -20.1380   17.3480 N   0  0  0  0  0  0  0  0  0  0  0  0
  -33.9980  -19.2940   17.8440 H   0  0  0  0  0  0  0  0  0  0  0  0
  -32.7810  -16.2320   18.9890 C   0  0  0  0  0  0  0  0  0  0  0  0
  -32.6670  -15.1280   19.8020 C   0  0  0  0  0  0  0  0  0  0  0  0
  -33.8250  -14.3360   19.5490 C   0  0  0  0  0  0  0  0  0  0  0  0
  -33.9670  -16.0500   18.3020 N   0  0  0  0  0  0  0  0  0  0  0  0
  -34.6300  -14.9370   18.6880 N   0  0  0  0  0  0  0  0  0  0  0  0
  -34.1790  -12.9940   20.0280 C   0  0  0  0  0  0  0  0  0  0  0  0
  -35.4190  -12.7350   20.6490 C   0  0  0  0  0  3  0  0  0  0  0  0
  -35.7260  -11.4400   21.1210 C   0  0  0  0  0  3  0  0  0  0  0  0
  -34.7840  -10.3910   20.9740 C   0  0  0  0  0  0  0  0  0  0  0  0
  -33.5610  -10.6500   20.3290 C   0  0  0  0  0  3  0  0  0  0  0  0
  -33.2620  -11.9410   19.8560 C   0  0  0  0  0  3  0  0  0  0  0  0
  -35.0060   -9.0950   21.3750 O   0  0  0  0  0  0  0  0  0  0  0  0
  -35.8840   -8.7930   22.3830 C   0  0  0  0  0  0  0  0  0  0  0  0
  -35.7310   -9.3070   23.6890 C   0  0  0  0  0  3  0  0  0  0  0  0
  -36.6210   -8.9180   24.7100 C   0  0  0  0  0  3  0  0  0  0  0  0
  -37.6570   -8.0070   24.4280 C   0  0  0  0  0  0  0  0  0  0  0  0
  -37.8080   -7.4870   23.1300 C   0  0  0  0  0  3  0  0  0  0  0  0
  -36.9230   -7.8800   22.1110 C   0  0  0  0  0  0  0  0  0  0  0  0
  -37.0590   -7.3600   20.8680 F   0  0  0  0  0  0  0  0  0  0  0  0
  -38.5070   -7.6220   25.4100 F   0  0  0  0  0  0  0  0  0  0  0  0
  -31.4920  -14.7980   20.6720 C   0  0  0  0  0  0  0  0  0  0  0  0
  -31.7430  -14.1400   21.8050 N   0  0  0  0  0  0  0  0  0  0  0  0
  -30.3580  -15.1660   20.3860 O   0  0  0  0  0  0  0  0  0  0  0  0
  -32.6830  -13.8590   22.0470 H   0  0  0  0  0  0  0  0  0  0  0  0
  -30.9880  -13.9090   22.4320 H   0  0  0  0  0  0  0  0  0  0  0  0
  -31.9770  -17.3410   18.7700 N   0  0  0  0  0  0  0  0  0  0  0  0
  -31.0830  -17.4310   19.2440 H   0  0  0  0  0  0  0  0  0  0  0  0
  -32.0810  -18.0130   18.0200 H   0  0  0  0  0  0  0  0  0  0  0  0
  -21.6990  -29.8360   22.6020 C   0  0  0  0  0  2  0  0  0  0  0  0
  -22.4840  -29.5650   24.2090 C   0  0  0  0  0  2  0  0  0  0  0  0
  -23.7790  -28.7500   24.8800 C   0  0  0  0  0  2  0  0  0  0  0  0
  -24.1960  -28.1080   26.2500 C   0  0  0  0  0  2  0  0  0  0  0  0
  -25.3610  -26.9600   26.1360 C   0  0  0  0  0  2  0  0  0  0  0  0
  -27.6810  -26.3620   25.0450 C   0  0  0  0  0  0  0  0  0  0  0  0
  -26.6870  -27.2340   25.4640 N   0  0  0  0  0  0  0  0  0  0  0  0
  -27.6560  -25.1680   25.3630 O   0  0  0  0  0  0  0  0  0  0  0  0
  -26.7580  -28.1640   25.0640 H   0  0  0  0  0  0  0  0  0  0  0  0
  -28.9090  -26.8780   24.1730 C   0  0  0  0  0  2  0  0  0  0  0  0
  -29.6370  -25.9500   23.0780 C   0  0  0  0  0  2  0  0  0  0  0  0
  -30.4330  -26.5120   21.9280 O   0  0  0  0  0  0  0  0  0  0  0  0
  -25.6920  -30.9620   23.4240 C   0  0  0  0  0  0  0  0  0  0  0  0
  -29.5950  -27.2200   21.1320 C   0  0  0  0  0  0  0  0  0  0  0  0
  -25.2060  -29.1160   21.7130 C   0  0  0  0  0  3  0  0  0  0  0  0
  -27.1410  -28.2840   20.4140 C   0  0  0  0  0  0  0  0  0  0  0  0
  -27.4760  -30.2330   21.9200 C   0  0  0  0  0  2  0  0  0  0  0  0
  -27.9870  -28.9850   21.2700 C   0  0  0  0  0  0  0  0  0  0  0  0
  -29.2660  -28.5100   21.5600 C   0  0  0  0  0  3  0  0  0  0  0  0
  -28.8280  -26.5580   20.1500 C   0  0  0  0  0  3  0  0  0  0  0  0
  -27.6110  -27.1400   19.7470 C   0  0  0  0  0  3  0  0  0  0  0  0
  -25.7650  -28.8650   20.3030 C   0  0  0  0  0  2  0  0  0  0  0  0
  -26.1160  -30.0800   22.4590 N   0  0  0  0  0  0  0  0  0  0  0  0
  -24.4970  -31.1260   23.6710 O   0  0  0  0  0  0  0  0  0  0  0  0
  -24.9570  -27.7100   22.4490 C   0  0  0  0  0  0  0  0  0  0  0  0
  -23.8480  -26.8620   22.3780 N   0  0  0  0  0  0  0  0  0  0  0  0
  -25.8310  -27.3820   23.2060 O   0  0  0  0  0  0  0  0  0  0  0  0
  -23.7970  -26.4970   21.3910 H   0  0  0  0  0  0  0  0  0  0  0  0
  -20.2590  -25.5180   22.2180 C   0  0  0  0  0  0  0  0  0  0  0  0
  -22.6580  -26.2240   23.1360 C   0  0  0  0  0  3  0  0  0  0  0  0
  -22.9700  -24.7720   22.8400 C   0  0  0  0  0  2  0  0  0  0  0  0
  -22.3050  -24.1650   21.5980 C   0  0  0  0  0  2  0  0  0  0  0  0
  -20.7950  -24.2010   21.7170 C   0  0  0  0  0  2  0  0  0  0  0  0
  -21.0580  -26.4940   22.8860 C   0  0  0  0  0  0  0  0  0  0  0  0
  -20.2170  -27.5500   23.4380 C   0  0  0  0  0  3  0  0  0  0  0  0
  -18.8610  -27.7520   23.1870 C   0  0  0  0  0  3  0  0  0  0  0  0
  -18.1660  -26.7890   22.4790 C   0  0  0  0  0  3  0  0  0  0  0  0
  -18.8640  -25.6620   22.0450 C   0  0  0  0  0  3  0  0  0  0  0  0
  -26.6820  -31.8320   24.2750 C   0  0  0  0  0  3  0  0  0  0  0  0
  -26.9960  -31.2900   25.7220 C   0  0  1  0  0  0  0  0  0  0  0  0
  -25.7380  -30.9820   26.5680 C   0  0  0  0  0  1  0  0  0  0  0  0
  -27.8800  -30.0480   25.5820 C   0  0  0  0  0  1  0  0  0  0  0  0
  -27.8250  -32.3120   26.5390 C   0  0  0  0  0  1  0  0  0  0  0  0
  -26.1020  -33.1670   24.3820 N   0  0  0  0  0  0  0  0  0  0  0  0
  -26.4930  -34.2060   23.6440 C   0  0  0  0  0  0  0  0  0  0  0  0
  -27.4500  -34.1510   22.8670 O   0  0  0  0  0  0  0  0  0  0  0  0
  -25.2690  -33.2640   24.9430 H   0  0  0  0  0  0  0  0  0  0  0  0
  -24.7440  -35.6760   22.6170 C   0  0  0  0  0  1  0  0  0  0  0  0
  -25.7010  -35.5140   23.8080 C   0  0  0  0  0  3  0  0  0  0  0  0
  -27.3470  -36.6840   25.1840 C   0  0  0  0  0  1  0  0  0  0  0  0
  -26.5680  -36.7020   23.9470 N   0  0  0  0  0  0  0  0  0  0  0  0
  -26.0230  -37.5570   23.9420 H   0  0  0  0  0  0  0  0  0  0  0  0
  1 54  1  0
  2  1  1  0
  3  1  2  0
  4  2  1  0
  5  6  1  0
  5  2  1  0
  7  6  1  0
  8  9  2  0
  8  7  1  0
 10 12  1  0
 10  9  1  0
 11 15  1  0
 11 12  1  0
 12 14  1  0
 13 11  2  0
 16 22  1  0
 16 24  1  0
 17 22  1  0
 18 17  1  0
 18 19  1  0
 20 19  1  0
 20 21  1  0
 20 29  1  0
 22 21  1  0
 23 16  2  0
 24 15  1  0
 24 25  1  0
 26 27  2  0
 27 46  1  0
 28 27  1  0
 28 31  1  0
 29 30  1  0
 29 26  1  0
 30 28  2  0
 31 32  1  0
 32 33  2  0
 34 33  1  0
 34 37  1  0
 35 34  2  0
 36 31  2  0
 36 35  1  0
 37 38  1  0
 38 39  1  0
 39 40  2  0
 41 40  1  0
 41 45  1  0
 42 41  2  0
 43 38  2  0
 43 42  1  0
 44 43  1  0
 46 47  1  0
 47 49  1  0
 47 50  1  0
 48 46  2  0
 51 26  1  0
 51 52  1  0
 53 51  1  0
 54 55  1  0
 55 56  1  0
 56 57  1  0
 58 57  1  0
 59 61  2  0
 59 60  1  0
 60 58  1  0
 62 60  1  0
 63 59  1  0
 64 63  1  0
 65 64  1  0
 66 77  2  0
 67 72  1  0
 67 65  1  0
 68 78  1  0
 68 76  1  0
 69 71  1  0
 70 76  1  0
 71 72  2  0
 71 70  1  0
 73 67  2  0
 74 73  1  0
 74 69  2  0
 75 69  1  0
 75 68  1  0
 76 66  1  0
 78 80  2  0
 79 78  1  0
 81 79  1  0
 82 87  1  0
 83 79  1  0
 84 83  1  0
 85 86  1  0
 85 84  1  0
 86 82  1  0
 87 83  1  0
 87 88  2  0
 89 88  1  0
 90 89  2  0
 91 82  2  0
 91 90  1  0
 92 66  1  0
 92 97  1  0
 92 93  1  0
 93 96  1  1
 93 94  1  0
 95 93  1  0
 97100  1  0
 98102  1  0
 98 97  1  0
 99 98  2  0
102101  1  0
102104  1  0
104103  1  0
105104  1  0
M  ISO  4  16 100  24 100  64 101  65 101
M  END
>  <TORSDO>  (58) 
F 32

>  <SCORE>  (58) 
-3.223

>  <name>  (58) 
64

>  <ligand_id>  (58) 
64

>  <original_smiles>  (58) 
[H]c1c([H])c([H])c2c(c1[H])C([H])([H])C([H])([H])C([H])([H])C2([H])N([H])C(=O)C1([H])N(C(=O)C([H])(N([H])C(=O)C([H])(N([H])C([H])([H])[H])C([H])([H])[H])C(C([H])([H])[H])(C([H])([H])[H])C([H])([H])[H])C([H])([H])c2c([H])c(OC([H])([H])C([H])([H])C(=O)N([H])C([H])([H])C([H])([H])C([H])([H])C([H])([H])C([H])([H])C(=O)N([H])C([H])([H])C([H])([H])C([H])([H])C([H])([H])C([H])([H])C([H])([H])N([H])C(=O)C([H])([H])N([H])C(=O)N3C([H])([H])C([H])([H])C([H])([H])C([H])(n4nc(-c5c([H])c([H])c(Oc6c([H])c([H])c(F)c([H])c6F)c([H])c5[H])c(C(=O)N([H])[H])c4N([H])[H])C3([H])[H])c([H])c([H])c2C1([H])[H]

>  <smiles>  (58) 
[H]c1c([H])c([H])c2c(c1[H])C([H])([H])C([H])([H])C([H])([H])C2([H])N([H])C(=O)C1([H])N(C(=O)C([H])(N([H])C(=O)C([H])(N([H])C([H])([H])[H])C([H])([H])[H])C(C([H])([H])[H])(C([H])([H])[H])C([H])([H])[H])C([H])([H])c2c([H])c(OC([H])([H])C([H])([H])C(=O)N([H])C([H])([H])C([H])([H])C([H])([H])C([H])([H])C([H])([H])C(=O)N([H])C([H])([H])C([H])([H])C([H])([H])C([H])([H])C([H])([H])C([H])([H])N([H])C(=O)C([H])([H])N([H])C(=O)N3C([H])([H])C([H])([H])C([H])([H])C([H])(n4nc(-c5c([H])c([H])c(Oc6c([H])c([H])c(F)c([H])c6F)c([H])c5[H])c(C(=O)N([H])[H])c4N([H])[H])C3([H])[H])c([H])c([H])c2C1([H])[H]

$$$$
65:0:0
     RDKit          3D

103110  0  0  1  0  0  0  0  0999 V2000
  -23.5380  -20.6340   25.3720 C   0  0  0  0  0  2  0  0  0  0  0  0
  -22.9190  -21.8280   24.6170 C   0  0  0  0  0  2  0  0  0  0  0  0
  -23.2780  -21.9340   23.1210 C   0  0  0  0  0  2  0  0  0  0  0  0
  -25.1970  -23.3470   22.3850 C   0  0  0  0  0  0  0  0  0  0  0  0
  -24.6970  -22.2150   22.9000 N   0  0  0  0  0  0  0  0  0  0  0  0
  -24.4930  -24.3320   22.1380 O   0  0  0  0  0  0  0  0  0  0  0  0
  -25.3490  -21.4620   23.0800 H   0  0  0  0  0  0  0  0  0  0  0  0
  -26.7030  -23.3730   22.0810 C   0  0  0  0  0  2  0  0  0  0  0  0
  -27.1350  -24.7230   21.9040 O   0  0  0  0  0  0  0  0  0  0  0  0
  -28.5200  -24.8290   21.5980 C   0  0  0  0  0  2  0  0  0  0  0  0
  -28.8920  -26.3010   21.3370 C   0  0  0  0  0  2  0  0  0  0  0  0
  -28.3920  -26.7190   20.0650 O   0  0  0  0  0  0  0  0  0  0  0  0
  -24.6110  -31.8680   23.2140 C   0  0  0  0  0  0  0  0  0  0  0  0
  -27.2420  -27.4650   20.1070 C   0  0  0  0  0  0  0  0  0  0  0  0
  -23.4000  -30.4920   21.5460 C   0  0  0  0  0  3  0  0  0  0  0  0
  -24.8520  -28.9620   20.1130 C   0  0  0  0  0  0  0  0  0  0  0  0
  -25.9280  -30.8380   21.3730 C   0  0  0  0  0  2  0  0  0  0  0  0
  -26.0030  -29.4760   20.7220 C   0  0  0  0  0  0  0  0  0  0  0  0
  -27.2020  -28.7340   20.7220 C   0  0  0  0  0  3  0  0  0  0  0  0
  -26.0830  -26.9590   19.4880 C   0  0  0  0  0  3  0  0  0  0  0  0
  -24.8840  -27.6980   19.4940 C   0  0  0  0  0  3  0  0  0  0  0  0
  -23.6110  -29.8230   20.1610 C   0  0  0  0  0  2  0  0  0  0  0  0
  -24.6620  -31.0830   22.1010 N   0  0  0  0  0  0  0  0  0  0  0  0
  -23.5320  -32.1420   23.7560 O   0  0  0  0  0  0  0  0  0  0  0  0
  -22.7410  -29.4670   22.4960 C   0  0  0  0  0  0  0  0  0  0  0  0
  -21.4140  -29.3030   22.3700 N   0  0  0  0  0  0  0  0  0  0  0  0
  -23.4190  -28.8250   23.3020 O   0  0  0  0  0  0  0  0  0  0  0  0
  -20.9280  -29.8740   21.6920 H   0  0  0  0  0  0  0  0  0  0  0  0
  -18.0290  -28.1390   22.8490 C   0  0  0  0  0  0  0  0  0  0  0  0
  -20.5870  -28.3660   23.1310 C   0  0  0  0  0  3  0  0  0  0  0  0
  -20.6770  -26.9390   22.5400 C   0  0  0  0  0  2  0  0  0  0  0  0
  -19.5750  -26.6370   21.5210 C   0  0  0  0  0  2  0  0  0  0  0  0
  -18.1930  -26.7930   22.1620 C   0  0  0  0  0  2  0  0  0  0  0  0
  -19.1530  -28.8840   23.2900 C   0  0  0  0  0  0  0  0  0  0  0  0
  -18.9460  -30.1460   23.8890 C   0  0  0  0  0  3  0  0  0  0  0  0
  -17.6460  -30.6580   24.0580 C   0  0  0  0  0  3  0  0  0  0  0  0
  -16.5350  -29.9070   23.6350 C   0  0  0  0  0  3  0  0  0  0  0  0
  -16.7280  -28.6510   23.0340 C   0  0  0  0  0  3  0  0  0  0  0  0
  -25.9030  -32.4820   23.8430 C   0  0  0  0  0  3  0  0  0  0  0  0
  -25.5910  -33.8620   24.2340 N   0  0  0  0  0  0  0  0  0  0  0  0
  -25.9020  -34.9470   23.5120 C   0  0  0  0  0  0  0  0  0  0  0  0
  -26.5550  -34.8920   22.4660 O   0  0  0  0  0  0  0  0  0  0  0  0
  -25.0190  -33.9810   25.0580 H   0  0  0  0  0  0  0  0  0  0  0  0
  -24.1480  -36.7300   23.2640 C   0  0  0  0  0  1  0  0  0  0  0  0
  -25.4100  -36.3090   24.0330 C   0  0  0  0  0  3  0  0  0  0  0  0
  -27.5570  -37.1810   24.8470 C   0  0  0  0  0  1  0  0  0  0  0  0
  -26.4280  -37.3780   23.9410 N   0  0  0  0  0  0  0  0  0  0  0  0
  -26.0150  -38.2850   24.1420 H   0  0  0  0  0  0  0  0  0  0  0  0
  -26.4490  -31.6600   25.0750 C   0  0  1  0  0  0  0  0  0  0  0  0
  -25.3800  -31.3700   26.1530 C   0  0  0  0  0  1  0  0  0  0  0  0
  -27.0340  -30.3040   24.6150 C   0  0  0  0  0  1  0  0  0  0  0  0
  -27.6050  -32.4350   25.7520 C   0  0  0  0  0  1  0  0  0  0  0  0
  -23.0550  -19.2670   24.8520 C   0  0  0  0  0  2  0  0  0  0  0  0
  -23.3620  -18.0930   25.8060 C   0  0  0  0  0  2  0  0  0  0  0  0
  -23.4410  -16.7290   25.0950 C   0  0  0  0  0  2  0  0  0  0  0  0
  -25.8280  -16.3820   24.5020 C   0  0  0  0  0  0  0  0  0  0  0  0
  -24.5760  -16.7190   24.1790 N   0  0  0  0  0  0  0  0  0  0  0  0
  -26.1350  -15.8680   25.5820 O   0  0  0  0  0  0  0  0  0  0  0  0
  -24.4210  -17.0920   23.2520 H   0  0  0  0  0  0  0  0  0  0  0  0
  -26.9010  -16.7120   23.4670 C   0  0  0  0  0  2  0  0  0  0  0  0
  -29.1430  -15.8830   22.8760 C   0  0  0  0  0  0  0  0  0  0  0  0
  -28.0600  -15.8550   23.6480 N   0  0  0  0  0  0  0  0  0  0  0  0
  -29.2870  -16.7030   21.9670 O   0  0  0  0  0  0  0  0  0  0  0  0
  -27.9980  -15.1810   24.4020 H   0  0  0  0  0  0  0  0  0  0  0  0
  -30.2130  -14.8240   23.1620 C   0  0  0  0  0  2  0  0  0  0  0  0
  -30.8540  -14.2800   20.7480 C   0  0  0  0  0  0  0  0  0  0  0  0
  -30.4100  -12.2770   19.3980 C   0  0  0  0  0  2  0  0  0  0  0  0
  -29.4860  -12.5540   18.1980 C   0  0  0  0  0  2  0  0  0  0  0  0
  -28.0130  -12.3960   18.6030 C   0  0  0  0  0  2  0  0  0  0  0  0
  -27.6730  -13.2060   19.8780 C   0  0  0  0  0  3  0  0  0  0  0  0
  -28.7060  -12.9380   20.9940 C   0  0  0  0  0  2  0  0  0  0  0  0
  -30.0740  -13.1920   20.5020 N   0  0  0  0  0  0  0  0  0  0  0  0
  -31.6780  -14.7050   19.9390 O   0  0  0  0  0  0  0  0  0  0  0  0
  -31.1040  -14.5840   22.0290 N   0  0  0  0  0  0  0  0  0  0  0  0
  -31.9440  -15.1400   22.0960 H   0  0  0  0  0  0  0  0  0  0  0  0
  -25.2630  -13.8110   20.5600 C   0  0  0  0  0  0  0  0  0  0  0  0
  -24.1870  -13.0400   20.9190 C   0  0  0  0  0  0  0  0  0  0  0  0
  -24.6440  -11.6880   20.8760 C   0  0  0  0  0  0  0  0  0  0  0  0
  -26.3110  -12.9320   20.3370 N   0  0  0  0  0  0  0  0  0  0  0  0
  -25.9370  -11.6470   20.5750 N   0  0  0  0  0  0  0  0  0  0  0  0
  -23.9080  -10.4280   21.0440 C   0  0  0  0  0  0  0  0  0  0  0  0
  -24.3630   -9.4180   21.9190 C   0  0  0  0  0  3  0  0  0  0  0  0
  -23.6300   -8.2220   22.0740 C   0  0  0  0  0  3  0  0  0  0  0  0
  -22.4260   -8.0280   21.3570 C   0  0  0  0  0  0  0  0  0  0  0  0
  -21.9890   -9.0260   20.4670 C   0  0  0  0  0  3  0  0  0  0  0  0
  -22.7230  -10.2140   20.3110 C   0  0  0  0  0  3  0  0  0  0  0  0
  -21.6600   -6.8900   21.4300 O   0  0  0  0  0  0  0  0  0  0  0  0
  -21.6840   -6.0740   22.5330 C   0  0  0  0  0  0  0  0  0  0  0  0
  -21.4000   -6.5630   23.8260 C   0  0  0  0  0  3  0  0  0  0  0  0
  -21.3670   -5.6780   24.9220 C   0  0  0  0  0  3  0  0  0  0  0  0
  -21.6060   -4.3040   24.7270 C   0  0  0  0  0  0  0  0  0  0  0  0
  -21.8800   -3.8140   23.4380 C   0  0  0  0  0  3  0  0  0  0  0  0
  -21.9190   -4.6970   22.3440 C   0  0  0  0  0  0  0  0  0  0  0  0
  -22.1650   -4.2150   21.1010 F   0  0  0  0  0  0  0  0  0  0  0  0
  -21.5630   -3.4540   25.7790 F   0  0  0  0  0  0  0  0  0  0  0  0
  -22.7900  -13.5230   21.1860 C   0  0  0  0  0  0  0  0  0  0  0  0
  -22.0450  -12.8260   22.0370 N   0  0  0  0  0  0  0  0  0  0  0  0
  -22.3660  -14.5570   20.6740 O   0  0  0  0  0  0  0  0  0  0  0  0
  -22.3860  -11.9800   22.4710 H   0  0  0  0  0  0  0  0  0  0  0  0
  -21.1090  -13.1410   22.2480 H   0  0  0  0  0  0  0  0  0  0  0  0
  -25.4240  -15.1770   20.3810 N   0  0  0  0  0  0  0  0  0  0  0  0
  -24.6070  -15.7760   20.3370 H   0  0  0  0  0  0  0  0  0  0  0  0
  -26.2310  -15.5730   19.9170 H   0  0  0  0  0  0  0  0  0  0  0  0
  2  1  1  0
  3  2  1  0
  4  5  1  0
  5  7  1  0
  5  3  1  0
  6  4  2  0
  8  4  1  0
  9  8  1  0
 10  9  1  0
 11 10  1  0
 12 14  1  0
 12 11  1  0
 13 24  2  0
 14 19  1  0
 15 23  1  0
 15 25  1  0
 16 22  1  0
 16 18  1  0
 17 23  1  0
 18 19  2  0
 18 17  1  0
 20 21  1  0
 20 14  2  0
 21 16  2  0
 22 15  1  0
 23 13  1  0
 25 27  2  0
 26 25  1  0
 28 26  1  0
 29 38  2  0
 29 34  1  0
 30 26  1  0
 30 34  1  0
 31 30  1  0
 32 33  1  0
 32 31  1  0
 33 29  1  0
 34 35  2  0
 35 36  1  0
 37 36  2  0
 38 37  1  0
 39 13  1  0
 39 40  1  0
 39 49  1  0
 40 43  1  0
 41 45  1  0
 41 40  1  0
 42 41  2  0
 45 44  1  0
 47 45  1  0
 47 48  1  0
 47 46  1  0
 49 52  1  1
 49 50  1  0
 51 49  1  0
 53  1  1  0
 53 54  1  0
 55 54  1  0
 56 58  2  0
 57 56  1  0
 57 55  1  0
 59 57  1  0
 60 62  1  0
 60 56  1  0
 61 65  1  0
 61 62  1  0
 62 64  1  0
 63 61  2  0
 66 74  1  0
 67 72  1  0
 68 69  1  0
 68 67  1  0
 70 69  1  0
 70 79  1  0
 70 71  1  0
 72 66  1  0
 72 71  1  0
 73 66  2  0
 74 75  1  0
 74 65  1  0
 76 77  2  0
 77 96  1  0
 78 77  1  0
 78 81  1  0
 79 76  1  0
 79 80  1  0
 80 78  2  0
 81 82  1  0
 82 83  2  0
 84 87  1  0
 84 83  1  0
 85 84  2  0
 86 85  1  0
 86 81  2  0
 87 88  1  0
 88 89  1  0
 89 90  2  0
 91 90  1  0
 91 95  1  0
 92 91  2  0
 93 88  2  0
 93 92  1  0
 94 93  1  0
 96 97  1  0
 97100  1  0
 97 99  1  0
 98 96  2  0
101 76  1  0
102101  1  0
103101  1  0
M  ISO  4  11 101  12 101  66 100  74 100
M  END
>  <TORSDO>  (59) 
F 30

>  <SCORE>  (59) 
51.672

>  <name>  (59) 
65

>  <ligand_id>  (59) 
65

>  <original_smiles>  (59) 
[H]c1c([H])c([H])c2c(c1[H])C([H])([H])C([H])([H])C([H])([H])C2([H])N([H])C(=O)C1([H])N(C(=O)C([H])(N([H])C(=O)C([H])(N([H])C([H])([H])[H])C([H])([H])[H])C(C([H])([H])[H])(C([H])([H])[H])C([H])([H])[H])C([H])([H])c2c([H])c(OC([H])([H])C([H])([H])OC([H])([H])C(=O)N([H])C([H])([H])C([H])([H])C([H])([H])C([H])([H])C([H])([H])C([H])([H])N([H])C(=O)C([H])([H])N([H])C(=O)C([H])([H])N([H])C(=O)N3C([H])([H])C([H])([H])C([H])([H])C([H])(n4nc(-c5c([H])c([H])c(Oc6c([H])c([H])c(F)c([H])c6F)c([H])c5[H])c(C(=O)N([H])[H])c4N([H])[H])C3([H])[H])c([H])c([H])c2C1([H])[H]

>  <smiles>  (59) 
[H]c1c([H])c([H])c2c(c1[H])C([H])([H])C([H])([H])C([H])([H])C2([H])N([H])C(=O)C1([H])N(C(=O)C([H])(N([H])C(=O)C([H])(N([H])C([H])([H])[H])C([H])([H])[H])C(C([H])([H])[H])(C([H])([H])[H])C([H])([H])[H])C([H])([H])c2c([H])c(OC([H])([H])C([H])([H])OC([H])([H])C(=O)N([H])C([H])([H])C([H])([H])C([H])([H])C([H])([H])C([H])([H])C([H])([H])N([H])C(=O)C([H])([H])N([H])C(=O)C([H])([H])N([H])C(=O)N3C([H])([H])C([H])([H])C([H])([H])C([H])(n4nc(-c5c([H])c([H])c(Oc6c([H])c([H])c(F)c([H])c6F)c([H])c5[H])c(C(=O)N([H])[H])c4N([H])[H])C3([H])[H])c([H])c([H])c2C1([H])[H]

$$$$
67:0:0
     RDKit          3D

104111  0  0  1  0  0  0  0  0999 V2000
  -34.6320  -16.4920   22.4290 C   0  0  0  0  0  2  0  0  0  0  0  0
  -33.4730  -17.4020   21.9920 C   0  0  0  0  0  2  0  0  0  0  0  0
  -33.7600  -18.9030   22.1010 C   0  0  0  0  0  2  0  0  0  0  0  0
  -32.4080  -20.9390   21.5990 C   0  0  0  0  0  0  0  0  0  0  0  0
  -32.5260  -19.6320   21.8450 N   0  0  0  0  0  0  0  0  0  0  0  0
  -33.3780  -21.7010   21.5480 O   0  0  0  0  0  0  0  0  0  0  0  0
  -31.6640  -19.1050   21.8660 H   0  0  0  0  0  0  0  0  0  0  0  0
  -30.9760  -21.4410   21.3780 C   0  0  0  0  0  2  0  0  0  0  0  0
  -30.9770  -22.8190   21.0230 O   0  0  0  0  0  0  0  0  0  0  0  0
  -29.6710  -23.2870   20.7310 C   0  0  0  0  0  2  0  0  0  0  0  0
  -29.7250  -24.7950   20.4670 C   0  0  0  0  0  2  0  0  0  0  0  0
  -28.3500  -25.3620   20.0940 C   0  0  0  0  0  2  0  0  0  0  0  0
  -28.4290  -26.7830   20.0780 O   0  0  0  0  0  0  0  0  0  0  0  0
  -24.6100  -31.8710   23.2120 C   0  0  0  0  0  0  0  0  0  0  0  0
  -27.2370  -27.4710   20.0820 C   0  0  0  0  0  0  0  0  0  0  0  0
  -23.3950  -30.4960   21.5520 C   0  0  0  0  0  3  0  0  0  0  0  0
  -24.8410  -28.9640   20.1180 C   0  0  0  0  0  0  0  0  0  0  0  0
  -25.9210  -30.8480   21.3590 C   0  0  0  0  0  2  0  0  0  0  0  0
  -26.0000  -29.4860   20.7050 C   0  0  0  0  0  0  0  0  0  0  0  0
  -27.2010  -28.7470   20.6800 C   0  0  0  0  0  3  0  0  0  0  0  0
  -26.0580  -26.9530   19.4970 C   0  0  0  0  0  3  0  0  0  0  0  0
  -24.8620  -27.6940   19.5170 C   0  0  0  0  0  3  0  0  0  0  0  0
  -23.6010  -29.8250   20.1680 C   0  0  0  0  0  2  0  0  0  0  0  0
  -24.6610  -31.0850   22.1000 N   0  0  0  0  0  0  0  0  0  0  0  0
  -23.5310  -32.1450   23.7550 O   0  0  0  0  0  0  0  0  0  0  0  0
  -22.7370  -29.4690   22.5010 C   0  0  0  0  0  0  0  0  0  0  0  0
  -21.4110  -29.3030   22.3740 N   0  0  0  0  0  0  0  0  0  0  0  0
  -23.4170  -28.8230   23.3040 O   0  0  0  0  0  0  0  0  0  0  0  0
  -20.9250  -29.8730   21.6960 H   0  0  0  0  0  0  0  0  0  0  0  0
  -18.0270  -28.1370   22.8500 C   0  0  0  0  0  0  0  0  0  0  0  0
  -20.5850  -28.3650   23.1330 C   0  0  0  0  0  3  0  0  0  0  0  0
  -20.6770  -26.9390   22.5410 C   0  0  0  0  0  2  0  0  0  0  0  0
  -19.5740  -26.6390   21.5210 C   0  0  0  0  0  2  0  0  0  0  0  0
  -18.1920  -26.7910   22.1620 C   0  0  0  0  0  2  0  0  0  0  0  0
  -19.1520  -28.8820   23.2910 C   0  0  0  0  0  0  0  0  0  0  0  0
  -18.9450  -30.1430   23.8920 C   0  0  0  0  0  3  0  0  0  0  0  0
  -17.6450  -30.6580   24.0560 C   0  0  0  0  0  3  0  0  0  0  0  0
  -16.5340  -29.9080   23.6320 C   0  0  0  0  0  3  0  0  0  0  0  0
  -16.7260  -28.6490   23.0350 C   0  0  0  0  0  3  0  0  0  0  0  0
  -25.9020  -32.4840   23.8400 C   0  0  0  0  0  3  0  0  0  0  0  0
  -26.4460  -31.6600   25.0710 C   0  0  1  0  0  0  0  0  0  0  0  0
  -25.3740  -31.3680   26.1470 C   0  0  0  0  0  1  0  0  0  0  0  0
  -27.0290  -30.3050   24.6050 C   0  0  0  0  0  1  0  0  0  0  0  0
  -27.6040  -32.4310   25.7480 C   0  0  0  0  0  1  0  0  0  0  0  0
  -25.5890  -33.8630   24.2340 N   0  0  0  0  0  0  0  0  0  0  0  0
  -25.9030  -34.9480   23.5140 C   0  0  0  0  0  0  0  0  0  0  0  0
  -26.5590  -34.8920   22.4690 O   0  0  0  0  0  0  0  0  0  0  0  0
  -25.0050  -33.9810   25.0500 H   0  0  0  0  0  0  0  0  0  0  0  0
  -24.1490  -36.7320   23.2640 C   0  0  0  0  0  1  0  0  0  0  0  0
  -25.4110  -36.3120   24.0340 C   0  0  0  0  0  3  0  0  0  0  0  0
  -27.5580  -37.1820   24.8470 C   0  0  0  0  0  1  0  0  0  0  0  0
  -26.4310  -37.3790   23.9400 N   0  0  0  0  0  0  0  0  0  0  0  0
  -26.0200  -38.2880   24.1370 H   0  0  0  0  0  0  0  0  0  0  0  0
  -34.2100  -15.0170   22.3310 C   0  0  0  0  0  2  0  0  0  0  0  0
  -35.1490  -14.0080   23.0280 C   0  0  0  0  0  2  0  0  0  0  0  0
  -34.4220  -12.7370   23.4870 C   0  0  0  0  0  0  0  0  0  0  0  0
  -33.4610  -12.2520   22.6890 N   0  0  0  0  0  0  0  0  0  0  0  0
  -34.7230  -12.2110   24.5580 O   0  0  0  0  0  0  0  0  0  0  0  0
  -33.2960  -12.7380   21.8190 H   0  0  0  0  0  0  0  0  0  0  0  0
  -32.5410  -11.1670   23.0200 C   0  0  0  0  0  2  0  0  0  0  0  0
  -31.4430  -11.6170   24.0040 C   0  0  0  0  0  2  0  0  0  0  0  0
  -30.8250  -14.0310   23.8380 C   0  0  0  0  0  0  0  0  0  0  0  0
  -30.6890  -12.7520   23.4720 N   0  0  0  0  0  0  0  0  0  0  0  0
  -31.5750  -14.3840   24.7470 O   0  0  0  0  0  0  0  0  0  0  0  0
  -30.0200  -12.5490   22.7430 H   0  0  0  0  0  0  0  0  0  0  0  0
  -30.0200  -15.0890   23.0670 C   0  0  0  0  0  2  0  0  0  0  0  0
  -30.7630  -14.3580   20.7190 C   0  0  0  0  0  0  0  0  0  0  0  0
  -30.4100  -12.3090   19.3900 C   0  0  0  0  0  2  0  0  0  0  0  0
  -29.4690  -12.5350   18.1890 C   0  0  0  0  0  2  0  0  0  0  0  0
  -27.9980  -12.3710   18.6070 C   0  0  0  0  0  2  0  0  0  0  0  0
  -27.6570  -13.1970   19.8710 C   0  0  0  0  0  3  0  0  0  0  0  0
  -28.6860  -12.9250   20.9820 C   0  0  0  0  0  2  0  0  0  0  0  0
  -30.0320  -13.2370   20.4710 N   0  0  0  0  0  0  0  0  0  0  0  0
  -31.7620  -14.6570   20.0670 O   0  0  0  0  0  0  0  0  0  0  0  0
  -30.3000  -15.2340   21.6250 N   0  0  0  0  0  0  0  0  0  0  0  0
  -30.6970  -16.1390   21.4370 H   0  0  0  0  0  0  0  0  0  0  0  0
  -25.2550  -13.8120   20.5650 C   0  0  0  0  0  0  0  0  0  0  0  0
  -24.1780  -13.0410   20.9150 C   0  0  0  0  0  0  0  0  0  0  0  0
  -24.6320  -11.6890   20.8710 C   0  0  0  0  0  0  0  0  0  0  0  0
  -26.2970  -12.9280   20.3340 N   0  0  0  0  0  0  0  0  0  0  0  0
  -25.9250  -11.6450   20.5760 N   0  0  0  0  0  0  0  0  0  0  0  0
  -23.8970  -10.4300   21.0400 C   0  0  0  0  0  0  0  0  0  0  0  0
  -24.3530   -9.4230   21.9180 C   0  0  0  0  0  3  0  0  0  0  0  0
  -23.6250   -8.2260   22.0750 C   0  0  0  0  0  3  0  0  0  0  0  0
  -22.4240   -8.0270   21.3530 C   0  0  0  0  0  0  0  0  0  0  0  0
  -21.9860   -9.0240   20.4640 C   0  0  0  0  0  3  0  0  0  0  0  0
  -22.7150  -10.2150   20.3050 C   0  0  0  0  0  3  0  0  0  0  0  0
  -21.6610   -6.8850   21.4220 O   0  0  0  0  0  0  0  0  0  0  0  0
  -21.6850   -6.0730   22.5260 C   0  0  0  0  0  0  0  0  0  0  0  0
  -21.4020   -6.5640   23.8200 C   0  0  0  0  0  3  0  0  0  0  0  0
  -21.3660   -5.6790   24.9170 C   0  0  0  0  0  3  0  0  0  0  0  0
  -21.6030   -4.3060   24.7220 C   0  0  0  0  0  0  0  0  0  0  0  0
  -21.8820   -3.8140   23.4340 C   0  0  0  0  0  3  0  0  0  0  0  0
  -21.9200   -4.6960   22.3400 C   0  0  0  0  0  0  0  0  0  0  0  0
  -22.1650   -4.2130   21.0980 F   0  0  0  0  0  0  0  0  0  0  0  0
  -21.5610   -3.4540   25.7740 F   0  0  0  0  0  0  0  0  0  0  0  0
  -22.7830  -13.5260   21.1830 C   0  0  0  0  0  0  0  0  0  0  0  0
  -22.0450  -12.8290   22.0420 N   0  0  0  0  0  0  0  0  0  0  0  0
  -22.3570  -14.5570   20.6660 O   0  0  0  0  0  0  0  0  0  0  0  0
  -22.4040  -11.9950   22.4800 H   0  0  0  0  0  0  0  0  0  0  0  0
  -21.1060  -13.1320   22.2570 H   0  0  0  0  0  0  0  0  0  0  0  0
  -25.4300  -15.1820   20.4100 N   0  0  0  0  0  0  0  0  0  0  0  0
  -24.6610  -15.8330   20.5190 H   0  0  0  0  0  0  0  0  0  0  0  0
  -26.2920  -15.6270   20.1160 H   0  0  0  0  0  0  0  0  0  0  0  0
  2  3  1  0
  2  1  1  0
  4  5  1  0
  5  7  1  0
  5  3  1  0
  6  4  2  0
  8  4  1  0
  9  8  1  0
 10  9  1  0
 11 10  1  0
 12 11  1  0
 13 15  1  0
 13 12  1  0
 14 25  2  0
 15 20  1  0
 16 24  1  0
 16 26  1  0
 17 23  1  0
 17 19  1  0
 18 24  1  0
 19 18  1  0
 20 19  2  0
 21 22  1  0
 21 15  2  0
 22 17  2  0
 23 16  1  0
 24 14  1  0
 26 28  2  0
 27 26  1  0
 29 27  1  0
 30 39  2  0
 30 35  1  0
 31 27  1  0
 31 35  1  0
 32 31  1  0
 33 34  1  0
 33 32  1  0
 34 30  1  0
 35 36  2  0
 36 37  1  0
 38 37  2  0
 39 38  1  0
 40 14  1  0
 40 45  1  0
 40 41  1  0
 41 44  1  1
 41 42  1  0
 43 41  1  0
 45 48  1  0
 46 50  1  0
 46 45  1  0
 47 46  2  0
 50 49  1  0
 52 50  1  0
 52 53  1  0
 52 51  1  0
 54  1  1  0
 54 55  1  0
 55 56  1  0
 56 58  2  0
 57 60  1  0
 57 56  1  0
 59 57  1  0
 60 61  1  0
 62 64  2  0
 63 62  1  0
 63 61  1  0
 65 63  1  0
 66 62  1  0
 67 75  1  0
 68 73  1  0
 69 70  1  0
 69 68  1  0
 71 70  1  0
 71 80  1  0
 71 72  1  0
 73 67  1  0
 73 72  1  0
 74 67  2  0
 75 66  1  0
 76 75  1  0
 77 78  2  0
 78 97  1  0
 79 78  1  0
 79 82  1  0
 80 77  1  0
 80 81  1  0
 81 79  2  0
 82 83  1  0
 83 84  2  0
 85 88  1  0
 85 84  1  0
 86 85  2  0
 87 86  1  0
 87 82  2  0
 88 89  1  0
 89 90  1  0
 90 91  2  0
 92 91  1  0
 92 96  1  0
 93 92  2  0
 94 89  2  0
 94 93  1  0
 95 94  1  0
 97 98  1  0
 98101  1  0
 98100  1  0
 99 97  2  0
102103  1  0
102 77  1  0
104102  1  0
M  ISO  4  12 101  13 101  67 100  75 100
M  END
>  <TORSDO>  (60) 
F 31

>  <SCORE>  (60) 
22.632

>  <name>  (60) 
67

>  <ligand_id>  (60) 
67

>  <original_smiles>  (60) 
[H]c1c([H])c([H])c2c(c1[H])C([H])([H])C([H])([H])C([H])([H])C2([H])N([H])C(=O)C1([H])N(C(=O)C([H])(N([H])C(=O)C([H])(N([H])C([H])([H])[H])C([H])([H])[H])C(C([H])([H])[H])(C([H])([H])[H])C([H])([H])[H])C([H])([H])c2c([H])c(OC([H])([H])C([H])([H])C([H])([H])OC([H])([H])C(=O)N([H])C([H])([H])C([H])([H])C([H])([H])C([H])([H])C([H])([H])C(=O)N([H])C([H])([H])C([H])([H])N([H])C(=O)C([H])([H])N([H])C(=O)N3C([H])([H])C([H])([H])C([H])([H])C([H])(n4nc(-c5c([H])c([H])c(Oc6c([H])c([H])c(F)c([H])c6F)c([H])c5[H])c(C(=O)N([H])[H])c4N([H])[H])C3([H])[H])c([H])c([H])c2C1([H])[H]

>  <smiles>  (60) 
[H]c1c([H])c([H])c2c(c1[H])C([H])([H])C([H])([H])C([H])([H])C2([H])N([H])C(=O)C1([H])N(C(=O)C([H])(N([H])C(=O)C([H])(N([H])C([H])([H])[H])C([H])([H])[H])C(C([H])([H])[H])(C([H])([H])[H])C([H])([H])[H])C([H])([H])c2c([H])c(OC([H])([H])C([H])([H])C([H])([H])OC([H])([H])C(=O)N([H])C([H])([H])C([H])([H])C([H])([H])C([H])([H])C([H])([H])C(=O)N([H])C([H])([H])C([H])([H])N([H])C(=O)C([H])([H])N([H])C(=O)N3C([H])([H])C([H])([H])C([H])([H])C([H])(n4nc(-c5c([H])c([H])c(Oc6c([H])c([H])c(F)c([H])c6F)c([H])c5[H])c(C(=O)N([H])[H])c4N([H])[H])C3([H])[H])c([H])c([H])c2C1([H])[H]

$$$$
68:0:0
     RDKit          3D

100107  0  0  1  0  0  0  0  0999 V2000
  -27.8550  -18.8670   20.4540 C   0  0  0  0  0  0  0  0  0  0  0  0
  -28.9160  -19.3300   21.1270 N   0  0  0  0  0  0  0  0  0  0  0  0
  -27.2740  -17.8660   20.8620 O   0  0  0  0  0  0  0  0  0  0  0  0
  -29.1730  -18.8190   21.9590 H   0  0  0  0  0  0  0  0  0  0  0  0
  -29.8020  -20.4240   20.7550 C   0  0  0  0  0  2  0  0  0  0  0  0
  -29.3630  -21.7650   21.3490 C   0  0  0  0  0  2  0  0  0  0  0  0
  -29.9330  -22.7640   20.5310 O   0  0  0  0  0  0  0  0  0  0  0  0
  -29.7420  -24.0740   21.0260 C   0  0  0  0  0  2  0  0  0  0  0  0
  -29.6750  -24.9730   19.7970 C   0  0  0  0  0  2  0  0  0  0  0  0
  -29.4120  -26.4350   20.1490 C   0  0  0  0  0  2  0  0  0  0  0  0
  -28.9240  -27.0500   18.9690 O   0  0  0  0  0  0  0  0  0  0  0  0
  -24.5670  -30.9830   22.9440 C   0  0  0  0  0  0  0  0  0  0  0  0
  -27.6770  -27.5810   19.1260 C   0  0  0  0  0  0  0  0  0  0  0  0
  -23.4990  -29.7310   21.0930 C   0  0  0  0  0  3  0  0  0  0  0  0
  -25.0990  -28.6640   19.4180 C   0  0  0  0  0  0  0  0  0  0  0  0
  -25.9380  -30.4700   20.9360 C   0  0  0  0  0  2  0  0  0  0  0  0
  -26.1860  -29.2490   20.0810 C   0  0  0  0  0  0  0  0  0  0  0  0
  -27.4780  -28.7090   19.9450 C   0  0  0  0  0  3  0  0  0  0  0  0
  -26.5840  -26.9900   18.4630 C   0  0  0  0  0  3  0  0  0  0  0  0
  -25.2900  -27.5270   18.6100 C   0  0  0  0  0  3  0  0  0  0  0  0
  -23.7510  -29.3220   19.6150 C   0  0  0  0  0  2  0  0  0  0  0  0
  -24.6860  -30.4020   21.7170 N   0  0  0  0  0  0  0  0  0  0  0  0
  -23.4790  -31.0100   23.5350 O   0  0  0  0  0  0  0  0  0  0  0  0
  -23.0220  -28.4850   21.8700 C   0  0  0  0  0  0  0  0  0  0  0  0
  -21.7340  -28.1400   21.7100 N   0  0  0  0  0  0  0  0  0  0  0  0
  -23.8040  -27.8380   22.5700 O   0  0  0  0  0  0  0  0  0  0  0  0
  -21.1540  -28.7270   21.1270 H   0  0  0  0  0  0  0  0  0  0  0  0
  -18.5740  -26.4180   21.9860 C   0  0  0  0  0  0  0  0  0  0  0  0
  -21.0750  -26.9830   22.3120 C   0  0  0  0  0  3  0  0  0  0  0  0
  -21.3650  -25.6940   21.5090 C   0  0  0  0  0  2  0  0  0  0  0  0
  -20.3010  -25.3920   20.4490 C   0  0  0  0  0  2  0  0  0  0  0  0
  -18.9240  -25.2350   21.1000 C   0  0  0  0  0  2  0  0  0  0  0  0
  -19.5830  -27.2470   22.5430 C   0  0  0  0  0  0  0  0  0  0  0  0
  -19.2010  -28.3560   23.3290 C   0  0  0  0  0  3  0  0  0  0  0  0
  -17.8420  -28.6370   23.5660 C   0  0  0  0  0  3  0  0  0  0  0  0
  -16.8480  -27.8040   23.0240 C   0  0  0  0  0  3  0  0  0  0  0  0
  -17.2140  -26.6960   22.2390 C   0  0  0  0  0  3  0  0  0  0  0  0
  -25.7830  -31.6620   23.6500 C   0  0  0  0  0  3  0  0  0  0  0  0
  -25.3410  -32.9840   24.1130 N   0  0  0  0  0  0  0  0  0  0  0  0
  -25.6100  -34.1370   23.4850 C   0  0  0  0  0  0  0  0  0  0  0  0
  -26.3270  -34.2030   22.4830 O   0  0  0  0  0  0  0  0  0  0  0  0
  -24.7030  -33.0000   24.8950 H   0  0  0  0  0  0  0  0  0  0  0  0
  -23.7520  -35.8120   23.2250 C   0  0  0  0  0  1  0  0  0  0  0  0
  -24.9820  -35.4200   24.0610 C   0  0  0  0  0  3  0  0  0  0  0  0
  -26.9830  -36.3770   25.1130 C   0  0  0  0  0  1  0  0  0  0  0  0
  -25.9230  -36.5590   24.1230 N   0  0  0  0  0  0  0  0  0  0  0  0
  -25.4310  -37.4200   24.3410 H   0  0  0  0  0  0  0  0  0  0  0  0
  -26.3590  -30.8130   24.8480 C   0  0  1  0  0  0  0  0  0  0  0  0
  -25.2880  -30.3730   25.8720 C   0  0  0  0  0  1  0  0  0  0  0  0
  -27.0650  -29.5400   24.3250 C   0  0  0  0  0  1  0  0  0  0  0  0
  -27.4290  -31.6350   25.6080 C   0  0  0  0  0  1  0  0  0  0  0  0
  -27.3160  -19.5960   19.2090 C   0  0  0  0  0  2  0  0  0  0  0  0
  -27.5900  -18.8690   17.8730 C   0  0  0  0  0  2  0  0  0  0  0  0
  -29.7680  -17.8710   17.1940 C   0  0  0  0  0  0  0  0  0  0  0  0
  -29.0020  -18.9230   17.4930 N   0  0  0  0  0  0  0  0  0  0  0  0
  -29.3380  -16.7170   17.1580 O   0  0  0  0  0  0  0  0  0  0  0  0
  -29.4430  -19.8350   17.4630 H   0  0  0  0  0  0  0  0  0  0  0  0
  -31.2440  -18.1560   16.9170 C   0  0  0  0  0  2  0  0  0  0  0  0
  -32.1930  -17.2010   17.6740 C   0  0  0  0  0  2  0  0  0  0  0  0
  -32.6370  -17.6860   19.0700 C   0  0  0  0  0  2  0  0  0  0  0  0
  -31.6070  -17.6130   20.2200 C   0  0  0  0  0  2  0  0  0  0  0  0
  -31.7760  -16.5010   21.2770 C   0  0  0  0  0  2  0  0  0  0  0  0
  -31.5540  -14.2790   20.2240 C   0  0  0  0  0  0  0  0  0  0  0  0
  -31.0810  -12.1520   19.0910 C   0  0  0  0  0  2  0  0  0  0  0  0
  -30.1430  -12.3750   17.8910 C   0  0  0  0  0  2  0  0  0  0  0  0
  -28.6740  -12.2960   18.3440 C   0  0  0  0  0  2  0  0  0  0  0  0
  -28.3830  -13.1920   19.5780 C   0  0  0  0  0  3  0  0  0  0  0  0
  -29.4390  -12.9740   20.6840 C   0  0  0  0  0  2  0  0  0  0  0  0
  -30.7730  -13.1780   20.0940 N   0  0  0  0  0  0  0  0  0  0  0  0
  -32.6450  -14.3970   19.6670 O   0  0  0  0  0  0  0  0  0  0  0  0
  -31.0570  -15.2690   20.9660 N   0  0  0  0  0  0  0  0  0  0  0  0
  -30.1540  -15.1200   21.3940 H   0  0  0  0  0  0  0  0  0  0  0  0
  -26.0290  -13.9030   20.3380 C   0  0  0  0  0  0  0  0  0  0  0  0
  -24.9330  -13.1840   20.7250 C   0  0  0  0  0  0  0  0  0  0  0  0
  -25.3270  -11.8110   20.6700 C   0  0  0  0  0  0  0  0  0  0  0  0
  -27.0270  -12.9780   20.0790 N   0  0  0  0  0  0  0  0  0  0  0  0
  -26.6080  -11.7130   20.3370 N   0  0  0  0  0  0  0  0  0  0  0  0
  -24.5460  -10.5830   20.8600 C   0  0  0  0  0  0  0  0  0  0  0  0
  -24.8860   -9.6380   21.8510 C   0  0  0  0  0  3  0  0  0  0  0  0
  -24.1110   -8.4720   22.0260 C   0  0  0  0  0  3  0  0  0  0  0  0
  -22.9820   -8.2410   21.2050 C   0  0  0  0  0  0  0  0  0  0  0  0
  -22.6610   -9.1720   20.2020 C   0  0  0  0  0  3  0  0  0  0  0  0
  -23.4370  -10.3310   20.0280 C   0  0  0  0  0  3  0  0  0  0  0  0
  -22.1870   -7.1250   21.2840 O   0  0  0  0  0  0  0  0  0  0  0  0
  -21.9070   -6.5240   22.4850 C   0  0  0  0  0  0  0  0  0  0  0  0
  -21.2850   -7.2220   23.5430 C   0  0  0  0  0  3  0  0  0  0  0  0
  -20.9560   -6.5460   24.7340 C   0  0  0  0  0  3  0  0  0  0  0  0
  -21.2390   -5.1730   24.8670 C   0  0  0  0  0  0  0  0  0  0  0  0
  -21.8530   -4.4760   23.8130 C   0  0  0  0  0  3  0  0  0  0  0  0
  -22.1840   -5.1490   22.6230 C   0  0  0  0  0  0  0  0  0  0  0  0
  -22.7570   -4.4670   21.6030 F   0  0  0  0  0  0  0  0  0  0  0  0
  -20.9150   -4.5210   26.0080 F   0  0  0  0  0  0  0  0  0  0  0  0
  -23.5640  -13.7220   21.0290 C   0  0  0  0  0  0  0  0  0  0  0  0
  -22.8260  -13.0610   21.9140 N   0  0  0  0  0  0  0  0  0  0  0  0
  -23.1590  -14.7650   20.5170 O   0  0  0  0  0  0  0  0  0  0  0  0
  -23.1640  -12.2160   22.3520 H   0  0  0  0  0  0  0  0  0  0  0  0
  -21.9070  -13.4030   22.1530 H   0  0  0  0  0  0  0  0  0  0  0  0
  -26.2670  -15.2610   20.1620 N   0  0  0  0  0  0  0  0  0  0  0  0
  -25.5990  -15.9810   20.4060 H   0  0  0  0  0  0  0  0  0  0  0  0
  -27.1600  -15.6330   19.8620 H   0  0  0  0  0  0  0  0  0  0  0  0
  1  3  2  0
  1  2  1  0
  2  4  1  0
  5  2  1  0
  5  6  1  0
  7  8  1  0
  7  6  1  0
  9 10  1  0
  9  8  1  0
 11 13  1  0
 11 10  1  0
 12 23  2  0
 13 18  1  0
 14 22  1  0
 14 24  1  0
 15 21  1  0
 15 17  1  0
 16 22  1  0
 17 16  1  0
 18 17  2  0
 19 20  1  0
 19 13  2  0
 20 15  2  0
 21 14  1  0
 22 12  1  0
 24 26  2  0
 25 24  1  0
 27 25  1  0
 28 37  2  0
 28 33  1  0
 29 25  1  0
 29 33  1  0
 30 29  1  0
 31 32  1  0
 31 30  1  0
 32 28  1  0
 33 34  2  0
 34 35  1  0
 36 35  2  0
 37 36  1  0
 38 12  1  0
 38 39  1  0
 38 48  1  0
 39 42  1  0
 40 44  1  0
 40 39  1  0
 41 40  2  0
 44 43  1  0
 44 46  1  0
 46 47  1  0
 46 45  1  0
 48 51  1  1
 48 49  1  0
 50 48  1  0
 52  1  1  0
 53 52  1  0
 54 55  1  0
 55 53  1  0
 56 54  2  0
 57 55  1  0
 58 54  1  0
 58 59  1  0
 59 60  1  0
 60 61  1  0
 61 62  1  0
 63 71  1  0
 64 69  1  0
 65 66  1  0
 65 64  1  0
 67 66  1  0
 67 76  1  0
 67 68  1  0
 69 63  1  0
 69 68  1  0
 70 63  2  0
 71 62  1  0
 71 72  1  0
 73 74  2  0
 74 93  1  0
 75 74  1  0
 75 78  1  0
 76 77  1  0
 76 73  1  0
 77 75  2  0
 78 79  1  0
 79 80  2  0
 81 84  1  0
 81 80  1  0
 82 81  2  0
 83 82  1  0
 83 78  2  0
 84 85  1  0
 85 90  2  0
 85 86  1  0
 86 87  2  0
 87 88  1  0
 88 92  1  0
 89 88  2  0
 90 89  1  0
 91 90  1  0
 93 94  1  0
 94 97  1  0
 94 96  1  0
 95 93  2  0
 98 73  1  0
 98 99  1  0
100 98  1  0
M  ISO  4  10 101  11 101  63 100  71 100
M  END
>  <TORSDO>  (61) 
F 30

>  <SCORE>  (61) 
-6.735

>  <name>  (61) 
68

>  <ligand_id>  (61) 
68

>  <original_smiles>  (61) 
[H]c1c([H])c([H])c2c(c1[H])C([H])([H])C([H])([H])C([H])([H])C2([H])N([H])C(=O)C1([H])N(C(=O)C([H])(N([H])C(=O)C([H])(N([H])C([H])([H])[H])C([H])([H])[H])C(C([H])([H])[H])(C([H])([H])[H])C([H])([H])[H])C([H])([H])c2c([H])c(OC([H])([H])C([H])([H])C([H])([H])OC([H])([H])C([H])([H])N([H])C(=O)C([H])([H])C([H])([H])N([H])C(=O)C([H])([H])C([H])([H])C([H])([H])C([H])([H])C([H])([H])N([H])C(=O)N3C([H])([H])C([H])([H])C([H])([H])C([H])(n4nc(-c5c([H])c([H])c(Oc6c([H])c([H])c(F)c([H])c6F)c([H])c5[H])c(C(=O)N([H])[H])c4N([H])[H])C3([H])[H])c([H])c([H])c2C1([H])[H]

>  <smiles>  (61) 
[H]c1c([H])c([H])c2c(c1[H])C([H])([H])C([H])([H])C([H])([H])C2([H])N([H])C(=O)C1([H])N(C(=O)C([H])(N([H])C(=O)C([H])(N([H])C([H])([H])[H])C([H])([H])[H])C(C([H])([H])[H])(C([H])([H])[H])C([H])([H])[H])C([H])([H])c2c([H])c(OC([H])([H])C([H])([H])C([H])([H])OC([H])([H])C([H])([H])N([H])C(=O)C([H])([H])C([H])([H])N([H])C(=O)C([H])([H])C([H])([H])C([H])([H])C([H])([H])C([H])([H])N([H])C(=O)N3C([H])([H])C([H])([H])C([H])([H])C([H])(n4nc(-c5c([H])c([H])c(Oc6c([H])c([H])c(F)c([H])c6F)c([H])c5[H])c(C(=O)N([H])[H])c4N([H])[H])C3([H])[H])c([H])c([H])c2C1([H])[H]

$$$$
69:0:0
     RDKit          3D

 99106  0  0  1  0  0  0  0  0999 V2000
  -29.5040  -23.2480   18.1310 C   0  0  0  0  0  2  0  0  0  0  0  0
  -30.9130  -23.5750   17.5820 C   0  0  0  0  0  2  0  0  0  0  0  0
  -31.2440  -25.0800   17.5890 C   0  0  0  0  0  2  0  0  0  0  0  0
  -31.1750  -25.6620   18.9450 N   0  0  0  0  0  4  0  0  0  0  0  0
  -31.9900  -25.3930   19.4760 H   0  0  0  0  0  0  0  0  0  0  0  0
  -30.3630  -25.2700   19.3940 H   0  0  0  0  0  0  0  0  0  0  0  0
  -31.0140  -27.1330   18.9660 C   0  0  0  0  0  2  0  0  0  0  0  0
  -30.6410  -27.6760   20.3610 C   0  0  0  0  0  2  0  0  0  0  0  0
  -29.4930  -26.9100   21.0470 C   0  0  0  0  0  2  0  0  0  0  0  0
  -28.4270  -26.6560   20.1320 O   0  0  0  0  0  0  0  0  0  0  0  0
  -24.6180  -31.8550   23.2250 C   0  0  0  0  0  0  0  0  0  0  0  0
  -27.2950  -27.4380   20.1750 C   0  0  0  0  0  0  0  0  0  0  0  0
  -23.4130  -30.4420   21.5850 C   0  0  0  0  0  3  0  0  0  0  0  0
  -24.8770  -28.9050   20.1690 C   0  0  0  0  0  0  0  0  0  0  0  0
  -25.9310  -30.8180   21.3860 C   0  0  0  0  0  2  0  0  0  0  0  0
  -26.0240  -29.4460   20.7600 C   0  0  0  0  0  0  0  0  0  0  0  0
  -27.2350  -28.7220   20.7670 C   0  0  0  0  0  3  0  0  0  0  0  0
  -26.1330  -26.9120   19.5730 C   0  0  0  0  0  3  0  0  0  0  0  0
  -24.9230  -27.6310   19.5730 C   0  0  0  0  0  3  0  0  0  0  0  0
  -23.6250  -29.7550   20.2080 C   0  0  0  0  0  2  0  0  0  0  0  0
  -24.6710  -31.0510   22.1250 N   0  0  0  0  0  0  0  0  0  0  0  0
  -23.5380  -32.1310   23.7630 O   0  0  0  0  0  0  0  0  0  0  0  0
  -22.7630  -29.4240   22.5490 C   0  0  0  0  0  0  0  0  0  0  0  0
  -21.4370  -29.2500   22.4270 N   0  0  0  0  0  0  0  0  0  0  0  0
  -23.4460  -28.7970   23.3630 O   0  0  0  0  0  0  0  0  0  0  0  0
  -20.9490  -29.8110   21.7430 H   0  0  0  0  0  0  0  0  0  0  0  0
  -18.0590  -28.0900   22.9430 C   0  0  0  0  0  0  0  0  0  0  0  0
  -20.6190  -28.3180   23.2010 C   0  0  0  0  0  3  0  0  0  0  0  0
  -20.7030  -26.8890   22.6160 C   0  0  0  0  0  2  0  0  0  0  0  0
  -19.5920  -26.5840   21.6060 C   0  0  0  0  0  2  0  0  0  0  0  0
  -18.2170  -26.7420   22.2600 C   0  0  0  0  0  2  0  0  0  0  0  0
  -19.1870  -28.8370   23.3700 C   0  0  0  0  0  0  0  0  0  0  0  0
  -18.9890  -30.1010   23.9650 C   0  0  0  0  0  3  0  0  0  0  0  0
  -17.6920  -30.6210   24.1350 C   0  0  0  0  0  3  0  0  0  0  0  0
  -16.5760  -29.8690   23.7250 C   0  0  0  0  0  3  0  0  0  0  0  0
  -16.7600  -28.6060   23.1370 C   0  0  0  0  0  3  0  0  0  0  0  0
  -25.9070  -32.4840   23.8420 C   0  0  0  0  0  3  0  0  0  0  0  0
  -25.6000  -33.8780   24.1810 N   0  0  0  0  0  0  0  0  0  0  0  0
  -25.9300  -34.9340   23.4240 C   0  0  0  0  0  0  0  0  0  0  0  0
  -26.6000  -34.8370   22.3920 O   0  0  0  0  0  0  0  0  0  0  0  0
  -25.0070  -34.0310   24.9830 H   0  0  0  0  0  0  0  0  0  0  0  0
  -24.1970  -36.7190   23.0780 C   0  0  0  0  0  1  0  0  0  0  0  0
  -25.4390  -36.3190   23.8880 C   0  0  0  0  0  3  0  0  0  0  0  0
  -27.5740  -37.2020   24.7210 C   0  0  0  0  0  1  0  0  0  0  0  0
  -26.4700  -37.3760   23.7790 N   0  0  0  0  0  0  0  0  0  0  0  0
  -26.0620  -38.2940   23.9360 H   0  0  0  0  0  0  0  0  0  0  0  0
  -26.4360  -31.7030   25.1080 C   0  0  1  0  0  0  0  0  0  0  0  0
  -25.3510  -31.4520   26.1810 C   0  0  0  0  0  1  0  0  0  0  0  0
  -27.0180  -30.3310   24.6920 C   0  0  0  0  0  1  0  0  0  0  0  0
  -27.5860  -32.4950   25.7750 C   0  0  0  0  0  1  0  0  0  0  0  0
  -29.0160  -21.8100   17.8530 C   0  0  0  0  0  2  0  0  0  0  0  0
  -30.5070  -20.3580   19.2320 C   0  0  0  0  0  0  0  0  0  0  0  0
  -30.0410  -20.7920   18.0580 N   0  0  0  0  0  0  0  0  0  0  0  0
  -30.1490  -20.8320   20.3120 O   0  0  0  0  0  0  0  0  0  0  0  0
  -30.3900  -20.3250   17.2300 H   0  0  0  0  0  0  0  0  0  0  0  0
  -31.5490  -19.2330   19.1730 C   0  0  0  0  0  2  0  0  0  0  0  0
  -30.5200  -17.4660   20.5780 C   0  0  0  0  0  0  0  0  0  0  0  0
  -31.4970  -18.3430   20.3290 N   0  0  0  0  0  0  0  0  0  0  0  0
  -29.5210  -17.3550   19.8610 O   0  0  0  0  0  0  0  0  0  0  0  0
  -32.2740  -18.3840   20.9730 H   0  0  0  0  0  0  0  0  0  0  0  0
  -30.6960  -16.5560   21.8000 C   0  0  0  0  0  2  0  0  0  0  0  0
  -30.7230  -14.3740   20.6130 C   0  0  0  0  0  0  0  0  0  0  0  0
  -30.3580  -12.3070   19.3240 C   0  0  0  0  0  2  0  0  0  0  0  0
  -29.4210  -12.5690   18.1310 C   0  0  0  0  0  2  0  0  0  0  0  0
  -27.9480  -12.4330   18.5550 C   0  0  0  0  0  2  0  0  0  0  0  0
  -27.6220  -13.2400   19.8380 C   0  0  0  0  0  3  0  0  0  0  0  0
  -28.6630  -12.9560   20.9430 C   0  0  0  0  0  2  0  0  0  0  0  0
  -30.0040  -13.2430   20.3990 N   0  0  0  0  0  0  0  0  0  0  0  0
  -31.7630  -14.6450   20.0040 O   0  0  0  0  0  0  0  0  0  0  0  0
  -30.2130  -15.2030   21.5310 N   0  0  0  0  0  0  0  0  0  0  0  0
  -29.3530  -14.9210   21.9740 H   0  0  0  0  0  0  0  0  0  0  0  0
  -25.2140  -13.8630   20.5110 C   0  0  0  0  0  0  0  0  0  0  0  0
  -24.1410  -13.0970   20.8780 C   0  0  0  0  0  0  0  0  0  0  0  0
  -24.5990  -11.7430   20.8620 C   0  0  0  0  0  0  0  0  0  0  0  0
  -26.2610  -12.9770   20.3010 N   0  0  0  0  0  0  0  0  0  0  0  0
  -25.8900  -11.6980   20.5640 N   0  0  0  0  0  0  0  0  0  0  0  0
  -23.8690  -10.4840   21.0580 C   0  0  0  0  0  0  0  0  0  0  0  0
  -24.3060   -9.5120   21.9830 C   0  0  0  0  0  3  0  0  0  0  0  0
  -23.5760   -8.3170   22.1660 C   0  0  0  0  0  3  0  0  0  0  0  0
  -22.3950   -8.0870   21.4220 C   0  0  0  0  0  0  0  0  0  0  0  0
  -21.9750   -9.0490   20.4850 C   0  0  0  0  0  3  0  0  0  0  0  0
  -22.7060  -10.2340   20.3020 C   0  0  0  0  0  3  0  0  0  0  0  0
  -21.6370   -6.9450   21.5140 O   0  0  0  0  0  0  0  0  0  0  0  0
  -21.6170   -6.1840   22.6550 C   0  0  0  0  0  0  0  0  0  0  0  0
  -21.2410   -6.7240   23.9050 C   0  0  0  0  0  3  0  0  0  0  0  0
  -21.1680   -5.8890   25.0380 C   0  0  0  0  0  3  0  0  0  0  0  0
  -21.4600   -4.5160   24.9230 C   0  0  0  0  0  0  0  0  0  0  0  0
  -21.8300   -3.9760   23.6790 C   0  0  0  0  0  3  0  0  0  0  0  0
  -21.9050   -4.8090   22.5480 C   0  0  0  0  0  0  0  0  0  0  0  0
  -22.2400   -4.2780   21.3460 F   0  0  0  0  0  0  0  0  0  0  0  0
  -21.3830   -3.7130   26.0100 F   0  0  0  0  0  0  0  0  0  0  0  0
  -22.7420  -13.5790   21.1360 C   0  0  0  0  0  0  0  0  0  0  0  0
  -22.0070  -12.8890   22.0010 N   0  0  0  0  0  0  0  0  0  0  0  0
  -22.3100  -14.6020   20.6060 O   0  0  0  0  0  0  0  0  0  0  0  0
  -22.3670  -12.0590   22.4470 H   0  0  0  0  0  0  0  0  0  0  0  0
  -21.0680  -13.1940   22.2150 H   0  0  0  0  0  0  0  0  0  0  0  0
  -25.3860  -15.2310   20.3240 N   0  0  0  0  0  0  0  0  0  0  0  0
  -24.6230  -15.8930   20.4200 H   0  0  0  0  0  0  0  0  0  0  0  0
  -26.2480  -15.6640   20.0140 H   0  0  0  0  0  0  0  0  0  0  0  0
  2  3  1  0
  2  1  1  0
  3  4  1  0
  4  7  1  0
  4  6  1  0
  4  5  1  0
  7  8  1  0
  8  9  1  0
 10 12  1  0
 10  9  1  0
 11 22  2  0
 12 17  1  0
 13 21  1  0
 13 23  1  0
 14 20  1  0
 14 16  1  0
 15 21  1  0
 16 17  2  0
 16 15  1  0
 18 19  1  0
 18 12  2  0
 19 14  2  0
 20 13  1  0
 21 11  1  0
 23 25  2  0
 24 23  1  0
 26 24  1  0
 27 36  2  0
 27 32  1  0
 28 24  1  0
 28 32  1  0
 29 28  1  0
 30 31  1  0
 30 29  1  0
 31 27  1  0
 32 33  2  0
 33 34  1  0
 35 34  2  0
 36 35  1  0
 37 11  1  0
 37 38  1  0
 37 47  1  0
 38 41  1  0
 39 43  1  0
 39 38  1  0
 40 39  2  0
 43 42  1  0
 45 43  1  0
 45 46  1  0
 45 44  1  0
 47 50  1  1
 47 48  1  0
 49 47  1  0
 51 53  1  0
 51  1  1  0
 52 54  2  0
 53 52  1  0
 55 53  1  0
 56 52  1  0
 56 58  1  0
 57 61  1  0
 58 57  1  0
 58 60  1  0
 59 57  2  0
 62 70  1  0
 63 68  1  0
 64 65  1  0
 64 63  1  0
 66 65  1  0
 66 75  1  0
 66 67  1  0
 68 62  1  0
 68 67  1  0
 69 62  2  0
 70 61  1  0
 70 71  1  0
 72 73  2  0
 73 92  1  0
 74 73  1  0
 74 77  1  0
 75 72  1  0
 75 76  1  0
 76 74  2  0
 77 78  1  0
 78 79  2  0
 80 83  1  0
 80 79  1  0
 81 80  2  0
 82 81  1  0
 82 77  2  0
 83 84  1  0
 84 85  1  0
 85 86  2  0
 87 86  1  0
 87 91  1  0
 88 87  2  0
 89 84  2  0
 89 88  1  0
 90 89  1  0
 92 93  1  0
 93 96  1  0
 93 95  1  0
 94 92  2  0
 97 98  1  0
 97 72  1  0
 99 97  1  0
M  ISO  4   9 101  10 101  62 100  70 100
M  END
>  <TORSDO>  (62) 
F 27

>  <SCORE>  (62) 
-11.750

>  <name>  (62) 
69

>  <ligand_id>  (62) 
69

>  <original_smiles>  (62) 
[H]c1c([H])c([H])c2c(c1[H])C([H])([H])C([H])([H])C([H])([H])C2([H])N([H])C(=O)C1([H])N(C(=O)C([H])(N([H])C(=O)C([H])(N([H])C([H])([H])[H])C([H])([H])[H])C(C([H])([H])[H])(C([H])([H])[H])C([H])([H])[H])C([H])([H])c2c([H])c(OC([H])([H])C([H])([H])C([H])([H])[N+]([H])([H])C([H])([H])C([H])([H])C([H])([H])C([H])([H])N([H])C(=O)C([H])([H])N([H])C(=O)C([H])([H])N([H])C(=O)N3C([H])([H])C([H])([H])C([H])([H])C([H])(n4nc(-c5c([H])c([H])c(Oc6c([H])c([H])c(F)c([H])c6F)c([H])c5[H])c(C(=O)N([H])[H])c4N([H])[H])C3([H])[H])c([H])c([H])c2C1([H])[H]

>  <smiles>  (62) 
[H]c1c([H])c([H])c2c(c1[H])C([H])([H])C([H])([H])C([H])([H])C2([H])N([H])C(=O)C1([H])N(C(=O)C([H])(N([H])C(=O)C([H])(N([H])C([H])([H])[H])C([H])([H])[H])C(C([H])([H])[H])(C([H])([H])[H])C([H])([H])[H])C([H])([H])c2c([H])c(OC([H])([H])C([H])([H])C([H])([H])[N+]([H])([H])C([H])([H])C([H])([H])C([H])([H])C([H])([H])N([H])C(=O)C([H])([H])N([H])C(=O)C([H])([H])N([H])C(=O)N3C([H])([H])C([H])([H])C([H])([H])C([H])(n4nc(-c5c([H])c([H])c(Oc6c([H])c([H])c(F)c([H])c6F)c([H])c5[H])c(C(=O)N([H])[H])c4N([H])[H])C3([H])[H])c([H])c([H])c2C1([H])[H]

$$$$
71:0:0
     RDKit          3D

 99106  0  0  1  0  0  0  0  0999 V2000
  -24.3550  -19.6160   22.4970 C   0  0  0  0  0  2  0  0  0  0  0  0
  -25.5930  -20.4140   22.5440 N   0  0  0  0  0  4  0  0  0  0  0  0
  -25.4870  -21.1070   23.2660 H   0  0  0  0  0  0  0  0  0  0  0  0
  -26.3390  -19.7850   22.8290 H   0  0  0  0  0  0  0  0  0  0  0  0
  -25.9610  -21.0950   21.2860 C   0  0  0  0  0  2  0  0  0  0  0  0
  -26.8750  -22.2940   21.5880 C   0  0  0  0  0  2  0  0  0  0  0  0
  -27.3360  -23.1050   20.3630 C   0  0  0  0  0  2  0  0  0  0  0  0
  -27.8360  -24.4940   20.7990 C   0  0  0  0  0  2  0  0  0  0  0  0
  -28.4180  -25.3690   19.6700 C   0  0  0  0  0  2  0  0  0  0  0  0
  -28.4190  -26.7480   20.0600 O   0  0  0  0  0  0  0  0  0  0  0  0
  -24.6140  -31.8720   23.2130 C   0  0  0  0  0  0  0  0  0  0  0  0
  -27.2260  -27.4470   20.0720 C   0  0  0  0  0  0  0  0  0  0  0  0
  -23.3980  -30.5000   21.5530 C   0  0  0  0  0  3  0  0  0  0  0  0
  -24.8370  -28.9680   20.1160 C   0  0  0  0  0  0  0  0  0  0  0  0
  -25.9280  -30.8360   21.3670 C   0  0  0  0  0  2  0  0  0  0  0  0
  -26.0000  -29.4730   20.7100 C   0  0  0  0  0  0  0  0  0  0  0  0
  -27.1940  -28.7180   20.6880 C   0  0  0  0  0  3  0  0  0  0  0  0
  -26.0340  -26.9510   19.4880 C   0  0  0  0  0  3  0  0  0  0  0  0
  -24.8470  -27.7030   19.5100 C   0  0  0  0  0  3  0  0  0  0  0  0
  -23.6050  -29.8410   20.1640 C   0  0  0  0  0  2  0  0  0  0  0  0
  -24.6640  -31.0830   22.1020 N   0  0  0  0  0  0  0  0  0  0  0  0
  -23.5340  -32.1470   23.7540 O   0  0  0  0  0  0  0  0  0  0  0  0
  -22.7400  -29.4690   22.4980 C   0  0  0  0  0  0  0  0  0  0  0  0
  -21.4130  -29.3050   22.3710 N   0  0  0  0  0  0  0  0  0  0  0  0
  -23.4170  -28.8220   23.3000 O   0  0  0  0  0  0  0  0  0  0  0  0
  -20.9270  -29.8770   21.6940 H   0  0  0  0  0  0  0  0  0  0  0  0
  -18.0280  -28.1380   22.8490 C   0  0  0  0  0  0  0  0  0  0  0  0
  -20.5870  -28.3680   23.1320 C   0  0  0  0  0  3  0  0  0  0  0  0
  -20.6780  -26.9420   22.5410 C   0  0  0  0  0  2  0  0  0  0  0  0
  -19.5760  -26.6400   21.5200 C   0  0  0  0  0  2  0  0  0  0  0  0
  -18.1950  -26.7930   22.1620 C   0  0  0  0  0  2  0  0  0  0  0  0
  -19.1530  -28.8840   23.2900 C   0  0  0  0  0  0  0  0  0  0  0  0
  -18.9460  -30.1440   23.8920 C   0  0  0  0  0  3  0  0  0  0  0  0
  -17.6460  -30.6580   24.0570 C   0  0  0  0  0  3  0  0  0  0  0  0
  -16.5350  -29.9090   23.6320 C   0  0  0  0  0  3  0  0  0  0  0  0
  -16.7270  -28.6510   23.0340 C   0  0  0  0  0  3  0  0  0  0  0  0
  -25.9060  -32.4830   23.8400 C   0  0  0  0  0  3  0  0  0  0  0  0
  -25.5940  -33.8620   24.2340 N   0  0  0  0  0  0  0  0  0  0  0  0
  -25.9040  -34.9470   23.5110 C   0  0  0  0  0  0  0  0  0  0  0  0
  -26.5590  -34.8920   22.4660 O   0  0  0  0  0  0  0  0  0  0  0  0
  -25.0130  -33.9800   25.0510 H   0  0  0  0  0  0  0  0  0  0  0  0
  -24.1500  -36.7310   23.2630 C   0  0  0  0  0  1  0  0  0  0  0  0
  -25.4120  -36.3100   24.0330 C   0  0  0  0  0  3  0  0  0  0  0  0
  -27.5580  -37.1820   24.8470 C   0  0  0  0  0  1  0  0  0  0  0  0
  -26.4310  -37.3790   23.9390 N   0  0  0  0  0  0  0  0  0  0  0  0
  -26.0190  -38.2860   24.1380 H   0  0  0  0  0  0  0  0  0  0  0  0
  -26.4490  -31.6590   25.0710 C   0  0  1  0  0  0  0  0  0  0  0  0
  -25.3780  -31.3680   26.1470 C   0  0  0  0  0  1  0  0  0  0  0  0
  -27.0290  -30.3030   24.6060 C   0  0  0  0  0  1  0  0  0  0  0  0
  -27.6090  -32.4280   25.7470 C   0  0  0  0  0  1  0  0  0  0  0  0
  -24.2060  -18.7480   23.7640 C   0  0  0  0  0  2  0  0  0  0  0  0
  -26.2850  -17.3410   23.6310 C   0  0  0  0  0  0  0  0  0  0  0  0
  -24.9590  -17.4930   23.7060 N   0  0  0  0  0  0  0  0  0  0  0  0
  -27.0560  -18.2990   23.5320 O   0  0  0  0  0  0  0  0  0  0  0  0
  -24.4150  -16.6420   23.7670 H   0  0  0  0  0  0  0  0  0  0  0  0
  -26.8020  -15.8980   23.6600 C   0  0  0  0  0  2  0  0  0  0  0  0
  -29.2550  -15.4560   23.7720 C   0  0  0  0  0  0  0  0  0  0  0  0
  -28.1440  -15.7730   23.1030 N   0  0  0  0  0  0  0  0  0  0  0  0
  -29.2870  -15.3420   24.9970 O   0  0  0  0  0  0  0  0  0  0  0  0
  -28.2370  -15.8860   22.1030 H   0  0  0  0  0  0  0  0  0  0  0  0
  -30.5130  -15.1790   22.9460 C   0  0  0  0  0  2  0  0  0  0  0  0
  -30.7820  -14.3770   20.6570 C   0  0  0  0  0  0  0  0  0  0  0  0
  -30.4220  -12.2850   19.4040 C   0  0  0  0  0  2  0  0  0  0  0  0
  -29.4900  -12.5180   18.1980 C   0  0  0  0  0  2  0  0  0  0  0  0
  -28.0140  -12.3780   18.6150 C   0  0  0  0  0  2  0  0  0  0  0  0
  -27.6710  -13.2030   19.8830 C   0  0  0  0  0  3  0  0  0  0  0  0
  -28.7150  -12.9490   20.9950 C   0  0  0  0  0  2  0  0  0  0  0  0
  -30.0580  -13.2410   20.4620 N   0  0  0  0  0  0  0  0  0  0  0  0
  -31.8070  -14.6410   20.0290 O   0  0  0  0  0  0  0  0  0  0  0  0
  -30.2930  -15.2870   21.5030 N   0  0  0  0  0  0  0  0  0  0  0  0
  -30.5390  -16.2170   21.1980 H   0  0  0  0  0  0  0  0  0  0  0  0
  -25.2620  -13.8140   20.5650 C   0  0  0  0  0  0  0  0  0  0  0  0
  -24.1860  -13.0430   20.9140 C   0  0  0  0  0  0  0  0  0  0  0  0
  -24.6400  -11.6890   20.8690 C   0  0  0  0  0  0  0  0  0  0  0  0
  -26.3080  -12.9310   20.3400 N   0  0  0  0  0  0  0  0  0  0  0  0
  -25.9340  -11.6470   20.5780 N   0  0  0  0  0  0  0  0  0  0  0  0
  -23.9040  -10.4300   21.0360 C   0  0  0  0  0  0  0  0  0  0  0  0
  -24.3590   -9.4230   21.9150 C   0  0  0  0  0  3  0  0  0  0  0  0
  -23.6270   -8.2260   22.0740 C   0  0  0  0  0  3  0  0  0  0  0  0
  -22.4240   -8.0290   21.3540 C   0  0  0  0  0  0  0  0  0  0  0  0
  -21.9880   -9.0250   20.4620 C   0  0  0  0  0  3  0  0  0  0  0  0
  -22.7210  -10.2130   20.3020 C   0  0  0  0  0  3  0  0  0  0  0  0
  -21.6630   -6.8870   21.4220 O   0  0  0  0  0  0  0  0  0  0  0  0
  -21.6840   -6.0740   22.5250 C   0  0  0  0  0  0  0  0  0  0  0  0
  -21.4000   -6.5660   23.8180 C   0  0  0  0  0  3  0  0  0  0  0  0
  -21.3670   -5.6840   24.9150 C   0  0  0  0  0  3  0  0  0  0  0  0
  -21.6030   -4.3100   24.7220 C   0  0  0  0  0  0  0  0  0  0  0  0
  -21.8810   -3.8170   23.4340 C   0  0  0  0  0  3  0  0  0  0  0  0
  -21.9190   -4.6970   22.3390 C   0  0  0  0  0  0  0  0  0  0  0  0
  -22.1660   -4.2150   21.0970 F   0  0  0  0  0  0  0  0  0  0  0  0
  -21.5650   -3.4590   25.7740 F   0  0  0  0  0  0  0  0  0  0  0  0
  -22.7880  -13.5230   21.1840 C   0  0  0  0  0  0  0  0  0  0  0  0
  -22.0500  -12.8170   22.0320 N   0  0  0  0  0  0  0  0  0  0  0  0
  -22.3620  -14.5610   20.6780 O   0  0  0  0  0  0  0  0  0  0  0  0
  -22.4050  -11.9710   22.4510 H   0  0  0  0  0  0  0  0  0  0  0  0
  -21.1140  -13.1220   22.2560 H   0  0  0  0  0  0  0  0  0  0  0  0
  -25.4300  -15.1870   20.4060 N   0  0  0  0  0  0  0  0  0  0  0  0
  -24.6300  -15.8090   20.4170 H   0  0  0  0  0  0  0  0  0  0  0  0
  -26.2560  -15.6140   20.0060 H   0  0  0  0  0  0  0  0  0  0  0  0
  1  2  1  0
  1 51  1  0
  2  4  1  0
  2  3  1  0
  5  6  1  0
  5  2  1  0
  7  8  1  0
  7  6  1  0
  9 10  1  0
  9  8  1  0
 10 12  1  0
 11 22  2  0
 12 17  1  0
 13 21  1  0
 13 23  1  0
 14 20  1  0
 14 16  1  0
 15 21  1  0
 16 15  1  0
 17 16  2  0
 18 19  1  0
 18 12  2  0
 19 14  2  0
 20 13  1  0
 21 11  1  0
 23 25  2  0
 24 23  1  0
 26 24  1  0
 27 36  2  0
 27 32  1  0
 28 24  1  0
 28 32  1  0
 29 28  1  0
 30 31  1  0
 30 29  1  0
 31 27  1  0
 32 33  2  0
 33 34  1  0
 35 34  2  0
 36 35  1  0
 37 11  1  0
 37 38  1  0
 37 47  1  0
 38 41  1  0
 39 43  1  0
 39 38  1  0
 40 39  2  0
 43 42  1  0
 45 43  1  0
 45 46  1  0
 45 44  1  0
 47 50  1  1
 47 48  1  0
 49 47  1  0
 52 56  1  0
 52 53  1  0
 53 51  1  0
 53 55  1  0
 54 52  2  0
 57 59  2  0
 58 56  1  0
 58 57  1  0
 60 58  1  0
 61 57  1  0
 62 70  1  0
 63 68  1  0
 64 65  1  0
 64 63  1  0
 66 65  1  0
 66 75  1  0
 66 67  1  0
 68 62  1  0
 68 67  1  0
 69 62  2  0
 70 61  1  0
 71 70  1  0
 72 73  2  0
 73 92  1  0
 74 73  1  0
 74 77  1  0
 75 72  1  0
 75 76  1  0
 76 74  2  0
 77 78  1  0
 78 79  2  0
 80 83  1  0
 80 79  1  0
 81 80  2  0
 82 81  1  0
 82 77  2  0
 83 84  1  0
 84 85  1  0
 85 86  2  0
 87 86  1  0
 87 91  1  0
 88 87  2  0
 89 84  2  0
 89 88  1  0
 90 89  1  0
 92 93  1  0
 93 96  1  0
 93 95  1  0
 94 92  2  0
 97 98  1  0
 97 72  1  0
 99 97  1  0
M  ISO  4   9 101  10 101  62 100  70 100
M  END
>  <TORSDO>  (63) 
F 27

>  <SCORE>  (63) 
68.443

>  <name>  (63) 
71

>  <ligand_id>  (63) 
71

>  <original_smiles>  (63) 
[H]c1c([H])c([H])c2c(c1[H])C([H])([H])C([H])([H])C([H])([H])C2([H])N([H])C(=O)C1([H])N(C(=O)C([H])(N([H])C(=O)C([H])(N([H])C([H])([H])[H])C([H])([H])[H])C(C([H])([H])[H])(C([H])([H])[H])C([H])([H])[H])C([H])([H])c2c([H])c(OC([H])([H])C([H])([H])C([H])([H])C([H])([H])C([H])([H])[N+]([H])([H])C([H])([H])C([H])([H])N([H])C(=O)C([H])([H])N([H])C(=O)C([H])([H])N([H])C(=O)N3C([H])([H])C([H])([H])C([H])([H])C([H])(n4nc(-c5c([H])c([H])c(Oc6c([H])c([H])c(F)c([H])c6F)c([H])c5[H])c(C(=O)N([H])[H])c4N([H])[H])C3([H])[H])c([H])c([H])c2C1([H])[H]

>  <smiles>  (63) 
[H]c1c([H])c([H])c2c(c1[H])C([H])([H])C([H])([H])C([H])([H])C2([H])N([H])C(=O)C1([H])N(C(=O)C([H])(N([H])C(=O)C([H])(N([H])C([H])([H])[H])C([H])([H])[H])C(C([H])([H])[H])(C([H])([H])[H])C([H])([H])[H])C([H])([H])c2c([H])c(OC([H])([H])C([H])([H])C([H])([H])C([H])([H])C([H])([H])[N+]([H])([H])C([H])([H])C([H])([H])N([H])C(=O)C([H])([H])N([H])C(=O)C([H])([H])N([H])C(=O)N3C([H])([H])C([H])([H])C([H])([H])C([H])(n4nc(-c5c([H])c([H])c(Oc6c([H])c([H])c(F)c([H])c6F)c([H])c5[H])c(C(=O)N([H])[H])c4N([H])[H])C3([H])[H])c([H])c([H])c2C1([H])[H]

$$$$
72:0:0
     RDKit          3D

105112  0  0  1  0  0  0  0  0999 V2000
  -29.2130  -20.0930   21.3760 C   0  0  0  0  0  0  0  0  0  0  0  0
  -28.8400  -21.1100   22.1640 N   0  0  0  0  0  0  0  0  0  0  0  0
  -30.0440  -19.2560   21.7260 O   0  0  0  0  0  0  0  0  0  0  0  0
  -28.1230  -21.7320   21.8180 H   0  0  0  0  0  0  0  0  0  0  0  0
  -29.3090  -21.3510   23.5300 C   0  0  0  0  0  2  0  0  0  0  0  0
  -28.6500  -20.4090   24.5460 C   0  0  0  0  0  0  0  0  0  0  0  0
  -29.3420  -20.1550   25.6640 N   0  0  0  0  0  0  0  0  0  0  0  0
  -27.5450  -19.9120   24.3180 O   0  0  0  0  0  0  0  0  0  0  0  0
  -30.2180  -20.6460   25.7930 H   0  0  0  0  0  0  0  0  0  0  0  0
  -29.0330  -19.1090   26.6380 C   0  0  0  0  0  2  0  0  0  0  0  0
  -29.2460  -17.6950   26.0540 C   0  0  0  0  0  2  0  0  0  0  0  0
  -30.5730  -17.5270   25.2850 C   0  0  0  0  0  2  0  0  0  0  0  0
  -30.6860  -16.1860   24.5470 C   0  0  0  0  0  2  0  0  0  0  0  0
  -31.8580  -16.2000   23.5520 C   0  0  0  0  0  2  0  0  0  0  0  0
  -32.1050  -14.8580   22.8550 C   0  0  0  0  0  2  0  0  0  0  0  0
  -30.8830  -14.2100   20.7870 C   0  0  0  0  0  0  0  0  0  0  0  0
  -30.3980  -12.2830   19.3440 C   0  0  0  0  0  2  0  0  0  0  0  0
  -29.4550  -12.5440   18.1630 C   0  0  0  0  0  2  0  0  0  0  0  0
  -27.9930  -12.3780   18.6040 C   0  0  0  0  0  2  0  0  0  0  0  0
  -27.6650  -13.2060   19.8720 C   0  0  0  0  0  3  0  0  0  0  0  0
  -28.7090  -12.9720   20.9870 C   0  0  0  0  0  2  0  0  0  0  0  0
  -30.0600  -13.1950   20.4420 N   0  0  0  0  0  0  0  0  0  0  0  0
  -31.7330  -14.6960   20.0340 O   0  0  0  0  0  0  0  0  0  0  0  0
  -30.9390  -14.3780   22.1130 N   0  0  0  0  0  0  0  0  0  0  0  0
  -30.2440  -13.8700   22.6420 H   0  0  0  0  0  0  0  0  0  0  0  0
  -25.2590  -13.8170   20.5680 C   0  0  0  0  0  0  0  0  0  0  0  0
  -24.1840  -13.0460   20.9180 C   0  0  0  0  0  0  0  0  0  0  0  0
  -24.6390  -11.6910   20.8730 C   0  0  0  0  0  0  0  0  0  0  0  0
  -26.3050  -12.9350   20.3390 N   0  0  0  0  0  0  0  0  0  0  0  0
  -25.9330  -11.6500   20.5770 N   0  0  0  0  0  0  0  0  0  0  0  0
  -23.9070  -10.4310   21.0410 C   0  0  0  0  0  0  0  0  0  0  0  0
  -24.3610   -9.4210   21.9180 C   0  0  0  0  0  3  0  0  0  0  0  0
  -23.6290   -8.2240   22.0750 C   0  0  0  0  0  3  0  0  0  0  0  0
  -22.4270   -8.0280   21.3540 C   0  0  0  0  0  0  0  0  0  0  0  0
  -21.9910   -9.0260   20.4650 C   0  0  0  0  0  3  0  0  0  0  0  0
  -22.7230  -10.2140   20.3050 C   0  0  0  0  0  3  0  0  0  0  0  0
  -21.6640   -6.8880   21.4240 O   0  0  0  0  0  0  0  0  0  0  0  0
  -21.6840   -6.0740   22.5280 C   0  0  0  0  0  0  0  0  0  0  0  0
  -21.4020   -6.5640   23.8220 C   0  0  0  0  0  3  0  0  0  0  0  0
  -21.3650   -5.6790   24.9180 C   0  0  0  0  0  3  0  0  0  0  0  0
  -21.6050   -4.3060   24.7220 C   0  0  0  0  0  0  0  0  0  0  0  0
  -21.8810   -3.8150   23.4350 C   0  0  0  0  0  3  0  0  0  0  0  0
  -21.9200   -4.6970   22.3400 C   0  0  0  0  0  0  0  0  0  0  0  0
  -22.1660   -4.2150   21.0980 F   0  0  0  0  0  0  0  0  0  0  0  0
  -21.5620   -3.4540   25.7740 F   0  0  0  0  0  0  0  0  0  0  0  0
  -22.7860  -13.5240   21.1840 C   0  0  0  0  0  0  0  0  0  0  0  0
  -22.0510  -12.8230   22.0390 N   0  0  0  0  0  0  0  0  0  0  0  0
  -22.3550  -14.5540   20.6680 O   0  0  0  0  0  0  0  0  0  0  0  0
  -22.4120  -11.9890   22.4770 H   0  0  0  0  0  0  0  0  0  0  0  0
  -21.1130  -13.1260   22.2600 H   0  0  0  0  0  0  0  0  0  0  0  0
  -25.4340  -15.1900   20.4120 N   0  0  0  0  0  0  0  0  0  0  0  0
  -24.6740  -15.8520   20.5290 H   0  0  0  0  0  0  0  0  0  0  0  0
  -26.3010  -15.6270   20.1260 H   0  0  0  0  0  0  0  0  0  0  0  0
  -28.5370  -20.0290   20.0000 C   0  0  0  0  0  2  0  0  0  0  0  0
  -29.2610  -19.1960   18.9120 C   0  0  0  0  0  2  0  0  0  0  0  0
  -29.4770  -19.9340   17.5690 C   0  0  0  0  0  2  0  0  0  0  0  0
  -28.2150  -20.2100   16.7140 C   0  0  0  0  0  2  0  0  0  0  0  0
  -27.2490  -21.3080   17.2060 C   0  0  0  0  0  2  0  0  0  0  0  0
  -27.4820  -23.5020   18.3550 C   0  0  0  0  0  0  0  0  0  0  0  0
  -27.9100  -22.5920   17.4670 N   0  0  0  0  0  0  0  0  0  0  0  0
  -26.4700  -23.3230   19.0350 O   0  0  0  0  0  0  0  0  0  0  0  0
  -28.7270  -22.8190   16.9150 H   0  0  0  0  0  0  0  0  0  0  0  0
  -28.2810  -24.8090   18.4880 C   0  0  0  0  0  2  0  0  0  0  0  0
  -28.4010  -25.3350   19.9450 C   0  0  0  0  0  2  0  0  0  0  0  0
  -28.4290  -26.7640   20.0360 O   0  0  0  0  0  0  0  0  0  0  0  0
  -24.6110  -31.8750   23.2100 C   0  0  0  0  0  0  0  0  0  0  0  0
  -27.2320  -27.4520   20.0720 C   0  0  0  0  0  0  0  0  0  0  0  0
  -23.3970  -30.4970   21.5520 C   0  0  0  0  0  3  0  0  0  0  0  0
  -24.8380  -28.9630   20.1220 C   0  0  0  0  0  0  0  0  0  0  0  0
  -25.9240  -30.8460   21.3570 C   0  0  0  0  0  2  0  0  0  0  0  0
  -26.0020  -29.4800   20.7010 C   0  0  0  0  0  0  0  0  0  0  0  0
  -27.2030  -28.7360   20.6640 C   0  0  0  0  0  3  0  0  0  0  0  0
  -26.0350  -26.9380   19.5180 C   0  0  0  0  0  3  0  0  0  0  0  0
  -24.8470  -27.6890   19.5320 C   0  0  0  0  0  3  0  0  0  0  0  0
  -23.6030  -29.8300   20.1680 C   0  0  0  0  0  2  0  0  0  0  0  0
  -24.6620  -31.0850   22.0990 N   0  0  0  0  0  0  0  0  0  0  0  0
  -23.5300  -32.1520   23.7480 O   0  0  0  0  0  0  0  0  0  0  0  0
  -22.7400  -29.4700   22.5010 C   0  0  0  0  0  0  0  0  0  0  0  0
  -21.4130  -29.3050   22.3740 N   0  0  0  0  0  0  0  0  0  0  0  0
  -23.4190  -28.8270   23.3060 O   0  0  0  0  0  0  0  0  0  0  0  0
  -20.9270  -29.8830   21.7020 H   0  0  0  0  0  0  0  0  0  0  0  0
  -18.0290  -28.1360   22.8490 C   0  0  0  0  0  0  0  0  0  0  0  0
  -20.5870  -28.3670   23.1310 C   0  0  0  0  0  3  0  0  0  0  0  0
  -20.6780  -26.9420   22.5390 C   0  0  0  0  0  2  0  0  0  0  0  0
  -19.5760  -26.6390   21.5190 C   0  0  0  0  0  2  0  0  0  0  0  0
  -18.1950  -26.7910   22.1610 C   0  0  0  0  0  2  0  0  0  0  0  0
  -19.1530  -28.8830   23.2900 C   0  0  0  0  0  0  0  0  0  0  0  0
  -18.9460  -30.1440   23.8920 C   0  0  0  0  0  3  0  0  0  0  0  0
  -17.6460  -30.6570   24.0560 C   0  0  0  0  0  3  0  0  0  0  0  0
  -16.5350  -29.9070   23.6300 C   0  0  0  0  0  3  0  0  0  0  0  0
  -16.7280  -28.6490   23.0340 C   0  0  0  0  0  3  0  0  0  0  0  0
  -25.9010  -32.4830   23.8430 C   0  0  0  0  0  3  0  0  0  0  0  0
  -26.4450  -31.6560   25.0720 C   0  0  1  0  0  0  0  0  0  0  0  0
  -25.3710  -31.3670   26.1470 C   0  0  0  0  0  1  0  0  0  0  0  0
  -27.0260  -30.3010   24.6020 C   0  0  0  0  0  1  0  0  0  0  0  0
  -27.6060  -32.4250   25.7490 C   0  0  0  0  0  1  0  0  0  0  0  0
  -25.5910  -33.8640   24.2390 N   0  0  0  0  0  0  0  0  0  0  0  0
  -25.9010  -34.9480   23.5160 C   0  0  0  0  0  0  0  0  0  0  0  0
  -26.5550  -34.8930   22.4700 O   0  0  0  0  0  0  0  0  0  0  0  0
  -25.0130  -33.9840   25.0590 H   0  0  0  0  0  0  0  0  0  0  0  0
  -24.1510  -36.7330   23.2640 C   0  0  0  0  0  1  0  0  0  0  0  0
  -25.4110  -36.3120   24.0360 C   0  0  0  0  0  3  0  0  0  0  0  0
  -27.5610  -37.1800   24.8480 C   0  0  0  0  0  1  0  0  0  0  0  0
  -26.4310  -37.3770   23.9420 N   0  0  0  0  0  0  0  0  0  0  0  0
  -26.0230  -38.2870   24.1350 H   0  0  0  0  0  0  0  0  0  0  0  0
  1  3  2  0
  1  2  1  0
  2  5  1  0
  4  2  1  0
  5  6  1  0
  6  7  1  0
  7  9  1  0
  7 10  1  0
  8  6  2  0
 11 10  1  0
 12 11  1  0
 13 12  1  0
 14 13  1  0
 15 14  1  0
 16 24  1  0
 17 22  1  0
 18 19  1  0
 18 17  1  0
 20 19  1  0
 20 29  1  0
 20 21  1  0
 22 16  1  0
 22 21  1  0
 23 16  2  0
 24 25  1  0
 24 15  1  0
 26 27  2  0
 27 46  1  0
 28 27  1  0
 28 31  1  0
 29 26  1  0
 29 30  1  0
 30 28  2  0
 31 32  1  0
 32 33  2  0
 34 37  1  0
 34 33  1  0
 35 34  2  0
 36 35  1  0
 36 31  2  0
 37 38  1  0
 38 39  1  0
 39 40  2  0
 41 40  1  0
 41 45  1  0
 42 41  2  0
 43 38  2  0
 43 42  1  0
 44 43  1  0
 46 47  1  0
 47 50  1  0
 47 49  1  0
 48 46  2  0
 51 52  1  0
 51 26  1  0
 53 51  1  0
 54  1  1  0
 55 54  1  0
 56 55  1  0
 57 58  1  0
 57 56  1  0
 58 60  1  0
 59 63  1  0
 59 61  2  0
 60 59  1  0
 62 60  1  0
 63 64  1  0
 64 65  1  0
 65 67  1  0
 66 77  2  0
 67 72  1  0
 68 76  1  0
 68 78  1  0
 69 75  1  0
 69 71  1  0
 70 76  1  0
 71 70  1  0
 72 71  2  0
 73 74  1  0
 73 67  2  0
 74 69  2  0
 75 68  1  0
 76 66  1  0
 78 80  2  0
 79 78  1  0
 81 79  1  0
 82 91  2  0
 82 87  1  0
 83 79  1  0
 83 87  1  0
 84 83  1  0
 85 86  1  0
 85 84  1  0
 86 82  1  0
 87 88  2  0
 88 89  1  0
 90 89  2  0
 91 90  1  0
 92 66  1  0
 92 97  1  0
 92 93  1  0
 93 96  1  1
 93 94  1  0
 95 93  1  0
 97100  1  0
 98102  1  0
 98 97  1  0
 99 98  2  0
102101  1  0
104102  1  0
104105  1  0
104103  1  0
M  ISO  4  16 100  24 100  64 101  65 101
M  END
>  <TORSDO>  (64) 
F 32

>  <SCORE>  (64) 
14.326

>  <name>  (64) 
72

>  <ligand_id>  (64) 
72

>  <original_smiles>  (64) 
[H]c1c([H])c([H])c2c(c1[H])C([H])([H])C([H])([H])C([H])([H])C2([H])N([H])C(=O)C1([H])N(C(=O)C([H])(N([H])C(=O)C([H])(N([H])C([H])([H])[H])C([H])([H])[H])C(C([H])([H])[H])(C([H])([H])[H])C([H])([H])[H])C([H])([H])c2c([H])c(OC([H])([H])C([H])([H])C(=O)N([H])C([H])([H])C([H])([H])C([H])([H])C([H])([H])C([H])([H])C(=O)N([H])C([H])([H])C(=O)N([H])C([H])([H])C([H])([H])C([H])([H])C([H])([H])C([H])([H])C([H])([H])N([H])C(=O)N3C([H])([H])C([H])([H])C([H])([H])C([H])(n4nc(-c5c([H])c([H])c(Oc6c([H])c([H])c(F)c([H])c6F)c([H])c5[H])c(C(=O)N([H])[H])c4N([H])[H])C3([H])[H])c([H])c([H])c2C1([H])[H]

>  <smiles>  (64) 
[H]c1c([H])c([H])c2c(c1[H])C([H])([H])C([H])([H])C([H])([H])C2([H])N([H])C(=O)C1([H])N(C(=O)C([H])(N([H])C(=O)C([H])(N([H])C([H])([H])[H])C([H])([H])[H])C(C([H])([H])[H])(C([H])([H])[H])C([H])([H])[H])C([H])([H])c2c([H])c(OC([H])([H])C([H])([H])C(=O)N([H])C([H])([H])C([H])([H])C([H])([H])C([H])([H])C([H])([H])C(=O)N([H])C([H])([H])C(=O)N([H])C([H])([H])C([H])([H])C([H])([H])C([H])([H])C([H])([H])C([H])([H])N([H])C(=O)N3C([H])([H])C([H])([H])C([H])([H])C([H])(n4nc(-c5c([H])c([H])c(Oc6c([H])c([H])c(F)c([H])c6F)c([H])c5[H])c(C(=O)N([H])[H])c4N([H])[H])C3([H])[H])c([H])c([H])c2C1([H])[H]

$$$$
73:0:0
     RDKit          3D

 99106  0  0  1  0  0  0  0  0999 V2000
  -22.8360  -24.2870   21.3450 C   0  0  0  0  0  0  0  0  0  0  0  0
  -21.6220  -24.8510   21.3690 N   0  0  0  0  0  0  0  0  0  0  0  0
  -23.0090  -23.0800   21.1690 O   0  0  0  0  0  0  0  0  0  0  0  0
  -21.5730  -25.8540   21.4920 H   0  0  0  0  0  0  0  0  0  0  0  0
  -24.0220  -25.2110   21.6210 C   0  0  0  0  0  2  0  0  0  0  0  0
  -24.5780  -25.7510   20.4200 O   0  0  0  0  0  0  0  0  0  0  0  0
  -24.8280  -27.1380   20.6190 C   0  0  0  0  0  2  0  0  0  0  0  0
  -25.0470  -27.9420   19.3260 C   0  0  0  0  0  2  0  0  0  0  0  0
  -24.2650  -29.2830   19.2310 C   0  0  0  0  0  2  0  0  0  0  0  0
  -24.8620  -30.4450   19.8400 O   0  0  0  0  0  0  0  0  0  0  0  0
  -27.6110  -32.9190   25.9020 C   0  0  0  0  0  0  0  0  0  0  0  0
  -24.5960  -30.7520   21.1600 C   0  0  0  0  0  0  0  0  0  0  0  0
  -25.4370  -31.7580   26.1040 C   0  0  0  0  0  3  0  0  0  0  0  0
  -24.2180  -31.3040   23.9130 C   0  0  0  0  0  0  0  0  0  0  0  0
  -26.0790  -32.9710   23.9430 C   0  0  0  0  0  2  0  0  0  0  0  0
  -25.2230  -31.9670   23.1980 C   0  0  0  0  0  0  0  0  0  0  0  0
  -25.4210  -31.6860   21.8270 C   0  0  0  0  0  3  0  0  0  0  0  0
  -23.5260  -30.1750   21.8810 C   0  0  0  0  0  3  0  0  0  0  0  0
  -23.3650  -30.4040   23.2580 C   0  0  0  0  0  3  0  0  0  0  0  0
  -24.0720  -31.6430   25.3790 C   0  0  0  0  0  2  0  0  0  0  0  0
  -26.4380  -32.5500   25.3170 N   0  0  0  0  0  0  0  0  0  0  0  0
  -27.8510  -32.6410   27.0860 O   0  0  0  0  0  0  0  0  0  0  0  0
  -25.9310  -30.3380   26.4610 C   0  0  0  0  0  0  0  0  0  0  0  0
  -25.6320  -29.8910   27.6920 N   0  0  0  0  0  0  0  0  0  0  0  0
  -26.5420  -29.6540   25.6360 O   0  0  0  0  0  0  0  0  0  0  0  0
  -25.1310  -30.5090   28.3150 H   0  0  0  0  0  0  0  0  0  0  0  0
  -25.7610  -27.9500   30.7310 C   0  0  0  0  0  0  0  0  0  0  0  0
  -25.9740  -28.5770   28.2330 C   0  0  0  0  0  3  0  0  0  0  0  0
  -24.8330  -27.5610   27.9850 C   0  0  0  0  0  2  0  0  0  0  0  0
  -23.8410  -27.4730   29.1490 C   0  0  0  0  0  2  0  0  0  0  0  0
  -24.5630  -27.0620   30.4370 C   0  0  0  0  0  2  0  0  0  0  0  0
  -26.4150  -28.6730   29.7000 C   0  0  0  0  0  0  0  0  0  0  0  0
  -27.5000  -29.5130   30.0340 C   0  0  0  0  0  3  0  0  0  0  0  0
  -27.9350  -29.6280   31.3680 C   0  0  0  0  0  3  0  0  0  0  0  0
  -27.2920  -28.9000   32.3820 C   0  0  0  0  0  3  0  0  0  0  0  0
  -26.2100  -28.0600   32.0630 C   0  0  0  0  0  3  0  0  0  0  0  0
  -28.6940  -33.7260   25.1210 C   0  0  0  0  0  3  0  0  0  0  0  0
  -29.2490  -34.7210   26.0460 N   0  0  0  0  0  0  0  0  0  0  0  0
  -28.8760  -36.0070   26.0890 C   0  0  0  0  0  0  0  0  0  0  0  0
  -28.0690  -36.4960   25.2930 O   0  0  0  0  0  0  0  0  0  0  0  0
  -29.8680  -34.3760   26.7660 H   0  0  0  0  0  0  0  0  0  0  0  0
  -28.5340  -36.9790   28.3820 C   0  0  0  0  0  1  0  0  0  0  0  0
  -29.4970  -36.8890   27.1880 C   0  0  0  0  0  3  0  0  0  0  0  0
  -30.9470  -38.2660   25.7620 C   0  0  0  0  0  1  0  0  0  0  0  0
  -29.8470  -38.2480   26.7230 N   0  0  0  0  0  0  0  0  0  0  0  0
  -30.1000  -38.8430   27.5080 H   0  0  0  0  0  0  0  0  0  0  0  0
  -29.8380  -32.8170   24.5260 C   0  0  1  0  0  0  0  0  0  0  0  0
  -30.7220  -32.1480   25.6050 C   0  0  0  0  0  1  0  0  0  0  0  0
  -29.2420  -31.6920   23.6480 C   0  0  0  0  0  1  0  0  0  0  0  0
  -30.7510  -33.6570   23.6040 C   0  0  0  0  0  1  0  0  0  0  0  0
  -20.3510  -24.1300   21.4230 C   0  0  0  0  0  2  0  0  0  0  0  0
  -19.1230  -24.9230   20.9580 C   0  0  0  0  0  0  0  0  0  0  0  0
  -18.7650  -26.0060   21.6610 N   0  0  0  0  0  0  0  0  0  0  0  0
  -18.4950  -24.5420   19.9700 O   0  0  0  0  0  0  0  0  0  0  0  0
  -19.3560  -26.2660   22.4380 H   0  0  0  0  0  0  0  0  0  0  0  0
  -17.5630  -26.7880   21.4000 C   0  0  0  0  0  2  0  0  0  0  0  0
  -16.6140  -26.8380   22.6090 C   0  0  0  0  0  2  0  0  0  0  0  0
  -16.8860  -27.9410   23.6400 C   0  0  0  0  0  2  0  0  0  0  0  0
  -15.5910  -28.4160   24.3410 C   0  0  0  0  0  2  0  0  0  0  0  0
  -15.1330  -27.5510   25.5390 C   0  0  0  0  0  2  0  0  0  0  0  0
  -13.7240  -26.9240   25.3950 C   0  0  0  0  0  2  0  0  0  0  0  0
  -11.6730  -27.0480   26.9190 C   0  0  0  0  0  0  0  0  0  0  0  0
   -9.9890  -25.4250   27.6830 C   0  0  0  0  0  2  0  0  0  0  0  0
  -10.6740  -24.3690   28.5780 C   0  0  0  0  0  2  0  0  0  0  0  0
  -11.2890  -23.2270   27.7370 C   0  0  0  0  0  2  0  0  0  0  0  0
  -12.1250  -23.7480   26.5360 C   0  0  0  0  0  3  0  0  0  0  0  0
  -11.3280  -24.8220   25.7630 C   0  0  0  0  0  2  0  0  0  0  0  0
  -10.9920  -25.8880   26.7120 N   0  0  0  0  0  0  0  0  0  0  0  0
  -11.2630  -27.9270   27.6790 O   0  0  0  0  0  0  0  0  0  0  0  0
  -12.9960  -27.0390   26.6640 N   0  0  0  0  0  0  0  0  0  0  0  0
  -13.4480  -27.7020   27.2730 H   0  0  0  0  0  0  0  0  0  0  0  0
  -13.6560  -22.5790   24.8290 C   0  0  0  0  0  0  0  0  0  0  0  0
  -13.6300  -21.3250   24.2820 C   0  0  0  0  0  0  0  0  0  0  0  0
  -12.4810  -20.6810   24.8320 C   0  0  0  0  0  0  0  0  0  0  0  0
  -12.5520  -22.6570   25.6630 N   0  0  0  0  0  0  0  0  0  0  0  0
  -11.8170  -21.5170   25.6200 N   0  0  0  0  0  0  0  0  0  0  0  0
  -12.0030  -19.3000   24.7060 C   0  0  0  0  0  0  0  0  0  0  0  0
  -10.7600  -18.9990   24.1080 C   0  0  0  0  0  3  0  0  0  0  0  0
  -10.3310  -17.6600   23.9800 C   0  0  0  0  0  3  0  0  0  0  0  0
  -11.1510  -16.6040   24.4480 C   0  0  0  0  0  0  0  0  0  0  0  0
  -12.3760  -16.9100   25.0640 C   0  0  0  0  0  3  0  0  0  0  0  0
  -12.7980  -18.2440   25.1960 C   0  0  0  0  0  3  0  0  0  0  0  0
  -10.8030  -15.2760   24.3880 O   0  0  0  0  0  0  0  0  0  0  0  0
  -10.0370  -14.7780   23.3630 C   0  0  0  0  0  0  0  0  0  0  0  0
  -10.4750  -14.8130   22.0210 C   0  0  0  0  0  3  0  0  0  0  0  0
   -9.6880  -14.2300   21.0080 C   0  0  0  0  0  3  0  0  0  0  0  0
   -8.4720  -13.6010   21.3340 C   0  0  0  0  0  0  0  0  0  0  0  0
   -8.0390  -13.5600   22.6710 C   0  0  0  0  0  3  0  0  0  0  0  0
   -8.8210  -14.1430   23.6820 C   0  0  0  0  0  0  0  0  0  0  0  0
   -8.4070  -14.0840   24.9710 F   0  0  0  0  0  0  0  0  0  0  0  0
   -7.7210  -13.0310   20.3630 F   0  0  0  0  0  0  0  0  0  0  0  0
  -14.6710  -20.7210   23.3820 C   0  0  0  0  0  0  0  0  0  0  0  0
  -14.2490  -19.9220   22.4070 N   0  0  0  0  0  0  0  0  0  0  0  0
  -15.8640  -20.9860   23.5110 O   0  0  0  0  0  0  0  0  0  0  0  0
  -13.2700  -19.7180   22.2730 H   0  0  0  0  0  0  0  0  0  0  0  0
  -14.9250  -19.5160   21.7750 H   0  0  0  0  0  0  0  0  0  0  0  0
  -14.5280  -23.6510   24.7040 N   0  0  0  0  0  0  0  0  0  0  0  0
  -15.3150  -23.6460   24.0640 H   0  0  0  0  0  0  0  0  0  0  0  0
  -14.4000  -24.5340   25.1820 H   0  0  0  0  0  0  0  0  0  0  0  0
  1  2  1  0
  1  5  1  0
  2 51  1  0
  2  4  1  0
  3  1  2  0
  6  7  1  0
  6  5  1  0
  8  7  1  0
  9  8  1  0
  9 10  1  0
 10 12  1  0
 11 22  2  0
 12 17  2  0
 12 18  1  0
 13 23  1  0
 14 20  1  0
 15 21  1  0
 16 14  2  0
 16 15  1  0
 17 16  1  0
 18 19  2  0
 19 14  1  0
 20 13  1  0
 21 11  1  0
 21 13  1  0
 23 24  1  0
 24 26  1  0
 25 23  2  0
 27 36  1  0
 28 24  1  0
 28 32  1  0
 29 28  1  0
 29 30  1  0
 30 31  1  0
 31 27  1  0
 32 33  1  0
 32 27  2  0
 33 34  2  0
 34 35  1  0
 36 35  2  0
 37 11  1  0
 37 38  1  0
 38 39  1  0
 38 41  1  0
 39 43  1  0
 40 39  2  0
 43 42  1  0
 44 45  1  0
 45 43  1  0
 45 46  1  0
 47 37  1  0
 47 48  1  1
 49 47  1  0
 50 47  1  0
 52 51  1  0
 52 53  1  0
 53 55  1  0
 54 52  2  0
 56 53  1  0
 56 57  1  0
 57 58  1  0
 58 59  1  0
 59 60  1  0
 61 60  1  0
 61 70  1  0
 62 69  2  0
 63 64  1  0
 65 64  1  0
 66 75  1  0
 66 65  1  0
 67 66  1  0
 67 68  1  0
 68 62  1  0
 68 63  1  0
 70 62  1  0
 70 71  1  0
 72 75  1  0
 73 72  2  0
 73 74  1  0
 74 76  2  0
 76 75  1  0
 77 74  1  0
 77 82  1  0
 78 77  2  0
 79 78  1  0
 79 80  2  0
 80 81  1  0
 81 82  2  0
 83 80  1  0
 84 89  1  0
 84 83  1  0
 85 84  2  0
 86 87  2  0
 86 85  1  0
 87 88  1  0
 88 89  2  0
 89 90  1  0
 91 87  1  0
 92 94  2  0
 92 73  1  0
 93 92  1  0
 95 93  1  0
 96 93  1  0
 97 72  1  0
 97 99  1  0
 98 97  1  0
M  ISO  4   9 101  10 101  62 100  70 100
M  END
>  <TORSDO>  (65) 
F 29

>  <SCORE>  (65) 
-5.559

>  <name>  (65) 
73

>  <ligand_id>  (65) 
73

>  <original_smiles>  (65) 
[H]c1c([H])c([H])c2c(c1[H])C([H])([H])C([H])([H])C([H])([H])C2([H])N([H])C(=O)C1([H])N(C(=O)C([H])(N([H])C(=O)C([H])(N([H])C([H])([H])[H])C([H])([H])[H])C(C([H])([H])[H])(C([H])([H])[H])C([H])([H])[H])C([H])([H])c2c([H])c(OC([H])([H])C([H])([H])C([H])([H])OC([H])([H])C(=O)N([H])C([H])([H])C(=O)N([H])C([H])([H])C([H])([H])C([H])([H])C([H])([H])C([H])([H])C([H])([H])N([H])C(=O)N3C([H])([H])C([H])([H])C([H])([H])C([H])(n4nc(-c5c([H])c([H])c(Oc6c([H])c([H])c(F)c([H])c6F)c([H])c5[H])c(C(=O)N([H])[H])c4N([H])[H])C3([H])[H])c([H])c([H])c2C1([H])[H]

>  <smiles>  (65) 
[H]c1c([H])c([H])c2c(c1[H])C([H])([H])C([H])([H])C([H])([H])C2([H])N([H])C(=O)C1([H])N(C(=O)C([H])(N([H])C(=O)C([H])(N([H])C([H])([H])[H])C([H])([H])[H])C(C([H])([H])[H])(C([H])([H])[H])C([H])([H])[H])C([H])([H])c2c([H])c(OC([H])([H])C([H])([H])C([H])([H])OC([H])([H])C(=O)N([H])C([H])([H])C(=O)N([H])C([H])([H])C([H])([H])C([H])([H])C([H])([H])C([H])([H])C([H])([H])N([H])C(=O)N3C([H])([H])C([H])([H])C([H])([H])C([H])(n4nc(-c5c([H])c([H])c(Oc6c([H])c([H])c(F)c([H])c6F)c([H])c5[H])c(C(=O)N([H])[H])c4N([H])[H])C3([H])[H])c([H])c([H])c2C1([H])[H]

$$$$
74:0:0
     RDKit          3D

 98105  0  0  1  0  0  0  0  0999 V2000
  -23.7380  -20.8840   24.9290 C   0  0  0  0  0  2  0  0  0  0  0  0
  -24.9400  -19.9760   24.6350 C   0  0  0  0  0  0  0  0  0  0  0  0
  -25.0220  -19.5610   23.3690 N   0  0  0  0  0  0  0  0  0  0  0  0
  -25.7280  -19.6420   25.5220 O   0  0  0  0  0  0  0  0  0  0  0  0
  -24.3170  -19.9610   22.7630 H   0  0  0  0  0  0  0  0  0  0  0  0
  -25.8550  -18.5010   22.8220 C   0  0  0  0  0  2  0  0  0  0  0  0
  -25.6570  -18.4270   21.2990 C   0  0  0  0  0  2  0  0  0  0  0  0
  -26.5740  -19.4060   20.5440 C   0  0  0  0  0  2  0  0  0  0  0  0
  -26.8260  -19.0480   19.0700 C   0  0  0  0  0  2  0  0  0  0  0  0
  -28.0220  -18.1290   18.7890 C   0  0  0  0  0  2  0  0  0  0  0  0
  -27.8780  -16.6760   19.2710 C   0  0  0  0  0  2  0  0  0  0  0  0
  -29.9640  -15.2550   19.4410 C   0  0  0  0  0  0  0  0  0  0  0  0
  -30.2680  -12.8280   19.4660 C   0  0  0  0  0  2  0  0  0  0  0  0
  -29.3850  -12.2390   18.3460 C   0  0  0  0  0  2  0  0  0  0  0  0
  -27.9520  -11.9760   18.8590 C   0  0  0  0  0  2  0  0  0  0  0  0
  -27.3430  -13.1790   19.6300 C   0  0  0  0  0  3  0  0  0  0  0  0
  -28.3550  -13.7330   20.6570 C   0  0  0  0  0  2  0  0  0  0  0  0
  -29.5940  -14.0470   19.9320 N   0  0  0  0  0  0  0  0  0  0  0  0
  -31.1110  -15.5070   19.0770 O   0  0  0  0  0  0  0  0  0  0  0  0
  -29.0020  -15.9000   18.7660 N   0  0  0  0  0  0  0  0  0  0  0  0
  -29.4100  -16.3380   17.9520 H   0  0  0  0  0  0  0  0  0  0  0  0
  -25.0540  -13.6710   20.6960 C   0  0  0  0  0  0  0  0  0  0  0  0
  -24.0490  -12.8490   21.1320 C   0  0  0  0  0  0  0  0  0  0  0  0
  -24.5220  -11.5150   20.9350 C   0  0  0  0  0  0  0  0  0  0  0  0
  -26.0680  -12.8350   20.2560 N   0  0  0  0  0  0  0  0  0  0  0  0
  -25.7610  -11.5300   20.4590 N   0  0  0  0  0  0  0  0  0  0  0  0
  -23.8430  -10.2270   21.1150 C   0  0  0  0  0  0  0  0  0  0  0  0
  -24.3390   -9.2530   22.0090 C   0  0  0  0  0  3  0  0  0  0  0  0
  -23.6650   -8.0240   22.1750 C   0  0  0  0  0  3  0  0  0  0  0  0
  -22.4820   -7.7630   21.4470 C   0  0  0  0  0  0  0  0  0  0  0  0
  -22.0020   -8.7280   20.5420 C   0  0  0  0  0  3  0  0  0  0  0  0
  -22.6760   -9.9490   20.3730 C   0  0  0  0  0  3  0  0  0  0  0  0
  -21.7650   -6.5940   21.5280 O   0  0  0  0  0  0  0  0  0  0  0  0
  -21.6880   -5.8740   22.6950 C   0  0  0  0  0  0  0  0  0  0  0  0
  -21.1530   -6.4310   23.8760 C   0  0  0  0  0  3  0  0  0  0  0  0
  -21.0240   -5.6370   25.0330 C   0  0  0  0  0  3  0  0  0  0  0  0
  -21.4230   -4.2860   25.0100 C   0  0  0  0  0  0  0  0  0  0  0  0
  -21.9520   -3.7270   23.8310 C   0  0  0  0  0  3  0  0  0  0  0  0
  -22.0790   -4.5200   22.6760 C   0  0  0  0  0  0  0  0  0  0  0  0
  -22.5660   -3.9710   21.5370 F   0  0  0  0  0  0  0  0  0  0  0  0
  -21.2940   -3.5200   26.1180 F   0  0  0  0  0  0  0  0  0  0  0  0
  -22.6900  -13.2680   21.6110 C   0  0  0  0  0  0  0  0  0  0  0  0
  -22.0830  -12.4890   22.4980 N   0  0  0  0  0  0  0  0  0  0  0  0
  -22.1740  -14.3220   21.2360 O   0  0  0  0  0  0  0  0  0  0  0  0
  -22.5100  -11.6350   22.8280 H   0  0  0  0  0  0  0  0  0  0  0  0
  -21.1820  -12.7630   22.8650 H   0  0  0  0  0  0  0  0  0  0  0  0
  -25.1870  -15.0530   20.6100 N   0  0  0  0  0  0  0  0  0  0  0  0
  -26.0080  -15.5090   20.2320 H   0  0  0  0  0  0  0  0  0  0  0  0
  -24.4590  -15.7030   20.8900 H   0  0  0  0  0  0  0  0  0  0  0  0
  -23.4830  -21.7450   23.8140 O   0  0  0  0  0  0  0  0  0  0  0  0
  -24.4050  -22.8200   23.6630 C   0  0  0  0  0  2  0  0  0  0  0  0
  -24.5210  -23.1500   22.1710 C   0  0  0  0  0  2  0  0  0  0  0  0
  -25.6790  -24.1150   21.9140 C   0  0  0  0  0  2  0  0  0  0  0  0
  -26.1010  -24.2030   20.4400 C   0  0  0  0  0  2  0  0  0  0  0  0
  -27.3530  -25.0840   20.2780 C   0  0  0  0  0  2  0  0  0  0  0  0
  -27.4170  -25.6180   18.9240 N   0  0  0  0  0  0  0  0  0  0  0  0
  -26.4830  -25.7050   18.5310 H   0  0  0  0  0  0  0  0  0  0  0  0
  -27.9010  -26.9770   19.0530 O   0  0  0  0  0  0  0  0  0  0  0  0
  -26.0070  -30.6610   24.8470 C   0  0  0  0  0  0  0  0  0  0  0  0
  -26.9720  -27.8260   19.6230 C   0  0  0  0  0  0  0  0  0  0  0  0
  -24.3200  -30.5570   23.0430 C   0  0  0  0  0  3  0  0  0  0  0  0
  -25.1360  -29.6180   20.8140 C   0  0  0  0  0  0  0  0  0  0  0  0
  -26.8150  -30.3670   22.5090 C   0  0  0  0  0  2  0  0  0  0  0  0
  -26.4340  -29.4980   21.3310 C   0  0  0  0  0  0  0  0  0  0  0  0
  -27.3500  -28.5970   20.7440 C   0  0  0  0  0  3  0  0  0  0  0  0
  -25.6610  -27.9690   19.1070 C   0  0  0  0  0  3  0  0  0  0  0  0
  -24.7410  -28.8450   19.7110 C   0  0  0  0  0  3  0  0  0  0  0  0
  -24.2140  -30.6030   21.4950 C   0  0  0  0  0  2  0  0  0  0  0  0
  -25.7420  -30.5090   23.5190 N   0  0  0  0  0  0  0  0  0  0  0  0
  -25.1000  -30.8870   25.6600 O   0  0  0  0  0  0  0  0  0  0  0  0
  -23.4590  -29.3810   23.5560 C   0  0  0  0  0  0  0  0  0  0  0  0
  -22.1520  -29.4210   23.2500 N   0  0  0  0  0  0  0  0  0  0  0  0
  -23.9690  -28.4500   24.1840 O   0  0  0  0  0  0  0  0  0  0  0  0
  -21.8080  -30.2220   22.7390 H   0  0  0  0  0  0  0  0  0  0  0  0
  -18.7560  -28.3580   22.6360 C   0  0  0  0  0  0  0  0  0  0  0  0
  -21.1560  -28.4070   23.5960 C   0  0  0  0  0  3  0  0  0  0  0  0
  -21.3930  -27.1010   22.8030 C   0  0  0  0  0  2  0  0  0  0  0  0
  -20.5900  -27.0350   21.5000 C   0  0  0  0  0  2  0  0  0  0  0  0
  -19.0890  -27.1430   21.7870 C   0  0  0  0  0  2  0  0  0  0  0  0
  -19.7310  -28.9610   23.4740 C   0  0  0  0  0  0  0  0  0  0  0  0
  -19.3810  -30.1110   24.2150 C   0  0  0  0  0  3  0  0  0  0  0  0
  -18.0830  -30.6510   24.1350 C   0  0  0  0  0  3  0  0  0  0  0  0
  -17.1170  -30.0390   23.3180 C   0  0  0  0  0  3  0  0  0  0  0  0
  -17.4530  -28.8970   22.5720 C   0  0  0  0  0  3  0  0  0  0  0  0
  -27.4610  -30.5880   25.4040 C   0  0  0  0  0  3  0  0  0  0  0  0
  -27.6590  -31.7560   26.2750 N   0  0  0  0  0  0  0  0  0  0  0  0
  -28.3370  -32.8580   25.9250 C   0  0  0  0  0  0  0  0  0  0  0  0
  -28.9300  -32.9670   24.8470 O   0  0  0  0  0  0  0  0  0  0  0  0
  -27.1510  -31.7630   27.1470 H   0  0  0  0  0  0  0  0  0  0  0  0
  -27.3530  -35.0990   26.4990 C   0  0  0  0  0  1  0  0  0  0  0  0
  -28.3620  -34.0240   26.9320 C   0  0  0  0  0  3  0  0  0  0  0  0
  -30.6590  -33.7510   27.7540 C   0  0  0  0  0  1  0  0  0  0  0  0
  -29.7010  -34.6340   27.0930 N   0  0  0  0  0  0  0  0  0  0  0  0
  -29.6400  -35.4960   27.6290 H   0  0  0  0  0  0  0  0  0  0  0  0
  -27.7620  -29.2510   26.1830 C   0  0  1  0  0  0  0  0  0  0  0  0
  -26.7190  -28.9140   27.2720 C   0  0  0  0  0  1  0  0  0  0  0  0
  -27.8250  -28.0570   25.2030 C   0  0  0  0  0  1  0  0  0  0  0  0
  -29.1490  -29.3400   26.8610 C   0  0  0  0  0  1  0  0  0  0  0  0
  2  1  1  0
  2  4  2  0
  3  2  1  0
  5  3  1  0
  6  3  1  0
  7  6  1  0
  8  7  1  0
  9  8  1  0
 10  9  1  0
 10 11  1  0
 12 18  1  0
 13 18  1  0
 14 15  1  0
 14 13  1  0
 16 15  1  0
 16 25  1  0
 16 17  1  0
 18 17  1  0
 19 12  2  0
 20 11  1  0
 20 12  1  0
 21 20  1  0
 22 23  2  0
 23 42  1  0
 24 27  1  0
 24 23  1  0
 25 26  1  0
 25 22  1  0
 26 24  2  0
 27 28  1  0
 28 29  2  0
 30 33  1  0
 30 29  1  0
 31 30  2  0
 32 31  1  0
 32 27  2  0
 33 34  1  0
 34 35  1  0
 35 36  2  0
 37 36  1  0
 37 41  1  0
 38 37  2  0
 39 34  2  0
 39 38  1  0
 40 39  1  0
 42 43  1  0
 43 45  1  0
 43 46  1  0
 44 42  2  0
 47 22  1  0
 47 49  1  0
 48 47  1  0
 50  1  1  0
 51 50  1  0
 52 51  1  0
 53 52  1  0
 54 53  1  0
 55 54  1  0
 56 58  1  0
 56 55  1  0
 57 56  1  0
 58 60  1  0
 59 70  2  0
 60 65  1  0
 61 69  1  0
 61 71  1  0
 62 64  1  0
 62 68  1  0
 63 69  1  0
 64 63  1  0
 65 64  2  0
 66 60  2  0
 66 67  1  0
 67 62  2  0
 68 61  1  0
 69 59  1  0
 71 73  2  0
 72 71  1  0
 74 72  1  0
 75 80  1  0
 76 72  1  0
 77 76  1  0
 78 79  1  0
 78 77  1  0
 79 75  1  0
 80 76  1  0
 80 81  2  0
 82 81  1  0
 83 82  2  0
 84 75  2  0
 84 83  1  0
 85 59  1  0
 85 95  1  0
 85 86  1  0
 86 89  1  0
 87 86  1  0
 87 91  1  0
 88 87  2  0
 91 90  1  0
 91 93  1  0
 93 94  1  0
 93 92  1  0
 95 98  1  1
 95 96  1  0
 97 95  1  0
M  ISO  4  12 100  20 100  56 101  58 101
M  END
>  <TORSDO>  (66) 
F 30

>  <SCORE>  (66) 
29.557

>  <name>  (66) 
74

>  <ligand_id>  (66) 
74

>  <original_smiles>  (66) 
[H]c1c([H])c([H])c2c(c1[H])C([H])([H])C([H])([H])C([H])([H])C2([H])N([H])C(=O)C1([H])N(C(=O)C([H])(N([H])C(=O)C([H])(N([H])C([H])([H])[H])C([H])([H])[H])C(C([H])([H])[H])(C([H])([H])[H])C([H])([H])[H])C([H])([H])c2c([H])c(ON([H])C([H])([H])C([H])([H])C([H])([H])C([H])([H])C([H])([H])OC([H])([H])C(=O)N([H])C([H])([H])C([H])([H])C([H])([H])C([H])([H])C([H])([H])C([H])([H])N([H])C(=O)N3C([H])([H])C([H])([H])C([H])([H])C([H])(n4nc(-c5c([H])c([H])c(Oc6c([H])c([H])c(F)c([H])c6F)c([H])c5[H])c(C(=O)N([H])[H])c4N([H])[H])C3([H])[H])c([H])c([H])c2C1([H])[H]

>  <smiles>  (66) 
[H]c1c([H])c([H])c2c(c1[H])C([H])([H])C([H])([H])C([H])([H])C2([H])N([H])C(=O)C1([H])N(C(=O)C([H])(N([H])C(=O)C([H])(N([H])C([H])([H])[H])C([H])([H])[H])C(C([H])([H])[H])(C([H])([H])[H])C([H])([H])[H])C([H])([H])c2c([H])c(ON([H])C([H])([H])C([H])([H])C([H])([H])C([H])([H])C([H])([H])OC([H])([H])C(=O)N([H])C([H])([H])C([H])([H])C([H])([H])C([H])([H])C([H])([H])C([H])([H])N([H])C(=O)N3C([H])([H])C([H])([H])C([H])([H])C([H])(n4nc(-c5c([H])c([H])c(Oc6c([H])c([H])c(F)c([H])c6F)c([H])c5[H])c(C(=O)N([H])[H])c4N([H])[H])C3([H])[H])c([H])c([H])c2C1([H])[H]

$$$$
75:0:0
     RDKit          3D

104111  0  0  1  0  0  0  0  0999 V2000
  -24.3080  -20.5250   18.2900 C   0  0  0  0  0  0  0  0  0  0  0  0
  -24.8860  -20.4080   17.0910 N   0  0  0  0  0  0  0  0  0  0  0  0
  -24.1030  -19.5630   19.0350 O   0  0  0  0  0  0  0  0  0  0  0  0
  -24.9780  -21.2520   16.5400 H   0  0  0  0  0  0  0  0  0  0  0  0
  -25.4250  -19.1800   16.5100 C   0  0  0  0  0  2  0  0  0  0  0  0
  -26.5180  -18.5390   17.3890 C   0  0  0  0  0  2  0  0  0  0  0  0
  -27.5920  -19.5290   17.8780 C   0  0  0  0  0  2  0  0  0  0  0  0
  -28.7870  -18.8230   18.5380 C   0  0  0  0  0  2  0  0  0  0  0  0
  -29.7730  -19.8160   19.1780 C   0  0  0  0  0  2  0  0  0  0  0  0
  -31.0700  -19.1740   19.7110 C   0  0  0  0  0  2  0  0  0  0  0  0
  -30.8210  -18.2030   20.7990 N   0  0  0  0  0  4  0  0  0  0  0  0
  -30.3370  -17.4100   20.4180 H   0  0  0  0  0  0  0  0  0  0  0  0
  -30.2300  -18.6220   21.5000 H   0  0  0  0  0  0  0  0  0  0  0  0
  -32.0400  -17.7040   21.4670 C   0  0  0  0  0  2  0  0  0  0  0  0
  -31.7460  -16.4870   22.3730 C   0  0  0  0  0  2  0  0  0  0  0  0
  -31.5810  -14.6950   20.6460 C   0  0  0  0  0  0  0  0  0  0  0  0
  -31.0690  -13.0900   18.8520 C   0  0  0  0  0  2  0  0  0  0  0  0
  -30.1460  -13.7410   17.8040 C   0  0  0  0  0  2  0  0  0  0  0  0
  -28.6680  -13.5930   18.2100 C   0  0  0  0  0  2  0  0  0  0  0  0
  -28.4050  -14.0210   19.6780 C   0  0  0  0  0  3  0  0  0  0  0  0
  -29.4340  -13.3710   20.6310 C   0  0  0  0  0  2  0  0  0  0  0  0
  -30.7850  -13.7140   20.1520 N   0  0  0  0  0  0  0  0  0  0  0  0
  -32.6650  -15.0100   20.1480 O   0  0  0  0  0  0  0  0  0  0  0  0
  -31.0750  -15.3830   21.6780 N   0  0  0  0  0  0  0  0  0  0  0  0
  -30.2000  -15.0500   22.0570 H   0  0  0  0  0  0  0  0  0  0  0  0
  -25.9410  -14.5730   20.1880 C   0  0  0  0  0  0  0  0  0  0  0  0
  -24.8790  -13.7800   20.5310 C   0  0  0  0  0  0  0  0  0  0  0  0
  -25.3910  -12.4500   20.6120 C   0  0  0  0  0  0  0  0  0  0  0  0
  -27.0320  -13.7230   20.0820 N   0  0  0  0  0  0  0  0  0  0  0  0
  -26.7000  -12.4440   20.3930 N   0  0  0  0  0  0  0  0  0  0  0  0
  -24.7010  -11.1730   20.8320 C   0  0  0  0  0  0  0  0  0  0  0  0
  -25.0470  -10.3230   21.9060 C   0  0  0  0  0  3  0  0  0  0  0  0
  -24.3540   -9.1100   22.1100 C   0  0  0  0  0  3  0  0  0  0  0  0
  -23.3040   -8.7370   21.2380 C   0  0  0  0  0  0  0  0  0  0  0  0
  -22.9790   -9.5760   20.1580 C   0  0  0  0  0  3  0  0  0  0  0  0
  -23.6730  -10.7810   19.9530 C   0  0  0  0  0  3  0  0  0  0  0  0
  -22.5950   -7.5650   21.3420 O   0  0  0  0  0  0  0  0  0  0  0  0
  -22.2160   -7.0590   22.5610 C   0  0  0  0  0  0  0  0  0  0  0  0
  -21.4680   -7.8230   23.4850 C   0  0  0  0  0  3  0  0  0  0  0  0
  -21.0390   -7.2410   24.6940 C   0  0  0  0  0  3  0  0  0  0  0  0
  -21.3490   -5.8980   24.9790 C   0  0  0  0  0  0  0  0  0  0  0  0
  -22.0880   -5.1340   24.0570 C   0  0  0  0  0  3  0  0  0  0  0  0
  -22.5170   -5.7130   22.8510 C   0  0  0  0  0  0  0  0  0  0  0  0
  -23.2110   -4.9670   21.9580 F   0  0  0  0  0  0  0  0  0  0  0  0
  -20.9290   -5.3350   26.1370 F   0  0  0  0  0  0  0  0  0  0  0  0
  -23.4500  -14.2140   20.6810 C   0  0  0  0  0  0  0  0  0  0  0  0
  -22.6940  -13.5400   21.5420 N   0  0  0  0  0  0  0  0  0  0  0  0
  -23.0090  -15.1850   20.0700 O   0  0  0  0  0  0  0  0  0  0  0  0
  -23.0640  -12.7550   22.0550 H   0  0  0  0  0  0  0  0  0  0  0  0
  -21.7290  -13.8030   21.6760 H   0  0  0  0  0  0  0  0  0  0  0  0
  -26.0660  -15.9360   19.9430 N   0  0  0  0  0  0  0  0  0  0  0  0
  -25.2600  -16.5500   19.9400 H   0  0  0  0  0  0  0  0  0  0  0  0
  -26.9180  -16.3930   19.6490 H   0  0  0  0  0  0  0  0  0  0  0  0
  -23.8910  -21.9340   18.7140 C   0  0  0  0  0  2  0  0  0  0  0  0
  -24.8320  -22.5790   19.7550 C   0  0  0  0  0  2  0  0  0  0  0  0
  -26.3150  -22.6500   19.3430 C   0  0  0  0  0  2  0  0  0  0  0  0
  -27.2550  -22.7040   20.5600 C   0  0  0  0  0  2  0  0  0  0  0  0
  -28.7350  -22.4750   20.2070 C   0  0  0  0  0  2  0  0  0  0  0  0
  -29.9530  -24.5970   20.6550 C   0  0  0  0  0  0  0  0  0  0  0  0
  -29.4090  -23.7110   19.8090 N   0  0  0  0  0  0  0  0  0  0  0  0
  -29.9000  -24.4650   21.8810 O   0  0  0  0  0  0  0  0  0  0  0  0
  -29.5180  -23.8820   18.8170 H   0  0  0  0  0  0  0  0  0  0  0  0
  -30.6750  -25.8040   20.0330 C   0  0  0  0  0  2  0  0  0  0  0  0
  -30.2720  -27.0210   20.6700 O   0  0  0  0  0  0  0  0  0  0  0  0
  -25.1150  -30.8980   23.6270 C   0  0  0  0  0  0  0  0  0  0  0  0
  -28.9780  -27.4800   20.5350 C   0  0  0  0  0  0  0  0  0  0  0  0
  -24.4580  -29.6170   21.6140 C   0  0  0  0  0  3  0  0  0  0  0  0
  -26.3730  -28.5600   20.3050 C   0  0  0  0  0  0  0  0  0  0  0  0
  -26.8770  -30.3790   21.9450 C   0  0  0  0  0  2  0  0  0  0  0  0
  -27.3040  -29.1560   21.1620 C   0  0  0  0  0  0  0  0  0  0  0  0
  -28.6040  -28.6220   21.2770 C   0  0  0  0  0  3  0  0  0  0  0  0
  -28.0180  -26.8790   19.6860 C   0  0  0  0  0  3  0  0  0  0  0  0
  -26.7240  -27.4170   19.5680 C   0  0  0  0  0  3  0  0  0  0  0  0
  -25.0060  -29.1990   20.2240 C   0  0  0  0  0  2  0  0  0  0  0  0
  -25.4890  -30.3060   22.4580 N   0  0  0  0  0  0  0  0  0  0  0  0
  -23.9290  -30.9180   23.9850 O   0  0  0  0  0  0  0  0  0  0  0  0
  -23.8470  -28.3710   22.2920 C   0  0  0  0  0  0  0  0  0  0  0  0
  -22.7710  -27.8360   21.6940 N   0  0  0  0  0  0  0  0  0  0  0  0
  -24.3550  -27.8920   23.3100 O   0  0  0  0  0  0  0  0  0  0  0  0
  -22.4150  -28.2900   20.8640 H   0  0  0  0  0  0  0  0  0  0  0  0
  -20.1920  -25.4920   20.7560 C   0  0  0  0  0  0  0  0  0  0  0  0
  -22.0530  -26.6400   22.1320 C   0  0  0  0  0  3  0  0  0  0  0  0
  -22.8900  -25.3670   21.8750 C   0  0  0  0  0  2  0  0  0  0  0  0
  -22.5870  -24.7080   20.5260 C   0  0  0  0  0  2  0  0  0  0  0  0
  -21.1080  -24.3220   20.4360 C   0  0  0  0  0  2  0  0  0  0  0  0
  -20.6420  -26.5880   21.5380 C   0  0  0  0  0  0  0  0  0  0  0  0
  -19.7630  -27.6670   21.7740 C   0  0  0  0  0  3  0  0  0  0  0  0
  -18.4560  -27.6600   21.2510 C   0  0  0  0  0  3  0  0  0  0  0  0
  -18.0110  -26.5640   20.4910 C   0  0  0  0  0  3  0  0  0  0  0  0
  -18.8770  -25.4820   20.2480 C   0  0  0  0  0  3  0  0  0  0  0  0
  -26.1530  -31.6010   24.5570 C   0  0  0  0  0  3  0  0  0  0  0  0
  -26.0830  -31.1080   26.0530 C   0  0  1  0  0  0  0  0  0  0  0  0
  -24.6600  -31.1450   26.6550 C   0  0  0  0  0  1  0  0  0  0  0  0
  -26.6110  -29.6590   26.1750 C   0  0  0  0  0  1  0  0  0  0  0  0
  -26.9940  -31.9910   26.9390 C   0  0  0  0  0  1  0  0  0  0  0  0
  -25.9160  -33.0480   24.4720 N   0  0  0  0  0  0  0  0  0  0  0  0
  -26.6760  -33.9050   23.7770 C   0  0  0  0  0  0  0  0  0  0  0  0
  -27.7090  -33.5630   23.1940 O   0  0  0  0  0  0  0  0  0  0  0  0
  -25.0620  -33.3910   24.8870 H   0  0  0  0  0  0  0  0  0  0  0  0
  -25.5800  -35.6630   22.3510 C   0  0  0  0  0  1  0  0  0  0  0  0
  -26.2170  -35.3740   23.7200 C   0  0  0  0  0  3  0  0  0  0  0  0
  -27.8020  -36.3040   25.3470 C   0  0  0  0  0  1  0  0  0  0  0  0
  -27.3040  -36.3430   23.9740 N   0  0  0  0  0  0  0  0  0  0  0  0
  -26.9930  -37.2900   23.7800 H   0  0  0  0  0  0  0  0  0  0  0  0
  1 54  1  0
  1  3  2  0
  2  1  1  0
  4  2  1  0
  5  2  1  0
  5  6  1  0
  6  7  1  0
  7  8  1  0
  8  9  1  0
  9 10  1  0
 10 11  1  0
 11 14  1  0
 11 13  1  0
 12 11  1  0
 14 15  1  0
 16 24  1  0
 17 22  1  0
 18 19  1  0
 18 17  1  0
 20 19  1  0
 20 29  1  0
 20 21  1  0
 22 21  1  0
 22 16  1  0
 23 16  2  0
 24 25  1  0
 24 15  1  0
 26 27  2  0
 27 28  1  0
 27 46  1  0
 28 31  1  0
 29 26  1  0
 29 30  1  0
 30 28  2  0
 31 32  1  0
 32 33  2  0
 34 37  1  0
 34 33  1  0
 35 34  2  0
 36 35  1  0
 36 31  2  0
 37 38  1  0
 38 43  2  0
 38 39  1  0
 39 40  2  0
 40 41  1  0
 41 45  1  0
 42 41  2  0
 43 42  1  0
 44 43  1  0
 46 47  1  0
 47 50  1  0
 47 49  1  0
 48 46  2  0
 51 26  1  0
 52 51  1  0
 53 51  1  0
 54 55  1  0
 56 55  1  0
 56 57  1  0
 58 57  1  0
 59 61  2  0
 60 58  1  0
 60 59  1  0
 62 60  1  0
 63 59  1  0
 63 64  1  0
 65 76  2  0
 66 64  1  0
 66 71  1  0
 67 77  1  0
 67 75  1  0
 68 70  1  0
 69 75  1  0
 70 71  2  0
 70 69  1  0
 72 66  2  0
 73 72  1  0
 73 68  2  0
 74 68  1  0
 74 67  1  0
 75 65  1  0
 77 79  2  0
 78 77  1  0
 80 78  1  0
 81 86  1  0
 82 78  1  0
 83 82  1  0
 84 83  1  0
 85 84  1  0
 85 81  1  0
 86 87  2  0
 86 82  1  0
 88 87  1  0
 89 88  2  0
 90 89  1  0
 90 81  2  0
 91 65  1  0
 91 92  1  0
 92 94  1  6
 92 93  1  0
 92 95  1  0
 96 91  1  0
 96 99  1  0
 97 96  1  0
 98 97  2  0
101100  1  0
101 97  1  0
101103  1  0
103102  1  0
104103  1  0
M  ISO  4  16 100  24 100  63 101  64 101
M  END
>  <TORSDO>  (67) 
F 32

>  <SCORE>  (67) 
-2.543

>  <name>  (67) 
75

>  <ligand_id>  (67) 
75

>  <original_smiles>  (67) 
[H]c1c([H])c([H])c2c(c1[H])C([H])([H])C([H])([H])C([H])([H])C2([H])N([H])C(=O)C1([H])N(C(=O)C([H])(N([H])C(=O)C([H])(N([H])C([H])([H])[H])C([H])([H])[H])C(C([H])([H])[H])(C([H])([H])[H])C([H])([H])[H])C([H])([H])c2c([H])c(OC([H])([H])C(=O)N([H])C([H])([H])C([H])([H])C([H])([H])C([H])([H])C([H])([H])C(=O)N([H])C([H])([H])C([H])([H])C([H])([H])C([H])([H])C([H])([H])C([H])([H])[N+]([H])([H])C([H])([H])C([H])([H])N([H])C(=O)N3C([H])([H])C([H])([H])C([H])([H])C([H])(n4nc(-c5c([H])c([H])c(Oc6c([H])c([H])c(F)c([H])c6F)c([H])c5[H])c(C(=O)N([H])[H])c4N([H])[H])C3([H])[H])c([H])c([H])c2C1([H])[H]

>  <smiles>  (67) 
[H]c1c([H])c([H])c2c(c1[H])C([H])([H])C([H])([H])C([H])([H])C2([H])N([H])C(=O)C1([H])N(C(=O)C([H])(N([H])C(=O)C([H])(N([H])C([H])([H])[H])C([H])([H])[H])C(C([H])([H])[H])(C([H])([H])[H])C([H])([H])[H])C([H])([H])c2c([H])c(OC([H])([H])C(=O)N([H])C([H])([H])C([H])([H])C([H])([H])C([H])([H])C([H])([H])C(=O)N([H])C([H])([H])C([H])([H])C([H])([H])C([H])([H])C([H])([H])C([H])([H])[N+]([H])([H])C([H])([H])C([H])([H])N([H])C(=O)N3C([H])([H])C([H])([H])C([H])([H])C([H])(n4nc(-c5c([H])c([H])c(Oc6c([H])c([H])c(F)c([H])c6F)c([H])c5[H])c(C(=O)N([H])[H])c4N([H])[H])C3([H])[H])c([H])c([H])c2C1([H])[H]

$$$$
76:0:0
     RDKit          3D

106113  0  0  1  0  0  0  0  0999 V2000
  -22.2530  -18.9610   23.7620 C   0  0  0  0  0  0  0  0  0  0  0  0
  -22.4650  -17.7540   24.2890 N   0  0  0  0  0  0  0  0  0  0  0  0
  -21.3090  -19.6770   24.1010 O   0  0  0  0  0  0  0  0  0  0  0  0
  -23.2460  -17.2260   23.9220 H   0  0  0  0  0  0  0  0  0  0  0  0
  -23.3100  -19.4450   22.7620 C   0  0  0  0  0  2  0  0  0  0  0  0
  -22.8120  -20.4610   21.7150 C   0  0  0  0  0  2  0  0  0  0  0  0
  -24.5060  -22.2620   21.3170 C   0  0  0  0  0  0  0  0  0  0  0  0
  -23.9360  -21.0850   21.0100 N   0  0  0  0  0  0  0  0  0  0  0  0
  -24.1290  -22.9580   22.2590 O   0  0  0  0  0  0  0  0  0  0  0  0
  -24.3040  -20.5790   20.2130 H   0  0  0  0  0  0  0  0  0  0  0  0
  -25.6720  -22.7240   20.4370 C   0  0  0  0  0  2  0  0  0  0  0  0
  -26.3470  -23.9230   20.9940 N   0  0  0  0  0  4  0  0  0  0  0  0
  -26.5220  -23.7340   21.9700 H   0  0  0  0  0  0  0  0  0  0  0  0
  -25.6850  -24.6850   20.9650 H   0  0  0  0  0  0  0  0  0  0  0  0
  -27.6240  -24.2780   20.3130 C   0  0  0  0  0  2  0  0  0  0  0  0
  -28.3280  -25.5330   20.9100 C   0  0  0  0  0  2  0  0  0  0  0  0
  -28.3520  -26.6900   20.0590 O   0  0  0  0  0  0  0  0  0  0  0  0
  -24.6080  -31.8740   23.2140 C   0  0  0  0  0  0  0  0  0  0  0  0
  -27.2080  -27.4470   20.0820 C   0  0  0  0  0  0  0  0  0  0  0  0
  -23.3930  -30.4970   21.5550 C   0  0  0  0  0  3  0  0  0  0  0  0
  -24.8370  -28.9710   20.1080 C   0  0  0  0  0  0  0  0  0  0  0  0
  -25.9200  -30.8330   21.3720 C   0  0  0  0  0  2  0  0  0  0  0  0
  -25.9940  -29.4680   20.7210 C   0  0  0  0  0  0  0  0  0  0  0  0
  -27.1860  -28.7110   20.7110 C   0  0  0  0  0  3  0  0  0  0  0  0
  -26.0450  -26.9760   19.4380 C   0  0  0  0  0  3  0  0  0  0  0  0
  -24.8570  -27.7270   19.4570 C   0  0  0  0  0  3  0  0  0  0  0  0
  -23.6000  -29.8370   20.1650 C   0  0  0  0  0  2  0  0  0  0  0  0
  -24.6580  -31.0830   22.1050 N   0  0  0  0  0  0  0  0  0  0  0  0
  -23.5300  -32.1480   23.7570 O   0  0  0  0  0  0  0  0  0  0  0  0
  -22.7380  -29.4660   22.5020 C   0  0  0  0  0  0  0  0  0  0  0  0
  -21.4120  -29.2990   22.3780 N   0  0  0  0  0  0  0  0  0  0  0  0
  -23.4200  -28.8220   23.3050 O   0  0  0  0  0  0  0  0  0  0  0  0
  -20.9270  -29.8680   21.6980 H   0  0  0  0  0  0  0  0  0  0  0  0
  -18.0260  -28.1390   22.8490 C   0  0  0  0  0  0  0  0  0  0  0  0
  -20.5850  -28.3630   23.1360 C   0  0  0  0  0  3  0  0  0  0  0  0
  -20.6770  -26.9380   22.5410 C   0  0  0  0  0  2  0  0  0  0  0  0
  -19.5750  -26.6400   21.5200 C   0  0  0  0  0  2  0  0  0  0  0  0
  -18.1930  -26.7930   22.1610 C   0  0  0  0  0  2  0  0  0  0  0  0
  -19.1520  -28.8840   23.2910 C   0  0  0  0  0  0  0  0  0  0  0  0
  -18.9440  -30.1460   23.8880 C   0  0  0  0  0  3  0  0  0  0  0  0
  -17.6440  -30.6580   24.0580 C   0  0  0  0  0  3  0  0  0  0  0  0
  -16.5330  -29.9070   23.6360 C   0  0  0  0  0  3  0  0  0  0  0  0
  -16.7250  -28.6510   23.0340 C   0  0  0  0  0  3  0  0  0  0  0  0
  -25.9000  -32.4860   23.8410 C   0  0  0  0  0  3  0  0  0  0  0  0
  -26.4450  -31.6620   25.0720 C   0  0  1  0  0  0  0  0  0  0  0  0
  -25.3740  -31.3680   26.1490 C   0  0  0  0  0  1  0  0  0  0  0  0
  -27.0290  -30.3080   24.6040 C   0  0  0  0  0  1  0  0  0  0  0  0
  -27.6060  -32.4310   25.7490 C   0  0  0  0  0  1  0  0  0  0  0  0
  -25.5890  -33.8650   24.2350 N   0  0  0  0  0  0  0  0  0  0  0  0
  -25.9030  -34.9490   23.5140 C   0  0  0  0  0  0  0  0  0  0  0  0
  -26.5560  -34.8940   22.4680 O   0  0  0  0  0  0  0  0  0  0  0  0
  -25.0090  -33.9840   25.0520 H   0  0  0  0  0  0  0  0  0  0  0  0
  -24.1480  -36.7310   23.2630 C   0  0  0  0  0  1  0  0  0  0  0  0
  -25.4110  -36.3120   24.0330 C   0  0  0  0  0  3  0  0  0  0  0  0
  -27.5590  -37.1820   24.8460 C   0  0  0  0  0  1  0  0  0  0  0  0
  -26.4300  -37.3800   23.9400 N   0  0  0  0  0  0  0  0  0  0  0  0
  -26.0170  -38.2870   24.1430 H   0  0  0  0  0  0  0  0  0  0  0  0
  -21.8700  -17.2200   25.5100 C   0  0  0  0  0  2  0  0  0  0  0  0
  -22.5270  -15.8700   25.8820 C   0  0  0  0  0  2  0  0  0  0  0  0
  -24.0670  -15.8950   25.8030 C   0  0  0  0  0  2  0  0  0  0  0  0
  -24.7730  -14.5650   26.1400 C   0  0  0  0  0  2  0  0  0  0  0  0
  -26.3020  -14.6000   25.9200 C   0  0  0  0  0  2  0  0  0  0  0  0
  -26.6810  -15.0740   24.5070 C   0  0  0  0  0  2  0  0  0  0  0  0
  -28.7220  -15.6880   23.3000 C   0  0  0  0  0  0  0  0  0  0  0  0
  -28.1090  -14.9760   24.2490 N   0  0  0  0  0  0  0  0  0  0  0  0
  -28.1880  -16.6340   22.7150 O   0  0  0  0  0  0  0  0  0  0  0  0
  -28.6340  -14.2480   24.7190 H   0  0  0  0  0  0  0  0  0  0  0  0
  -30.1270  -15.2500   22.8990 C   0  0  0  0  0  2  0  0  0  0  0  0
  -30.7730  -14.3730   20.6730 C   0  0  0  0  0  0  0  0  0  0  0  0
  -30.4140  -12.2770   19.4270 C   0  0  0  0  0  2  0  0  0  0  0  0
  -29.4960  -12.5230   18.2110 C   0  0  0  0  0  2  0  0  0  0  0  0
  -28.0130  -12.4070   18.6150 C   0  0  0  0  0  2  0  0  0  0  0  0
  -27.6730  -13.2140   19.8960 C   0  0  0  0  0  3  0  0  0  0  0  0
  -28.7070  -12.9250   21.0060 C   0  0  0  0  0  2  0  0  0  0  0  0
  -30.0530  -13.2290   20.4890 N   0  0  0  0  0  0  0  0  0  0  0  0
  -31.8010  -14.6340   20.0510 O   0  0  0  0  0  0  0  0  0  0  0  0
  -30.2410  -15.3210   21.4450 N   0  0  0  0  0  0  0  0  0  0  0  0
  -30.4760  -16.2540   21.1390 H   0  0  0  0  0  0  0  0  0  0  0  0
  -25.2530  -13.8150   20.5580 C   0  0  0  0  0  0  0  0  0  0  0  0
  -24.1780  -13.0400   20.9110 C   0  0  0  0  0  0  0  0  0  0  0  0
  -24.6400  -11.6930   20.8720 C   0  0  0  0  0  0  0  0  0  0  0  0
  -26.3070  -12.9390   20.3460 N   0  0  0  0  0  0  0  0  0  0  0  0
  -25.9350  -11.6540   20.5810 N   0  0  0  0  0  0  0  0  0  0  0  0
  -23.9060  -10.4310   21.0350 C   0  0  0  0  0  0  0  0  0  0  0  0
  -24.3400   -9.4460   21.9470 C   0  0  0  0  0  3  0  0  0  0  0  0
  -23.6120   -8.2470   22.1010 C   0  0  0  0  0  3  0  0  0  0  0  0
  -22.4330   -8.0280   21.3480 C   0  0  0  0  0  0  0  0  0  0  0  0
  -22.0130   -9.0070   20.4310 C   0  0  0  0  0  3  0  0  0  0  0  0
  -22.7410  -10.2000   20.2770 C   0  0  0  0  0  3  0  0  0  0  0  0
  -21.6620   -6.8940   21.4260 O   0  0  0  0  0  0  0  0  0  0  0  0
  -21.6820   -6.0790   22.5300 C   0  0  0  0  0  0  0  0  0  0  0  0
  -21.3930   -6.5670   23.8240 C   0  0  0  0  0  3  0  0  0  0  0  0
  -21.3660   -5.6820   24.9190 C   0  0  0  0  0  3  0  0  0  0  0  0
  -21.6020   -4.3080   24.7220 C   0  0  0  0  0  0  0  0  0  0  0  0
  -21.8770   -3.8190   23.4350 C   0  0  0  0  0  3  0  0  0  0  0  0
  -21.9170   -4.7020   22.3400 C   0  0  0  0  0  0  0  0  0  0  0  0
  -22.1660   -4.2210   21.0980 F   0  0  0  0  0  0  0  0  0  0  0  0
  -21.5610   -3.4580   25.7750 F   0  0  0  0  0  0  0  0  0  0  0  0
  -22.7780  -13.5190   21.1800 C   0  0  0  0  0  0  0  0  0  0  0  0
  -22.0320  -12.8080   22.0200 N   0  0  0  0  0  0  0  0  0  0  0  0
  -22.3560  -14.5570   20.6750 O   0  0  0  0  0  0  0  0  0  0  0  0
  -22.3870  -11.9670   22.4440 H   0  0  0  0  0  0  0  0  0  0  0  0
  -21.0930  -13.1140   22.2440 H   0  0  0  0  0  0  0  0  0  0  0  0
  -25.4200  -15.1830   20.3820 N   0  0  0  0  0  0  0  0  0  0  0  0
  -24.6310  -15.8200   20.3750 H   0  0  0  0  0  0  0  0  0  0  0  0
  -26.2990  -15.6280   20.1410 H   0  0  0  0  0  0  0  0  0  0  0  0
  1  3  2  0
  1  2  1  0
  2 58  1  0
  4  2  1  0
  5  1  1  0
  6  5  1  0
  7  9  2  0
  8  7  1  0
  8  6  1  0
 10  8  1  0
 11 12  1  0
 11  7  1  0
 12 13  1  0
 14 12  1  0
 15 16  1  0
 15 12  1  0
 17 19  1  0
 17 16  1  0
 18 29  2  0
 19 24  1  0
 20 28  1  0
 20 30  1  0
 21 27  1  0
 21 23  1  0
 22 28  1  0
 23 22  1  0
 24 23  2  0
 25 26  1  0
 25 19  2  0
 26 21  2  0
 27 20  1  0
 28 18  1  0
 30 32  2  0
 31 30  1  0
 33 31  1  0
 34 43  2  0
 34 39  1  0
 35 31  1  0
 35 39  1  0
 36 35  1  0
 37 38  1  0
 37 36  1  0
 38 34  1  0
 39 40  2  0
 40 41  1  0
 42 41  2  0
 43 42  1  0
 44 18  1  0
 44 49  1  0
 44 45  1  0
 45 48  1  1
 45 46  1  0
 47 45  1  0
 49 52  1  0
 50 54  1  0
 50 49  1  0
 51 50  2  0
 54 53  1  0
 56 54  1  0
 56 57  1  0
 56 55  1  0
 58 59  1  0
 60 59  1  0
 60 61  1  0
 62 61  1  0
 63 62  1  0
 64 65  1  0
 65 63  1  0
 65 67  1  0
 66 64  2  0
 68 64  1  0
 69 77  1  0
 70 75  1  0
 71 72  1  0
 71 70  1  0
 73 72  1  0
 73 82  1  0
 73 74  1  0
 75 69  1  0
 75 74  1  0
 76 69  2  0
 77 68  1  0
 78 77  1  0
 79 80  2  0
 80 99  1  0
 81 80  1  0
 81 84  1  0
 82 79  1  0
 82 83  1  0
 83 81  2  0
 84 85  1  0
 85 86  2  0
 87 90  1  0
 87 86  1  0
 88 87  2  0
 89 88  1  0
 89 84  2  0
 90 91  1  0
 91 92  1  0
 92 93  2  0
 94 93  1  0
 94 98  1  0
 95 94  2  0
 96 91  2  0
 96 95  1  0
 97 96  1  0
 99100  1  0
100103  1  0
100102  1  0
101 99  2  0
104 79  1  0
105104  1  0
106104  1  0
M  ISO  4  16 101  17 101  69 100  77 100
M  END
>  <TORSDO>  (68) 
F 31

>  <SCORE>  (68) 
73.615

>  <name>  (68) 
76

>  <ligand_id>  (68) 
76

>  <original_smiles>  (68) 
[H]c1c([H])c([H])c2c(c1[H])C([H])([H])C([H])([H])C([H])([H])C2([H])N([H])C(=O)C1([H])N(C(=O)C([H])(N([H])C(=O)C([H])(N([H])C([H])([H])[H])C([H])([H])[H])C(C([H])([H])[H])(C([H])([H])[H])C([H])([H])[H])C([H])([H])c2c([H])c(OC([H])([H])C([H])([H])[N+]([H])([H])C([H])([H])C(=O)N([H])C([H])([H])C([H])([H])C(=O)N([H])C([H])([H])C([H])([H])C([H])([H])C([H])([H])C([H])([H])C([H])([H])N([H])C(=O)C([H])([H])N([H])C(=O)N3C([H])([H])C([H])([H])C([H])([H])C([H])(n4nc(-c5c([H])c([H])c(Oc6c([H])c([H])c(F)c([H])c6F)c([H])c5[H])c(C(=O)N([H])[H])c4N([H])[H])C3([H])[H])c([H])c([H])c2C1([H])[H]

>  <smiles>  (68) 
[H]c1c([H])c([H])c2c(c1[H])C([H])([H])C([H])([H])C([H])([H])C2([H])N([H])C(=O)C1([H])N(C(=O)C([H])(N([H])C(=O)C([H])(N([H])C([H])([H])[H])C([H])([H])[H])C(C([H])([H])[H])(C([H])([H])[H])C([H])([H])[H])C([H])([H])c2c([H])c(OC([H])([H])C([H])([H])[N+]([H])([H])C([H])([H])C(=O)N([H])C([H])([H])C([H])([H])C(=O)N([H])C([H])([H])C([H])([H])C([H])([H])C([H])([H])C([H])([H])C([H])([H])N([H])C(=O)C([H])([H])N([H])C(=O)N3C([H])([H])C([H])([H])C([H])([H])C([H])(n4nc(-c5c([H])c([H])c(Oc6c([H])c([H])c(F)c([H])c6F)c([H])c5[H])c(C(=O)N([H])[H])c4N([H])[H])C3([H])[H])c([H])c([H])c2C1([H])[H]

$$$$
77:0:0
     RDKit          3D

107111  0  0  1  0  0  0  0  0999 V2000
  -20.4980  -25.4290   22.0330 C   0  0  0  0  0  0  0  0  0  0  0  0
  -21.5480  -26.2210   22.3260 N   0  0  0  0  0  0  0  0  0  0  0  0
  -20.1930  -24.5150   22.8140 O   0  0  0  0  0  0  0  0  0  0  0  0
  -21.6700  -27.0460   21.7510 H   0  0  0  0  0  0  0  0  0  0  0  0
  -22.6560  -25.9210   23.2290 C   0  0  0  0  0  2  0  0  0  0  0  0
  -24.0040  -26.4120   22.6420 C   0  0  0  0  0  2  0  0  0  0  0  0
  -24.5010  -25.7150   21.3480 C   0  0  0  0  0  2  0  0  0  0  0  0
  -25.9290  -25.1470   21.5300 C   0  0  0  0  0  2  0  0  0  0  0  0
  -26.5370  -24.4380   20.3060 C   0  0  0  0  0  2  0  0  0  0  0  0
  -27.3930  -23.2240   20.7360 C   0  0  0  0  0  2  0  0  0  0  0  0
  -28.0790  -21.0390   19.7610 C   0  0  0  0  0  0  0  0  0  0  0  0
  -27.6110  -22.2880   19.6360 N   0  0  0  0  0  0  0  0  0  0  0  0
  -28.3120  -20.5270   20.8590 O   0  0  0  0  0  0  0  0  0  0  0  0
  -27.4320  -22.6250   18.6990 H   0  0  0  0  0  0  0  0  0  0  0  0
  -28.2880  -20.4020   18.4720 C   0  0  0  0  0  3  0  0  0  0  0  0
  -28.9220  -19.2030   18.4420 C   0  0  0  0  0  3  0  0  0  0  0  0
  -29.4370  -17.9640   17.7100 C   0  0  0  0  0  2  0  0  0  0  0  0
  -30.4440  -15.9890   18.8710 C   0  0  0  0  0  0  0  0  0  0  0  0
  -30.8680  -13.6430   19.4860 C   0  0  0  0  0  2  0  0  0  0  0  0
  -30.1080  -12.7300   18.5030 C   0  0  0  0  0  2  0  0  0  0  0  0
  -28.6620  -12.4960   18.9800 C   0  0  0  0  0  2  0  0  0  0  0  0
  -27.9320  -13.8160   19.3480 C   0  0  0  0  0  3  0  0  0  0  0  0
  -28.8170  -14.6750   20.2760 C   0  0  0  0  0  2  0  0  0  0  0  0
  -30.1100  -14.8960   19.5990 N   0  0  0  0  0  0  0  0  0  0  0  0
  -31.5410  -16.1380   18.3200 O   0  0  0  0  0  0  0  0  0  0  0  0
  -29.4340  -16.8430   18.6480 N   0  0  0  0  0  0  0  0  0  0  0  0
  -28.5490  -16.5990   19.0670 H   0  0  0  0  0  0  0  0  0  0  0  0
  -25.6520  -14.4570   20.3570 C   0  0  0  0  0  0  0  0  0  0  0  0
  -24.5920  -13.6980   20.7760 C   0  0  0  0  0  0  0  0  0  0  0  0
  -24.9830  -12.3370   20.5830 C   0  0  0  0  0  0  0  0  0  0  0  0
  -26.6230  -13.5600   19.9440 N   0  0  0  0  0  0  0  0  0  0  0  0
  -26.2280  -12.2760   20.1340 N   0  0  0  0  0  0  0  0  0  0  0  0
  -24.2240  -11.0920   20.7380 C   0  0  0  0  0  0  0  0  0  0  0  0
  -24.6900  -10.0410   21.5580 C   0  0  0  0  0  3  0  0  0  0  0  0
  -23.9320   -8.8590   21.7060 C   0  0  0  0  0  3  0  0  0  0  0  0
  -22.6960   -8.7200   21.0310 C   0  0  0  0  0  0  0  0  0  0  0  0
  -22.2500   -9.7600   20.1960 C   0  0  0  0  0  3  0  0  0  0  0  0
  -23.0080  -10.9340   20.0460 C   0  0  0  0  0  3  0  0  0  0  0  0
  -21.9020   -7.6000   21.0960 O   0  0  0  0  0  0  0  0  0  0  0  0
  -21.7510   -6.8930   22.2600 C   0  0  0  0  0  0  0  0  0  0  0  0
  -21.2990   -7.5040   23.4520 C   0  0  0  0  0  3  0  0  0  0  0  0
  -21.0850   -6.7220   24.6050 C   0  0  0  0  0  3  0  0  0  0  0  0
  -21.3190   -5.3340   24.5690 C   0  0  0  0  0  0  0  0  0  0  0  0
  -21.7640   -4.7260   23.3830 C   0  0  0  0  0  3  0  0  0  0  0  0
  -21.9760   -5.5020   22.2310 C   0  0  0  0  0  0  0  0  0  0  0  0
  -22.3830   -4.9070   21.0830 F   0  0  0  0  0  0  0  0  0  0  0  0
  -21.1080   -4.5820   25.6750 F   0  0  0  0  0  0  0  0  0  0  0  0
  -23.2540  -14.2020   21.2320 C   0  0  0  0  0  0  0  0  0  0  0  0
  -22.6380  -13.5210   22.1910 N   0  0  0  0  0  0  0  0  0  0  0  0
  -22.7720  -15.2360   20.7700 O   0  0  0  0  0  0  0  0  0  0  0  0
  -23.0500  -12.6850   22.5800 H   0  0  0  0  0  0  0  0  0  0  0  0
  -21.7440  -13.8370   22.5390 H   0  0  0  0  0  0  0  0  0  0  0  0
  -25.8600  -15.8290   20.2730 N   0  0  0  0  0  0  0  0  0  0  0  0
  -25.1350  -16.4980   20.5060 H   0  0  0  0  0  0  0  0  0  0  0  0
  -26.6890  -16.2670   19.8880 H   0  0  0  0  0  0  0  0  0  0  0  0
  -19.5640  -25.7200   20.6950 C   0  0  0  0  0  3  0  0  0  0  0  0
  -18.4860  -24.9750   21.4740 N   0  0  0  0  0  4  0  0  0  0  0  0
  -18.9710  -24.2100   21.9240 H   0  0  0  0  0  0  0  0  0  0  0  0
  -17.7870  -24.6460   20.8250 H   0  0  0  0  0  0  0  0  0  0  0  0
  -18.0860  -25.5610   22.1850 H   0  0  0  0  0  0  0  0  0  0  0  0
  -20.1580  -26.0180   17.9940 C   0  0  0  0  0  2  0  0  0  0  0  0
  -21.5090  -26.1020   17.3320 N   0  0  0  0  0  0  0  0  0  0  0  0
  -19.3540  -26.1660   17.0560 O   0  0  0  0  0  1  0  0  0  0  0  0
  -21.2950  -26.2910   16.3660 H   0  0  0  0  0  0  0  0  0  0  0  0
  -23.1590  -25.8560   17.4200 C   0  0  0  0  0  3  0  0  0  0  0  0
  -24.4520  -26.3970   18.5250 C   0  0  0  0  0  3  0  0  0  0  0  0
  -26.0790  -26.2770   18.6480 O   0  0  0  0  0  0  0  0  0  0  0  0
  -24.3990  -31.0990   22.2380 C   0  0  0  0  0  0  0  0  0  0  0  0
  -26.8320  -27.3580   18.3140 C   0  0  0  0  0  3  0  0  0  0  0  0
  -23.4330  -30.3620   20.1240 C   0  0  0  0  0  3  0  0  0  0  0  0
  -25.0170  -29.3750   18.3620 C   0  0  0  0  0  3  0  0  0  0  0  0
  -25.9570  -30.4240   20.4160 C   0  0  0  0  0  2  0  0  0  0  0  0
  -26.0150  -29.3650   19.3400 C   0  0  0  0  0  0  0  0  0  0  0  0
  -26.9880  -28.3490   19.3110 C   0  0  0  0  0  3  0  0  0  0  0  0
  -26.2200  -27.6700   17.1190 C   0  0  0  0  0  3  0  0  0  0  0  0
  -25.1840  -28.6130   17.1910 C   0  0  0  0  0  3  0  0  0  0  0  0
  -23.8070  -30.2290   18.6160 C   0  0  0  0  0  2  0  0  0  0  0  0
  -24.6100  -30.6530   20.9720 N   0  0  0  0  0  0  0  0  0  0  0  0
  -23.2580  -31.3300   22.6620 O   0  0  0  0  0  0  0  0  0  0  0  0
  -22.6900  -29.1550   20.7310 C   0  0  0  0  0  0  0  0  0  0  0  0
  -21.5040  -29.3840   21.2200 N   0  0  0  0  0  0  0  0  0  0  0  0
  -23.1880  -28.0440   20.8770 O   0  0  0  0  0  0  0  0  0  0  0  0
  -21.1450  -30.3290   21.1710 H   0  0  0  0  0  0  0  0  0  0  0  0
  -17.8010  -29.7300   22.1860 C   0  0  0  0  0  0  0  0  0  0  0  0
  -20.5550  -28.3410   21.5930 C   0  0  0  0  0  2  0  0  0  0  0  0
  -19.8290  -27.1530   20.0260 C   0  0  0  0  0  1  0  0  0  0  0  0
  -17.7620  -27.5910   19.4640 C   0  0  0  0  0 15  0  0  0  0  0  0
  -16.8280  -28.9340   20.7340 C   0  0  0  0  0  1  0  0  0  0  0  0
  -19.3730  -29.4350   22.5310 C   0  0  0  0  0  0  0  0  0  0  0  0
  -19.8810  -29.8910   23.7560 C   0  0  0  0  0  3  0  0  0  0  0  0
  -19.0470  -30.4600   24.7250 C   0  0  0  0  0  3  0  0  0  0  0  0
  -17.6610  -30.5780   24.5150 C   0  0  0  0  0  3  0  0  0  0  0  0
  -17.0580  -30.2310   23.2840 C   0  0  0  0  0  3  0  0  0  0  0  0
  -25.5900  -31.3550   23.1950 C   0  0  0  0  0  3  0  0  0  0  0  0
  -25.8170  -30.1820   24.2220 C   0  0  1  0  0  0  0  0  0  0  0  0
  -24.5370  -29.7630   24.9830 C   0  0  0  0  0  1  0  0  0  0  0  0
  -26.3660  -28.9210   23.5120 C   0  0  0  0  0  1  0  0  0  0  0  0
  -26.8850  -30.6100   25.2560 C   0  0  0  0  0  1  0  0  0  0  0  0
  -25.3040  -32.6140   23.8870 N   0  0  0  0  0  0  0  0  0  0  0  0
  -25.9530  -33.7630   23.6560 C   0  0  0  0  0  0  0  0  0  0  0  0
  -26.9200  -33.8450   22.8940 O   0  0  0  0  0  0  0  0  0  0  0  0
  -24.4840  -32.6340   24.4760 H   0  0  0  0  0  0  0  0  0  0  0  0
  -24.7510  -35.9550   23.3960 C   0  0  0  0  0  1  0  0  0  0  0  0
  -25.4510  -35.0170   24.3930 C   0  0  0  0  0  3  0  0  0  0  0  0
  -27.0660  -35.0010   26.2390 C   0  0  0  0  0  1  0  0  0  0  0  0
  -26.5260  -35.7430   25.1020 N   0  0  0  0  0  0  0  0  0  0  0  0
  -26.1930  -36.6430   25.4400 H   0  0  0  0  0  0  0  0  0  0  0  0
  1  2  1  0
  1  3  2  0
  2  5  1  0
  4  2  1  0
  6  5  1  0
  7  8  1  0
  7  6  1  0
  9 10  1  0
  9  8  1  0
 11 13  2  0
 12 11  1  0
 12 10  1  0
 14 12  1  0
 15 11  1  0
 16 15  2  0
 17 16  1  0
 17 26  1  0
 18 24  1  0
 19 24  1  0
 20 21  1  0
 20 19  1  0
 22 21  1  0
 22 31  1  0
 22 23  1  0
 24 23  1  0
 25 18  2  0
 26 18  1  0
 26 27  1  0
 28 29  2  0
 29 48  1  0
 30 33  1  0
 30 29  1  0
 31 32  1  0
 31 28  1  0
 32 30  2  0
 33 34  1  0
 34 35  2  0
 36 39  1  0
 36 35  1  0
 37 36  2  0
 38 37  1  0
 38 33  2  0
 39 40  1  0
 40 41  1  0
 41 42  2  0
 43 42  1  0
 43 47  1  0
 44 43  2  0
 45 40  2  0
 45 44  1  0
 46 45  1  0
 48 49  1  0
 49 52  1  0
 49 51  1  0
 50 48  2  0
 53 28  1  0
 53 54  1  0
 55 53  1  0
 56 86  1  0
 56 57  1  0
 56  1  1  0
 57 58  1  0
 57 60  1  0
 59 57  1  0
 62 65  1  0
 62 61  1  0
 63 61  1  0
 64 62  1  0
 65 66  2  0
 66 67  1  0
 68 79  2  0
 69 67  1  0
 69 74  1  0
 70 80  1  0
 70 78  1  0
 71 76  1  0
 71 77  1  0
 71 73  1  0
 72 78  1  0
 73 72  1  0
 74 73  2  0
 75 76  2  0
 75 69  1  0
 77 70  1  0
 78 68  1  0
 80 82  2  0
 80 81  1  0
 81 85  1  0
 83 81  1  0
 84 89  2  0
 84 93  1  0
 85 89  1  0
 88 84  1  0
 89 90  1  0
 90 91  2  0
 92 91  1  0
 93 92  2  0
 94 68  1  0
 94 99  1  0
 94 95  1  0
 95 96  1  1
 95 98  1  0
 97 95  1  0
 99102  1  0
100 99  1  0
100104  1  0
101100  2  0
104103  1  0
104106  1  0
106107  1  0
106105  1  0
M  ISO  4  18 100  26 100  66 101  67 101
M  END
>  <TORSDO>  (69) 
F 30

>  <SCORE>  (69) 
-4.948

>  <name>  (69) 
77

>  <ligand_id>  (69) 
77

>  <original_smiles>  (69) 
[H]C(C(=O)N([H])C([H])([H])C([H])([H])C([H])([H])C([H])([H])C([H])([H])C([H])([H])N([H])C(=O)C([H])(C(=O)N([H])C([H])([H])C([H])([H])Oc1c([H])c([H])c2c(c1[H])C([H])([H])N(C(=O)C([H])(N([H])C(=O)C([H])(N([H])C([H])([H])[H])C([H])([H])[H])C(C([H])([H])[H])(C([H])([H])[H])C([H])([H])[H])C([H])(C(=O)N([H])C1([H])c3c([H])c([H])c([H])c([H])c3C([H])([H])C([H])([H])C1([H])[H])C2([H])[H])[N+]([H])([H])[H])=C([H])C([H])([H])N([H])C(=O)N1C([H])([H])C([H])([H])C([H])([H])C([H])(n2nc(-c3c([H])c([H])c(Oc4c([H])c([H])c(F)c([H])c4F)c([H])c3[H])c(C(=O)N([H])[H])c2N([H])[H])C1([H])[H]

>  <smiles>  (69) 
[H]C(C(=O)N([H])C([H])([H])C([H])([H])C([H])([H])C([H])([H])C([H])([H])C([H])([H])N([H])C(=O)C([H])(C(=O)N([H])C([H])([H])C([H])([H])Oc1c([H])c([H])c2c(c1[H])C([H])([H])N(C(=O)C([H])(N([H])C(=O)C([H])(N([H])C([H])([H])[H])C([H])([H])[H])C(C([H])([H])[H])(C([H])([H])[H])C([H])([H])[H])C([H])(C(=O)N([H])C1([H])c3c([H])c([H])c([H])c([H])c3C([H])([H])C([H])([H])C1([H])[H])C2([H])[H])[N+]([H])([H])[H])=C([H])C([H])([H])N([H])C(=O)N1C([H])([H])C([H])([H])C([H])([H])C([H])(n2nc(-c3c([H])c([H])c(Oc4c([H])c([H])c(F)c([H])c4F)c([H])c3[H])c(C(=O)N([H])[H])c2N([H])[H])C1([H])[H]

$$$$
78:0:0
     RDKit          3D

104111  0  0  1  0  0  0  0  0999 V2000
  -29.0960  -23.8620   15.2570 C   0  0  0  0  0  2  0  0  0  0  0  0
  -29.5480  -22.8490   17.5190 C   0  0  0  0  0  0  0  0  0  0  0  0
  -30.7010  -23.5010   17.6660 N   0  0  0  0  0  4  0  0  0  0  0  0
  -28.8050  -22.9930   16.4090 N   0  0  0  0  0  0  0  0  0  0  0  0
  -29.1520  -22.0430   18.5110 N   0  0  0  0  0  0  0  0  0  0  0  0
  -31.0710  -24.0790   16.9260 H   0  0  0  0  0  0  0  0  0  0  0  0
  -31.2830  -23.3770   18.4830 H   0  0  0  0  0  0  0  0  0  0  0  0
  -27.9770  -22.4200   16.3240 H   0  0  0  0  0  0  0  0  0  0  0  0
  -29.6830  -22.0350   19.3700 H   0  0  0  0  0  0  0  0  0  0  0  0
  -27.9750  -21.1610   18.5150 C   0  0  0  0  0  2  0  0  0  0  0  0
  -28.1100  -20.0630   19.5820 C   0  0  0  0  0  2  0  0  0  0  0  0
  -29.4920  -19.3810   19.5690 C   0  0  0  0  0  2  0  0  0  0  0  0
  -29.6520  -18.2720   20.6170 C   0  0  0  0  0  2  0  0  0  0  0  0
  -31.1260  -17.8580   20.7670 C   0  0  0  0  0  2  0  0  0  0  0  0
  -31.3540  -16.6850   21.7380 C   0  0  0  0  0  2  0  0  0  0  0  0
  -31.0820  -14.6990   20.2560 C   0  0  0  0  0  0  0  0  0  0  0  0
  -30.6420  -12.6470   18.9610 C   0  0  0  0  0  2  0  0  0  0  0  0
  -29.6520  -12.9040   17.8110 C   0  0  0  0  0  2  0  0  0  0  0  0
  -28.1990  -12.7680   18.3000 C   0  0  0  0  0  2  0  0  0  0  0  0
  -27.9280  -13.5790   19.5930 C   0  0  0  0  0  3  0  0  0  0  0  0
  -29.0170  -13.3050   20.6520 C   0  0  0  0  0  2  0  0  0  0  0  0
  -30.3360  -13.5850   20.0520 N   0  0  0  0  0  0  0  0  0  0  0  0
  -32.0680  -14.9910   19.5720 O   0  0  0  0  0  0  0  0  0  0  0  0
  -30.7010  -15.4570   21.2900 N   0  0  0  0  0  0  0  0  0  0  0  0
  -29.9030  -15.1350   21.8180 H   0  0  0  0  0  0  0  0  0  0  0  0
  -25.5740  -14.2050   20.4310 C   0  0  0  0  0  0  0  0  0  0  0  0
  -24.5050  -13.4390   20.8140 C   0  0  0  0  0  0  0  0  0  0  0  0
  -24.9340  -12.0810   20.7010 C   0  0  0  0  0  0  0  0  0  0  0  0
  -26.5880  -13.3140   20.1170 N   0  0  0  0  0  0  0  0  0  0  0  0
  -26.2070  -12.0290   20.3310 N   0  0  0  0  0  0  0  0  0  0  0  0
  -24.1890  -10.8270   20.8680 C   0  0  0  0  0  0  0  0  0  0  0  0
  -24.5540   -9.8760   21.8470 C   0  0  0  0  0  3  0  0  0  0  0  0
  -23.8100   -8.6850   22.0010 C   0  0  0  0  0  3  0  0  0  0  0  0
  -22.6890   -8.4370   21.1740 C   0  0  0  0  0  0  0  0  0  0  0  0
  -22.3430   -9.3780   20.1870 C   0  0  0  0  0  3  0  0  0  0  0  0
  -23.0870  -10.5590   20.0320 C   0  0  0  0  0  3  0  0  0  0  0  0
  -21.9230   -7.2980   21.2340 O   0  0  0  0  0  0  0  0  0  0  0  0
  -21.7110   -6.6350   22.4160 C   0  0  0  0  0  0  0  0  0  0  0  0
  -21.0400   -7.2400   23.5010 C   0  0  0  0  0  3  0  0  0  0  0  0
  -20.7830   -6.4990   24.6710 C   0  0  0  0  0  3  0  0  0  0  0  0
  -21.1850   -5.1540   24.7560 C   0  0  0  0  0  0  0  0  0  0  0  0
  -21.8480   -4.5470   23.6750 C   0  0  0  0  0  3  0  0  0  0  0  0
  -22.1070   -5.2850   22.5070 C   0  0  0  0  0  0  0  0  0  0  0  0
  -22.7280   -4.6890   21.4600 F   0  0  0  0  0  0  0  0  0  0  0  0
  -20.9310   -4.4390   25.8770 F   0  0  0  0  0  0  0  0  0  0  0  0
  -23.1330  -13.9320   21.1740 C   0  0  0  0  0  0  0  0  0  0  0  0
  -22.4290  -13.2070   22.0370 N   0  0  0  0  0  0  0  0  0  0  0  0
  -22.6970  -14.9930   20.7290 O   0  0  0  0  0  0  0  0  0  0  0  0
  -22.7950  -12.3480   22.4190 H   0  0  0  0  0  0  0  0  0  0  0  0
  -21.5100  -13.5170   22.3190 H   0  0  0  0  0  0  0  0  0  0  0  0
  -25.7620  -15.5790   20.3080 N   0  0  0  0  0  0  0  0  0  0  0  0
  -25.0190  -16.2460   20.4820 H   0  0  0  0  0  0  0  0  0  0  0  0
  -26.6160  -16.0120   19.9780 H   0  0  0  0  0  0  0  0  0  0  0  0
  -27.9070  -24.7790   14.9210 C   0  0  0  0  0  2  0  0  0  0  0  0
  -28.3200  -25.9880   14.0560 C   0  0  0  0  0  2  0  0  0  0  0  0
  -27.9000  -27.3590   14.6280 C   0  0  0  0  0  2  0  0  0  0  0  0
  -29.3220  -27.6630   16.6650 C   0  0  0  0  0  0  0  0  0  0  0  0
  -28.1370  -27.5090   16.0640 N   0  0  0  0  0  0  0  0  0  0  0  0
  -30.3940  -27.5690   16.0640 O   0  0  0  0  0  0  0  0  0  0  0  0
  -27.3130  -27.5800   16.6500 H   0  0  0  0  0  0  0  0  0  0  0  0
  -29.3020  -27.9880   18.1580 C   0  0  0  0  0  2  0  0  0  0  0  0
  -30.0490  -26.9360   19.0020 C   0  0  0  0  0  2  0  0  0  0  0  0
  -29.9930  -27.1810   20.5210 C   0  0  0  0  0  2  0  0  0  0  0  0
  -28.8370  -26.5700   21.0960 O   0  0  0  0  0  0  0  0  0  0  0  0
  -24.7000  -31.8600   23.5090 C   0  0  0  0  0  0  0  0  0  0  0  0
  -27.6740  -27.2900   20.9970 C   0  0  0  0  0  0  0  0  0  0  0  0
  -23.6680  -30.3350   21.8550 C   0  0  0  0  0  3  0  0  0  0  0  0
  -25.2650  -28.7180   20.6990 C   0  0  0  0  0  0  0  0  0  0  0  0
  -26.1980  -30.7190   21.8790 C   0  0  0  0  0  2  0  0  0  0  0  0
  -26.3550  -29.3110   21.3480 C   0  0  0  0  0  0  0  0  0  0  0  0
  -27.5650  -28.6040   21.4970 C   0  0  0  0  0  3  0  0  0  0  0  0
  -26.5590  -26.6810   20.3890 C   0  0  0  0  0  3  0  0  0  0  0  0
  -25.3580  -27.3970   20.2220 C   0  0  0  0  0  3  0  0  0  0  0  0
  -24.0110  -29.5540   20.5610 C   0  0  0  0  0  2  0  0  0  0  0  0
  -24.8670  -30.9890   22.4730 N   0  0  0  0  0  0  0  0  0  0  0  0
  -23.5690  -32.1530   23.9200 O   0  0  0  0  0  0  0  0  0  0  0  0
  -22.9290  -29.3780   22.8160 C   0  0  0  0  0  0  0  0  0  0  0  0
  -21.6240  -29.1740   22.5720 N   0  0  0  0  0  0  0  0  0  0  0  0
  -23.5320  -28.8130   23.7330 O   0  0  0  0  0  0  0  0  0  0  0  0
  -21.2020  -29.6770   21.8030 H   0  0  0  0  0  0  0  0  0  0  0  0
  -18.2070  -28.0410   22.8520 C   0  0  0  0  0  0  0  0  0  0  0  0
  -20.7360  -28.2840   23.3180 C   0  0  0  0  0  3  0  0  0  0  0  0
  -20.8650  -26.8260   22.8180 C   0  0  0  0  0  2  0  0  0  0  0  0
  -19.8440  -26.4680   21.7340 C   0  0  0  0  0  2  0  0  0  0  0  0
  -18.4170  -26.6580   22.2570 C   0  0  0  0  0  2  0  0  0  0  0  0
  -19.2980  -28.8110   23.3340 C   0  0  0  0  0  0  0  0  0  0  0  0
  -19.0530  -30.1050   23.8420 C   0  0  0  0  0  3  0  0  0  0  0  0
  -17.7470  -30.6290   23.8750 C   0  0  0  0  0  3  0  0  0  0  0  0
  -16.6680  -29.8570   23.4120 C   0  0  0  0  0  3  0  0  0  0  0  0
  -16.8990  -28.5660   22.9070 C   0  0  0  0  0  3  0  0  0  0  0  0
  -25.9160  -32.5440   24.2080 C   0  0  0  0  0  3  0  0  0  0  0  0
  -25.5640  -33.9530   24.4260 N   0  0  0  0  0  0  0  0  0  0  0  0
  -25.9450  -34.9640   23.6320 C   0  0  0  0  0  0  0  0  0  0  0  0
  -26.6950  -34.8070   22.6640 O   0  0  0  0  0  0  0  0  0  0  0  0
  -24.9060  -34.1450   25.1670 H   0  0  0  0  0  0  0  0  0  0  0  0
  -24.2250  -36.6960   23.0290 C   0  0  0  0  0  1  0  0  0  0  0  0
  -25.4040  -36.3690   23.9590 C   0  0  0  0  0  3  0  0  0  0  0  0
  -27.4440  -37.3510   24.9080 C   0  0  0  0  0  1  0  0  0  0  0  0
  -26.4290  -37.4310   23.8600 N   0  0  0  0  0  0  0  0  0  0  0  0
  -26.0010  -38.3520   23.9000 H   0  0  0  0  0  0  0  0  0  0  0  0
  -26.3200  -31.8540   25.5680 C   0  0  1  0  0  0  0  0  0  0  0  0
  -25.1230  -31.5970   26.5170 C   0  0  0  0  0  1  0  0  0  0  0  0
  -27.0120  -30.4960   25.3050 C   0  0  0  0  0  1  0  0  0  0  0  0
  -27.3460  -32.7350   26.3180 C   0  0  0  0  0  1  0  0  0  0  0  0
  1  4  1  0
  2  3  2  0
  2  5  1  0
  3  7  1  0
  4  2  1  0
  5 10  1  0
  5  9  1  0
  6  3  1  0
  8  4  1  0
 10 11  1  0
 12 11  1  0
 12 13  1  0
 13 14  1  0
 14 15  1  0
 16 24  1  0
 17 22  1  0
 18 19  1  0
 18 17  1  0
 20 19  1  0
 20 29  1  0
 20 21  1  0
 22 16  1  0
 22 21  1  0
 23 16  2  0
 24 15  1  0
 24 25  1  0
 26 27  2  0
 27 46  1  0
 28 27  1  0
 28 31  1  0
 29 30  1  0
 29 26  1  0
 30 28  2  0
 31 32  1  0
 32 33  2  0
 34 37  1  0
 34 33  1  0
 35 34  2  0
 36 35  1  0
 36 31  2  0
 37 38  1  0
 38 43  2  0
 38 39  1  0
 39 40  2  0
 40 41  1  0
 41 45  1  0
 42 41  2  0
 43 42  1  0
 44 43  1  0
 46 47  1  0
 47 50  1  0
 47 49  1  0
 48 46  2  0
 51 26  1  0
 51 52  1  0
 53 51  1  0
 54  1  1  0
 55 56  1  0
 55 54  1  0
 56 58  1  0
 57 61  1  0
 58 60  1  0
 58 57  1  0
 59 57  2  0
 61 62  1  0
 62 63  1  0
 63 64  1  0
 65 76  2  0
 66 64  1  0
 66 71  1  0
 67 75  1  0
 67 77  1  0
 68 70  1  0
 69 75  1  0
 70 71  2  0
 70 69  1  0
 72 66  2  0
 73 72  1  0
 73 68  2  0
 74 68  1  0
 74 67  1  0
 75 65  1  0
 77 79  2  0
 78 77  1  0
 80 78  1  0
 81 90  2  0
 81 86  1  0
 82 78  1  0
 82 86  1  0
 83 82  1  0
 84 85  1  0
 84 83  1  0
 85 81  1  0
 86 87  2  0
 87 88  1  0
 89 88  2  0
 90 89  1  0
 91 65  1  0
 91 92  1  0
 91101  1  0
 92 95  1  0
 93 97  1  0
 93 92  1  0
 94 93  2  0
 97 96  1  0
 99100  1  0
 99 97  1  0
 99 98  1  0
101104  1  1
101102  1  0
103101  1  0
M  ISO  4  16 100  24 100  63 101  64 101
M  END
>  <TORSDO>  (70) 
F 30

>  <SCORE>  (70) 
-9.415

>  <name>  (70) 
78

>  <ligand_id>  (70) 
78

>  <original_smiles>  (70) 
[H]c1c([H])c([H])c2c(c1[H])C([H])([H])C([H])([H])C([H])([H])C2([H])N([H])C(=O)C1([H])N(C(=O)C([H])(N([H])C(=O)C([H])(N([H])C([H])([H])[H])C([H])([H])[H])C(C([H])([H])[H])(C([H])([H])[H])C([H])([H])[H])C([H])([H])c2c([H])c(OC([H])([H])C([H])([H])C([H])([H])C(=O)N([H])C([H])([H])C([H])([H])C([H])([H])C([H])([H])N([H])C(N([H])[H])=[N+]([H])C([H])([H])C([H])([H])C([H])([H])C([H])([H])C([H])([H])C([H])([H])N([H])C(=O)N3C([H])([H])C([H])([H])C([H])([H])C([H])(n4nc(-c5c([H])c([H])c(Oc6c([H])c([H])c(F)c([H])c6F)c([H])c5[H])c(C(=O)N([H])[H])c4N([H])[H])C3([H])[H])c([H])c([H])c2C1([H])[H]

>  <smiles>  (70) 
[H]c1c([H])c([H])c2c(c1[H])C([H])([H])C([H])([H])C([H])([H])C2([H])N([H])C(=O)C1([H])N(C(=O)C([H])(N([H])C(=O)C([H])(N([H])C([H])([H])[H])C([H])([H])[H])C(C([H])([H])[H])(C([H])([H])[H])C([H])([H])[H])C([H])([H])c2c([H])c(OC([H])([H])C([H])([H])C([H])([H])C(=O)N([H])C([H])([H])C([H])([H])C([H])([H])C([H])([H])N([H])C(N([H])[H])=[N+]([H])C([H])([H])C([H])([H])C([H])([H])C([H])([H])C([H])([H])C([H])([H])N([H])C(=O)N3C([H])([H])C([H])([H])C([H])([H])C([H])(n4nc(-c5c([H])c([H])c(Oc6c([H])c([H])c(F)c([H])c6F)c([H])c5[H])c(C(=O)N([H])[H])c4N([H])[H])C3([H])[H])c([H])c([H])c2C1([H])[H]

$$$$
79:0:0
     RDKit          3D

100107  0  0  1  0  0  0  0  0999 V2000
  -29.4450  -19.8390   18.9910 C   0  0  0  0  0  2  0  0  0  0  0  0
  -28.4320  -20.9640   18.7160 C   0  0  0  0  0  2  0  0  0  0  0  0
  -27.5980  -21.3300   19.9550 C   0  0  0  0  0  2  0  0  0  0  0  0
  -26.6390  -22.5140   19.7330 C   0  0  0  0  0  2  0  0  0  0  0  0
  -28.1730  -24.4690   20.0110 C   0  0  0  0  0  0  0  0  0  0  0  0
  -27.3250  -23.7240   19.2880 N   0  0  0  0  0  0  0  0  0  0  0  0
  -28.4970  -24.1870   21.1670 O   0  0  0  0  0  0  0  0  0  0  0  0
  -27.1240  -24.0350   18.3470 H   0  0  0  0  0  0  0  0  0  0  0  0
  -28.7320  -25.7280   19.3340 C   0  0  0  0  0  2  0  0  0  0  0  0
  -28.5330  -26.8750   20.1610 O   0  0  0  0  0  0  0  0  0  0  0  0
  -24.6310  -31.9270   23.2510 C   0  0  0  0  0  0  0  0  0  0  0  0
  -27.3140  -27.5240   20.1560 C   0  0  0  0  0  0  0  0  0  0  0  0
  -23.4300  -30.5150   21.6110 C   0  0  0  0  0  3  0  0  0  0  0  0
  -24.8930  -28.9900   20.1840 C   0  0  0  0  0  0  0  0  0  0  0  0
  -25.9490  -30.8920   21.4110 C   0  0  0  0  0  2  0  0  0  0  0  0
  -26.0420  -29.5200   20.7820 C   0  0  0  0  0  0  0  0  0  0  0  0
  -27.2470  -28.7880   20.7790 C   0  0  0  0  0  3  0  0  0  0  0  0
  -26.1450  -27.0050   19.5520 C   0  0  0  0  0  3  0  0  0  0  0  0
  -24.9380  -27.7270   19.5710 C   0  0  0  0  0  3  0  0  0  0  0  0
  -23.6440  -29.8430   20.2270 C   0  0  0  0  0  2  0  0  0  0  0  0
  -24.6880  -31.1260   22.1500 N   0  0  0  0  0  0  0  0  0  0  0  0
  -23.5480  -32.1940   23.7900 O   0  0  0  0  0  0  0  0  0  0  0  0
  -22.7920  -29.4850   22.5690 C   0  0  0  0  0  0  0  0  0  0  0  0
  -21.4710  -29.2900   22.4380 N   0  0  0  0  0  0  0  0  0  0  0  0
  -23.4800  -28.8680   23.3860 O   0  0  0  0  0  0  0  0  0  0  0  0
  -20.9790  -29.8450   21.7510 H   0  0  0  0  0  0  0  0  0  0  0  0
  -18.1070  -28.0580   22.9010 C   0  0  0  0  0  0  0  0  0  0  0  0
  -20.6560  -28.3510   23.2080 C   0  0  0  0  0  3  0  0  0  0  0  0
  -20.7870  -26.9160   22.6480 C   0  0  0  0  0  2  0  0  0  0  0  0
  -19.7020  -26.5680   21.6240 C   0  0  0  0  0  2  0  0  0  0  0  0
  -18.3100  -26.7020   22.2470 C   0  0  0  0  0  2  0  0  0  0  0  0
  -19.2090  -28.8380   23.3380 C   0  0  0  0  0  0  0  0  0  0  0  0
  -18.9680  -30.1060   23.9100 C   0  0  0  0  0  3  0  0  0  0  0  0
  -17.6540  -30.5920   24.0540 C   0  0  0  0  0  3  0  0  0  0  0  0
  -16.5660  -29.8090   23.6330 C   0  0  0  0  0  3  0  0  0  0  0  0
  -16.7920  -28.5460   23.0590 C   0  0  0  0  0  3  0  0  0  0  0  0
  -25.9140  -32.5650   23.8690 C   0  0  0  0  0  3  0  0  0  0  0  0
  -25.5990  -33.9600   24.2000 N   0  0  0  0  0  0  0  0  0  0  0  0
  -25.9200  -35.0140   23.4370 C   0  0  0  0  0  0  0  0  0  0  0  0
  -26.5890  -34.9150   22.4050 O   0  0  0  0  0  0  0  0  0  0  0  0
  -25.0090  -34.1140   25.0040 H   0  0  0  0  0  0  0  0  0  0  0  0
  -24.1730  -36.7890   23.0910 C   0  0  0  0  0  1  0  0  0  0  0  0
  -25.4220  -36.3970   23.8960 C   0  0  0  0  0  3  0  0  0  0  0  0
  -27.5550  -37.2980   24.7100 C   0  0  0  0  0  1  0  0  0  0  0  0
  -26.4440  -37.4610   23.7780 N   0  0  0  0  0  0  0  0  0  0  0  0
  -26.0300  -38.3770   23.9330 H   0  0  0  0  0  0  0  0  0  0  0  0
  -26.4430  -31.7930   25.1380 C   0  0  1  0  0  0  0  0  0  0  0  0
  -25.3580  -31.5440   26.2130 C   0  0  0  0  0  1  0  0  0  0  0  0
  -27.0310  -30.4210   24.7330 C   0  0  0  0  0  1  0  0  0  0  0  0
  -27.5900  -32.5940   25.7980 C   0  0  0  0  0  1  0  0  0  0  0  0
  -30.8940  -20.1930   18.6070 C   0  0  0  0  0  2  0  0  0  0  0  0
  -31.5760  -21.2550   19.4970 C   0  0  0  0  0  2  0  0  0  0  0  0
  -32.1990  -20.6720   20.7080 N   0  0  0  0  0  4  0  0  0  0  0  0
  -33.1080  -21.0950   20.8140 H   0  0  0  0  0  0  0  0  0  0  0  0
  -32.3530  -19.6850   20.5730 H   0  0  0  0  0  0  0  0  0  0  0  0
  -31.4780  -20.8820   21.9840 C   0  0  0  0  0  2  0  0  0  0  0  0
  -31.4320  -19.6000   22.8400 C   0  0  0  0  0  2  0  0  0  0  0  0
  -31.1330  -17.5750   21.4020 C   0  0  0  0  0  0  0  0  0  0  0  0
  -30.6580  -18.5520   22.1810 N   0  0  0  0  0  0  0  0  0  0  0  0
  -32.3370  -17.4080   21.2140 O   0  0  0  0  0  0  0  0  0  0  0  0
  -29.6540  -18.5930   22.3050 H   0  0  0  0  0  0  0  0  0  0  0  0
  -30.0900  -16.7610   20.6400 C   0  0  0  0  0  2  0  0  0  0  0  0
  -30.7540  -14.4140   20.2440 C   0  0  0  0  0  0  0  0  0  0  0  0
  -30.3720  -12.3310   18.9910 C   0  0  0  0  0  2  0  0  0  0  0  0
  -29.3780  -12.6130   17.8430 C   0  0  0  0  0  2  0  0  0  0  0  0
  -27.9170  -12.5080   18.3250 C   0  0  0  0  0  2  0  0  0  0  0  0
  -27.6620  -13.2940   19.6380 C   0  0  0  0  0  3  0  0  0  0  0  0
  -28.7480  -12.9570   20.6870 C   0  0  0  0  0  2  0  0  0  0  0  0
  -30.0710  -13.2500   20.0970 N   0  0  0  0  0  0  0  0  0  0  0  0
  -31.8020  -14.6740   19.6430 O   0  0  0  0  0  0  0  0  0  0  0  0
  -30.0940  -15.3370   20.9490 N   0  0  0  0  0  0  0  0  0  0  0  0
  -29.3040  -14.9980   21.4770 H   0  0  0  0  0  0  0  0  0  0  0  0
  -25.2920  -13.9420   20.4210 C   0  0  0  0  0  0  0  0  0  0  0  0
  -24.2240  -13.1850   20.8240 C   0  0  0  0  0  0  0  0  0  0  0  0
  -24.6630  -11.8270   20.7710 C   0  0  0  0  0  0  0  0  0  0  0  0
  -26.3170  -13.0460   20.1550 N   0  0  0  0  0  0  0  0  0  0  0  0
  -25.9410  -11.7690   20.4190 N   0  0  0  0  0  0  0  0  0  0  0  0
  -23.9230  -10.5750   20.9790 C   0  0  0  0  0  0  0  0  0  0  0  0
  -24.3760   -9.5950   21.8910 C   0  0  0  0  0  3  0  0  0  0  0  0
  -23.6400   -8.4060   22.0860 C   0  0  0  0  0  3  0  0  0  0  0  0
  -22.4380   -8.1900   21.3710 C   0  0  0  0  0  0  0  0  0  0  0  0
  -22.0050   -9.1570   20.4480 C   0  0  0  0  0  3  0  0  0  0  0  0
  -22.7410  -10.3370   20.2500 C   0  0  0  0  0  3  0  0  0  0  0  0
  -21.6690   -7.0560   21.4800 O   0  0  0  0  0  0  0  0  0  0  0  0
  -21.6540   -6.3060   22.6290 C   0  0  0  0  0  0  0  0  0  0  0  0
  -21.3010   -6.8610   23.8790 C   0  0  0  0  0  3  0  0  0  0  0  0
  -21.2290   -6.0380   25.0200 C   0  0  0  0  0  3  0  0  0  0  0  0
  -21.4980   -4.6600   24.9140 C   0  0  0  0  0  0  0  0  0  0  0  0
  -21.8420   -4.1050   23.6690 C   0  0  0  0  0  3  0  0  0  0  0  0
  -21.9170   -4.9250   22.5300 C   0  0  0  0  0  0  0  0  0  0  0  0
  -22.2280   -4.3800   21.3300 F   0  0  0  0  0  0  0  0  0  0  0  0
  -21.4210   -3.8670   26.0080 F   0  0  0  0  0  0  0  0  0  0  0  0
  -22.8430  -13.6800   21.1460 C   0  0  0  0  0  0  0  0  0  0  0  0
  -22.1360  -12.9930   22.0370 N   0  0  0  0  0  0  0  0  0  0  0  0
  -22.4000  -14.7120   20.6440 O   0  0  0  0  0  0  0  0  0  0  0  0
  -22.5040  -12.1590   22.4680 H   0  0  0  0  0  0  0  0  0  0  0  0
  -21.2090  -13.3060   22.2920 H   0  0  0  0  0  0  0  0  0  0  0  0
  -25.4720  -15.3100   20.2430 N   0  0  0  0  0  0  0  0  0  0  0  0
  -24.7190  -15.9750   20.3750 H   0  0  0  0  0  0  0  0  0  0  0  0
  -26.3140  -15.7350   19.8780 H   0  0  0  0  0  0  0  0  0  0  0  0
  2  1  1  0
  2  3  1  0
  4  3  1  0
  5  7  2  0
  6  4  1  0
  6  5  1  0
  8  6  1  0
  9  5  1  0
  9 10  1  0
 11 22  2  0
 12 10  1  0
 12 17  1  0
 13 21  1  0
 13 23  1  0
 14 20  1  0
 14 16  1  0
 15 21  1  0
 16 15  1  0
 17 16  2  0
 18 19  1  0
 18 12  2  0
 19 14  2  0
 20 13  1  0
 21 11  1  0
 23 25  2  0
 24 23  1  0
 26 24  1  0
 27 36  2  0
 27 32  1  0
 28 24  1  0
 28 32  1  0
 29 28  1  0
 30 31  1  0
 30 29  1  0
 31 27  1  0
 32 33  2  0
 33 34  1  0
 35 34  2  0
 36 35  1  0
 37 11  1  0
 37 38  1  0
 37 47  1  0
 38 41  1  0
 39 43  1  0
 39 38  1  0
 40 39  2  0
 43 42  1  0
 45 43  1  0
 45 46  1  0
 45 44  1  0
 47 50  1  1
 47 48  1  0
 49 47  1  0
 51  1  1  0
 51 52  1  0
 52 53  1  0
 53 54  1  0
 53 56  1  0
 55 53  1  0
 56 57  1  0
 58 59  1  0
 59 61  1  0
 59 57  1  0
 60 58  2  0
 62 71  1  0
 62 58  1  0
 63 71  1  0
 64 69  1  0
 65 66  1  0
 65 64  1  0
 67 66  1  0
 67 76  1  0
 67 68  1  0
 69 63  1  0
 69 68  1  0
 70 63  2  0
 71 72  1  0
 73 74  2  0
 74 93  1  0
 75 74  1  0
 75 78  1  0
 76 77  1  0
 76 73  1  0
 77 75  2  0
 78 79  1  0
 79 80  2  0
 81 84  1  0
 81 80  1  0
 82 81  2  0
 83 82  1  0
 83 78  2  0
 84 85  1  0
 85 86  1  0
 86 87  2  0
 88 87  1  0
 88 92  1  0
 89 88  2  0
 90 85  2  0
 90 89  1  0
 91 90  1  0
 93 94  1  0
 94 97  1  0
 94 96  1  0
 95 93  2  0
 98 99  1  0
 98 73  1  0
100 98  1  0
M  ISO  4   9 101  10 101  63 100  71 100
M  END
>  <TORSDO>  (71) 
F 28

>  <SCORE>  (71) 
-11.681

>  <name>  (71) 
79

>  <ligand_id>  (71) 
79

>  <original_smiles>  (71) 
[H]c1c([H])c([H])c2c(c1[H])C([H])([H])C([H])([H])C([H])([H])C2([H])N([H])C(=O)C1([H])N(C(=O)C([H])(N([H])C(=O)C([H])(N([H])C([H])([H])[H])C([H])([H])[H])C(C([H])([H])[H])(C([H])([H])[H])C([H])([H])[H])C([H])([H])c2c([H])c(OC([H])([H])C(=O)N([H])C([H])([H])C([H])([H])C([H])([H])C([H])([H])C([H])([H])C([H])([H])[N+]([H])([H])C([H])([H])C([H])([H])N([H])C(=O)C([H])([H])N([H])C(=O)N3C([H])([H])C([H])([H])C([H])([H])C([H])(n4nc(-c5c([H])c([H])c(Oc6c([H])c([H])c(F)c([H])c6F)c([H])c5[H])c(C(=O)N([H])[H])c4N([H])[H])C3([H])[H])c([H])c([H])c2C1([H])[H]

>  <smiles>  (71) 
[H]c1c([H])c([H])c2c(c1[H])C([H])([H])C([H])([H])C([H])([H])C2([H])N([H])C(=O)C1([H])N(C(=O)C([H])(N([H])C(=O)C([H])(N([H])C([H])([H])[H])C([H])([H])[H])C(C([H])([H])[H])(C([H])([H])[H])C([H])([H])[H])C([H])([H])c2c([H])c(OC([H])([H])C(=O)N([H])C([H])([H])C([H])([H])C([H])([H])C([H])([H])C([H])([H])C([H])([H])[N+]([H])([H])C([H])([H])C([H])([H])N([H])C(=O)C([H])([H])N([H])C(=O)N3C([H])([H])C([H])([H])C([H])([H])C([H])(n4nc(-c5c([H])c([H])c(Oc6c([H])c([H])c(F)c([H])c6F)c([H])c5[H])c(C(=O)N([H])[H])c4N([H])[H])C3([H])[H])c([H])c([H])c2C1([H])[H]

$$$$
80:0:0
     RDKit          3D

100107  0  0  1  0  0  0  0  0999 V2000
  -25.1890  -21.9380   18.7490 C   0  0  0  0  0  0  0  0  0  0  0  0
  -26.1600  -22.8460   18.8090 N   0  0  0  0  0  0  0  0  0  0  0  0
  -24.7050  -21.4070   19.7470 O   0  0  0  0  0  0  0  0  0  0  0  0
  -26.5310  -23.2190   17.9480 H   0  0  0  0  0  0  0  0  0  0  0  0
  -24.6800  -21.5490   17.3660 C   0  0  0  0  0  2  0  0  0  0  0  0
  -25.6200  -20.5810   16.6030 C   0  0  0  0  0  2  0  0  0  0  0  0
  -26.0660  -19.4210   17.4190 N   0  0  0  0  0  4  0  0  0  0  0  0
  -25.9900  -18.6100   16.8250 H   0  0  0  0  0  0  0  0  0  0  0  0
  -25.4160  -19.3000   18.1780 H   0  0  0  0  0  0  0  0  0  0  0  0
  -27.4710  -19.4740   17.8970 C   0  0  0  0  0  2  0  0  0  0  0  0
  -27.6910  -18.8410   19.2930 C   0  0  0  0  0  2  0  0  0  0  0  0
  -29.0220  -18.0560   19.4170 C   0  0  0  0  0  2  0  0  0  0  0  0
  -29.4510  -17.8160   20.8780 C   0  0  0  0  0  2  0  0  0  0  0  0
  -30.7690  -17.0580   21.0940 C   0  0  0  0  0  2  0  0  0  0  0  0
  -31.1980  -14.6660   20.5260 C   0  0  0  0  0  0  0  0  0  0  0  0
  -30.9190  -12.5010   19.3890 C   0  0  0  0  0  2  0  0  0  0  0  0
  -30.0140  -12.7100   18.1630 C   0  0  0  0  0  2  0  0  0  0  0  0
  -28.5340  -12.5730   18.5530 C   0  0  0  0  0  2  0  0  0  0  0  0
  -28.1560  -13.4130   19.8040 C   0  0  0  0  0  3  0  0  0  0  0  0
  -29.1890  -13.2070   20.9370 C   0  0  0  0  0  2  0  0  0  0  0  0
  -30.5370  -13.4910   20.4000 N   0  0  0  0  0  0  0  0  0  0  0  0
  -32.3120  -14.8980   20.0300 O   0  0  0  0  0  0  0  0  0  0  0  0
  -30.4900  -15.6310   21.1050 N   0  0  0  0  0  0  0  0  0  0  0  0
  -29.6060  -15.3350   21.4940 H   0  0  0  0  0  0  0  0  0  0  0  0
  -25.7360  -14.0180   20.4430 C   0  0  0  0  0  0  0  0  0  0  0  0
  -24.6590  -13.2350   20.8020 C   0  0  0  0  0  0  0  0  0  0  0  0
  -25.1340  -11.8940   20.7910 C   0  0  0  0  0  0  0  0  0  0  0  0
  -26.7870  -13.1310   20.2520 N   0  0  0  0  0  0  0  0  0  0  0  0
  -26.4310  -11.8480   20.5180 N   0  0  0  0  0  0  0  0  0  0  0  0
  -24.4110  -10.6240   20.9760 C   0  0  0  0  0  0  0  0  0  0  0  0
  -24.7640   -9.7180   21.9990 C   0  0  0  0  0  3  0  0  0  0  0  0
  -24.0400   -8.5170   22.1700 C   0  0  0  0  0  3  0  0  0  0  0  0
  -22.9530   -8.2180   21.3160 C   0  0  0  0  0  0  0  0  0  0  0  0
  -22.6220   -9.1120   20.2870 C   0  0  0  0  0  3  0  0  0  0  0  0
  -23.3460  -10.3050   20.1140 C   0  0  0  0  0  3  0  0  0  0  0  0
  -22.2150   -7.0610   21.3870 O   0  0  0  0  0  0  0  0  0  0  0  0
  -21.9360   -6.4640   22.5880 C   0  0  0  0  0  0  0  0  0  0  0  0
  -21.2010   -7.1250   23.5970 C   0  0  0  0  0  3  0  0  0  0  0  0
  -20.8730   -6.4470   24.7870 C   0  0  0  0  0  3  0  0  0  0  0  0
  -21.2620   -5.1060   24.9670 C   0  0  0  0  0  0  0  0  0  0  0  0
  -21.9900   -4.4460   23.9600 C   0  0  0  0  0  3  0  0  0  0  0  0
  -22.3170   -5.1200   22.7730 C   0  0  0  0  0  0  0  0  0  0  0  0
  -22.9970   -4.4700   21.7980 F   0  0  0  0  0  0  0  0  0  0  0  0
  -20.9400   -4.4520   26.1090 F   0  0  0  0  0  0  0  0  0  0  0  0
  -23.2570  -13.7090   21.0280 C   0  0  0  0  0  0  0  0  0  0  0  0
  -22.5180  -13.0280   21.9050 N   0  0  0  0  0  0  0  0  0  0  0  0
  -22.8210  -14.7150   20.4820 O   0  0  0  0  0  0  0  0  0  0  0  0
  -22.8890  -12.2140   22.3710 H   0  0  0  0  0  0  0  0  0  0  0  0
  -21.5730  -13.3260   22.0980 H   0  0  0  0  0  0  0  0  0  0  0  0
  -25.8920  -15.3750   20.2660 N   0  0  0  0  0  0  0  0  0  0  0  0
  -25.1390  -16.0220   20.4530 H   0  0  0  0  0  0  0  0  0  0  0  0
  -26.7800  -15.8170   20.0790 H   0  0  0  0  0  0  0  0  0  0  0  0
  -26.8420  -23.2990   20.0220 C   0  0  0  0  0  2  0  0  0  0  0  0
  -28.4000  -23.0550   19.9020 C   0  0  0  0  0  0  0  0  0  0  0  0
  -29.2880  -23.6230   20.7410 N   0  0  0  0  0  0  0  0  0  0  0  0
  -28.8430  -22.3490   18.9990 O   0  0  0  0  0  0  0  0  0  0  0  0
  -30.2710  -23.3550   20.6670 H   0  0  0  0  0  0  0  0  0  0  0  0
  -28.9200  -24.1140   22.0850 C   0  0  0  0  0  2  0  0  0  0  0  0
  -29.4660  -25.5540   22.4230 C   0  0  0  0  0  2  0  0  0  0  0  0
  -29.3370  -26.3460   21.2700 O   0  0  0  0  0  0  0  0  0  0  0  0
  -25.1200  -31.4190   23.8780 C   0  0  0  0  0  0  0  0  0  0  0  0
  -28.1460  -27.0030   21.2000 C   0  0  0  0  0  0  0  0  0  0  0  0
  -24.1500  -30.0280   22.0850 C   0  0  0  0  0  3  0  0  0  0  0  0
  -25.7810  -28.4780   20.8820 C   0  0  0  0  0  0  0  0  0  0  0  0
  -26.6750  -30.3780   22.2420 C   0  0  0  0  0  2  0  0  0  0  0  0
  -26.8430  -29.0050   21.6250 C   0  0  0  0  0  0  0  0  0  0  0  0
  -28.0310  -28.2680   21.7880 C   0  0  0  0  0  3  0  0  0  0  0  0
  -27.0640  -26.4660   20.4580 C   0  0  0  0  0  3  0  0  0  0  0  0
  -25.8750  -27.1960   20.2890 C   0  0  0  0  0  3  0  0  0  0  0  0
  -24.5690  -29.3650   20.7400 C   0  0  0  0  0  2  0  0  0  0  0  0
  -25.3270  -30.6200   22.8000 N   0  0  0  0  0  0  0  0  0  0  0  0
  -23.9790  -31.6940   24.2630 O   0  0  0  0  0  0  0  0  0  0  0  0
  -23.3640  -28.9940   22.9310 C   0  0  0  0  0  0  0  0  0  0  0  0
  -22.0870  -28.7760   22.5850 N   0  0  0  0  0  0  0  0  0  0  0  0
  -23.9120  -28.3930   23.8590 O   0  0  0  0  0  0  0  0  0  0  0  0
  -21.6940  -29.3370   21.8440 H   0  0  0  0  0  0  0  0  0  0  0  0
  -18.6660  -27.5930   22.5920 C   0  0  0  0  0  0  0  0  0  0  0  0
  -21.1660  -27.8240   23.2140 C   0  0  0  0  0  3  0  0  0  0  0  0
  -21.3410  -26.3940   22.6400 C   0  0  0  0  0  2  0  0  0  0  0  0
  -20.3730  -26.0510   21.5030 C   0  0  0  0  0  2  0  0  0  0  0  0
  -18.9290  -26.2290   21.9700 C   0  0  0  0  0  2  0  0  0  0  0  0
  -19.7200  -28.3400   23.1820 C   0  0  0  0  0  0  0  0  0  0  0  0
  -19.4350  -29.6040   23.7370 C   0  0  0  0  0  3  0  0  0  0  0  0
  -18.1180  -30.1170   23.7250 C   0  0  0  0  0  3  0  0  0  0  0  0
  -17.0800  -29.3680   23.1490 C   0  0  0  0  0  3  0  0  0  0  0  0
  -17.3560  -28.1050   22.5890 C   0  0  0  0  0  3  0  0  0  0  0  0
  -26.3160  -32.0280   24.6740 C   0  0  0  0  0  3  0  0  0  0  0  0
  -26.0210  -33.4450   24.9250 N   0  0  0  0  0  0  0  0  0  0  0  0
  -26.4680  -34.4600   24.1730 C   0  0  0  0  0  0  0  0  0  0  0  0
  -27.2600  -34.3040   23.2370 O   0  0  0  0  0  0  0  0  0  0  0  0
  -25.3170  -33.6510   25.6190 H   0  0  0  0  0  0  0  0  0  0  0  0
  -24.8260  -36.2630   23.5440 C   0  0  0  0  0  1  0  0  0  0  0  0
  -25.9580  -35.8800   24.5110 C   0  0  0  0  0  3  0  0  0  0  0  0
  -27.9840  -36.7790   25.5440 C   0  0  0  0  0  1  0  0  0  0  0  0
  -27.0170  -36.9090   24.4580 N   0  0  0  0  0  0  0  0  0  0  0  0
  -26.6220  -37.8430   24.5110 H   0  0  0  0  0  0  0  0  0  0  0  0
  -26.6200  -31.2830   26.0280 C   0  0  1  0  0  0  0  0  0  0  0  0
  -25.3540  -30.9950   26.8700 C   0  0  0  0  0  1  0  0  0  0  0  0
  -27.3380  -29.9400   25.7540 C   0  0  0  0  0  1  0  0  0  0  0  0
  -27.5990  -32.1220   26.8860 C   0  0  0  0  0  1  0  0  0  0  0  0
  1  2  1  0
  1  3  2  0
  2 53  1  0
  4  2  1  0
  5  1  1  0
  6  5  1  0
  6  7  1  0
  7 10  1  0
  7  9  1  0
  8  7  1  0
 10 11  1  0
 11 12  1  0
 12 13  1  0
 13 14  1  0
 14 23  1  0
 15 23  1  0
 16 21  1  0
 17 18  1  0
 17 16  1  0
 19 18  1  0
 19 28  1  0
 19 20  1  0
 21 15  1  0
 21 20  1  0
 22 15  2  0
 23 24  1  0
 25 26  2  0
 26 45  1  0
 27 26  1  0
 27 30  1  0
 28 25  1  0
 28 29  1  0
 29 27  2  0
 30 31  1  0
 31 32  2  0
 33 36  1  0
 33 32  1  0
 34 33  2  0
 35 34  1  0
 35 30  2  0
 36 37  1  0
 37 42  2  0
 37 38  1  0
 38 39  2  0
 39 40  1  0
 40 44  1  0
 41 40  2  0
 42 41  1  0
 43 42  1  0
 45 46  1  0
 46 49  1  0
 46 48  1  0
 47 45  2  0
 50 25  1  0
 50 51  1  0
 52 50  1  0
 54 53  1  0
 54 55  1  0
 55 58  1  0
 56 54  2  0
 57 55  1  0
 58 59  1  0
 60 59  1  0
 61 72  2  0
 62 60  1  0
 62 67  1  0
 63 71  1  0
 63 73  1  0
 64 66  1  0
 65 71  1  0
 66 67  2  0
 66 65  1  0
 68 62  2  0
 69 68  1  0
 69 64  2  0
 70 64  1  0
 70 63  1  0
 71 61  1  0
 73 75  2  0
 74 73  1  0
 76 74  1  0
 77 82  1  0
 78 74  1  0
 79 78  1  0
 80 81  1  0
 80 79  1  0
 81 77  1  0
 82 78  1  0
 82 83  2  0
 84 83  1  0
 85 84  2  0
 86 77  2  0
 86 85  1  0
 87 61  1  0
 87 88  1  0
 87 97  1  0
 88 91  1  0
 89 93  1  0
 89 88  1  0
 90 89  2  0
 93 92  1  0
 95 96  1  0
 95 93  1  0
 95 94  1  0
 97 98  1  1
 97100  1  0
 99 97  1  0
M  ISO  4  15 100  23 100  59 101  60 101
M  END
>  <TORSDO>  (72) 
F 28

>  <SCORE>  (72) 
-8.166

>  <name>  (72) 
80

>  <ligand_id>  (72) 
80

>  <original_smiles>  (72) 
[H]c1c([H])c([H])c2c(c1[H])C([H])([H])C([H])([H])C([H])([H])C2([H])N([H])C(=O)C1([H])N(C(=O)C([H])(N([H])C(=O)C([H])(N([H])C([H])([H])[H])C([H])([H])[H])C(C([H])([H])[H])(C([H])([H])[H])C([H])([H])[H])C([H])([H])c2c([H])c(OC([H])([H])C([H])([H])N([H])C(=O)C([H])([H])N([H])C(=O)C([H])([H])C([H])([H])[N+]([H])([H])C([H])([H])C([H])([H])C([H])([H])C([H])([H])C([H])([H])N([H])C(=O)N3C([H])([H])C([H])([H])C([H])([H])C([H])(n4nc(-c5c([H])c([H])c(Oc6c([H])c([H])c(F)c([H])c6F)c([H])c5[H])c(C(=O)N([H])[H])c4N([H])[H])C3([H])[H])c([H])c([H])c2C1([H])[H]

>  <smiles>  (72) 
[H]c1c([H])c([H])c2c(c1[H])C([H])([H])C([H])([H])C([H])([H])C2([H])N([H])C(=O)C1([H])N(C(=O)C([H])(N([H])C(=O)C([H])(N([H])C([H])([H])[H])C([H])([H])[H])C(C([H])([H])[H])(C([H])([H])[H])C([H])([H])[H])C([H])([H])c2c([H])c(OC([H])([H])C([H])([H])N([H])C(=O)C([H])([H])N([H])C(=O)C([H])([H])C([H])([H])[N+]([H])([H])C([H])([H])C([H])([H])C([H])([H])C([H])([H])C([H])([H])N([H])C(=O)N3C([H])([H])C([H])([H])C([H])([H])C([H])(n4nc(-c5c([H])c([H])c(Oc6c([H])c([H])c(F)c([H])c6F)c([H])c5[H])c(C(=O)N([H])[H])c4N([H])[H])C3([H])[H])c([H])c([H])c2C1([H])[H]

$$$$
81:0:0
     RDKit          3D

 91 98  0  0  1  0  0  0  0  0999 V2000
  -29.3540  -21.5570   21.9640 O   0  0  0  0  0  0  0  0  0  0  0  0
  -28.3010  -22.4280   21.5720 C   0  0  0  0  0  2  0  0  0  0  0  0
  -28.8520  -23.8530   21.4430 C   0  0  0  0  0  2  0  0  0  0  0  0
  -27.9050  -24.7920   20.6790 C   0  0  0  0  0  2  0  0  0  0  0  0
  -28.4710  -26.2140   20.5160 C   0  0  0  0  0  2  0  0  0  0  0  0
  -27.9170  -26.8710   19.3810 O   0  0  0  0  0  0  0  0  0  0  0  0
  -24.5530  -31.9130   23.1330 C   0  0  0  0  0  0  0  0  0  0  0  0
  -26.7740  -27.5920   19.6110 C   0  0  0  0  0  0  0  0  0  0  0  0
  -23.1550  -30.6140   21.5560 C   0  0  0  0  0  3  0  0  0  0  0  0
  -24.4240  -29.1110   19.9340 C   0  0  0  0  0  0  0  0  0  0  0  0
  -25.6520  -30.9360   21.1250 C   0  0  0  0  0  2  0  0  0  0  0  0
  -25.6430  -29.5930   20.4290 C   0  0  0  0  0  0  0  0  0  0  0  0
  -26.8240  -28.8360   20.2730 C   0  0  0  0  0  3  0  0  0  0  0  0
  -25.5450  -27.1170   19.1130 C   0  0  0  0  0  3  0  0  0  0  0  0
  -24.3670  -27.8680   19.2780 C   0  0  0  0  0  3  0  0  0  0  0  0
  -23.2100  -29.9900   20.1360 C   0  0  0  0  0  2  0  0  0  0  0  0
  -24.4770  -31.1660   21.9960 N   0  0  0  0  0  0  0  0  0  0  0  0
  -23.5370  -32.1820   23.7890 O   0  0  0  0  0  0  0  0  0  0  0  0
  -22.5770  -29.5630   22.5310 C   0  0  0  0  0  0  0  0  0  0  0  0
  -21.2560  -29.3390   22.4540 N   0  0  0  0  0  0  0  0  0  0  0  0
  -23.3130  -28.9500   23.3100 O   0  0  0  0  0  0  0  0  0  0  0  0
  -20.7210  -29.8870   21.7940 H   0  0  0  0  0  0  0  0  0  0  0  0
  -17.9640  -27.9430   22.9700 C   0  0  0  0  0  0  0  0  0  0  0  0
  -20.4980  -28.3690   23.2430 C   0  0  0  0  0  3  0  0  0  0  0  0
  -20.6940  -26.9350   22.7000 C   0  0  0  0  0  2  0  0  0  0  0  0
  -19.6190  -26.5190   21.6910 C   0  0  0  0  0  2  0  0  0  0  0  0
  -18.2280  -26.5920   22.3290 C   0  0  0  0  0  2  0  0  0  0  0  0
  -19.0310  -28.7840   23.3860 C   0  0  0  0  0  0  0  0  0  0  0  0
  -18.7300  -30.0460   23.9440 C   0  0  0  0  0  3  0  0  0  0  0  0
  -17.3960  -30.4670   24.0950 C   0  0  0  0  0  3  0  0  0  0  0  0
  -16.3440  -29.6240   23.6960 C   0  0  0  0  0  3  0  0  0  0  0  0
  -16.6290  -28.3640   23.1410 C   0  0  0  0  0  3  0  0  0  0  0  0
  -25.9100  -32.4840   23.6480 C   0  0  0  0  0  3  0  0  0  0  0  0
  -25.6720  -33.8680   24.0780 N   0  0  0  0  0  0  0  0  0  0  0  0
  -26.0160  -34.9520   23.3690 C   0  0  0  0  0  0  0  0  0  0  0  0
  -26.6380  -34.8890   22.3050 O   0  0  0  0  0  0  0  0  0  0  0  0
  -25.1170  -33.9940   24.9110 H   0  0  0  0  0  0  0  0  0  0  0  0
  -24.3630  -36.8370   23.1770 C   0  0  0  0  0  1  0  0  0  0  0  0
  -25.6010  -36.3260   23.9290 C   0  0  0  0  0  3  0  0  0  0  0  0
  -27.7950  -37.0530   24.7590 C   0  0  0  0  0  1  0  0  0  0  0  0
  -26.6780  -37.3380   23.8620 N   0  0  0  0  0  0  0  0  0  0  0  0
  -26.3190  -38.2620   24.0860 H   0  0  0  0  0  0  0  0  0  0  0  0
  -26.5380  -31.6350   24.8210 C   0  0  1  0  0  0  0  0  0  0  0  0
  -25.5530  -31.3500   25.9780 C   0  0  0  0  0  1  0  0  0  0  0  0
  -27.0540  -30.2750   24.2930 C   0  0  0  0  0  1  0  0  0  0  0  0
  -27.7640  -32.3750   25.4060 C   0  0  0  0  0  1  0  0  0  0  0  0
  -28.8890  -20.2750   22.3660 C   0  0  0  0  0  2  0  0  0  0  0  0
  -30.0860  -19.3670   22.6870 C   0  0  0  0  0  2  0  0  0  0  0  0
  -31.6030  -17.8540   21.4390 C   0  0  0  0  0  0  0  0  0  0  0  0
  -30.4850  -18.5790   21.5240 N   0  0  0  0  0  0  0  0  0  0  0  0
  -32.4810  -17.8750   22.3050 O   0  0  0  0  0  0  0  0  0  0  0  0
  -29.8260  -18.5250   20.7590 H   0  0  0  0  0  0  0  0  0  0  0  0
  -31.7480  -16.9510   20.2120 C   0  0  0  0  0  2  0  0  0  0  0  0
  -32.8680  -14.8710   19.6200 C   0  0  0  0  0  0  0  0  0  0  0  0
  -32.1980  -12.7030   18.6400 C   0  0  0  0  0  2  0  0  0  0  0  0
  -31.2190  -12.8880   17.4660 C   0  0  0  0  0  2  0  0  0  0  0  0
  -29.7670  -12.9870   17.9700 C   0  0  0  0  0  2  0  0  0  0  0  0
  -29.6110  -14.0090   19.1260 C   0  0  0  0  0  3  0  0  0  0  0  0
  -30.6780  -13.7610   20.2150 C   0  0  0  0  0  2  0  0  0  0  0  0
  -32.0070  -13.8200   19.5780 N   0  0  0  0  0  0  0  0  0  0  0  0
  -33.8980  -14.9360   18.9460 O   0  0  0  0  0  0  0  0  0  0  0  0
  -32.5930  -15.8030   20.5330 N   0  0  0  0  0  0  0  0  0  0  0  0
  -33.4170  -16.1470   21.0090 H   0  0  0  0  0  0  0  0  0  0  0  0
  -27.4200  -15.0430   20.0030 C   0  0  0  0  0  0  0  0  0  0  0  0
  -26.2460  -14.4760   20.4190 C   0  0  0  0  0  0  0  0  0  0  0  0
  -26.4320  -13.0630   20.3170 C   0  0  0  0  0  0  0  0  0  0  0  0
  -28.2590  -13.9860   19.6800 N   0  0  0  0  0  0  0  0  0  0  0  0
  -27.6680  -12.7880   19.9230 N   0  0  0  0  0  0  0  0  0  0  0  0
  -25.4870  -11.9560   20.5140 C   0  0  0  0  0  0  0  0  0  0  0  0
  -25.7440  -10.9230   21.4430 C   0  0  0  0  0  3  0  0  0  0  0  0
  -24.8120   -9.8790   21.6270 C   0  0  0  0  0  3  0  0  0  0  0  0
  -23.6070   -9.8640   20.8850 C   0  0  0  0  0  0  0  0  0  0  0  0
  -23.3670  -10.8820   19.9460 C   0  0  0  0  0  3  0  0  0  0  0  0
  -24.2990  -11.9170   19.7590 C   0  0  0  0  0  3  0  0  0  0  0  0
  -22.6560   -8.8780   20.9790 O   0  0  0  0  0  0  0  0  0  0  0  0
  -22.4130   -8.2240   22.1600 C   0  0  0  0  0  0  0  0  0  0  0  0
  -22.0430   -8.9160   23.3340 C   0  0  0  0  0  3  0  0  0  0  0  0
  -21.7350   -8.1990   24.5080 C   0  0  0  0  0  3  0  0  0  0  0  0
  -21.7860   -6.7930   24.5080 C   0  0  0  0  0  0  0  0  0  0  0  0
  -22.1490   -6.1010   23.3380 C   0  0  0  0  0  3  0  0  0  0  0  0
  -22.4580   -6.8140   22.1670 C   0  0  0  0  0  0  0  0  0  0  0  0
  -22.7860   -6.1420   21.0380 F   0  0  0  0  0  0  0  0  0  0  0  0
  -21.4830   -6.1030   25.6320 F   0  0  0  0  0  0  0  0  0  0  0  0
  -24.9860  -15.2000   20.7970 C   0  0  0  0  0  0  0  0  0  0  0  0
  -24.2020  -14.6330   21.7090 N   0  0  0  0  0  0  0  0  0  0  0  0
  -24.7130  -16.3000   20.3200 O   0  0  0  0  0  0  0  0  0  0  0  0
  -24.4360  -13.7390   22.1150 H   0  0  0  0  0  0  0  0  0  0  0  0
  -23.3570  -15.0990   22.0050 H   0  0  0  0  0  0  0  0  0  0  0  0
  -27.8370  -16.3620   19.8510 N   0  0  0  0  0  0  0  0  0  0  0  0
  -27.2080  -17.1430   20.0060 H   0  0  0  0  0  0  0  0  0  0  0  0
  -28.7120  -16.6370   19.4250 H   0  0  0  0  0  0  0  0  0  0  0  0
  1 47  1  0
  2  1  1  0
  3  2  1  0
  4  3  1  0
  5  4  1  0
  6  8  1  0
  6  5  1  0
  7 18  2  0
  8 13  1  0
  9 17  1  0
  9 19  1  0
 10 16  1  0
 10 12  1  0
 11 17  1  0
 12 11  1  0
 13 12  2  0
 14 15  1  0
 14  8  2  0
 15 10  2  0
 16  9  1  0
 17  7  1  0
 19 21  2  0
 20 19  1  0
 22 20  1  0
 23 32  2  0
 23 28  1  0
 24 20  1  0
 24 28  1  0
 25 24  1  0
 26 27  1  0
 26 25  1  0
 27 23  1  0
 28 29  2  0
 29 30  1  0
 31 30  2  0
 32 31  1  0
 33  7  1  0
 33 34  1  0
 33 43  1  0
 34 37  1  0
 35 39  1  0
 35 34  1  0
 36 35  2  0
 39 38  1  0
 41 39  1  0
 41 42  1  0
 41 40  1  0
 43 46  1  1
 43 44  1  0
 45 43  1  0
 47 48  1  0
 49 50  1  0
 49 51  2  0
 50 48  1  0
 52 50  1  0
 53 62  1  0
 53 49  1  0
 54 62  1  0
 55 60  1  0
 56 57  1  0
 56 55  1  0
 58 57  1  0
 58 67  1  0
 58 59  1  0
 60 54  1  0
 60 59  1  0
 61 54  2  0
 62 63  1  0
 64 65  2  0
 65 84  1  0
 66 65  1  0
 66 69  1  0
 67 68  1  0
 67 64  1  0
 68 66  2  0
 69 70  1  0
 70 71  2  0
 72 75  1  0
 72 71  1  0
 73 72  2  0
 74 73  1  0
 74 69  2  0
 75 76  1  0
 76 81  2  0
 76 77  1  0
 77 78  2  0
 78 79  1  0
 79 83  1  0
 80 79  2  0
 81 80  1  0
 82 81  1  0
 84 85  1  0
 85 88  1  0
 85 87  1  0
 86 84  2  0
 89 64  1  0
 89 90  1  0
 91 89  1  0
M  ISO  4   5 101   6 101  54 100  62 100
M  END
>  <TORSDO>  (73) 
F 24

>  <SCORE>  (73) 
-6.164

>  <name>  (73) 
81

>  <ligand_id>  (73) 
81

>  <original_smiles>  (73) 
[H]c1c([H])c([H])c2c(c1[H])C([H])([H])C([H])([H])C([H])([H])C2([H])N([H])C(=O)C1([H])N(C(=O)C([H])(N([H])C(=O)C([H])(N([H])C([H])([H])[H])C([H])([H])[H])C(C([H])([H])[H])(C([H])([H])[H])C([H])([H])[H])C([H])([H])c2c([H])c(OC([H])([H])C([H])([H])C([H])([H])C([H])([H])OC([H])([H])C([H])([H])N([H])C(=O)C([H])([H])N([H])C(=O)N3C([H])([H])C([H])([H])C([H])([H])C([H])(n4nc(-c5c([H])c([H])c(Oc6c([H])c([H])c(F)c([H])c6F)c([H])c5[H])c(C(=O)N([H])[H])c4N([H])[H])C3([H])[H])c([H])c([H])c2C1([H])[H]

>  <smiles>  (73) 
[H]c1c([H])c([H])c2c(c1[H])C([H])([H])C([H])([H])C([H])([H])C2([H])N([H])C(=O)C1([H])N(C(=O)C([H])(N([H])C(=O)C([H])(N([H])C([H])([H])[H])C([H])([H])[H])C(C([H])([H])[H])(C([H])([H])[H])C([H])([H])[H])C([H])([H])c2c([H])c(OC([H])([H])C([H])([H])C([H])([H])C([H])([H])OC([H])([H])C([H])([H])N([H])C(=O)C([H])([H])N([H])C(=O)N3C([H])([H])C([H])([H])C([H])([H])C([H])(n4nc(-c5c([H])c([H])c(Oc6c([H])c([H])c(F)c([H])c6F)c([H])c5[H])c(C(=O)N([H])[H])c4N([H])[H])C3([H])[H])c([H])c([H])c2C1([H])[H]

$$$$
82:0:0
     RDKit          3D

 99106  0  0  1  0  0  0  0  0999 V2000
  -29.5040  -23.2480   18.1310 C   0  0  0  0  0  2  0  0  0  0  0  0
  -30.9130  -23.5750   17.5820 C   0  0  0  0  0  2  0  0  0  0  0  0
  -31.2440  -25.0800   17.5890 C   0  0  0  0  0  2  0  0  0  0  0  0
  -31.1750  -25.6620   18.9450 N   0  0  0  0  0  4  0  0  0  0  0  0
  -31.9900  -25.3930   19.4760 H   0  0  0  0  0  0  0  0  0  0  0  0
  -30.3630  -25.2700   19.3940 H   0  0  0  0  0  0  0  0  0  0  0  0
  -31.0140  -27.1330   18.9660 C   0  0  0  0  0  2  0  0  0  0  0  0
  -30.6410  -27.6760   20.3610 C   0  0  0  0  0  2  0  0  0  0  0  0
  -29.4930  -26.9100   21.0470 C   0  0  0  0  0  2  0  0  0  0  0  0
  -28.4270  -26.6560   20.1320 O   0  0  0  0  0  0  0  0  0  0  0  0
  -24.6180  -31.8550   23.2250 C   0  0  0  0  0  0  0  0  0  0  0  0
  -27.2950  -27.4380   20.1750 C   0  0  0  0  0  0  0  0  0  0  0  0
  -23.4130  -30.4420   21.5850 C   0  0  0  0  0  3  0  0  0  0  0  0
  -24.8770  -28.9050   20.1690 C   0  0  0  0  0  0  0  0  0  0  0  0
  -25.9310  -30.8180   21.3860 C   0  0  0  0  0  2  0  0  0  0  0  0
  -26.0240  -29.4460   20.7600 C   0  0  0  0  0  0  0  0  0  0  0  0
  -27.2350  -28.7220   20.7670 C   0  0  0  0  0  3  0  0  0  0  0  0
  -26.1330  -26.9120   19.5730 C   0  0  0  0  0  3  0  0  0  0  0  0
  -24.9230  -27.6310   19.5730 C   0  0  0  0  0  3  0  0  0  0  0  0
  -23.6250  -29.7550   20.2080 C   0  0  0  0  0  2  0  0  0  0  0  0
  -24.6710  -31.0510   22.1250 N   0  0  0  0  0  0  0  0  0  0  0  0
  -23.5380  -32.1310   23.7630 O   0  0  0  0  0  0  0  0  0  0  0  0
  -22.7630  -29.4240   22.5490 C   0  0  0  0  0  0  0  0  0  0  0  0
  -21.4370  -29.2500   22.4270 N   0  0  0  0  0  0  0  0  0  0  0  0
  -23.4460  -28.7970   23.3630 O   0  0  0  0  0  0  0  0  0  0  0  0
  -20.9490  -29.8110   21.7430 H   0  0  0  0  0  0  0  0  0  0  0  0
  -18.0590  -28.0900   22.9430 C   0  0  0  0  0  0  0  0  0  0  0  0
  -20.6190  -28.3180   23.2010 C   0  0  0  0  0  3  0  0  0  0  0  0
  -20.7030  -26.8890   22.6160 C   0  0  0  0  0  2  0  0  0  0  0  0
  -19.5920  -26.5840   21.6060 C   0  0  0  0  0  2  0  0  0  0  0  0
  -18.2170  -26.7420   22.2600 C   0  0  0  0  0  2  0  0  0  0  0  0
  -19.1870  -28.8370   23.3700 C   0  0  0  0  0  0  0  0  0  0  0  0
  -18.9890  -30.1010   23.9650 C   0  0  0  0  0  3  0  0  0  0  0  0
  -17.6920  -30.6210   24.1350 C   0  0  0  0  0  3  0  0  0  0  0  0
  -16.5760  -29.8690   23.7250 C   0  0  0  0  0  3  0  0  0  0  0  0
  -16.7600  -28.6060   23.1370 C   0  0  0  0  0  3  0  0  0  0  0  0
  -25.9070  -32.4840   23.8420 C   0  0  0  0  0  3  0  0  0  0  0  0
  -25.6000  -33.8780   24.1810 N   0  0  0  0  0  0  0  0  0  0  0  0
  -25.9300  -34.9340   23.4240 C   0  0  0  0  0  0  0  0  0  0  0  0
  -26.6000  -34.8370   22.3920 O   0  0  0  0  0  0  0  0  0  0  0  0
  -25.0070  -34.0310   24.9830 H   0  0  0  0  0  0  0  0  0  0  0  0
  -24.1970  -36.7190   23.0780 C   0  0  0  0  0  1  0  0  0  0  0  0
  -25.4390  -36.3190   23.8880 C   0  0  0  0  0  3  0  0  0  0  0  0
  -27.5740  -37.2020   24.7210 C   0  0  0  0  0  1  0  0  0  0  0  0
  -26.4700  -37.3760   23.7790 N   0  0  0  0  0  0  0  0  0  0  0  0
  -26.0620  -38.2940   23.9360 H   0  0  0  0  0  0  0  0  0  0  0  0
  -26.4360  -31.7030   25.1080 C   0  0  1  0  0  0  0  0  0  0  0  0
  -25.3510  -31.4520   26.1810 C   0  0  0  0  0  1  0  0  0  0  0  0
  -27.0180  -30.3310   24.6920 C   0  0  0  0  0  1  0  0  0  0  0  0
  -27.5860  -32.4950   25.7750 C   0  0  0  0  0  1  0  0  0  0  0  0
  -29.0160  -21.8100   17.8530 C   0  0  0  0  0  2  0  0  0  0  0  0
  -30.5070  -20.3580   19.2320 C   0  0  0  0  0  0  0  0  0  0  0  0
  -30.0410  -20.7920   18.0580 N   0  0  0  0  0  0  0  0  0  0  0  0
  -30.1490  -20.8320   20.3120 O   0  0  0  0  0  0  0  0  0  0  0  0
  -30.3900  -20.3250   17.2300 H   0  0  0  0  0  0  0  0  0  0  0  0
  -31.5490  -19.2330   19.1730 C   0  0  0  0  0  2  0  0  0  0  0  0
  -30.5200  -17.4660   20.5780 C   0  0  0  0  0  0  0  0  0  0  0  0
  -31.4970  -18.3430   20.3290 N   0  0  0  0  0  0  0  0  0  0  0  0
  -29.5210  -17.3550   19.8610 O   0  0  0  0  0  0  0  0  0  0  0  0
  -32.2740  -18.3840   20.9730 H   0  0  0  0  0  0  0  0  0  0  0  0
  -30.6960  -16.5560   21.8000 C   0  0  0  0  0  2  0  0  0  0  0  0
  -30.7230  -14.3740   20.6130 C   0  0  0  0  0  0  0  0  0  0  0  0
  -30.3580  -12.3070   19.3240 C   0  0  0  0  0  2  0  0  0  0  0  0
  -29.4210  -12.5690   18.1310 C   0  0  0  0  0  2  0  0  0  0  0  0
  -27.9480  -12.4330   18.5550 C   0  0  0  0  0  2  0  0  0  0  0  0
  -27.6220  -13.2400   19.8380 C   0  0  0  0  0  3  0  0  0  0  0  0
  -28.6630  -12.9560   20.9430 C   0  0  0  0  0  2  0  0  0  0  0  0
  -30.0040  -13.2430   20.3990 N   0  0  0  0  0  0  0  0  0  0  0  0
  -31.7630  -14.6450   20.0040 O   0  0  0  0  0  0  0  0  0  0  0  0
  -30.2130  -15.2030   21.5310 N   0  0  0  0  0  0  0  0  0  0  0  0
  -29.3530  -14.9210   21.9740 H   0  0  0  0  0  0  0  0  0  0  0  0
  -25.2140  -13.8630   20.5110 C   0  0  0  0  0  0  0  0  0  0  0  0
  -24.1410  -13.0970   20.8780 C   0  0  0  0  0  0  0  0  0  0  0  0
  -24.5990  -11.7430   20.8620 C   0  0  0  0  0  0  0  0  0  0  0  0
  -26.2610  -12.9770   20.3010 N   0  0  0  0  0  0  0  0  0  0  0  0
  -25.8900  -11.6980   20.5640 N   0  0  0  0  0  0  0  0  0  0  0  0
  -23.8690  -10.4840   21.0580 C   0  0  0  0  0  0  0  0  0  0  0  0
  -24.3060   -9.5120   21.9830 C   0  0  0  0  0  3  0  0  0  0  0  0
  -23.5760   -8.3170   22.1660 C   0  0  0  0  0  3  0  0  0  0  0  0
  -22.3950   -8.0870   21.4220 C   0  0  0  0  0  0  0  0  0  0  0  0
  -21.9750   -9.0490   20.4850 C   0  0  0  0  0  3  0  0  0  0  0  0
  -22.7060  -10.2340   20.3020 C   0  0  0  0  0  3  0  0  0  0  0  0
  -21.6370   -6.9450   21.5140 O   0  0  0  0  0  0  0  0  0  0  0  0
  -21.6170   -6.1840   22.6550 C   0  0  0  0  0  0  0  0  0  0  0  0
  -21.2410   -6.7240   23.9050 C   0  0  0  0  0  3  0  0  0  0  0  0
  -21.1680   -5.8890   25.0380 C   0  0  0  0  0  3  0  0  0  0  0  0
  -21.4600   -4.5160   24.9230 C   0  0  0  0  0  0  0  0  0  0  0  0
  -21.8300   -3.9760   23.6790 C   0  0  0  0  0  3  0  0  0  0  0  0
  -21.9050   -4.8090   22.5480 C   0  0  0  0  0  0  0  0  0  0  0  0
  -22.2400   -4.2780   21.3460 F   0  0  0  0  0  0  0  0  0  0  0  0
  -21.3830   -3.7130   26.0100 F   0  0  0  0  0  0  0  0  0  0  0  0
  -22.7420  -13.5790   21.1360 C   0  0  0  0  0  0  0  0  0  0  0  0
  -22.0070  -12.8890   22.0010 N   0  0  0  0  0  0  0  0  0  0  0  0
  -22.3100  -14.6020   20.6060 O   0  0  0  0  0  0  0  0  0  0  0  0
  -22.3670  -12.0590   22.4470 H   0  0  0  0  0  0  0  0  0  0  0  0
  -21.0680  -13.1940   22.2150 H   0  0  0  0  0  0  0  0  0  0  0  0
  -25.3860  -15.2310   20.3240 N   0  0  0  0  0  0  0  0  0  0  0  0
  -24.6230  -15.8930   20.4200 H   0  0  0  0  0  0  0  0  0  0  0  0
  -26.2480  -15.6640   20.0140 H   0  0  0  0  0  0  0  0  0  0  0  0
  2  3  1  0
  2  1  1  0
  3  4  1  0
  4  7  1  0
  4  6  1  0
  4  5  1  0
  7  8  1  0
  8  9  1  0
 10 12  1  0
 10  9  1  0
 11 22  2  0
 12 17  1  0
 13 21  1  0
 13 23  1  0
 14 20  1  0
 14 16  1  0
 15 21  1  0
 16 17  2  0
 16 15  1  0
 18 19  1  0
 18 12  2  0
 19 14  2  0
 20 13  1  0
 21 11  1  0
 23 25  2  0
 24 23  1  0
 26 24  1  0
 27 36  2  0
 27 32  1  0
 28 24  1  0
 28 32  1  0
 29 28  1  0
 30 31  1  0
 30 29  1  0
 31 27  1  0
 32 33  2  0
 33 34  1  0
 35 34  2  0
 36 35  1  0
 37 11  1  0
 37 38  1  0
 37 47  1  0
 38 41  1  0
 39 43  1  0
 39 38  1  0
 40 39  2  0
 43 42  1  0
 45 43  1  0
 45 46  1  0
 45 44  1  0
 47 50  1  1
 47 48  1  0
 49 47  1  0
 51 53  1  0
 51  1  1  0
 52 54  2  0
 53 52  1  0
 55 53  1  0
 56 52  1  0
 56 58  1  0
 57 61  1  0
 58 57  1  0
 58 60  1  0
 59 57  2  0
 62 70  1  0
 63 68  1  0
 64 65  1  0
 64 63  1  0
 66 65  1  0
 66 75  1  0
 66 67  1  0
 68 62  1  0
 68 67  1  0
 69 62  2  0
 70 61  1  0
 70 71  1  0
 72 73  2  0
 73 92  1  0
 74 73  1  0
 74 77  1  0
 75 72  1  0
 75 76  1  0
 76 74  2  0
 77 78  1  0
 78 79  2  0
 80 83  1  0
 80 79  1  0
 81 80  2  0
 82 81  1  0
 82 77  2  0
 83 84  1  0
 84 85  1  0
 85 86  2  0
 87 86  1  0
 87 91  1  0
 88 87  2  0
 89 84  2  0
 89 88  1  0
 90 89  1  0
 92 93  1  0
 93 96  1  0
 93 95  1  0
 94 92  2  0
 97 98  1  0
 97 72  1  0
 99 97  1  0
M  ISO  4   9 101  10 101  62 100  70 100
M  END
>  <TORSDO>  (74) 
F 27

>  <SCORE>  (74) 
-11.750

>  <name>  (74) 
82

>  <ligand_id>  (74) 
82

>  <original_smiles>  (74) 
[H]c1c([H])c([H])c2c(c1[H])C([H])([H])C([H])([H])C([H])([H])C2([H])N([H])C(=O)C1([H])N(C(=O)C([H])(N([H])C(=O)C([H])(N([H])C([H])([H])[H])C([H])([H])[H])C(C([H])([H])[H])(C([H])([H])[H])C([H])([H])[H])C([H])([H])c2c([H])c(OC([H])([H])C([H])([H])C([H])([H])[N+]([H])([H])C([H])([H])C([H])([H])C([H])([H])C([H])([H])N([H])C(=O)C([H])([H])N([H])C(=O)C([H])([H])N([H])C(=O)N3C([H])([H])C([H])([H])C([H])([H])C([H])(n4nc(-c5c([H])c([H])c(Oc6c([H])c([H])c(F)c([H])c6F)c([H])c5[H])c(C(=O)N([H])[H])c4N([H])[H])C3([H])[H])c([H])c([H])c2C1([H])[H]

>  <smiles>  (74) 
[H]c1c([H])c([H])c2c(c1[H])C([H])([H])C([H])([H])C([H])([H])C2([H])N([H])C(=O)C1([H])N(C(=O)C([H])(N([H])C(=O)C([H])(N([H])C([H])([H])[H])C([H])([H])[H])C(C([H])([H])[H])(C([H])([H])[H])C([H])([H])[H])C([H])([H])c2c([H])c(OC([H])([H])C([H])([H])C([H])([H])[N+]([H])([H])C([H])([H])C([H])([H])C([H])([H])C([H])([H])N([H])C(=O)C([H])([H])N([H])C(=O)C([H])([H])N([H])C(=O)N3C([H])([H])C([H])([H])C([H])([H])C([H])(n4nc(-c5c([H])c([H])c(Oc6c([H])c([H])c(F)c([H])c6F)c([H])c5[H])c(C(=O)N([H])[H])c4N([H])[H])C3([H])[H])c([H])c([H])c2C1([H])[H]

$$$$
83:0:0
     RDKit          3D

103110  0  0  1  0  0  0  0  0999 V2000
  -34.0410  -27.9010   17.3990 C   0  0  0  0  0  0  0  0  0  0  0  0
  -35.0000  -27.5640   18.2700 N   0  0  0  0  0  0  0  0  0  0  0  0
  -33.9670  -27.4240   16.2650 O   0  0  0  0  0  0  0  0  0  0  0  0
  -34.9850  -28.0230   19.1720 H   0  0  0  0  0  0  0  0  0  0  0  0
  -36.0420  -26.5600   18.0640 C   0  0  0  0  0  2  0  0  0  0  0  0
  -35.4940  -25.1170   18.0000 C   0  0  0  0  0  2  0  0  0  0  0  0
  -34.5530  -24.7480   19.1600 C   0  0  0  0  0  2  0  0  0  0  0  0
  -34.0560  -23.2960   19.0870 C   0  0  0  0  0  2  0  0  0  0  0  0
  -32.9980  -22.9950   20.1610 C   0  0  0  0  0  2  0  0  0  0  0  0
  -32.4610  -21.5580   20.0920 C   0  0  0  0  0  2  0  0  0  0  0  0
  -31.3580  -21.2980   21.1310 C   0  0  0  0  0  2  0  0  0  0  0  0
  -31.0750  -18.9040   21.7790 C   0  0  0  0  0  0  0  0  0  0  0  0
  -30.8040  -19.9540   20.9930 N   0  0  0  0  0  0  0  0  0  0  0  0
  -31.8490  -18.9720   22.7360 O   0  0  0  0  0  0  0  0  0  0  0  0
  -30.1430  -19.8090   20.2400 H   0  0  0  0  0  0  0  0  0  0  0  0
  -30.3620  -17.5900   21.4310 C   0  0  0  0  0  2  0  0  0  0  0  0
  -30.9350  -16.3580   22.1660 C   0  0  0  0  0  2  0  0  0  0  0  0
  -30.7680  -14.3540   20.6900 C   0  0  0  0  0  0  0  0  0  0  0  0
  -30.4180  -12.2860   19.3920 C   0  0  0  0  0  2  0  0  0  0  0  0
  -29.4830  -12.5230   18.1910 C   0  0  0  0  0  2  0  0  0  0  0  0
  -28.0080  -12.3780   18.6090 C   0  0  0  0  0  2  0  0  0  0  0  0
  -27.6670  -13.2000   19.8800 C   0  0  0  0  0  3  0  0  0  0  0  0
  -28.7040  -12.9360   20.9940 C   0  0  0  0  0  2  0  0  0  0  0  0
  -30.0490  -13.2260   20.4600 N   0  0  0  0  0  0  0  0  0  0  0  0
  -31.7810  -14.6580   20.0530 O   0  0  0  0  0  0  0  0  0  0  0  0
  -30.3260  -15.1110   21.7010 N   0  0  0  0  0  0  0  0  0  0  0  0
  -29.5110  -14.7750   22.1940 H   0  0  0  0  0  0  0  0  0  0  0  0
  -25.2610  -13.8150   20.5670 C   0  0  0  0  0  0  0  0  0  0  0  0
  -24.1850  -13.0440   20.9160 C   0  0  0  0  0  0  0  0  0  0  0  0
  -24.6390  -11.6900   20.8720 C   0  0  0  0  0  0  0  0  0  0  0  0
  -26.3050  -12.9310   20.3380 N   0  0  0  0  0  0  0  0  0  0  0  0
  -25.9310  -11.6480   20.5760 N   0  0  0  0  0  0  0  0  0  0  0  0
  -23.9050  -10.4290   21.0410 C   0  0  0  0  0  0  0  0  0  0  0  0
  -24.3610   -9.4210   21.9180 C   0  0  0  0  0  3  0  0  0  0  0  0
  -23.6290   -8.2240   22.0750 C   0  0  0  0  0  3  0  0  0  0  0  0
  -22.4270   -8.0280   21.3550 C   0  0  0  0  0  0  0  0  0  0  0  0
  -21.9900   -9.0250   20.4640 C   0  0  0  0  0  3  0  0  0  0  0  0
  -22.7230  -10.2130   20.3050 C   0  0  0  0  0  3  0  0  0  0  0  0
  -21.6640   -6.8880   21.4240 O   0  0  0  0  0  0  0  0  0  0  0  0
  -21.6850   -6.0730   22.5280 C   0  0  0  0  0  0  0  0  0  0  0  0
  -21.4010   -6.5640   23.8210 C   0  0  0  0  0  3  0  0  0  0  0  0
  -21.3660   -5.6790   24.9170 C   0  0  0  0  0  3  0  0  0  0  0  0
  -21.6040   -4.3060   24.7230 C   0  0  0  0  0  0  0  0  0  0  0  0
  -21.8820   -3.8150   23.4350 C   0  0  0  0  0  3  0  0  0  0  0  0
  -21.9190   -4.6960   22.3400 C   0  0  0  0  0  0  0  0  0  0  0  0
  -22.1660   -4.2150   21.0980 F   0  0  0  0  0  0  0  0  0  0  0  0
  -21.5630   -3.4540   25.7740 F   0  0  0  0  0  0  0  0  0  0  0  0
  -22.7870  -13.5250   21.1830 C   0  0  0  0  0  0  0  0  0  0  0  0
  -22.0510  -12.8240   22.0390 N   0  0  0  0  0  0  0  0  0  0  0  0
  -22.3560  -14.5560   20.6690 O   0  0  0  0  0  0  0  0  0  0  0  0
  -22.4120  -11.9900   22.4770 H   0  0  0  0  0  0  0  0  0  0  0  0
  -21.1130  -13.1270   22.2600 H   0  0  0  0  0  0  0  0  0  0  0  0
  -25.4360  -15.1870   20.4090 N   0  0  0  0  0  0  0  0  0  0  0  0
  -24.6760  -15.8490   20.5240 H   0  0  0  0  0  0  0  0  0  0  0  0
  -26.3000  -15.6230   20.1110 H   0  0  0  0  0  0  0  0  0  0  0  0
  -33.0050  -28.9300   17.8690 C   0  0  0  0  0  2  0  0  0  0  0  0
  -31.0140  -27.5340   18.3730 C   0  0  0  0  0  0  0  0  0  0  0  0
  -31.6400  -28.4590   17.6330 N   0  0  0  0  0  0  0  0  0  0  0  0
  -31.5380  -27.0380   19.3720 O   0  0  0  0  0  0  0  0  0  0  0  0
  -31.1710  -28.8180   16.8120 H   0  0  0  0  0  0  0  0  0  0  0  0
  -29.6130  -27.1060   17.9130 C   0  0  0  0  0  2  0  0  0  0  0  0
  -28.8790  -26.1390   18.8700 C   0  0  0  0  0  2  0  0  0  0  0  0
  -28.4490  -26.7930   20.0670 O   0  0  0  0  0  0  0  0  0  0  0  0
  -24.6100  -31.8670   23.2120 C   0  0  0  0  0  0  0  0  0  0  0  0
  -27.2560  -27.4790   20.0570 C   0  0  0  0  0  0  0  0  0  0  0  0
  -23.3990  -30.4910   21.5510 C   0  0  0  0  0  3  0  0  0  0  0  0
  -24.8480  -28.9580   20.1150 C   0  0  0  0  0  0  0  0  0  0  0  0
  -25.9230  -30.8410   21.3630 C   0  0  0  0  0  2  0  0  0  0  0  0
  -26.0030  -29.4770   20.7110 C   0  0  0  0  0  0  0  0  0  0  0  0
  -27.2030  -28.7370   20.6930 C   0  0  0  0  0  3  0  0  0  0  0  0
  -26.0770  -26.9550   19.4790 C   0  0  0  0  0  3  0  0  0  0  0  0
  -24.8760  -27.6920   19.5040 C   0  0  0  0  0  3  0  0  0  0  0  0
  -23.6080  -29.8190   20.1660 C   0  0  0  0  0  2  0  0  0  0  0  0
  -24.6630  -31.0790   22.1020 N   0  0  0  0  0  0  0  0  0  0  0  0
  -23.5300  -32.1400   23.7530 O   0  0  0  0  0  0  0  0  0  0  0  0
  -22.7400  -29.4640   22.4990 C   0  0  0  0  0  0  0  0  0  0  0  0
  -21.4130  -29.3030   22.3730 N   0  0  0  0  0  0  0  0  0  0  0  0
  -23.4190  -28.8160   23.3000 O   0  0  0  0  0  0  0  0  0  0  0  0
  -20.9290  -29.8780   21.6970 H   0  0  0  0  0  0  0  0  0  0  0  0
  -18.0270  -28.1370   22.8500 C   0  0  0  0  0  0  0  0  0  0  0  0
  -20.5860  -28.3650   23.1310 C   0  0  0  0  0  3  0  0  0  0  0  0
  -20.6750  -26.9380   22.5420 C   0  0  0  0  0  2  0  0  0  0  0  0
  -19.5740  -26.6380   21.5210 C   0  0  0  0  0  2  0  0  0  0  0  0
  -18.1920  -26.7920   22.1620 C   0  0  0  0  0  2  0  0  0  0  0  0
  -19.1520  -28.8820   23.2910 C   0  0  0  0  0  0  0  0  0  0  0  0
  -18.9450  -30.1430   23.8920 C   0  0  0  0  0  3  0  0  0  0  0  0
  -17.6460  -30.6580   24.0570 C   0  0  0  0  0  3  0  0  0  0  0  0
  -16.5350  -29.9090   23.6320 C   0  0  0  0  0  3  0  0  0  0  0  0
  -16.7260  -28.6510   23.0340 C   0  0  0  0  0  3  0  0  0  0  0  0
  -25.9010  -32.4810   23.8390 C   0  0  0  0  0  3  0  0  0  0  0  0
  -25.5880  -33.8610   24.2320 N   0  0  0  0  0  0  0  0  0  0  0  0
  -25.9010  -34.9470   23.5120 C   0  0  0  0  0  0  0  0  0  0  0  0
  -26.5570  -34.8920   22.4680 O   0  0  0  0  0  0  0  0  0  0  0  0
  -25.0030  -33.9780   25.0460 H   0  0  0  0  0  0  0  0  0  0  0  0
  -24.1480  -36.7320   23.2640 C   0  0  0  0  0  1  0  0  0  0  0  0
  -25.4100  -36.3100   24.0330 C   0  0  0  0  0  3  0  0  0  0  0  0
  -27.5570  -37.1800   24.8470 C   0  0  0  0  0  1  0  0  0  0  0  0
  -26.4290  -37.3780   23.9410 N   0  0  0  0  0  0  0  0  0  0  0  0
  -26.0180  -38.2860   24.1410 H   0  0  0  0  0  0  0  0  0  0  0  0
  -26.4470  -31.6600   25.0710 C   0  0  1  0  0  0  0  0  0  0  0  0
  -25.3760  -31.3690   26.1480 C   0  0  0  0  0  1  0  0  0  0  0  0
  -27.0290  -30.3050   24.6060 C   0  0  0  0  0  1  0  0  0  0  0  0
  -27.6040  -32.4320   25.7470 C   0  0  0  0  0  1  0  0  0  0  0  0
  1 56  1  0
  1  2  1  0
  2  4  1  0
  3  1  2  0
  5  2  1  0
  6  5  1  0
  6  7  1  0
  8  7  1  0
  8  9  1  0
 10  9  1  0
 10 11  1  0
 12 14  2  0
 13 11  1  0
 13 12  1  0
 15 13  1  0
 16 12  1  0
 16 17  1  0
 18 26  1  0
 19 24  1  0
 20 21  1  0
 20 19  1  0
 22 21  1  0
 22 31  1  0
 22 23  1  0
 24 18  1  0
 24 23  1  0
 25 18  2  0
 26 17  1  0
 26 27  1  0
 28 29  2  0
 29 48  1  0
 30 29  1  0
 30 33  1  0
 31 28  1  0
 31 32  1  0
 32 30  2  0
 33 34  1  0
 34 35  2  0
 36 39  1  0
 36 35  1  0
 37 36  2  0
 38 37  1  0
 38 33  2  0
 39 40  1  0
 40 41  1  0
 41 42  2  0
 43 42  1  0
 43 47  1  0
 44 43  2  0
 45 40  2  0
 45 44  1  0
 46 45  1  0
 48 49  1  0
 49 52  1  0
 49 51  1  0
 50 48  2  0
 53 54  1  0
 53 28  1  0
 55 53  1  0
 57 59  2  0
 58 56  1  0
 58 57  1  0
 60 58  1  0
 61 57  1  0
 61 62  1  0
 62 63  1  0
 64 75  2  0
 65 63  1  0
 65 70  1  0
 66 74  1  0
 66 76  1  0
 67 73  1  0
 67 69  1  0
 68 74  1  0
 69 68  1  0
 70 69  2  0
 71 72  1  0
 71 65  2  0
 72 67  2  0
 73 66  1  0
 74 64  1  0
 76 78  2  0
 77 76  1  0
 79 77  1  0
 80 89  2  0
 80 85  1  0
 81 77  1  0
 81 85  1  0
 82 81  1  0
 83 84  1  0
 83 82  1  0
 84 80  1  0
 85 86  2  0
 86 87  1  0
 88 87  2  0
 89 88  1  0
 90 64  1  0
 90 91  1  0
 90100  1  0
 91 94  1  0
 92 96  1  0
 92 91  1  0
 93 92  2  0
 96 95  1  0
 98 96  1  0
 98 99  1  0
 98 97  1  0
100103  1  1
100101  1  0
102100  1  0
M  ISO  4  18 100  26 100  62 101  63 101
M  END
>  <TORSDO>  (75) 
F 30

>  <SCORE>  (75) 
-10.609

>  <name>  (75) 
83

>  <ligand_id>  (75) 
83

>  <original_smiles>  (75) 
[H]c1c([H])c([H])c2c(c1[H])C([H])([H])C([H])([H])C([H])([H])C2([H])N([H])C(=O)C1([H])N(C(=O)C([H])(N([H])C(=O)C([H])(N([H])C([H])([H])[H])C([H])([H])[H])C(C([H])([H])[H])(C([H])([H])[H])C([H])([H])[H])C([H])([H])c2c([H])c(OC([H])([H])C([H])([H])C(=O)N([H])C([H])([H])C(=O)N([H])C([H])([H])C([H])([H])C([H])([H])C([H])([H])C([H])([H])C([H])([H])C([H])([H])N([H])C(=O)C([H])([H])C([H])([H])N([H])C(=O)N3C([H])([H])C([H])([H])C([H])([H])C([H])(n4nc(-c5c([H])c([H])c(Oc6c([H])c([H])c(F)c([H])c6F)c([H])c5[H])c(C(=O)N([H])[H])c4N([H])[H])C3([H])[H])c([H])c([H])c2C1([H])[H]

>  <smiles>  (75) 
[H]c1c([H])c([H])c2c(c1[H])C([H])([H])C([H])([H])C([H])([H])C2([H])N([H])C(=O)C1([H])N(C(=O)C([H])(N([H])C(=O)C([H])(N([H])C([H])([H])[H])C([H])([H])[H])C(C([H])([H])[H])(C([H])([H])[H])C([H])([H])[H])C([H])([H])c2c([H])c(OC([H])([H])C([H])([H])C(=O)N([H])C([H])([H])C(=O)N([H])C([H])([H])C([H])([H])C([H])([H])C([H])([H])C([H])([H])C([H])([H])C([H])([H])N([H])C(=O)C([H])([H])C([H])([H])N([H])C(=O)N3C([H])([H])C([H])([H])C([H])([H])C([H])(n4nc(-c5c([H])c([H])c(Oc6c([H])c([H])c(F)c([H])c6F)c([H])c5[H])c(C(=O)N([H])[H])c4N([H])[H])C3([H])[H])c([H])c([H])c2C1([H])[H]

$$$$
84:0:0
     RDKit          3D

101108  0  0  1  0  0  0  0  0999 V2000
  -26.3400  -23.9330   21.8980 C   0  0  0  0  0  0  0  0  0  0  0  0
  -25.3390  -23.0440   21.9100 N   0  0  0  0  0  0  0  0  0  0  0  0
  -26.3100  -24.9280   21.1790 O   0  0  0  0  0  0  0  0  0  0  0  0
  -25.4070  -22.2420   22.5230 H   0  0  0  0  0  0  0  0  0  0  0  0
  -27.5570  -23.6740   22.7960 C   0  0  0  0  0  2  0  0  0  0  0  0
  -29.4900  -24.6900   21.4850 C   0  0  0  0  0  0  0  0  0  0  0  0
  -28.8020  -23.6680   22.0220 N   0  0  0  0  0  0  0  0  0  0  0  0
  -30.5040  -24.4530   20.8290 O   0  0  0  0  0  0  0  0  0  0  0  0
  -29.1770  -22.7490   21.8340 H   0  0  0  0  0  0  0  0  0  0  0  0
  -29.0460  -26.1540   21.6680 C   0  0  0  0  0  2  0  0  0  0  0  0
  -28.8050  -26.7290   20.3830 O   0  0  0  0  0  0  0  0  0  0  0  0
  -24.7490  -31.8150   23.2600 C   0  0  0  0  0  0  0  0  0  0  0  0
  -27.6500  -27.4650   20.3240 C   0  0  0  0  0  0  0  0  0  0  0  0
  -23.6590  -30.3880   21.5580 C   0  0  0  0  0  3  0  0  0  0  0  0
  -25.2220  -28.8880   20.2110 C   0  0  0  0  0  0  0  0  0  0  0  0
  -26.1800  -30.8120   21.4890 C   0  0  0  0  0  2  0  0  0  0  0  0
  -26.3310  -29.4430   20.8630 C   0  0  0  0  0  0  0  0  0  0  0  0
  -27.5500  -28.7360   20.9280 C   0  0  0  0  0  3  0  0  0  0  0  0
  -26.5410  -26.9250   19.6470 C   0  0  0  0  0  3  0  0  0  0  0  0
  -25.3200  -27.6250   19.6020 C   0  0  0  0  0  3  0  0  0  0  0  0
  -23.9540  -29.7090   20.1930 C   0  0  0  0  0  2  0  0  0  0  0  0
  -24.8770  -31.0200   22.1610 N   0  0  0  0  0  0  0  0  0  0  0  0
  -23.6380  -32.0620   23.7460 O   0  0  0  0  0  0  0  0  0  0  0  0
  -22.9850  -29.3530   22.4860 C   0  0  0  0  0  0  0  0  0  0  0  0
  -21.6660  -29.1660   22.3120 N   0  0  0  0  0  0  0  0  0  0  0  0
  -23.6440  -28.7190   23.3140 O   0  0  0  0  0  0  0  0  0  0  0  0
  -21.1980  -29.7290   21.6160 H   0  0  0  0  0  0  0  0  0  0  0  0
  -18.2720  -27.9990   22.7290 C   0  0  0  0  0  0  0  0  0  0  0  0
  -20.8270  -28.2170   23.0430 C   0  0  0  0  0  3  0  0  0  0  0  0
  -20.9200  -26.8000   22.4290 C   0  0  0  0  0  2  0  0  0  0  0  0
  -19.8290  -26.5210   21.3910 C   0  0  0  0  0  2  0  0  0  0  0  0
  -18.4400  -26.6660   22.0190 C   0  0  0  0  0  2  0  0  0  0  0  0
  -19.3940  -28.7340   23.1950 C   0  0  0  0  0  0  0  0  0  0  0  0
  -19.1840  -29.9840   23.8180 C   0  0  0  0  0  3  0  0  0  0  0  0
  -17.8850  -30.4990   23.9780 C   0  0  0  0  0  3  0  0  0  0  0  0
  -16.7770  -29.7610   23.5280 C   0  0  0  0  0  3  0  0  0  0  0  0
  -16.9700  -28.5130   22.9100 C   0  0  0  0  0  3  0  0  0  0  0  0
  -25.9900  -32.4690   23.9450 C   0  0  0  0  0  3  0  0  0  0  0  0
  -25.6440  -33.8660   24.2410 N   0  0  0  0  0  0  0  0  0  0  0  0
  -25.9930  -34.9120   23.4790 C   0  0  0  0  0  0  0  0  0  0  0  0
  -26.7110  -34.8050   22.4810 O   0  0  0  0  0  0  0  0  0  0  0  0
  -25.0100  -34.0210   25.0110 H   0  0  0  0  0  0  0  0  0  0  0  0
  -24.2490  -36.6640   23.0180 C   0  0  0  0  0  1  0  0  0  0  0  0
  -25.4610  -36.2980   23.8900 C   0  0  0  0  0  3  0  0  0  0  0  0
  -27.5440  -37.2350   24.7910 C   0  0  0  0  0  1  0  0  0  0  0  0
  -26.4790  -37.3680   23.8010 N   0  0  0  0  0  0  0  0  0  0  0  0
  -26.0510  -38.2830   23.9140 H   0  0  0  0  0  0  0  0  0  0  0  0
  -26.4520  -31.7160   25.2530 C   0  0  1  0  0  0  0  0  0  0  0  0
  -25.3080  -31.4700   26.2640 C   0  0  0  0  0  1  0  0  0  0  0  0
  -27.0800  -30.3460   24.9020 C   0  0  0  0  0  1  0  0  0  0  0  0
  -27.5510  -32.5390   25.9670 C   0  0  0  0  0  1  0  0  0  0  0  0
  -24.1410  -23.1380   21.0600 C   0  0  0  0  0  2  0  0  0  0  0  0
  -24.3860  -22.7760   19.5830 C   0  0  0  0  0  0  0  0  0  0  0  0
  -25.5650  -22.2270   19.2740 N   0  0  0  0  0  0  0  0  0  0  0  0
  -23.5210  -22.9980   18.7340 O   0  0  0  0  0  0  0  0  0  0  0  0
  -26.2000  -22.0860   20.0470 H   0  0  0  0  0  0  0  0  0  0  0  0
  -26.0290  -21.8470   17.9480 C   0  0  0  0  0  2  0  0  0  0  0  0
  -27.4510  -21.2670   18.0360 C   0  0  0  0  0  2  0  0  0  0  0  0
  -27.5420  -20.0610   18.9870 C   0  0  0  0  0  2  0  0  0  0  0  0
  -28.9830  -19.6080   19.2510 C   0  0  0  0  0  2  0  0  0  0  0  0
  -29.0520  -18.5580   20.3690 C   0  0  0  0  0  2  0  0  0  0  0  0
  -30.4890  -18.2990   20.8490 C   0  0  0  0  0  2  0  0  0  0  0  0
  -30.5670  -17.3560   22.0670 C   0  0  0  0  0  2  0  0  0  0  0  0
  -30.6620  -15.1560   20.9140 C   0  0  0  0  0  0  0  0  0  0  0  0
  -30.5110  -12.9660   19.7980 C   0  0  0  0  0  2  0  0  0  0  0  0
  -29.6450  -13.0510   18.5280 C   0  0  0  0  0  2  0  0  0  0  0  0
  -28.1580  -12.8430   18.8690 C   0  0  0  0  0  2  0  0  0  0  0  0
  -27.6870  -13.7380   20.0460 C   0  0  0  0  0  3  0  0  0  0  0  0
  -28.6670  -13.6420   21.2370 C   0  0  0  0  0  2  0  0  0  0  0  0
  -30.0220  -13.9700   20.7540 N   0  0  0  0  0  0  0  0  0  0  0  0
  -31.7110  -15.4470   20.3340 O   0  0  0  0  0  0  0  0  0  0  0  0
  -30.0830  -16.0110   21.7650 N   0  0  0  0  0  0  0  0  0  0  0  0
  -29.2400  -15.7000   22.2260 H   0  0  0  0  0  0  0  0  0  0  0  0
  -25.2280  -14.2500   20.6190 C   0  0  0  0  0  0  0  0  0  0  0  0
  -24.1720  -13.4330   20.9270 C   0  0  0  0  0  0  0  0  0  0  0  0
  -24.6870  -12.1010   20.9150 C   0  0  0  0  0  0  0  0  0  0  0  0
  -26.3190  -13.4110   20.4450 N   0  0  0  0  0  0  0  0  0  0  0  0
  -25.9920  -12.1130   20.6770 N   0  0  0  0  0  0  0  0  0  0  0  0
  -24.0010  -10.8090   21.0630 C   0  0  0  0  0  0  0  0  0  0  0  0
  -24.4220   -9.8530   22.0130 C   0  0  0  0  0  3  0  0  0  0  0  0
  -23.7370   -8.6280   22.1480 C   0  0  0  0  0  3  0  0  0  0  0  0
  -22.6150   -8.3480   21.3300 C   0  0  0  0  0  0  0  0  0  0  0  0
  -22.2130   -9.2940   20.3710 C   0  0  0  0  0  3  0  0  0  0  0  0
  -22.9010  -10.5120   20.2340 C   0  0  0  0  0  3  0  0  0  0  0  0
  -21.9040   -7.1740   21.3720 O   0  0  0  0  0  0  0  0  0  0  0  0
  -21.8150   -6.4280   22.5200 C   0  0  0  0  0  0  0  0  0  0  0  0
  -21.3150   -6.9700   23.7240 C   0  0  0  0  0  3  0  0  0  0  0  0
  -21.1750   -6.1490   24.8610 C   0  0  0  0  0  3  0  0  0  0  0  0
  -21.5230   -4.7860   24.7950 C   0  0  0  0  0  0  0  0  0  0  0  0
  -22.0140   -4.2440   23.5940 C   0  0  0  0  0  3  0  0  0  0  0  0
  -22.1560   -5.0610   22.4590 C   0  0  0  0  0  0  0  0  0  0  0  0
  -22.6100   -4.5280   21.3000 F   0  0  0  0  0  0  0  0  0  0  0  0
  -21.3800   -3.9960   25.8840 F   0  0  0  0  0  0  0  0  0  0  0  0
  -22.7440  -13.8540   21.1270 C   0  0  0  0  0  0  0  0  0  0  0  0
  -22.0040  -13.1310   21.9610 N   0  0  0  0  0  0  0  0  0  0  0  0
  -22.2910  -14.8580   20.5810 O   0  0  0  0  0  0  0  0  0  0  0  0
  -22.3820  -12.3190   22.4250 H   0  0  0  0  0  0  0  0  0  0  0  0
  -21.0440  -13.3950   22.1370 H   0  0  0  0  0  0  0  0  0  0  0  0
  -25.3490  -15.6260   20.4560 N   0  0  0  0  0  0  0  0  0  0  0  0
  -24.5540  -16.2510   20.5260 H   0  0  0  0  0  0  0  0  0  0  0  0
  -26.2040  -16.0990   20.1950 H   0  0  0  0  0  0  0  0  0  0  0  0
  1  2  1  0
  1  5  1  0
  2  4  1  0
  3  1  2  0
  6 10  1  0
  6  7  1  0
  7  5  1  0
  8  6  2  0
  9  7  1  0
 11 10  1  0
 12 23  2  0
 13 11  1  0
 13 18  1  0
 14 22  1  0
 14 24  1  0
 15 17  1  0
 16 22  1  0
 17 18  2  0
 17 16  1  0
 19 13  2  0
 20 19  1  0
 20 15  2  0
 21 15  1  0
 21 14  1  0
 22 12  1  0
 24 26  2  0
 25 24  1  0
 27 25  1  0
 28 37  2  0
 28 33  1  0
 29 25  1  0
 29 33  1  0
 30 29  1  0
 31 32  1  0
 31 30  1  0
 32 28  1  0
 33 34  2  0
 34 35  1  0
 36 35  2  0
 37 36  1  0
 38 12  1  0
 38 39  1  0
 38 48  1  0
 39 42  1  0
 40 44  1  0
 40 39  1  0
 41 40  2  0
 44 43  1  0
 46 44  1  0
 46 47  1  0
 46 45  1  0
 48 51  1  1
 48 49  1  0
 50 48  1  0
 52  2  1  0
 53 52  1  0
 54 53  1  0
 54 56  1  0
 55 53  2  0
 57 58  1  0
 57 54  1  0
 58 59  1  0
 59 60  1  0
 60 61  1  0
 61 62  1  0
 62 63  1  0
 64 72  1  0
 65 70  1  0
 66 67  1  0
 66 65  1  0
 68 67  1  0
 68 77  1  0
 68 69  1  0
 70 64  1  0
 70 69  1  0
 71 64  2  0
 72 63  1  0
 72 73  1  0
 74 75  2  0
 75 94  1  0
 76 75  1  0
 76 79  1  0
 77 74  1  0
 77 78  1  0
 78 76  2  0
 79 80  1  0
 80 81  2  0
 82 85  1  0
 82 81  1  0
 83 82  2  0
 84 83  1  0
 84 79  2  0
 85 86  1  0
 86 87  1  0
 87 88  2  0
 89 88  1  0
 89 93  1  0
 90 89  2  0
 91 86  2  0
 91 90  1  0
 92 91  1  0
 94 95  1  0
 95 98  1  0
 95 97  1  0
 96 94  2  0
 99100  1  0
 99 74  1  0
101 99  1  0
M  ISO  4  10 101  11 101  64 100  72 100
M  END
>  <TORSDO>  (76) 
F 28

>  <SCORE>  (76) 
-10.884

>  <name>  (76) 
84

>  <ligand_id>  (76) 
84

>  <original_smiles>  (76) 
[H]c1c([H])c([H])c2c(c1[H])C([H])([H])C([H])([H])C([H])([H])C2([H])N([H])C(=O)C1([H])N(C(=O)C([H])(N([H])C(=O)C([H])(N([H])C([H])([H])[H])C([H])([H])[H])C(C([H])([H])[H])(C([H])([H])[H])C([H])([H])[H])C([H])([H])c2c([H])c(OC([H])([H])C(=O)N([H])C([H])([H])C(=O)N([H])C([H])([H])C(=O)N([H])C([H])([H])C([H])([H])C([H])([H])C([H])([H])C([H])([H])C([H])([H])C([H])([H])N([H])C(=O)N3C([H])([H])C([H])([H])C([H])([H])C([H])(n4nc(-c5c([H])c([H])c(Oc6c([H])c([H])c(F)c([H])c6F)c([H])c5[H])c(C(=O)N([H])[H])c4N([H])[H])C3([H])[H])c([H])c([H])c2C1([H])[H]

>  <smiles>  (76) 
[H]c1c([H])c([H])c2c(c1[H])C([H])([H])C([H])([H])C([H])([H])C2([H])N([H])C(=O)C1([H])N(C(=O)C([H])(N([H])C(=O)C([H])(N([H])C([H])([H])[H])C([H])([H])[H])C(C([H])([H])[H])(C([H])([H])[H])C([H])([H])[H])C([H])([H])c2c([H])c(OC([H])([H])C(=O)N([H])C([H])([H])C(=O)N([H])C([H])([H])C(=O)N([H])C([H])([H])C([H])([H])C([H])([H])C([H])([H])C([H])([H])C([H])([H])C([H])([H])N([H])C(=O)N3C([H])([H])C([H])([H])C([H])([H])C([H])(n4nc(-c5c([H])c([H])c(Oc6c([H])c([H])c(F)c([H])c6F)c([H])c5[H])c(C(=O)N([H])[H])c4N([H])[H])C3([H])[H])c([H])c([H])c2C1([H])[H]

$$$$
85:0:0
     RDKit          3D

106113  0  0  1  0  0  0  0  0999 V2000
  -26.5580  -14.1130   24.3230 C   0  0  0  0  0  2  0  0  0  0  0  0
  -27.2980  -14.9600   23.2060 C   0  0  0  0  0  2  0  0  0  0  0  0
  -26.5080  -15.8980   22.2330 C   0  0  0  0  0  2  0  0  0  0  0  0
  -26.9660  -17.0050   19.9920 C   0  0  0  0  0  0  0  0  0  0  0  0
  -27.3550  -16.3310   21.0950 N   0  0  0  0  0  0  0  0  0  0  0  0
  -25.7960  -17.3480   19.8170 O   0  0  0  0  0  0  0  0  0  0  0  0
  -28.3460  -16.1350   21.1660 H   0  0  0  0  0  0  0  0  0  0  0  0
  -28.0400  -17.3070   18.9170 C   0  0  0  0  0  2  0  0  0  0  0  0
  -27.7800  -18.5220   18.1760 O   0  0  0  0  0  0  0  0  0  0  0  0
  -28.5910  -18.5310   16.9930 C   0  0  0  0  0  2  0  0  0  0  0  0
  -28.7370  -19.8700   16.2260 C   0  0  0  0  0  2  0  0  0  0  0  0
  -30.1800  -19.9700   15.6620 C   0  0  0  0  0  2  0  0  0  0  0  0
  -30.4730  -20.8940   14.4590 C   0  0  0  0  0  2  0  0  0  0  0  0
  -30.2930  -20.2190   13.2090 O   0  0  0  0  0  0  0  0  0  0  0  0
  -27.3750  -26.1230   10.6120 C   0  0  0  0  0  0  0  0  0  0  0  0
  -29.3110  -20.7640   12.4310 C   0  0  0  0  0  0  0  0  0  0  0  0
  -25.9820  -24.0780   10.4890 C   0  0  0  0  0  3  0  0  0  0  0  0
  -27.1940  -21.8860   10.9470 C   0  0  0  0  0  0  0  0  0  0  0  0
  -28.5290  -23.9260   10.3970 C   0  0  0  0  0  2  0  0  0  0  0  0
  -28.4030  -22.5780   11.0710 C   0  0  0  0  0  0  0  0  0  0  0  0
  -29.4620  -22.0270   11.8230 C   0  0  0  0  0  3  0  0  0  0  0  0
  -28.1040  -20.0580   12.2670 C   0  0  0  0  0  3  0  0  0  0  0  0
  -27.0370  -20.6250   11.5470 C   0  0  0  0  0  3  0  0  0  0  0  0
  -26.0980  -22.5660   10.1590 C   0  0  0  0  0  2  0  0  0  0  0  0
  -27.3150  -24.7630   10.5300 N   0  0  0  0  0  0  0  0  0  0  0  0
  -26.3430  -26.8080   10.6100 O   0  0  0  0  0  0  0  0  0  0  0  0
  -25.1710  -24.2440   11.7940 C   0  0  0  0  0  0  0  0  0  0  0  0
  -23.8350  -24.1580   11.6860 N   0  0  0  0  0  0  0  0  0  0  0  0
  -25.7410  -24.4160   12.8770 O   0  0  0  0  0  0  0  0  0  0  0  0
  -23.4400  -24.0170   10.7660 H   0  0  0  0  0  0  0  0  0  0  0  0
  -20.3130  -24.1140   12.4760 C   0  0  0  0  0  0  0  0  0  0  0  0
  -22.8750  -24.2510   12.7850 C   0  0  0  0  0  3  0  0  0  0  0  0
  -22.7570  -22.9030   13.5320 C   0  0  0  0  0  2  0  0  0  0  0  0
  -21.6310  -22.0150   12.9930 C   0  0  0  0  0  2  0  0  0  0  0  0
  -20.2820  -22.7330   13.1080 C   0  0  0  0  0  2  0  0  0  0  0  0
  -21.5340  -24.8220   12.3120 C   0  0  0  0  0  0  0  0  0  0  0  0
  -21.5130  -26.0880   11.6900 C   0  0  0  0  0  3  0  0  0  0  0  0
  -20.3050  -26.6460   11.2330 C   0  0  0  0  0  3  0  0  0  0  0  0
  -19.0970  -25.9490   11.4100 C   0  0  0  0  0  3  0  0  0  0  0  0
  -19.1020  -24.6890   12.0360 C   0  0  0  0  0  3  0  0  0  0  0  0
  -28.7410  -26.8740   10.6840 C   0  0  0  0  0  3  0  0  0  0  0  0
  -29.1300  -27.3090   12.1490 C   0  0  1  0  0  0  0  0  0  0  0  0
  -28.0090  -28.0820   12.8780 C   0  0  0  0  0  1  0  0  0  0  0  0
  -29.4860  -26.0750   13.0090 C   0  0  0  0  0  1  0  0  0  0  0  0
  -30.3950  -28.1990   12.1150 C   0  0  0  0  0  1  0  0  0  0  0  0
  -28.6500  -28.0370    9.7930 N   0  0  0  0  0  0  0  0  0  0  0  0
  -29.1370  -28.0750    8.5440 C   0  0  0  0  0  0  0  0  0  0  0  0
  -29.7830  -27.1460    8.0490 O   0  0  0  0  0  0  0  0  0  0  0  0
  -28.0700  -28.8020   10.1050 H   0  0  0  0  0  0  0  0  0  0  0  0
  -27.6790  -29.1030    6.7710 C   0  0  0  0  0  1  0  0  0  0  0  0
  -28.8640  -29.3460    7.7170 C   0  0  0  0  0  3  0  0  0  0  0  0
  -31.1280  -30.2960    7.7750 C   0  0  0  0  0  1  0  0  0  0  0  0
  -30.0350  -29.8050    6.9380 N   0  0  0  0  0  0  0  0  0  0  0  0
  -29.7680  -30.5450    6.2950 H   0  0  0  0  0  0  0  0  0  0  0  0
  -27.3820  -12.7880   24.6230 C   0  0  0  0  0  3  0  0  0  0  0  0
  -26.9470  -11.5620   25.5300 C   0  0  0  0  0  3  0  0  0  0  0  0
  -27.9040  -10.3070   25.6200 C   0  0  0  0  0  0  0  0  0  0  0  0
  -27.9600   -9.4030   24.6050 N   0  0  0  0  0  0  0  0  0  0  0  0
  -28.5790  -10.1540   26.6370 O   0  0  0  0  0  0  0  0  0  0  0  0
  -27.6350   -9.7920   23.7030 H   0  0  0  0  0  0  0  0  0  0  0  0
  -28.3500   -7.9730   24.5020 C   0  0  0  0  0  2  0  0  0  0  0  0
  -28.9790   -7.2470   23.1720 C   0  0  0  0  0  2  0  0  0  0  0  0
  -28.7160   -7.4590   21.5710 C   0  0  0  0  0  2  0  0  0  0  0  0
  -29.9200   -7.7150   20.5190 C   0  0  0  0  0  2  0  0  0  0  0  0
  -30.0300   -9.0530   19.6140 C   0  0  0  0  0  2  0  0  0  0  0  0
  -31.4820   -9.7660   19.3370 C   0  0  0  0  0  2  0  0  0  0  0  0
  -31.9390  -11.1830   20.0260 C   0  0  0  0  0  2  0  0  0  0  0  0
  -33.1140  -11.3890   21.1510 C   0  0  0  0  0  2  0  0  0  0  0  0
  -33.0200  -12.0870   23.7840 C   0  0  0  0  0  0  0  0  0  0  0  0
  -32.3080   -9.9500   24.5370 C   0  0  0  0  0  2  0  0  0  0  0  0
  -32.1410   -9.2660   23.2010 C   0  0  0  0  0  2  0  0  0  0  0  0
  -30.8540   -9.7620   22.5340 C   0  0  0  0  0  2  0  0  0  0  0  0
  -30.2560  -11.1880   22.6240 C   0  0  0  0  0  3  0  0  0  0  0  0
  -30.6150  -11.6750   24.0230 C   0  0  0  0  0  2  0  0  0  0  0  0
  -32.0150  -11.3500   24.2770 N   0  0  0  0  0  0  0  0  0  0  0  0
  -33.9420  -12.4430   24.5190 O   0  0  0  0  0  0  0  0  0  0  0  0
  -33.0510  -12.2960   22.4000 N   0  0  0  0  0  0  0  0  0  0  0  0
  -33.7320  -13.0240   22.2290 H   0  0  0  0  0  0  0  0  0  0  0  0
  -28.2300  -12.2370   21.3090 C   0  0  0  0  0  0  0  0  0  0  0  0
  -26.9170  -11.8300   21.1530 C   0  0  0  0  0  0  0  0  0  0  0  0
  -26.7880  -10.6190   21.8650 C   0  0  0  0  0  0  0  0  0  0  0  0
  -28.8540  -11.3000   22.1190 N   0  0  0  0  0  0  0  0  0  0  0  0
  -27.9570  -10.3450   22.3910 N   0  0  0  0  0  0  0  0  0  0  0  0
  -25.6730   -9.6520   22.0310 C   0  0  0  0  0  0  0  0  0  0  0  0
  -25.2320   -9.1640   23.2870 C   0  0  0  0  0  3  0  0  0  0  0  0
  -24.2110   -8.1820   23.3810 C   0  0  0  0  0  3  0  0  0  0  0  0
  -23.5650   -7.7280   22.2110 C   0  0  0  0  0  0  0  0  0  0  0  0
  -24.0020   -8.2160   20.9620 C   0  0  0  0  0  3  0  0  0  0  0  0
  -25.0370   -9.1600   20.8840 C   0  0  0  0  0  3  0  0  0  0  0  0
  -22.5230   -6.8280   22.2060 O   0  0  0  0  0  0  0  0  0  0  0  0
  -21.6720   -6.7000   23.2770 C   0  0  0  0  0  0  0  0  0  0  0  0
  -20.9930   -7.8060   23.8480 C   0  0  0  0  0  3  0  0  0  0  0  0
  -20.0870   -7.5980   24.9110 C   0  0  0  0  0  3  0  0  0  0  0  0
  -19.8460   -6.2970   25.3830 C   0  0  0  0  0  0  0  0  0  0  0  0
  -20.5170   -5.2000   24.8250 C   0  0  0  0  0  3  0  0  0  0  0  0
  -21.4290   -5.4070   23.7720 C   0  0  0  0  0  0  0  0  0  0  0  0
  -22.0760   -4.3500   23.2290 F   0  0  0  0  0  0  0  0  0  0  0  0
  -18.9610   -6.0980   26.3900 F   0  0  0  0  0  0  0  0  0  0  0  0
  -25.8710  -12.4860   20.3160 C   0  0  0  0  0  0  0  0  0  0  0  0
  -24.6120  -12.3810   20.7480 N   0  0  0  0  0  0  0  0  0  0  0  0
  -26.1570  -13.1230   19.3140 O   0  0  0  0  0  0  0  0  0  0  0  0
  -24.4080  -11.9610   21.6370 H   0  0  0  0  0  0  0  0  0  0  0  0
  -23.8650  -12.8510   20.2600 H   0  0  0  0  0  0  0  0  0  0  0  0
  -28.9370  -13.3180   20.8060 N   0  0  0  0  0  0  0  0  0  0  0  0
  -28.5080  -13.9960   20.1860 H   0  0  0  0  0  0  0  0  0  0  0  0
  -29.9450  -13.4170   20.8600 H   0  0  0  0  0  0  0  0  0  0  0  0
  1 55  1  0
  2  1  1  0
  3  2  1  0
  4  5  1  0
  5  7  1  0
  5  3  1  0
  6  4  2  0
  8  4  1  0
  9  8  1  0
 10  9  1  0
 11 10  1  0
 12 11  1  0
 13 12  1  0
 14 13  1  0
 16 14  1  0
 17 25  1  0
 17 27  1  0
 18 20  2  0
 18 23  1  0
 19 25  1  0
 19 20  1  0
 20 21  1  0
 21 16  2  0
 22 16  1  0
 23 22  2  0
 24 17  1  0
 24 18  1  0
 25 15  1  0
 26 15  2  0
 27 29  2  0
 28 27  1  0
 30 28  1  0
 31 35  1  0
 32 28  1  0
 32 33  1  0
 34 35  1  0
 34 33  1  0
 36 31  1  0
 36 32  1  0
 37 36  2  0
 38 39  2  0
 38 37  1  0
 39 40  1  0
 40 31  2  0
 41 15  1  0
 41 42  1  0
 42 43  1  1
 42 44  1  0
 45 42  1  0
 46 49  1  0
 46 41  1  0
 47 46  1  0
 48 47  2  0
 51 50  1  0
 51 47  1  0
 53 51  1  0
 53 52  1  0
 54 53  1  0
 55 56  2  0
 56 57  1  0
 57 59  2  0
 58 57  1  0
 60 58  1  0
 61 58  1  0
 62 61  1  0
 63 62  1  0
 64 63  1  0
 65 64  1  0
 66 65  1  0
 66 67  1  0
 67 68  1  0
 68 77  1  0
 69 75  1  0
 69 76  2  0
 71 70  1  0
 72 73  1  0
 72 71  1  0
 73 82  1  0
 73 74  1  0
 74 75  1  0
 75 70  1  0
 77 69  1  0
 78 77  1  0
 79 82  1  0
 80 79  2  0
 80 81  1  0
 81 84  1  0
 81 83  2  0
 82 83  1  0
 84 85  1  0
 85 86  2  0
 87 86  1  0
 88 87  2  0
 89 88  1  0
 89 84  2  0
 90 87  1  0
 90 91  1  0
 91 96  2  0
 91 92  1  0
 92 93  2  0
 93 94  1  0
 94 98  1  0
 95 94  2  0
 96 95  1  0
 97 96  1  0
 99100  1  0
 99 80  1  0
100102  1  0
101 99  2  0
103100  1  0
104106  1  0
104 79  1  0
105104  1  0
M  ISO  4  13 101  14 101  69 100  77 100
M  END
>  <TORSDO>  (77) 
F 36

>  <SCORE>  (77) 
23.003

>  <name>  (77) 
85

>  <ligand_id>  (77) 
85

>  <original_smiles>  (77) 
[H]c1c([H])c([H])c2c(c1[H])C([H])([H])C([H])([H])C([H])([H])C2([H])N([H])C(=O)C1([H])N(C(=O)C([H])(N([H])C(=O)C([H])(N([H])C([H])([H])[H])C([H])([H])[H])C(C([H])([H])[H])(C([H])([H])[H])C([H])([H])[H])C([H])([H])c2c([H])c(OC([H])([H])C([H])([H])C([H])([H])C([H])([H])OC([H])([H])C(=O)N([H])C([H])([H])C([H])([H])C([H])([H])C([H])([H])C([H])([H])C(=O)N([H])C([H])([H])C([H])([H])C([H])([H])C([H])([H])C([H])([H])C([H])([H])C([H])([H])C([H])([H])N([H])C(=O)N3C([H])([H])C([H])([H])C([H])([H])C([H])(n4nc(-c5c([H])c([H])c(Oc6c([H])c([H])c(F)c([H])c6F)c([H])c5[H])c(C(=O)N([H])[H])c4N([H])[H])C3([H])[H])c([H])c([H])c2C1([H])[H]

>  <smiles>  (77) 
[H]c1c([H])c([H])c2c(c1[H])C([H])([H])C([H])([H])C([H])([H])C2([H])N([H])C(=O)C1([H])N(C(=O)C([H])(N([H])C(=O)C([H])(N([H])C([H])([H])[H])C([H])([H])[H])C(C([H])([H])[H])(C([H])([H])[H])C([H])([H])[H])C([H])([H])c2c([H])c(OC([H])([H])C([H])([H])C([H])([H])C([H])([H])OC([H])([H])C(=O)N([H])C([H])([H])C([H])([H])C([H])([H])C([H])([H])C([H])([H])C(=O)N([H])C([H])([H])C([H])([H])C([H])([H])C([H])([H])C([H])([H])C([H])([H])C([H])([H])C([H])([H])N([H])C(=O)N3C([H])([H])C([H])([H])C([H])([H])C([H])(n4nc(-c5c([H])c([H])c(Oc6c([H])c([H])c(F)c([H])c6F)c([H])c5[H])c(C(=O)N([H])[H])c4N([H])[H])C3([H])[H])c([H])c([H])c2C1([H])[H]

$$$$
86:0:0
     RDKit          3D

 99106  0  0  1  0  0  0  0  0999 V2000
  -31.5460  -25.9670   23.7990 C   0  0  0  0  0  0  0  0  0  0  0  0
  -30.3470  -26.5160   23.5720 N   0  0  0  0  0  0  0  0  0  0  0  0
  -31.8840  -25.5360   24.9030 O   0  0  0  0  0  0  0  0  0  0  0  0
  -30.1840  -26.8900   22.6460 H   0  0  0  0  0  0  0  0  0  0  0  0
  -29.1670  -26.3730   24.4170 C   0  0  0  0  0  2  0  0  0  0  0  0
  -28.3120  -25.1560   23.9940 C   0  0  0  0  0  2  0  0  0  0  0  0
  -27.7550  -25.2410   22.5550 C   0  0  0  0  0  2  0  0  0  0  0  0
  -28.7180  -24.7750   21.4390 C   0  0  0  0  0  2  0  0  0  0  0  0
  -28.3690  -25.3140   20.0440 C   0  0  0  0  0  2  0  0  0  0  0  0
  -28.4090  -26.7490   20.0430 O   0  0  0  0  0  0  0  0  0  0  0  0
  -24.6140  -31.8700   23.2120 C   0  0  0  0  0  0  0  0  0  0  0  0
  -27.2210  -27.4500   20.0610 C   0  0  0  0  0  0  0  0  0  0  0  0
  -23.3980  -30.4970   21.5540 C   0  0  0  0  0  3  0  0  0  0  0  0
  -24.8370  -28.9680   20.1160 C   0  0  0  0  0  0  0  0  0  0  0  0
  -25.9270  -30.8380   21.3640 C   0  0  0  0  0  2  0  0  0  0  0  0
  -25.9990  -29.4730   20.7140 C   0  0  0  0  0  0  0  0  0  0  0  0
  -27.1910  -28.7190   20.6880 C   0  0  0  0  0  3  0  0  0  0  0  0
  -26.0410  -26.9690   19.4500 C   0  0  0  0  0  3  0  0  0  0  0  0
  -24.8500  -27.7140   19.4900 C   0  0  0  0  0  3  0  0  0  0  0  0
  -23.6010  -29.8340   20.1680 C   0  0  0  0  0  2  0  0  0  0  0  0
  -24.6650  -31.0820   22.1010 N   0  0  0  0  0  0  0  0  0  0  0  0
  -23.5340  -32.1450   23.7530 O   0  0  0  0  0  0  0  0  0  0  0  0
  -22.7390  -29.4690   22.5000 C   0  0  0  0  0  0  0  0  0  0  0  0
  -21.4120  -29.3040   22.3740 N   0  0  0  0  0  0  0  0  0  0  0  0
  -23.4170  -28.8250   23.3050 O   0  0  0  0  0  0  0  0  0  0  0  0
  -20.9260  -29.8750   21.6960 H   0  0  0  0  0  0  0  0  0  0  0  0
  -18.0280  -28.1380   22.8510 C   0  0  0  0  0  0  0  0  0  0  0  0
  -20.5870  -28.3680   23.1350 C   0  0  0  0  0  3  0  0  0  0  0  0
  -20.6780  -26.9410   22.5440 C   0  0  0  0  0  2  0  0  0  0  0  0
  -19.5760  -26.6400   21.5230 C   0  0  0  0  0  2  0  0  0  0  0  0
  -18.1930  -26.7930   22.1630 C   0  0  0  0  0  2  0  0  0  0  0  0
  -19.1530  -28.8840   23.2920 C   0  0  0  0  0  0  0  0  0  0  0  0
  -18.9450  -30.1450   23.8910 C   0  0  0  0  0  3  0  0  0  0  0  0
  -17.6450  -30.6580   24.0590 C   0  0  0  0  0  3  0  0  0  0  0  0
  -16.5340  -29.9090   23.6340 C   0  0  0  0  0  3  0  0  0  0  0  0
  -16.7270  -28.6510   23.0340 C   0  0  0  0  0  3  0  0  0  0  0  0
  -25.9060  -32.4820   23.8380 C   0  0  0  0  0  3  0  0  0  0  0  0
  -25.5930  -33.8630   24.2340 N   0  0  0  0  0  0  0  0  0  0  0  0
  -25.9040  -34.9480   23.5130 C   0  0  0  0  0  0  0  0  0  0  0  0
  -26.5590  -34.8940   22.4680 O   0  0  0  0  0  0  0  0  0  0  0  0
  -25.0100  -33.9780   25.0480 H   0  0  0  0  0  0  0  0  0  0  0  0
  -24.1500  -36.7310   23.2630 C   0  0  0  0  0  1  0  0  0  0  0  0
  -25.4110  -36.3110   24.0350 C   0  0  0  0  0  3  0  0  0  0  0  0
  -27.5610  -37.1780   24.8450 C   0  0  0  0  0  1  0  0  0  0  0  0
  -26.4290  -37.3800   23.9430 N   0  0  0  0  0  0  0  0  0  0  0  0
  -26.0180  -38.2860   24.1470 H   0  0  0  0  0  0  0  0  0  0  0  0
  -26.4510  -31.6590   25.0690 C   0  0  1  0  0  0  0  0  0  0  0  0
  -25.3790  -31.3690   26.1460 C   0  0  0  0  0  1  0  0  0  0  0  0
  -27.0390  -30.3050   24.6060 C   0  0  0  0  0  1  0  0  0  0  0  0
  -27.6100  -32.4310   25.7420 C   0  0  0  0  0  1  0  0  0  0  0  0
  -32.4750  -25.8370   22.5820 C   0  0  0  0  0  2  0  0  0  0  0  0
  -33.3230  -24.5400   22.5420 C   0  0  0  0  0  2  0  0  0  0  0  0
  -31.7970  -22.6490   21.8890 C   0  0  0  0  0  0  0  0  0  0  0  0
  -32.5530  -23.3130   22.7710 N   0  0  0  0  0  0  0  0  0  0  0  0
  -31.6880  -22.9890   20.7100 O   0  0  0  0  0  0  0  0  0  0  0  0
  -32.5700  -22.9510   23.7170 H   0  0  0  0  0  0  0  0  0  0  0  0
  -31.0400  -21.4320   22.4360 C   0  0  0  0  0  2  0  0  0  0  0  0
  -31.0110  -20.2030   21.4970 C   0  0  0  0  0  2  0  0  0  0  0  0
  -30.9440  -18.8830   22.2900 C   0  0  0  0  0  2  0  0  0  0  0  0
  -30.6800  -17.6200   21.4460 C   0  0  0  0  0  2  0  0  0  0  0  0
  -30.9280  -16.3320   22.2600 C   0  0  0  0  0  2  0  0  0  0  0  0
  -30.7650  -14.3770   20.6930 C   0  0  0  0  0  0  0  0  0  0  0  0
  -30.4240  -12.3030   19.3940 C   0  0  0  0  0  2  0  0  0  0  0  0
  -29.4860  -12.5240   18.1910 C   0  0  0  0  0  2  0  0  0  0  0  0
  -28.0100  -12.3740   18.6080 C   0  0  0  0  0  2  0  0  0  0  0  0
  -27.6630  -13.1980   19.8750 C   0  0  0  0  0  3  0  0  0  0  0  0
  -28.7030  -12.9500   20.9890 C   0  0  0  0  0  2  0  0  0  0  0  0
  -30.0460  -13.2480   20.4550 N   0  0  0  0  0  0  0  0  0  0  0  0
  -31.7960  -14.6710   20.0800 O   0  0  0  0  0  0  0  0  0  0  0  0
  -30.2970  -15.1440   21.6850 N   0  0  0  0  0  0  0  0  0  0  0  0
  -29.4540  -14.8160   22.1340 H   0  0  0  0  0  0  0  0  0  0  0  0
  -25.2590  -13.8160   20.5650 C   0  0  0  0  0  0  0  0  0  0  0  0
  -24.1820  -13.0460   20.9160 C   0  0  0  0  0  0  0  0  0  0  0  0
  -24.6350  -11.6920   20.8700 C   0  0  0  0  0  0  0  0  0  0  0  0
  -26.3010  -12.9310   20.3340 N   0  0  0  0  0  0  0  0  0  0  0  0
  -25.9270  -11.6480   20.5710 N   0  0  0  0  0  0  0  0  0  0  0  0
  -23.9010  -10.4310   21.0380 C   0  0  0  0  0  0  0  0  0  0  0  0
  -24.3580   -9.4230   21.9160 C   0  0  0  0  0  3  0  0  0  0  0  0
  -23.6280   -8.2250   22.0740 C   0  0  0  0  0  3  0  0  0  0  0  0
  -22.4250   -8.0280   21.3550 C   0  0  0  0  0  0  0  0  0  0  0  0
  -21.9880   -9.0240   20.4650 C   0  0  0  0  0  3  0  0  0  0  0  0
  -22.7190  -10.2120   20.3040 C   0  0  0  0  0  3  0  0  0  0  0  0
  -21.6630   -6.8870   21.4250 O   0  0  0  0  0  0  0  0  0  0  0  0
  -21.6850   -6.0730   22.5290 C   0  0  0  0  0  0  0  0  0  0  0  0
  -21.4010   -6.5630   23.8220 C   0  0  0  0  0  3  0  0  0  0  0  0
  -21.3660   -5.6780   24.9180 C   0  0  0  0  0  3  0  0  0  0  0  0
  -21.6040   -4.3050   24.7220 C   0  0  0  0  0  0  0  0  0  0  0  0
  -21.8820   -3.8140   23.4350 C   0  0  0  0  0  3  0  0  0  0  0  0
  -21.9190   -4.6960   22.3410 C   0  0  0  0  0  0  0  0  0  0  0  0
  -22.1670   -4.2150   21.0980 F   0  0  0  0  0  0  0  0  0  0  0  0
  -21.5630   -3.4540   25.7740 F   0  0  0  0  0  0  0  0  0  0  0  0
  -22.7860  -13.5280   21.1850 C   0  0  0  0  0  0  0  0  0  0  0  0
  -22.0470  -12.8280   22.0400 N   0  0  0  0  0  0  0  0  0  0  0  0
  -22.3550  -14.5580   20.6690 O   0  0  0  0  0  0  0  0  0  0  0  0
  -22.4060  -11.9960   22.4850 H   0  0  0  0  0  0  0  0  0  0  0  0
  -21.1070  -13.1300   22.2570 H   0  0  0  0  0  0  0  0  0  0  0  0
  -25.4390  -15.1870   20.4050 N   0  0  0  0  0  0  0  0  0  0  0  0
  -24.6880  -15.8590   20.5210 H   0  0  0  0  0  0  0  0  0  0  0  0
  -26.3080  -15.6140   20.1090 H   0  0  0  0  0  0  0  0  0  0  0  0
  1  3  2  0
  2  1  1  0
  2  5  1  0
  4  2  1  0
  6  5  1  0
  7  6  1  0
  8  7  1  0
  9  8  1  0
 10  9  1  0
 10 12  1  0
 11 22  2  0
 12 17  1  0
 13 21  1  0
 13 23  1  0
 14 20  1  0
 14 16  1  0
 15 21  1  0
 16 15  1  0
 17 16  2  0
 18 19  1  0
 18 12  2  0
 19 14  2  0
 20 13  1  0
 21 11  1  0
 23 25  2  0
 24 23  1  0
 26 24  1  0
 27 36  2  0
 27 32  1  0
 28 24  1  0
 28 32  1  0
 29 28  1  0
 30 31  1  0
 30 29  1  0
 31 27  1  0
 32 33  2  0
 33 34  1  0
 35 34  2  0
 36 35  1  0
 37 11  1  0
 37 38  1  0
 37 47  1  0
 38 41  1  0
 39 43  1  0
 39 38  1  0
 40 39  2  0
 43 42  1  0
 45 43  1  0
 45 46  1  0
 45 44  1  0
 47 50  1  1
 47 48  1  0
 49 47  1  0
 51  1  1  0
 52 51  1  0
 52 54  1  0
 53 57  1  0
 53 54  1  0
 54 56  1  0
 55 53  2  0
 58 59  1  0
 58 57  1  0
 60 61  1  0
 60 59  1  0
 62 70  1  0
 63 68  1  0
 64 65  1  0
 64 63  1  0
 66 65  1  0
 66 75  1  0
 66 67  1  0
 68 62  1  0
 68 67  1  0
 69 62  2  0
 70 71  1  0
 70 61  1  0
 72 73  2  0
 73 92  1  0
 74 73  1  0
 74 77  1  0
 75 72  1  0
 75 76  1  0
 76 74  2  0
 77 78  1  0
 78 79  2  0
 80 83  1  0
 80 79  1  0
 81 80  2  0
 82 81  1  0
 82 77  2  0
 83 84  1  0
 84 85  1  0
 85 86  2  0
 87 86  1  0
 87 91  1  0
 88 87  2  0
 89 84  2  0
 89 88  1  0
 90 89  1  0
 92 93  1  0
 93 96  1  0
 93 95  1  0
 94 92  2  0
 97 98  1  0
 97 72  1  0
 99 97  1  0
M  ISO  4   9 101  10 101  62 100  70 100
M  END
>  <TORSDO>  (78) 
F 29

>  <SCORE>  (78) 
4.748

>  <name>  (78) 
86

>  <ligand_id>  (78) 
86

>  <original_smiles>  (78) 
[H]c1c([H])c([H])c2c(c1[H])C([H])([H])C([H])([H])C([H])([H])C2([H])N([H])C(=O)C1([H])N(C(=O)C([H])(N([H])C(=O)C([H])(N([H])C([H])([H])[H])C([H])([H])[H])C(C([H])([H])[H])(C([H])([H])[H])C([H])([H])[H])C([H])([H])c2c([H])c(OC([H])([H])C([H])([H])C([H])([H])C([H])([H])C([H])([H])N([H])C(=O)C([H])([H])C([H])([H])N([H])C(=O)C([H])([H])C([H])([H])C([H])([H])C([H])([H])C([H])([H])N([H])C(=O)N3C([H])([H])C([H])([H])C([H])([H])C([H])(n4nc(-c5c([H])c([H])c(Oc6c([H])c([H])c(F)c([H])c6F)c([H])c5[H])c(C(=O)N([H])[H])c4N([H])[H])C3([H])[H])c([H])c([H])c2C1([H])[H]

>  <smiles>  (78) 
[H]c1c([H])c([H])c2c(c1[H])C([H])([H])C([H])([H])C([H])([H])C2([H])N([H])C(=O)C1([H])N(C(=O)C([H])(N([H])C(=O)C([H])(N([H])C([H])([H])[H])C([H])([H])[H])C(C([H])([H])[H])(C([H])([H])[H])C([H])([H])[H])C([H])([H])c2c([H])c(OC([H])([H])C([H])([H])C([H])([H])C([H])([H])C([H])([H])N([H])C(=O)C([H])([H])C([H])([H])N([H])C(=O)C([H])([H])C([H])([H])C([H])([H])C([H])([H])C([H])([H])N([H])C(=O)N3C([H])([H])C([H])([H])C([H])([H])C([H])(n4nc(-c5c([H])c([H])c(Oc6c([H])c([H])c(F)c([H])c6F)c([H])c5[H])c(C(=O)N([H])[H])c4N([H])[H])C3([H])[H])c([H])c([H])c2C1([H])[H]

$$$$
87:0:0
     RDKit          3D

102109  0  0  1  0  0  0  0  0999 V2000
  -36.2360  -26.6690   21.1860 C   0  0  0  0  0  2  0  0  0  0  0  0
  -33.8820  -27.4370   21.3990 C   0  0  0  0  0  0  0  0  0  0  0  0
  -34.9490  -26.7820   21.8680 N   0  0  0  0  0  0  0  0  0  0  0  0
  -33.9170  -28.1000   20.3570 O   0  0  0  0  0  0  0  0  0  0  0  0
  -34.8470  -26.2870   22.7450 H   0  0  0  0  0  0  0  0  0  0  0  0
  -32.5880  -27.3270   22.2140 C   0  0  0  0  0  2  0  0  0  0  0  0
  -30.7610  -26.8260   20.6010 C   0  0  0  0  0  0  0  0  0  0  0  0
  -31.4110  -27.6680   21.4140 N   0  0  0  0  0  0  0  0  0  0  0  0
  -31.0410  -25.6260   20.5300 O   0  0  0  0  0  0  0  0  0  0  0  0
  -31.1450  -28.6430   21.3960 H   0  0  0  0  0  0  0  0  0  0  0  0
  -29.6350  -27.4090   19.7370 C   0  0  0  0  0  2  0  0  0  0  0  0
  -28.4080  -26.7340   20.0300 O   0  0  0  0  0  0  0  0  0  0  0  0
  -24.6080  -31.8720   23.2140 C   0  0  0  0  0  0  0  0  0  0  0  0
  -27.2620  -27.4910   20.0870 C   0  0  0  0  0  0  0  0  0  0  0  0
  -23.3950  -30.4910   21.5520 C   0  0  0  0  0  3  0  0  0  0  0  0
  -24.8470  -28.9600   20.1190 C   0  0  0  0  0  0  0  0  0  0  0  0
  -25.9150  -30.8530   21.3590 C   0  0  0  0  0  2  0  0  0  0  0  0
  -25.9990  -29.4880   20.7150 C   0  0  0  0  0  0  0  0  0  0  0  0
  -27.2020  -28.7570   20.7130 C   0  0  0  0  0  3  0  0  0  0  0  0
  -26.0890  -26.9560   19.5150 C   0  0  0  0  0  3  0  0  0  0  0  0
  -24.8830  -27.6860   19.5220 C   0  0  0  0  0  3  0  0  0  0  0  0
  -23.6030  -29.8170   20.1680 C   0  0  0  0  0  2  0  0  0  0  0  0
  -24.6570  -31.0850   22.1010 N   0  0  0  0  0  0  0  0  0  0  0  0
  -23.5280  -32.1450   23.7560 O   0  0  0  0  0  0  0  0  0  0  0  0
  -22.7380  -29.4670   22.5020 C   0  0  0  0  0  0  0  0  0  0  0  0
  -21.4110  -29.3010   22.3760 N   0  0  0  0  0  0  0  0  0  0  0  0
  -23.4170  -28.8220   23.3050 O   0  0  0  0  0  0  0  0  0  0  0  0
  -20.9260  -29.8720   21.6980 H   0  0  0  0  0  0  0  0  0  0  0  0
  -18.0260  -28.1360   22.8500 C   0  0  0  0  0  0  0  0  0  0  0  0
  -20.5850  -28.3640   23.1340 C   0  0  0  0  0  3  0  0  0  0  0  0
  -20.6750  -26.9380   22.5430 C   0  0  0  0  0  2  0  0  0  0  0  0
  -19.5740  -26.6380   21.5210 C   0  0  0  0  0  2  0  0  0  0  0  0
  -18.1910  -26.7910   22.1620 C   0  0  0  0  0  2  0  0  0  0  0  0
  -19.1510  -28.8820   23.2910 C   0  0  0  0  0  0  0  0  0  0  0  0
  -18.9440  -30.1430   23.8920 C   0  0  0  0  0  3  0  0  0  0  0  0
  -17.6440  -30.6580   24.0560 C   0  0  0  0  0  3  0  0  0  0  0  0
  -16.5340  -29.9080   23.6320 C   0  0  0  0  0  3  0  0  0  0  0  0
  -16.7250  -28.6500   23.0350 C   0  0  0  0  0  3  0  0  0  0  0  0
  -25.8990  -32.4840   23.8420 C   0  0  0  0  0  3  0  0  0  0  0  0
  -25.5870  -33.8640   24.2350 N   0  0  0  0  0  0  0  0  0  0  0  0
  -25.9020  -34.9490   23.5140 C   0  0  0  0  0  0  0  0  0  0  0  0
  -26.5580  -34.8930   22.4700 O   0  0  0  0  0  0  0  0  0  0  0  0
  -25.0040  -33.9820   25.0510 H   0  0  0  0  0  0  0  0  0  0  0  0
  -24.1490  -36.7330   23.2640 C   0  0  0  0  0  1  0  0  0  0  0  0
  -25.4100  -36.3130   24.0340 C   0  0  0  0  0  3  0  0  0  0  0  0
  -27.5580  -37.1810   24.8460 C   0  0  0  0  0  1  0  0  0  0  0  0
  -26.4300  -37.3800   23.9410 N   0  0  0  0  0  0  0  0  0  0  0  0
  -26.0190  -38.2890   24.1410 H   0  0  0  0  0  0  0  0  0  0  0  0
  -26.4450  -31.6600   25.0720 C   0  0  1  0  0  0  0  0  0  0  0  0
  -25.3740  -31.3690   26.1480 C   0  0  0  0  0  1  0  0  0  0  0  0
  -27.0270  -30.3060   24.6040 C   0  0  0  0  0  1  0  0  0  0  0  0
  -27.6050  -32.4310   25.7460 C   0  0  0  0  0  1  0  0  0  0  0  0
  -36.1900  -25.5940   20.0840 C   0  0  0  0  0  2  0  0  0  0  0  0
  -35.9750  -24.1700   20.6260 C   0  0  0  0  0  2  0  0  0  0  0  0
  -35.6970  -23.1500   19.5080 C   0  0  0  0  0  2  0  0  0  0  0  0
  -35.7780  -21.6840   19.9710 C   0  0  0  0  0  2  0  0  0  0  0  0
  -34.6830  -21.2410   20.9680 C   0  0  0  0  0  2  0  0  0  0  0  0
  -33.7500  -20.2580   20.3780 N   0  0  0  0  0  4  0  0  0  0  0  0
  -34.2930  -19.5800   19.8690 H   0  0  0  0  0  0  0  0  0  0  0  0
  -33.1500  -20.7290   19.7200 H   0  0  0  0  0  0  0  0  0  0  0  0
  -32.9300  -19.5200   21.3640 C   0  0  0  0  0  2  0  0  0  0  0  0
  -31.8840  -18.6280   20.6700 C   0  0  0  0  0  2  0  0  0  0  0  0
  -31.3390  -17.4880   21.5500 C   0  0  0  0  0  2  0  0  0  0  0  0
  -30.1550  -16.7800   20.8640 C   0  0  0  0  0  2  0  0  0  0  0  0
  -30.7150  -14.3970   20.5980 C   0  0  0  0  0  0  0  0  0  0  0  0
  -30.4200  -12.2680   19.4070 C   0  0  0  0  0  2  0  0  0  0  0  0
  -29.4940  -12.5210   18.2000 C   0  0  0  0  0  2  0  0  0  0  0  0
  -28.0130  -12.3890   18.6080 C   0  0  0  0  0  2  0  0  0  0  0  0
  -27.6710  -13.2020   19.8860 C   0  0  0  0  0  3  0  0  0  0  0  0
  -28.7090  -12.9280   20.9990 C   0  0  0  0  0  2  0  0  0  0  0  0
  -30.0510  -13.2220   20.4630 N   0  0  0  0  0  0  0  0  0  0  0  0
  -31.8020  -14.6310   20.0590 O   0  0  0  0  0  0  0  0  0  0  0  0
  -30.0240  -15.3670   21.2100 N   0  0  0  0  0  0  0  0  0  0  0  0
  -29.1690  -15.0810   21.6660 H   0  0  0  0  0  0  0  0  0  0  0  0
  -25.2610  -13.8160   20.5670 C   0  0  0  0  0  0  0  0  0  0  0  0
  -24.1850  -13.0440   20.9150 C   0  0  0  0  0  0  0  0  0  0  0  0
  -24.6400  -11.6910   20.8720 C   0  0  0  0  0  0  0  0  0  0  0  0
  -26.3070  -12.9330   20.3400 N   0  0  0  0  0  0  0  0  0  0  0  0
  -25.9330  -11.6480   20.5750 N   0  0  0  0  0  0  0  0  0  0  0  0
  -23.9060  -10.4300   21.0400 C   0  0  0  0  0  0  0  0  0  0  0  0
  -24.3620   -9.4210   21.9180 C   0  0  0  0  0  3  0  0  0  0  0  0
  -23.6300   -8.2240   22.0760 C   0  0  0  0  0  3  0  0  0  0  0  0
  -22.4280   -8.0280   21.3530 C   0  0  0  0  0  0  0  0  0  0  0  0
  -21.9910   -9.0260   20.4640 C   0  0  0  0  0  3  0  0  0  0  0  0
  -22.7240  -10.2140   20.3050 C   0  0  0  0  0  3  0  0  0  0  0  0
  -21.6630   -6.8880   21.4230 O   0  0  0  0  0  0  0  0  0  0  0  0
  -21.6860   -6.0740   22.5270 C   0  0  0  0  0  0  0  0  0  0  0  0
  -21.4030   -6.5640   23.8220 C   0  0  0  0  0  3  0  0  0  0  0  0
  -21.3660   -5.6790   24.9170 C   0  0  0  0  0  3  0  0  0  0  0  0
  -21.6030   -4.3050   24.7220 C   0  0  0  0  0  0  0  0  0  0  0  0
  -21.8810   -3.8140   23.4340 C   0  0  0  0  0  3  0  0  0  0  0  0
  -21.9190   -4.6970   22.3400 C   0  0  0  0  0  0  0  0  0  0  0  0
  -22.1650   -4.2150   21.0980 F   0  0  0  0  0  0  0  0  0  0  0  0
  -21.5640   -3.4530   25.7730 F   0  0  0  0  0  0  0  0  0  0  0  0
  -22.7870  -13.5240   21.1800 C   0  0  0  0  0  0  0  0  0  0  0  0
  -22.0490  -12.8270   22.0380 N   0  0  0  0  0  0  0  0  0  0  0  0
  -22.3550  -14.5540   20.6630 O   0  0  0  0  0  0  0  0  0  0  0  0
  -22.4100  -11.9960   22.4810 H   0  0  0  0  0  0  0  0  0  0  0  0
  -21.1100  -13.1320   22.2550 H   0  0  0  0  0  0  0  0  0  0  0  0
  -25.4360  -15.1870   20.4090 N   0  0  0  0  0  0  0  0  0  0  0  0
  -24.6740  -15.8480   20.5170 H   0  0  0  0  0  0  0  0  0  0  0  0
  -26.2940  -15.6210   20.0940 H   0  0  0  0  0  0  0  0  0  0  0  0
  1  3  1  0
  2  3  1  0
  2  6  1  0
  3  5  1  0
  4  2  2  0
  7  8  1  0
  8  6  1  0
  9  7  2  0
 10  8  1  0
 11 12  1  0
 11  7  1  0
 12 14  1  0
 13 24  2  0
 14 19  1  0
 15 23  1  0
 15 25  1  0
 16 22  1  0
 16 18  1  0
 17 23  1  0
 18 17  1  0
 19 18  2  0
 20 21  1  0
 20 14  2  0
 21 16  2  0
 22 15  1  0
 23 13  1  0
 25 27  2  0
 26 25  1  0
 28 26  1  0
 29 38  2  0
 29 34  1  0
 30 26  1  0
 30 34  1  0
 31 30  1  0
 32 33  1  0
 32 31  1  0
 33 29  1  0
 34 35  2  0
 35 36  1  0
 37 36  2  0
 38 37  1  0
 39 13  1  0
 39 40  1  0
 39 49  1  0
 40 43  1  0
 41 45  1  0
 41 40  1  0
 42 41  2  0
 45 44  1  0
 47 45  1  0
 47 48  1  0
 47 46  1  0
 49 52  1  1
 49 50  1  0
 51 49  1  0
 53 54  1  0
 53  1  1  0
 55 56  1  0
 55 54  1  0
 56 57  1  0
 58 57  1  0
 58 61  1  0
 59 58  1  0
 60 58  1  0
 62 61  1  0
 62 63  1  0
 64 73  1  0
 64 63  1  0
 65 73  1  0
 66 71  1  0
 67 68  1  0
 67 66  1  0
 69 68  1  0
 69 78  1  0
 69 70  1  0
 71 65  1  0
 71 70  1  0
 72 65  2  0
 73 74  1  0
 75 76  2  0
 76 95  1  0
 77 76  1  0
 77 80  1  0
 78 75  1  0
 78 79  1  0
 79 77  2  0
 80 81  1  0
 81 82  2  0
 83 86  1  0
 83 82  1  0
 84 83  2  0
 85 84  1  0
 85 80  2  0
 86 87  1  0
 87 88  1  0
 88 89  2  0
 90 89  1  0
 90 94  1  0
 91 90  2  0
 92 87  2  0
 92 91  1  0
 93 92  1  0
 95 96  1  0
 96 99  1  0
 96 98  1  0
 97 95  2  0
100101  1  0
100 75  1  0
102100  1  0
M  ISO  4  11 101  12 101  65 100  73 100
M  END
>  <TORSDO>  (79) 
F 30

>  <SCORE>  (79) 
-10.991

>  <name>  (79) 
87

>  <ligand_id>  (79) 
87

>  <original_smiles>  (79) 
[H]c1c([H])c([H])c2c(c1[H])C([H])([H])C([H])([H])C([H])([H])C2([H])N([H])C(=O)C1([H])N(C(=O)C([H])(N([H])C(=O)C([H])(N([H])C([H])([H])[H])C([H])([H])[H])C(C([H])([H])[H])(C([H])([H])[H])C([H])([H])[H])C([H])([H])c2c([H])c(OC([H])([H])C(=O)N([H])C([H])([H])C(=O)N([H])C([H])([H])C([H])([H])C([H])([H])C([H])([H])C([H])([H])C([H])([H])[N+]([H])([H])C([H])([H])C([H])([H])C([H])([H])C([H])([H])N([H])C(=O)N3C([H])([H])C([H])([H])C([H])([H])C([H])(n4nc(-c5c([H])c([H])c(Oc6c([H])c([H])c(F)c([H])c6F)c([H])c5[H])c(C(=O)N([H])[H])c4N([H])[H])C3([H])[H])c([H])c([H])c2C1([H])[H]

>  <smiles>  (79) 
[H]c1c([H])c([H])c2c(c1[H])C([H])([H])C([H])([H])C([H])([H])C2([H])N([H])C(=O)C1([H])N(C(=O)C([H])(N([H])C(=O)C([H])(N([H])C([H])([H])[H])C([H])([H])[H])C(C([H])([H])[H])(C([H])([H])[H])C([H])([H])[H])C([H])([H])c2c([H])c(OC([H])([H])C(=O)N([H])C([H])([H])C(=O)N([H])C([H])([H])C([H])([H])C([H])([H])C([H])([H])C([H])([H])C([H])([H])[N+]([H])([H])C([H])([H])C([H])([H])C([H])([H])C([H])([H])N([H])C(=O)N3C([H])([H])C([H])([H])C([H])([H])C([H])(n4nc(-c5c([H])c([H])c(Oc6c([H])c([H])c(F)c([H])c6F)c([H])c5[H])c(C(=O)N([H])[H])c4N([H])[H])C3([H])[H])c([H])c([H])c2C1([H])[H]

$$$$
88:0:0
     RDKit          3D

100107  0  0  1  0  0  0  0  0999 V2000
  -23.0440  -23.4950   23.7000 C   0  0  0  0  0  2  0  0  0  0  0  0
  -23.9760  -25.7210   23.0270 C   0  0  0  0  0  0  0  0  0  0  0  0
  -23.1670  -24.6690   22.8420 N   0  0  0  0  0  0  0  0  0  0  0  0
  -24.7230  -25.8380   24.0010 O   0  0  0  0  0  0  0  0  0  0  0  0
  -22.5960  -24.6790   22.0060 H   0  0  0  0  0  0  0  0  0  0  0  0
  -23.9500  -26.7900   21.9340 C   0  0  0  0  0  2  0  0  0  0  0  0
  -24.9340  -26.4960   20.9420 O   0  0  0  0  0  0  0  0  0  0  0  0
  -24.6600  -27.2140   19.7500 C   0  0  0  0  0  2  0  0  0  0  0  0
  -25.5860  -26.8370   18.5780 C   0  0  0  0  0  2  0  0  0  0  0  0
  -25.4290  -27.7040   17.2980 C   0  0  0  0  0  2  0  0  0  0  0  0
  -25.6830  -29.1050   17.4810 O   0  0  0  0  0  0  0  0  0  0  0  0
  -25.7630  -30.3090   24.4690 C   0  0  0  0  0  0  0  0  0  0  0  0
  -25.0470  -29.7460   18.5220 C   0  0  0  0  0  0  0  0  0  0  0  0
  -23.6590  -30.8860   23.3060 C   0  0  0  0  0  3  0  0  0  0  0  0
  -23.7670  -30.9100   20.7580 C   0  0  0  0  0  0  0  0  0  0  0  0
  -25.8940  -30.9630   22.0700 C   0  0  0  0  0  2  0  0  0  0  0  0
  -25.1380  -30.6300   20.8030 C   0  0  0  0  0  0  0  0  0  0  0  0
  -25.7820  -30.0470   19.6890 C   0  0  0  0  0  3  0  0  0  0  0  0
  -23.6690  -30.0740   18.4790 C   0  0  0  0  0  3  0  0  0  0  0  0
  -23.0270  -30.6280   19.5990 C   0  0  0  0  0  3  0  0  0  0  0  0
  -23.1510  -31.5320   21.9890 C   0  0  0  0  0  2  0  0  0  0  0  0
  -25.1430  -30.6820   23.3150 N   0  0  0  0  0  0  0  0  0  0  0  0
  -25.1280  -30.1780   25.5250 O   0  0  0  0  0  0  0  0  0  0  0  0
  -22.8540  -29.5900   23.5550 C   0  0  0  0  0  0  0  0  0  0  0  0
  -21.5340  -29.6510   23.3180 N   0  0  0  0  0  0  0  0  0  0  0  0
  -23.4180  -28.5550   23.9190 O   0  0  0  0  0  0  0  0  0  0  0  0
  -21.1470  -30.5380   23.0250 H   0  0  0  0  0  0  0  0  0  0  0  0
  -18.2750  -28.4800   22.2900 C   0  0  0  0  0  0  0  0  0  0  0  0
  -20.5860  -28.5450   23.4440 C   0  0  0  0  0  3  0  0  0  0  0  0
  -20.9750  -27.3760   22.5140 C   0  0  0  0  0  2  0  0  0  0  0  0
  -20.2730  -27.4220   21.1530 C   0  0  0  0  0  2  0  0  0  0  0  0
  -18.7510  -27.4030   21.3320 C   0  0  0  0  0  2  0  0  0  0  0  0
  -19.1410  -29.0250   23.2730 C   0  0  0  0  0  0  0  0  0  0  0  0
  -18.6600  -30.0470   24.1180 C   0  0  0  0  0  3  0  0  0  0  0  0
  -17.3380  -30.5180   24.0020 C   0  0  0  0  0  3  0  0  0  0  0  0
  -16.4780  -29.9610   23.0380 C   0  0  0  0  0  3  0  0  0  0  0  0
  -16.9460  -28.9450   22.1880 C   0  0  0  0  0  3  0  0  0  0  0  0
  -27.3010  -30.0550   24.5220 C   0  0  0  0  0  3  0  0  0  0  0  0
  -27.8520  -30.9000   25.5870 N   0  0  0  0  0  0  0  0  0  0  0  0
  -28.4740  -32.0690   25.3840 C   0  0  0  0  0  0  0  0  0  0  0  0
  -28.7100  -32.5160   24.2590 O   0  0  0  0  0  0  0  0  0  0  0  0
  -27.6470  -30.6210   26.5350 H   0  0  0  0  0  0  0  0  0  0  0  0
  -27.8930  -34.0070   26.8790 C   0  0  0  0  0  1  0  0  0  0  0  0
  -28.9000  -32.8730   26.6300 C   0  0  0  0  0  3  0  0  0  0  0  0
  -31.3090  -32.4090   26.5610 C   0  0  0  0  0  1  0  0  0  0  0  0
  -30.2670  -33.4300   26.5280 N   0  0  0  0  0  0  0  0  0  0  0  0
  -30.4440  -34.0860   27.2840 H   0  0  0  0  0  0  0  0  0  0  0  0
  -27.6710  -28.5400   24.7640 C   0  0  1  0  0  0  0  0  0  0  0  0
  -26.9290  -27.9030   25.9620 C   0  0  0  0  0  1  0  0  0  0  0  0
  -27.3550  -27.6940   23.5090 C   0  0  0  0  0  1  0  0  0  0  0  0
  -29.1920  -28.4060   25.0130 C   0  0  0  0  0  1  0  0  0  0  0  0
  -24.1430  -22.4680   23.3720 C   0  0  0  0  0  2  0  0  0  0  0  0
  -25.5050  -23.1050   23.0510 C   0  0  0  0  0  2  0  0  0  0  0  0
  -25.8150  -23.1480   21.5450 C   0  0  0  0  0  2  0  0  0  0  0  0
  -27.3110  -23.3750   21.2430 C   0  0  0  0  0  2  0  0  0  0  0  0
  -27.6090  -24.5150   20.2490 C   0  0  0  0  0  2  0  0  0  0  0  0
  -29.1240  -24.6420   20.0020 C   0  0  0  0  0  2  0  0  0  0  0  0
  -30.6890  -25.8750   18.5470 C   0  0  0  0  0  0  0  0  0  0  0  0
  -29.4490  -25.4600   18.8350 N   0  0  0  0  0  0  0  0  0  0  0  0
  -31.6490  -25.6640   19.2910 O   0  0  0  0  0  0  0  0  0  0  0  0
  -28.7160  -25.6630   18.1670 H   0  0  0  0  0  0  0  0  0  0  0  0
  -30.9210  -26.5560   17.2000 C   0  0  0  0  0  2  0  0  0  0  0  0
  -31.5850  -25.3810   15.0750 C   0  0  0  0  0  0  0  0  0  0  0  0
  -32.2520  -23.8040   13.2880 C   0  0  0  0  0  2  0  0  0  0  0  0
  -31.1500  -22.7700   12.9920 C   0  0  0  0  0  2  0  0  0  0  0  0
  -31.2170  -21.5760   13.9650 C   0  0  0  0  0  2  0  0  0  0  0  0
  -31.3160  -22.0250   15.4450 C   0  0  0  0  0  3  0  0  0  0  0  0
  -32.4370  -23.0720   15.6020 C   0  0  0  0  0  2  0  0  0  0  0  0
  -32.1530  -24.2070   14.6960 N   0  0  0  0  0  0  0  0  0  0  0  0
  -31.1120  -26.2100   14.2910 O   0  0  0  0  0  0  0  0  0  0  0  0
  -31.6130  -25.5670   16.3940 N   0  0  0  0  0  0  0  0  0  0  0  0
  -32.0990  -24.8580   16.9230 H   0  0  0  0  0  0  0  0  0  0  0  0
  -30.9960  -20.6540   17.6040 C   0  0  0  0  0  0  0  0  0  0  0  0
  -31.4410  -19.4110   17.9700 C   0  0  0  0  0  0  0  0  0  0  0  0
  -32.2320  -18.9380   16.8790 C   0  0  0  0  0  0  0  0  0  0  0  0
  -31.5160  -20.8850   16.3390 N   0  0  0  0  0  0  0  0  0  0  0  0
  -32.3090  -19.8610   15.9300 N   0  0  0  0  0  0  0  0  0  0  0  0
  -32.8760  -17.6390   16.6560 C   0  0  0  0  0  0  0  0  0  0  0  0
  -34.2360  -17.5420   16.2840 C   0  0  0  0  0  3  0  0  0  0  0  0
  -34.8360  -16.2790   16.0920 C   0  0  0  0  0  3  0  0  0  0  0  0
  -34.0780  -15.0980   16.2750 C   0  0  0  0  0  0  0  0  0  0  0  0
  -32.7200  -15.2020   16.6230 C   0  0  0  0  0  3  0  0  0  0  0  0
  -32.1230  -16.4590   16.8080 C   0  0  0  0  0  3  0  0  0  0  0  0
  -34.5700  -13.8300   16.0830 O   0  0  0  0  0  0  0  0  0  0  0  0
  -35.9140  -13.5620   16.1430 C   0  0  0  0  0  0  0  0  0  0  0  0
  -36.6760  -13.8310   17.3010 C   0  0  0  0  0  3  0  0  0  0  0  0
  -38.0390  -13.4760   17.3450 C   0  0  0  0  0  3  0  0  0  0  0  0
  -38.6400  -12.8460   16.2380 C   0  0  0  0  0  0  0  0  0  0  0  0
  -37.8810  -12.5740   15.0860 C   0  0  0  0  0  3  0  0  0  0  0  0
  -36.5210  -12.9300   15.0390 C   0  0  0  0  0  0  0  0  0  0  0  0
  -35.7910  -12.6470   13.9350 F   0  0  0  0  0  0  0  0  0  0  0  0
  -39.9470  -12.4990   16.2830 F   0  0  0  0  0  0  0  0  0  0  0  0
  -31.0800  -18.6650   19.2220 C   0  0  0  0  0  0  0  0  0  0  0  0
  -31.9930  -17.8460   19.7360 N   0  0  0  0  0  0  0  0  0  0  0  0
  -29.9990  -18.8370   19.7810 O   0  0  0  0  0  0  0  0  0  0  0  0
  -32.8890  -17.7130   19.2920 H   0  0  0  0  0  0  0  0  0  0  0  0
  -31.7900  -17.3450   20.5890 H   0  0  0  0  0  0  0  0  0  0  0  0
  -30.1840  -21.5940   18.2330 N   0  0  0  0  0  0  0  0  0  0  0  0
  -29.7750  -21.4290   19.1470 H   0  0  0  0  0  0  0  0  0  0  0  0
  -29.9080  -22.4800   17.8330 H   0  0  0  0  0  0  0  0  0  0  0  0
  2  4  2  0
  3  2  1  0
  3  1  1  0
  5  3  1  0
  6  2  1  0
  7  6  1  0
  8  7  1  0
  9  8  1  0
 10 11  1  0
 10  9  1  0
 11 13  1  0
 12 23  2  0
 13 18  1  0
 14 22  1  0
 14 24  1  0
 15 17  1  0
 15 21  1  0
 16 22  1  0
 17 16  1  0
 18 17  2  0
 19 13  2  0
 19 20  1  0
 20 15  2  0
 21 14  1  0
 22 12  1  0
 24 26  2  0
 25 24  1  0
 27 25  1  0
 28 33  1  0
 29 25  1  0
 30 29  1  0
 31 32  1  0
 31 30  1  0
 32 28  1  0
 33 29  1  0
 33 34  2  0
 35 34  1  0
 36 35  2  0
 37 28  2  0
 37 36  1  0
 38 12  1  0
 38 48  1  0
 38 39  1  0
 39 42  1  0
 40 39  1  0
 40 44  1  0
 41 40  2  0
 44 43  1  0
 46 45  1  0
 46 44  1  0
 46 47  1  0
 48 51  1  1
 48 49  1  0
 50 48  1  0
 52  1  1  0
 53 52  1  0
 54 53  1  0
 55 54  1  0
 56 55  1  0
 57 56  1  0
 58 59  1  0
 58 60  2  0
 59 57  1  0
 61 59  1  0
 62 58  1  0
 63 71  1  0
 64 69  1  0
 65 64  1  0
 65 66  1  0
 67 66  1  0
 67 68  1  0
 67 76  1  0
 69 63  1  0
 69 68  1  0
 70 63  2  0
 71 72  1  0
 71 62  1  0
 73 74  2  0
 73 98  1  0
 74 93  1  0
 75 74  1  0
 76 73  1  0
 77 76  1  0
 77 75  2  0
 78 83  1  0
 78 75  1  0
 79 78  2  0
 80 81  2  0
 80 79  1  0
 81 82  1  0
 82 83  2  0
 84 85  1  0
 84 81  1  0
 85 86  1  0
 86 87  2  0
 88 92  1  0
 88 87  1  0
 89 88  2  0
 90 89  1  0
 90 85  2  0
 91 90  1  0
 93 94  1  0
 93 95  2  0
 94 97  1  0
 96 94  1  0
 98 99  1  0
100 98  1  0
M  ISO  4  10 101  11 101  63 100  71 100
M  END
>  <TORSDO>  (80) 
F 30

>  <SCORE>  (80) 
0.715

>  <name>  (80) 
88

>  <ligand_id>  (80) 
88

>  <original_smiles>  (80) 
[H]c1c([H])c([H])c2c(c1[H])C([H])([H])C([H])([H])C([H])([H])C2([H])N([H])C(=O)C1([H])N(C(=O)C([H])(N([H])C(=O)C([H])(N([H])C([H])([H])[H])C([H])([H])[H])C(C([H])([H])[H])(C([H])([H])[H])C([H])([H])[H])C([H])([H])c2c([H])c(OC([H])([H])C([H])([H])C([H])([H])OC([H])([H])C(=O)N([H])C([H])([H])C([H])([H])C([H])([H])C([H])([H])C([H])([H])C([H])([H])C([H])([H])N([H])C(=O)C([H])([H])N([H])C(=O)N3C([H])([H])C([H])([H])C([H])([H])C([H])(n4nc(-c5c([H])c([H])c(Oc6c([H])c([H])c(F)c([H])c6F)c([H])c5[H])c(C(=O)N([H])[H])c4N([H])[H])C3([H])[H])c([H])c([H])c2C1([H])[H]

>  <smiles>  (80) 
[H]c1c([H])c([H])c2c(c1[H])C([H])([H])C([H])([H])C([H])([H])C2([H])N([H])C(=O)C1([H])N(C(=O)C([H])(N([H])C(=O)C([H])(N([H])C([H])([H])[H])C([H])([H])[H])C(C([H])([H])[H])(C([H])([H])[H])C([H])([H])[H])C([H])([H])c2c([H])c(OC([H])([H])C([H])([H])C([H])([H])OC([H])([H])C(=O)N([H])C([H])([H])C([H])([H])C([H])([H])C([H])([H])C([H])([H])C([H])([H])C([H])([H])N([H])C(=O)C([H])([H])N([H])C(=O)N3C([H])([H])C([H])([H])C([H])([H])C([H])(n4nc(-c5c([H])c([H])c(Oc6c([H])c([H])c(F)c([H])c6F)c([H])c5[H])c(C(=O)N([H])[H])c4N([H])[H])C3([H])[H])c([H])c([H])c2C1([H])[H]

$$$$
89:0:0
     RDKit          3D

101110  0  0  1  0  0  0  0  0999 V2000
  -20.5360  -23.0870   19.4590 C   0  0  0  0  0  2  0  0  0  0  0  0
  -21.0410  -24.5330   19.6360 C   0  0  0  0  0  2  0  0  0  0  0  0
  -21.6070  -25.7480   17.5440 C   0  0  0  0  0  0  0  0  0  0  0  0
  -21.9460  -24.9470   18.5620 N   0  0  0  0  0  0  0  0  0  0  0  0
  -20.5220  -26.3270   17.4790 O   0  0  0  0  0  0  0  0  0  0  0  0
  -22.8630  -24.5200   18.5350 H   0  0  0  0  0  0  0  0  0  0  0  0
  -22.6230  -25.9180   16.4160 C   0  0  0  0  0  2  0  0  0  0  0  0
  -22.6410  -24.7090   15.4590 C   0  0  0  0  0  2  0  0  0  0  0  0
  -22.3180  -25.1260   14.0160 C   0  0  0  0  0  2  0  0  0  0  0  0
  -22.8490  -24.1730   12.9300 C   0  0  1  0  0  0  0  0  0  0  0  0
  -21.7170  -23.7830   11.9630 C   0  0  0  0  0  2  0  0  0  0  0  0
  -22.1510  -23.4530   10.5210 C   0  0  0  0  0  2  0  0  0  0  0  0
  -20.9250  -23.1290    9.6420 C   0  0  0  0  0  2  0  0  0  0  0  0
  -20.6240  -22.6300    7.1050 C   0  0  0  0  0  0  0  0  0  0  0  0
  -18.8670  -23.4560    5.5880 C   0  0  0  0  0  2  0  0  0  0  0  0
  -18.9350  -24.9960    5.4900 C   0  0  0  0  0  2  0  0  0  0  0  0
  -18.1300  -25.6580    6.6270 C   0  0  0  0  0  2  0  0  0  0  0  0
  -18.4460  -25.0470    8.0180 C   0  0  0  0  0  3  0  0  0  0  0  0
  -18.3700  -23.5030    7.9390 C   0  0  0  0  0  2  0  0  0  0  0  0
  -19.3460  -23.0760    6.9300 N   0  0  0  0  0  0  0  0  0  0  0  0
  -21.3020  -22.2120    6.1650 O   0  0  0  0  0  0  0  0  0  0  0  0
  -21.2990  -22.8950    8.2440 N   0  0  0  0  0  0  0  0  0  0  0  0
  -22.2810  -22.6900    8.1310 H   0  0  0  0  0  0  0  0  0  0  0  0
  -17.8490  -26.4940   10.0610 C   0  0  0  0  0  0  0  0  0  0  0  0
  -16.6650  -26.7090   10.7120 C   0  0  0  0  0  0  0  0  0  0  0  0
  -15.6980  -25.8980   10.0450 C   0  0  0  0  0  0  0  0  0  0  0  0
  -17.5710  -25.5810    9.0550 N   0  0  0  0  0  0  0  0  0  0  0  0
  -16.2730  -25.1860    9.0850 N   0  0  0  0  0  0  0  0  0  0  0  0
  -14.2450  -25.7990   10.2270 C   0  0  0  0  0  0  0  0  0  0  0  0
  -13.6210  -24.5590   10.4760 C   0  0  0  0  0  3  0  0  0  0  0  0
  -12.2230  -24.4870   10.6590 C   0  0  0  0  0  3  0  0  0  0  0  0
  -11.4390  -25.6620   10.5990 C   0  0  0  0  0  0  0  0  0  0  0  0
  -12.0640  -26.8930   10.3310 C   0  0  0  0  0  3  0  0  0  0  0  0
  -13.4540  -26.9630   10.1440 C   0  0  0  0  0  3  0  0  0  0  0  0
  -10.0720  -25.6830   10.7380 O   0  0  0  0  0  0  0  0  0  0  0  0
   -9.4120  -24.7600   11.5110 C   0  0  0  0  0  0  0  0  0  0  0  0
   -9.7400  -24.5540   12.8680 C   0  0  0  0  0  3  0  0  0  0  0  0
   -8.9870  -23.6520   13.6460 C   0  0  0  0  0  3  0  0  0  0  0  0
   -7.9040  -22.9600   13.0710 C   0  0  0  0  0  0  0  0  0  0  0  0
   -7.5730  -23.1660   11.7200 C   0  0  0  0  0  3  0  0  0  0  0  0
   -8.3230  -24.0670   10.9440 C   0  0  0  0  0  0  0  0  0  0  0  0
   -7.9860  -24.2800    9.6490 F   0  0  0  0  0  0  0  0  0  0  0  0
   -7.1760  -22.0970   13.8170 F   0  0  0  0  0  0  0  0  0  0  0  0
  -16.4230  -27.6830   11.8280 C   0  0  0  0  0  0  0  0  0  0  0  0
  -15.5080  -27.3600   12.7360 N   0  0  0  0  0  0  0  0  0  0  0  0
  -17.0810  -28.7160   11.9320 O   0  0  0  0  0  0  0  0  0  0  0  0
  -14.9780  -26.5030   12.6680 H   0  0  0  0  0  0  0  0  0  0  0  0
  -15.3330  -27.9890   13.5080 H   0  0  0  0  0  0  0  0  0  0  0  0
  -19.1270  -27.0120   10.2310 N   0  0  0  0  0  0  0  0  0  0  0  0
  -19.3430  -27.6700   10.9710 H   0  0  0  0  0  0  0  0  0  0  0  0
  -19.9380  -26.7390    9.6920 H   0  0  0  0  0  0  0  0  0  0  0  0
  -21.3340  -22.2160   18.4680 C   0  0  0  0  0  2  0  0  0  0  0  0
  -20.9810  -22.4220   16.9830 C   0  0  0  0  0  2  0  0  0  0  0  0
  -22.2390  -22.5990   16.1220 C   0  0  0  0  0  2  0  0  0  0  0  0
  -21.9380  -22.7120   14.6190 C   0  0  0  0  0  2  0  0  0  0  0  0
  -23.7440  -22.7890   12.9540 C   0  0  1  0  0  0  0  0  0  0  0  0
  -23.0500  -23.3580   13.9460 N   0  0  1  0  0  4  0  0  0  0  0  0
  -23.2560  -21.9450   12.1960 O   0  0  0  0  0  1  0  0  0  0  0  0
  -23.5160  -24.0970   14.4570 H   0  0  0  0  0  0  0  0  0  0  0  0
  -25.2410  -23.1280   12.9080 C   0  0  0  0  0  2  0  0  0  0  0  0
  -25.9730  -22.3280   13.8480 O   0  0  0  0  0  0  0  0  0  0  0  0
  -28.7480  -21.3010   20.2910 C   0  0  0  0  0  0  0  0  0  0  0  0
  -26.7060  -22.9140   14.8660 C   0  0  0  0  0  0  0  0  0  0  0  0
  -28.7860  -23.6400   19.4830 C   0  0  0  0  0  3  0  0  0  0  0  0
  -28.2120  -23.9690   17.0210 C   0  0  0  0  0  0  0  0  0  0  0  0
  -28.8170  -21.6850   17.8350 C   0  0  0  0  0  2  0  0  0  0  0  0
  -28.1040  -22.5840   16.8510 C   0  0  0  0  0  0  0  0  0  0  0  0
  -27.3470  -22.0540   15.7830 C   0  0  0  0  0  3  0  0  0  0  0  0
  -26.8580  -24.3110   15.0350 C   0  0  0  0  0  3  0  0  0  0  0  0
  -27.5810  -24.8400   16.1180 C   0  0  0  0  0  3  0  0  0  0  0  0
  -29.0380  -24.4570   18.1890 C   0  0  0  0  0  2  0  0  0  0  0  0
  -28.7580  -22.1620   19.2350 N   0  0  0  0  0  0  0  0  0  0  0  0
  -28.7990  -21.7200   21.4560 O   0  0  0  0  0  0  0  0  0  0  0  0
  -27.5000  -24.1700   20.1570 C   0  0  0  0  0  0  0  0  0  0  0  0
  -27.6530  -25.2130   20.9910 N   0  0  0  0  0  0  0  0  0  0  0  0
  -26.4010  -23.6710   19.9050 O   0  0  0  0  0  0  0  0  0  0  0  0
  -28.5870  -25.5640   21.1410 H   0  0  0  0  0  0  0  0  0  0  0  0
  -26.9840  -27.7040   23.5150 C   0  0  0  0  0  0  0  0  0  0  0  0
  -26.5820  -25.9020   21.7080 C   0  0  0  0  0  3  0  0  0  0  0  0
  -25.9840  -27.0400   20.8470 C   0  0  0  0  0  2  0  0  0  0  0  0
  -26.6420  -28.3980   21.1020 C   0  0  0  0  0  2  0  0  0  0  0  0
  -26.4960  -28.7960   22.5740 C   0  0  0  0  0  2  0  0  0  0  0  0
  -27.0390  -26.3490   23.1010 C   0  0  0  0  0  0  0  0  0  0  0  0
  -27.5420  -25.3780   23.9960 C   0  0  0  0  0  3  0  0  0  0  0  0
  -27.9730  -25.7420   25.2840 C   0  0  0  0  0  3  0  0  0  0  0  0
  -27.8970  -27.0850   25.6960 C   0  0  0  0  0  3  0  0  0  0  0  0
  -27.4010  -28.0620   24.8140 C   0  0  0  0  0  3  0  0  0  0  0  0
  -28.6900  -19.7550   20.0840 C   0  0  0  0  0  3  0  0  0  0  0  0
  -27.2680  -19.1410   20.3840 C   0  0  1  0  0  0  0  0  0  0  0  0
  -26.6850  -19.5680   21.7510 C   0  0  0  0  0  1  0  0  0  0  0  0
  -26.2530  -19.5470   19.2900 C   0  0  0  0  0  1  0  0  0  0  0  0
  -27.3480  -17.5970   20.3620 C   0  0  0  0  0  1  0  0  0  0  0  0
  -29.7100  -19.1560   20.9560 N   0  0  0  0  0  0  0  0  0  0  0  0
  -30.9660  -18.8810   20.5760 C   0  0  0  0  0  0  0  0  0  0  0  0
  -31.3650  -19.0410   19.4200 O   0  0  0  0  0  0  0  0  0  0  0  0
  -29.4660  -19.0480   21.9280 H   0  0  0  0  0  0  0  0  0  0  0  0
  -32.7550  -19.5050   22.2280 C   0  0  0  0  0  1  0  0  0  0  0  0
  -31.9290  -18.3440   21.6520 C   0  0  0  0  0  3  0  0  0  0  0  0
  -32.1340  -16.0590   20.7780 C   0  0  0  0  0  1  0  0  0  0  0  0
  -32.8340  -17.2850   21.1530 N   0  0  0  0  0  0  0  0  0  0  0  0
  -33.5320  -17.0500   21.8530 H   0  0  0  0  0  0  0  0  0  0  0  0
  1  2  1  0
  3  4  1  0
  4  2  1  0
  5  3  2  0
  6  4  1  0
  7  3  1  0
  8  7  1  0
  9  8  1  0
 10 11  1  6
 10 56  1  0
 10 57  1  0
 10  9  1  0
 12 11  1  0
 13 12  1  0
 14 22  1  0
 15 20  1  0
 16 15  1  0
 16 17  1  0
 18 17  1  0
 18 27  1  0
 19 18  1  0
 20 14  1  0
 20 19  1  0
 21 14  2  0
 22 13  1  0
 23 22  1  0
 24 49  1  0
 24 25  2  0
 25 44  1  0
 26 29  1  0
 26 25  1  0
 27 28  1  0
 27 24  1  0
 28 26  2  0
 29 30  1  0
 30 31  2  0
 32 31  1  0
 32 35  1  0
 33 32  2  0
 34 29  2  0
 34 33  1  0
 35 36  1  0
 36 37  1  0
 37 38  2  0
 39 38  1  0
 39 43  1  0
 40 39  2  0
 41 36  2  0
 41 40  1  0
 42 41  1  0
 44 46  2  0
 44 45  1  0
 45 48  1  0
 47 45  1  0
 49 50  1  0
 51 49  1  0
 52  1  1  0
 53 52  1  0
 54 53  1  0
 55 54  1  0
 56 58  1  6
 56 57  1  0
 57 59  1  1
 57 55  1  0
 60 56  1  0
 60 61  1  0
 61 63  1  0
 62 73  2  0
 63 69  2  0
 63 68  1  0
 64 74  1  0
 65 71  1  0
 66 72  1  0
 67 65  1  0
 67 66  1  0
 68 67  2  0
 69 70  1  0
 70 65  2  0
 71 64  1  0
 72 64  1  0
 72 62  1  0
 74 75  1  0
 75 77  1  0
 76 74  2  0
 78 87  1  0
 79 75  1  0
 79 83  1  0
 80 81  1  0
 80 79  1  0
 81 82  1  0
 82 78  1  0
 83 78  2  0
 83 84  1  0
 84 85  2  0
 85 86  1  0
 87 86  2  0
 88 62  1  0
 88 89  1  0
 88 93  1  0
 89 90  1  1
 91 89  1  0
 92 89  1  0
 93 96  1  0
 94 93  1  0
 94 98  1  0
 95 94  2  0
 98 97  1  0
 99100  1  0
100 98  1  0
100101  1  0
M  ISO  4  14 100  22 100  60 101  61 101
M  END
>  <TORSDO>  (81) 
F 31

>  <SCORE>  (81) 
24.035

>  <name>  (81) 
89

>  <ligand_id>  (81) 
89

>  <original_smiles>  (81) 
[H]c1c([H])c([H])c2c(c1[H])C([H])([H])C([H])([H])C([H])([H])C2([H])N([H])C(=O)C1([H])N(C(=O)C([H])(N([H])C(=O)C([H])(N([H])C([H])([H])[H])C([H])([H])[H])C(C([H])([H])[H])(C([H])([H])[H])C([H])([H])[H])C([H])([H])c2c([H])c(OC([H])([H])C(=O)N([H])C([H])([H])C([H])([H])C([H])([H])C([H])([H])C([H])([H])C([H])([H])N([H])C(=O)C([H])([H])C([H])([H])C([H])([H])C([H])([H])C([H])([H])C([H])([H])C([H])([H])N([H])C(=O)N3C([H])([H])C([H])([H])C([H])([H])C([H])(n4nc(-c5c([H])c([H])c(Oc6c([H])c([H])c(F)c([H])c6F)c([H])c5[H])c(C(=O)N([H])[H])c4N([H])[H])C3([H])[H])c([H])c([H])c2C1([H])[H]

>  <smiles>  (81) 
[H]c1c([H])c([H])c2c(c1[H])C([H])([H])C([H])([H])C([H])([H])C2([H])N([H])C(=O)C1([H])N(C(=O)C([H])(N([H])C(=O)C([H])(N([H])C([H])([H])[H])C([H])([H])[H])C(C([H])([H])[H])(C([H])([H])[H])C([H])([H])[H])C([H])([H])c2c([H])c(OC([H])([H])C(=O)N([H])C([H])([H])C([H])([H])C([H])([H])C([H])([H])C([H])([H])C([H])([H])N([H])C(=O)C([H])([H])C([H])([H])C([H])([H])C([H])([H])C([H])([H])C([H])([H])C([H])([H])N([H])C(=O)N3C([H])([H])C([H])([H])C([H])([H])C([H])(n4nc(-c5c([H])c([H])c(Oc6c([H])c([H])c(F)c([H])c6F)c([H])c5[H])c(C(=O)N([H])[H])c4N([H])[H])C3([H])[H])c([H])c([H])c2C1([H])[H]

$$$$
90:0:0
     RDKit          3D

102109  0  0  1  0  0  0  0  0999 V2000
  -31.3670  -21.0670   16.0230 C   0  0  0  0  0  0  0  0  0  0  0  0
  -31.7010  -19.9880   15.3050 N   0  0  0  0  0  0  0  0  0  0  0  0
  -30.3180  -21.6890   15.8320 O   0  0  0  0  0  0  0  0  0  0  0  0
  -32.6070  -19.5730   15.4880 H   0  0  0  0  0  0  0  0  0  0  0  0
  -30.8680  -19.3550   14.2810 C   0  0  0  0  0  2  0  0  0  0  0  0
  -29.4620  -18.9480   14.7830 C   0  0  0  0  0  2  0  0  0  0  0  0
  -29.4830  -18.2780   16.1640 C   0  0  0  0  0  2  0  0  0  0  0  0
  -28.0940  -18.1240   16.7910 C   0  0  0  0  0  2  0  0  0  0  0  0
  -28.1360  -17.2570   18.0550 C   0  0  0  0  0  2  0  0  0  0  0  0
  -28.0530  -18.0250   19.3910 C   0  0  0  0  0  2  0  0  0  0  0  0
  -30.4460  -18.6180   20.0550 C   0  0  0  0  0  0  0  0  0  0  0  0
  -29.1680  -18.9060   19.7540 N   0  0  0  0  0  0  0  0  0  0  0  0
  -31.1290  -19.4480   20.6520 O   0  0  0  0  0  0  0  0  0  0  0  0
  -28.8900  -19.8380   20.0230 H   0  0  0  0  0  0  0  0  0  0  0  0
  -31.1080  -17.3060   19.6150 C   0  0  0  0  0  2  0  0  0  0  0  0
  -31.4430  -15.0050   20.3720 C   0  0  0  0  0  0  0  0  0  0  0  0
  -31.0350  -13.0350   19.0110 C   0  0  0  0  0  2  0  0  0  0  0  0
  -30.1230  -13.5240   17.8640 C   0  0  0  0  0  2  0  0  0  0  0  0
  -28.6410  -13.4320   18.2750 C   0  0  0  0  0  2  0  0  0  0  0  0
  -28.3560  -14.0230   19.6830 C   0  0  0  0  0  3  0  0  0  0  0  0
  -29.4000  -13.5780   20.7280 C   0  0  0  0  0  2  0  0  0  0  0  0
  -30.7320  -13.8690   20.1770 N   0  0  0  0  0  0  0  0  0  0  0  0
  -32.6530  -15.0960   20.1600 O   0  0  0  0  0  0  0  0  0  0  0  0
  -30.6790  -16.1080   20.3440 N   0  0  0  0  0  0  0  0  0  0  0  0
  -29.6930  -15.9850   20.4980 H   0  0  0  0  0  0  0  0  0  0  0  0
  -25.9340  -14.6660   20.2480 C   0  0  0  0  0  0  0  0  0  0  0  0
  -24.8490  -13.9030   20.5770 C   0  0  0  0  0  0  0  0  0  0  0  0
  -25.3070  -12.5500   20.6050 C   0  0  0  0  0  0  0  0  0  0  0  0
  -26.9860  -13.7750   20.1070 N   0  0  0  0  0  0  0  0  0  0  0  0
  -26.6140  -12.5020   20.3800 N   0  0  0  0  0  0  0  0  0  0  0  0
  -24.5750  -11.2940   20.7880 C   0  0  0  0  0  0  0  0  0  0  0  0
  -24.9740  -10.3440   21.7520 C   0  0  0  0  0  3  0  0  0  0  0  0
  -24.2420   -9.1490   21.9200 C   0  0  0  0  0  3  0  0  0  0  0  0
  -23.0970   -8.8980   21.1260 C   0  0  0  0  0  0  0  0  0  0  0  0
  -22.7170   -9.8370   20.1530 C   0  0  0  0  0  3  0  0  0  0  0  0
  -23.4530  -11.0230   19.9820 C   0  0  0  0  0  3  0  0  0  0  0  0
  -22.3460   -7.7500   21.2060 O   0  0  0  0  0  0  0  0  0  0  0  0
  -22.1820   -7.0820   22.3910 C   0  0  0  0  0  0  0  0  0  0  0  0
  -21.6970   -7.7280   23.5500 C   0  0  0  0  0  3  0  0  0  0  0  0
  -21.4680   -6.9850   24.7250 C   0  0  0  0  0  3  0  0  0  0  0  0
  -21.7170   -5.5990   24.7440 C   0  0  0  0  0  0  0  0  0  0  0  0
  -22.1980   -4.9550   23.5900 C   0  0  0  0  0  3  0  0  0  0  0  0
  -22.4220   -5.6960   22.4160 C   0  0  0  0  0  0  0  0  0  0  0  0
  -22.8610   -5.0650   21.3000 F   0  0  0  0  0  0  0  0  0  0  0  0
  -21.4940   -4.8820   25.8710 F   0  0  0  0  0  0  0  0  0  0  0  0
  -23.4400  -14.3870   20.7710 C   0  0  0  0  0  0  0  0  0  0  0  0
  -22.6860  -13.7270   21.6440 N   0  0  0  0  0  0  0  0  0  0  0  0
  -23.0190  -15.3820   20.1850 O   0  0  0  0  0  0  0  0  0  0  0  0
  -23.0370  -12.9090   22.1250 H   0  0  0  0  0  0  0  0  0  0  0  0
  -21.7400  -14.0340   21.8160 H   0  0  0  0  0  0  0  0  0  0  0  0
  -26.1140  -16.0350   20.0430 N   0  0  0  0  0  0  0  0  0  0  0  0
  -25.3420  -16.6890   20.0950 H   0  0  0  0  0  0  0  0  0  0  0  0
  -26.9890  -16.4790   19.8030 H   0  0  0  0  0  0  0  0  0  0  0  0
  -32.3300  -21.4920   17.1350 C   0  0  0  0  0  2  0  0  0  0  0  0
  -31.7110  -23.1380   18.9010 C   0  0  0  0  0  0  0  0  0  0  0  0
  -31.5540  -21.9720   18.2740 N   0  0  0  0  0  0  0  0  0  0  0  0
  -32.6850  -23.8680   18.7090 O   0  0  0  0  0  0  0  0  0  0  0  0
  -30.7290  -21.4300   18.4900 H   0  0  0  0  0  0  0  0  0  0  0  0
  -30.5950  -23.5420   19.8660 C   0  0  0  0  0  2  0  0  0  0  0  0
  -30.5430  -25.0530   20.1800 C   0  0  0  0  0  2  0  0  0  0  0  0
  -29.1010  -25.5620   20.2180 C   0  0  0  0  0  2  0  0  0  0  0  0
  -29.0490  -26.9390   20.5810 O   0  0  0  0  0  0  0  0  0  0  0  0
  -24.7630  -31.8480   23.4080 C   0  0  0  0  0  0  0  0  0  0  0  0
  -27.8210  -27.5640   20.5030 C   0  0  0  0  0  0  0  0  0  0  0  0
  -23.7340  -30.3860   21.6980 C   0  0  0  0  0  3  0  0  0  0  0  0
  -25.3470  -28.9290   20.3740 C   0  0  0  0  0  0  0  0  0  0  0  0
  -26.2440  -30.8770   21.6550 C   0  0  0  0  0  2  0  0  0  0  0  0
  -26.4380  -29.5150   21.0260 C   0  0  0  0  0  0  0  0  0  0  0  0
  -27.6770  -28.8400   21.0880 C   0  0  0  0  0  3  0  0  0  0  0  0
  -26.7030  -26.9820   19.8550 C   0  0  0  0  0  3  0  0  0  0  0  0
  -25.4730  -27.6600   19.7870 C   0  0  0  0  0  3  0  0  0  0  0  0
  -24.0600  -29.7190   20.3370 C   0  0  0  0  0  2  0  0  0  0  0  0
  -24.9270  -31.0520   22.3130 N   0  0  0  0  0  0  0  0  0  0  0  0
  -23.6360  -32.0620   23.8790 O   0  0  0  0  0  0  0  0  0  0  0  0
  -23.0810  -29.3290   22.6190 C   0  0  0  0  0  0  0  0  0  0  0  0
  -21.7750  -29.0870   22.4160 N   0  0  0  0  0  0  0  0  0  0  0  0
  -23.7460  -28.7320   23.4690 O   0  0  0  0  0  0  0  0  0  0  0  0
  -21.3020  -29.6220   21.7030 H   0  0  0  0  0  0  0  0  0  0  0  0
  -18.4400  -27.7310   22.7070 C   0  0  0  0  0  0  0  0  0  0  0  0
  -20.9600  -28.1090   23.1360 C   0  0  0  0  0  3  0  0  0  0  0  0
  -21.1670  -26.6870   22.5690 C   0  0  0  0  0  2  0  0  0  0  0  0
  -20.1450  -26.3130   21.4910 C   0  0  0  0  0  2  0  0  0  0  0  0
  -18.7220  -26.3910   22.0490 C   0  0  0  0  0  2  0  0  0  0  0  0
  -19.4920  -28.5450   23.2040 C   0  0  0  0  0  0  0  0  0  0  0  0
  -19.1780  -29.7980   23.7760 C   0  0  0  0  0  3  0  0  0  0  0  0
  -17.8430  -30.2370   23.8580 C   0  0  0  0  0  3  0  0  0  0  0  0
  -16.8040  -29.4200   23.3780 C   0  0  0  0  0  3  0  0  0  0  0  0
  -17.1030  -28.1690   22.8090 C   0  0  0  0  0  3  0  0  0  0  0  0
  -25.9740  -32.5430   24.1040 C   0  0  0  0  0  3  0  0  0  0  0  0
  -25.6070  -33.9470   24.3270 N   0  0  0  0  0  0  0  0  0  0  0  0
  -25.9870  -34.9650   23.5430 C   0  0  0  0  0  0  0  0  0  0  0  0
  -26.7520  -34.8230   22.5850 O   0  0  0  0  0  0  0  0  0  0  0  0
  -24.9360  -34.1290   25.0570 H   0  0  0  0  0  0  0  0  0  0  0  0
  -24.2590  -36.6860   22.9330 C   0  0  0  0  0  1  0  0  0  0  0  0
  -25.4300  -36.3620   23.8740 C   0  0  0  0  0  3  0  0  0  0  0  0
  -27.4610  -37.3450   24.8390 C   0  0  0  0  0  1  0  0  0  0  0  0
  -26.4450  -37.4340   23.7940 N   0  0  0  0  0  0  0  0  0  0  0  0
  -26.0080  -38.3500   23.8540 H   0  0  0  0  0  0  0  0  0  0  0  0
  -26.3910  -31.8520   25.4590 C   0  0  1  0  0  0  0  0  0  0  0  0
  -25.2120  -31.6330   26.4350 C   0  0  0  0  0  1  0  0  0  0  0  0
  -27.0440  -30.4760   25.1910 C   0  0  0  0  0  1  0  0  0  0  0  0
  -27.4560  -32.7120   26.1790 C   0  0  0  0  0  1  0  0  0  0  0  0
  1 54  1  0
  2  4  1  0
  2  1  1  0
  3  1  2  0
  5  6  1  0
  5  2  1  0
  6  7  1  0
  7  8  1  0
  8  9  1  0
  9 10  1  0
 10 12  1  0
 11 13  2  0
 12 14  1  0
 12 11  1  0
 15 11  1  0
 15 24  1  0
 17 22  1  0
 18 19  1  0
 18 17  1  0
 20 19  1  0
 20 29  1  0
 20 21  1  0
 22 16  1  0
 22 21  1  0
 23 16  2  0
 24 16  1  0
 24 25  1  0
 26 27  2  0
 27 28  1  0
 27 46  1  0
 28 31  1  0
 29 26  1  0
 29 30  1  0
 30 28  2  0
 31 32  1  0
 32 33  2  0
 34 37  1  0
 34 33  1  0
 35 34  2  0
 36 35  1  0
 36 31  2  0
 37 38  1  0
 38 43  2  0
 38 39  1  0
 39 40  2  0
 40 41  1  0
 41 45  1  0
 42 41  2  0
 43 42  1  0
 44 43  1  0
 46 47  1  0
 47 50  1  0
 47 49  1  0
 48 46  2  0
 51 52  1  0
 51 26  1  0
 53 51  1  0
 54 56  1  0
 55 59  1  0
 56 58  1  0
 56 55  1  0
 57 55  2  0
 59 60  1  0
 60 61  1  0
 61 62  1  0
 63 74  2  0
 64 62  1  0
 64 69  1  0
 65 73  1  0
 65 75  1  0
 66 68  1  0
 67 73  1  0
 68 69  2  0
 68 67  1  0
 70 64  2  0
 71 70  1  0
 71 66  2  0
 72 66  1  0
 72 65  1  0
 73 63  1  0
 75 77  2  0
 76 75  1  0
 78 76  1  0
 79 88  2  0
 79 84  1  0
 80 76  1  0
 80 84  1  0
 81 80  1  0
 82 83  1  0
 82 81  1  0
 83 79  1  0
 84 85  2  0
 85 86  1  0
 87 86  2  0
 88 87  1  0
 89 63  1  0
 89 90  1  0
 89 99  1  0
 90 93  1  0
 91 95  1  0
 91 90  1  0
 92 91  2  0
 95 94  1  0
 97 98  1  0
 97 95  1  0
 97 96  1  0
 99102  1  1
 99100  1  0
101 99  1  0
M  ISO  4  16 100  24 100  61 101  62 101
M  END
>  <TORSDO>  (82) 
F 29

>  <SCORE>  (82) 
-8.899

>  <name>  (82) 
90

>  <ligand_id>  (82) 
90

>  <original_smiles>  (82) 
[H]c1c([H])c([H])c2c(c1[H])C([H])([H])C([H])([H])C([H])([H])C2([H])N([H])C(=O)C1([H])N(C(=O)C([H])(N([H])C(=O)C([H])(N([H])C([H])([H])[H])C([H])([H])[H])C(C([H])([H])[H])(C([H])([H])[H])C([H])([H])[H])C([H])([H])c2c([H])c(OC([H])([H])C([H])([H])C([H])([H])C(=O)N([H])C([H])([H])C(=O)N([H])C([H])([H])C([H])([H])C([H])([H])C([H])([H])C([H])([H])C([H])([H])N([H])C(=O)C([H])([H])N([H])C(=O)N3C([H])([H])C([H])([H])C([H])([H])C([H])(n4nc(-c5c([H])c([H])c(Oc6c([H])c([H])c(F)c([H])c6F)c([H])c5[H])c(C(=O)N([H])[H])c4N([H])[H])C3([H])[H])c([H])c([H])c2C1([H])[H]

>  <smiles>  (82) 
[H]c1c([H])c([H])c2c(c1[H])C([H])([H])C([H])([H])C([H])([H])C2([H])N([H])C(=O)C1([H])N(C(=O)C([H])(N([H])C(=O)C([H])(N([H])C([H])([H])[H])C([H])([H])[H])C(C([H])([H])[H])(C([H])([H])[H])C([H])([H])[H])C([H])([H])c2c([H])c(OC([H])([H])C([H])([H])C([H])([H])C(=O)N([H])C([H])([H])C(=O)N([H])C([H])([H])C([H])([H])C([H])([H])C([H])([H])C([H])([H])C([H])([H])N([H])C(=O)C([H])([H])N([H])C(=O)N3C([H])([H])C([H])([H])C([H])([H])C([H])(n4nc(-c5c([H])c([H])c(Oc6c([H])c([H])c(F)c([H])c6F)c([H])c5[H])c(C(=O)N([H])[H])c4N([H])[H])C3([H])[H])c([H])c([H])c2C1([H])[H]

$$$$
91:0:0
     RDKit          3D

102109  0  0  1  0  0  0  0  0999 V2000
  -30.3210  -22.7350   15.0520 C   0  0  0  0  0  2  0  0  0  0  0  0
  -31.5400  -21.8530   15.3990 C   0  0  0  0  0  2  0  0  0  0  0  0
  -32.5090  -22.2940   17.6630 C   0  0  0  0  0  0  0  0  0  0  0  0
  -31.6750  -21.6520   16.8370 N   0  0  0  0  0  0  0  0  0  0  0  0
  -33.3810  -23.0710   17.2670 O   0  0  0  0  0  0  0  0  0  0  0  0
  -31.0010  -21.0290   17.2610 H   0  0  0  0  0  0  0  0  0  0  0  0
  -32.3330  -22.0190   19.1580 C   0  0  0  0  0  2  0  0  0  0  0  0
  -31.9340  -23.2700   19.9590 C   0  0  0  0  0  2  0  0  0  0  0  0
  -30.5860  -23.6410   19.6870 O   0  0  0  0  0  0  0  0  0  0  0  0
  -30.2400  -24.8690   20.3180 C   0  0  0  0  0  2  0  0  0  0  0  0
  -28.8510  -25.3450   19.8810 C   0  0  0  0  0  2  0  0  0  0  0  0
  -28.7290  -26.6980   20.3050 O   0  0  0  0  0  0  0  0  0  0  0  0
  -24.5770  -31.6660   23.1680 C   0  0  0  0  0  0  0  0  0  0  0  0
  -27.5060  -27.3230   20.2290 C   0  0  0  0  0  0  0  0  0  0  0  0
  -23.4940  -30.2250   21.4750 C   0  0  0  0  0  3  0  0  0  0  0  0
  -25.0580  -28.7300   20.1280 C   0  0  0  0  0  0  0  0  0  0  0  0
  -26.0100  -30.6680   21.3920 C   0  0  0  0  0  2  0  0  0  0  0  0
  -26.1660  -29.2980   20.7660 C   0  0  0  0  0  0  0  0  0  0  0  0
  -27.3880  -28.5980   20.8180 C   0  0  0  0  0  3  0  0  0  0  0  0
  -26.3770  -26.7580   19.5890 C   0  0  0  0  0  3  0  0  0  0  0  0
  -25.1570  -27.4580   19.5400 C   0  0  0  0  0  3  0  0  0  0  0  0
  -23.7890  -29.5520   20.1070 C   0  0  0  0  0  2  0  0  0  0  0  0
  -24.7090  -30.8680   22.0710 N   0  0  0  0  0  0  0  0  0  0  0  0
  -23.4630  -31.9050   23.6550 O   0  0  0  0  0  0  0  0  0  0  0  0
  -22.8320  -29.1850   22.4070 C   0  0  0  0  0  0  0  0  0  0  0  0
  -21.5100  -29.0040   22.2580 N   0  0  0  0  0  0  0  0  0  0  0  0
  -23.5050  -28.5430   23.2170 O   0  0  0  0  0  0  0  0  0  0  0  0
  -21.0290  -29.5770   21.5790 H   0  0  0  0  0  0  0  0  0  0  0  0
  -18.1170  -27.8580   22.7320 C   0  0  0  0  0  0  0  0  0  0  0  0
  -20.6810  -28.0530   23.0000 C   0  0  0  0  0  3  0  0  0  0  0  0
  -20.7530  -26.6440   22.3690 C   0  0  0  0  0  2  0  0  0  0  0  0
  -19.6390  -26.3810   21.3510 C   0  0  0  0  0  2  0  0  0  0  0  0
  -18.2640  -26.5310   22.0080 C   0  0  0  0  0  2  0  0  0  0  0  0
  -19.2530  -28.5790   23.1850 C   0  0  0  0  0  0  0  0  0  0  0  0
  -19.0650  -29.8260   23.8210 C   0  0  0  0  0  3  0  0  0  0  0  0
  -17.7720  -30.3470   24.0140 C   0  0  0  0  0  3  0  0  0  0  0  0
  -16.6500  -29.6210   23.5790 C   0  0  0  0  0  3  0  0  0  0  0  0
  -16.8240  -28.3780   22.9420 C   0  0  0  0  0  3  0  0  0  0  0  0
  -25.8130  -32.3390   23.8460 C   0  0  0  0  0  3  0  0  0  0  0  0
  -26.3000  -31.5790   25.1380 C   0  0  1  0  0  0  0  0  0  0  0  0
  -25.1720  -31.3030   26.1590 C   0  0  0  0  0  1  0  0  0  0  0  0
  -26.9430  -30.2240   24.7600 C   0  0  0  0  0  1  0  0  0  0  0  0
  -27.3940  -32.4070   25.8520 C   0  0  0  0  0  1  0  0  0  0  0  0
  -25.4430  -33.7230   24.1630 N   0  0  0  0  0  0  0  0  0  0  0  0
  -25.7660  -34.7870   23.4160 C   0  0  0  0  0  0  0  0  0  0  0  0
  -26.4770  -34.7090   22.4100 O   0  0  0  0  0  0  0  0  0  0  0  0
  -24.8170  -33.8570   24.9440 H   0  0  0  0  0  0  0  0  0  0  0  0
  -23.9900  -36.5140   22.9920 C   0  0  0  0  0  1  0  0  0  0  0  0
  -25.2110  -36.1550   23.8530 C   0  0  0  0  0  3  0  0  0  0  0  0
  -27.2750  -37.1180   24.7700 C   0  0  0  0  0  1  0  0  0  0  0  0
  -26.2090  -37.2450   23.7810 N   0  0  0  0  0  0  0  0  0  0  0  0
  -25.7650  -38.1510   23.9080 H   0  0  0  0  0  0  0  0  0  0  0  0
  -28.9790  -22.3060   15.6870 C   0  0  0  0  0  2  0  0  0  0  0  0
  -28.7770  -22.7220   17.1630 C   0  0  0  0  0  2  0  0  0  0  0  0
  -27.5040  -22.1430   17.8180 C   0  0  0  0  0  2  0  0  0  0  0  0
  -27.6410  -20.6610   18.1860 C   0  0  0  0  0  0  0  0  0  0  0  0
  -27.5310  -20.3440   19.4790 N   0  0  0  0  0  0  0  0  0  0  0  0
  -27.8640  -19.8170   17.3170 O   0  0  0  0  0  0  0  0  0  0  0  0
  -27.3150  -21.0870   20.1310 H   0  0  0  0  0  0  0  0  0  0  0  0
  -27.7730  -19.0210   20.0460 C   0  0  0  0  0  2  0  0  0  0  0  0
  -29.2790  -18.7750   20.2290 C   0  0  0  0  0  2  0  0  0  0  0  0
  -29.5910  -17.4440   20.9220 C   0  0  0  0  0  2  0  0  0  0  0  0
  -31.1060  -17.2230   21.0860 C   0  0  0  0  0  2  0  0  0  0  0  0
  -31.4740  -15.9750   21.9090 C   0  0  0  0  0  2  0  0  0  0  0  0
  -31.2500  -14.0370   20.3460 C   0  0  0  0  0  0  0  0  0  0  0  0
  -30.7140  -12.1130   18.8970 C   0  0  0  0  0  2  0  0  0  0  0  0
  -29.7510  -12.5180   17.7670 C   0  0  0  0  0  2  0  0  0  0  0  0
  -28.2860  -12.4390   18.2360 C   0  0  0  0  0  2  0  0  0  0  0  0
  -28.0560  -13.1670   19.5870 C   0  0  0  0  0  3  0  0  0  0  0  0
  -29.1120  -12.7270   20.6230 C   0  0  0  0  0  2  0  0  0  0  0  0
  -30.4520  -12.9770   20.0550 N   0  0  0  0  0  0  0  0  0  0  0  0
  -32.2730  -14.3170   19.7150 O   0  0  0  0  0  0  0  0  0  0  0  0
  -30.8470  -14.7620   21.3960 N   0  0  0  0  0  0  0  0  0  0  0  0
  -30.0130  -14.4420   21.8650 H   0  0  0  0  0  0  0  0  0  0  0  0
  -25.6870  -13.8800   20.3090 C   0  0  0  0  0  0  0  0  0  0  0  0
  -24.5960  -13.1540   20.7040 C   0  0  0  0  0  0  0  0  0  0  0  0
  -25.0060  -11.7860   20.6920 C   0  0  0  0  0  0  0  0  0  0  0  0
  -26.6960  -12.9560   20.0830 N   0  0  0  0  0  0  0  0  0  0  0  0
  -26.2890  -11.6930   20.3670 N   0  0  0  0  0  0  0  0  0  0  0  0
  -24.2370  -10.5550   20.9160 C   0  0  0  0  0  0  0  0  0  0  0  0
  -24.6320   -9.6030   21.8810 C   0  0  0  0  0  3  0  0  0  0  0  0
  -23.8670   -8.4340   22.0890 C   0  0  0  0  0  3  0  0  0  0  0  0
  -22.6930   -8.2110   21.3320 C   0  0  0  0  0  0  0  0  0  0  0  0
  -22.3170   -9.1510   20.3560 C   0  0  0  0  0  3  0  0  0  0  0  0
  -23.0820  -10.3100   20.1460 C   0  0  0  0  0  3  0  0  0  0  0  0
  -21.9020   -7.0930   21.4470 O   0  0  0  0  0  0  0  0  0  0  0  0
  -21.8020   -6.4010   22.6270 C   0  0  0  0  0  0  0  0  0  0  0  0
  -21.3520   -7.0160   23.8160 C   0  0  0  0  0  3  0  0  0  0  0  0
  -21.1990   -6.2500   24.9890 C   0  0  0  0  0  3  0  0  0  0  0  0
  -21.4840   -4.8710   24.9740 C   0  0  0  0  0  0  0  0  0  0  0  0
  -21.9260   -4.2570   23.7900 C   0  0  0  0  0  3  0  0  0  0  0  0
  -22.0820   -5.0200   22.6180 C   0  0  0  0  0  0  0  0  0  0  0  0
  -22.4880   -4.4190   21.4740 F   0  0  0  0  0  0  0  0  0  0  0  0
  -21.3290   -4.1350   26.0980 F   0  0  0  0  0  0  0  0  0  0  0  0
  -23.2200  -13.6870   20.9880 C   0  0  0  0  0  0  0  0  0  0  0  0
  -22.4900  -13.0470   21.8950 N   0  0  0  0  0  0  0  0  0  0  0  0
  -22.8040  -14.7070   20.4410 O   0  0  0  0  0  0  0  0  0  0  0  0
  -22.8400  -12.2220   22.3600 H   0  0  0  0  0  0  0  0  0  0  0  0
  -21.5680  -13.3870   22.1280 H   0  0  0  0  0  0  0  0  0  0  0  0
  -25.9010  -15.2400   20.1050 N   0  0  0  0  0  0  0  0  0  0  0  0
  -25.1630  -15.9260   20.2150 H   0  0  0  0  0  0  0  0  0  0  0  0
  -26.7710  -15.6370   19.7770 H   0  0  0  0  0  0  0  0  0  0  0  0
  1  2  1  0
  1 53  1  0
  2  4  1  0
  3  7  1  0
  4  6  1  0
  4  3  1  0
  5  3  2  0
  7  8  1  0
  9  8  1  0
  9 10  1  0
 11 12  1  0
 11 10  1  0
 13 24  2  0
 14 12  1  0
 14 19  1  0
 15 23  1  0
 15 25  1  0
 16 18  1  0
 17 23  1  0
 18 19  2  0
 18 17  1  0
 20 14  2  0
 21 20  1  0
 21 16  2  0
 22 16  1  0
 22 15  1  0
 23 13  1  0
 25 27  2  0
 26 25  1  0
 28 26  1  0
 29 38  2  0
 29 34  1  0
 30 26  1  0
 30 34  1  0
 31 30  1  0
 32 33  1  0
 32 31  1  0
 33 29  1  0
 34 35  2  0
 35 36  1  0
 37 36  2  0
 38 37  1  0
 39 13  1  0
 39 44  1  0
 39 40  1  0
 40 43  1  1
 40 41  1  0
 42 40  1  0
 44 47  1  0
 45 49  1  0
 45 44  1  0
 46 45  2  0
 49 48  1  0
 51 49  1  0
 51 52  1  0
 51 50  1  0
 53 54  1  0
 54 55  1  0
 55 56  1  0
 56 57  1  0
 57 60  1  0
 57 59  1  0
 58 56  2  0
 60 61  1  0
 61 62  1  0
 62 63  1  0
 63 64  1  0
 65 73  1  0
 66 71  1  0
 67 68  1  0
 67 66  1  0
 69 68  1  0
 69 78  1  0
 69 70  1  0
 71 65  1  0
 71 70  1  0
 72 65  2  0
 73 74  1  0
 73 64  1  0
 75 76  2  0
 76 95  1  0
 77 76  1  0
 77 80  1  0
 78 75  1  0
 78 79  1  0
 79 77  2  0
 80 81  1  0
 81 82  2  0
 83 86  1  0
 83 82  1  0
 84 83  2  0
 85 84  1  0
 85 80  2  0
 86 87  1  0
 87 88  1  0
 88 89  2  0
 90 89  1  0
 90 94  1  0
 91 90  2  0
 92 87  2  0
 92 91  1  0
 93 92  1  0
 95 96  1  0
 96 99  1  0
 96 98  1  0
 97 95  2  0
100101  1  0
100 75  1  0
102100  1  0
M  ISO  4  11 101  12 101  65 100  73 100
M  END
>  <TORSDO>  (83) 
F 32

>  <SCORE>  (83) 
-9.586

>  <name>  (83) 
91

>  <ligand_id>  (83) 
91

>  <original_smiles>  (83) 
[H]c1c([H])c([H])c2c(c1[H])C([H])([H])C([H])([H])C([H])([H])C2([H])N([H])C(=O)C1([H])N(C(=O)C([H])(N([H])C(=O)C([H])(N([H])C([H])([H])[H])C([H])([H])[H])C(C([H])([H])[H])(C([H])([H])[H])C([H])([H])[H])C([H])([H])c2c([H])c(OC([H])([H])C([H])([H])OC([H])([H])C([H])([H])C(=O)N([H])C([H])([H])C([H])([H])C([H])([H])C([H])([H])C([H])([H])C(=O)N([H])C([H])([H])C([H])([H])C([H])([H])C([H])([H])C([H])([H])N([H])C(=O)N3C([H])([H])C([H])([H])C([H])([H])C([H])(n4nc(-c5c([H])c([H])c(Oc6c([H])c([H])c(F)c([H])c6F)c([H])c5[H])c(C(=O)N([H])[H])c4N([H])[H])C3([H])[H])c([H])c([H])c2C1([H])[H]

>  <smiles>  (83) 
[H]c1c([H])c([H])c2c(c1[H])C([H])([H])C([H])([H])C([H])([H])C2([H])N([H])C(=O)C1([H])N(C(=O)C([H])(N([H])C(=O)C([H])(N([H])C([H])([H])[H])C([H])([H])[H])C(C([H])([H])[H])(C([H])([H])[H])C([H])([H])[H])C([H])([H])c2c([H])c(OC([H])([H])C([H])([H])OC([H])([H])C([H])([H])C(=O)N([H])C([H])([H])C([H])([H])C([H])([H])C([H])([H])C([H])([H])C(=O)N([H])C([H])([H])C([H])([H])C([H])([H])C([H])([H])C([H])([H])N([H])C(=O)N3C([H])([H])C([H])([H])C([H])([H])C([H])(n4nc(-c5c([H])c([H])c(Oc6c([H])c([H])c(F)c([H])c6F)c([H])c5[H])c(C(=O)N([H])[H])c4N([H])[H])C3([H])[H])c([H])c([H])c2C1([H])[H]

$$$$
92:0:0
     RDKit          3D

104108  0  0  1  0  0  0  0  0999 V2000
  -29.0150  -17.1670   16.8060 C   0  0  0  0  0  2  0  0  0  0  0  0
  -29.2480  -18.6720   16.5350 C   0  0  0  0  0  2  0  0  0  0  0  0
  -28.6070  -19.5890   17.6070 C   0  0  0  0  0  2  0  0  0  0  0  0
  -28.0260  -22.0200   17.7810 C   0  0  0  0  0  0  0  0  0  0  0  0
  -28.7750  -21.0140   17.2920 N   0  0  0  0  0  0  0  0  0  0  0  0
  -27.0980  -21.8250   18.5720 O   0  0  0  0  0  0  0  0  0  0  0  0
  -29.5350  -21.2640   16.6730 H   0  0  0  0  0  0  0  0  0  0  0  0
  -28.3540  -23.4540   17.3140 C   0  0  0  0  0  2  0  0  0  0  0  0
  -27.6970  -24.4170   18.1510 O   0  0  0  0  0  0  0  0  0  0  0  0
  -27.8990  -25.7630   17.7230 C   0  0  0  0  0  2  0  0  0  0  0  0
  -27.1320  -26.7590   18.6190 C   0  0  0  0  0  2  0  0  0  0  0  0
  -27.9500  -27.2780   19.6750 O   0  0  0  0  0  0  0  0  0  0  0  0
  -27.4960  -32.1890   24.8360 C   0  0  0  0  0  0  0  0  0  0  0  0
  -27.2700  -27.7430   20.7780 C   0  0  0  0  0  0  0  0  0  0  0  0
  -26.0010  -30.2320   25.0650 C   0  0  0  0  0  3  0  0  0  0  0  0
  -25.8570  -28.7040   23.0270 C   0  0  0  0  0  0  0  0  0  0  0  0
  -26.7930  -31.0070   22.7570 C   0  0  0  0  0  2  0  0  0  0  0  0
  -26.6920  -29.5660   22.3050 C   0  0  0  0  0  0  0  0  0  0  0  0
  -27.4100  -29.0880   21.1850 C   0  0  0  0  0  3  0  0  0  0  0  0
  -26.4460  -26.8800   21.5310 C   0  0  0  0  0  3  0  0  0  0  0  0
  -25.7380  -27.3550   22.6500 C   0  0  0  0  0  3  0  0  0  0  0  0
  -25.1130  -29.2940   24.2030 C   0  0  0  0  0  2  0  0  0  0  0  0
  -26.8170  -31.1750   24.2310 N   0  0  0  0  0  0  0  0  0  0  0  0
  -27.4210  -32.3720   26.0580 O   0  0  0  0  0  0  0  0  0  0  0  0
  -26.8540  -29.3650   26.0180 C   0  0  0  0  0  0  0  0  0  0  0  0
  -26.3100  -29.0770   27.2110 N   0  0  0  0  0  0  0  0  0  0  0  0
  -27.9620  -28.9450   25.6700 O   0  0  0  0  0  0  0  0  0  0  0  0
  -25.4010  -29.4650   27.4220 H   0  0  0  0  0  0  0  0  0  0  0  0
  -25.9170  -27.9420   30.6180 C   0  0  0  0  0  0  0  0  0  0  0  0
  -26.9140  -28.2460   28.2530 C   0  0  0  0  0  3  0  0  0  0  0  0
  -26.5840  -26.7520   28.0330 C   0  0  0  0  0  2  0  0  0  0  0  0
  -25.3350  -26.2910   28.7900 C   0  0  0  0  0  2  0  0  0  0  0  0
  -25.5090  -26.5140   30.2960 C   0  0  0  0  0  2  0  0  0  0  0  0
  -26.5630  -28.7600   29.6530 C   0  0  0  0  0  0  0  0  0  0  0  0
  -26.8900  -30.0910   29.9930 C   0  0  0  0  0  3  0  0  0  0  0  0
  -26.5860  -30.6040   31.2680 C   0  0  0  0  0  3  0  0  0  0  0  0
  -25.9610  -29.7850   32.2240 C   0  0  0  0  0  3  0  0  0  0  0  0
  -25.6320  -28.4570   31.9000 C   0  0  0  0  0  3  0  0  0  0  0  0
  -28.3810  -33.1820   24.0170 C   0  0  0  0  0  3  0  0  0  0  0  0
  -29.9290  -32.9190   24.1840 C   0  0  1  0  0  0  0  0  0  0  0  0
  -30.3890  -32.8340   25.6580 C   0  0  0  0  0  1  0  0  0  0  0  0
  -30.3380  -31.6020   23.4860 C   0  0  0  0  0  1  0  0  0  0  0  0
  -30.7290  -34.0520   23.4990 C   0  0  0  0  0  1  0  0  0  0  0  0
  -28.0340  -34.5410   24.4490 N   0  0  0  0  0  0  0  0  0  0  0  0
  -27.3270  -35.4150   23.7190 C   0  0  0  0  0  0  0  0  0  0  0  0
  -26.9590  -35.1790   22.5650 O   0  0  0  0  0  0  0  0  0  0  0  0
  -28.2530  -34.7820   25.4050 H   0  0  0  0  0  0  0  0  0  0  0  0
  -25.4820  -36.7900   24.7310 C   0  0  0  0  0  1  0  0  0  0  0  0
  -26.9760  -36.7650   24.3710 C   0  0  0  0  0  3  0  0  0  0  0  0
  -28.7400  -38.1540   23.3770 C   0  0  0  0  0  1  0  0  0  0  0  0
  -27.3030  -37.9320   23.5230 N   0  0  0  0  0  0  0  0  0  0  0  0
  -26.8880  -38.7790   23.9000 H   0  0  0  0  0  0  0  0  0  0  0  0
  -30.1380  -16.2280   16.3020 C   0  0  0  0  0  2  0  0  0  0  0  0
  -30.0760  -14.8170   16.9390 C   0  0  0  0  0  2  0  0  0  0  0  0
  -31.4570  -14.1600   17.1960 C   0  0  0  0  0  2  0  0  0  0  0  0
  -31.4430  -13.2130   18.3410 N   0  0  0  0  0  4  0  0  0  0  0  0
  -30.8460  -12.4310   18.1190 H   0  0  0  0  0  0  0  0  0  0  0  0
  -31.0550  -13.6690   19.1500 H   0  0  0  0  0  0  0  0  0  0  0  0
  -32.7700  -12.6770   18.7250 C   0  0  0  0  0  2  0  0  0  0  0  0
  -32.9120  -12.4880   20.2550 C   0  0  0  0  0  2  0  0  0  0  0  0
  -31.9590  -14.1440   21.8880 C   0  0  0  0  0  0  0  0  0  0  0  0
  -32.8560  -13.7670   20.9670 N   0  0  0  0  0  0  0  0  0  0  0  0
  -31.0810  -13.3870   22.3060 O   0  0  0  0  0  0  0  0  0  0  0  0
  -33.5790  -14.4390   20.7420 H   0  0  0  0  0  0  0  0  0  0  0  0
  -32.0500  -15.5960   22.3970 C   0  0  0  0  0  2  0  0  0  0  0  0
  -30.7460  -16.4180   22.1770 C   0  0  0  0  0  2  0  0  0  0  0  0
  -31.1300  -19.2000   21.0620 C   0  0  2  0  0  0  0  0  0  0  0  0
  -32.6970  -18.8540   21.2150 C   0  0  0  0  0  1  0  0  0  0  0  0
  -32.3300  -17.5700   19.8560 C   0  0  0  0  0  1  0  0  0  0  0  0
  -30.6460  -17.2100   19.4310 C   0  0  0  0  0  2  0  0  0  0  0  0
  -29.2830  -18.1880   19.9450 C   0  0  0  0  0  2  0  0  0  0  0  0
  -29.5400  -19.5160   21.2380 C   0  0  0  0  0  1  0  0  0  0  0  0
  -31.2280  -19.7540   21.8390 N   0  0  0  0  0  1  0  0  0  0  0  0
  -31.3210  -19.9360   19.9000 O   0  0  0  0  0  1  0  0  0  0  0  0
  -30.8680  -17.9000   22.0250 N   0  0  0  0  0  2  0  0  0  0  0  0
  -30.8610  -18.2940   22.9530 H   0  0  0  0  0  0  0  0  0  0  0  0
  -26.7310  -17.9890   19.9610 C   0  0  0  0  0  0  0  0  0  0  0  0
  -25.8540  -16.9450   20.0690 C   0  0  0  0  0  0  0  0  0  0  0  0
  -26.6520  -15.7640   20.1470 C   0  0  0  0  0  0  0  0  0  0  0  0
  -28.0050  -17.4530   20.0200 N   0  0  0  0  0  0  0  0  0  0  0  0
  -27.9440  -16.0980   20.1660 N   0  0  0  0  0  0  0  0  0  0  0  0
  -26.2420  -14.3460   20.1620 C   0  0  0  0  0  0  0  0  0  0  0  0
  -26.4620  -13.5190   21.2870 C   0  0  0  0  0  3  0  0  0  0  0  0
  -26.0290  -12.1740   21.2890 C   0  0  0  0  0  3  0  0  0  0  0  0
  -25.3610  -11.6380   20.1630 C   0  0  0  0  0  0  0  0  0  0  0  0
  -25.1640  -12.4560   19.0360 C   0  0  0  0  0  3  0  0  0  0  0  0
  -25.6010  -13.7930   19.0330 C   0  0  0  0  0  3  0  0  0  0  0  0
  -24.9240  -10.3360   20.0670 O   0  0  0  0  0  0  0  0  0  0  0  0
  -24.3520   -9.6850   21.1320 C   0  0  0  0  0  0  0  0  0  0  0  0
  -23.1580  -10.1420   21.7330 C   0  0  0  0  0  3  0  0  0  0  0  0
  -22.5690   -9.4040   22.7790 C   0  0  0  0  0  3  0  0  0  0  0  0
  -23.1650   -8.2060   23.2180 C   0  0  0  0  0  0  0  0  0  0  0  0
  -24.3490   -7.7450   22.6150 C   0  0  0  0  0  3  0  0  0  0  0  0
  -24.9390   -8.4820   21.5730 C   0  0  0  0  0  0  0  0  0  0  0  0
  -26.0670   -8.0220   20.9800 F   0  0  0  0  0  0  0  0  0  0  0  0
  -22.5980   -7.4920   24.2190 F   0  0  0  0  0  0  0  0  0  0  0  0
  -24.3550  -17.0360   20.0250 C   0  0  0  0  0  0  0  0  0  0  0  0
  -23.6570  -16.0900   20.6420 N   0  0  0  0  0  0  0  0  0  0  0  0
  -23.7940  -17.9900   19.4860 O   0  0  0  0  0  0  0  0  0  0  0  0
  -24.1100  -15.3180   21.1090 H   0  0  0  0  0  0  0  0  0  0  0  0
  -22.6480  -16.1360   20.6370 H   0  0  0  0  0  0  0  0  0  0  0  0
  -26.5480  -19.3610   19.8100 N   0  0  0  0  0  0  0  0  0  0  0  0
  -25.6250  -19.7760   19.7530 H   0  0  0  0  0  0  0  0  0  0  0  0
  -27.2980  -20.0370   19.7430 H   0  0  0  0  0  0  0  0  0  0  0  0
  2  1  1  0
  2  3  1  0
  4  6  2  0
  5  3  1  0
  5  4  1  0
  7  5  1  0
  8  4  1  0
  8  9  1  0
 10  9  1  0
 10 11  1  0
 11 12  1  0
 12 14  1  0
 13 24  2  0
 14 19  2  0
 14 20  1  0
 15 25  1  0
 16 22  1  0
 17 23  1  0
 18 17  1  0
 18 16  2  0
 19 18  1  0
 20 21  2  0
 21 16  1  0
 22 15  1  0
 23 13  1  0
 23 15  1  0
 25 26  1  0
 26 28  1  0
 27 25  2  0
 29 38  1  0
 30 26  1  0
 30 34  1  0
 31 30  1  0
 31 32  1  0
 32 33  1  0
 33 29  1  0
 34 35  1  0
 34 29  2  0
 35 36  2  0
 36 37  1  0
 38 37  2  0
 39 40  1  0
 39 44  1  0
 39 13  1  0
 40 41  1  1
 42 40  1  0
 43 40  1  0
 44 47  1  0
 45 49  1  0
 45 44  1  0
 46 45  2  0
 49 48  1  0
 50 51  1  0
 51 52  1  0
 51 49  1  0
 53  1  1  0
 53 54  1  0
 54 55  1  0
 55 56  1  0
 56 59  1  0
 56 58  1  0
 57 56  1  0
 59 60  1  0
 60 62  1  0
 61 63  2  0
 61 65  1  0
 62 61  1  0
 64 62  1  0
 66 65  1  0
 67 68  1  1
 67 72  1  0
 67 73  1  0
 70 69  1  0
 70 71  1  0
 71 80  1  0
 74 67  1  0
 75 66  1  0
 75 76  1  0
 77 80  1  0
 77 78  2  0
 78 79  1  0
 79 82  1  0
 79 81  2  0
 80 81  1  0
 82 83  1  0
 83 84  2  0
 85 84  1  0
 86 85  2  0
 87 86  1  0
 87 82  2  0
 88 85  1  0
 88 89  1  0
 89 94  2  0
 89 90  1  0
 90 91  2  0
 91 92  1  0
 92 96  1  0
 93 92  2  0
 94 93  1  0
 95 94  1  0
 97 78  1  0
 97 98  1  0
 98100  1  0
 99 97  2  0
101 98  1  0
102 77  1  0
103102  1  0
104102  1  0
M  ISO  4  11 101  12 101  67 100  75 100
M  END
>  <TORSDO>  (84) 
F 32

>  <SCORE>  (84) 
4.454

>  <name>  (84) 
92

>  <ligand_id>  (84) 
92

>  <original_smiles>  (84) 
[H]c1c([H])c([H])c2c(c1[H])C([H])([H])C([H])([H])C([H])([H])C2([H])N([H])C(=O)C1([H])N(C(=O)C([H])(N([H])C(=O)C([H])(N([H])C([H])([H])[H])C([H])([H])[H])C(C([H])([H])[H])(C([H])([H])[H])C([H])([H])[H])C([H])([H])c2c([H])c(OC([H])([H])C([H])([H])OC([H])([H])C(=O)N([H])C([H])([H])C([H])([H])C([H])([H])C([H])([H])C([H])([H])C([H])([H])[N+]([H])([H])C([H])([H])C([H])([H])N([H])C(=O)C([H])([H])C([H])([H])N([H])C(=O)N3C([H])([H])C([H])([H])C([H])([H])C([H])(n4nc(-c5c([H])c([H])c(Oc6c([H])c([H])c(F)c([H])c6F)c([H])c5[H])c(C(=O)N([H])[H])c4N([H])[H])C3([H])[H])c([H])c([H])c2C1([H])[H]

>  <smiles>  (84) 
[H]c1c([H])c([H])c2c(c1[H])C([H])([H])C([H])([H])C([H])([H])C2([H])N([H])C(=O)C1([H])N(C(=O)C([H])(N([H])C(=O)C([H])(N([H])C([H])([H])[H])C([H])([H])[H])C(C([H])([H])[H])(C([H])([H])[H])C([H])([H])[H])C([H])([H])c2c([H])c(OC([H])([H])C([H])([H])OC([H])([H])C(=O)N([H])C([H])([H])C([H])([H])C([H])([H])C([H])([H])C([H])([H])C([H])([H])[N+]([H])([H])C([H])([H])C([H])([H])N([H])C(=O)C([H])([H])C([H])([H])N([H])C(=O)N3C([H])([H])C([H])([H])C([H])([H])C([H])(n4nc(-c5c([H])c([H])c(Oc6c([H])c([H])c(F)c([H])c6F)c([H])c5[H])c(C(=O)N([H])[H])c4N([H])[H])C3([H])[H])c([H])c([H])c2C1([H])[H]

$$$$
93:0:0
     RDKit          3D

103107  0  0  1  0  0  0  0  0999 V2000
  -23.5510  -17.9900   16.4250 C   0  0  0  0  0  2  0  0  0  0  0  0
  -23.1540  -16.5950   16.9460 C   0  0  0  0  0  2  0  0  0  0  0  0
  -23.8710  -15.4750   16.3000 N   0  0  0  0  0  4  0  0  0  0  0  0
  -24.5800  -15.8270   15.6810 H   0  0  0  0  0  0  0  0  0  0  0  0
  -23.2180  -14.9440   15.7450 H   0  0  0  0  0  0  0  0  0  0  0  0
  -24.5190  -14.6050   17.3080 C   0  0  0  0  0  2  0  0  0  0  0  0
  -25.4440  -13.5150   16.7170 C   0  0  0  0  0  2  0  0  0  0  0  0
  -27.3630  -12.2770   17.7420 C   0  0  0  0  0  0  0  0  0  0  0  0
  -26.1280  -12.8040   17.8080 N   0  0  0  0  0  0  0  0  0  0  0  0
  -27.9190  -12.0170   16.6720 O   0  0  0  0  0  0  0  0  0  0  0  0
  -25.7210  -12.9250   18.7300 H   0  0  0  0  0  0  0  0  0  0  0  0
  -27.9810  -12.2150   19.0610 C   0  0  0  0  0  3  0  0  0  0  0  0
  -29.2040  -12.7650   19.2300 C   0  0  0  0  0  3  0  0  0  0  0  0
  -29.9890  -13.0800   20.5240 C   0  0  0  0  0  2  0  0  0  0  0  0
  -30.6230  -16.0520   20.9840 C   0  0  2  0  0  0  0  0  0  0  0  0
  -32.0570  -15.4980   20.5040 C   0  0  0  0  0  1  0  0  0  0  0  0
  -31.1190  -15.2250   18.8440 C   0  0  0  0  0  1  0  0  0  0  0  0
  -29.3240  -15.4860   18.8310 C   0  0  0  0  0  2  0  0  0  0  0  0
  -28.3730  -16.0090   20.2310 C   0  0  0  0  0  2  0  0  0  0  0  0
  -29.2760  -16.3950   21.8220 C   0  0  0  0  0  1  0  0  0  0  0  0
  -31.0280  -16.0750   21.8780 N   0  0  0  0  0  1  0  0  0  0  0  0
  -30.7740  -17.2720   20.3340 O   0  0  0  0  0  1  0  0  0  0  0  0
  -30.1950  -14.4690   21.1410 N   0  0  0  0  0  2  0  0  0  0  0  0
  -30.3950  -14.2910   22.1160 H   0  0  0  0  0  0  0  0  0  0  0  0
  -25.8420  -16.0060   20.5120 C   0  0  0  0  0  0  0  0  0  0  0  0
  -24.8820  -15.0610   20.7420 C   0  0  0  0  0  0  0  0  0  0  0  0
  -25.5570  -13.8000   20.7370 C   0  0  0  0  0  0  0  0  0  0  0  0
  -27.0550  -15.3500   20.4260 N   0  0  0  0  0  0  0  0  0  0  0  0
  -26.8800  -14.0050   20.6070 N   0  0  0  0  0  0  0  0  0  0  0  0
  -24.9790  -12.4370   20.8200 C   0  0  0  0  0  0  0  0  0  0  0  0
  -25.3630  -11.5210   21.8230 C   0  0  0  0  0  3  0  0  0  0  0  0
  -24.7640  -10.2430   21.9080 C   0  0  0  0  0  3  0  0  0  0  0  0
  -23.7630   -9.8580   20.9780 C   0  0  0  0  0  0  0  0  0  0  0  0
  -23.3990  -10.7650   19.9670 C   0  0  0  0  0  3  0  0  0  0  0  0
  -23.9970  -12.0360   19.8890 C   0  0  0  0  0  3  0  0  0  0  0  0
  -23.1500   -8.6250   20.9500 O   0  0  0  0  0  0  0  0  0  0  0  0
  -22.7310   -7.9950   22.1010 C   0  0  0  0  0  0  0  0  0  0  0  0
  -21.8510   -8.6190   23.0130 C   0  0  0  0  0  3  0  0  0  0  0  0
  -21.3930   -7.9120   24.1460 C   0  0  0  0  0  3  0  0  0  0  0  0
  -21.8090   -6.5830   24.3650 C   0  0  0  0  0  0  0  0  0  0  0  0
  -22.6780   -5.9600   23.4560 C   0  0  0  0  0  3  0  0  0  0  0  0
  -23.1340   -6.6650   22.3220 C   0  0  0  0  0  0  0  0  0  0  0  0
  -23.9550   -6.0500   21.4370 F   0  0  0  0  0  0  0  0  0  0  0  0
  -21.3700   -5.9060   25.4530 F   0  0  0  0  0  0  0  0  0  0  0  0
  -23.4110  -15.3300   20.8960 C   0  0  0  0  0  0  0  0  0  0  0  0
  -22.7070  -14.5070   21.6660 N   0  0  0  0  0  0  0  0  0  0  0  0
  -22.8910  -16.3170   20.3730 O   0  0  0  0  0  0  0  0  0  0  0  0
  -23.1340  -13.7120   22.1160 H   0  0  0  0  0  0  0  0  0  0  0  0
  -21.7190  -14.6640   21.8010 H   0  0  0  0  0  0  0  0  0  0  0  0
  -25.7750  -17.3850   20.3760 N   0  0  0  0  0  0  0  0  0  0  0  0
  -24.9290  -17.9250   20.5270 H   0  0  0  0  0  0  0  0  0  0  0  0
  -26.5920  -17.9700   20.2640 H   0  0  0  0  0  0  0  0  0  0  0  0
  -23.5910  -18.9450   17.6210 C   0  0  0  0  0  2  0  0  0  0  0  0
  -24.2040  -20.3280   17.3720 C   0  0  0  0  0  2  0  0  0  0  0  0
  -25.0750  -20.7100   18.5750 C   0  0  0  0  0  2  0  0  0  0  0  0
  -25.3590  -22.2090   18.7350 C   0  0  0  0  0  2  0  0  0  0  0  0
  -26.5350  -22.3970   19.6210 N   0  0  0  0  0  4  0  0  0  0  0  0
  -27.3530  -22.2890   19.0420 H   0  0  0  0  0  0  0  0  0  0  0  0
  -26.5510  -21.6610   20.3070 H   0  0  0  0  0  0  0  0  0  0  0  0
  -26.6350  -23.6900   20.3320 C   0  0  0  0  0  2  0  0  0  0  0  0
  -27.9120  -24.4750   19.9120 C   0  0  0  0  0  2  0  0  0  0  0  0
  -28.2800  -25.7460   20.7210 C   0  0  0  0  0  2  0  0  0  0  0  0
  -27.5840  -26.9300   20.3330 O   0  0  0  0  0  0  0  0  0  0  0  0
  -27.4730  -31.9130   25.4060 C   0  0  0  0  0  0  0  0  0  0  0  0
  -26.9030  -27.5010   21.3740 C   0  0  0  0  0  0  0  0  0  0  0  0
  -25.8220  -30.0860   25.6280 C   0  0  0  0  0  3  0  0  0  0  0  0
  -25.5580  -28.5760   23.5950 C   0  0  0  0  0  0  0  0  0  0  0  0
  -26.6940  -30.7890   23.3310 C   0  0  0  0  0  2  0  0  0  0  0  0
  -26.4740  -29.3630   22.8810 C   0  0  0  0  0  0  0  0  0  0  0  0
  -27.1690  -28.8240   21.7800 C   0  0  0  0  0  3  0  0  0  0  0  0
  -25.9210  -26.7560   22.0430 C   0  0  0  0  0  3  0  0  0  0  0  0
  -25.2870  -27.2600   23.1900 C   0  0  0  0  0  3  0  0  0  0  0  0
  -24.8600  -29.2300   24.7640 C   0  0  0  0  0  2  0  0  0  0  0  0
  -26.7190  -30.9560   24.7990 N   0  0  0  0  0  0  0  0  0  0  0  0
  -27.4030  -32.1050   26.6260 O   0  0  0  0  0  0  0  0  0  0  0  0
  -26.5940  -29.1490   26.5840 C   0  0  0  0  0  0  0  0  0  0  0  0
  -26.0490  -28.9540   27.7960 N   0  0  0  0  0  0  0  0  0  0  0  0
  -27.6380  -28.5980   26.2230 O   0  0  0  0  0  0  0  0  0  0  0  0
  -25.2000  -29.4550   28.0160 H   0  0  0  0  0  0  0  0  0  0  0  0
  -25.6120  -27.9630   31.2410 C   0  0  0  0  0  0  0  0  0  0  0  0
  -26.5810  -28.0910   28.8470 C   0  0  0  0  0  3  0  0  0  0  0  0
  -26.0850  -26.6350   28.6820 C   0  0  0  0  0  2  0  0  0  0  0  0
  -24.8110  -26.3360   29.4790 C   0  0  0  0  0  2  0  0  0  0  0  0
  -25.0410  -26.5820   30.9720 C   0  0  0  0  0  2  0  0  0  0  0  0
  -26.3220  -28.6790   30.2410 C   0  0  0  0  0  0  0  0  0  0  0  0
  -26.7960  -29.9770   30.5320 C   0  0  0  0  0  3  0  0  0  0  0  0
  -26.5790  -30.5530   31.7990 C   0  0  0  0  0  3  0  0  0  0  0  0
  -25.8900  -29.8340   32.7910 C   0  0  0  0  0  3  0  0  0  0  0  0
  -25.4110  -28.5420   32.5110 C   0  0  0  0  0  3  0  0  0  0  0  0
  -28.4430  -32.8240   24.5890 C   0  0  0  0  0  3  0  0  0  0  0  0
  -28.0850  -34.2160   24.8810 N   0  0  0  0  0  0  0  0  0  0  0  0
  -27.4040  -35.0170   24.0500 C   0  0  0  0  0  0  0  0  0  0  0  0
  -27.0710  -34.6750   22.9110 O   0  0  0  0  0  0  0  0  0  0  0  0
  -28.2750  -34.5460   25.8170 H   0  0  0  0  0  0  0  0  0  0  0  0
  -25.5510  -36.4480   24.9680 C   0  0  0  0  0  1  0  0  0  0  0  0
  -27.0330  -36.4220   24.5630 C   0  0  0  0  0  3  0  0  0  0  0  0
  -28.7230  -37.7260   23.3520 C   0  0  0  0  0  1  0  0  0  0  0  0
  -27.2990  -37.4940   23.5800 N   0  0  0  0  0  0  0  0  0  0  0  0
  -26.8790  -38.3700   23.8790 H   0  0  0  0  0  0  0  0  0  0  0  0
  -29.9640  -32.5570   24.9080 C   0  0  1  0  0  0  0  0  0  0  0  0
  -30.3170  -32.6870   26.4080 C   0  0  0  0  0  1  0  0  0  0  0  0
  -30.3790  -31.1410   24.4460 C   0  0  0  0  0  1  0  0  0  0  0  0
  -30.8470  -33.5560   24.1240 C   0  0  0  0  0  1  0  0  0  0  0  0
  1  2  1  0
  1 53  1  0
  3  2  1  0
  3  6  1  0
  4  3  1  0
  5  3  1  0
  7  6  1  0
  7  9  1  0
  8  9  1  0
  8 12  1  0
  9 11  1  0
 10  8  2  0
 12 13  2  0
 13 14  1  0
 14 23  1  0
 15 20  1  1
 15 21  1  0
 16 15  1  0
 18 17  1  0
 18 19  1  0
 19 28  1  0
 22 15  1  0
 23 24  1  0
 25 26  2  0
 26 45  1  0
 27 26  1  0
 27 30  1  0
 28 25  1  0
 28 29  1  0
 29 27  2  0
 30 31  1  0
 31 32  2  0
 33 32  1  0
 34 33  2  0
 35 34  1  0
 35 30  2  0
 36 33  1  0
 36 37  1  0
 37 42  2  0
 37 38  1  0
 38 39  2  0
 39 40  1  0
 40 44  1  0
 41 40  2  0
 42 41  1  0
 43 42  1  0
 45 46  1  0
 46 49  1  0
 46 48  1  0
 47 45  2  0
 50 25  1  0
 50 51  1  0
 52 50  1  0
 54 53  1  0
 54 55  1  0
 55 56  1  0
 56 57  1  0
 57 59  1  0
 57 60  1  0
 58 57  1  0
 61 60  1  0
 61 62  1  0
 63 62  1  0
 63 65  1  0
 64 75  2  0
 65 70  2  0
 65 71  1  0
 66 76  1  0
 67 73  1  0
 68 74  1  0
 69 68  1  0
 69 67  2  0
 70 69  1  0
 71 72  2  0
 72 67  1  0
 73 66  1  0
 74 64  1  0
 74 66  1  0
 76 77  1  0
 77 79  1  0
 78 76  2  0
 80 89  1  0
 81 77  1  0
 81 85  1  0
 82 81  1  0
 82 83  1  0
 83 84  1  0
 84 80  1  0
 85 86  1  0
 85 80  2  0
 86 87  2  0
 87 88  1  0
 89 88  2  0
 90 91  1  0
 90100  1  0
 90 64  1  0
 91 94  1  0
 92 96  1  0
 92 91  1  0
 93 92  2  0
 96 95  1  0
 97 98  1  0
 98 99  1  0
 98 96  1  0
100101  1  1
102100  1  0
103100  1  0
M  ISO  4  15 100  23 100  62 101  63 101
M  END
>  <TORSDO>  (85) 
F 31

>  <SCORE>  (85) 
20.470

>  <name>  (85) 
93

>  <ligand_id>  (85) 
93

>  <original_smiles>  (85) 
[H]C(C(=O)N([H])C([H])([H])C([H])([H])[N+]([H])([H])C([H])([H])C([H])([H])C([H])([H])C([H])([H])C([H])([H])C([H])([H])[N+]([H])([H])C([H])([H])C([H])([H])C([H])([H])Oc1c([H])c([H])c2c(c1[H])C([H])([H])N(C(=O)C([H])(N([H])C(=O)C([H])(N([H])C([H])([H])[H])C([H])([H])[H])C(C([H])([H])[H])(C([H])([H])[H])C([H])([H])[H])C([H])(C(=O)N([H])C1([H])c3c([H])c([H])c([H])c([H])c3C([H])([H])C([H])([H])C1([H])[H])C2([H])[H])=C([H])C([H])([H])N([H])C(=O)N1C([H])([H])C([H])([H])C([H])([H])C([H])(n2nc(-c3c([H])c([H])c(Oc4c([H])c([H])c(F)c([H])c4F)c([H])c3[H])c(C(=O)N([H])[H])c2N([H])[H])C1([H])[H]

>  <smiles>  (85) 
[H]C(C(=O)N([H])C([H])([H])C([H])([H])[N+]([H])([H])C([H])([H])C([H])([H])C([H])([H])C([H])([H])C([H])([H])C([H])([H])[N+]([H])([H])C([H])([H])C([H])([H])C([H])([H])Oc1c([H])c([H])c2c(c1[H])C([H])([H])N(C(=O)C([H])(N([H])C(=O)C([H])(N([H])C([H])([H])[H])C([H])([H])[H])C(C([H])([H])[H])(C([H])([H])[H])C([H])([H])[H])C([H])(C(=O)N([H])C1([H])c3c([H])c([H])c([H])c([H])c3C([H])([H])C([H])([H])C1([H])[H])C2([H])[H])=C([H])C([H])([H])N([H])C(=O)N1C([H])([H])C([H])([H])C([H])([H])C([H])(n2nc(-c3c([H])c([H])c(Oc4c([H])c([H])c(F)c([H])c4F)c([H])c3[H])c(C(=O)N([H])[H])c2N([H])[H])C1([H])[H]

$$$$
94:0:0
     RDKit          3D

 98105  0  0  1  0  0  0  0  0999 V2000
  -28.9360  -19.8460   17.3250 C   0  0  0  0  0  2  0  0  0  0  0  0
  -30.4430  -20.1040   17.5470 C   0  0  0  0  0  2  0  0  0  0  0  0
  -30.7690  -20.8730   18.8290 C   0  0  0  0  0  0  0  0  0  0  0  0
  -30.6450  -20.2110   19.9840 N   0  0  0  0  0  0  0  0  0  0  0  0
  -31.1190  -22.0520   18.7700 O   0  0  0  0  0  0  0  0  0  0  0  0
  -30.3610  -19.2430   19.9510 H   0  0  0  0  0  0  0  0  0  0  0  0
  -30.7970  -20.8200   21.2990 C   0  0  0  0  0  2  0  0  0  0  0  0
  -30.4060  -19.8570   22.4340 C   0  0  0  0  0  2  0  0  0  0  0  0
  -31.2320  -18.5550   22.4970 C   0  0  0  0  0  2  0  0  0  0  0  0
  -30.6040  -17.3640   21.7560 C   0  0  0  0  0  2  0  0  0  0  0  0
  -31.4000  -16.0690   21.9790 C   0  0  0  0  0  2  0  0  0  0  0  0
  -30.9710  -14.2790   20.2930 C   0  0  0  0  0  0  0  0  0  0  0  0
  -30.4530  -12.2920   18.9340 C   0  0  0  0  0  2  0  0  0  0  0  0
  -29.4730  -12.6100   17.7920 C   0  0  0  0  0  2  0  0  0  0  0  0
  -28.0160  -12.5140   18.2790 C   0  0  0  0  0  2  0  0  0  0  0  0
  -27.7730  -13.3100   19.5860 C   0  0  0  0  0  3  0  0  0  0  0  0
  -28.8470  -12.9670   20.6410 C   0  0  0  0  0  2  0  0  0  0  0  0
  -30.1800  -13.2050   20.0510 N   0  0  0  0  0  0  0  0  0  0  0  0
  -31.9280  -14.6040   19.5850 O   0  0  0  0  0  0  0  0  0  0  0  0
  -30.6910  -14.9200   21.4330 N   0  0  0  0  0  0  0  0  0  0  0  0
  -29.9280  -14.5460   21.9780 H   0  0  0  0  0  0  0  0  0  0  0  0
  -25.4080  -14.0060   20.3410 C   0  0  0  0  0  0  0  0  0  0  0  0
  -24.3240  -13.2700   20.7430 C   0  0  0  0  0  0  0  0  0  0  0  0
  -24.7410  -11.9060   20.7120 C   0  0  0  0  0  0  0  0  0  0  0  0
  -26.4200  -13.0900   20.0960 N   0  0  0  0  0  0  0  0  0  0  0  0
  -26.0210  -11.8210   20.3710 N   0  0  0  0  0  0  0  0  0  0  0  0
  -23.9800  -10.6690   20.9290 C   0  0  0  0  0  0  0  0  0  0  0  0
  -24.4110   -9.6910   21.8530 C   0  0  0  0  0  3  0  0  0  0  0  0
  -23.6540   -8.5190   22.0600 C   0  0  0  0  0  3  0  0  0  0  0  0
  -22.4510   -8.3150   21.3420 C   0  0  0  0  0  0  0  0  0  0  0  0
  -22.0390   -9.2800   20.4070 C   0  0  0  0  0  3  0  0  0  0  0  0
  -22.7970  -10.4460   20.1990 C   0  0  0  0  0  3  0  0  0  0  0  0
  -21.6640   -7.1960   21.4570 O   0  0  0  0  0  0  0  0  0  0  0  0
  -21.6260   -6.4600   22.6150 C   0  0  0  0  0  0  0  0  0  0  0  0
  -21.2820   -7.0380   23.8560 C   0  0  0  0  0  3  0  0  0  0  0  0
  -21.1870   -6.2310   25.0070 C   0  0  0  0  0  3  0  0  0  0  0  0
  -21.4260   -4.8460   24.9180 C   0  0  0  0  0  0  0  0  0  0  0  0
  -21.7610   -4.2670   23.6820 C   0  0  0  0  0  3  0  0  0  0  0  0
  -21.8580   -5.0710   22.5330 C   0  0  0  0  0  0  0  0  0  0  0  0
  -22.1600   -4.5040   21.3400 F   0  0  0  0  0  0  0  0  0  0  0  0
  -21.3290   -4.0700   26.0220 F   0  0  0  0  0  0  0  0  0  0  0  0
  -22.9500  -13.7940   21.0490 C   0  0  0  0  0  0  0  0  0  0  0  0
  -22.2310  -13.1340   21.9500 N   0  0  0  0  0  0  0  0  0  0  0  0
  -22.5260  -14.8250   20.5280 O   0  0  0  0  0  0  0  0  0  0  0  0
  -22.5890  -12.3000   22.3930 H   0  0  0  0  0  0  0  0  0  0  0  0
  -21.3100  -13.4650   22.1990 H   0  0  0  0  0  0  0  0  0  0  0  0
  -25.6080  -15.3690   20.1510 N   0  0  0  0  0  0  0  0  0  0  0  0
  -24.8640  -16.0450   20.2790 H   0  0  0  0  0  0  0  0  0  0  0  0
  -26.4690  -15.7830   19.8170 H   0  0  0  0  0  0  0  0  0  0  0  0
  -28.0340  -21.0980   17.3690 C   0  0  0  0  0  2  0  0  0  0  0  0
  -27.3250  -21.2760   18.7280 C   0  0  0  0  0  2  0  0  0  0  0  0
  -26.5390  -22.5880   18.8650 C   0  0  0  0  0  2  0  0  0  0  0  0
  -28.0940  -24.3820   19.6430 C   0  0  0  0  0  0  0  0  0  0  0  0
  -27.3880  -23.7600   18.6890 N   0  0  0  0  0  0  0  0  0  0  0  0
  -28.1920  -23.9540   20.7950 O   0  0  0  0  0  0  0  0  0  0  0  0
  -27.3820  -24.1880   17.7730 H   0  0  0  0  0  0  0  0  0  0  0  0
  -28.7220  -25.7280   19.2380 C   0  0  0  0  0  2  0  0  0  0  0  0
  -28.4660  -26.7500   20.2100 O   0  0  0  0  0  0  0  0  0  0  0  0
  -24.6030  -31.8820   23.2500 C   0  0  0  0  0  0  0  0  0  0  0  0
  -27.2660  -27.4350   20.1850 C   0  0  0  0  0  0  0  0  0  0  0  0
  -23.4050  -30.4730   21.6070 C   0  0  0  0  0  3  0  0  0  0  0  0
  -24.8630  -28.9310   20.1990 C   0  0  0  0  0  0  0  0  0  0  0  0
  -25.9330  -30.8260   21.4280 C   0  0  0  0  0  2  0  0  0  0  0  0
  -26.0160  -29.4520   20.7970 C   0  0  0  0  0  0  0  0  0  0  0  0
  -27.2140  -28.7060   20.8020 C   0  0  0  0  0  3  0  0  0  0  0  0
  -26.0890  -26.9300   19.5820 C   0  0  0  0  0  3  0  0  0  0  0  0
  -24.8920  -27.6650   19.5960 C   0  0  0  0  0  3  0  0  0  0  0  0
  -23.6220  -29.7870   20.2320 C   0  0  0  0  0  2  0  0  0  0  0  0
  -24.6640  -31.0770   22.1530 N   0  0  0  0  0  0  0  0  0  0  0  0
  -23.5190  -32.1600   23.7810 O   0  0  0  0  0  0  0  0  0  0  0  0
  -22.7490  -29.4560   22.5680 C   0  0  0  0  0  0  0  0  0  0  0  0
  -21.4250  -29.2770   22.4330 N   0  0  0  0  0  0  0  0  0  0  0  0
  -23.4280  -28.8320   23.3880 O   0  0  0  0  0  0  0  0  0  0  0  0
  -20.9420  -29.8270   21.7380 H   0  0  0  0  0  0  0  0  0  0  0  0
  -18.0450  -28.0960   22.9170 C   0  0  0  0  0  0  0  0  0  0  0  0
  -20.6030  -28.3470   23.2040 C   0  0  0  0  0  3  0  0  0  0  0  0
  -20.7050  -26.9120   22.6380 C   0  0  0  0  0  2  0  0  0  0  0  0
  -19.6080  -26.5860   21.6190 C   0  0  0  0  0  2  0  0  0  0  0  0
  -18.2220  -26.7420   22.2510 C   0  0  0  0  0  2  0  0  0  0  0  0
  -19.1640  -28.8560   23.3500 C   0  0  0  0  0  0  0  0  0  0  0  0
  -18.9490  -30.1240   23.9320 C   0  0  0  0  0  3  0  0  0  0  0  0
  -17.6450  -30.6340   24.0840 C   0  0  0  0  0  3  0  0  0  0  0  0
  -16.5400  -29.8710   23.6680 C   0  0  0  0  0  3  0  0  0  0  0  0
  -16.7410  -28.6040   23.0920 C   0  0  0  0  0  3  0  0  0  0  0  0
  -25.8880  -32.5130   23.8730 C   0  0  0  0  0  3  0  0  0  0  0  0
  -25.5780  -33.9110   24.1980 N   0  0  0  0  0  0  0  0  0  0  0  0
  -25.9120  -34.9600   23.4340 C   0  0  0  0  0  0  0  0  0  0  0  0
  -26.5840  -34.8540   22.4050 O   0  0  0  0  0  0  0  0  0  0  0  0
  -24.9780  -34.0690   24.9950 H   0  0  0  0  0  0  0  0  0  0  0  0
  -24.1790  -36.7460   23.0710 C   0  0  0  0  0  1  0  0  0  0  0  0
  -25.4200  -36.3490   23.8860 C   0  0  0  0  0  3  0  0  0  0  0  0
  -27.5550  -37.2400   24.7080 C   0  0  0  0  0  1  0  0  0  0  0  0
  -26.4500  -37.4040   23.7670 N   0  0  0  0  0  0  0  0  0  0  0  0
  -26.0410  -38.3230   23.9140 H   0  0  0  0  0  0  0  0  0  0  0  0
  -26.4050  -31.7410   25.1480 C   0  0  1  0  0  0  0  0  0  0  0  0
  -25.3130  -31.5030   26.2160 C   0  0  0  0  0  1  0  0  0  0  0  0
  -26.9890  -30.3630   24.7540 C   0  0  0  0  0  1  0  0  0  0  0  0
  -27.5550  -32.5350   25.8110 C   0  0  0  0  0  1  0  0  0  0  0  0
  1 50  1  0
  1  2  1  0
  2  3  1  0
  3  4  1  0
  4  7  1  0
  5  3  2  0
  6  4  1  0
  7  8  1  0
  8  9  1  0
 10 11  1  0
 10  9  1  0
 12 20  1  0
 13 18  1  0
 14 15  1  0
 14 13  1  0
 16 15  1  0
 16 25  1  0
 16 17  1  0
 18 12  1  0
 18 17  1  0
 19 12  2  0
 20 21  1  0
 20 11  1  0
 22 23  2  0
 23 42  1  0
 24 23  1  0
 24 27  1  0
 25 22  1  0
 25 26  1  0
 26 24  2  0
 27 28  1  0
 28 29  2  0
 30 33  1  0
 30 29  1  0
 31 30  2  0
 32 31  1  0
 32 27  2  0
 33 34  1  0
 34 35  1  0
 35 36  2  0
 37 36  1  0
 37 41  1  0
 38 37  2  0
 39 34  2  0
 39 38  1  0
 40 39  1  0
 42 43  1  0
 43 46  1  0
 43 45  1  0
 44 42  2  0
 47 48  1  0
 47 22  1  0
 49 47  1  0
 50 51  1  0
 51 52  1  0
 53 55  2  0
 54 52  1  0
 54 53  1  0
 56 54  1  0
 57 53  1  0
 57 58  1  0
 59 70  2  0
 60 58  1  0
 60 65  1  0
 61 69  1  0
 61 71  1  0
 62 68  1  0
 62 64  1  0
 63 69  1  0
 64 65  2  0
 64 63  1  0
 66 67  1  0
 66 60  2  0
 67 62  2  0
 68 61  1  0
 69 59  1  0
 71 73  2  0
 72 71  1  0
 74 72  1  0
 75 84  2  0
 75 80  1  0
 76 72  1  0
 76 80  1  0
 77 76  1  0
 78 79  1  0
 78 77  1  0
 79 75  1  0
 80 81  2  0
 81 82  1  0
 83 82  2  0
 84 83  1  0
 85 59  1  0
 85 86  1  0
 85 95  1  0
 86 89  1  0
 87 91  1  0
 87 86  1  0
 88 87  2  0
 91 90  1  0
 93 91  1  0
 93 94  1  0
 93 92  1  0
 95 98  1  1
 95 96  1  0
 97 95  1  0
M  ISO  4  12 100  20 100  57 101  58 101
M  END
>  <TORSDO>  (86) 
F 28

>  <SCORE>  (86) 
-10.982

>  <name>  (86) 
94

>  <ligand_id>  (86) 
94

>  <original_smiles>  (86) 
[H]c1c([H])c([H])c2c(c1[H])C([H])([H])C([H])([H])C([H])([H])C2([H])N([H])C(=O)C1([H])N(C(=O)C([H])(N([H])C(=O)C([H])(N([H])C([H])([H])[H])C([H])([H])[H])C(C([H])([H])[H])(C([H])([H])[H])C([H])([H])[H])C([H])([H])c2c([H])c(OC([H])([H])C(=O)N([H])C([H])([H])C([H])([H])C([H])([H])C([H])([H])C([H])([H])C(=O)N([H])C([H])([H])C([H])([H])C([H])([H])C([H])([H])C([H])([H])N([H])C(=O)N3C([H])([H])C([H])([H])C([H])([H])C([H])(n4nc(-c5c([H])c([H])c(Oc6c([H])c([H])c(F)c([H])c6F)c([H])c5[H])c(C(=O)N([H])[H])c4N([H])[H])C3([H])[H])c([H])c([H])c2C1([H])[H]

>  <smiles>  (86) 
[H]c1c([H])c([H])c2c(c1[H])C([H])([H])C([H])([H])C([H])([H])C2([H])N([H])C(=O)C1([H])N(C(=O)C([H])(N([H])C(=O)C([H])(N([H])C([H])([H])[H])C([H])([H])[H])C(C([H])([H])[H])(C([H])([H])[H])C([H])([H])[H])C([H])([H])c2c([H])c(OC([H])([H])C(=O)N([H])C([H])([H])C([H])([H])C([H])([H])C([H])([H])C([H])([H])C(=O)N([H])C([H])([H])C([H])([H])C([H])([H])C([H])([H])C([H])([H])N([H])C(=O)N3C([H])([H])C([H])([H])C([H])([H])C([H])(n4nc(-c5c([H])c([H])c(Oc6c([H])c([H])c(F)c([H])c6F)c([H])c5[H])c(C(=O)N([H])[H])c4N([H])[H])C3([H])[H])c([H])c([H])c2C1([H])[H]

$$$$
96:0:0
     RDKit          3D

 99106  0  0  1  0  0  0  0  0999 V2000
  -24.8620  -22.8740   23.6160 C   0  0  0  0  0  0  0  0  0  0  0  0
  -25.3450  -22.2110   24.6720 N   0  0  0  0  0  0  0  0  0  0  0  0
  -23.6550  -23.1010   23.4850 O   0  0  0  0  0  0  0  0  0  0  0  0
  -26.3410  -22.0500   24.7170 H   0  0  0  0  0  0  0  0  0  0  0  0
  -24.5150  -21.6290   25.7250 C   0  0  0  0  0  2  0  0  0  0  0  0
  -25.3130  -20.7230   26.6830 C   0  0  0  0  0  2  0  0  0  0  0  0
  -26.1590  -19.6370   25.9870 C   0  0  0  0  0  2  0  0  0  0  0  0
  -27.5630  -20.1280   25.5900 C   0  0  0  0  0  2  0  0  0  0  0  0
  -28.2810  -19.1710   24.6270 C   0  0  0  0  0  2  0  0  0  0  0  0
  -29.5500  -19.8000   24.0200 C   0  0  0  0  0  2  0  0  0  0  0  0
  -30.9840  -18.6250   22.3710 C   0  0  0  0  0  0  0  0  0  0  0  0
  -30.5180  -18.7840   23.6130 N   0  0  0  0  0  0  0  0  0  0  0  0
  -30.6630  -19.3680   21.4400 O   0  0  0  0  0  0  0  0  0  0  0  0
  -30.8530  -18.1480   24.3260 H   0  0  0  0  0  0  0  0  0  0  0  0
  -31.9460  -17.4660   22.1150 C   0  0  0  0  0  2  0  0  0  0  0  0
  -32.7660  -16.4280   19.9930 C   0  0  0  0  0  0  0  0  0  0  0  0
  -32.5460  -14.1480   19.0830 C   0  0  0  0  0  2  0  0  0  0  0  0
  -31.7290  -14.1280   17.7750 C   0  0  0  0  0  2  0  0  0  0  0  0
  -30.2270  -13.9950   18.0800 C   0  0  0  0  0  2  0  0  0  0  0  0
  -29.7480  -15.0260   19.1320 C   0  0  0  0  0  3  0  0  0  0  0  0
  -30.6770  -15.0350   20.3630 C   0  0  0  0  0  2  0  0  0  0  0  0
  -32.0670  -15.2610   19.9220 N   0  0  0  0  0  0  0  0  0  0  0  0
  -33.8080  -16.6270   19.3670 O   0  0  0  0  0  0  0  0  0  0  0  0
  -32.2340  -17.4380   20.6830 N   0  0  0  0  0  0  0  0  0  0  0  0
  -32.5590  -18.3420   20.3690 H   0  0  0  0  0  0  0  0  0  0  0  0
  -27.3020  -15.6840   19.6020 C   0  0  0  0  0  0  0  0  0  0  0  0
  -26.2070  -14.9430   19.9500 C   0  0  0  0  0  0  0  0  0  0  0  0
  -26.6620  -13.5940   20.0620 C   0  0  0  0  0  0  0  0  0  0  0  0
  -28.3580  -14.7890   19.5210 N   0  0  0  0  0  0  0  0  0  0  0  0
  -27.9710  -13.5300   19.8560 N   0  0  0  0  0  0  0  0  0  0  0  0
  -25.9190  -12.3510   20.2970 C   0  0  0  0  0  0  0  0  0  0  0  0
  -26.0190  -11.6510   21.5200 C   0  0  0  0  0  3  0  0  0  0  0  0
  -25.2830  -10.4650   21.7290 C   0  0  0  0  0  3  0  0  0  0  0  0
  -24.4320   -9.9700   20.7130 C   0  0  0  0  0  0  0  0  0  0  0  0
  -24.3530  -10.6580   19.4890 C   0  0  0  0  0  3  0  0  0  0  0  0
  -25.0910  -11.8350   19.2790 C   0  0  0  0  0  3  0  0  0  0  0  0
  -23.6990   -8.8120   20.8170 O   0  0  0  0  0  0  0  0  0  0  0  0
  -23.0420   -8.4780   21.9750 C   0  0  0  0  0  0  0  0  0  0  0  0
  -22.0770   -9.3290   22.5550 C   0  0  0  0  0  3  0  0  0  0  0  0
  -21.3760   -8.9160   23.7060 C   0  0  0  0  0  3  0  0  0  0  0  0
  -21.6310   -7.6530   24.2730 C   0  0  0  0  0  0  0  0  0  0  0  0
  -22.5900   -6.8030   23.6930 C   0  0  0  0  0  3  0  0  0  0  0  0
  -23.2910   -7.2140   22.5460 C   0  0  0  0  0  0  0  0  0  0  0  0
  -24.1980   -6.3830   21.9790 F   0  0  0  0  0  0  0  0  0  0  0  0
  -20.9530   -7.2530   25.3730 F   0  0  0  0  0  0  0  0  0  0  0  0
  -24.7940  -15.4370   20.0760 C   0  0  0  0  0  0  0  0  0  0  0  0
  -23.9980  -14.8020   20.9290 N   0  0  0  0  0  0  0  0  0  0  0  0
  -24.4020  -16.4200   19.4510 O   0  0  0  0  0  0  0  0  0  0  0  0
  -24.3290  -14.0140   21.4660 H   0  0  0  0  0  0  0  0  0  0  0  0
  -23.0460  -15.1170   21.0530 H   0  0  0  0  0  0  0  0  0  0  0  0
  -27.4880  -17.0360   19.3270 N   0  0  0  0  0  0  0  0  0  0  0  0
  -26.7270  -17.7030   19.3510 H   0  0  0  0  0  0  0  0  0  0  0  0
  -28.3710  -17.4450   19.0520 H   0  0  0  0  0  0  0  0  0  0  0  0
  -25.8550  -23.3390   22.5390 C   0  0  0  0  0  2  0  0  0  0  0  0
  -25.1740  -23.3630   21.2890 O   0  0  0  0  0  0  0  0  0  0  0  0
  -26.0090  -23.4160   20.1420 C   0  0  0  0  0  2  0  0  0  0  0  0
  -25.1310  -24.0230   19.0420 C   0  0  0  0  0  2  0  0  0  0  0  0
  -25.8670  -24.5010   17.7690 C   0  0  0  0  0  2  0  0  0  0  0  0
  -25.0710  -25.3970   16.9780 O   0  0  0  0  0  0  0  0  0  0  0  0
  -25.1500  -29.5750   22.7250 C   0  0  0  0  0  0  0  0  0  0  0  0
  -24.4180  -26.3510   17.7190 C   0  0  0  0  0  0  0  0  0  0  0  0
  -22.9580  -29.3090   21.6050 C   0  0  0  0  0  3  0  0  0  0  0  0
  -23.0200  -28.2190   19.2990 C   0  0  0  0  0  0  0  0  0  0  0  0
  -25.1370  -29.1170   20.2810 C   0  0  0  0  0  2  0  0  0  0  0  0
  -24.4190  -28.1600   19.3540 C   0  0  0  0  0  0  0  0  0  0  0  0
  -25.1270  -27.2240   18.5690 C   0  0  0  0  0  3  0  0  0  0  0  0
  -23.0140  -26.4470   17.6380 C   0  0  0  0  0  3  0  0  0  0  0  0
  -22.3090  -27.3620   18.4410 C   0  0  0  0  0  3  0  0  0  0  0  0
  -22.3400  -29.2390   20.1830 C   0  0  0  0  0  2  0  0  0  0  0  0
  -24.4570  -29.3170   21.5810 N   0  0  0  0  0  0  0  0  0  0  0  0
  -24.5620  -29.8450   23.7810 O   0  0  0  0  0  0  0  0  0  0  0  0
  -22.3680  -28.1640   22.4590 C   0  0  0  0  0  0  0  0  0  0  0  0
  -21.0440  -27.9660   22.3560 N   0  0  0  0  0  0  0  0  0  0  0  0
  -23.0930  -27.4640   23.1700 O   0  0  0  0  0  0  0  0  0  0  0  0
  -20.5190  -28.5880   21.7580 H   0  0  0  0  0  0  0  0  0  0  0  0
  -17.9860  -26.0500   22.2230 C   0  0  0  0  0  0  0  0  0  0  0  0
  -20.2750  -26.9270   23.0380 C   0  0  0  0  0  3  0  0  0  0  0  0
  -20.8210  -25.5210   22.7010 C   0  0  0  0  0  2  0  0  0  0  0  0
  -20.1080  -24.8670   21.5130 C   0  0  0  0  0  2  0  0  0  0  0  0
  -18.6090  -24.7320   21.7970 C   0  0  0  0  0  2  0  0  0  0  0  0
  -18.7710  -27.0860   22.7920 C   0  0  0  0  0  0  0  0  0  0  0  0
  -18.1490  -28.3050   23.1410 C   0  0  0  0  0  3  0  0  0  0  0  0
  -16.7700  -28.4950   22.9320 C   0  0  0  0  0  3  0  0  0  0  0  0
  -15.9950  -27.4600   22.3810 C   0  0  0  0  0  3  0  0  0  0  0  0
  -16.6010  -26.2390   22.0340 C   0  0  0  0  0  3  0  0  0  0  0  0
  -26.7110  -29.5650   22.7570 C   0  0  0  0  0  3  0  0  0  0  0  0
  -27.1430  -30.7620   23.4880 N   0  0  0  0  0  0  0  0  0  0  0  0
  -27.7040  -31.8380   22.9200 C   0  0  0  0  0  0  0  0  0  0  0  0
  -27.9800  -31.8950   21.7180 O   0  0  0  0  0  0  0  0  0  0  0  0
  -26.9000  -30.8080   24.4670 H   0  0  0  0  0  0  0  0  0  0  0  0
  -26.9780  -34.1550   23.5700 C   0  0  0  0  0  1  0  0  0  0  0  0
  -28.0060  -33.0430   23.8290 C   0  0  0  0  0  3  0  0  0  0  0  0
  -30.4140  -32.6770   24.1410 C   0  0  0  0  0  1  0  0  0  0  0  0
  -29.3740  -33.5800   23.6580 N   0  0  0  0  0  0  0  0  0  0  0  0
  -29.4740  -34.4690   24.1420 H   0  0  0  0  0  0  0  0  0  0  0  0
  -27.3140  -28.2600   23.4110 C   0  0  1  0  0  0  0  0  0  0  0  0
  -26.7220  -27.9340   24.8010 C   0  0  0  0  0  1  0  0  0  0  0  0
  -27.0820  -27.0330   22.4980 C   0  0  0  0  0  1  0  0  0  0  0  0
  -28.8450  -28.4120   23.5690 C   0  0  0  0  0  1  0  0  0  0  0  0
  1  2  1  0
  2  4  1  0
  2  5  1  0
  3  1  2  0
  5  6  1  0
  7  6  1  0
  8  7  1  0
  9  8  1  0
 10  9  1  0
 11 12  1  0
 12 10  1  0
 12 14  1  0
 13 11  2  0
 15 11  1  0
 16 24  1  0
 17 22  1  0
 18 19  1  0
 18 17  1  0
 20 19  1  0
 20 29  1  0
 20 21  1  0
 22 16  1  0
 22 21  1  0
 23 16  2  0
 24 15  1  0
 25 24  1  0
 26 27  2  0
 27 28  1  0
 27 46  1  0
 28 31  1  0
 29 26  1  0
 29 30  1  0
 30 28  2  0
 31 32  1  0
 32 33  2  0
 34 37  1  0
 34 33  1  0
 35 34  2  0
 36 35  1  0
 36 31  2  0
 37 38  1  0
 38 43  2  0
 38 39  1  0
 39 40  2  0
 40 41  1  0
 41 45  1  0
 42 41  2  0
 43 42  1  0
 44 43  1  0
 46 47  1  0
 47 50  1  0
 47 49  1  0
 48 46  2  0
 51 52  1  0
 51 26  1  0
 53 51  1  0
 54  1  1  0
 55 54  1  0
 56 55  1  0
 57 56  1  0
 58 57  1  0
 59 61  1  0
 59 58  1  0
 60 71  2  0
 61 66  1  0
 62 72  1  0
 63 65  1  0
 63 69  1  0
 64 70  1  0
 65 64  1  0
 66 65  2  0
 67 61  2  0
 67 68  1  0
 68 63  2  0
 69 62  1  0
 70 62  1  0
 70 60  1  0
 72 74  2  0
 73 72  1  0
 75 73  1  0
 76 81  1  0
 77 73  1  0
 78 77  1  0
 79 80  1  0
 79 78  1  0
 80 76  1  0
 81 77  1  0
 81 82  2  0
 83 82  1  0
 84 83  2  0
 85 76  2  0
 85 84  1  0
 86 60  1  0
 86 96  1  0
 86 87  1  0
 87 90  1  0
 88 87  1  0
 88 92  1  0
 89 88  2  0
 92 91  1  0
 94 92  1  0
 94 93  1  0
 94 95  1  0
 96 99  1  1
 96 97  1  0
 98 96  1  0
M  ISO  4  16 100  24 100  58 101  59 101
M  END
>  <TORSDO>  (87) 
F 29

>  <SCORE>  (87) 
33.050

>  <name>  (87) 
96

>  <ligand_id>  (87) 
96

>  <original_smiles>  (87) 
[H]c1c([H])c([H])c2c(c1[H])C([H])([H])C([H])([H])C([H])([H])C2([H])N([H])C(=O)C1([H])N(C(=O)C([H])(N([H])C(=O)C([H])(N([H])C([H])([H])[H])C([H])([H])[H])C(C([H])([H])[H])(C([H])([H])[H])C([H])([H])[H])C([H])([H])c2c([H])c(OC([H])([H])C([H])([H])C([H])([H])OC([H])([H])C(=O)N([H])C([H])([H])C([H])([H])C([H])([H])C([H])([H])C([H])([H])C([H])([H])N([H])C(=O)C([H])([H])N([H])C(=O)N3C([H])([H])C([H])([H])C([H])([H])C([H])(n4nc(-c5c([H])c([H])c(Oc6c([H])c([H])c(F)c([H])c6F)c([H])c5[H])c(C(=O)N([H])[H])c4N([H])[H])C3([H])[H])c([H])c([H])c2C1([H])[H]

>  <smiles>  (87) 
[H]c1c([H])c([H])c2c(c1[H])C([H])([H])C([H])([H])C([H])([H])C2([H])N([H])C(=O)C1([H])N(C(=O)C([H])(N([H])C(=O)C([H])(N([H])C([H])([H])[H])C([H])([H])[H])C(C([H])([H])[H])(C([H])([H])[H])C([H])([H])[H])C([H])([H])c2c([H])c(OC([H])([H])C([H])([H])C([H])([H])OC([H])([H])C(=O)N([H])C([H])([H])C([H])([H])C([H])([H])C([H])([H])C([H])([H])C([H])([H])N([H])C(=O)C([H])([H])N([H])C(=O)N3C([H])([H])C([H])([H])C([H])([H])C([H])(n4nc(-c5c([H])c([H])c(Oc6c([H])c([H])c(F)c([H])c6F)c([H])c5[H])c(C(=O)N([H])[H])c4N([H])[H])C3([H])[H])c([H])c([H])c2C1([H])[H]

$$$$
97:0:0
     RDKit          3D

 96103  0  0  1  0  0  0  0  0999 V2000
  -27.1570  -24.6460   21.5220 C   0  0  0  0  0  2  0  0  0  0  0  0
  -28.1810  -25.5330   20.8050 C   0  0  0  0  0  0  0  0  0  0  0  0
  -28.4650  -25.2470   19.5280 N   0  0  0  0  0  0  0  0  0  0  0  0
  -28.7210  -26.4590   21.4140 O   0  0  0  0  0  0  0  0  0  0  0  0
  -28.0070  -24.4480   19.1090 H   0  0  0  0  0  0  0  0  0  0  0  0
  -29.4560  -25.9470   18.7110 C   0  0  0  0  0  2  0  0  0  0  0  0
  -28.8600  -26.4860   17.3960 C   0  0  0  0  0  2  0  0  0  0  0  0
  -28.6160  -25.4090   16.3270 C   0  0  0  0  0  2  0  0  0  0  0  0
  -27.7420  -25.9130   15.1670 C   0  0  0  0  0  2  0  0  0  0  0  0
  -27.1070  -27.2650   15.4950 C   0  0  0  0  0  2  0  0  0  0  0  0
  -24.5350  -27.0980   15.3840 C   0  0  0  0  0  0  0  0  0  0  0  0
  -23.0670  -27.4480   13.4290 C   0  0  0  0  0  2  0  0  0  0  0  0
  -23.0910  -26.2330   12.4760 C   0  0  0  0  0  2  0  0  0  0  0  0
  -24.2820  -26.2810   11.4950 C   0  0  0  0  0  2  0  0  0  0  0  0
  -25.6140  -26.6270   12.2060 C   0  0  0  0  0  3  0  0  0  0  0  0
  -25.3930  -27.8760   13.0810 C   0  0  0  0  0  2  0  0  0  0  0  0
  -24.3800  -27.5450   14.0990 N   0  0  0  0  0  0  0  0  0  0  0  0
  -23.5750  -26.7160   16.0560 O   0  0  0  0  0  0  0  0  0  0  0  0
  -25.7380  -27.1350   15.9930 N   0  0  0  0  0  0  0  0  0  0  0  0
  -25.6820  -26.8780   16.9670 H   0  0  0  0  0  0  0  0  0  0  0  0
  -27.7580  -25.9760   10.9260 C   0  0  0  0  0  0  0  0  0  0  0  0
  -28.4450  -26.6030    9.9180 C   0  0  0  0  0  0  0  0  0  0  0  0
  -27.7460  -27.8210    9.6640 C   0  0  0  0  0  0  0  0  0  0  0  0
  -26.7020  -26.8160   11.2490 N   0  0  0  0  0  0  0  0  0  0  0  0
  -26.7300  -27.9520   10.5060 N   0  0  0  0  0  0  0  0  0  0  0  0
  -27.9450  -28.8430    8.6310 C   0  0  0  0  0  0  0  0  0  0  0  0
  -28.8190  -29.9360    8.8290 C   0  0  0  0  0  3  0  0  0  0  0  0
  -29.0030  -30.8980    7.8130 C   0  0  0  0  0  3  0  0  0  0  0  0
  -28.3170  -30.7700    6.5830 C   0  0  0  0  0  0  0  0  0  0  0  0
  -27.4300  -29.6950    6.4010 C   0  0  0  0  0  3  0  0  0  0  0  0
  -27.2420  -28.7420    7.4140 C   0  0  0  0  0  3  0  0  0  0  0  0
  -28.4180  -31.6660    5.5490 O   0  0  0  0  0  0  0  0  0  0  0  0
  -29.5930  -32.3200    5.2720 C   0  0  0  0  0  0  0  0  0  0  0  0
  -30.7340  -31.6330    4.8050 C   0  0  0  0  0  3  0  0  0  0  0  0
  -31.9000  -32.3490    4.4710 C   0  0  0  0  0  3  0  0  0  0  0  0
  -31.9240  -33.7520    4.5910 C   0  0  0  0  0  0  0  0  0  0  0  0
  -30.7870  -34.4370    5.0520 C   0  0  0  0  0  3  0  0  0  0  0  0
  -29.6240  -33.7240    5.3890 C   0  0  0  0  0  0  0  0  0  0  0  0
  -28.5270  -34.3940    5.8140 F   0  0  0  0  0  0  0  0  0  0  0  0
  -33.0410  -34.4400    4.2610 F   0  0  0  0  0  0  0  0  0  0  0  0
  -29.6280  -26.0620    9.1690 C   0  0  0  0  0  0  0  0  0  0  0  0
  -30.6790  -26.8590    9.0210 N   0  0  0  0  0  0  0  0  0  0  0  0
  -29.6440  -24.9060    8.7500 O   0  0  0  0  0  0  0  0  0  0  0  0
  -30.6680  -27.8040    9.3740 H   0  0  0  0  0  0  0  0  0  0  0  0
  -31.5170  -26.5090    8.5720 H   0  0  0  0  0  0  0  0  0  0  0  0
  -27.9330  -24.7600   11.5780 N   0  0  0  0  0  0  0  0  0  0  0  0
  -28.6870  -24.1250   11.3390 H   0  0  0  0  0  0  0  0  0  0  0  0
  -27.3070  -24.3850   12.2770 H   0  0  0  0  0  0  0  0  0  0  0  0
  -26.8640  -25.1780   22.8690 N   0  0  0  0  0  4  0  0  0  0  0  0
  -27.4200  -26.0170   22.9410 H   0  0  0  0  0  0  0  0  0  0  0  0
  -27.1840  -24.5230   23.5630 H   0  0  0  0  0  0  0  0  0  0  0  0
  -25.4450  -25.5210   23.1170 C   0  0  0  0  0  2  0  0  0  0  0  0
  -25.2280  -27.0420   23.2260 C   0  0  0  0  0  2  0  0  0  0  0  0
  -24.3660  -27.4190   24.4430 C   0  0  0  0  0  2  0  0  0  0  0  0
  -24.6130  -28.8510   24.9510 C   0  0  0  0  0  2  0  0  0  0  0  0
  -25.7830  -28.8950   25.7560 O   0  0  0  0  0  0  0  0  0  0  0  0
  -30.7030  -33.9440   26.7540 C   0  0  0  0  0  0  0  0  0  0  0  0
  -26.8330  -29.6230   25.2610 C   0  0  0  0  0  0  0  0  0  0  0  0
  -30.6020  -32.9650   24.4810 C   0  0  0  0  0  3  0  0  0  0  0  0
  -29.1200  -30.9080   24.2360 C   0  0  0  0  0  0  0  0  0  0  0  0
  -29.8530  -31.6200   26.5190 C   0  0  0  0  0  2  0  0  0  0  0  0
  -28.8650  -30.9200   25.6130 C   0  0  0  0  0  0  0  0  0  0  0  0
  -27.7180  -30.2840   26.1320 C   0  0  0  0  0  3  0  0  0  0  0  0
  -27.0900  -29.6180   23.8750 C   0  0  0  0  0  3  0  0  0  0  0  0
  -28.2280  -30.2640   23.3540 C   0  0  0  0  0  3  0  0  0  0  0  0
  -30.3790  -31.6010   23.7710 C   0  0  0  0  0  2  0  0  0  0  0  0
  -30.3720  -32.8880   25.9610 N   0  0  0  0  0  0  0  0  0  0  0  0
  -31.2310  -34.9580   26.2780 O   0  0  0  0  0  0  0  0  0  0  0  0
  -29.7280  -34.0320   23.7840 C   0  0  0  0  0  0  0  0  0  0  0  0
  -30.3820  -35.0270   23.1640 N   0  0  0  0  0  0  0  0  0  0  0  0
  -28.4970  -33.9390   23.7800 O   0  0  0  0  0  0  0  0  0  0  0  0
  -31.3910  -35.0400   23.2220 H   0  0  0  0  0  0  0  0  0  0  0  0
  -30.5700  -38.5780   22.5120 C   0  0  0  0  0  0  0  0  0  0  0  0
  -29.7740  -36.1200   22.4080 C   0  0  0  0  0  3  0  0  0  0  0  0
  -30.2710  -36.1280   20.9440 C   0  0  0  0  0  2  0  0  0  0  0  0
  -31.4840  -37.0370   20.7230 C   0  0  0  0  0  2  0  0  0  0  0  0
  -31.1510  -38.4810   21.1110 C   0  0  0  0  0  2  0  0  0  0  0  0
  -29.9380  -37.4640   23.1270 C   0  0  0  0  0  0  0  0  0  0  0  0
  -29.4490  -37.5960   24.4460 C   0  0  0  0  0  3  0  0  0  0  0  0
  -29.5780  -38.8130   25.1420 C   0  0  0  0  0  3  0  0  0  0  0  0
  -30.1930  -39.9150   24.5240 C   0  0  0  0  0  3  0  0  0  0  0  0
  -30.6830  -39.7980   23.2100 C   0  0  0  0  0  3  0  0  0  0  0  0
  -30.4500  -33.9260   28.2960 C   0  0  0  0  0  3  0  0  0  0  0  0
  -31.5970  -34.5810   28.9400 N   0  0  0  0  0  0  0  0  0  0  0  0
  -32.4390  -33.9780   29.7920 C   0  0  0  0  0  0  0  0  0  0  0  0
  -32.2820  -32.8170   30.1800 O   0  0  0  0  0  0  0  0  0  0  0  0
  -31.8100  -35.5200   28.6390 H   0  0  0  0  0  0  0  0  0  0  0  0
  -34.9280  -33.9670   30.1300 C   0  0  0  0  0  1  0  0  0  0  0  0
  -33.6430  -34.7950   30.2960 C   0  0  0  0  0  3  0  0  0  0  0  0
  -32.5530  -36.3250   31.8750 C   0  0  0  0  0  1  0  0  0  0  0  0
  -33.5120  -35.2370   31.7010 N   0  0  0  0  0  0  0  0  0  0  0  0
  -34.4100  -35.5420   32.0690 H   0  0  0  0  0  0  0  0  0  0  0  0
  -29.0970  -34.6210   28.7180 C   0  0  1  0  0  0  0  0  0  0  0  0
  -28.9930  -36.0930   28.2620 C   0  0  0  0  0  1  0  0  0  0  0  0
  -27.8870  -33.8570   28.1340 C   0  0  0  0  0  1  0  0  0  0  0  0
  -28.9450  -34.5850   30.2570 C   0  0  0  0  0  1  0  0  0  0  0  0
  1 49  1  0
  2  4  2  0
  2  1  1  0
  3  2  1  0
  5  3  1  0
  6  3  1  0
  7  6  1  0
  8  7  1  0
  9 10  1  0
  9  8  1  0
 10 19  1  0
 11 19  1  0
 11 18  2  0
 12 17  1  0
 13 12  1  0
 14 15  1  0
 14 13  1  0
 15 24  1  0
 15 16  1  0
 16 17  1  0
 17 11  1  0
 19 20  1  0
 21 24  1  0
 21 46  1  0
 22 21  2  0
 23 22  1  0
 23 25  2  0
 25 24  1  0
 26 27  1  0
 26 23  1  0
 28 27  2  0
 29 28  1  0
 30 29  2  0
 30 31  1  0
 31 26  2  0
 32 29  1  0
 33 38  1  0
 33 32  1  0
 34 33  2  0
 35 36  2  0
 35 34  1  0
 36 37  1  0
 37 38  2  0
 38 39  1  0
 40 36  1  0
 41 22  1  0
 42 41  1  0
 42 44  1  0
 43 41  2  0
 45 42  1  0
 46 48  1  0
 47 46  1  0
 49 50  1  0
 49 52  1  0
 49 51  1  0
 52 53  1  0
 53 54  1  0
 54 55  1  0
 55 56  1  0
 58 56  1  0
 58 63  1  0
 59 69  1  0
 59 67  1  0
 60 62  1  0
 62 63  2  0
 62 61  1  0
 64 58  2  0
 65 64  1  0
 65 60  2  0
 66 60  1  0
 66 59  1  0
 67 61  1  0
 67 57  1  0
 68 57  2  0
 70 72  1  0
 70 69  1  0
 71 69  2  0
 73 78  2  0
 73 82  1  0
 74 78  1  0
 74 70  1  0
 75 74  1  0
 76 75  1  0
 76 77  1  0
 77 73  1  0
 78 79  1  0
 79 80  2  0
 81 80  1  0
 82 81  2  0
 83 57  1  0
 83 93  1  0
 83 84  1  0
 84 85  1  0
 85 86  2  0
 85 89  1  0
 87 84  1  0
 89 88  1  0
 89 91  1  0
 91 90  1  0
 91 92  1  0
 93 96  1  1
 94 93  1  0
 95 93  1  0
M  ISO  4  11 100  19 100  55 101  56 101
M  END
>  <TORSDO>  (88) 
F 27

>  <SCORE>  (88) 
-5.655

>  <name>  (88) 
97

>  <ligand_id>  (88) 
97

>  <original_smiles>  (88) 
[H]c1c([H])c([H])c2c(c1[H])C([H])([H])C([H])([H])C([H])([H])C2([H])N([H])C(=O)C1([H])N(C(=O)C([H])(N([H])C(=O)C([H])(N([H])C([H])([H])[H])C([H])([H])[H])C(C([H])([H])[H])(C([H])([H])[H])C([H])([H])[H])C([H])([H])c2c([H])c(OC([H])([H])C([H])([H])C([H])([H])C([H])([H])[N+]([H])([H])C([H])([H])C(=O)N([H])C([H])([H])C([H])([H])C([H])([H])C([H])([H])C([H])([H])N([H])C(=O)N3C([H])([H])C([H])([H])C([H])([H])C([H])(n4nc(-c5c([H])c([H])c(Oc6c([H])c([H])c(F)c([H])c6F)c([H])c5[H])c(C(=O)N([H])[H])c4N([H])[H])C3([H])[H])c([H])c([H])c2C1([H])[H]

>  <smiles>  (88) 
[H]c1c([H])c([H])c2c(c1[H])C([H])([H])C([H])([H])C([H])([H])C2([H])N([H])C(=O)C1([H])N(C(=O)C([H])(N([H])C(=O)C([H])(N([H])C([H])([H])[H])C([H])([H])[H])C(C([H])([H])[H])(C([H])([H])[H])C([H])([H])[H])C([H])([H])c2c([H])c(OC([H])([H])C([H])([H])C([H])([H])C([H])([H])[N+]([H])([H])C([H])([H])C(=O)N([H])C([H])([H])C([H])([H])C([H])([H])C([H])([H])C([H])([H])N([H])C(=O)N3C([H])([H])C([H])([H])C([H])([H])C([H])(n4nc(-c5c([H])c([H])c(Oc6c([H])c([H])c(F)c([H])c6F)c([H])c5[H])c(C(=O)N([H])[H])c4N([H])[H])C3([H])[H])c([H])c([H])c2C1([H])[H]

$$$$
98:0:0
     RDKit          3D

 93100  0  0  1  0  0  0  0  0999 V2000
  -28.7640  -22.2920   20.9630 N   0  0  0  0  0  4  0  0  0  0  0  0
  -29.5390  -22.6380   21.5030 H   0  0  0  0  0  0  0  0  0  0  0  0
  -27.9580  -22.2690   21.5680 H   0  0  0  0  0  0  0  0  0  0  0  0
  -29.0440  -20.8980   20.5630 C   0  0  0  0  0  2  0  0  0  0  0  0
  -30.0500  -20.2620   21.5480 C   0  0  0  0  0  2  0  0  0  0  0  0
  -29.6910  -18.8460   22.0260 C   0  0  0  0  0  2  0  0  0  0  0  0
  -31.1500  -17.1230   20.9490 C   0  0  0  0  0  0  0  0  0  0  0  0
  -29.9860  -17.7630   21.0980 N   0  0  0  0  0  0  0  0  0  0  0  0
  -32.2400  -17.5510   21.3340 O   0  0  0  0  0  0  0  0  0  0  0  0
  -29.1730  -17.2950   20.7070 H   0  0  0  0  0  0  0  0  0  0  0  0
  -31.0270  -15.7340   20.3520 C   0  0  0  0  0  2  0  0  0  0  0  0
  -32.5300  -13.9190   19.5430 C   0  0  0  0  0  0  0  0  0  0  0  0
  -31.9020  -11.6070   18.9070 C   0  0  0  0  0  2  0  0  0  0  0  0
  -30.8630  -11.5950   17.7640 C   0  0  0  0  0  2  0  0  0  0  0  0
  -29.4260  -11.7300   18.3100 C   0  0  0  0  0  2  0  0  0  0  0  0
  -29.2970  -12.9050   19.3090 C   0  0  0  0  0  3  0  0  0  0  0  0
  -30.4060  -12.7790   20.3770 C   0  0  0  0  0  2  0  0  0  0  0  0
  -31.7100  -12.8390   19.6920 N   0  0  0  0  0  0  0  0  0  0  0  0
  -33.5420  -13.8900   18.8390 O   0  0  0  0  0  0  0  0  0  0  0  0
  -32.2890  -14.9940   20.3110 N   0  0  0  0  0  0  0  0  0  0  0  0
  -33.0790  -15.6200   20.3990 H   0  0  0  0  0  0  0  0  0  0  0  0
  -27.2320  -14.0880   20.2990 C   0  0  0  0  0  0  0  0  0  0  0  0
  -26.0320  -13.6000   20.7410 C   0  0  0  0  0  0  0  0  0  0  0  0
  -26.0990  -12.1830   20.5830 C   0  0  0  0  0  0  0  0  0  0  0  0
  -27.9680  -12.9780   19.9100 N   0  0  0  0  0  0  0  0  0  0  0  0
  -27.2940  -11.8250   20.1310 N   0  0  0  0  0  0  0  0  0  0  0  0
  -25.0770  -11.1470   20.7720 C   0  0  0  0  0  0  0  0  0  0  0  0
  -25.2980  -10.0420   21.6230 C   0  0  0  0  0  3  0  0  0  0  0  0
  -24.2960   -9.0620   21.7960 C   0  0  0  0  0  3  0  0  0  0  0  0
  -23.0580   -9.1880   21.1210 C   0  0  0  0  0  0  0  0  0  0  0  0
  -22.8530  -10.2780   20.2590 C   0  0  0  0  0  3  0  0  0  0  0  0
  -23.8530  -11.2460   20.0800 C   0  0  0  0  0  3  0  0  0  0  0  0
  -22.0350   -8.2760   21.2130 O   0  0  0  0  0  0  0  0  0  0  0  0
  -21.8260   -7.5450   22.3530 C   0  0  0  0  0  0  0  0  0  0  0  0
  -21.5970   -8.1610   23.6030 C   0  0  0  0  0  3  0  0  0  0  0  0
  -21.3190   -7.3720   24.7370 C   0  0  0  0  0  3  0  0  0  0  0  0
  -21.2540   -5.9700   24.6210 C   0  0  0  0  0  0  0  0  0  0  0  0
  -21.4740   -5.3560   23.3750 C   0  0  0  0  0  3  0  0  0  0  0  0
  -21.7550   -6.1420   22.2450 C   0  0  0  0  0  0  0  0  0  0  0  0
  -21.9490   -5.5470   21.0420 F   0  0  0  0  0  0  0  0  0  0  0  0
  -20.9780   -5.2100   25.7060 F   0  0  0  0  0  0  0  0  0  0  0  0
  -24.8470  -14.4060   21.1900 C   0  0  0  0  0  0  0  0  0  0  0  0
  -24.0610  -13.8710   22.1170 N   0  0  0  0  0  0  0  0  0  0  0  0
  -24.6430  -15.5370   20.7510 O   0  0  0  0  0  0  0  0  0  0  0  0
  -24.2530  -12.9500   22.4900 H   0  0  0  0  0  0  0  0  0  0  0  0
  -23.2690  -14.3870   22.4700 H   0  0  0  0  0  0  0  0  0  0  0  0
  -27.7490  -15.3740   20.1700 N   0  0  0  0  0  0  0  0  0  0  0  0
  -27.0940  -16.1460   20.2340 H   0  0  0  0  0  0  0  0  0  0  0  0
  -28.4650  -15.5390   19.4740 H   0  0  0  0  0  0  0  0  0  0  0  0
  -28.4870  -23.2560   19.8750 C   0  0  0  0  0  2  0  0  0  0  0  0
  -28.3760  -24.6770   20.4570 C   0  0  0  0  0  2  0  0  0  0  0  0
  -28.6980  -25.8100   19.4710 C   0  0  0  0  0  2  0  0  0  0  0  0
  -28.5590  -27.0620   20.1400 O   0  0  0  0  0  0  0  0  0  0  0  0
  -24.6430  -31.9730   23.4550 C   0  0  0  0  0  0  0  0  0  0  0  0
  -27.3360  -27.7000   20.1840 C   0  0  0  0  0  0  0  0  0  0  0  0
  -23.4530  -30.6450   21.7410 C   0  0  0  0  0  3  0  0  0  0  0  0
  -24.9230  -29.1700   20.2690 C   0  0  0  0  0  0  0  0  0  0  0  0
  -25.9770  -31.0170   21.5830 C   0  0  0  0  0  2  0  0  0  0  0  0
  -26.0710  -29.6750   20.8890 C   0  0  0  0  0  0  0  0  0  0  0  0
  -27.2750  -28.9440   20.8490 C   0  0  0  0  0  3  0  0  0  0  0  0
  -26.1630  -27.1930   19.5720 C   0  0  0  0  0  3  0  0  0  0  0  0
  -24.9610  -27.9270   19.6130 C   0  0  0  0  0  3  0  0  0  0  0  0
  -23.6800  -30.0280   20.3340 C   0  0  0  0  0  2  0  0  0  0  0  0
  -24.7090  -31.2240   22.3190 N   0  0  0  0  0  0  0  0  0  0  0  0
  -23.5590  -32.2170   24.0010 O   0  0  0  0  0  0  0  0  0  0  0  0
  -22.7930  -29.5790   22.6470 C   0  0  0  0  0  0  0  0  0  0  0  0
  -21.4840  -29.3570   22.4460 N   0  0  0  0  0  0  0  0  0  0  0  0
  -23.4540  -28.9610   23.4850 O   0  0  0  0  0  0  0  0  0  0  0  0
  -21.0140  -29.9080   21.7430 H   0  0  0  0  0  0  0  0  0  0  0  0
  -18.1460  -27.9970   22.7010 C   0  0  0  0  0  0  0  0  0  0  0  0
  -20.6620  -28.3770   23.1550 C   0  0  0  0  0  3  0  0  0  0  0  0
  -20.8760  -26.9550   22.5850 C   0  0  0  0  0  2  0  0  0  0  0  0
  -19.8650  -26.5860   21.4940 C   0  0  0  0  0  2  0  0  0  0  0  0
  -18.4360  -26.6600   22.0400 C   0  0  0  0  0  2  0  0  0  0  0  0
  -19.1940  -28.8110   23.2130 C   0  0  0  0  0  0  0  0  0  0  0  0
  -18.8710  -30.0570   23.7900 C   0  0  0  0  0  3  0  0  0  0  0  0
  -17.5370  -30.4950   23.8630 C   0  0  0  0  0  3  0  0  0  0  0  0
  -16.5020  -29.6810   23.3690 C   0  0  0  0  0  3  0  0  0  0  0  0
  -16.8070  -28.4350   22.7930 C   0  0  0  0  0  3  0  0  0  0  0  0
  -25.9230  -32.5730   24.1180 C   0  0  0  0  0  3  0  0  0  0  0  0
  -25.6320  -33.9730   24.4560 N   0  0  0  0  0  0  0  0  0  0  0  0
  -25.9950  -35.0260   23.7100 C   0  0  0  0  0  0  0  0  0  0  0  0
  -26.6790  -34.9160   22.6900 O   0  0  0  0  0  0  0  0  0  0  0  0
  -25.0310  -34.1290   25.2520 H   0  0  0  0  0  0  0  0  0  0  0  0
  -24.2990  -36.8470   23.3330 C   0  0  0  0  0  1  0  0  0  0  0  0
  -25.5190  -36.4180   24.1660 C   0  0  0  0  0  3  0  0  0  0  0  0
  -27.6540  -37.2640   25.0380 C   0  0  0  0  0  1  0  0  0  0  0  0
  -26.5700  -37.4560   24.0790 N   0  0  0  0  0  0  0  0  0  0  0  0
  -26.1750  -38.3820   24.2300 H   0  0  0  0  0  0  0  0  0  0  0  0
  -26.3960  -31.7760   25.3960 C   0  0  1  0  0  0  0  0  0  0  0  0
  -25.2620  -31.5010   26.4090 C   0  0  0  0  0  1  0  0  0  0  0  0
  -27.0060  -30.4140   24.9910 C   0  0  0  0  0  1  0  0  0  0  0  0
  -27.5120  -32.5620   26.1230 C   0  0  0  0  0  1  0  0  0  0  0  0
  1  2  1  0
  1  3  1  0
  4  1  1  0
  4  5  1  0
  5  6  1  0
  7  8  1  0
  7  9  2  0
  8  6  1  0
 10  8  1  0
 11  7  1  0
 12 18  1  0
 12 20  1  0
 13 18  1  0
 14 15  1  0
 14 13  1  0
 16 15  1  0
 16 25  1  0
 16 17  1  0
 18 17  1  0
 19 12  2  0
 20 11  1  0
 20 21  1  0
 22 23  2  0
 23 42  1  0
 24 23  1  0
 24 27  1  0
 25 26  1  0
 25 22  1  0
 26 24  2  0
 27 28  1  0
 28 29  2  0
 30 33  1  0
 30 29  1  0
 31 30  2  0
 32 31  1  0
 32 27  2  0
 33 34  1  0
 34 35  1  0
 35 36  2  0
 37 36  1  0
 37 41  1  0
 38 37  2  0
 39 34  2  0
 39 38  1  0
 40 39  1  0
 42 43  1  0
 43 46  1  0
 43 45  1  0
 44 42  2  0
 47 48  1  0
 47 22  1  0
 49 47  1  0
 50 51  1  0
 50  1  1  0
 52 53  1  0
 52 51  1  0
 53 55  1  0
 54 65  2  0
 55 60  1  0
 56 64  1  0
 56 66  1  0
 57 63  1  0
 57 59  1  0
 58 64  1  0
 59 58  1  0
 60 59  2  0
 61 62  1  0
 61 55  2  0
 62 57  2  0
 63 56  1  0
 64 54  1  0
 66 68  2  0
 67 66  1  0
 69 67  1  0
 70 79  2  0
 70 75  1  0
 71 67  1  0
 71 75  1  0
 72 71  1  0
 73 74  1  0
 73 72  1  0
 74 70  1  0
 75 76  2  0
 76 77  1  0
 78 77  2  0
 79 78  1  0
 80 54  1  0
 80 81  1  0
 80 90  1  0
 81 84  1  0
 82 86  1  0
 82 81  1  0
 83 82  2  0
 86 85  1  0
 88 86  1  0
 88 89  1  0
 88 87  1  0
 90 93  1  1
 90 91  1  0
 92 90  1  0
M  ISO  4  12 100  20 100  52 101  53 101
M  END
>  <TORSDO>  (89) 
F 24

>  <SCORE>  (89) 
-9.959

>  <name>  (89) 
98

>  <ligand_id>  (89) 
98

>  <original_smiles>  (89) 
[H]c1c([H])c([H])c2c(c1[H])C([H])([H])C([H])([H])C([H])([H])C2([H])N([H])C(=O)C1([H])N(C(=O)C([H])(N([H])C(=O)C([H])(N([H])C([H])([H])[H])C([H])([H])[H])C(C([H])([H])[H])(C([H])([H])[H])C([H])([H])[H])C([H])([H])c2c([H])c(OC([H])([H])C([H])([H])C([H])([H])[N+]([H])([H])C([H])([H])C([H])([H])C([H])([H])N([H])C(=O)C([H])([H])N([H])C(=O)N3C([H])([H])C([H])([H])C([H])([H])C([H])(n4nc(-c5c([H])c([H])c(Oc6c([H])c([H])c(F)c([H])c6F)c([H])c5[H])c(C(=O)N([H])[H])c4N([H])[H])C3([H])[H])c([H])c([H])c2C1([H])[H]

>  <smiles>  (89) 
[H]c1c([H])c([H])c2c(c1[H])C([H])([H])C([H])([H])C([H])([H])C2([H])N([H])C(=O)C1([H])N(C(=O)C([H])(N([H])C(=O)C([H])(N([H])C([H])([H])[H])C([H])([H])[H])C(C([H])([H])[H])(C([H])([H])[H])C([H])([H])[H])C([H])([H])c2c([H])c(OC([H])([H])C([H])([H])C([H])([H])[N+]([H])([H])C([H])([H])C([H])([H])C([H])([H])N([H])C(=O)C([H])([H])N([H])C(=O)N3C([H])([H])C([H])([H])C([H])([H])C([H])(n4nc(-c5c([H])c([H])c(Oc6c([H])c([H])c(F)c([H])c6F)c([H])c5[H])c(C(=O)N([H])[H])c4N([H])[H])C3([H])[H])c([H])c([H])c2C1([H])[H]

$$$$
99:0:0
     RDKit          3D

 95102  0  0  1  0  0  0  0  0999 V2000
  -25.4200  -23.4920   20.4310 C   0  0  0  0  0  2  0  0  0  0  0  0
  -25.0120  -22.2370   19.6400 C   0  0  0  0  0  2  0  0  0  0  0  0
  -26.2100  -21.5790   18.9250 C   0  0  0  0  0  2  0  0  0  0  0  0
  -26.7390  -20.3180   19.6340 C   0  0  0  0  0  2  0  0  0  0  0  0
  -28.1740  -19.9560   19.2120 C   0  0  0  0  0  2  0  0  0  0  0  0
  -29.6450  -18.0610   19.9720 C   0  0  0  0  0  0  0  0  0  0  0  0
  -28.4740  -18.5880   19.6000 N   0  0  0  0  0  0  0  0  0  0  0  0
  -30.6750  -18.7060   20.1800 O   0  0  0  0  0  0  0  0  0  0  0  0
  -27.7110  -17.9340   19.5000 H   0  0  0  0  0  0  0  0  0  0  0  0
  -29.6240  -16.5430   20.0590 C   0  0  0  0  0  2  0  0  0  0  0  0
  -31.4000  -14.8740   19.8940 C   0  0  0  0  0  0  0  0  0  0  0  0
  -31.0370  -12.6180   18.9610 C   0  0  0  0  0  2  0  0  0  0  0  0
  -30.0600  -12.6630   17.7680 C   0  0  0  0  0  2  0  0  0  0  0  0
  -28.6020  -12.5350   18.2510 C   0  0  0  0  0  2  0  0  0  0  0  0
  -28.2820  -13.5350   19.3850 C   0  0  0  0  0  3  0  0  0  0  0  0
  -29.3640  -13.4760   20.4940 C   0  0  0  0  0  2  0  0  0  0  0  0
  -30.6820  -13.7160   19.8740 N   0  0  0  0  0  0  0  0  0  0  0  0
  -32.5040  -14.9920   19.3620 O   0  0  0  0  0  0  0  0  0  0  0  0
  -30.8640  -15.9280   20.5250 N   0  0  0  0  0  0  0  0  0  0  0  0
  -31.5470  -16.6430   20.7390 H   0  0  0  0  0  0  0  0  0  0  0  0
  -25.9630  -14.3030   20.1930 C   0  0  0  0  0  0  0  0  0  0  0  0
  -24.8660  -13.5960   20.6080 C   0  0  0  0  0  0  0  0  0  0  0  0
  -25.2460  -12.2190   20.5520 C   0  0  0  0  0  0  0  0  0  0  0  0
  -26.9390  -13.3550   19.9190 N   0  0  0  0  0  0  0  0  0  0  0  0
  -26.5140  -12.1000   20.1920 N   0  0  0  0  0  0  0  0  0  0  0  0
  -24.4590  -10.9990   20.7610 C   0  0  0  0  0  0  0  0  0  0  0  0
  -24.8300  -10.0420   21.7290 C   0  0  0  0  0  3  0  0  0  0  0  0
  -24.0500   -8.8820   21.9220 C   0  0  0  0  0  3  0  0  0  0  0  0
  -22.8870   -8.6710   21.1430 C   0  0  0  0  0  0  0  0  0  0  0  0
  -22.5370   -9.6170   20.1650 C   0  0  0  0  0  3  0  0  0  0  0  0
  -23.3170  -10.7690   19.9710 C   0  0  0  0  0  3  0  0  0  0  0  0
  -22.0840   -7.5610   21.2430 O   0  0  0  0  0  0  0  0  0  0  0  0
  -21.9090   -6.9050   22.4350 C   0  0  0  0  0  0  0  0  0  0  0  0
  -21.4020   -7.5600   23.5790 C   0  0  0  0  0  3  0  0  0  0  0  0
  -21.1760   -6.8310   24.7630 C   0  0  0  0  0  3  0  0  0  0  0  0
  -21.4470   -5.4490   24.8030 C   0  0  0  0  0  0  0  0  0  0  0  0
  -21.9470   -4.7950   23.6640 C   0  0  0  0  0  3  0  0  0  0  0  0
  -22.1760   -5.5220   22.4820 C   0  0  0  0  0  0  0  0  0  0  0  0
  -22.6390   -4.8840   21.3800 F   0  0  0  0  0  0  0  0  0  0  0  0
  -21.2250   -4.7470   25.9380 F   0  0  0  0  0  0  0  0  0  0  0  0
  -23.5110  -14.1510   20.9370 C   0  0  0  0  0  0  0  0  0  0  0  0
  -22.7770  -13.4870   21.8260 N   0  0  0  0  0  0  0  0  0  0  0  0
  -23.1110  -15.2020   20.4370 O   0  0  0  0  0  0  0  0  0  0  0  0
  -23.1090  -12.6320   22.2440 H   0  0  0  0  0  0  0  0  0  0  0  0
  -21.8690  -13.8430   22.0920 H   0  0  0  0  0  0  0  0  0  0  0  0
  -26.2070  -15.6600   19.9960 N   0  0  0  0  0  0  0  0  0  0  0  0
  -25.4520  -16.3340   20.0710 H   0  0  0  0  0  0  0  0  0  0  0  0
  -26.9430  -15.9600   19.3750 H   0  0  0  0  0  0  0  0  0  0  0  0
  -26.4080  -23.2150   21.5800 C   0  0  0  0  0  2  0  0  0  0  0  0
  -28.3240  -24.7590   21.3170 C   0  0  0  0  0  0  0  0  0  0  0  0
  -27.1730  -24.4120   21.9100 N   0  0  0  0  0  0  0  0  0  0  0  0
  -28.9110  -24.0270   20.5130 O   0  0  0  0  0  0  0  0  0  0  0  0
  -26.7760  -25.0510   22.5880 H   0  0  0  0  0  0  0  0  0  0  0  0
  -28.8720  -26.1580   21.6030 C   0  0  0  0  0  2  0  0  0  0  0  0
  -28.6800  -26.9570   20.4380 O   0  0  0  0  0  0  0  0  0  0  0  0
  -24.6440  -31.9760   23.4270 C   0  0  0  0  0  0  0  0  0  0  0  0
  -27.4920  -27.6380   20.4280 C   0  0  0  0  0  0  0  0  0  0  0  0
  -23.5190  -30.5440   21.7490 C   0  0  0  0  0  3  0  0  0  0  0  0
  -25.0520  -29.0400   20.3750 C   0  0  0  0  0  0  0  0  0  0  0  0
  -26.0350  -30.9750   21.6230 C   0  0  0  0  0  2  0  0  0  0  0  0
  -26.1730  -29.6050   20.9970 C   0  0  0  0  0  0  0  0  0  0  0  0
  -27.3970  -28.9080   21.0300 C   0  0  0  0  0  3  0  0  0  0  0  0
  -26.3650  -27.0760   19.7960 C   0  0  0  0  0  3  0  0  0  0  0  0
  -25.1390  -27.7700   19.7760 C   0  0  0  0  0  3  0  0  0  0  0  0
  -23.7840  -29.8630   20.3790 C   0  0  0  0  0  2  0  0  0  0  0  0
  -24.7470  -31.1810   22.3250 N   0  0  0  0  0  0  0  0  0  0  0  0
  -23.5440  -32.2220   23.9400 O   0  0  0  0  0  0  0  0  0  0  0  0
  -22.8660  -29.5110   22.6920 C   0  0  0  0  0  0  0  0  0  0  0  0
  -21.5470  -29.3080   22.5330 N   0  0  0  0  0  0  0  0  0  0  0  0
  -23.5420  -28.8940   23.5190 O   0  0  0  0  0  0  0  0  0  0  0  0
  -21.0670  -29.8610   21.8380 H   0  0  0  0  0  0  0  0  0  0  0  0
  -18.1790  -28.0820   22.9670 C   0  0  0  0  0  0  0  0  0  0  0  0
  -20.7310  -28.3470   23.2770 C   0  0  0  0  0  3  0  0  0  0  0  0
  -20.8520  -26.9280   22.6760 C   0  0  0  0  0  2  0  0  0  0  0  0
  -19.7610  -26.6170   21.6450 C   0  0  0  0  0  2  0  0  0  0  0  0
  -18.3730  -26.7440   22.2760 C   0  0  0  0  0  2  0  0  0  0  0  0
  -19.2870  -28.8430   23.4240 C   0  0  0  0  0  0  0  0  0  0  0  0
  -19.0550  -30.0980   24.0230 C   0  0  0  0  0  3  0  0  0  0  0  0
  -17.7460  -30.5940   24.1760 C   0  0  0  0  0  3  0  0  0  0  0  0
  -16.6520  -29.8290   23.7410 C   0  0  0  0  0  3  0  0  0  0  0  0
  -16.8690  -28.5750   23.1410 C   0  0  0  0  0  3  0  0  0  0  0  0
  -25.9000  -32.6320   24.0820 C   0  0  0  0  0  3  0  0  0  0  0  0
  -26.3580  -31.9140   25.4100 C   0  0  1  0  0  0  0  0  0  0  0  0
  -25.2150  -31.7050   26.4290 C   0  0  0  0  0  1  0  0  0  0  0  0
  -26.9700  -30.5280   25.0960 C   0  0  0  0  0  1  0  0  0  0  0  0
  -27.4690  -32.7420   26.0970 C   0  0  0  0  0  1  0  0  0  0  0  0
  -25.5770  -34.0430   24.3340 N   0  0  0  0  0  0  0  0  0  0  0  0
  -25.9350  -35.0590   23.5370 C   0  0  0  0  0  0  0  0  0  0  0  0
  -26.6460  -34.9080   22.5400 O   0  0  0  0  0  0  0  0  0  0  0  0
  -24.9480  -34.2310   25.1010 H   0  0  0  0  0  0  0  0  0  0  0  0
  -24.2080  -36.8150   23.0430 C   0  0  0  0  0  1  0  0  0  0  0  0
  -25.4270  -36.4630   23.9090 C   0  0  0  0  0  3  0  0  0  0  0  0
  -27.5300  -37.4070   24.7570 C   0  0  0  0  0  1  0  0  0  0  0  0
  -26.4570  -37.5160   23.7720 N   0  0  0  0  0  0  0  0  0  0  0  0
  -26.0410  -38.4400   23.8590 H   0  0  0  0  0  0  0  0  0  0  0  0
  1 49  1  0
  2  1  1  0
  3  4  1  0
  3  2  1  0
  5  7  1  0
  5  4  1  0
  6 10  1  0
  6  8  2  0
  7  6  1  0
  9  7  1  0
 10 19  1  0
 11 19  1  0
 12 17  1  0
 13 14  1  0
 13 12  1  0
 15 14  1  0
 15 24  1  0
 15 16  1  0
 17 11  1  0
 17 16  1  0
 18 11  2  0
 19 20  1  0
 21 22  2  0
 22 41  1  0
 23 22  1  0
 23 26  1  0
 24 25  1  0
 24 21  1  0
 25 23  2  0
 26 27  1  0
 27 28  2  0
 29 32  1  0
 29 28  1  0
 30 29  2  0
 31 30  1  0
 31 26  2  0
 32 33  1  0
 33 38  2  0
 33 34  1  0
 34 35  2  0
 35 36  1  0
 36 40  1  0
 37 36  2  0
 38 37  1  0
 39 38  1  0
 41 42  1  0
 42 45  1  0
 42 44  1  0
 43 41  2  0
 46 47  1  0
 46 21  1  0
 48 46  1  0
 49 51  1  0
 50 54  1  0
 50 51  1  0
 51 53  1  0
 52 50  2  0
 55 54  1  0
 56 67  2  0
 57 55  1  0
 57 62  1  0
 58 66  1  0
 58 68  1  0
 59 65  1  0
 59 61  1  0
 60 66  1  0
 61 62  2  0
 61 60  1  0
 63 57  2  0
 64 63  1  0
 64 59  2  0
 65 58  1  0
 66 56  1  0
 68 70  2  0
 69 68  1  0
 71 69  1  0
 72 81  2  0
 72 77  1  0
 73 69  1  0
 73 77  1  0
 74 73  1  0
 75 76  1  0
 75 74  1  0
 76 72  1  0
 77 78  2  0
 78 79  1  0
 80 79  2  0
 81 80  1  0
 82 56  1  0
 82 87  1  0
 82 83  1  0
 83 86  1  1
 83 84  1  0
 85 83  1  0
 87 90  1  0
 88 92  1  0
 88 87  1  0
 89 88  2  0
 92 91  1  0
 94 95  1  0
 94 92  1  0
 94 93  1  0
M  ISO  4  11 100  19 100  54 101  55 101
M  END
>  <TORSDO>  (90) 
F 25

>  <SCORE>  (90) 
-10.731

>  <name>  (90) 
99

>  <ligand_id>  (90) 
99

>  <original_smiles>  (90) 
[H]c1c([H])c([H])c2c(c1[H])C([H])([H])C([H])([H])C([H])([H])C2([H])N([H])C(=O)C1([H])N(C(=O)C([H])(N([H])C(=O)C([H])(N([H])C([H])([H])[H])C([H])([H])[H])C(C([H])([H])[H])(C([H])([H])[H])C([H])([H])[H])C([H])([H])c2c([H])c(OC([H])([H])C(=O)N([H])C([H])([H])C([H])([H])C([H])([H])C([H])([H])C([H])([H])C([H])([H])N([H])C(=O)C([H])([H])N([H])C(=O)N3C([H])([H])C([H])([H])C([H])([H])C([H])(n4nc(-c5c([H])c([H])c(Oc6c([H])c([H])c(F)c([H])c6F)c([H])c5[H])c(C(=O)N([H])[H])c4N([H])[H])C3([H])[H])c([H])c([H])c2C1([H])[H]

>  <smiles>  (90) 
[H]c1c([H])c([H])c2c(c1[H])C([H])([H])C([H])([H])C([H])([H])C2([H])N([H])C(=O)C1([H])N(C(=O)C([H])(N([H])C(=O)C([H])(N([H])C([H])([H])[H])C([H])([H])[H])C(C([H])([H])[H])(C([H])([H])[H])C([H])([H])[H])C([H])([H])c2c([H])c(OC([H])([H])C(=O)N([H])C([H])([H])C([H])([H])C([H])([H])C([H])([H])C([H])([H])C([H])([H])N([H])C(=O)C([H])([H])N([H])C(=O)N3C([H])([H])C([H])([H])C([H])([H])C([H])(n4nc(-c5c([H])c([H])c(Oc6c([H])c([H])c(F)c([H])c6F)c([H])c5[H])c(C(=O)N([H])[H])c4N([H])[H])C3([H])[H])c([H])c([H])c2C1([H])[H]

$$$$
