0:0:0
     RDKit          3D

103110  0  0  1  0  0  0  0  0999 V2000
  -28.5340  -23.6340   25.9270 C   0  0  0  0  0  0  0  0  0  0  0  0
  -28.4950  -24.7930   25.2560 N   0  0  0  0  0  0  0  0  0  0  0  0
  -27.6810  -23.3090   26.7550 O   0  0  0  0  0  0  0  0  0  0  0  0
  -29.2240  -24.9730   24.5770 H   0  0  0  0  0  0  0  0  0  0  0  0
  -29.7260  -22.7040   25.6540 C   0  0  0  0  0  2  0  0  0  0  0  0
  -30.1420  -21.2540   23.6720 C   0  0  0  0  0  0  0  0  0  0  0  0
  -29.9830  -22.4590   24.2340 N   0  0  0  0  0  0  0  0  0  0  0  0
  -29.9170  -20.1990   24.2760 O   0  0  0  0  0  0  0  0  0  0  0  0
  -30.1350  -23.2740   23.6530 H   0  0  0  0  0  0  0  0  0  0  0  0
  -30.6800  -21.2500   22.2310 C   0  0  0  0  0  2  0  0  0  0  0  0
  -30.4340  -18.8140   21.6880 C   0  0  0  0  0  0  0  0  0  0  0  0
  -30.2360  -20.1130   21.4230 N   0  0  0  0  0  0  0  0  0  0  0  0
  -31.0280  -18.4060   22.6900 O   0  0  0  0  0  0  0  0  0  0  0  0
  -29.7390  -20.3380   20.5710 H   0  0  0  0  0  0  0  0  0  0  0  0
  -29.8880  -17.8430   20.6410 C   0  0  0  0  0  2  0  0  0  0  0  0
  -30.8310  -15.5370   20.8260 C   0  0  0  0  0  0  0  0  0  0  0  0
  -31.0530  -13.2440   19.9440 C   0  0  0  0  0  2  0  0  0  0  0  0
  -30.3910  -13.1950   18.5490 C   0  0  0  0  0  2  0  0  0  0  0  0
  -28.8710  -12.9470   18.6570 C   0  0  0  0  0  2  0  0  0  0  0  0
  -28.1850  -13.8620   19.7040 C   0  0  0  0  0  3  0  0  0  0  0  0
  -28.9750  -13.8540   21.0340 C   0  0  0  0  0  2  0  0  0  0  0  0
  -30.3610  -14.2650   20.7420 N   0  0  0  0  0  0  0  0  0  0  0  0
  -31.9840  -15.8580   20.5160 O   0  0  0  0  0  0  0  0  0  0  0  0
  -29.8820  -16.4490   21.0810 N   0  0  0  0  0  0  0  0  0  0  0  0
  -29.0000  -16.0960   21.4220 H   0  0  0  0  0  0  0  0  0  0  0  0
  -25.6300  -14.1820   19.5770 C   0  0  0  0  0  0  0  0  0  0  0  0
  -24.5900  -13.3600   19.9130 C   0  0  0  0  0  0  0  0  0  0  0  0
  -25.1790  -12.1670   20.4370 C   0  0  0  0  0  0  0  0  0  0  0  0
  -26.7850  -13.4870   19.9060 N   0  0  0  0  0  0  0  0  0  0  0  0
  -26.4990  -12.2890   20.4730 N   0  0  0  0  0  0  0  0  0  0  0  0
  -24.5700  -10.8980   20.8510 C   0  0  0  0  0  0  0  0  0  0  0  0
  -24.7840  -10.3640   22.1400 C   0  0  0  0  0  3  0  0  0  0  0  0
  -24.1730   -9.1510   22.5230 C   0  0  0  0  0  3  0  0  0  0  0  0
  -23.3360   -8.4610   21.6150 C   0  0  0  0  0  0  0  0  0  0  0  0
  -23.1420   -8.9860   20.3240 C   0  0  0  0  0  3  0  0  0  0  0  0
  -23.7540  -10.1920   19.9440 C   0  0  0  0  0  3  0  0  0  0  0  0
  -22.7200   -7.2640   21.8910 O   0  0  0  0  0  0  0  0  0  0  0  0
  -22.1000   -7.0340   23.0930 C   0  0  0  0  0  0  0  0  0  0  0  0
  -21.1010   -7.8980   23.5950 C   0  0  0  0  0  3  0  0  0  0  0  0
  -20.4450   -7.5860   24.8030 C   0  0  0  0  0  3  0  0  0  0  0  0
  -20.7750   -6.4100   25.5010 C   0  0  0  0  0  0  0  0  0  0  0  0
  -21.7660   -5.5480   25.0000 C   0  0  0  0  0  3  0  0  0  0  0  0
  -22.4260   -5.8580   23.7980 C   0  0  0  0  0  0  0  0  0  0  0  0
  -23.3640   -5.0130   23.3090 F   0  0  0  0  0  0  0  0  0  0  0  0
  -20.1400   -6.1060   26.6570 F   0  0  0  0  0  0  0  0  0  0  0  0
  -23.1290  -13.6210   19.6810 C   0  0  0  0  0  0  0  0  0  0  0  0
  -22.2660  -13.1010   20.5450 N   0  0  0  0  0  0  0  0  0  0  0  0
  -22.7470  -14.3340   18.7530 O   0  0  0  0  0  0  0  0  0  0  0  0
  -22.5780  -12.5300   21.3160 H   0  0  0  0  0  0  0  0  0  0  0  0
  -21.2770  -13.2810   20.4370 H   0  0  0  0  0  0  0  0  0  0  0  0
  -25.6990  -15.4490   19.0030 N   0  0  0  0  0  0  0  0  0  0  0  0
  -24.8720  -15.9510   18.7030 H   0  0  0  0  0  0  0  0  0  0  0  0
  -26.5630  -15.9010   18.7330 H   0  0  0  0  0  0  0  0  0  0  0  0
  -27.5290  -25.8810   25.4770 C   0  0  0  0  0  2  0  0  0  0  0  0
  -26.1280  -25.6880   24.8620 C   0  0  0  0  0  0  0  0  0  0  0  0
  -25.9630  -25.1040   23.6620 N   0  0  0  0  0  0  0  0  0  0  0  0
  -25.1430  -26.0610   25.4990 O   0  0  0  0  0  0  0  0  0  0  0  0
  -25.0050  -24.9950   23.3600 H   0  0  0  0  0  0  0  0  0  0  0  0
  -26.9780  -24.5960   22.7410 C   0  0  0  0  0  2  0  0  0  0  0  0
  -27.6600  -25.7190   21.9490 C   0  0  0  0  0  2  0  0  0  0  0  0
  -28.7700  -25.1680   21.0360 C   0  0  0  0  0  2  0  0  0  0  0  0
  -29.6290  -26.2320   20.3190 C   0  0  0  0  0  2  0  0  0  0  0  0
  -28.9400  -26.8120   19.2170 O   0  0  0  0  0  0  0  0  0  0  0  0
  -25.5050  -30.6790   24.1180 C   0  0  0  0  0  0  0  0  0  0  0  0
  -27.8860  -27.6230   19.5420 C   0  0  0  0  0  0  0  0  0  0  0  0
  -24.2950  -30.2710   21.9970 C   0  0  0  0  0  3  0  0  0  0  0  0
  -25.6840  -29.2820   20.1020 C   0  0  0  0  0  0  0  0  0  0  0  0
  -26.8480  -30.3360   22.0500 C   0  0  0  0  0  2  0  0  0  0  0  0
  -26.8360  -29.3540   20.8990 C   0  0  0  0  0  0  0  0  0  0  0  0
  -27.9450  -28.5250   20.6250 C   0  0  0  0  0  3  0  0  0  0  0  0
  -26.7280  -27.5660   18.7420 C   0  0  0  0  0  3  0  0  0  0  0  0
  -25.6170  -28.3810   19.0240 C   0  0  0  0  0  3  0  0  0  0  0  0
  -24.5450  -30.2080   20.4670 C   0  0  0  0  0  2  0  0  0  0  0  0
  -25.5640  -30.4080   22.7840 N   0  0  0  0  0  0  0  0  0  0  0  0
  -24.4200  -30.8540   24.6910 O   0  0  0  0  0  0  0  0  0  0  0  0
  -23.4530  -29.0430   22.4170 C   0  0  0  0  0  0  0  0  0  0  0  0
  -22.1320  -29.1160   22.1820 N   0  0  0  0  0  0  0  0  0  0  0  0
  -23.9880  -28.0460   22.9110 O   0  0  0  0  0  0  0  0  0  0  0  0
  -21.7690  -29.9610   21.7610 H   0  0  0  0  0  0  0  0  0  0  0  0
  -18.6170  -28.3300   22.0530 C   0  0  0  0  0  0  0  0  0  0  0  0
  -21.1520  -28.0710   22.4750 C   0  0  0  0  0  3  0  0  0  0  0  0
  -21.1230  -26.9980   21.3640 C   0  0  0  0  0  2  0  0  0  0  0  0
  -20.0890  -27.2980   20.2730 C   0  0  0  0  0  2  0  0  0  0  0  0
  -18.6840  -27.3700   20.8770 C   0  0  0  0  0  2  0  0  0  0  0  0
  -19.7780  -28.6690   22.7970 C   0  0  0  0  0  0  0  0  0  0  0  0
  -19.6680  -29.5830   23.8680 C   0  0  0  0  0  3  0  0  0  0  0  0
  -18.4220  -30.1470   24.2040 C   0  0  0  0  0  3  0  0  0  0  0  0
  -17.2720  -29.7960   23.4740 C   0  0  0  0  0  3  0  0  0  0  0  0
  -17.3710  -28.8920   22.4030 C   0  0  0  0  0  3  0  0  0  0  0  0
  -26.8000  -30.8060   24.9800 C   0  0  0  0  0  3  0  0  0  0  0  0
  -26.7960  -32.1400   25.5940 N   0  0  0  0  0  0  0  0  0  0  0  0
  -27.4980  -33.1860   25.1360 C   0  0  0  0  0  0  0  0  0  0  0  0
  -28.2870  -33.1080   24.1900 O   0  0  0  0  0  0  0  0  0  0  0  0
  -26.1420  -32.2910   26.3480 H   0  0  0  0  0  0  0  0  0  0  0  0
  -26.3660  -35.4320   25.0060 C   0  0  0  0  0  1  0  0  0  0  0  0
  -27.2920  -34.5380   25.8460 C   0  0  0  0  0  3  0  0  0  0  0  0
  -29.3940  -34.6150   27.1150 C   0  0  0  0  0  1  0  0  0  0  0  0
  -28.5520  -35.2620   26.1120 N   0  0  0  0  0  0  0  0  0  0  0  0
  -28.3580  -36.2080   26.4270 H   0  0  0  0  0  0  0  0  0  0  0  0
  -26.9270  -29.6820   26.0790 C   0  0  1  0  0  0  0  0  0  0  0  0
  -25.6440  -29.4790   26.9210 C   0  0  0  0  0  1  0  0  0  0  0  0
  -27.2900  -28.3260   25.4270 C   0  0  0  0  0  1  0  0  0  0  0  0
  -28.0810  -30.0300   27.0500 C   0  0  0  0  0  1  0  0  0  0  0  0
  1  3  2  0
  2 54  1  0
  2  1  1  0
  4  2  1  0
  5  1  1  0
  6  7  1  0
  6  8  2  0
  7  5  1  0
  9  7  1  0
 10  6  1  0
 11 13  2  0
 12 11  1  0
 12 10  1  0
 14 12  1  0
 15 24  1  0
 15 11  1  0
 16 24  1  0
 17 22  1  0
 18 19  1  0
 18 17  1  0
 20 19  1  0
 20 29  1  0
 20 21  1  0
 22 16  1  0
 22 21  1  0
 23 16  2  0
 24 25  1  0
 26 29  1  0
 26 27  2  0
 27 28  1  0
 28 30  2  0
 28 31  1  0
 29 30  1  0
 31 32  1  0
 32 33  2  0
 34 37  1  0
 34 33  1  0
 35 34  2  0
 36 35  1  0
 36 31  2  0
 37 38  1  0
 38 39  2  0
 38 43  1  0
 39 40  1  0
 40 41  2  0
 41 45  1  0
 42 41  1  0
 43 42  2  0
 44 43  1  0
 46 27  1  0
 46 47  1  0
 47 49  1  0
 48 46  2  0
 50 47  1  0
 51 26  1  0
 52 51  1  0
 53 51  1  0
 55 54  1  0
 55 57  2  0
 56 55  1  0
 58 56  1  0
 59 56  1  0
 60 59  1  0
 61 60  1  0
 62 61  1  0
 63 65  1  0
 63 62  1  0
 64 75  2  0
 65 70  1  0
 66 76  1  0
 66 74  1  0
 67 73  1  0
 67 69  1  0
 68 74  1  0
 69 68  1  0
 70 69  2  0
 71 72  1  0
 71 65  2  0
 72 67  2  0
 73 66  1  0
 74 64  1  0
 76 78  2  0
 77 76  1  0
 79 77  1  0
 80 89  2  0
 80 85  1  0
 81 77  1  0
 81 85  1  0
 82 81  1  0
 83 84  1  0
 83 82  1  0
 84 80  1  0
 85 86  2  0
 86 87  1  0
 88 87  2  0
 89 88  1  0
 90 64  1  0
 90 91  1  0
 90100  1  0
 91 94  1  0
 92 91  1  0
 92 96  1  0
 93 92  2  0
 96 95  1  0
 96 98  1  0
 98 99  1  0
 98 97  1  0
100101  1  1
100103  1  0
102100  1  0
M  ISO  4  16 100  24 100  62 101  63 101
M  END
>  <TORSDO>  (1) 
F 27

>  <SCORE>  (1) 
3.956

>  <name>  (1) 
0

>  <ligand_id>  (1) 
0

>  <original_smiles>  (1) 
[H]c1c([H])c([H])c2c(c1[H])C([H])([H])C([H])([H])C([H])([H])C2([H])N([H])C(=O)C1([H])N(C(=O)C([H])(N([H])C(=O)C([H])(N([H])C([H])([H])[H])C([H])([H])[H])C(C([H])([H])[H])(C([H])([H])[H])C([H])([H])[H])C([H])([H])c2c([H])c(OC([H])([H])C([H])([H])C([H])([H])C([H])([H])N([H])C(=O)C([H])([H])N([H])C(=O)C([H])([H])N([H])C(=O)C([H])([H])N([H])C(=O)C([H])([H])N([H])C(=O)N3C([H])([H])C([H])([H])C([H])([H])C([H])(n4nc(-c5c([H])c([H])c(Oc6c([H])c([H])c(F)c([H])c6F)c([H])c5[H])c(C(=O)N([H])[H])c4N([H])[H])C3([H])[H])c([H])c([H])c2C1([H])[H]

>  <smiles>  (1) 
[H]c1c([H])c([H])c2c(c1[H])C([H])([H])C([H])([H])C([H])([H])C2([H])N([H])C(=O)C1([H])N(C(=O)C([H])(N([H])C(=O)C([H])(N([H])C([H])([H])[H])C([H])([H])[H])C(C([H])([H])[H])(C([H])([H])[H])C([H])([H])[H])C([H])([H])c2c([H])c(OC([H])([H])C([H])([H])C([H])([H])C([H])([H])N([H])C(=O)C([H])([H])N([H])C(=O)C([H])([H])N([H])C(=O)C([H])([H])N([H])C(=O)C([H])([H])N([H])C(=O)N3C([H])([H])C([H])([H])C([H])([H])C([H])(n4nc(-c5c([H])c([H])c(Oc6c([H])c([H])c(F)c([H])c6F)c([H])c5[H])c(C(=O)N([H])[H])c4N([H])[H])C3([H])[H])c([H])c([H])c2C1([H])[H]

$$$$
1:0:0
     RDKit          3D

100107  0  0  1  0  0  0  0  0999 V2000
  -29.3350  -24.4590   16.8200 C   0  0  0  0  0  2  0  0  0  0  0  0
  -30.2790  -25.2340   15.8790 C   0  0  0  0  0  2  0  0  0  0  0  0
  -30.4960  -26.7080   16.2730 C   0  0  0  0  0  2  0  0  0  0  0  0
  -30.6880  -28.0530   18.3340 C   0  0  0  0  0  0  0  0  0  0  0  0
  -30.7380  -26.8720   17.7020 N   0  0  0  0  0  0  0  0  0  0  0  0
  -30.5850  -29.1200   17.7250 O   0  0  0  0  0  0  0  0  0  0  0  0
  -30.8340  -26.0340   18.2570 H   0  0  0  0  0  0  0  0  0  0  0  0
  -30.7520  -28.0700   19.8650 C   0  0  0  0  0  2  0  0  0  0  0  0
  -29.9550  -26.9470   20.5740 C   0  0  0  0  0  2  0  0  0  0  0  0
  -28.7590  -26.5190   19.9150 O   0  0  0  0  0  0  0  0  0  0  0  0
  -24.7500  -31.5450   23.0520 C   0  0  0  0  0  0  0  0  0  0  0  0
  -27.6110  -27.2750   19.9690 C   0  0  0  0  0  0  0  0  0  0  0  0
  -23.6380  -30.1850   21.3040 C   0  0  0  0  0  3  0  0  0  0  0  0
  -25.1790  -28.7150   19.9090 C   0  0  0  0  0  0  0  0  0  0  0  0
  -26.1610  -30.5900   21.2420 C   0  0  0  0  0  2  0  0  0  0  0  0
  -26.2920  -29.2430   20.5730 C   0  0  0  0  0  0  0  0  0  0  0  0
  -27.5010  -28.5240   20.6200 C   0  0  0  0  0  3  0  0  0  0  0  0
  -26.4800  -26.7500   19.3110 C   0  0  0  0  0  3  0  0  0  0  0  0
  -25.2640  -27.4600   19.2800 C   0  0  0  0  0  3  0  0  0  0  0  0
  -23.9180  -29.5510   19.9170 C   0  0  0  0  0  2  0  0  0  0  0  0
  -24.8620  -30.7890   21.9250 N   0  0  0  0  0  0  0  0  0  0  0  0
  -23.6420  -31.7840   23.5520 O   0  0  0  0  0  0  0  0  0  0  0  0
  -22.9550  -29.1310   22.2010 C   0  0  0  0  0  0  0  0  0  0  0  0
  -21.6250  -29.0050   22.0660 N   0  0  0  0  0  0  0  0  0  0  0  0
  -23.6170  -28.4300   22.9720 O   0  0  0  0  0  0  0  0  0  0  0  0
  -21.1540  -29.6360   21.4330 H   0  0  0  0  0  0  0  0  0  0  0  0
  -18.2000  -27.9780   22.5790 C   0  0  0  0  0  0  0  0  0  0  0  0
  -20.7750  -28.0510   22.7770 C   0  0  0  0  0  3  0  0  0  0  0  0
  -20.7670  -26.6760   22.0700 C   0  0  0  0  0  2  0  0  0  0  0  0
  -19.6150  -26.5170   21.0720 C   0  0  0  0  0  2  0  0  0  0  0  0
  -18.2670  -26.6890   21.7790 C   0  0  0  0  0  2  0  0  0  0  0  0
  -19.3780  -28.6250   23.0340 C   0  0  0  0  0  0  0  0  0  0  0  0
  -19.2630  -29.8390   23.7470 C   0  0  0  0  0  3  0  0  0  0  0  0
  -18.0010  -30.4050   24.0030 C   0  0  0  0  0  3  0  0  0  0  0  0
  -16.8370  -29.7530   23.5640 C   0  0  0  0  0  3  0  0  0  0  0  0
  -16.9380  -28.5400   22.8590 C   0  0  0  0  0  3  0  0  0  0  0  0
  -25.9990  -32.1660   23.7530 C   0  0  0  0  0  3  0  0  0  0  0  0
  -25.6580  -33.5470   24.1200 N   0  0  0  0  0  0  0  0  0  0  0  0
  -25.9730  -34.6260   23.3910 C   0  0  0  0  0  0  0  0  0  0  0  0
  -26.6520  -34.5640   22.3630 O   0  0  0  0  0  0  0  0  0  0  0  0
  -25.0560  -33.6680   24.9210 H   0  0  0  0  0  0  0  0  0  0  0  0
  -24.1970  -36.3860   23.0960 C   0  0  0  0  0  1  0  0  0  0  0  0
  -25.4540  -35.9900   23.8840 C   0  0  0  0  0  3  0  0  0  0  0  0
  -27.5700  -36.9200   24.7180 C   0  0  0  0  0  1  0  0  0  0  0  0
  -26.4560  -37.0720   23.7860 N   0  0  0  0  0  0  0  0  0  0  0  0
  -26.0240  -37.9770   23.9450 H   0  0  0  0  0  0  0  0  0  0  0  0
  -26.4730  -31.3460   25.0170 C   0  0  1  0  0  0  0  0  0  0  0  0
  -25.3460  -31.0610   26.0380 C   0  0  0  0  0  1  0  0  0  0  0  0
  -27.0830  -29.9890   24.5940 C   0  0  0  0  0  1  0  0  0  0  0  0
  -27.5920  -32.1210   25.7500 C   0  0  0  0  0  1  0  0  0  0  0  0
  -29.0120  -23.0510   16.2950 C   0  0  0  0  0  2  0  0  0  0  0  0
  -28.5530  -22.0670   17.3940 C   0  0  0  0  0  2  0  0  0  0  0  0
  -29.6340  -20.1490   18.5680 C   0  0  0  0  0  0  0  0  0  0  0  0
  -29.4810  -20.9430   17.5030 N   0  0  0  0  0  0  0  0  0  0  0  0
  -28.9990  -20.3100   19.6150 O   0  0  0  0  0  0  0  0  0  0  0  0
  -30.0490  -20.7340   16.6920 H   0  0  0  0  0  0  0  0  0  0  0  0
  -30.6500  -19.0060   18.4180 C   0  0  0  0  0  2  0  0  0  0  0  0
  -30.1440  -17.2650   20.1120 C   0  0  0  0  0  0  0  0  0  0  0  0
  -30.9000  -18.2660   19.6540 N   0  0  0  0  0  0  0  0  0  0  0  0
  -29.1170  -16.8910   19.5410 O   0  0  0  0  0  0  0  0  0  0  0  0
  -31.7180  -18.5300   20.1850 H   0  0  0  0  0  0  0  0  0  0  0  0
  -30.6140  -16.5540   21.3890 C   0  0  0  0  0  2  0  0  0  0  0  0
  -30.8590  -14.2330   20.5400 C   0  0  0  0  0  0  0  0  0  0  0  0
  -30.4820  -12.1570   19.2650 C   0  0  0  0  0  2  0  0  0  0  0  0
  -29.5380  -12.4380   18.0790 C   0  0  0  0  0  2  0  0  0  0  0  0
  -28.0640  -12.3290   18.5130 C   0  0  0  0  0  2  0  0  0  0  0  0
  -27.7620  -13.1390   19.8030 C   0  0  0  0  0  3  0  0  0  0  0  0
  -28.8050  -12.8230   20.8960 C   0  0  0  0  0  2  0  0  0  0  0  0
  -30.1460  -13.0960   20.3450 N   0  0  0  0  0  0  0  0  0  0  0  0
  -31.9270  -14.4770   19.9670 O   0  0  0  0  0  0  0  0  0  0  0  0
  -30.2750  -15.1320   21.3400 N   0  0  0  0  0  0  0  0  0  0  0  0
  -29.3930  -14.8640   21.7500 H   0  0  0  0  0  0  0  0  0  0  0  0
  -25.3710  -13.8080   20.4870 C   0  0  0  0  0  0  0  0  0  0  0  0
  -24.2850  -13.0590   20.8600 C   0  0  0  0  0  0  0  0  0  0  0  0
  -24.7170  -11.6990   20.8410 C   0  0  0  0  0  0  0  0  0  0  0  0
  -26.3980  -12.9010   20.2730 N   0  0  0  0  0  0  0  0  0  0  0  0
  -26.0070  -11.6280   20.5400 N   0  0  0  0  0  0  0  0  0  0  0  0
  -23.9640  -10.4520   21.0390 C   0  0  0  0  0  0  0  0  0  0  0  0
  -24.3690   -9.4890   21.9890 C   0  0  0  0  0  3  0  0  0  0  0  0
  -23.6190   -8.3070   22.1740 C   0  0  0  0  0  3  0  0  0  0  0  0
  -22.4500   -8.0810   21.4100 C   0  0  0  0  0  0  0  0  0  0  0  0
  -22.0640   -9.0340   20.4490 C   0  0  0  0  0  3  0  0  0  0  0  0
  -22.8150  -10.2070   20.2620 C   0  0  0  0  0  3  0  0  0  0  0  0
  -21.6740   -6.9510   21.5030 O   0  0  0  0  0  0  0  0  0  0  0  0
  -21.5910   -6.2290   22.6660 C   0  0  0  0  0  0  0  0  0  0  0  0
  -21.1270   -6.8060   23.8700 C   0  0  0  0  0  3  0  0  0  0  0  0
  -20.9930   -6.0110   25.0250 C   0  0  0  0  0  3  0  0  0  0  0  0
  -21.3100   -4.6400   24.9780 C   0  0  0  0  0  0  0  0  0  0  0  0
  -21.7670   -4.0640   23.7790 C   0  0  0  0  0  3  0  0  0  0  0  0
  -21.9050   -4.8560   22.6270 C   0  0  0  0  0  0  0  0  0  0  0  0
  -22.3260   -4.2910   21.4700 F   0  0  0  0  0  0  0  0  0  0  0  0
  -21.1730   -3.8730   26.0850 F   0  0  0  0  0  0  0  0  0  0  0  0
  -22.8970  -13.5680   21.1270 C   0  0  0  0  0  0  0  0  0  0  0  0
  -22.1530  -12.8900   21.9950 N   0  0  0  0  0  0  0  0  0  0  0  0
  -22.4830  -14.6000   20.6030 O   0  0  0  0  0  0  0  0  0  0  0  0
  -22.4970  -12.0530   22.4400 H   0  0  0  0  0  0  0  0  0  0  0  0
  -21.2230  -13.2180   22.2170 H   0  0  0  0  0  0  0  0  0  0  0  0
  -25.5670  -15.1710   20.2930 N   0  0  0  0  0  0  0  0  0  0  0  0
  -24.8190  -15.8490   20.3830 H   0  0  0  0  0  0  0  0  0  0  0  0
  -26.4350  -15.5810   19.9640 H   0  0  0  0  0  0  0  0  0  0  0  0
  2  3  1  0
  2  1  1  0
  3  5  1  0
  4  8  1  0
  5  7  1  0
  5  4  1  0
  6  4  2  0
  8  9  1  0
 10 12  1  0
 10  9  1  0
 11 22  2  0
 12 17  1  0
 13 21  1  0
 13 23  1  0
 14 20  1  0
 14 16  1  0
 15 21  1  0
 16 17  2  0
 16 15  1  0
 18 12  2  0
 19 18  1  0
 19 14  2  0
 20 13  1  0
 21 11  1  0
 23 25  2  0
 24 23  1  0
 26 24  1  0
 27 36  2  0
 27 32  1  0
 28 24  1  0
 28 32  1  0
 29 28  1  0
 30 31  1  0
 30 29  1  0
 31 27  1  0
 32 33  2  0
 33 34  1  0
 35 34  2  0
 36 35  1  0
 37 11  1  0
 37 38  1  0
 37 47  1  0
 38 41  1  0
 39 43  1  0
 39 38  1  0
 40 39  2  0
 43 42  1  0
 45 43  1  0
 45 46  1  0
 45 44  1  0
 47 50  1  1
 47 48  1  0
 49 47  1  0
 51  1  1  0
 51 52  1  0
 52 54  1  0
 53 55  2  0
 54 53  1  0
 56 54  1  0
 57 53  1  0
 57 59  1  0
 58 62  1  0
 59 58  1  0
 59 61  1  0
 60 58  2  0
 63 71  1  0
 64 69  1  0
 65 66  1  0
 65 64  1  0
 67 66  1  0
 67 76  1  0
 67 68  1  0
 69 63  1  0
 69 68  1  0
 70 63  2  0
 71 62  1  0
 71 72  1  0
 73 74  2  0
 74 93  1  0
 75 74  1  0
 75 78  1  0
 76 73  1  0
 76 77  1  0
 77 75  2  0
 78 79  1  0
 79 80  2  0
 81 84  1  0
 81 80  1  0
 82 81  2  0
 83 82  1  0
 83 78  2  0
 84 85  1  0
 85 86  1  0
 86 87  2  0
 88 87  1  0
 88 92  1  0
 89 88  2  0
 90 85  2  0
 90 89  1  0
 91 90  1  0
 93 94  1  0
 94 97  1  0
 94 96  1  0
 95 93  2  0
 98 99  1  0
 98 73  1  0
100 98  1  0
M  ISO  4   9 101  10 101  63 100  71 100
M  END
>  <TORSDO>  (2) 
F 27

>  <SCORE>  (2) 
-10.676

>  <name>  (2) 
1

>  <ligand_id>  (2) 
1

>  <original_smiles>  (2) 
[H]c1c([H])c([H])c2c(c1[H])C([H])([H])C([H])([H])C([H])([H])C2([H])N([H])C(=O)C1([H])N(C(=O)C([H])(N([H])C(=O)C([H])(N([H])C([H])([H])[H])C([H])([H])[H])C(C([H])([H])[H])(C([H])([H])[H])C([H])([H])[H])C([H])([H])c2c([H])c(OC([H])([H])C([H])([H])C(=O)N([H])C([H])([H])C([H])([H])C([H])([H])C([H])([H])C([H])([H])N([H])C(=O)C([H])([H])N([H])C(=O)C([H])([H])N([H])C(=O)N3C([H])([H])C([H])([H])C([H])([H])C([H])(n4nc(-c5c([H])c([H])c(Oc6c([H])c([H])c(F)c([H])c6F)c([H])c5[H])c(C(=O)N([H])[H])c4N([H])[H])C3([H])[H])c([H])c([H])c2C1([H])[H]

>  <smiles>  (2) 
[H]c1c([H])c([H])c2c(c1[H])C([H])([H])C([H])([H])C([H])([H])C2([H])N([H])C(=O)C1([H])N(C(=O)C([H])(N([H])C(=O)C([H])(N([H])C([H])([H])[H])C([H])([H])[H])C(C([H])([H])[H])(C([H])([H])[H])C([H])([H])[H])C([H])([H])c2c([H])c(OC([H])([H])C([H])([H])C(=O)N([H])C([H])([H])C([H])([H])C([H])([H])C([H])([H])C([H])([H])N([H])C(=O)C([H])([H])N([H])C(=O)C([H])([H])N([H])C(=O)N3C([H])([H])C([H])([H])C([H])([H])C([H])(n4nc(-c5c([H])c([H])c(Oc6c([H])c([H])c(F)c([H])c6F)c([H])c5[H])c(C(=O)N([H])[H])c4N([H])[H])C3([H])[H])c([H])c([H])c2C1([H])[H]

$$$$
2:0:0
     RDKit          3D

115122  0  0  1  0  0  0  0  0999 V2000
  -21.3160  -31.3620   25.0770 C   0  0  0  0  0  2  0  0  0  0  0  0
  -23.0210  -29.4830   25.8650 C   0  0  0  0  0  0  0  0  0  0  0  0
  -22.0700  -30.4710   26.0810 N   0  0  0  0  0  0  0  0  0  0  0  0
  -24.0370  -29.7170   25.2520 O   0  0  0  0  0  0  0  0  0  0  0  0
  -21.4860  -30.2500   26.8750 H   0  0  0  0  0  0  0  0  0  0  0  0
  -22.9660  -27.9770   26.3480 C   0  0  0  0  0  2  0  0  0  0  0  0
  -24.4210  -25.8350   25.7360 C   0  0  0  0  0  0  0  0  0  0  0  0
  -23.7650  -27.0180   25.4710 N   0  0  0  0  0  0  0  0  0  0  0  0
  -24.4940  -25.4200   26.8930 O   0  0  0  0  0  0  0  0  0  0  0  0
  -23.8230  -27.3720   24.5160 H   0  0  0  0  0  0  0  0  0  0  0  0
  -25.0680  -24.9590   24.5650 C   0  0  0  0  0  3  0  0  0  0  0  0
  -25.8850  -23.5890   24.8950 C   0  0  0  0  0  3  0  0  0  0  0  0
  -26.3150  -22.6710   23.7320 N   0  0  0  0  0  4  0  0  0  0  0  0
  -26.7770  -23.2550   23.0510 H   0  0  0  0  0  0  0  0  0  0  0  0
  -25.4780  -22.3110   23.3040 H   0  0  0  0  0  0  0  0  0  0  0  0
  -27.2530  -21.4760   23.9810 C   0  0  0  0  0  3  0  0  0  0  0  0
  -27.4520  -20.3650   22.8160 C   0  0  0  0  0  3  0  0  0  0  0  0
  -28.6080  -19.2410   22.9480 C   0  0  0  0  0  2  0  0  0  0  0  0
  -28.6030  -17.9120   22.0270 C   0  0  0  0  0  3  0  0  0  0  0  0
  -29.9050  -16.9550   21.9450 C   0  0  0  0  0  3  0  0  0  0  0  0
  -30.5350  -14.6490   20.7250 C   0  0  0  0  0  0  0  0  0  0  0  0
  -30.4590  -12.4630   19.4770 C   0  0  0  0  0  2  0  0  0  0  0  0
  -29.5290  -12.5570   18.2420 C   0  0  0  0  0  2  0  0  0  0  0  0
  -28.0440  -12.3790   18.6300 C   0  0  0  0  0  2  0  0  0  0  0  0
  -27.6510  -13.2120   19.8770 C   0  0  0  0  0  3  0  0  0  0  0  0
  -28.6680  -12.9960   21.0120 C   0  0  0  0  0  2  0  0  0  0  0  0
  -29.9810  -13.4140   20.5080 N   0  0  0  0  0  0  0  0  0  0  0  0
  -31.6480  -14.9280   20.2600 O   0  0  0  0  0  0  0  0  0  0  0  0
  -29.7280  -15.5440   21.4120 N   0  0  0  0  0  0  0  0  0  0  0  0
  -28.8610  -15.1150   21.6970 H   0  0  0  0  0  0  0  0  0  0  0  0
  -25.2520  -13.8160   20.5640 C   0  0  0  0  0  0  0  0  0  0  0  0
  -24.1760  -13.0410   20.9160 C   0  0  0  0  0  0  0  0  0  0  0  0
  -24.6310  -11.6910   20.8670 C   0  0  0  0  0  0  0  0  0  0  0  0
  -26.2900  -12.9310   20.3220 N   0  0  0  0  0  0  0  0  0  0  0  0
  -25.9220  -11.6470   20.5620 N   0  0  0  0  0  0  0  0  0  0  0  0
  -23.8980  -10.4280   21.0360 C   0  0  0  0  0  0  0  0  0  0  0  0
  -24.3550   -9.4230   21.9150 C   0  0  0  0  0  3  0  0  0  0  0  0
  -23.6260   -8.2250   22.0730 C   0  0  0  0  0  3  0  0  0  0  0  0
  -22.4250   -8.0260   21.3530 C   0  0  0  0  0  0  0  0  0  0  0  0
  -21.9840   -9.0210   20.4630 C   0  0  0  0  0  3  0  0  0  0  0  0
  -22.7140  -10.2110   20.3020 C   0  0  0  0  0  3  0  0  0  0  0  0
  -21.6650   -6.8840   21.4240 O   0  0  0  0  0  0  0  0  0  0  0  0
  -21.6850   -6.0690   22.5270 C   0  0  0  0  0  0  0  0  0  0  0  0
  -21.4000   -6.5590   23.8190 C   0  0  0  0  0  3  0  0  0  0  0  0
  -21.3650   -5.6760   24.9170 C   0  0  0  0  0  3  0  0  0  0  0  0
  -21.6060   -4.3020   24.7220 C   0  0  0  0  0  0  0  0  0  0  0  0
  -21.8830   -3.8100   23.4350 C   0  0  0  0  0  3  0  0  0  0  0  0
  -21.9190   -4.6910   22.3400 C   0  0  0  0  0  0  0  0  0  0  0  0
  -22.1690   -4.2100   21.0990 F   0  0  0  0  0  0  0  0  0  0  0  0
  -21.5630   -3.4510   25.7740 F   0  0  0  0  0  0  0  0  0  0  0  0
  -22.7810  -13.5250   21.1830 C   0  0  0  0  0  0  0  0  0  0  0  0
  -22.0450  -12.8250   22.0400 N   0  0  0  0  0  0  0  0  0  0  0  0
  -22.3530  -14.5570   20.6720 O   0  0  0  0  0  0  0  0  0  0  0  0
  -22.4060  -11.9920   22.4810 H   0  0  0  0  0  0  0  0  0  0  0  0
  -21.1130  -13.1400   22.2660 H   0  0  0  0  0  0  0  0  0  0  0  0
  -25.4280  -15.1850   20.4180 N   0  0  0  0  0  0  0  0  0  0  0  0
  -24.6680  -15.8450   20.5350 H   0  0  0  0  0  0  0  0  0  0  0  0
  -26.2850  -15.6220   20.1030 H   0  0  0  0  0  0  0  0  0  0  0  0
  -21.4950  -32.8400   24.4450 C   0  0  0  0  0  0  0  0  0  0  0  0
  -21.5180  -32.9880   23.0500 N   0  0  0  0  0  0  0  0  0  0  0  0
  -21.7340  -33.7940   25.1860 O   0  0  0  0  0  0  0  0  0  0  0  0
  -21.1280  -32.2240   22.5240 H   0  0  0  0  0  0  0  0  0  0  0  0
  -22.4030  -33.8990   22.1810 C   0  0  0  0  0  2  0  0  0  0  0  0
  -23.0150  -33.4100   20.7650 C   0  0  0  0  0  0  0  0  0  0  0  0
  -24.3720  -33.4400   20.5040 N   0  0  0  0  0  0  0  0  0  0  0  0
  -22.2280  -32.9780   19.9240 O   0  0  0  0  0  0  0  0  0  0  0  0
  -24.8810  -33.8990   21.2500 H   0  0  0  0  0  0  0  0  0  0  0  0
  -25.3420  -33.1110   19.3470 C   0  0  0  0  0  2  0  0  0  0  0  0
  -25.3380  -31.8220   18.3990 C   0  0  0  0  0  0  0  0  0  0  0  0
  -26.2880  -30.8150   18.2030 N   0  0  0  0  0  0  0  0  0  0  0  0
  -24.3520  -31.7460   17.6670 O   0  0  0  0  0  0  0  0  0  0  0  0
  -25.9270  -30.1670   17.5170 H   0  0  0  0  0  0  0  0  0  0  0  0
  -27.6870  -30.3680   18.6260 C   0  0  0  0  0  2  0  0  0  0  0  0
  -28.1710  -28.8120   18.3320 C   0  0  0  0  0  2  0  0  0  0  0  0
  -28.3550  -27.6660   19.3130 O   0  0  0  0  0  0  0  0  0  0  0  0
  -24.8000  -31.7550   23.2570 C   0  0  0  0  0  0  0  0  0  0  0  0
  -27.2270  -27.5700   20.0290 C   0  0  0  0  0  0  0  0  0  0  0  0
  -23.4160  -30.3890   21.6350 C   0  0  0  0  0  3  0  0  0  0  0  0
  -24.8080  -28.8770   20.1960 C   0  0  0  0  0  0  0  0  0  0  0  0
  -25.9570  -30.6740   21.5270 C   0  0  0  0  0  2  0  0  0  0  0  0
  -25.9390  -29.3440   20.8840 C   0  0  0  0  0  0  0  0  0  0  0  0
  -27.1240  -28.6250   20.9180 C   0  0  0  0  0  3  0  0  0  0  0  0
  -26.1030  -26.9820   19.4280 C   0  0  0  0  0  3  0  0  0  0  0  0
  -24.8680  -27.6510   19.5100 C   0  0  0  0  0  3  0  0  0  0  0  0
  -23.5580  -29.7120   20.2570 C   0  0  0  0  0  2  0  0  0  0  0  0
  -24.7150  -30.9610   22.1770 N   0  0  0  0  0  0  0  0  0  0  0  0
  -23.8170  -31.9740   23.8600 O   0  0  0  0  0  0  0  0  0  0  0  0
  -22.7260  -29.3250   22.4660 C   0  0  0  0  0  0  0  0  0  0  0  0
  -21.3820  -29.2620   22.3630 N   0  0  0  0  0  0  0  0  0  0  0  0
  -23.3820  -28.4970   23.0810 O   0  0  0  0  0  0  0  0  0  0  0  0
  -20.9070  -29.9020   21.7410 H   0  0  0  0  0  0  0  0  0  0  0  0
  -17.9630  -28.0660   22.8720 C   0  0  0  0  0  0  0  0  0  0  0  0
  -20.5190  -28.3440   23.0940 C   0  0  0  0  0  3  0  0  0  0  0  0
  -20.6240  -26.9100   22.5260 C   0  0  0  0  0  2  0  0  0  0  0  0
  -19.5130  -26.5950   21.5240 C   0  0  0  0  0  2  0  0  0  0  0  0
  -18.1450  -26.7150   22.2000 C   0  0  0  0  0  2  0  0  0  0  0  0
  -19.0750  -28.8660   23.2220 C   0  0  0  0  0  0  0  0  0  0  0  0
  -18.8040  -30.1840   23.6450 C   0  0  0  0  0  3  0  0  0  0  0  0
  -17.5170  -30.6600   23.9030 C   0  0  0  0  0  3  0  0  0  0  0  0
  -16.4280  -29.8300   23.6210 C   0  0  0  0  0  3  0  0  0  0  0  0
  -16.6540  -28.5520   23.0770 C   0  0  0  0  0  3  0  0  0  0  0  0
  -26.0440  -32.4600   23.8430 C   0  0  0  0  0  3  0  0  0  0  0  0
  -26.5890  -31.7150   25.1220 C   0  0  1  0  0  0  0  0  0  0  0  0
  -25.6130  -31.6400   26.3380 C   0  0  0  0  0  1  0  0  0  0  0  0
  -27.1170  -30.3030   24.7440 C   0  0  0  0  0  1  0  0  0  0  0  0
  -27.8100  -32.4870   25.6550 C   0  0  0  0  0  1  0  0  0  0  0  0
  -25.6460  -33.8330   24.2140 N   0  0  0  0  0  0  0  0  0  0  0  0
  -25.9180  -34.9300   23.4980 C   0  0  0  0  0  0  0  0  0  0  0  0
  -26.5420  -34.8780   22.4330 O   0  0  0  0  0  0  0  0  0  0  0  0
  -25.0360  -33.9100   25.0180 H   0  0  0  0  0  0  0  0  0  0  0  0
  -24.1510  -36.7510   23.3100 C   0  0  0  0  0  1  0  0  0  0  0  0
  -25.4280  -36.2930   24.0350 C   0  0  0  0  0  3  0  0  0  0  0  0
  -27.5750  -37.1580   24.8330 C   0  0  0  0  0  1  0  0  0  0  0  0
  -26.4480  -37.3600   23.9260 N   0  0  0  0  0  0  0  0  0  0  0  0
  -26.0360  -38.2700   24.1140 H   0  0  0  0  0  0  0  0  0  0  0  0
  1  3  1  0
  2  3  1  0
  2  6  1  0
  3  5  1  0
  4  2  2  0
  7  9  2  0
  8  7  1  0
  8  6  1  0
 10  8  1  0
 11 12  2  0
 11  7  1  0
 13 16  1  0
 13 12  1  0
 14 13  1  0
 15 13  1  0
 17 18  1  0
 17 16  2  0
 19 18  1  0
 20 19  2  0
 21 29  1  0
 22 27  1  0
 23 24  1  0
 23 22  1  0
 25 24  1  0
 25 34  1  0
 25 26  1  0
 27 21  1  0
 27 26  1  0
 28 21  2  0
 29 30  1  0
 29 20  1  0
 31 32  2  0
 32 51  1  0
 33 32  1  0
 33 36  1  0
 34 35  1  0
 34 31  1  0
 35 33  2  0
 36 37  1  0
 37 38  2  0
 39 42  1  0
 39 38  1  0
 40 39  2  0
 41 40  1  0
 41 36  2  0
 42 43  1  0
 43 44  1  0
 44 45  2  0
 46 45  1  0
 46 50  1  0
 47 46  2  0
 48 43  2  0
 48 47  1  0
 49 48  1  0
 51 52  1  0
 52 55  1  0
 52 54  1  0
 53 51  2  0
 56 57  1  0
 56 31  1  0
 58 56  1  0
 59  1  1  0
 59 61  2  0
 60 59  1  0
 62 60  1  0
 63 60  1  0
 64 63  1  0
 65 64  1  0
 65 67  1  0
 66 64  2  0
 68 65  1  0
 69 68  1  0
 70 69  1  0
 70 73  1  0
 71 69  2  0
 72 70  1  0
 74 73  1  0
 74 75  1  0
 75 77  1  0
 76 87  2  0
 77 82  1  0
 78 86  1  0
 78 88  1  0
 79 85  1  0
 79 81  1  0
 80 86  1  0
 81 82  2  0
 81 80  1  0
 83 84  1  0
 83 77  2  0
 84 79  2  0
 85 78  1  0
 86 76  1  0
 88 90  2  0
 89 88  1  0
 91 89  1  0
 92101  2  0
 92 97  1  0
 93 89  1  0
 93 97  1  0
 94 93  1  0
 95 96  1  0
 95 94  1  0
 96 92  1  0
 97 98  2  0
 98 99  1  0
100 99  2  0
101100  1  0
102 76  1  0
102107  1  0
102103  1  0
103106  1  1
103104  1  0
105103  1  0
107110  1  0
108112  1  0
108107  1  0
109108  2  0
112111  1  0
114112  1  0
114115  1  0
114113  1  0
M  ISO  4  21 100  29 100  74 101  75 101
M  END
>  <TORSDO>  (3) 
F 34

>  <SCORE>  (3) 
72.973

>  <name>  (3) 
2

>  <ligand_id>  (3) 
2

>  <original_smiles>  (3) 
[H]c1c([H])c([H])c2c(c1[H])C([H])([H])C([H])([H])C([H])([H])C2([H])N([H])C(=O)C1([H])N(C(=O)C([H])(N([H])C(=O)C([H])(N([H])C([H])([H])[H])C([H])([H])[H])C(C([H])([H])[H])(C([H])([H])[H])C([H])([H])[H])C([H])([H])c2c([H])c(OC([H])([H])C([H])([H])N([H])C(=O)C([H])([H])N([H])C(=O)C([H])([H])N([H])C(=O)C([H])([H])N([H])C(=O)C([H])([H])N([H])C(=O)C([H])([H])C([H])([H])[N+]([H])([H])C([H])([H])C([H])([H])C([H])([H])C([H])([H])C([H])([H])N([H])C(=O)N3C([H])([H])C([H])([H])C([H])([H])C([H])(n4nc(-c5c([H])c([H])c(Oc6c([H])c([H])c(F)c([H])c6F)c([H])c5[H])c(C(=O)N([H])[H])c4N([H])[H])C3([H])[H])c([H])c([H])c2C1([H])[H]

>  <smiles>  (3) 
[H]c1c([H])c([H])c2c(c1[H])C([H])([H])C([H])([H])C([H])([H])C2([H])N([H])C(=O)C1([H])N(C(=O)C([H])(N([H])C(=O)C([H])(N([H])C([H])([H])[H])C([H])([H])[H])C(C([H])([H])[H])(C([H])([H])[H])C([H])([H])[H])C([H])([H])c2c([H])c(OC([H])([H])C([H])([H])N([H])C(=O)C([H])([H])N([H])C(=O)C([H])([H])N([H])C(=O)C([H])([H])N([H])C(=O)C([H])([H])N([H])C(=O)C([H])([H])C([H])([H])[N+]([H])([H])C([H])([H])C([H])([H])C([H])([H])C([H])([H])C([H])([H])N([H])C(=O)N3C([H])([H])C([H])([H])C([H])([H])C([H])(n4nc(-c5c([H])c([H])c(Oc6c([H])c([H])c(F)c([H])c6F)c([H])c5[H])c(C(=O)N([H])[H])c4N([H])[H])C3([H])[H])c([H])c([H])c2C1([H])[H]

$$$$
4:0:0
     RDKit          3D

103110  0  0  1  0  0  0  0  0999 V2000
  -28.5340  -23.6340   25.9270 C   0  0  0  0  0  0  0  0  0  0  0  0
  -28.4950  -24.7930   25.2560 N   0  0  0  0  0  0  0  0  0  0  0  0
  -27.6810  -23.3090   26.7550 O   0  0  0  0  0  0  0  0  0  0  0  0
  -29.2240  -24.9730   24.5770 H   0  0  0  0  0  0  0  0  0  0  0  0
  -29.7260  -22.7040   25.6540 C   0  0  0  0  0  2  0  0  0  0  0  0
  -30.1420  -21.2540   23.6720 C   0  0  0  0  0  0  0  0  0  0  0  0
  -29.9830  -22.4590   24.2340 N   0  0  0  0  0  0  0  0  0  0  0  0
  -29.9170  -20.1990   24.2760 O   0  0  0  0  0  0  0  0  0  0  0  0
  -30.1350  -23.2740   23.6530 H   0  0  0  0  0  0  0  0  0  0  0  0
  -30.6800  -21.2500   22.2310 C   0  0  0  0  0  2  0  0  0  0  0  0
  -30.4340  -18.8140   21.6880 C   0  0  0  0  0  0  0  0  0  0  0  0
  -30.2360  -20.1130   21.4230 N   0  0  0  0  0  0  0  0  0  0  0  0
  -31.0280  -18.4060   22.6900 O   0  0  0  0  0  0  0  0  0  0  0  0
  -29.7390  -20.3380   20.5710 H   0  0  0  0  0  0  0  0  0  0  0  0
  -29.8880  -17.8430   20.6410 C   0  0  0  0  0  2  0  0  0  0  0  0
  -30.8310  -15.5370   20.8260 C   0  0  0  0  0  0  0  0  0  0  0  0
  -31.0530  -13.2440   19.9440 C   0  0  0  0  0  2  0  0  0  0  0  0
  -30.3910  -13.1950   18.5490 C   0  0  0  0  0  2  0  0  0  0  0  0
  -28.8710  -12.9470   18.6570 C   0  0  0  0  0  2  0  0  0  0  0  0
  -28.1850  -13.8620   19.7040 C   0  0  0  0  0  3  0  0  0  0  0  0
  -28.9750  -13.8540   21.0340 C   0  0  0  0  0  2  0  0  0  0  0  0
  -30.3610  -14.2650   20.7420 N   0  0  0  0  0  0  0  0  0  0  0  0
  -31.9840  -15.8580   20.5160 O   0  0  0  0  0  0  0  0  0  0  0  0
  -29.8820  -16.4490   21.0810 N   0  0  0  0  0  0  0  0  0  0  0  0
  -29.0000  -16.0960   21.4220 H   0  0  0  0  0  0  0  0  0  0  0  0
  -25.6300  -14.1820   19.5770 C   0  0  0  0  0  0  0  0  0  0  0  0
  -24.5900  -13.3600   19.9130 C   0  0  0  0  0  0  0  0  0  0  0  0
  -25.1790  -12.1670   20.4370 C   0  0  0  0  0  0  0  0  0  0  0  0
  -26.7850  -13.4870   19.9060 N   0  0  0  0  0  0  0  0  0  0  0  0
  -26.4990  -12.2890   20.4730 N   0  0  0  0  0  0  0  0  0  0  0  0
  -24.5700  -10.8980   20.8510 C   0  0  0  0  0  0  0  0  0  0  0  0
  -24.7840  -10.3640   22.1400 C   0  0  0  0  0  3  0  0  0  0  0  0
  -24.1730   -9.1510   22.5230 C   0  0  0  0  0  3  0  0  0  0  0  0
  -23.3360   -8.4610   21.6150 C   0  0  0  0  0  0  0  0  0  0  0  0
  -23.1420   -8.9860   20.3240 C   0  0  0  0  0  3  0  0  0  0  0  0
  -23.7540  -10.1920   19.9440 C   0  0  0  0  0  3  0  0  0  0  0  0
  -22.7200   -7.2640   21.8910 O   0  0  0  0  0  0  0  0  0  0  0  0
  -22.1000   -7.0340   23.0930 C   0  0  0  0  0  0  0  0  0  0  0  0
  -21.1010   -7.8980   23.5950 C   0  0  0  0  0  3  0  0  0  0  0  0
  -20.4450   -7.5860   24.8030 C   0  0  0  0  0  3  0  0  0  0  0  0
  -20.7750   -6.4100   25.5010 C   0  0  0  0  0  0  0  0  0  0  0  0
  -21.7660   -5.5480   25.0000 C   0  0  0  0  0  3  0  0  0  0  0  0
  -22.4260   -5.8580   23.7980 C   0  0  0  0  0  0  0  0  0  0  0  0
  -23.3640   -5.0130   23.3090 F   0  0  0  0  0  0  0  0  0  0  0  0
  -20.1400   -6.1060   26.6570 F   0  0  0  0  0  0  0  0  0  0  0  0
  -23.1290  -13.6210   19.6810 C   0  0  0  0  0  0  0  0  0  0  0  0
  -22.2660  -13.1010   20.5450 N   0  0  0  0  0  0  0  0  0  0  0  0
  -22.7470  -14.3340   18.7530 O   0  0  0  0  0  0  0  0  0  0  0  0
  -22.5780  -12.5300   21.3160 H   0  0  0  0  0  0  0  0  0  0  0  0
  -21.2770  -13.2810   20.4370 H   0  0  0  0  0  0  0  0  0  0  0  0
  -25.6990  -15.4490   19.0030 N   0  0  0  0  0  0  0  0  0  0  0  0
  -24.8720  -15.9510   18.7030 H   0  0  0  0  0  0  0  0  0  0  0  0
  -26.5630  -15.9010   18.7330 H   0  0  0  0  0  0  0  0  0  0  0  0
  -27.5290  -25.8810   25.4770 C   0  0  0  0  0  2  0  0  0  0  0  0
  -26.1280  -25.6880   24.8620 C   0  0  0  0  0  0  0  0  0  0  0  0
  -25.9630  -25.1040   23.6620 N   0  0  0  0  0  0  0  0  0  0  0  0
  -25.1430  -26.0610   25.4990 O   0  0  0  0  0  0  0  0  0  0  0  0
  -25.0050  -24.9950   23.3600 H   0  0  0  0  0  0  0  0  0  0  0  0
  -26.9780  -24.5960   22.7410 C   0  0  0  0  0  2  0  0  0  0  0  0
  -27.6600  -25.7190   21.9490 C   0  0  0  0  0  2  0  0  0  0  0  0
  -28.7700  -25.1680   21.0360 C   0  0  0  0  0  2  0  0  0  0  0  0
  -29.6290  -26.2320   20.3190 C   0  0  0  0  0  2  0  0  0  0  0  0
  -28.9400  -26.8120   19.2170 O   0  0  0  0  0  0  0  0  0  0  0  0
  -25.5050  -30.6790   24.1180 C   0  0  0  0  0  0  0  0  0  0  0  0
  -27.8860  -27.6230   19.5420 C   0  0  0  0  0  0  0  0  0  0  0  0
  -24.2950  -30.2710   21.9970 C   0  0  0  0  0  3  0  0  0  0  0  0
  -25.6840  -29.2820   20.1020 C   0  0  0  0  0  0  0  0  0  0  0  0
  -26.8480  -30.3360   22.0500 C   0  0  0  0  0  2  0  0  0  0  0  0
  -26.8360  -29.3540   20.8990 C   0  0  0  0  0  0  0  0  0  0  0  0
  -27.9450  -28.5250   20.6250 C   0  0  0  0  0  3  0  0  0  0  0  0
  -26.7280  -27.5660   18.7420 C   0  0  0  0  0  3  0  0  0  0  0  0
  -25.6170  -28.3810   19.0240 C   0  0  0  0  0  3  0  0  0  0  0  0
  -24.5450  -30.2080   20.4670 C   0  0  0  0  0  2  0  0  0  0  0  0
  -25.5640  -30.4080   22.7840 N   0  0  0  0  0  0  0  0  0  0  0  0
  -24.4200  -30.8540   24.6910 O   0  0  0  0  0  0  0  0  0  0  0  0
  -23.4530  -29.0430   22.4170 C   0  0  0  0  0  0  0  0  0  0  0  0
  -22.1320  -29.1160   22.1820 N   0  0  0  0  0  0  0  0  0  0  0  0
  -23.9880  -28.0460   22.9110 O   0  0  0  0  0  0  0  0  0  0  0  0
  -21.7690  -29.9610   21.7610 H   0  0  0  0  0  0  0  0  0  0  0  0
  -18.6170  -28.3300   22.0530 C   0  0  0  0  0  0  0  0  0  0  0  0
  -21.1520  -28.0710   22.4750 C   0  0  0  0  0  3  0  0  0  0  0  0
  -21.1230  -26.9980   21.3640 C   0  0  0  0  0  2  0  0  0  0  0  0
  -20.0890  -27.2980   20.2730 C   0  0  0  0  0  2  0  0  0  0  0  0
  -18.6840  -27.3700   20.8770 C   0  0  0  0  0  2  0  0  0  0  0  0
  -19.7780  -28.6690   22.7970 C   0  0  0  0  0  0  0  0  0  0  0  0
  -19.6680  -29.5830   23.8680 C   0  0  0  0  0  3  0  0  0  0  0  0
  -18.4220  -30.1470   24.2040 C   0  0  0  0  0  3  0  0  0  0  0  0
  -17.2720  -29.7960   23.4740 C   0  0  0  0  0  3  0  0  0  0  0  0
  -17.3710  -28.8920   22.4030 C   0  0  0  0  0  3  0  0  0  0  0  0
  -26.8000  -30.8060   24.9800 C   0  0  0  0  0  3  0  0  0  0  0  0
  -26.7960  -32.1400   25.5940 N   0  0  0  0  0  0  0  0  0  0  0  0
  -27.4980  -33.1860   25.1360 C   0  0  0  0  0  0  0  0  0  0  0  0
  -28.2870  -33.1080   24.1900 O   0  0  0  0  0  0  0  0  0  0  0  0
  -26.1420  -32.2910   26.3480 H   0  0  0  0  0  0  0  0  0  0  0  0
  -26.3660  -35.4320   25.0060 C   0  0  0  0  0  1  0  0  0  0  0  0
  -27.2920  -34.5380   25.8460 C   0  0  0  0  0  3  0  0  0  0  0  0
  -29.3940  -34.6150   27.1150 C   0  0  0  0  0  1  0  0  0  0  0  0
  -28.5520  -35.2620   26.1120 N   0  0  0  0  0  0  0  0  0  0  0  0
  -28.3580  -36.2080   26.4270 H   0  0  0  0  0  0  0  0  0  0  0  0
  -26.9270  -29.6820   26.0790 C   0  0  1  0  0  0  0  0  0  0  0  0
  -25.6440  -29.4790   26.9210 C   0  0  0  0  0  1  0  0  0  0  0  0
  -27.2900  -28.3260   25.4270 C   0  0  0  0  0  1  0  0  0  0  0  0
  -28.0810  -30.0300   27.0500 C   0  0  0  0  0  1  0  0  0  0  0  0
  1  3  2  0
  2 54  1  0
  2  1  1  0
  4  2  1  0
  5  1  1  0
  6  7  1  0
  6  8  2  0
  7  5  1  0
  9  7  1  0
 10  6  1  0
 11 13  2  0
 12 11  1  0
 12 10  1  0
 14 12  1  0
 15 24  1  0
 15 11  1  0
 16 24  1  0
 17 22  1  0
 18 19  1  0
 18 17  1  0
 20 19  1  0
 20 29  1  0
 20 21  1  0
 22 16  1  0
 22 21  1  0
 23 16  2  0
 24 25  1  0
 26 29  1  0
 26 27  2  0
 27 28  1  0
 28 30  2  0
 28 31  1  0
 29 30  1  0
 31 32  1  0
 32 33  2  0
 34 37  1  0
 34 33  1  0
 35 34  2  0
 36 35  1  0
 36 31  2  0
 37 38  1  0
 38 39  2  0
 38 43  1  0
 39 40  1  0
 40 41  2  0
 41 45  1  0
 42 41  1  0
 43 42  2  0
 44 43  1  0
 46 27  1  0
 46 47  1  0
 47 49  1  0
 48 46  2  0
 50 47  1  0
 51 26  1  0
 52 51  1  0
 53 51  1  0
 55 54  1  0
 55 57  2  0
 56 55  1  0
 58 56  1  0
 59 56  1  0
 60 59  1  0
 61 60  1  0
 62 61  1  0
 63 65  1  0
 63 62  1  0
 64 75  2  0
 65 70  1  0
 66 76  1  0
 66 74  1  0
 67 73  1  0
 67 69  1  0
 68 74  1  0
 69 68  1  0
 70 69  2  0
 71 72  1  0
 71 65  2  0
 72 67  2  0
 73 66  1  0
 74 64  1  0
 76 78  2  0
 77 76  1  0
 79 77  1  0
 80 89  2  0
 80 85  1  0
 81 77  1  0
 81 85  1  0
 82 81  1  0
 83 84  1  0
 83 82  1  0
 84 80  1  0
 85 86  2  0
 86 87  1  0
 88 87  2  0
 89 88  1  0
 90 64  1  0
 90 91  1  0
 90100  1  0
 91 94  1  0
 92 91  1  0
 92 96  1  0
 93 92  2  0
 96 95  1  0
 96 98  1  0
 98 99  1  0
 98 97  1  0
100101  1  1
100103  1  0
102100  1  0
M  ISO  4  16 100  24 100  62 101  63 101
M  END
>  <TORSDO>  (4) 
F 27

>  <SCORE>  (4) 
3.956

>  <name>  (4) 
4

>  <ligand_id>  (4) 
4

>  <original_smiles>  (4) 
[H]c1c([H])c([H])c2c(c1[H])C([H])([H])C([H])([H])C([H])([H])C2([H])N([H])C(=O)C1([H])N(C(=O)C([H])(N([H])C(=O)C([H])(N([H])C([H])([H])[H])C([H])([H])[H])C(C([H])([H])[H])(C([H])([H])[H])C([H])([H])[H])C([H])([H])c2c([H])c(OC([H])([H])C([H])([H])C([H])([H])C([H])([H])N([H])C(=O)C([H])([H])N([H])C(=O)C([H])([H])N([H])C(=O)C([H])([H])N([H])C(=O)C([H])([H])N([H])C(=O)N3C([H])([H])C([H])([H])C([H])([H])C([H])(n4nc(-c5c([H])c([H])c(Oc6c([H])c([H])c(F)c([H])c6F)c([H])c5[H])c(C(=O)N([H])[H])c4N([H])[H])C3([H])[H])c([H])c([H])c2C1([H])[H]

>  <smiles>  (4) 
[H]c1c([H])c([H])c2c(c1[H])C([H])([H])C([H])([H])C([H])([H])C2([H])N([H])C(=O)C1([H])N(C(=O)C([H])(N([H])C(=O)C([H])(N([H])C([H])([H])[H])C([H])([H])[H])C(C([H])([H])[H])(C([H])([H])[H])C([H])([H])[H])C([H])([H])c2c([H])c(OC([H])([H])C([H])([H])C([H])([H])C([H])([H])N([H])C(=O)C([H])([H])N([H])C(=O)C([H])([H])N([H])C(=O)C([H])([H])N([H])C(=O)C([H])([H])N([H])C(=O)N3C([H])([H])C([H])([H])C([H])([H])C([H])(n4nc(-c5c([H])c([H])c(Oc6c([H])c([H])c(F)c([H])c6F)c([H])c5[H])c(C(=O)N([H])[H])c4N([H])[H])C3([H])[H])c([H])c([H])c2C1([H])[H]

$$$$
6:0:0
     RDKit          3D

104111  0  0  1  0  0  0  0  0999 V2000
  -28.2950  -18.9650   16.2950 C   0  0  0  0  0  0  0  0  0  0  0  0
  -28.8810  -20.0260   15.7420 N   0  0  0  0  0  0  0  0  0  0  0  0
  -28.6220  -17.8030   16.0460 O   0  0  0  0  0  0  0  0  0  0  0  0
  -28.5190  -20.9370   15.9960 H   0  0  0  0  0  0  0  0  0  0  0  0
  -27.2830  -19.2720   17.3890 C   0  0  0  0  0  2  0  0  0  0  0  0
  -27.6300  -19.5890   19.8360 C   0  0  0  0  0  0  0  0  0  0  0  0
  -28.0860  -19.4640   18.5910 N   0  0  0  0  0  0  0  0  0  0  0  0
  -26.4290  -19.6670   20.0850 O   0  0  0  0  0  0  0  0  0  0  0  0
  -29.0860  -19.4230   18.4650 H   0  0  0  0  0  0  0  0  0  0  0  0
  -28.6630  -19.5850   20.9720 C   0  0  0  0  0  2  0  0  0  0  0  0
  -29.8300  -17.4120   20.6670 C   0  0  0  0  0  0  0  0  0  0  0  0
  -29.8490  -18.7510   20.7180 N   0  0  0  0  0  0  0  0  0  0  0  0
  -28.7770  -16.7670   20.7100 O   0  0  0  0  0  0  0  0  0  0  0  0
  -30.7460  -19.2160   20.6970 H   0  0  0  0  0  0  0  0  0  0  0  0
  -31.1700  -16.6720   20.5880 C   0  0  0  0  0  2  0  0  0  0  0  0
  -31.4330  -14.2760   19.9470 C   0  0  0  0  0  0  0  0  0  0  0  0
  -30.9330  -12.1630   18.7860 C   0  0  0  0  0  2  0  0  0  0  0  0
  -29.9330  -12.4340   17.6400 C   0  0  0  0  0  2  0  0  0  0  0  0
  -28.4790  -12.3820   18.1440 C   0  0  0  0  0  2  0  0  0  0  0  0
  -28.2610  -13.2570   19.4050 C   0  0  0  0  0  3  0  0  0  0  0  0
  -29.3480  -12.9530   20.4610 C   0  0  0  0  0  2  0  0  0  0  0  0
  -30.6740  -13.1530   19.8430 N   0  0  0  0  0  0  0  0  0  0  0  0
  -32.4900  -14.4450   19.3330 O   0  0  0  0  0  0  0  0  0  0  0  0
  -30.9000  -15.2420   20.6950 N   0  0  0  0  0  0  0  0  0  0  0  0
  -30.0080  -15.0380   21.1190 H   0  0  0  0  0  0  0  0  0  0  0  0
  -25.9550  -14.0420   20.2470 C   0  0  0  0  0  0  0  0  0  0  0  0
  -24.8450  -13.3490   20.6470 C   0  0  0  0  0  0  0  0  0  0  0  0
  -25.1970  -11.9680   20.5800 C   0  0  0  0  0  0  0  0  0  0  0  0
  -26.9170  -13.0880   19.9560 N   0  0  0  0  0  0  0  0  0  0  0  0
  -26.4660  -11.8330   20.2140 N   0  0  0  0  0  0  0  0  0  0  0  0
  -24.3830  -10.7620   20.7930 C   0  0  0  0  0  0  0  0  0  0  0  0
  -24.7350   -9.7920   21.7560 C   0  0  0  0  0  3  0  0  0  0  0  0
  -23.9330   -8.6470   21.9510 C   0  0  0  0  0  3  0  0  0  0  0  0
  -22.7530   -8.4680   21.1900 C   0  0  0  0  0  0  0  0  0  0  0  0
  -22.4240   -9.4220   20.2100 C   0  0  0  0  0  3  0  0  0  0  0  0
  -23.2280  -10.5580   20.0130 C   0  0  0  0  0  3  0  0  0  0  0  0
  -21.9160   -7.3870   21.2960 O   0  0  0  0  0  0  0  0  0  0  0  0
  -21.7260   -6.7430   22.4920 C   0  0  0  0  0  0  0  0  0  0  0  0
  -21.2280   -7.4170   23.6280 C   0  0  0  0  0  3  0  0  0  0  0  0
  -20.9750   -6.6990   24.8150 C   0  0  0  0  0  3  0  0  0  0  0  0
  -21.2180   -5.3120   24.8670 C   0  0  0  0  0  0  0  0  0  0  0  0
  -21.7160   -4.6450   23.7340 C   0  0  0  0  0  3  0  0  0  0  0  0
  -21.9620   -5.3570   22.5480 C   0  0  0  0  0  0  0  0  0  0  0  0
  -22.4180   -4.7050   21.4510 F   0  0  0  0  0  0  0  0  0  0  0  0
  -20.9720   -4.6170   26.0030 F   0  0  0  0  0  0  0  0  0  0  0  0
  -23.5050  -13.9260   20.9990 C   0  0  0  0  0  0  0  0  0  0  0  0
  -22.7720  -13.2850   21.9030 N   0  0  0  0  0  0  0  0  0  0  0  0
  -23.1170  -14.9860   20.5130 O   0  0  0  0  0  0  0  0  0  0  0  0
  -23.1010  -12.4300   22.3290 H   0  0  0  0  0  0  0  0  0  0  0  0
  -21.8730  -13.6550   22.1740 H   0  0  0  0  0  0  0  0  0  0  0  0
  -26.2260  -15.4020   20.1120 N   0  0  0  0  0  0  0  0  0  0  0  0
  -25.5530  -16.0810   20.4460 H   0  0  0  0  0  0  0  0  0  0  0  0
  -27.1720  -15.7810   20.0770 H   0  0  0  0  0  0  0  0  0  0  0  0
  -30.1800  -19.9980   15.0850 C   0  0  0  0  0  2  0  0  0  0  0  0
  -31.2350  -20.4480   16.0950 C   0  0  0  0  0  0  0  0  0  0  0  0
  -31.1320  -21.7110   16.5270 N   0  0  0  0  0  0  0  0  0  0  0  0
  -32.0870  -19.6630   16.5060 O   0  0  0  0  0  0  0  0  0  0  0  0
  -30.3870  -22.2660   16.1320 H   0  0  0  0  0  0  0  0  0  0  0  0
  -32.0450  -22.3990   17.4340 C   0  0  0  0  0  2  0  0  0  0  0  0
  -31.3660  -22.8200   18.7500 C   0  0  0  0  0  2  0  0  0  0  0  0
  -30.0410  -23.5970   18.5660 C   0  0  0  0  0  2  0  0  0  0  0  0
  -29.8670  -24.7830   19.5350 C   0  0  0  0  0  2  0  0  0  0  0  0
  -28.5030  -25.4730   19.3890 C   0  0  0  0  0  2  0  0  0  0  0  0
  -28.4770  -26.7220   20.0940 O   0  0  0  0  0  0  0  0  0  0  0  0
  -24.6740  -31.7870   23.3630 C   0  0  0  0  0  0  0  0  0  0  0  0
  -27.3010  -27.4500   20.1010 C   0  0  0  0  0  0  0  0  0  0  0  0
  -23.4740  -30.4780   21.6430 C   0  0  0  0  0  3  0  0  0  0  0  0
  -24.9260  -28.9900   20.1740 C   0  0  0  0  0  0  0  0  0  0  0  0
  -26.0100  -30.8040   21.5000 C   0  0  0  0  0  2  0  0  0  0  0  0
  -26.0840  -29.4620   20.8020 C   0  0  0  0  0  0  0  0  0  0  0  0
  -27.2720  -28.6950   20.7700 C   0  0  0  0  0  3  0  0  0  0  0  0
  -26.1180  -26.9970   19.4660 C   0  0  0  0  0  3  0  0  0  0  0  0
  -24.9360  -27.7530   19.5120 C   0  0  0  0  0  3  0  0  0  0  0  0
  -23.6970  -29.8660   20.2380 C   0  0  0  0  0  2  0  0  0  0  0  0
  -24.7360  -31.0350   22.2270 N   0  0  0  0  0  0  0  0  0  0  0  0
  -23.5860  -32.0500   23.8950 O   0  0  0  0  0  0  0  0  0  0  0  0
  -22.7930  -29.4210   22.5430 C   0  0  0  0  0  0  0  0  0  0  0  0
  -21.4630  -29.2910   22.4100 N   0  0  0  0  0  0  0  0  0  0  0  0
  -23.4580  -28.7280   23.3160 O   0  0  0  0  0  0  0  0  0  0  0  0
  -20.9910  -29.9010   21.7590 H   0  0  0  0  0  0  0  0  0  0  0  0
  -18.0540  -28.1830   22.8600 C   0  0  0  0  0  0  0  0  0  0  0  0
  -20.6200  -28.3350   23.1270 C   0  0  0  0  0  3  0  0  0  0  0  0
  -20.6700  -26.9390   22.4650 C   0  0  0  0  0  2  0  0  0  0  0  0
  -19.5540  -26.7170   21.4400 C   0  0  0  0  0  2  0  0  0  0  0  0
  -18.1800  -26.8700   22.1010 C   0  0  0  0  0  2  0  0  0  0  0  0
  -19.2010  -28.8770   23.3260 C   0  0  0  0  0  0  0  0  0  0  0  0
  -19.0310  -30.1080   23.9960 C   0  0  0  0  0  3  0  0  0  0  0  0
  -17.7470  -30.6470   24.1970 C   0  0  0  0  0  3  0  0  0  0  0  0
  -16.6130  -29.9480   23.7480 C   0  0  0  0  0  3  0  0  0  0  0  0
  -16.7670  -28.7170   23.0850 C   0  0  0  0  0  3  0  0  0  0  0  0
  -25.9570  -32.3720   24.0320 C   0  0  0  0  0  3  0  0  0  0  0  0
  -25.6680  -33.7650   24.3980 N   0  0  0  0  0  0  0  0  0  0  0  0
  -26.0230  -34.8320   23.6700 C   0  0  0  0  0  0  0  0  0  0  0  0
  -26.7010  -34.7470   22.6420 O   0  0  0  0  0  0  0  0  0  0  0  0
  -25.0770  -33.9070   25.2040 H   0  0  0  0  0  0  0  0  0  0  0  0
  -24.3250  -36.6580   23.3470 C   0  0  0  0  0  1  0  0  0  0  0  0
  -25.5520  -36.2150   24.1600 C   0  0  0  0  0  3  0  0  0  0  0  0
  -27.6890  -37.0450   25.0400 C   0  0  0  0  0  1  0  0  0  0  0  0
  -26.6030  -37.2530   24.0860 N   0  0  0  0  0  0  0  0  0  0  0  0
  -26.2100  -38.1770   24.2490 H   0  0  0  0  0  0  0  0  0  0  0  0
  -26.4330  -31.5490   25.2910 C   0  0  1  0  0  0  0  0  0  0  0  0
  -25.3170  -31.3060   26.3320 C   0  0  0  0  0  1  0  0  0  0  0  0
  -26.9860  -30.1690   24.8620 C   0  0  0  0  0  1  0  0  0  0  0  0
  -27.5940  -32.2910   25.9930 C   0  0  0  0  0  1  0  0  0  0  0  0
  1  5  1  0
  2  4  1  0
  2  1  1  0
  3  1  2  0
  5  7  1  0
  6  8  2  0
  6 10  1  0
  7  6  1  0
  9  7  1  0
 11 13  2  0
 11 12  1  0
 12 10  1  0
 14 12  1  0
 15 11  1  0
 15 24  1  0
 16 24  1  0
 17 22  1  0
 18 19  1  0
 18 17  1  0
 20 19  1  0
 20 29  1  0
 20 21  1  0
 22 16  1  0
 22 21  1  0
 23 16  2  0
 24 25  1  0
 26 27  2  0
 27 46  1  0
 28 27  1  0
 28 31  1  0
 29 30  1  0
 29 26  1  0
 30 28  2  0
 31 32  1  0
 32 33  2  0
 34 37  1  0
 34 33  1  0
 35 34  2  0
 36 35  1  0
 36 31  2  0
 37 38  1  0
 38 43  2  0
 38 39  1  0
 39 40  2  0
 40 41  1  0
 41 45  1  0
 42 41  2  0
 43 42  1  0
 44 43  1  0
 46 47  1  0
 47 50  1  0
 47 49  1  0
 48 46  2  0
 51 26  1  0
 51 52  1  0
 53 51  1  0
 54  2  1  0
 54 55  1  0
 55 57  2  0
 55 56  1  0
 56 59  1  0
 58 56  1  0
 59 60  1  0
 61 60  1  0
 61 62  1  0
 63 62  1  0
 63 64  1  0
 64 66  1  0
 65 76  2  0
 66 71  1  0
 67 75  1  0
 67 77  1  0
 68 74  1  0
 68 70  1  0
 69 75  1  0
 70 69  1  0
 71 70  2  0
 72 73  1  0
 72 66  2  0
 73 68  2  0
 74 67  1  0
 75 65  1  0
 77 79  2  0
 78 77  1  0
 80 78  1  0
 81 90  2  0
 81 86  1  0
 82 78  1  0
 82 86  1  0
 83 82  1  0
 84 85  1  0
 84 83  1  0
 85 81  1  0
 86 87  2  0
 87 88  1  0
 89 88  2  0
 90 89  1  0
 91 65  1  0
 91 92  1  0
 91101  1  0
 92 95  1  0
 93 97  1  0
 93 92  1  0
 94 93  2  0
 97 96  1  0
 99 97  1  0
 99100  1  0
 99 98  1  0
101104  1  1
101102  1  0
103101  1  0
M  ISO  4  16 100  24 100  63 101  64 101
M  END
>  <TORSDO>  (5) 
F 28

>  <SCORE>  (5) 
-9.283

>  <name>  (5) 
6

>  <ligand_id>  (5) 
6

>  <original_smiles>  (5) 
[H]c1c([H])c([H])c2c(c1[H])C([H])([H])C([H])([H])C([H])([H])C2([H])N([H])C(=O)C1([H])N(C(=O)C([H])(N([H])C(=O)C([H])(N([H])C([H])([H])[H])C([H])([H])[H])C(C([H])([H])[H])(C([H])([H])[H])C([H])([H])[H])C([H])([H])c2c([H])c(OC([H])([H])C([H])([H])C([H])([H])C([H])([H])C([H])([H])N([H])C(=O)C([H])([H])N([H])C(=O)C([H])([H])N([H])C(=O)C([H])([H])N([H])C(=O)C([H])([H])N([H])C(=O)N3C([H])([H])C([H])([H])C([H])([H])C([H])(n4nc(-c5c([H])c([H])c(Oc6c([H])c([H])c(F)c([H])c6F)c([H])c5[H])c(C(=O)N([H])[H])c4N([H])[H])C3([H])[H])c([H])c([H])c2C1([H])[H]

>  <smiles>  (5) 
[H]c1c([H])c([H])c2c(c1[H])C([H])([H])C([H])([H])C([H])([H])C2([H])N([H])C(=O)C1([H])N(C(=O)C([H])(N([H])C(=O)C([H])(N([H])C([H])([H])[H])C([H])([H])[H])C(C([H])([H])[H])(C([H])([H])[H])C([H])([H])[H])C([H])([H])c2c([H])c(OC([H])([H])C([H])([H])C([H])([H])C([H])([H])C([H])([H])N([H])C(=O)C([H])([H])N([H])C(=O)C([H])([H])N([H])C(=O)C([H])([H])N([H])C(=O)C([H])([H])N([H])C(=O)N3C([H])([H])C([H])([H])C([H])([H])C([H])(n4nc(-c5c([H])c([H])c(Oc6c([H])c([H])c(F)c([H])c6F)c([H])c5[H])c(C(=O)N([H])[H])c4N([H])[H])C3([H])[H])c([H])c([H])c2C1([H])[H]

$$$$
7:0:0
     RDKit          3D

108115  0  0  1  0  0  0  0  0999 V2000
  -33.3910  -25.1310   16.9780 C   0  0  0  0  0  2  0  0  0  0  0  0
  -32.0780  -25.0920   16.1790 C   0  0  0  0  0  2  0  0  0  0  0  0
  -30.8290  -23.0650   16.9180 C   0  0  0  0  0  0  0  0  0  0  0  0
  -31.5740  -23.7300   16.0280 N   0  0  0  0  0  0  0  0  0  0  0  0
  -30.4840  -23.5590   17.9950 O   0  0  0  0  0  0  0  0  0  0  0  0
  -31.7870  -23.2570   15.1580 H   0  0  0  0  0  0  0  0  0  0  0  0
  -30.4040  -21.6420   16.5250 C   0  0  0  0  0  2  0  0  0  0  0  0
  -30.1480  -20.3470   18.6370 C   0  0  0  0  0  0  0  0  0  0  0  0
  -29.6330  -20.9720   17.5710 N   0  0  0  0  0  0  0  0  0  0  0  0
  -31.3630  -20.2090   18.8020 O   0  0  0  0  0  0  0  0  0  0  0  0
  -28.6290  -21.0590   17.5190 H   0  0  0  0  0  0  0  0  0  0  0  0
  -29.1480  -19.8240   19.6720 C   0  0  0  0  0  2  0  0  0  0  0  0
  -29.5380  -17.5730   20.6590 C   0  0  0  0  0  0  0  0  0  0  0  0
  -29.7760  -18.8840   20.6010 N   0  0  0  0  0  0  0  0  0  0  0  0
  -28.7020  -17.0170   19.9410 O   0  0  0  0  0  0  0  0  0  0  0  0
  -30.5090  -19.2600   21.1870 H   0  0  0  0  0  0  0  0  0  0  0  0
  -30.3390  -16.7740   21.6960 C   0  0  0  0  0  2  0  0  0  0  0  0
  -30.6330  -14.5420   20.6660 C   0  0  0  0  0  0  0  0  0  0  0  0
  -30.3470  -12.4700   19.3640 C   0  0  0  0  0  2  0  0  0  0  0  0
  -29.4160  -12.7220   18.1610 C   0  0  0  0  0  2  0  0  0  0  0  0
  -27.9390  -12.5550   18.5660 C   0  0  0  0  0  2  0  0  0  0  0  0
  -27.5820  -13.3490   19.8490 C   0  0  0  0  0  3  0  0  0  0  0  0
  -28.6140  -13.0640   20.9630 C   0  0  0  0  0  2  0  0  0  0  0  0
  -29.9590  -13.3860   20.4450 N   0  0  0  0  0  0  0  0  0  0  0  0
  -31.6650  -14.8620   20.0650 O   0  0  0  0  0  0  0  0  0  0  0  0
  -30.0760  -15.3440   21.5760 N   0  0  0  0  0  0  0  0  0  0  0  0
  -29.2390  -15.0010   22.0200 H   0  0  0  0  0  0  0  0  0  0  0  0
  -25.1560  -13.9300   20.4950 C   0  0  0  0  0  0  0  0  0  0  0  0
  -24.0880  -13.1440   20.8410 C   0  0  0  0  0  0  0  0  0  0  0  0
  -24.5680  -11.7990   20.8260 C   0  0  0  0  0  0  0  0  0  0  0  0
  -26.2180  -13.0620   20.2910 N   0  0  0  0  0  0  0  0  0  0  0  0
  -25.8640  -11.7760   20.5430 N   0  0  0  0  0  0  0  0  0  0  0  0
  -23.8590  -10.5260   21.0070 C   0  0  0  0  0  0  0  0  0  0  0  0
  -24.3010   -9.5590   21.9360 C   0  0  0  0  0  3  0  0  0  0  0  0
  -23.5930   -8.3510   22.1050 C   0  0  0  0  0  3  0  0  0  0  0  0
  -22.4260   -8.1010   21.3440 C   0  0  0  0  0  0  0  0  0  0  0  0
  -22.0010   -9.0580   20.4050 C   0  0  0  0  0  3  0  0  0  0  0  0
  -22.7120  -10.2570   20.2350 C   0  0  0  0  0  3  0  0  0  0  0  0
  -21.6900   -6.9450   21.4200 O   0  0  0  0  0  0  0  0  0  0  0  0
  -21.6640   -6.1820   22.5600 C   0  0  0  0  0  0  0  0  0  0  0  0
  -21.2620   -6.7140   23.8040 C   0  0  0  0  0  3  0  0  0  0  0  0
  -21.1830   -5.8770   24.9360 C   0  0  0  0  0  3  0  0  0  0  0  0
  -21.4970   -4.5090   24.8240 C   0  0  0  0  0  0  0  0  0  0  0  0
  -21.8920   -3.9770   23.5850 C   0  0  0  0  0  3  0  0  0  0  0  0
  -21.9720   -4.8110   22.4560 C   0  0  0  0  0  0  0  0  0  0  0  0
  -22.3340   -4.2870   21.2600 F   0  0  0  0  0  0  0  0  0  0  0  0
  -21.4140   -3.7020   25.9090 F   0  0  0  0  0  0  0  0  0  0  0  0
  -22.6790  -13.6030   21.0850 C   0  0  0  0  0  0  0  0  0  0  0  0
  -21.9430  -12.9000   21.9380 N   0  0  0  0  0  0  0  0  0  0  0  0
  -22.2360  -14.6210   20.5540 O   0  0  0  0  0  0  0  0  0  0  0  0
  -22.3130  -12.0800   22.3950 H   0  0  0  0  0  0  0  0  0  0  0  0
  -20.9970  -13.1920   22.1410 H   0  0  0  0  0  0  0  0  0  0  0  0
  -25.3120  -15.3030   20.3230 N   0  0  0  0  0  0  0  0  0  0  0  0
  -24.5490  -15.9620   20.4370 H   0  0  0  0  0  0  0  0  0  0  0  0
  -26.1870  -15.7470   20.0680 H   0  0  0  0  0  0  0  0  0  0  0  0
  -34.0060  -26.5370   17.0250 C   0  0  0  0  0  2  0  0  0  0  0  0
  -35.2590  -26.6070   17.9190 C   0  0  0  0  0  2  0  0  0  0  0  0
  -36.0200  -27.9500   17.8740 C   0  0  0  0  0  2  0  0  0  0  0  0
  -35.1590  -29.1570   18.2460 C   0  0  0  0  0  0  0  0  0  0  0  0
  -34.7690  -29.2540   19.5230 N   0  0  0  0  0  0  0  0  0  0  0  0
  -34.8480  -29.9820   17.3860 O   0  0  0  0  0  0  0  0  0  0  0  0
  -35.0990  -28.5480   20.1670 H   0  0  0  0  0  0  0  0  0  0  0  0
  -33.8280  -30.2440   20.0390 C   0  0  0  0  0  2  0  0  0  0  0  0
  -32.3720  -29.8690   19.7040 C   0  0  0  0  0  2  0  0  0  0  0  0
  -31.8950  -28.5790   20.3950 C   0  0  0  0  0  2  0  0  0  0  0  0
  -30.5240  -28.1090   19.8860 C   0  0  0  0  0  2  0  0  0  0  0  0
  -29.8810  -27.0600   20.8120 C   0  0  0  0  0  2  0  0  0  0  0  0
  -28.6770  -26.5290   20.2600 O   0  0  0  0  0  0  0  0  0  0  0  0
  -24.6930  -31.7150   23.1680 C   0  0  0  0  0  0  0  0  0  0  0  0
  -27.5230  -27.2840   20.2810 C   0  0  0  0  0  0  0  0  0  0  0  0
  -23.5620  -30.2710   21.5020 C   0  0  0  0  0  3  0  0  0  0  0  0
  -25.0870  -28.7200   20.1720 C   0  0  0  0  0  0  0  0  0  0  0  0
  -26.0810  -30.6640   21.3930 C   0  0  0  0  0  2  0  0  0  0  0  0
  -26.2060  -29.2800   20.7980 C   0  0  0  0  0  0  0  0  0  0  0  0
  -27.4170  -28.5680   20.8670 C   0  0  0  0  0  3  0  0  0  0  0  0
  -26.3840  -26.7260   19.6640 C   0  0  0  0  0  3  0  0  0  0  0  0
  -25.1670  -27.4340   19.6070 C   0  0  0  0  0  3  0  0  0  0  0  0
  -23.8320  -29.5600   20.1480 C   0  0  0  0  0  2  0  0  0  0  0  0
  -24.7940  -30.8990   22.0810 N   0  0  0  0  0  0  0  0  0  0  0  0
  -23.5910  -31.9870   23.6620 O   0  0  0  0  0  0  0  0  0  0  0  0
  -22.8850  -29.2630   22.4580 C   0  0  0  0  0  0  0  0  0  0  0  0
  -21.5630  -29.0850   22.2950 N   0  0  0  0  0  0  0  0  0  0  0  0
  -23.5440  -28.6430   23.2960 O   0  0  0  0  0  0  0  0  0  0  0  0
  -21.0950  -29.6360   21.5910 H   0  0  0  0  0  0  0  0  0  0  0  0
  -18.1680  -27.9380   22.7290 C   0  0  0  0  0  0  0  0  0  0  0  0
  -20.7220  -28.1600   23.0520 C   0  0  0  0  0  3  0  0  0  0  0  0
  -20.8170  -26.7260   22.4790 C   0  0  0  0  0  2  0  0  0  0  0  0
  -19.7300  -26.4180   21.4440 C   0  0  0  0  0  2  0  0  0  0  0  0
  -18.3390  -26.5840   22.0610 C   0  0  0  0  0  2  0  0  0  0  0  0
  -19.2880  -28.6850   23.1800 C   0  0  0  0  0  0  0  0  0  0  0  0
  -19.0760  -29.9540   23.7620 C   0  0  0  0  0  3  0  0  0  0  0  0
  -17.7770  -30.4750   23.8990 C   0  0  0  0  0  3  0  0  0  0  0  0
  -16.6700  -29.7250   23.4640 C   0  0  0  0  0  3  0  0  0  0  0  0
  -16.8660  -28.4590   22.8850 C   0  0  0  0  0  3  0  0  0  0  0  0
  -25.9520  -32.3650   23.8260 C   0  0  0  0  0  3  0  0  0  0  0  0
  -26.4530  -31.5930   25.1070 C   0  0  1  0  0  0  0  0  0  0  0  0
  -25.3400  -31.3300   26.1480 C   0  0  0  0  0  1  0  0  0  0  0  0
  -27.0680  -30.2300   24.7150 C   0  0  0  0  0  1  0  0  0  0  0  0
  -27.5740  -32.4010   25.8010 C   0  0  0  0  0  1  0  0  0  0  0  0
  -25.6110  -33.7540   24.1530 N   0  0  0  0  0  0  0  0  0  0  0  0
  -25.9450  -34.8150   23.4040 C   0  0  0  0  0  0  0  0  0  0  0  0
  -26.6430  -34.7270   22.3920 O   0  0  0  0  0  0  0  0  0  0  0  0
  -24.9920  -33.8960   24.9370 H   0  0  0  0  0  0  0  0  0  0  0  0
  -24.1900  -36.5720   23.0090 C   0  0  0  0  0  1  0  0  0  0  0  0
  -25.4190  -36.1920   23.8520 C   0  0  0  0  0  3  0  0  0  0  0  0
  -27.5170  -37.1120   24.7350 C   0  0  0  0  0  1  0  0  0  0  0  0
  -26.4330  -37.2650   23.7670 N   0  0  0  0  0  0  0  0  0  0  0  0
  -26.0060  -38.1760   23.9110 H   0  0  0  0  0  0  0  0  0  0  0  0
  1 56  1  0
  2  1  1  0
  3  5  2  0
  4  2  1  0
  4  3  1  0
  6  4  1  0
  7  3  1  0
  7  9  1  0
  8 10  2  0
  8 12  1  0
  9  8  1  0
 11  9  1  0
 12 14  1  0
 13 17  1  0
 14 13  1  0
 14 16  1  0
 15 13  2  0
 18 26  1  0
 19 24  1  0
 20 21  1  0
 20 19  1  0
 22 21  1  0
 22 31  1  0
 22 23  1  0
 24 18  1  0
 24 23  1  0
 25 18  2  0
 26 17  1  0
 26 27  1  0
 28 29  2  0
 29 48  1  0
 30 29  1  0
 30 33  1  0
 31 28  1  0
 31 32  1  0
 32 30  2  0
 33 34  1  0
 34 35  2  0
 36 39  1  0
 36 35  1  0
 37 36  2  0
 38 37  1  0
 38 33  2  0
 39 40  1  0
 40 41  1  0
 41 42  2  0
 43 42  1  0
 43 47  1  0
 44 43  2  0
 45 40  2  0
 45 44  1  0
 46 45  1  0
 48 49  1  0
 49 52  1  0
 49 51  1  0
 50 48  2  0
 53 54  1  0
 53 28  1  0
 55 53  1  0
 56 57  1  0
 58 57  1  0
 58 59  1  0
 59 60  1  0
 60 63  1  0
 60 62  1  0
 61 59  2  0
 64 63  1  0
 64 65  1  0
 66 65  1  0
 66 67  1  0
 68 70  1  0
 68 67  1  0
 69 80  2  0
 70 75  1  0
 71 79  1  0
 71 81  1  0
 72 74  1  0
 73 79  1  0
 74 75  2  0
 74 73  1  0
 76 70  2  0
 77 76  1  0
 77 72  2  0
 78 72  1  0
 78 71  1  0
 79 69  1  0
 81 83  2  0
 82 81  1  0
 84 82  1  0
 85 94  2  0
 85 90  1  0
 86 82  1  0
 86 90  1  0
 87 86  1  0
 88 89  1  0
 88 87  1  0
 89 85  1  0
 90 91  2  0
 91 92  1  0
 93 92  2  0
 94 93  1  0
 95 69  1  0
 95100  1  0
 95 96  1  0
 96 99  1  1
 96 97  1  0
 98 96  1  0
100103  1  0
101105  1  0
101100  1  0
102101  2  0
105104  1  0
107105  1  0
107108  1  0
107106  1  0
M  ISO  4  18 100  26 100  67 101  68 101
M  END
>  <TORSDO>  (6) 
F 32

>  <SCORE>  (6) 
-10.487

>  <name>  (6) 
7

>  <ligand_id>  (6) 
7

>  <original_smiles>  (6) 
[H]c1c([H])c([H])c2c(c1[H])C([H])([H])C([H])([H])C([H])([H])C2([H])N([H])C(=O)C1([H])N(C(=O)C([H])(N([H])C(=O)C([H])(N([H])C([H])([H])[H])C([H])([H])[H])C(C([H])([H])[H])(C([H])([H])[H])C([H])([H])[H])C([H])([H])c2c([H])c(OC([H])([H])C([H])([H])C([H])([H])C([H])([H])C([H])([H])N([H])C(=O)C([H])([H])C([H])([H])C([H])([H])C([H])([H])C([H])([H])N([H])C(=O)C([H])([H])N([H])C(=O)C([H])([H])N([H])C(=O)C([H])([H])N([H])C(=O)N3C([H])([H])C([H])([H])C([H])([H])C([H])(n4nc(-c5c([H])c([H])c(Oc6c([H])c([H])c(F)c([H])c6F)c([H])c5[H])c(C(=O)N([H])[H])c4N([H])[H])C3([H])[H])c([H])c([H])c2C1([H])[H]

>  <smiles>  (6) 
[H]c1c([H])c([H])c2c(c1[H])C([H])([H])C([H])([H])C([H])([H])C2([H])N([H])C(=O)C1([H])N(C(=O)C([H])(N([H])C(=O)C([H])(N([H])C([H])([H])[H])C([H])([H])[H])C(C([H])([H])[H])(C([H])([H])[H])C([H])([H])[H])C([H])([H])c2c([H])c(OC([H])([H])C([H])([H])C([H])([H])C([H])([H])C([H])([H])N([H])C(=O)C([H])([H])C([H])([H])C([H])([H])C([H])([H])C([H])([H])N([H])C(=O)C([H])([H])N([H])C(=O)C([H])([H])N([H])C(=O)C([H])([H])N([H])C(=O)N3C([H])([H])C([H])([H])C([H])([H])C([H])(n4nc(-c5c([H])c([H])c(Oc6c([H])c([H])c(F)c([H])c6F)c([H])c5[H])c(C(=O)N([H])[H])c4N([H])[H])C3([H])[H])c([H])c([H])c2C1([H])[H]

$$$$
8:0:0
     RDKit          3D

106113  0  0  1  0  0  0  0  0999 V2000
  -33.4930  -22.1920   20.1300 C   0  0  0  0  0  2  0  0  0  0  0  0
  -33.8810  -21.9160   22.5830 C   0  0  0  0  0  0  0  0  0  0  0  0
  -34.0420  -21.5260   21.3120 N   0  0  0  0  0  0  0  0  0  0  0  0
  -33.1520  -22.8530   22.9130 O   0  0  0  0  0  0  0  0  0  0  0  0
  -34.5920  -20.6900   21.1600 H   0  0  0  0  0  0  0  0  0  0  0  0
  -34.6730  -21.1530   23.6480 C   0  0  0  0  0  2  0  0  0  0  0  0
  -33.5330  -18.9800   23.9360 C   0  0  0  0  0  0  0  0  0  0  0  0
  -33.8370  -20.2040   24.3770 N   0  0  0  0  0  0  0  0  0  0  0  0
  -33.9020  -18.5770   22.8290 O   0  0  0  0  0  0  0  0  0  0  0  0
  -33.4950  -20.4870   25.2850 H   0  0  0  0  0  0  0  0  0  0  0  0
  -32.7380  -18.0700   24.8850 C   0  0  0  0  0  2  0  0  0  0  0  0
  -31.7460  -16.2760   23.4810 C   0  0  0  0  0  0  0  0  0  0  0  0
  -32.6500  -16.7110   24.3610 N   0  0  0  0  0  0  0  0  0  0  0  0
  -30.7700  -16.9420   23.1280 O   0  0  0  0  0  0  0  0  0  0  0  0
  -33.4260  -16.1000   24.5740 H   0  0  0  0  0  0  0  0  0  0  0  0
  -32.0010  -14.8810   22.9210 C   0  0  0  0  0  2  0  0  0  0  0  0
  -30.8700  -14.2120   20.8080 C   0  0  0  0  0  0  0  0  0  0  0  0
  -30.4000  -12.2860   19.3520 C   0  0  0  0  0  2  0  0  0  0  0  0
  -29.4600  -12.5390   18.1690 C   0  0  0  0  0  2  0  0  0  0  0  0
  -27.9950  -12.3750   18.6050 C   0  0  0  0  0  2  0  0  0  0  0  0
  -27.6620  -13.2040   19.8710 C   0  0  0  0  0  3  0  0  0  0  0  0
  -28.7010  -12.9670   20.9870 C   0  0  0  0  0  2  0  0  0  0  0  0
  -30.0510  -13.1990   20.4440 N   0  0  0  0  0  0  0  0  0  0  0  0
  -31.7390  -14.7010   20.0780 O   0  0  0  0  0  0  0  0  0  0  0  0
  -30.8860  -14.3660   22.1330 N   0  0  0  0  0  0  0  0  0  0  0  0
  -30.1550  -13.8970   22.6460 H   0  0  0  0  0  0  0  0  0  0  0  0
  -25.2590  -13.8160   20.5660 C   0  0  0  0  0  0  0  0  0  0  0  0
  -24.1840  -13.0440   20.9160 C   0  0  0  0  0  0  0  0  0  0  0  0
  -24.6390  -11.6910   20.8720 C   0  0  0  0  0  0  0  0  0  0  0  0
  -26.3030  -12.9330   20.3350 N   0  0  0  0  0  0  0  0  0  0  0  0
  -25.9320  -11.6490   20.5740 N   0  0  0  0  0  0  0  0  0  0  0  0
  -23.9050  -10.4300   21.0410 C   0  0  0  0  0  0  0  0  0  0  0  0
  -24.3600   -9.4220   21.9190 C   0  0  0  0  0  3  0  0  0  0  0  0
  -23.6290   -8.2250   22.0750 C   0  0  0  0  0  3  0  0  0  0  0  0
  -22.4270   -8.0290   21.3540 C   0  0  0  0  0  0  0  0  0  0  0  0
  -21.9910   -9.0250   20.4640 C   0  0  0  0  0  3  0  0  0  0  0  0
  -22.7230  -10.2140   20.3050 C   0  0  0  0  0  3  0  0  0  0  0  0
  -21.6630   -6.8890   21.4240 O   0  0  0  0  0  0  0  0  0  0  0  0
  -21.6840   -6.0740   22.5270 C   0  0  0  0  0  0  0  0  0  0  0  0
  -21.4030   -6.5640   23.8210 C   0  0  0  0  0  3  0  0  0  0  0  0
  -21.3650   -5.6790   24.9160 C   0  0  0  0  0  3  0  0  0  0  0  0
  -21.6030   -4.3060   24.7230 C   0  0  0  0  0  0  0  0  0  0  0  0
  -21.8820   -3.8150   23.4350 C   0  0  0  0  0  3  0  0  0  0  0  0
  -21.9200   -4.6960   22.3410 C   0  0  0  0  0  0  0  0  0  0  0  0
  -22.1660   -4.2150   21.0990 F   0  0  0  0  0  0  0  0  0  0  0  0
  -21.5620   -3.4540   25.7740 F   0  0  0  0  0  0  0  0  0  0  0  0
  -22.7870  -13.5240   21.1850 C   0  0  0  0  0  0  0  0  0  0  0  0
  -22.0490  -12.8230   22.0390 N   0  0  0  0  0  0  0  0  0  0  0  0
  -22.3560  -14.5560   20.6710 O   0  0  0  0  0  0  0  0  0  0  0  0
  -22.4100  -11.9870   22.4760 H   0  0  0  0  0  0  0  0  0  0  0  0
  -21.1130  -13.1260   22.2620 H   0  0  0  0  0  0  0  0  0  0  0  0
  -25.4330  -15.1880   20.4070 N   0  0  0  0  0  0  0  0  0  0  0  0
  -24.6740  -15.8500   20.5210 H   0  0  0  0  0  0  0  0  0  0  0  0
  -26.2950  -15.6200   20.0990 H   0  0  0  0  0  0  0  0  0  0  0  0
  -32.2800  -21.4560   19.5330 C   0  0  0  0  0  2  0  0  0  0  0  0
  -31.1750  -21.1660   20.5610 C   0  0  0  0  0  2  0  0  0  0  0  0
  -29.8760  -20.6370   19.9270 C   0  0  0  0  0  2  0  0  0  0  0  0
  -28.8170  -20.1890   20.9570 C   0  0  0  0  0  2  0  0  0  0  0  0
  -28.4550  -21.2520   22.0120 C   0  0  0  0  0  2  0  0  0  0  0  0
  -27.9820  -22.5090   21.4020 N   0  0  0  0  0  4  0  0  0  0  0  0
  -26.9860  -22.4470   21.2550 H   0  0  0  0  0  0  0  0  0  0  0  0
  -28.4260  -22.5920   20.5030 H   0  0  0  0  0  0  0  0  0  0  0  0
  -28.2910  -23.7080   22.2140 C   0  0  0  0  0  2  0  0  0  0  0  0
  -27.7740  -25.0150   21.5930 C   0  0  0  0  0  2  0  0  0  0  0  0
  -28.4460  -25.4030   20.2560 C   0  0  0  0  0  2  0  0  0  0  0  0
  -28.4490  -26.8130   20.0700 O   0  0  0  0  0  0  0  0  0  0  0  0
  -24.6140  -31.8680   23.2110 C   0  0  0  0  0  0  0  0  0  0  0  0
  -27.2480  -27.4790   20.0840 C   0  0  0  0  0  0  0  0  0  0  0  0
  -23.4000  -30.4910   21.5520 C   0  0  0  0  0  3  0  0  0  0  0  0
  -24.8480  -28.9550   20.1260 C   0  0  0  0  0  0  0  0  0  0  0  0
  -25.9250  -30.8470   21.3600 C   0  0  0  0  0  2  0  0  0  0  0  0
  -26.0050  -29.4820   20.7120 C   0  0  0  0  0  0  0  0  0  0  0  0
  -27.2060  -28.7500   20.6880 C   0  0  0  0  0  3  0  0  0  0  0  0
  -26.0740  -26.9470   19.5050 C   0  0  0  0  0  3  0  0  0  0  0  0
  -24.8740  -27.6830   19.5230 C   0  0  0  0  0  3  0  0  0  0  0  0
  -23.6100  -29.8200   20.1680 C   0  0  0  0  0  2  0  0  0  0  0  0
  -24.6650  -31.0810   22.1010 N   0  0  0  0  0  0  0  0  0  0  0  0
  -23.5340  -32.1430   23.7520 O   0  0  0  0  0  0  0  0  0  0  0  0
  -22.7430  -29.4650   22.5020 C   0  0  0  0  0  0  0  0  0  0  0  0
  -21.4160  -29.3020   22.3760 N   0  0  0  0  0  0  0  0  0  0  0  0
  -23.4220  -28.8200   23.3030 O   0  0  0  0  0  0  0  0  0  0  0  0
  -20.9330  -29.8790   21.7040 H   0  0  0  0  0  0  0  0  0  0  0  0
  -18.0260  -28.1370   22.8490 C   0  0  0  0  0  0  0  0  0  0  0  0
  -20.5860  -28.3640   23.1330 C   0  0  0  0  0  3  0  0  0  0  0  0
  -20.6750  -26.9370   22.5440 C   0  0  0  0  0  2  0  0  0  0  0  0
  -19.5720  -26.6370   21.5230 C   0  0  0  0  0  2  0  0  0  0  0  0
  -18.1880  -26.7920   22.1630 C   0  0  0  0  0  2  0  0  0  0  0  0
  -19.1510  -28.8820   23.2890 C   0  0  0  0  0  0  0  0  0  0  0  0
  -18.9450  -30.1430   23.8900 C   0  0  0  0  0  3  0  0  0  0  0  0
  -17.6450  -30.6560   24.0580 C   0  0  0  0  0  3  0  0  0  0  0  0
  -16.5340  -29.9070   23.6350 C   0  0  0  0  0  3  0  0  0  0  0  0
  -16.7260  -28.6510   23.0340 C   0  0  0  0  0  3  0  0  0  0  0  0
  -25.9030  -32.4830   23.8410 C   0  0  0  0  0  3  0  0  0  0  0  0
  -26.4460  -31.6620   25.0760 C   0  0  1  0  0  0  0  0  0  0  0  0
  -25.3710  -31.3630   26.1500 C   0  0  0  0  0  1  0  0  0  0  0  0
  -27.0320  -30.3100   24.6080 C   0  0  0  0  0  1  0  0  0  0  0  0
  -27.6100  -32.4300   25.7500 C   0  0  0  0  0  1  0  0  0  0  0  0
  -25.5890  -33.8630   24.2350 N   0  0  0  0  0  0  0  0  0  0  0  0
  -25.9030  -34.9470   23.5140 C   0  0  0  0  0  0  0  0  0  0  0  0
  -26.5600  -34.8900   22.4700 O   0  0  0  0  0  0  0  0  0  0  0  0
  -25.0050  -33.9810   25.0500 H   0  0  0  0  0  0  0  0  0  0  0  0
  -24.1480  -36.7330   23.2630 C   0  0  0  0  0  1  0  0  0  0  0  0
  -25.4100  -36.3130   24.0340 C   0  0  0  0  0  3  0  0  0  0  0  0
  -27.5560  -37.1790   24.8440 C   0  0  0  0  0  1  0  0  0  0  0  0
  -26.4280  -37.3800   23.9410 N   0  0  0  0  0  0  0  0  0  0  0  0
  -26.0190  -38.2880   24.1490 H   0  0  0  0  0  0  0  0  0  0  0  0
  1  3  1  0
  2  4  2  0
  2  6  1  0
  3  2  1  0
  5  3  1  0
  6  8  1  0
  7  8  1  0
  7 11  1  0
  8 10  1  0
  9  7  2  0
 12 13  1  0
 13 15  1  0
 13 11  1  0
 14 12  2  0
 16 12  1  0
 17 25  1  0
 18 23  1  0
 19 20  1  0
 19 18  1  0
 21 20  1  0
 21 30  1  0
 21 22  1  0
 23 17  1  0
 23 22  1  0
 24 17  2  0
 25 26  1  0
 25 16  1  0
 27 28  2  0
 28 47  1  0
 29 28  1  0
 29 32  1  0
 30 27  1  0
 30 31  1  0
 31 29  2  0
 32 33  1  0
 33 34  2  0
 35 38  1  0
 35 34  1  0
 36 35  2  0
 37 36  1  0
 37 32  2  0
 38 39  1  0
 39 40  1  0
 40 41  2  0
 42 41  1  0
 42 46  1  0
 43 42  2  0
 44 39  2  0
 44 43  1  0
 45 44  1  0
 47 48  1  0
 48 51  1  0
 48 50  1  0
 49 47  2  0
 52 53  1  0
 52 27  1  0
 54 52  1  0
 55  1  1  0
 55 56  1  0
 57 56  1  0
 57 58  1  0
 58 59  1  0
 60 59  1  0
 60 63  1  0
 61 60  1  0
 62 60  1  0
 64 63  1  0
 65 64  1  0
 66 68  1  0
 66 65  1  0
 67 78  2  0
 68 73  1  0
 69 77  1  0
 69 79  1  0
 70 76  1  0
 70 72  1  0
 71 77  1  0
 72 71  1  0
 73 72  2  0
 74 75  1  0
 74 68  2  0
 75 70  2  0
 76 69  1  0
 77 67  1  0
 79 81  2  0
 80 79  1  0
 82 80  1  0
 83 92  2  0
 83 88  1  0
 84 80  1  0
 84 88  1  0
 85 84  1  0
 86 87  1  0
 86 85  1  0
 87 83  1  0
 88 89  2  0
 89 90  1  0
 91 90  2  0
 92 91  1  0
 93 67  1  0
 93 98  1  0
 93 94  1  0
 94 97  1  1
 94 95  1  0
 96 94  1  0
 98101  1  0
 99103  1  0
 99 98  1  0
100 99  2  0
103102  1  0
105103  1  0
105106  1  0
105104  1  0
M  ISO  4  17 100  25 100  65 101  66 101
M  END
>  <TORSDO>  (7) 
F 31

>  <SCORE>  (7) 
13.735

>  <name>  (7) 
8

>  <ligand_id>  (7) 
8

>  <original_smiles>  (7) 
[H]c1c([H])c([H])c2c(c1[H])C([H])([H])C([H])([H])C([H])([H])C2([H])N([H])C(=O)C1([H])N(C(=O)C([H])(N([H])C(=O)C([H])(N([H])C([H])([H])[H])C([H])([H])[H])C(C([H])([H])[H])(C([H])([H])[H])C([H])([H])[H])C([H])([H])c2c([H])c(OC([H])([H])C([H])([H])C([H])([H])[N+]([H])([H])C([H])([H])C([H])([H])C([H])([H])C([H])([H])C([H])([H])C([H])([H])N([H])C(=O)C([H])([H])N([H])C(=O)C([H])([H])N([H])C(=O)C([H])([H])N([H])C(=O)N3C([H])([H])C([H])([H])C([H])([H])C([H])(n4nc(-c5c([H])c([H])c(Oc6c([H])c([H])c(F)c([H])c6F)c([H])c5[H])c(C(=O)N([H])[H])c4N([H])[H])C3([H])[H])c([H])c([H])c2C1([H])[H]

>  <smiles>  (7) 
[H]c1c([H])c([H])c2c(c1[H])C([H])([H])C([H])([H])C([H])([H])C2([H])N([H])C(=O)C1([H])N(C(=O)C([H])(N([H])C(=O)C([H])(N([H])C([H])([H])[H])C([H])([H])[H])C(C([H])([H])[H])(C([H])([H])[H])C([H])([H])[H])C([H])([H])c2c([H])c(OC([H])([H])C([H])([H])C([H])([H])[N+]([H])([H])C([H])([H])C([H])([H])C([H])([H])C([H])([H])C([H])([H])C([H])([H])N([H])C(=O)C([H])([H])N([H])C(=O)C([H])([H])N([H])C(=O)C([H])([H])N([H])C(=O)N3C([H])([H])C([H])([H])C([H])([H])C([H])(n4nc(-c5c([H])c([H])c(Oc6c([H])c([H])c(F)c([H])c6F)c([H])c5[H])c(C(=O)N([H])[H])c4N([H])[H])C3([H])[H])c([H])c([H])c2C1([H])[H]

$$$$
9:0:0
     RDKit          3D

104105  0  0  1  0  0  0  0  0999 V2000
  -29.3840  -14.5360   21.8830 C   0  0  0  0  0  0  0  0  0  0  0  0
  -28.8600  -15.8110   21.4580 N   0  0  0  0  0  0  0  0  0  0  0  0
  -30.1570  -14.5770   22.8390 O   0  0  0  0  0  0  0  0  0  0  0  0
  -28.0770  -15.6810   20.8300 H   0  0  0  0  0  0  0  0  0  0  0  0
  -29.2120  -12.9560   21.1810 C   0  0  0  0  0  2  0  0  0  0  0  0
  -30.7360  -12.5420   17.9810 C   0  0  0  0  0  2  0  0  0  0  0  0
  -29.8520  -12.2100   19.7940 N   0  0  0  0  0  0  0  0  0  0  0  0
  -30.8050  -11.8000   16.9730 O   0  0  0  0  0  1  0  0  0  0  0  0
  -29.5670  -11.2400   19.8040 H   0  0  0  0  0  0  0  0  0  0  0  0
  -31.6420  -13.7020   17.2440 C   0  0  0  0  0  2  0  0  0  0  0  0
  -31.9750  -16.1900   16.7360 C   0  0  0  0  0  0  0  0  0  0  0  0
  -31.9280  -15.1360   17.5500 N   0  0  0  0  0  0  0  0  0  0  0  0
  -31.9240  -16.0420   15.5150 O   0  0  0  0  0  0  0  0  0  0  0  0
  -32.0250  -15.3660   18.5230 H   0  0  0  0  0  0  0  0  0  0  0  0
  -32.0510  -17.5140   17.3650 C   0  0  0  0  0  3  0  0  0  0  0  0
  -32.3570  -17.9210   18.6310 C   0  0  0  0  0  3  0  0  0  0  0  0
  -32.7310  -17.1980   19.9200 C   0  0  0  0  0  2  0  0  0  0  0  0
  -32.2110  -14.8550   20.4400 C   0  0  0  0  0  0  0  0  0  0  0  0
  -31.9780  -12.1700   19.9690 C   0  0  0  0  0 15  0  0  0  0  0  0
  -30.7040  -10.5790   19.3260 C   0  0  0  0  0  1  0  0  0  0  0  0
  -28.6410  -10.9820   18.8380 C   0  0  0  0  0 15  0  0  0  0  0  0
  -27.9690  -13.0280   18.9240 C   0  0  0  0  0  1  0  0  0  0  0  0
  -29.4030  -14.5820   19.5120 C   0  0  0  0  0 15  0  0  0  0  0  0
  -31.3040  -14.0250   20.0850 N   0  0  0  0  0  1  0  0  0  0  0  0
  -33.3540  -14.4780   20.5230 O   0  0  0  0  0  0  0  0  0  0  0  0
  -31.8290  -16.1140   20.2520 N   0  0  0  0  0  0  0  0  0  0  0  0
  -30.8390  -16.2800   20.1220 H   0  0  0  0  0  0  0  0  0  0  0  0
  -26.0910  -14.0340   20.0650 C   0  0  0  0  0  3  0  0  0  0  0  0
  -24.9180  -13.4300   20.4070 C   0  0  0  0  0  0  0  0  0  0  0  0
  -25.1730  -12.0300   20.5100 C   0  0  0  0  0  0  0  0  0  0  0  0
  -26.8970  -12.9860   19.8260 N   0  0  0  0  0  0  0  0  0  0  0  0
  -26.4350  -11.7970   20.2630 N   0  0  0  0  0  2  0  0  0  0  0  0
  -24.2880  -10.8800   20.6820 C   0  0  0  0  0  0  0  0  0  0  0  0
  -24.5860   -9.8430   21.5900 C   0  0  0  0  0  3  0  0  0  0  0  0
  -23.6860   -8.7690   21.7610 C   0  0  0  0  0  3  0  0  0  0  0  0
  -22.4790   -8.7310   21.0220 C   0  0  0  0  0  0  0  0  0  0  0  0
  -22.2130   -9.7460   20.0860 C   0  0  0  0  0  3  0  0  0  0  0  0
  -23.1130  -10.8080   19.9120 C   0  0  0  0  0  3  0  0  0  0  0  0
  -21.5400   -7.7320   21.1220 O   0  0  0  0  0  0  0  0  0  0  0  0
  -21.4660   -6.9200   22.2240 C   0  0  0  0  0  0  0  0  0  0  0  0
  -21.2890   -7.4340   23.5260 C   0  0  0  0  0  3  0  0  0  0  0  0
  -21.1500   -6.5540   24.6190 C   0  0  0  0  0  3  0  0  0  0  0  0
  -21.1820   -5.1630   24.4110 C   0  0  0  0  0  0  0  0  0  0  0  0
  -21.3510   -4.6470   23.1150 C   0  0  0  0  0  3  0  0  0  0  0  0
  -21.4880   -5.5250   22.0240 C   0  0  0  0  0  0  0  0  0  0  0  0
  -21.6260   -5.0240   20.7730 F   0  0  0  0  0  0  0  0  0  0  0  0
  -21.0530   -4.3160   25.4610 F   0  0  0  0  0  0  0  0  0  0  0  0
  -23.5980  -14.1020   20.4280 C   0  0  0  0  0  0  0  0  0  0  0  0
  -22.7010  -13.6010   21.2660 N   0  0  0  0  0  0  0  0  0  0  0  0
  -23.3730  -15.0870   19.7280 O   0  0  0  0  0  0  0  0  0  0  0  0
  -22.9250  -12.8170   21.8610 H   0  0  0  0  0  0  0  0  0  0  0  0
  -21.7820  -14.0170   21.3300 H   0  0  0  0  0  0  0  0  0  0  0  0
  -26.5290  -15.3250   19.7980 N   0  0  0  0  0  0  0  0  0  0  0  0
  -25.9360  -16.1370   19.9280 H   0  0  0  0  0  0  0  0  0  0  0  0
  -27.4550  -15.5660   19.4670 H   0  0  0  0  0  0  0  0  0  0  0  0
  -29.3190  -17.3490   21.5570 C   0  0  0  0  0  3  0  0  0  0  0  0
  -29.0120  -18.5900   20.4100 C   0  0  0  0  0  3  0  0  0  0  0  0
  -29.2890  -20.2750   20.6170 C   0  0  0  0  0  2  0  0  0  0  0  0
  -28.9240  -21.4430   19.5710 N   0  0  0  0  0  4  0  0  0  0  0  0
  -29.3200  -21.1590   18.6900 H   0  0  0  0  0  0  0  0  0  0  0  0
  -27.9280  -21.3880   19.4470 H   0  0  0  0  0  0  0  0  0  0  0  0
  -29.2530  -23.0130   19.7640 C   0  0  0  0  0  3  0  0  0  0  0  0
  -28.4550  -24.3210   18.9660 C   0  0  0  0  0  3  0  0  0  0  0  0
  -28.6390  -25.9040   19.0640 O   0  0  0  0  0  0  0  0  0  0  0  0
  -24.7930  -30.9000   22.7820 C   0  0  0  0  0  0  0  0  0  0  0  0
  -27.5380  -26.8530   19.0550 C   0  0  0  0  0  0  0  0  0  0  0  0
  -23.6080  -29.5930   21.0650 C   0  0  0  0  0  3  0  0  0  0  0  0
  -25.0830  -28.4000   19.3250 C   0  0  0  0  0  0  0  0  0  0  0  0
  -26.0970  -30.1590   20.7510 C   0  0  0  0  0  2  0  0  0  0  0  0
  -26.2570  -28.8720   19.9280 C   0  0  0  0  0  0  0  0  0  0  0  0
  -27.4850  -28.1230   19.7630 C   0  0  0  0  0  3  0  0  0  0  0  0
  -26.3420  -26.5140   18.3710 C   0  0  0  0  0  3  0  0  0  0  0  0
  -25.1480  -27.2590   18.5100 C   0  0  0  0  0  3  0  0  0  0  0  0
  -23.7640  -29.1240   19.5920 C   0  0  0  0  0  2  0  0  0  0  0  0
  -24.8580  -30.2330   21.5910 N   0  0  0  0  0  0  0  0  0  0  0  0
  -23.7330  -30.9780   23.4210 O   0  0  0  0  0  0  0  0  0  0  0  0
  -23.1470  -28.3920   21.9200 C   0  0  0  0  0  0  0  0  0  0  0  0
  -21.8510  -28.0430   21.8310 N   0  0  0  0  0  0  0  0  0  0  0  0
  -23.9490  -27.7880   22.6340 O   0  0  0  0  0  0  0  0  0  0  0  0
  -21.2520  -28.5770   21.2160 H   0  0  0  0  0  0  0  0  0  0  0  0
  -18.7520  -26.2270   22.2540 C   0  0  0  0  0  0  0  0  0  0  0  0
  -21.2280  -26.9140   22.5240 C   0  0  0  0  0  3  0  0  0  0  0  0
  -21.5690  -25.5770   21.8260 C   0  0  0  0  0  2  0  0  0  0  0  0
  -20.5200  -25.1550   20.7920 C   0  0  0  0  0  2  0  0  0  0  0  0
  -19.1490  -24.9960   21.4560 C   0  0  0  0  0  2  0  0  0  0  0  0
  -19.7280  -27.1340   22.7430 C   0  0  0  0  0  0  0  0  0  0  0  0
  -19.3110  -28.2790   23.4530 C   0  0  0  0  0  3  0  0  0  0  0  0
  -17.9440  -28.5250   23.6810 C   0  0  0  0  0  3  0  0  0  0  0  0
  -16.9790  -27.6160   23.2100 C   0  0  0  0  0  3  0  0  0  0  0  0
  -17.3840  -26.4690   22.5020 C   0  0  0  0  0  3  0  0  0  0  0  0
  -26.0340  -31.6190   23.3950 C   0  0  0  0  0  3  0  0  0  0  0  0
  -25.6000  -32.9420   23.8730 N   0  0  0  0  0  0  0  0  0  0  0  0
  -25.8530  -34.1050   23.2590 C   0  0  0  0  0  0  0  0  0  0  0  0
  -26.5410  -34.1810   22.2380 O   0  0  0  0  0  0  0  0  0  0  0  0
  -24.9850  -32.9440   24.6740 H   0  0  0  0  0  0  0  0  0  0  0  0
  -24.0090  -35.8050   23.0560 C   0  0  0  0  0  1  0  0  0  0  0  0
  -25.2460  -35.3850   23.8680 C   0  0  0  0  0  3  0  0  0  0  0  0
  -27.2800  -36.2960   24.9020 C   0  0  0  0  0  1  0  0  0  0  0  0
  -26.2000  -36.5130   23.9400 N   0  0  0  0  0  0  0  0  0  0  0  0
  -25.7250  -37.3760   24.1870 H   0  0  0  0  0  0  0  0  0  0  0  0
  -26.6980  -30.8020   24.5710 C   0  0  1  0  0  0  0  0  0  0  0  0
  -25.6990  -30.3700   25.6690 C   0  0  0  0  0  1  0  0  0  0  0  0
  -27.3780  -29.5230   24.0350 C   0  0  0  0  0  1  0  0  0  0  0  0
  -27.8090  -31.6420   25.2430 C   0  0  0  0  0  1  0  0  0  0  0  0
  1  3  2  0
  2 56  1  0
  2  1  1  0
  4  2  1  0
  5  1  1  0
  7  9  1  0
  7  5  1  0
  8  6  1  0
 10 12  1  0
 10  6  1  0
 11 15  1  0
 11 12  1  0
 12 14  1  0
 13 11  2  0
 15 16  2  0
 16 17  1  0
 17 26  1  0
 18 25  2  0
 20  7  1  0
 22 31  1  0
 24 18  1  0
 26 18  1  0
 27 26  1  0
 28 53  1  0
 28 29  1  0
 29 48  1  0
 29 30  2  0
 30 33  1  0
 31 28  1  0
 31 32  1  0
 32 30  1  0
 33 34  1  0
 34 35  2  0
 36 39  1  0
 36 35  1  0
 37 36  2  0
 38 37  1  0
 38 33  2  0
 39 40  1  0
 40 41  1  0
 41 42  2  0
 43 42  1  0
 43 47  1  0
 44 43  2  0
 45 40  2  0
 45 44  1  0
 46 45  1  0
 48 49  1  0
 49 52  1  0
 49 51  1  0
 50 48  2  0
 53 54  1  0
 55 53  1  0
 57 58  1  0
 57 56  2  0
 59 62  1  0
 59 58  1  0
 60 59  1  0
 61 59  1  0
 63 64  1  0
 63 62  2  0
 65 76  2  0
 66 64  1  0
 66 71  1  0
 67 75  1  0
 67 77  1  0
 68 74  1  0
 68 70  1  0
 69 75  1  0
 70 69  1  0
 71 70  2  0
 72 73  1  0
 72 66  2  0
 73 68  2  0
 74 67  1  0
 75 65  1  0
 77 79  2  0
 78 77  1  0
 80 78  1  0
 81 90  2  0
 81 86  1  0
 82 78  1  0
 82 86  1  0
 83 82  1  0
 84 85  1  0
 84 83  1  0
 85 81  1  0
 86 87  2  0
 87 88  1  0
 89 88  2  0
 90 89  1  0
 91 65  1  0
 91 92  1  0
 91101  1  0
 92 95  1  0
 93 97  1  0
 93 92  1  0
 94 93  2  0
 97 96  1  0
 97 99  1  0
 99100  1  0
 99 98  1  0
101104  1  1
101102  1  0
103101  1  0
M  ISO  4  18 100  26 100  63 101  64 101
M  END
>  <TORSDO>  (8) 
F 28

>  <SCORE>  (8) 
-6.987

>  <name>  (8) 
9

>  <ligand_id>  (8) 
9

>  <original_smiles>  (8) 
[H]C(C(=O)N([H])C([H])([H])C(=O)N([H])C([H])([H])C(=O)N([H])C([H])([H])C([H])([H])C([H])([H])[N+]([H])([H])C([H])([H])C([H])([H])Oc1c([H])c([H])c2c(c1[H])C([H])([H])N(C(=O)C([H])(N([H])C(=O)C([H])(N([H])C([H])([H])[H])C([H])([H])[H])C(C([H])([H])[H])(C([H])([H])[H])C([H])([H])[H])C([H])(C(=O)N([H])C1([H])c3c([H])c([H])c([H])c([H])c3C([H])([H])C([H])([H])C1([H])[H])C2([H])[H])=C([H])C([H])([H])N([H])C(=O)N1C([H])([H])C([H])([H])C([H])([H])C([H])(n2nc(-c3c([H])c([H])c(Oc4c([H])c([H])c(F)c([H])c4F)c([H])c3[H])c(C(=O)N([H])[H])c2N([H])[H])C1([H])[H]

>  <smiles>  (8) 
[H]C(C(=O)N([H])C([H])([H])C(=O)N([H])C([H])([H])C(=O)N([H])C([H])([H])C([H])([H])C([H])([H])[N+]([H])([H])C([H])([H])C([H])([H])Oc1c([H])c([H])c2c(c1[H])C([H])([H])N(C(=O)C([H])(N([H])C(=O)C([H])(N([H])C([H])([H])[H])C([H])([H])[H])C(C([H])([H])[H])(C([H])([H])[H])C([H])([H])[H])C([H])(C(=O)N([H])C1([H])c3c([H])c([H])c([H])c([H])c3C([H])([H])C([H])([H])C1([H])[H])C2([H])[H])=C([H])C([H])([H])N([H])C(=O)N1C([H])([H])C([H])([H])C([H])([H])C([H])(n2nc(-c3c([H])c([H])c(Oc4c([H])c([H])c(F)c([H])c4F)c([H])c3[H])c(C(=O)N([H])[H])c2N([H])[H])C1([H])[H]

$$$$
10:0:0
     RDKit          3D

101108  0  0  1  0  0  0  0  0999 V2000
  -29.4860  -22.4570   14.5750 C   0  0  0  0  0  2  0  0  0  0  0  0
  -28.8320  -23.8480   14.6470 C   0  0  0  0  0  2  0  0  0  0  0  0
  -29.8500  -24.9850   14.8310 C   0  0  0  0  0  2  0  0  0  0  0  0
  -29.2120  -26.3470   15.1490 C   0  0  0  0  0  2  0  0  0  0  0  0
  -30.1970  -27.3100   15.8490 C   0  0  0  0  0  2  0  0  0  0  0  0
  -30.0470  -26.6940   18.2940 C   0  0  0  0  0  0  0  0  0  0  0  0
  -29.9000  -27.5470   17.2660 N   0  0  0  0  0  0  0  0  0  0  0  0
  -30.3970  -25.5220   18.1450 O   0  0  0  0  0  0  0  0  0  0  0  0
  -29.6310  -28.4920   17.5070 H   0  0  0  0  0  0  0  0  0  0  0  0
  -29.7880  -27.2410   19.7090 C   0  0  0  0  0  2  0  0  0  0  0  0
  -28.6410  -26.6050   20.2800 O   0  0  0  0  0  0  0  0  0  0  0  0
  -24.6100  -31.7130   23.2370 C   0  0  0  0  0  0  0  0  0  0  0  0
  -27.4780  -27.3360   20.2800 C   0  0  0  0  0  0  0  0  0  0  0  0
  -23.5040  -30.2920   21.5380 C   0  0  0  0  0  3  0  0  0  0  0  0
  -25.0470  -28.7640   20.2010 C   0  0  0  0  0  0  0  0  0  0  0  0
  -26.0270  -30.6890   21.4640 C   0  0  0  0  0  2  0  0  0  0  0  0
  -26.1640  -29.3170   20.8410 C   0  0  0  0  0  0  0  0  0  0  0  0
  -27.3830  -28.6080   20.8890 C   0  0  0  0  0  3  0  0  0  0  0  0
  -26.3380  -26.7720   19.6760 C   0  0  0  0  0  3  0  0  0  0  0  0
  -25.1230  -27.4830   19.6240 C   0  0  0  0  0  3  0  0  0  0  0  0
  -23.7910  -29.6070   20.1760 C   0  0  0  0  0  2  0  0  0  0  0  0
  -24.7290  -30.9120   22.1410 N   0  0  0  0  0  0  0  0  0  0  0  0
  -23.5000  -31.9760   23.7190 O   0  0  0  0  0  0  0  0  0  0  0  0
  -22.8150  -29.2690   22.4700 C   0  0  0  0  0  0  0  0  0  0  0  0
  -21.4990  -29.0870   22.2840 N   0  0  0  0  0  0  0  0  0  0  0  0
  -23.4650  -28.6410   23.3110 O   0  0  0  0  0  0  0  0  0  0  0  0
  -21.0380  -29.6470   21.5810 H   0  0  0  0  0  0  0  0  0  0  0  0
  -18.1020  -27.9160   22.6630 C   0  0  0  0  0  0  0  0  0  0  0  0
  -20.6520  -28.1460   23.0160 C   0  0  0  0  0  3  0  0  0  0  0  0
  -20.7600  -26.7230   22.4260 C   0  0  0  0  0  2  0  0  0  0  0  0
  -19.6870  -26.4230   21.3730 C   0  0  0  0  0  2  0  0  0  0  0  0
  -18.2860  -26.5750   21.9750 C   0  0  0  0  0  2  0  0  0  0  0  0
  -19.2140  -28.6620   23.1380 C   0  0  0  0  0  0  0  0  0  0  0  0
  -18.9890  -29.9210   23.7360 C   0  0  0  0  0  3  0  0  0  0  0  0
  -17.6850  -30.4330   23.8660 C   0  0  0  0  0  3  0  0  0  0  0  0
  -16.5870  -29.6850   23.4060 C   0  0  0  0  0  3  0  0  0  0  0  0
  -16.7960  -28.4280   22.8110 C   0  0  0  0  0  3  0  0  0  0  0  0
  -25.8580  -32.3580   23.9180 C   0  0  0  0  0  3  0  0  0  0  0  0
  -25.5300  -33.7610   24.2070 N   0  0  0  0  0  0  0  0  0  0  0  0
  -25.9000  -34.8000   23.4460 C   0  0  0  0  0  0  0  0  0  0  0  0
  -26.6260  -34.6790   22.4550 O   0  0  0  0  0  0  0  0  0  0  0  0
  -24.8920  -33.9290   24.9720 H   0  0  0  0  0  0  0  0  0  0  0  0
  -24.1920  -36.5820   22.9560 C   0  0  0  0  0  1  0  0  0  0  0  0
  -25.3830  -36.1950   23.8490 C   0  0  0  0  0  3  0  0  0  0  0  0
  -27.4590  -37.1050   24.7950 C   0  0  0  0  0  1  0  0  0  0  0  0
  -26.4180  -37.2490   23.7800 N   0  0  0  0  0  0  0  0  0  0  0  0
  -26.0020  -38.1700   23.8800 H   0  0  0  0  0  0  0  0  0  0  0  0
  -26.3070  -31.6070   25.2320 C   0  0  1  0  0  0  0  0  0  0  0  0
  -25.1570  -31.3800   26.2400 C   0  0  0  0  0  1  0  0  0  0  0  0
  -26.9150  -30.2260   24.8910 C   0  0  0  0  0  1  0  0  0  0  0  0
  -27.4130  -32.4170   25.9500 C   0  0  0  0  0  1  0  0  0  0  0  0
  -30.3840  -22.1360   15.7870 C   0  0  0  0  0  2  0  0  0  0  0  0
  -30.6270  -20.6300   15.9420 C   0  0  0  0  0  2  0  0  0  0  0  0
  -31.2450  -20.1020   18.2990 C   0  0  0  0  0  0  0  0  0  0  0  0
  -31.5690  -20.3130   17.0160 N   0  0  0  0  0  0  0  0  0  0  0  0
  -30.1210  -20.3280   18.7530 O   0  0  0  0  0  0  0  0  0  0  0  0
  -32.5300  -20.1460   16.7460 H   0  0  0  0  0  0  0  0  0  0  0  0
  -32.3580  -19.5490   19.2050 C   0  0  0  0  0  2  0  0  0  0  0  0
  -31.2020  -17.5330   20.1610 C   0  0  0  0  0  0  0  0  0  0  0  0
  -31.9070  -18.6670   20.2890 N   0  0  0  0  0  0  0  0  0  0  0  0
  -30.7270  -17.1630   19.0850 O   0  0  0  0  0  0  0  0  0  0  0  0
  -32.2070  -18.9280   21.2190 H   0  0  0  0  0  0  0  0  0  0  0  0
  -31.0240  -16.6850   21.4340 C   0  0  0  0  0  2  0  0  0  0  0  0
  -31.1300  -14.3750   20.4610 C   0  0  0  0  0  0  0  0  0  0  0  0
  -30.7340  -12.2900   19.2140 C   0  0  0  0  0  2  0  0  0  0  0  0
  -29.8010  -12.5740   18.0200 C   0  0  0  0  0  2  0  0  0  0  0  0
  -28.3200  -12.4730   18.4430 C   0  0  0  0  0  2  0  0  0  0  0  0
  -28.0120  -13.2860   19.7290 C   0  0  0  0  0  3  0  0  0  0  0  0
  -29.0590  -12.9800   20.8260 C   0  0  0  0  0  2  0  0  0  0  0  0
  -30.3980  -13.2490   20.2740 N   0  0  0  0  0  0  0  0  0  0  0  0
  -32.2340  -14.5590   19.9400 O   0  0  0  0  0  0  0  0  0  0  0  0
  -30.5310  -15.3230   21.1940 N   0  0  0  0  0  0  0  0  0  0  0  0
  -29.6230  -15.0960   21.5700 H   0  0  0  0  0  0  0  0  0  0  0  0
  -25.6280  -13.9690   20.4260 C   0  0  0  0  0  0  0  0  0  0  0  0
  -24.5370  -13.2260   20.7970 C   0  0  0  0  0  0  0  0  0  0  0  0
  -24.9580  -11.8620   20.7650 C   0  0  0  0  0  0  0  0  0  0  0  0
  -26.6470  -13.0550   20.2000 N   0  0  0  0  0  0  0  0  0  0  0  0
  -26.2460  -11.7840   20.4590 N   0  0  0  0  0  0  0  0  0  0  0  0
  -24.1950  -10.6220   20.9510 C   0  0  0  0  0  0  0  0  0  0  0  0
  -24.5860   -9.6500   21.8980 C   0  0  0  0  0  3  0  0  0  0  0  0
  -23.8280   -8.4730   22.0750 C   0  0  0  0  0  3  0  0  0  0  0  0
  -22.6620   -8.2590   21.3010 C   0  0  0  0  0  0  0  0  0  0  0  0
  -22.2900   -9.2180   20.3420 C   0  0  0  0  0  3  0  0  0  0  0  0
  -23.0480  -10.3860   20.1660 C   0  0  0  0  0  3  0  0  0  0  0  0
  -21.8730   -7.1360   21.3860 O   0  0  0  0  0  0  0  0  0  0  0  0
  -21.7730   -6.4130   22.5460 C   0  0  0  0  0  0  0  0  0  0  0  0
  -21.2950   -6.9880   23.7430 C   0  0  0  0  0  3  0  0  0  0  0  0
  -21.1440   -6.1910   24.8950 C   0  0  0  0  0  3  0  0  0  0  0  0
  -21.4580   -4.8200   24.8490 C   0  0  0  0  0  0  0  0  0  0  0  0
  -21.9290   -4.2430   23.6560 C   0  0  0  0  0  3  0  0  0  0  0  0
  -22.0840   -5.0380   22.5070 C   0  0  0  0  0  0  0  0  0  0  0  0
  -22.5170   -4.4740   21.3520 F   0  0  0  0  0  0  0  0  0  0  0  0
  -21.3060   -4.0520   25.9530 F   0  0  0  0  0  0  0  0  0  0  0  0
  -23.1520  -13.7430   21.0670 C   0  0  0  0  0  0  0  0  0  0  0  0
  -22.3980  -13.0690   21.9270 N   0  0  0  0  0  0  0  0  0  0  0  0
  -22.7480  -14.7820   20.5470 O   0  0  0  0  0  0  0  0  0  0  0  0
  -22.7330  -12.2260   22.3740 H   0  0  0  0  0  0  0  0  0  0  0  0
  -21.4680  -13.3990   22.1420 H   0  0  0  0  0  0  0  0  0  0  0  0
  -25.8360  -15.3320   20.2440 N   0  0  0  0  0  0  0  0  0  0  0  0
  -25.1000  -16.0200   20.3520 H   0  0  0  0  0  0  0  0  0  0  0  0
  -26.6980  -15.7330   19.8960 H   0  0  0  0  0  0  0  0  0  0  0  0
  1  2  1  0
  1 52  1  0
  2  3  1  0
  3  4  1  0
  4  5  1  0
  5  7  1  0
  6 10  1  0
  7  9  1  0
  7  6  1  0
  8  6  2  0
 10 11  1  0
 11 13  1  0
 12 23  2  0
 13 18  1  0
 14 22  1  0
 14 24  1  0
 15 17  1  0
 16 22  1  0
 17 18  2  0
 17 16  1  0
 19 13  2  0
 20 19  1  0
 20 15  2  0
 21 15  1  0
 21 14  1  0
 22 12  1  0
 24 26  2  0
 25 24  1  0
 27 25  1  0
 28 37  2  0
 28 33  1  0
 29 25  1  0
 29 33  1  0
 30 29  1  0
 31 32  1  0
 31 30  1  0
 32 28  1  0
 33 34  2  0
 34 35  1  0
 36 35  2  0
 37 36  1  0
 38 12  1  0
 38 39  1  0
 38 48  1  0
 39 42  1  0
 40 44  1  0
 40 39  1  0
 41 40  2  0
 44 43  1  0
 46 44  1  0
 46 47  1  0
 46 45  1  0
 48 51  1  1
 48 49  1  0
 50 48  1  0
 52 53  1  0
 53 55  1  0
 54 56  2  0
 54 58  1  0
 55 54  1  0
 57 55  1  0
 58 60  1  0
 59 60  1  0
 59 63  1  0
 60 62  1  0
 61 59  2  0
 64 72  1  0
 65 70  1  0
 66 67  1  0
 66 65  1  0
 68 67  1  0
 68 77  1  0
 68 69  1  0
 70 64  1  0
 70 69  1  0
 71 64  2  0
 72 63  1  0
 72 73  1  0
 74 75  2  0
 75 94  1  0
 76 75  1  0
 76 79  1  0
 77 74  1  0
 77 78  1  0
 78 76  2  0
 79 80  1  0
 80 81  2  0
 82 85  1  0
 82 81  1  0
 83 82  2  0
 84 83  1  0
 84 79  2  0
 85 86  1  0
 86 87  1  0
 87 88  2  0
 89 88  1  0
 89 93  1  0
 90 89  2  0
 91 86  2  0
 91 90  1  0
 92 91  1  0
 94 95  1  0
 95 98  1  0
 95 97  1  0
 96 94  2  0
 99100  1  0
 99 74  1  0
101 99  1  0
M  ISO  4  10 101  11 101  64 100  72 100
M  END
>  <TORSDO>  (9) 
F 28

>  <SCORE>  (9) 
-10.437

>  <name>  (9) 
10

>  <ligand_id>  (9) 
10

>  <original_smiles>  (9) 
[H]c1c([H])c([H])c2c(c1[H])C([H])([H])C([H])([H])C([H])([H])C2([H])N([H])C(=O)C1([H])N(C(=O)C([H])(N([H])C(=O)C([H])(N([H])C([H])([H])[H])C([H])([H])[H])C(C([H])([H])[H])(C([H])([H])[H])C([H])([H])[H])C([H])([H])c2c([H])c(OC([H])([H])C(=O)N([H])C([H])([H])C([H])([H])C([H])([H])C([H])([H])C([H])([H])C([H])([H])C([H])([H])N([H])C(=O)C([H])([H])N([H])C(=O)C([H])([H])N([H])C(=O)N3C([H])([H])C([H])([H])C([H])([H])C([H])(n4nc(-c5c([H])c([H])c(Oc6c([H])c([H])c(F)c([H])c6F)c([H])c5[H])c(C(=O)N([H])[H])c4N([H])[H])C3([H])[H])c([H])c([H])c2C1([H])[H]

>  <smiles>  (9) 
[H]c1c([H])c([H])c2c(c1[H])C([H])([H])C([H])([H])C([H])([H])C2([H])N([H])C(=O)C1([H])N(C(=O)C([H])(N([H])C(=O)C([H])(N([H])C([H])([H])[H])C([H])([H])[H])C(C([H])([H])[H])(C([H])([H])[H])C([H])([H])[H])C([H])([H])c2c([H])c(OC([H])([H])C(=O)N([H])C([H])([H])C([H])([H])C([H])([H])C([H])([H])C([H])([H])C([H])([H])C([H])([H])N([H])C(=O)C([H])([H])N([H])C(=O)C([H])([H])N([H])C(=O)N3C([H])([H])C([H])([H])C([H])([H])C([H])(n4nc(-c5c([H])c([H])c(Oc6c([H])c([H])c(F)c([H])c6F)c([H])c5[H])c(C(=O)N([H])[H])c4N([H])[H])C3([H])[H])c([H])c([H])c2C1([H])[H]

$$$$
11:0:0
     RDKit          3D

101104  0  0  1  0  0  0  0  0999 V2000
  -21.9220  -24.0370   22.4590 C   0  0  0  0  0  0  0  0  0  0  0  0
  -22.4060  -24.6820   23.6630 N   0  0  0  0  0  0  0  0  0  0  0  0
  -20.7110  -23.8680   22.3130 O   0  0  0  0  0  0  0  0  0  0  0  0
  -23.3910  -24.4740   23.7480 H   0  0  0  0  0  0  0  0  0  0  0  0
  -22.8420  -23.4350   21.1920 C   0  0  0  0  0  2  0  0  0  0  0  0
  -23.7220  -23.7320   18.5640 C   0  0  0  0  0  0  0  0  0  0  0  0
  -22.8040  -23.8850   19.6560 N   0  0  0  0  0  0  0  0  0  0  0  0
  -24.7810  -23.1460   18.7990 O   0  0  0  0  0  0  0  0  0  0  0  0
  -21.9430  -24.3590   19.4100 H   0  0  0  0  0  0  0  0  0  0  0  0
  -23.5410  -24.2580   16.9830 C   0  0  0  0  0  2  0  0  0  0  0  0
  -24.7500  -24.8520   14.5620 C   0  0  0  0  0  0  0  0  0  0  0  0
  -24.5460  -24.0770   15.7490 N   0  0  0  0  0  0  0  0  0  0  0  0
  -24.1240  -25.9060   14.4870 O   0  0  0  0  0  0  0  0  0  0  0  0
  -25.1260  -23.2500   15.8250 H   0  0  0  0  0  0  0  0  0  0  0  0
  -25.7900  -24.5850   13.2750 C   0  0  0  0  0  2  0  0  0  0  0  0
  -26.3520  -25.4400   10.5870 C   0  0  0  0  0  0  0  0  0  0  0  0
  -26.0570  -26.8760    8.4850 C   0  0  0  0  0  2  0  0  0  0  0  0
  -25.6560  -28.3180    8.9040 C   0  0  0  0  0  2  0  0  0  0  0  0
  -24.1650  -28.4140    9.2990 C   0  0  0  0  0  2  0  0  0  0  0  0
  -23.7320  -27.2290   10.1980 C   0  0  0  0  0  3  0  0  0  0  0  0
  -24.1450  -25.8960    9.5570 C   0  0  0  0  0  2  0  0  0  0  0  0
  -25.5970  -25.9260    9.5380 N   0  0  0  0  0  0  0  0  0  0  0  0
  -27.5860  -25.3880   10.4060 O   0  0  0  0  0  0  0  0  0  0  0  0
  -25.6220  -25.1570   11.7980 N   0  0  0  0  0  0  0  0  0  0  0  0
  -24.6440  -25.3400   11.6300 H   0  0  0  0  0  0  0  0  0  0  0  0
  -21.6970  -27.0990   11.7310 C   0  0  0  0  0  0  0  0  0  0  0  0
  -20.3590  -27.1910   11.4820 C   0  0  0  0  0  0  0  0  0  0  0  0
  -20.2400  -27.3630   10.0700 C   0  0  0  0  0  0  0  0  0  0  0  0
  -22.3190  -27.2220   10.5040 N   0  0  0  0  0  0  0  0  0  0  0  0
  -21.4300  -27.3160    9.4890 N   0  0  0  0  0  0  0  0  0  0  0  0
  -19.0660  -27.6340    9.2430 C   0  0  0  0  0  0  0  0  0  0  0  0
  -18.7510  -26.8320    8.1260 C   0  0  0  0  0  3  0  0  0  0  0  0
  -17.6040  -27.1100    7.3530 C   0  0  0  0  0  3  0  0  0  0  0  0
  -16.7630  -28.1930    7.6990 C   0  0  0  0  0  0  0  0  0  0  0  0
  -17.0970  -29.0020    8.8010 C   0  0  0  0  0  3  0  0  0  0  0  0
  -18.2410  -28.7270    9.5650 C   0  0  0  0  0  3  0  0  0  0  0  0
  -15.6410  -28.5530    6.9930 O   0  0  0  0  0  0  0  0  0  0  0  0
  -14.9420  -27.6400    6.2470 C   0  0  0  0  0  0  0  0  0  0  0  0
  -14.3940  -26.4710    6.8190 C   0  0  0  0  0  3  0  0  0  0  0  0
  -13.6210  -25.5970    6.0300 C   0  0  0  0  0  3  0  0  0  0  0  0
  -13.3890  -25.8940    4.6730 C   0  0  0  0  0  0  0  0  0  0  0  0
  -13.9300  -27.0590    4.1030 C   0  0  0  0  0  3  0  0  0  0  0  0
  -14.7020  -27.9320    4.8890 C   0  0  0  0  0  0  0  0  0  0  0  0
  -15.2040  -29.0650    4.3430 F   0  0  0  0  0  0  0  0  0  0  0  0
  -12.6400  -25.0600    3.9160 F   0  0  0  0  0  0  0  0  0  0  0  0
  -19.2660  -27.2200   12.5060 C   0  0  0  0  0  0  0  0  0  0  0  0
  -18.0970  -26.6880   12.1680 N   0  0  0  0  0  0  0  0  0  0  0  0
  -19.4570  -27.6730   13.6350 O   0  0  0  0  0  0  0  0  0  0  0  0
  -17.9480  -26.2980   11.2480 H   0  0  0  0  0  0  0  0  0  0  0  0
  -17.3410  -26.6690   12.8380 H   0  0  0  0  0  0  0  0  0  0  0  0
  -22.4190  -26.9450   12.9040 N   0  0  0  0  0  0  0  0  0  0  0  0
  -21.9520  -26.8880   13.8000 H   0  0  0  0  0  0  0  0  0  0  0  0
  -23.4270  -26.9230   13.0180 H   0  0  0  0  0  0  0  0  0  0  0  0
  -22.0490  -25.9630   24.7040 C   0  0  0  0  0  1  0  0  0  0  0  0
  -22.8220  -28.7140   24.3160 C   0  0  0  0  0  1  0  0  0  0  0  0
  -23.9520  -29.2590   23.0860 N   0  0  0  0  0  4  0  0  0  0  0  0
  -23.4280  -30.0420   22.7240 H   0  0  0  0  0  0  0  0  0  0  0  0
  -23.8430  -28.5470   22.3770 H   0  0  0  0  0  0  0  0  0  0  0  0
  -25.5340  -29.8340   22.8210 C   0  0  0  0  0  3  0  0  0  0  0  0
  -27.2000  -29.2470   22.3050 C   0  0  0  0  0  3  0  0  0  0  0  0
  -28.8050  -29.8770   22.2550 O   0  0  0  0  0  0  0  0  0  0  0  0
  -28.4980  -32.5890   28.4230 C   0  0  0  0  0  0  0  0  0  0  0  0
  -29.8370  -29.8440   23.2110 C   0  0  0  0  0  3  0  0  0  0  0  0
  -26.9740  -31.8390   26.7770 C   0  0  0  0  0  3  0  0  0  0  0  0
  -27.9680  -30.9860   24.7290 C   0  0  0  0  0  3  0  0  0  0  0  0
  -29.3520  -32.5250   26.0120 C   0  0  0  0  0  2  0  0  0  0  0  0
  -29.2020  -31.5750   24.8200 C   0  0  0  0  0  0  0  0  0  0  0  0
  -30.2120  -30.9990   23.9990 C   0  0  0  0  0  3  0  0  0  0  0  0
  -29.1740  -28.9790   23.9940 C   0  0  0  0  0  2  0  0  0  0  0  0
  -28.1270  -29.5930   24.7000 C   0  0  0  0  0  2  0  0  0  0  0  0
  -26.7970  -31.7430   25.3020 C   0  0  0  0  0  2  0  0  0  0  0  0
  -28.3250  -32.3210   27.1070 N   0  0  0  0  0  0  0  0  0  0  0  0
  -27.5650  -32.5190   29.2440 O   0  0  0  0  0  0  0  0  0  0  0  0
  -26.6940  -30.4490   27.3620 C   0  0  0  0  0  0  0  0  0  0  0  0
  -25.9330  -30.4590   28.4090 N   0  0  0  0  0  0  0  0  0  0  0  0
  -27.0730  -29.3980   26.8530 O   0  0  0  0  0  0  0  0  0  0  0  0
  -25.7280  -31.3360   28.8670 H   0  0  0  0  0  0  0  0  0  0  0  0
  -25.1100  -28.8730   31.7910 C   0  0  0  0  0  0  0  0  0  0  0  0
  -25.2370  -29.2920   28.8270 C   0  0  0  0  0  2  0  0  0  0  0  0
  -23.2340  -29.4160   28.5280 C   0  0  0  0  0 15  0  0  0  0  0  0
  -22.1390  -29.2170   30.3690 C   0  0  0  0  0 15  0  0  0  0  0  0
  -23.3060  -28.9370   31.9550 C   0  0  0  0  0  1  0  0  0  0  0  0
  -25.9260  -29.0510   30.4720 C   0  0  0  0  0  0  0  0  0  0  0  0
  -27.3520  -29.0520   30.5820 C   0  0  0  0  0  3  0  0  0  0  0  0
  -28.0430  -28.8650   31.8010 C   0  0  0  0  0  3  0  0  0  0  0  0
  -27.3180  -28.6180   32.9760 C   0  0  0  0  0  3  0  0  0  0  0  0
  -25.8990  -28.6110   32.9600 C   0  0  0  0  0  3  0  0  0  0  0  0
  -29.8790  -33.0050   28.9490 C   0  0  0  0  0  3  0  0  0  0  0  0
  -30.6160  -31.8280   29.6840 C   0  0  1  0  0  0  0  0  0  0  0  0
  -29.7890  -31.1610   30.8100 C   0  0  0  0  0  1  0  0  0  0  0  0
  -31.0170  -30.7280   28.6710 C   0  0  0  0  0  1  0  0  0  0  0  0
  -31.9220  -32.3720   30.2990 C   0  0  0  0  0  1  0  0  0  0  0  0
  -29.6450  -34.1400   29.8430 N   0  0  0  0  0  0  0  0  0  0  0  0
  -29.6450  -35.4150   29.4420 C   0  0  0  0  0  0  0  0  0  0  0  0
  -29.9460  -35.7530   28.2940 O   0  0  0  0  0  0  0  0  0  0  0  0
  -29.3510  -33.9290   30.7860 H   0  0  0  0  0  0  0  0  0  0  0  0
  -27.8210  -36.9460   30.2510 C   0  0  0  0  0  1  0  0  0  0  0  0
  -29.2680  -36.4810   30.4830 C   0  0  0  0  0  3  0  0  0  0  0  0
  -31.5340  -37.3190   30.9120 C   0  0  0  0  0  1  0  0  0  0  0  0
  -30.1790  -37.6440   30.4760 N   0  0  0  0  0  0  0  0  0  0  0  0
  -29.8230  -38.3840   31.0750 H   0  0  0  0  0  0  0  0  0  0  0  0
  1  2  1  0
  2  4  1  0
  2 54  1  0
  3  1  2  0
  5  1  1  0
  6  8  2  0
  6  7  1  0
  7  5  1  0
  9  7  1  0
 10  6  1  0
 11 12  1  0
 12 14  1  0
 12 10  1  0
 13 11  2  0
 15 11  1  0
 16 24  1  0
 17 18  1  0
 17 22  1  0
 18 19  1  0
 20 19  1  0
 20 29  1  0
 21 20  1  0
 22 21  1  0
 22 16  1  0
 23 16  2  0
 24 15  1  0
 25 24  1  0
 26 51  1  0
 27 26  2  0
 27 46  1  0
 28 27  1  0
 29 26  1  0
 30 28  2  0
 30 29  1  0
 31 36  1  0
 31 28  1  0
 32 31  2  0
 33 34  2  0
 33 32  1  0
 34 35  1  0
 35 36  2  0
 37 34  1  0
 38 39  1  0
 38 37  1  0
 40 39  2  0
 41 40  1  0
 42 41  2  0
 42 43  1  0
 43 38  2  0
 44 43  1  0
 45 41  1  0
 46 48  2  0
 47 46  1  0
 47 50  1  0
 49 47  1  0
 51 53  1  0
 51 52  1  0
 56 55  1  0
 57 56  1  0
 58 56  1  0
 59 56  1  0
 60 59  2  0
 61 60  1  0
 62 73  2  0
 63 61  1  0
 63 69  1  0
 63 68  1  0
 64 72  1  0
 64 74  1  0
 65 70  1  0
 65 67  1  0
 65 71  1  0
 66 72  1  0
 67 66  1  0
 68 67  2  0
 69 70  1  0
 71 64  1  0
 72 62  1  0
 74 75  1  0
 75 79  1  0
 75 77  1  0
 76 74  2  0
 78 82  1  0
 78 87  1  0
 79 83  1  0
 83 84  1  0
 83 78  2  0
 84 85  2  0
 85 86  1  0
 87 86  2  0
 88 62  1  0
 88 89  1  0
 88 93  1  0
 89 92  1  1
 89 90  1  0
 91 89  1  0
 93 96  1  0
 94 93  1  0
 94 98  1  0
 95 94  2  0
 98 97  1  0
100 98  1  0
100 99  1  0
100101  1  0
M  ISO  4  16 100  24 100  60 101  61 101
M  END
>  <TORSDO>  (10) 
F 26

>  <SCORE>  (10) 
-0.533

>  <name>  (10) 
11

>  <ligand_id>  (10) 
11

>  <original_smiles>  (10) 
[H]c1c([H])c([H])c2c(c1[H])C([H])([H])C([H])([H])C([H])([H])C2([H])N([H])C(=O)C1([H])N(C(=O)C([H])(N([H])C(=O)C([H])(N([H])C([H])([H])[H])C([H])([H])[H])C(C([H])([H])[H])(C([H])([H])[H])C([H])([H])[H])C([H])([H])c2c([H])c(OC([H])([H])C([H])([H])[N+]([H])([H])C([H])([H])C([H])([H])N([H])C(=O)C([H])([H])N([H])C(=O)C([H])([H])N([H])C(=O)C([H])([H])N([H])C(=O)N3C([H])([H])C([H])([H])C([H])([H])C([H])(n4nc(-c5c([H])c([H])c(Oc6c([H])c([H])c(F)c([H])c6F)c([H])c5[H])c(C(=O)N([H])[H])c4N([H])[H])C3([H])[H])c([H])c([H])c2C1([H])[H]

>  <smiles>  (10) 
[H]c1c([H])c([H])c2c(c1[H])C([H])([H])C([H])([H])C([H])([H])C2([H])N([H])C(=O)C1([H])N(C(=O)C([H])(N([H])C(=O)C([H])(N([H])C([H])([H])[H])C([H])([H])[H])C(C([H])([H])[H])(C([H])([H])[H])C([H])([H])[H])C([H])([H])c2c([H])c(OC([H])([H])C([H])([H])[N+]([H])([H])C([H])([H])C([H])([H])N([H])C(=O)C([H])([H])N([H])C(=O)C([H])([H])N([H])C(=O)C([H])([H])N([H])C(=O)N3C([H])([H])C([H])([H])C([H])([H])C([H])(n4nc(-c5c([H])c([H])c(Oc6c([H])c([H])c(F)c([H])c6F)c([H])c5[H])c(C(=O)N([H])[H])c4N([H])[H])C3([H])[H])c([H])c([H])c2C1([H])[H]

$$$$
12:0:0
     RDKit          3D

104111  0  0  1  0  0  0  0  0999 V2000
  -30.5010  -24.0780   17.7610 C   0  0  0  0  0  0  0  0  0  0  0  0
  -30.1780  -25.3770   17.6930 N   0  0  0  0  0  0  0  0  0  0  0  0
  -31.3920  -23.5770   17.0690 O   0  0  0  0  0  0  0  0  0  0  0  0
  -29.3790  -25.6820   18.2360 H   0  0  0  0  0  0  0  0  0  0  0  0
  -29.6980  -23.2030   18.7280 C   0  0  0  0  0  2  0  0  0  0  0  0
  -30.1550  -20.8510   19.4180 C   0  0  0  0  0  0  0  0  0  0  0  0
  -30.0000  -21.7950   18.4900 N   0  0  0  0  0  0  0  0  0  0  0  0
  -29.9970  -21.0700   20.6220 O   0  0  0  0  0  0  0  0  0  0  0  0
  -30.2260  -21.5580   17.5310 H   0  0  0  0  0  0  0  0  0  0  0  0
  -30.5490  -19.4620   18.9050 C   0  0  0  0  0  2  0  0  0  0  0  0
  -30.0530  -17.4870   20.3400 C   0  0  0  0  0  0  0  0  0  0  0  0
  -30.8090  -18.5330   20.0040 N   0  0  0  0  0  0  0  0  0  0  0  0
  -29.0350  -17.1690   19.7220 O   0  0  0  0  0  0  0  0  0  0  0  0
  -31.5830  -18.7690   20.6090 H   0  0  0  0  0  0  0  0  0  0  0  0
  -30.5050  -16.6700   21.5580 C   0  0  0  0  0  2  0  0  0  0  0  0
  -30.7020  -14.4000   20.5680 C   0  0  0  0  0  0  0  0  0  0  0  0
  -30.3760  -12.3100   19.2980 C   0  0  0  0  0  2  0  0  0  0  0  0
  -29.4330  -12.5470   18.1040 C   0  0  0  0  0  2  0  0  0  0  0  0
  -27.9600  -12.3980   18.5270 C   0  0  0  0  0  2  0  0  0  0  0  0
  -27.6240  -13.2190   19.8010 C   0  0  0  0  0  3  0  0  0  0  0  0
  -28.6680  -12.9470   20.9080 C   0  0  0  0  0  2  0  0  0  0  0  0
  -30.0080  -13.2490   20.3690 N   0  0  0  0  0  0  0  0  0  0  0  0
  -31.7500  -14.6740   19.9760 O   0  0  0  0  0  0  0  0  0  0  0  0
  -30.1380  -15.2600   21.4270 N   0  0  0  0  0  0  0  0  0  0  0  0
  -29.2840  -14.9660   21.8760 H   0  0  0  0  0  0  0  0  0  0  0  0
  -25.2170  -13.8320   20.4840 C   0  0  0  0  0  0  0  0  0  0  0  0
  -24.1480  -13.0600   20.8530 C   0  0  0  0  0  0  0  0  0  0  0  0
  -24.6120  -11.7090   20.8390 C   0  0  0  0  0  0  0  0  0  0  0  0
  -26.2660  -12.9500   20.2680 N   0  0  0  0  0  0  0  0  0  0  0  0
  -25.9020  -11.6700   20.5400 N   0  0  0  0  0  0  0  0  0  0  0  0
  -23.8910  -10.4460   21.0380 C   0  0  0  0  0  0  0  0  0  0  0  0
  -24.3320   -9.4840   21.9710 C   0  0  0  0  0  3  0  0  0  0  0  0
  -23.6130   -8.2840   22.1570 C   0  0  0  0  0  3  0  0  0  0  0  0
  -22.4380   -8.0380   21.4080 C   0  0  0  0  0  0  0  0  0  0  0  0
  -22.0170   -8.9890   20.4630 C   0  0  0  0  0  3  0  0  0  0  0  0
  -22.7360  -10.1800   20.2760 C   0  0  0  0  0  3  0  0  0  0  0  0
  -21.6890   -6.8900   21.5030 O   0  0  0  0  0  0  0  0  0  0  0  0
  -21.6610   -6.1420   22.6510 C   0  0  0  0  0  0  0  0  0  0  0  0
  -21.2540   -6.6890   23.8870 C   0  0  0  0  0  3  0  0  0  0  0  0
  -21.1740   -5.8670   25.0280 C   0  0  0  0  0  3  0  0  0  0  0  0
  -21.4870   -4.4980   24.9330 C   0  0  0  0  0  0  0  0  0  0  0  0
  -21.8860   -3.9500   23.7030 C   0  0  0  0  0  3  0  0  0  0  0  0
  -21.9690   -4.7700   22.5640 C   0  0  0  0  0  0  0  0  0  0  0  0
  -22.3340   -4.2320   21.3750 F   0  0  0  0  0  0  0  0  0  0  0  0
  -21.4020   -3.7050   26.0290 F   0  0  0  0  0  0  0  0  0  0  0  0
  -22.7460  -13.5340   21.1100 C   0  0  0  0  0  0  0  0  0  0  0  0
  -22.0140  -12.8450   21.9790 N   0  0  0  0  0  0  0  0  0  0  0  0
  -22.3060  -14.5510   20.5730 O   0  0  0  0  0  0  0  0  0  0  0  0
  -22.3840  -12.0260   22.4400 H   0  0  0  0  0  0  0  0  0  0  0  0
  -21.0730  -13.1460   22.1900 H   0  0  0  0  0  0  0  0  0  0  0  0
  -25.3760  -15.2010   20.2960 N   0  0  0  0  0  0  0  0  0  0  0  0
  -24.6090  -15.8550   20.4080 H   0  0  0  0  0  0  0  0  0  0  0  0
  -26.2250  -15.6420   19.9600 H   0  0  0  0  0  0  0  0  0  0  0  0
  -30.6820  -26.3060   16.6800 C   0  0  0  0  0  2  0  0  0  0  0  0
  -32.1800  -26.6600   16.8300 C   0  0  0  0  0  2  0  0  0  0  0  0
  -32.4980  -27.6670   17.9550 C   0  0  0  0  0  2  0  0  0  0  0  0
  -33.2530  -27.0830   19.1730 C   0  0  0  0  0  2  0  0  0  0  0  0
  -32.6180  -27.4910   20.5100 C   0  0  0  0  0  2  0  0  0  0  0  0
  -31.3720  -26.7290   20.7070 N   0  0  0  0  0  4  0  0  0  0  0  0
  -31.6060  -25.8220   21.0800 H   0  0  0  0  0  0  0  0  0  0  0  0
  -30.9630  -26.5970   19.7960 H   0  0  0  0  0  0  0  0  0  0  0  0
  -30.3560  -27.3740   21.5590 C   0  0  0  0  0  2  0  0  0  0  0  0
  -29.0470  -26.5700   21.5190 C   0  0  0  0  0  2  0  0  0  0  0  0
  -28.4420  -26.6560   20.2180 O   0  0  0  0  0  0  0  0  0  0  0  0
  -24.5960  -31.8220   23.1870 C   0  0  0  0  0  0  0  0  0  0  0  0
  -27.2950  -27.4160   20.1680 C   0  0  0  0  0  0  0  0  0  0  0  0
  -23.4050  -30.4140   21.5340 C   0  0  0  0  0  3  0  0  0  0  0  0
  -24.8790  -28.8790   20.1230 C   0  0  0  0  0  0  0  0  0  0  0  0
  -25.9220  -30.7980   21.3480 C   0  0  0  0  0  2  0  0  0  0  0  0
  -26.0200  -29.4260   20.7210 C   0  0  0  0  0  0  0  0  0  0  0  0
  -27.2260  -28.7030   20.7430 C   0  0  0  0  0  3  0  0  0  0  0  0
  -26.1480  -26.8810   19.5470 C   0  0  0  0  0  3  0  0  0  0  0  0
  -24.9360  -27.6040   19.5290 C   0  0  0  0  0  3  0  0  0  0  0  0
  -23.6250  -29.7230   20.1580 C   0  0  0  0  0  2  0  0  0  0  0  0
  -24.6580  -31.0250   22.0820 N   0  0  0  0  0  0  0  0  0  0  0  0
  -23.5100  -32.0910   23.7210 O   0  0  0  0  0  0  0  0  0  0  0  0
  -22.7510  -29.3940   22.4930 C   0  0  0  0  0  0  0  0  0  0  0  0
  -21.4240  -29.2300   22.3740 N   0  0  0  0  0  0  0  0  0  0  0  0
  -23.4330  -28.7540   23.2970 O   0  0  0  0  0  0  0  0  0  0  0  0
  -20.9360  -29.8010   21.6970 H   0  0  0  0  0  0  0  0  0  0  0  0
  -18.0330  -28.1070   22.9020 C   0  0  0  0  0  0  0  0  0  0  0  0
  -20.5990  -28.2970   23.1410 C   0  0  0  0  0  3  0  0  0  0  0  0
  -20.6590  -26.8760   22.5380 C   0  0  0  0  0  2  0  0  0  0  0  0
  -19.5340  -26.5980   21.5340 C   0  0  0  0  0  2  0  0  0  0  0  0
  -18.1660  -26.7670   22.2010 C   0  0  0  0  0  2  0  0  0  0  0  0
  -19.1760  -28.8340   23.3280 C   0  0  0  0  0  0  0  0  0  0  0  0
  -18.9970  -30.0930   23.9420 C   0  0  0  0  0  3  0  0  0  0  0  0
  -17.7080  -30.6230   24.1360 C   0  0  0  0  0  3  0  0  0  0  0  0
  -16.5790  -29.8920   23.7250 C   0  0  0  0  0  3  0  0  0  0  0  0
  -16.7440  -28.6360   23.1150 C   0  0  0  0  0  3  0  0  0  0  0  0
  -25.8780  -32.4540   23.8160 C   0  0  0  0  0  3  0  0  0  0  0  0
  -25.5600  -33.8450   24.1590 N   0  0  0  0  0  0  0  0  0  0  0  0
  -25.8910  -34.9060   23.4090 C   0  0  0  0  0  0  0  0  0  0  0  0
  -26.5660  -34.8150   22.3800 O   0  0  0  0  0  0  0  0  0  0  0  0
  -24.9600  -33.9900   24.9580 H   0  0  0  0  0  0  0  0  0  0  0  0
  -24.1560  -36.6930   23.0620 C   0  0  0  0  0  1  0  0  0  0  0  0
  -25.3930  -36.2880   23.8770 C   0  0  0  0  0  3  0  0  0  0  0  0
  -27.5200  -37.1740   24.7280 C   0  0  0  0  0  1  0  0  0  0  0  0
  -26.4220  -37.3450   23.7800 N   0  0  0  0  0  0  0  0  0  0  0  0
  -26.0100  -38.2620   23.9340 H   0  0  0  0  0  0  0  0  0  0  0  0
  -26.4030  -31.6720   25.0830 C   0  0  1  0  0  0  0  0  0  0  0  0
  -25.3160  -31.4200   26.1510 C   0  0  0  0  0  1  0  0  0  0  0  0
  -26.9930  -30.3030   24.6730 C   0  0  0  0  0  1  0  0  0  0  0  0
  -27.5510  -32.4680   25.7480 C   0  0  0  0  0  1  0  0  0  0  0  0
  1  5  1  0
  2  1  1  0
  2  4  1  0
  3  1  2  0
  6  8  2  0
  7  5  1  0
  7  6  1  0
  9  7  1  0
 10  6  1  0
 10 12  1  0
 11 15  1  0
 12 11  1  0
 12 14  1  0
 13 11  2  0
 16 24  1  0
 17 22  1  0
 18 19  1  0
 18 17  1  0
 20 19  1  0
 20 29  1  0
 20 21  1  0
 22 16  1  0
 22 21  1  0
 23 16  2  0
 24 15  1  0
 24 25  1  0
 26 27  2  0
 27 46  1  0
 28 27  1  0
 28 31  1  0
 29 26  1  0
 29 30  1  0
 30 28  2  0
 31 32  1  0
 32 33  2  0
 34 37  1  0
 34 33  1  0
 35 34  2  0
 36 35  1  0
 36 31  2  0
 37 38  1  0
 38 39  1  0
 39 40  2  0
 41 40  1  0
 41 45  1  0
 42 41  2  0
 43 38  2  0
 43 42  1  0
 44 43  1  0
 46 47  1  0
 47 50  1  0
 47 49  1  0
 48 46  2  0
 51 52  1  0
 51 26  1  0
 53 51  1  0
 54 55  1  0
 54  2  1  0
 55 56  1  0
 56 57  1  0
 57 58  1  0
 58 59  1  0
 59 60  1  0
 59 62  1  0
 61 59  1  0
 63 62  1  0
 64 63  1  0
 65 76  2  0
 66 64  1  0
 66 71  1  0
 67 75  1  0
 67 77  1  0
 68 74  1  0
 68 70  1  0
 69 75  1  0
 70 71  2  0
 70 69  1  0
 72 66  2  0
 73 72  1  0
 73 68  2  0
 74 67  1  0
 75 65  1  0
 77 79  2  0
 78 77  1  0
 80 78  1  0
 81 90  2  0
 81 86  1  0
 82 78  1  0
 82 86  1  0
 83 82  1  0
 84 85  1  0
 84 83  1  0
 85 81  1  0
 86 87  2  0
 87 88  1  0
 89 88  2  0
 90 89  1  0
 91 65  1  0
 91 92  1  0
 91101  1  0
 92 95  1  0
 93 97  1  0
 93 92  1  0
 94 93  2  0
 97 96  1  0
 99 97  1  0
 99100  1  0
 99 98  1  0
101104  1  1
101102  1  0
103101  1  0
M  ISO  4  16 100  24 100  63 101  64 101
M  END
>  <TORSDO>  (11) 
F 29

>  <SCORE>  (11) 
-11.313

>  <name>  (11) 
12

>  <ligand_id>  (11) 
12

>  <original_smiles>  (11) 
[H]c1c([H])c([H])c2c(c1[H])C([H])([H])C([H])([H])C([H])([H])C2([H])N([H])C(=O)C1([H])N(C(=O)C([H])(N([H])C(=O)C([H])(N([H])C([H])([H])[H])C([H])([H])[H])C(C([H])([H])[H])(C([H])([H])[H])C([H])([H])[H])C([H])([H])c2c([H])c(OC([H])([H])C([H])([H])[N+]([H])([H])C([H])([H])C([H])([H])C([H])([H])C([H])([H])C([H])([H])N([H])C(=O)C([H])([H])N([H])C(=O)C([H])([H])N([H])C(=O)C([H])([H])N([H])C(=O)N3C([H])([H])C([H])([H])C([H])([H])C([H])(n4nc(-c5c([H])c([H])c(Oc6c([H])c([H])c(F)c([H])c6F)c([H])c5[H])c(C(=O)N([H])[H])c4N([H])[H])C3([H])[H])c([H])c([H])c2C1([H])[H]

>  <smiles>  (11) 
[H]c1c([H])c([H])c2c(c1[H])C([H])([H])C([H])([H])C([H])([H])C2([H])N([H])C(=O)C1([H])N(C(=O)C([H])(N([H])C(=O)C([H])(N([H])C([H])([H])[H])C([H])([H])[H])C(C([H])([H])[H])(C([H])([H])[H])C([H])([H])[H])C([H])([H])c2c([H])c(OC([H])([H])C([H])([H])[N+]([H])([H])C([H])([H])C([H])([H])C([H])([H])C([H])([H])C([H])([H])N([H])C(=O)C([H])([H])N([H])C(=O)C([H])([H])N([H])C(=O)C([H])([H])N([H])C(=O)N3C([H])([H])C([H])([H])C([H])([H])C([H])(n4nc(-c5c([H])c([H])c(Oc6c([H])c([H])c(F)c([H])c6F)c([H])c5[H])c(C(=O)N([H])[H])c4N([H])[H])C3([H])[H])c([H])c([H])c2C1([H])[H]

$$$$
13:0:0
     RDKit          3D

103110  0  0  1  0  0  0  0  0999 V2000
  -30.3260  -26.4670   16.9330 C   0  0  0  0  0  2  0  0  0  0  0  0
  -30.2540  -25.0720   16.2980 C   0  0  0  0  0  0  0  0  0  0  0  0
  -30.3290  -23.9950   17.0960 N   0  0  0  0  0  0  0  0  0  0  0  0
  -30.1600  -24.9750   15.0740 O   0  0  0  0  0  0  0  0  0  0  0  0
  -30.2800  -24.1210   18.0960 H   0  0  0  0  0  0  0  0  0  0  0  0
  -30.3160  -22.6080   16.6380 C   0  0  0  0  0  2  0  0  0  0  0  0
  -29.5440  -21.7090   17.6080 C   0  0  0  0  0  0  0  0  0  0  0  0
  -29.8160  -20.4020   17.5370 N   0  0  0  0  0  0  0  0  0  0  0  0
  -28.7120  -22.1840   18.3860 O   0  0  0  0  0  0  0  0  0  0  0  0
  -30.5400  -20.1260   16.8870 H   0  0  0  0  0  0  0  0  0  0  0  0
  -29.1380  -19.3260   18.2500 C   0  0  0  0  0  2  0  0  0  0  0  0
  -30.0170  -18.7290   19.3620 C   0  0  0  0  0  2  0  0  0  0  0  0
  -29.5430  -17.3290   19.7720 C   0  0  0  0  0  2  0  0  0  0  0  0
  -30.2860  -16.7680   20.9990 C   0  0  0  0  0  2  0  0  0  0  0  0
  -30.6780  -14.3720   20.5470 C   0  0  0  0  0  0  0  0  0  0  0  0
  -30.3430  -12.2640   19.3390 C   0  0  0  0  0  2  0  0  0  0  0  0
  -29.3970  -12.5180   18.1470 C   0  0  0  0  0  2  0  0  0  0  0  0
  -27.9240  -12.3850   18.5810 C   0  0  0  0  0  2  0  0  0  0  0  0
  -27.6040  -13.2050   19.8580 C   0  0  0  0  0  3  0  0  0  0  0  0
  -28.6540  -12.9290   20.9590 C   0  0  0  0  0  2  0  0  0  0  0  0
  -29.9900  -13.2130   20.4020 N   0  0  0  0  0  0  0  0  0  0  0  0
  -31.7780  -14.5870   20.0320 O   0  0  0  0  0  0  0  0  0  0  0  0
  -29.9900  -15.3470   21.1480 N   0  0  0  0  0  0  0  0  0  0  0  0
  -29.0910  -15.0920   21.5320 H   0  0  0  0  0  0  0  0  0  0  0  0
  -25.2070  -13.8310   20.5530 C   0  0  0  0  0  0  0  0  0  0  0  0
  -24.1340  -13.0660   20.9220 C   0  0  0  0  0  0  0  0  0  0  0  0
  -24.5880  -11.7110   20.8960 C   0  0  0  0  0  0  0  0  0  0  0  0
  -26.2470  -12.9440   20.3310 N   0  0  0  0  0  0  0  0  0  0  0  0
  -25.8780  -11.6640   20.5930 N   0  0  0  0  0  0  0  0  0  0  0  0
  -23.8590  -10.4540   21.0930 C   0  0  0  0  0  0  0  0  0  0  0  0
  -24.3070   -9.4750   22.0080 C   0  0  0  0  0  3  0  0  0  0  0  0
  -23.5810   -8.2790   22.1880 C   0  0  0  0  0  3  0  0  0  0  0  0
  -22.3910   -8.0550   21.4550 C   0  0  0  0  0  0  0  0  0  0  0  0
  -21.9620   -9.0230   20.5320 C   0  0  0  0  0  3  0  0  0  0  0  0
  -22.6870  -10.2110   20.3480 C   0  0  0  0  0  3  0  0  0  0  0  0
  -21.6310   -6.9130   21.5490 O   0  0  0  0  0  0  0  0  0  0  0  0
  -21.6300   -6.1430   22.6840 C   0  0  0  0  0  0  0  0  0  0  0  0
  -21.2840   -6.6750   23.9450 C   0  0  0  0  0  3  0  0  0  0  0  0
  -21.2230   -5.8320   25.0730 C   0  0  0  0  0  3  0  0  0  0  0  0
  -21.5010   -4.4580   24.9410 C   0  0  0  0  0  0  0  0  0  0  0  0
  -21.8410   -3.9250   23.6840 C   0  0  0  0  0  3  0  0  0  0  0  0
  -21.9030   -4.7660   22.5590 C   0  0  0  0  0  0  0  0  0  0  0  0
  -22.2090   -4.2430   21.3480 F   0  0  0  0  0  0  0  0  0  0  0  0
  -21.4370   -3.6450   26.0230 F   0  0  0  0  0  0  0  0  0  0  0  0
  -22.7370  -13.5480   21.1930 C   0  0  0  0  0  0  0  0  0  0  0  0
  -22.0090  -12.8610   22.0630 N   0  0  0  0  0  0  0  0  0  0  0  0
  -22.3010  -14.5700   20.6660 O   0  0  0  0  0  0  0  0  0  0  0  0
  -22.3760  -12.0340   22.5110 H   0  0  0  0  0  0  0  0  0  0  0  0
  -21.0710  -13.1650   22.2840 H   0  0  0  0  0  0  0  0  0  0  0  0
  -25.3810  -15.2010   20.3650 N   0  0  0  0  0  0  0  0  0  0  0  0
  -24.6280  -15.8690   20.4760 H   0  0  0  0  0  0  0  0  0  0  0  0
  -26.2430  -15.6250   20.0470 H   0  0  0  0  0  0  0  0  0  0  0  0
  -31.1480  -27.5240   19.0190 C   0  0  0  0  0  0  0  0  0  0  0  0
  -30.8390  -26.4450   18.2970 N   0  0  0  0  0  0  0  0  0  0  0  0
  -31.0670  -28.6700   18.5720 O   0  0  0  0  0  0  0  0  0  0  0  0
  -30.9670  -25.5500   18.7430 H   0  0  0  0  0  0  0  0  0  0  0  0
  -31.5740  -27.2910   20.4760 C   0  0  0  0  0  2  0  0  0  0  0  0
  -30.0920  -25.4810   21.4110 C   0  0  0  0  0  0  0  0  0  0  0  0
  -31.2710  -25.9380   20.9610 N   0  0  0  0  0  0  0  0  0  0  0  0
  -29.9790  -24.3120   21.7790 O   0  0  0  0  0  0  0  0  0  0  0  0
  -32.0420  -25.2850   20.9620 H   0  0  0  0  0  0  0  0  0  0  0  0
  -28.8770  -26.4170   21.4660 C   0  0  0  0  0  2  0  0  0  0  0  0
  -28.3960  -26.6700   20.1410 O   0  0  0  0  0  0  0  0  0  0  0  0
  -24.6530  -31.8580   23.1970 C   0  0  0  0  0  0  0  0  0  0  0  0
  -27.2600  -27.4350   20.1190 C   0  0  0  0  0  0  0  0  0  0  0  0
  -23.4220  -30.4570   21.5670 C   0  0  0  0  0  3  0  0  0  0  0  0
  -24.8600  -28.9140   20.1290 C   0  0  0  0  0  0  0  0  0  0  0  0
  -25.9390  -30.8230   21.3370 C   0  0  0  0  0  2  0  0  0  0  0  0
  -26.0170  -29.4500   20.7080 C   0  0  0  0  0  0  0  0  0  0  0  0
  -27.2190  -28.7180   20.7040 C   0  0  0  0  0  3  0  0  0  0  0  0
  -26.0990  -26.9140   19.5120 C   0  0  0  0  0  3  0  0  0  0  0  0
  -24.8940  -27.6440   19.5230 C   0  0  0  0  0  3  0  0  0  0  0  0
  -23.6140  -29.7690   20.1850 C   0  0  0  0  0  2  0  0  0  0  0  0
  -24.6910  -31.0590   22.0940 N   0  0  0  0  0  0  0  0  0  0  0  0
  -23.5790  -32.1310   23.7510 O   0  0  0  0  0  0  0  0  0  0  0  0
  -22.7840  -29.4390   22.5380 C   0  0  0  0  0  0  0  0  0  0  0  0
  -21.4570  -29.2640   22.4230 N   0  0  0  0  0  0  0  0  0  0  0  0
  -23.4730  -28.8100   23.3440 O   0  0  0  0  0  0  0  0  0  0  0  0
  -20.9640  -29.8240   21.7420 H   0  0  0  0  0  0  0  0  0  0  0  0
  -18.0850  -28.0810   22.9480 C   0  0  0  0  0  0  0  0  0  0  0  0
  -20.6450  -28.3310   23.2020 C   0  0  0  0  0  3  0  0  0  0  0  0
  -20.7400  -26.8970   22.6280 C   0  0  0  0  0  2  0  0  0  0  0  0
  -19.6310  -26.5770   21.6200 C   0  0  0  0  0  2  0  0  0  0  0  0
  -18.2550  -26.7290   22.2740 C   0  0  0  0  0  2  0  0  0  0  0  0
  -19.2090  -28.8390   23.3690 C   0  0  0  0  0  0  0  0  0  0  0  0
  -18.9990  -30.1060   23.9580 C   0  0  0  0  0  3  0  0  0  0  0  0
  -17.6970  -30.6130   24.1280 C   0  0  0  0  0  3  0  0  0  0  0  0
  -16.5870  -29.8500   23.7210 C   0  0  0  0  0  3  0  0  0  0  0  0
  -16.7840  -28.5860   23.1380 C   0  0  0  0  0  3  0  0  0  0  0  0
  -25.9520  -32.4780   23.8030 C   0  0  0  0  0  3  0  0  0  0  0  0
  -25.6460  -33.8680   24.1650 N   0  0  0  0  0  0  0  0  0  0  0  0
  -25.9590  -34.9340   23.4160 C   0  0  0  0  0  0  0  0  0  0  0  0
  -26.6050  -34.8510   22.3690 O   0  0  0  0  0  0  0  0  0  0  0  0
  -25.0670  -34.0030   24.9800 H   0  0  0  0  0  0  0  0  0  0  0  0
  -24.2110  -36.7200   23.1320 C   0  0  0  0  0  1  0  0  0  0  0  0
  -25.4750  -36.3140   23.9050 C   0  0  0  0  0  3  0  0  0  0  0  0
  -27.6270  -37.1960   24.6880 C   0  0  0  0  0  1  0  0  0  0  0  0
  -26.4960  -37.3740   23.7810 N   0  0  0  0  0  0  0  0  0  0  0  0
  -26.0910  -38.2880   23.9550 H   0  0  0  0  0  0  0  0  0  0  0  0
  -26.5010  -31.6830   25.0510 C   0  0  1  0  0  0  0  0  0  0  0  0
  -25.4310  -31.4220   26.1390 C   0  0  0  0  0  1  0  0  0  0  0  0
  -27.0790  -30.3150   24.6160 C   0  0  0  0  0  1  0  0  0  0  0  0
  -27.6680  -32.4670   25.6980 C   0  0  0  0  0  1  0  0  0  0  0  0
  1 54  1  0
  2  1  1  0
  2  3  1  0
  3  5  1  0
  4  2  2  0
  6  3  1  0
  6  7  1  0
  7  9  2  0
  8  7  1  0
  8 11  1  0
 10  8  1  0
 11 12  1  0
 12 13  1  0
 13 14  1  0
 14 23  1  0
 15 23  1  0
 16 21  1  0
 17 18  1  0
 17 16  1  0
 19 18  1  0
 19 28  1  0
 19 20  1  0
 21 15  1  0
 21 20  1  0
 22 15  2  0
 23 24  1  0
 25 26  2  0
 26 45  1  0
 27 26  1  0
 27 30  1  0
 28 25  1  0
 28 29  1  0
 29 27  2  0
 30 31  1  0
 31 32  2  0
 33 36  1  0
 33 32  1  0
 34 33  2  0
 35 34  1  0
 35 30  2  0
 36 37  1  0
 37 38  1  0
 38 39  2  0
 40 39  1  0
 40 44  1  0
 41 40  2  0
 42 37  2  0
 42 41  1  0
 43 42  1  0
 45 46  1  0
 46 49  1  0
 46 48  1  0
 47 45  2  0
 50 51  1  0
 50 25  1  0
 52 50  1  0
 53 57  1  0
 54 56  1  0
 54 53  1  0
 55 53  2  0
 57 59  1  0
 58 62  1  0
 58 60  2  0
 59 61  1  0
 59 58  1  0
 63 62  1  0
 64 75  2  0
 65 63  1  0
 65 70  1  0
 66 74  1  0
 66 76  1  0
 67 73  1  0
 67 69  1  0
 68 74  1  0
 69 68  1  0
 70 69  2  0
 71 72  1  0
 71 65  2  0
 72 67  2  0
 73 66  1  0
 74 64  1  0
 76 78  2  0
 77 76  1  0
 79 77  1  0
 80 89  2  0
 80 85  1  0
 81 77  1  0
 81 85  1  0
 82 81  1  0
 83 84  1  0
 83 82  1  0
 84 80  1  0
 85 86  2  0
 86 87  1  0
 88 87  2  0
 89 88  1  0
 90 64  1  0
 90 91  1  0
 90100  1  0
 91 94  1  0
 92 96  1  0
 92 91  1  0
 93 92  2  0
 96 95  1  0
 98 96  1  0
 98 99  1  0
 98 97  1  0
100103  1  1
100101  1  0
102100  1  0
M  ISO  4  15 100  23 100  62 101  63 101
M  END
>  <TORSDO>  (12) 
F 27

>  <SCORE>  (12) 
-11.688

>  <name>  (12) 
13

>  <ligand_id>  (12) 
13

>  <original_smiles>  (12) 
[H]c1c([H])c([H])c2c(c1[H])C([H])([H])C([H])([H])C([H])([H])C2([H])N([H])C(=O)C1([H])N(C(=O)C([H])(N([H])C(=O)C([H])(N([H])C([H])([H])[H])C([H])([H])[H])C(C([H])([H])[H])(C([H])([H])[H])C([H])([H])[H])C([H])([H])c2c([H])c(OC([H])([H])C(=O)N([H])C([H])([H])C(=O)N([H])C([H])([H])C(=O)N([H])C([H])([H])C(=O)N([H])C([H])([H])C([H])([H])C([H])([H])C([H])([H])N([H])C(=O)N3C([H])([H])C([H])([H])C([H])([H])C([H])(n4nc(-c5c([H])c([H])c(Oc6c([H])c([H])c(F)c([H])c6F)c([H])c5[H])c(C(=O)N([H])[H])c4N([H])[H])C3([H])[H])c([H])c([H])c2C1([H])[H]

>  <smiles>  (12) 
[H]c1c([H])c([H])c2c(c1[H])C([H])([H])C([H])([H])C([H])([H])C2([H])N([H])C(=O)C1([H])N(C(=O)C([H])(N([H])C(=O)C([H])(N([H])C([H])([H])[H])C([H])([H])[H])C(C([H])([H])[H])(C([H])([H])[H])C([H])([H])[H])C([H])([H])c2c([H])c(OC([H])([H])C(=O)N([H])C([H])([H])C(=O)N([H])C([H])([H])C(=O)N([H])C([H])([H])C(=O)N([H])C([H])([H])C([H])([H])C([H])([H])C([H])([H])N([H])C(=O)N3C([H])([H])C([H])([H])C([H])([H])C([H])(n4nc(-c5c([H])c([H])c(Oc6c([H])c([H])c(F)c([H])c6F)c([H])c5[H])c(C(=O)N([H])[H])c4N([H])[H])C3([H])[H])c([H])c([H])c2C1([H])[H]

$$$$
14:0:0
     RDKit          3D

105112  0  0  1  0  0  0  0  0999 V2000
  -32.0170  -23.9630   20.6350 C   0  0  0  0  0  0  0  0  0  0  0  0
  -32.4130  -25.2220   20.4170 N   0  0  0  0  0  0  0  0  0  0  0  0
  -31.7640  -23.5340   21.7630 O   0  0  0  0  0  0  0  0  0  0  0  0
  -32.5600  -25.5170   19.4650 H   0  0  0  0  0  0  0  0  0  0  0  0
  -32.5540  -26.2520   21.4440 C   0  0  0  0  0  2  0  0  0  0  0  0
  -31.2030  -26.8940   21.7560 C   0  0  0  0  0  0  0  0  0  0  0  0
  -30.8270  -26.8900   23.0380 N   0  0  0  0  0  0  0  0  0  0  0  0
  -30.5190  -27.3740   20.8490 O   0  0  0  0  0  0  0  0  0  0  0  0
  -31.4830  -26.5050   23.7050 H   0  0  0  0  0  0  0  0  0  0  0  0
  -29.4870  -27.1920   23.5270 C   0  0  0  0  0  2  0  0  0  0  0  0
  -28.6890  -25.8880   23.7050 C   0  0  0  0  0  2  0  0  0  0  0  0
  -28.4320  -25.2410   22.4590 O   0  0  0  0  0  0  0  0  0  0  0  0
  -27.2470  -25.6970   21.8190 C   0  0  0  0  0  2  0  0  0  0  0  0
  -26.9930  -24.9030   20.5290 C   0  0  0  0  0  2  0  0  0  0  0  0
  -27.8420  -25.3280   19.3080 C   0  0  0  0  0  2  0  0  0  0  0  0
  -27.9120  -26.7420   19.0880 O   0  0  0  0  0  0  0  0  0  0  0  0
  -24.4870  -31.5880   22.9350 C   0  0  0  0  0  0  0  0  0  0  0  0
  -26.7510  -27.4660   19.2150 C   0  0  0  0  0  0  0  0  0  0  0  0
  -23.1110  -30.3810   21.2690 C   0  0  0  0  0  3  0  0  0  0  0  0
  -24.4010  -28.9850   19.5730 C   0  0  0  0  0  0  0  0  0  0  0  0
  -25.6170  -30.7320   20.8900 C   0  0  0  0  0  2  0  0  0  0  0  0
  -25.6120  -29.4350   20.1090 C   0  0  0  0  0  0  0  0  0  0  0  0
  -26.7920  -28.6830   19.9250 C   0  0  0  0  0  3  0  0  0  0  0  0
  -25.5270  -27.0280   18.6680 C   0  0  0  0  0  3  0  0  0  0  0  0
  -24.3520  -27.7820   18.8470 C   0  0  0  0  0  3  0  0  0  0  0  0
  -23.1830  -29.8470   19.8130 C   0  0  0  0  0  2  0  0  0  0  0  0
  -24.4270  -30.9100   21.7550 N   0  0  0  0  0  0  0  0  0  0  0  0
  -23.4630  -31.8210   23.5910 O   0  0  0  0  0  0  0  0  0  0  0  0
  -22.5210  -29.2730   22.1720 C   0  0  0  0  0  0  0  0  0  0  0  0
  -21.1910  -29.1090   22.1220 N   0  0  0  0  0  0  0  0  0  0  0  0
  -23.2540  -28.5700   22.8690 O   0  0  0  0  0  0  0  0  0  0  0  0
  -20.6630  -29.7300   21.5220 H   0  0  0  0  0  0  0  0  0  0  0  0
  -17.8480  -27.8710   22.7120 C   0  0  0  0  0  0  0  0  0  0  0  0
  -20.4170  -28.1080   22.8530 C   0  0  0  0  0  3  0  0  0  0  0  0
  -20.4820  -26.7310   22.1530 C   0  0  0  0  0  2  0  0  0  0  0  0
  -19.3190  -26.4940   21.1830 C   0  0  0  0  0  2  0  0  0  0  0  0
  -17.9790  -26.5830   21.9190 C   0  0  0  0  0  2  0  0  0  0  0  0
  -18.9930  -28.5950   23.1390 C   0  0  0  0  0  0  0  0  0  0  0  0
  -18.8120  -29.8050   23.8440 C   0  0  0  0  0  3  0  0  0  0  0  0
  -17.5210  -30.2870   24.1300 C   0  0  0  0  0  3  0  0  0  0  0  0
  -16.3920  -29.5580   23.7180 C   0  0  0  0  0  3  0  0  0  0  0  0
  -16.5560  -28.3510   23.0140 C   0  0  0  0  0  3  0  0  0  0  0  0
  -25.8380  -32.1250   23.5020 C   0  0  0  0  0  3  0  0  0  0  0  0
  -25.5990  -33.4880   23.9990 N   0  0  0  0  0  0  0  0  0  0  0  0
  -25.9030  -34.6050   23.3260 C   0  0  0  0  0  0  0  0  0  0  0  0
  -26.4960  -34.5940   22.2440 O   0  0  0  0  0  0  0  0  0  0  0  0
  -25.0770  -33.5670   24.8590 H   0  0  0  0  0  0  0  0  0  0  0  0
  -24.2090  -36.4630   23.2690 C   0  0  0  0  0  1  0  0  0  0  0  0
  -25.4870  -35.9500   23.9520 C   0  0  0  0  0  3  0  0  0  0  0  0
  -27.7040  -36.6950   24.7080 C   0  0  0  0  0  1  0  0  0  0  0  0
  -26.5440  -36.9830   23.8700 N   0  0  0  0  0  0  0  0  0  0  0  0
  -26.1790  -37.8940   24.1360 H   0  0  0  0  0  0  0  0  0  0  0  0
  -26.4400  -31.2140   24.6390 C   0  0  1  0  0  0  0  0  0  0  0  0
  -25.4420  -30.8960   25.7760 C   0  0  0  0  0  1  0  0  0  0  0  0
  -26.9450  -29.8700   24.0590 C   0  0  0  0  0  1  0  0  0  0  0  0
  -27.6720  -31.9070   25.2680 C   0  0  0  0  0  1  0  0  0  0  0  0
  -31.8990  -23.0670   19.3920 C   0  0  0  0  0  2  0  0  0  0  0  0
  -31.5630  -20.6880   20.0620 C   0  0  0  0  0  0  0  0  0  0  0  0
  -31.1100  -21.8540   19.5940 N   0  0  0  0  0  0  0  0  0  0  0  0
  -32.7250  -20.5180   20.4430 O   0  0  0  0  0  0  0  0  0  0  0  0
  -30.1370  -21.8970   19.3240 H   0  0  0  0  0  0  0  0  0  0  0  0
  -30.5650  -19.5340   20.0590 C   0  0  0  0  0  2  0  0  0  0  0  0
  -30.3940  -17.2590   20.9470 C   0  0  0  0  0  0  0  0  0  0  0  0
  -30.9890  -18.4500   20.9330 N   0  0  0  0  0  0  0  0  0  0  0  0
  -29.4010  -17.0130   20.2570 O   0  0  0  0  0  0  0  0  0  0  0  0
  -31.7980  -18.6220   21.5160 H   0  0  0  0  0  0  0  0  0  0  0  0
  -30.9880  -16.1880   21.8660 C   0  0  0  0  0  2  0  0  0  0  0  0
  -30.8790  -14.2300   20.3420 C   0  0  0  0  0  0  0  0  0  0  0  0
  -30.4120  -12.2530   18.9390 C   0  0  0  0  0  2  0  0  0  0  0  0
  -29.4260  -12.5680   17.7990 C   0  0  0  0  0  2  0  0  0  0  0  0
  -27.9690  -12.4520   18.2800 C   0  0  0  0  0  2  0  0  0  0  0  0
  -27.7150  -13.2320   19.5960 C   0  0  0  0  0  3  0  0  0  0  0  0
  -28.7860  -12.8730   20.6480 C   0  0  0  0  0  2  0  0  0  0  0  0
  -30.1190  -13.1430   20.0720 N   0  0  0  0  0  0  0  0  0  0  0  0
  -31.8410  -14.5920   19.6510 O   0  0  0  0  0  0  0  0  0  0  0  0
  -30.5350  -14.8630   21.4680 N   0  0  0  0  0  0  0  0  0  0  0  0
  -29.7540  -14.4760   21.9750 H   0  0  0  0  0  0  0  0  0  0  0  0
  -25.3460  -13.9020   20.3620 C   0  0  0  0  0  0  0  0  0  0  0  0
  -24.2680  -13.1530   20.7510 C   0  0  0  0  0  0  0  0  0  0  0  0
  -24.6940  -11.7900   20.7010 C   0  0  0  0  0  0  0  0  0  0  0  0
  -26.3640  -12.9940   20.1030 N   0  0  0  0  0  0  0  0  0  0  0  0
  -25.9740  -11.7210   20.3590 N   0  0  0  0  0  0  0  0  0  0  0  0
  -23.9420  -10.5450   20.9030 C   0  0  0  0  0  0  0  0  0  0  0  0
  -24.3890   -9.5510   21.8010 C   0  0  0  0  0  3  0  0  0  0  0  0
  -23.6400   -8.3680   21.9900 C   0  0  0  0  0  3  0  0  0  0  0  0
  -22.4310   -8.1730   21.2800 C   0  0  0  0  0  0  0  0  0  0  0  0
  -22.0030   -9.1550   20.3690 C   0  0  0  0  0  3  0  0  0  0  0  0
  -22.7510  -10.3300   20.1790 C   0  0  0  0  0  3  0  0  0  0  0  0
  -21.6510   -7.0460   21.3800 O   0  0  0  0  0  0  0  0  0  0  0  0
  -21.6410   -6.2790   22.5170 C   0  0  0  0  0  0  0  0  0  0  0  0
  -21.3090   -6.8200   23.7780 C   0  0  0  0  0  3  0  0  0  0  0  0
  -21.2380   -5.9820   24.9090 C   0  0  0  0  0  3  0  0  0  0  0  0
  -21.4910   -4.6030   24.7800 C   0  0  0  0  0  0  0  0  0  0  0  0
  -21.8150   -4.0610   23.5230 C   0  0  0  0  0  3  0  0  0  0  0  0
  -21.8860   -4.8960   22.3960 C   0  0  0  0  0  0  0  0  0  0  0  0
  -22.1780   -4.3650   21.1840 F   0  0  0  0  0  0  0  0  0  0  0  0
  -21.4160   -3.7950   25.8630 F   0  0  0  0  0  0  0  0  0  0  0  0
  -22.8910  -13.6620   21.0670 C   0  0  0  0  0  0  0  0  0  0  0  0
  -22.1740  -12.9810   21.9540 N   0  0  0  0  0  0  0  0  0  0  0  0
  -22.4600  -14.6980   20.5640 O   0  0  0  0  0  0  0  0  0  0  0  0
  -22.5360  -12.1440   22.3860 H   0  0  0  0  0  0  0  0  0  0  0  0
  -21.2500  -13.3040   22.2080 H   0  0  0  0  0  0  0  0  0  0  0  0
  -25.5440  -15.2700   20.1940 N   0  0  0  0  0  0  0  0  0  0  0  0
  -24.8090  -15.9500   20.3510 H   0  0  0  0  0  0  0  0  0  0  0  0
  -26.4200  -15.6890   19.9060 H   0  0  0  0  0  0  0  0  0  0  0  0
  1  3  2  0
  2  1  1  0
  2  5  1  0
  4  2  1  0
  5  6  1  0
  6  7  1  0
  7 10  1  0
  7  9  1  0
  8  6  2  0
 10 11  1  0
 12 11  1  0
 13 12  1  0
 14 13  1  0
 15 14  1  0
 16 18  1  0
 16 15  1  0
 17 28  2  0
 18 23  1  0
 19 27  1  0
 19 29  1  0
 20 26  1  0
 20 22  1  0
 21 27  1  0
 22 21  1  0
 23 22  2  0
 24 25  1  0
 24 18  2  0
 25 20  2  0
 26 19  1  0
 27 17  1  0
 29 31  2  0
 30 29  1  0
 32 30  1  0
 33 42  2  0
 33 38  1  0
 34 30  1  0
 34 38  1  0
 35 34  1  0
 36 37  1  0
 36 35  1  0
 37 33  1  0
 38 39  2  0
 39 40  1  0
 41 40  2  0
 42 41  1  0
 43 17  1  0
 43 44  1  0
 43 53  1  0
 44 47  1  0
 45 49  1  0
 45 44  1  0
 46 45  2  0
 49 48  1  0
 51 49  1  0
 51 52  1  0
 51 50  1  0
 53 56  1  1
 53 54  1  0
 55 53  1  0
 57 59  1  0
 57  1  1  0
 58 60  2  0
 59 58  1  0
 61 59  1  0
 62 58  1  0
 62 64  1  0
 63 67  1  0
 64 63  1  0
 64 66  1  0
 65 63  2  0
 68 76  1  0
 69 74  1  0
 70 71  1  0
 70 69  1  0
 72 71  1  0
 72 81  1  0
 72 73  1  0
 74 68  1  0
 74 73  1  0
 75 68  2  0
 76 67  1  0
 76 77  1  0
 78 79  2  0
 79 98  1  0
 80 79  1  0
 80 83  1  0
 81 82  1  0
 81 78  1  0
 82 80  2  0
 83 84  1  0
 84 85  2  0
 86 89  1  0
 86 85  1  0
 87 86  2  0
 88 87  1  0
 88 83  2  0
 89 90  1  0
 90 91  1  0
 91 92  2  0
 93 92  1  0
 93 97  1  0
 94 93  2  0
 95 90  2  0
 95 94  1  0
 96 95  1  0
 98 99  1  0
 99102  1  0
 99101  1  0
100 98  2  0
103104  1  0
103 78  1  0
105103  1  0
M  ISO  4  15 101  16 101  68 100  76 100
M  END
>  <TORSDO>  (13) 
F 29

>  <SCORE>  (13) 
-10.068

>  <name>  (13) 
14

>  <ligand_id>  (13) 
14

>  <original_smiles>  (13) 
[H]c1c([H])c([H])c2c(c1[H])C([H])([H])C([H])([H])C([H])([H])C2([H])N([H])C(=O)C1([H])N(C(=O)C([H])(N([H])C(=O)C([H])(N([H])C([H])([H])[H])C([H])([H])[H])C(C([H])([H])[H])(C([H])([H])[H])C([H])([H])[H])C([H])([H])c2c([H])c(OC([H])([H])C([H])([H])C([H])([H])OC([H])([H])C([H])([H])N([H])C(=O)C([H])([H])N([H])C(=O)C([H])([H])N([H])C(=O)C([H])([H])N([H])C(=O)C([H])([H])N([H])C(=O)N3C([H])([H])C([H])([H])C([H])([H])C([H])(n4nc(-c5c([H])c([H])c(Oc6c([H])c([H])c(F)c([H])c6F)c([H])c5[H])c(C(=O)N([H])[H])c4N([H])[H])C3([H])[H])c([H])c([H])c2C1([H])[H]

>  <smiles>  (13) 
[H]c1c([H])c([H])c2c(c1[H])C([H])([H])C([H])([H])C([H])([H])C2([H])N([H])C(=O)C1([H])N(C(=O)C([H])(N([H])C(=O)C([H])(N([H])C([H])([H])[H])C([H])([H])[H])C(C([H])([H])[H])(C([H])([H])[H])C([H])([H])[H])C([H])([H])c2c([H])c(OC([H])([H])C([H])([H])C([H])([H])OC([H])([H])C([H])([H])N([H])C(=O)C([H])([H])N([H])C(=O)C([H])([H])N([H])C(=O)C([H])([H])N([H])C(=O)C([H])([H])N([H])C(=O)N3C([H])([H])C([H])([H])C([H])([H])C([H])(n4nc(-c5c([H])c([H])c(Oc6c([H])c([H])c(F)c([H])c6F)c([H])c5[H])c(C(=O)N([H])[H])c4N([H])[H])C3([H])[H])c([H])c([H])c2C1([H])[H]

$$$$
15:0:0
     RDKit          3D

103110  0  0  1  0  0  0  0  0999 V2000
  -22.4970  -26.3180   19.7590 C   0  0  0  0  0  0  0  0  0  0  0  0
  -21.8760  -27.6020   20.2610 N   0  0  0  0  0  0  0  0  0  0  0  0
  -21.8330  -25.9050   18.8080 O   0  0  0  0  0  0  0  0  0  0  0  0
  -21.1960  -27.7080   19.5210 H   0  0  0  0  0  0  0  0  0  0  0  0
  -23.8240  -25.2090   20.0060 C   0  0  0  0  0  2  0  0  0  0  0  0
  -25.2310  -22.7220   19.2580 C   0  0  0  0  0  0  0  0  0  0  0  0
  -24.1290  -23.5850   19.7390 N   0  0  0  0  0  0  0  0  0  0  0  0
  -26.0640  -23.3310   18.5830 O   0  0  0  0  0  0  0  0  0  0  0  0
  -23.3970  -23.0410   20.1750 H   0  0  0  0  0  0  0  0  0  0  0  0
  -25.6040  -21.0070   19.4320 C   0  0  0  0  0  2  0  0  0  0  0  0
  -27.5180  -18.6590   19.1590 C   0  0  0  0  0  3  0  0  0  0  0  0
  -26.7760  -19.9170   18.9360 N   0  0  0  0  0  0  0  0  0  0  0  0
  -28.0020  -19.1330   18.1250 O   0  0  0  0  0  1  0  0  0  0  0  0
  -27.1820  -20.2470   18.0720 H   0  0  0  0  0  0  0  0  0  0  0  0
  -28.7350  -17.3720   18.8730 C   0  0  0  0  0  2  0  0  0  0  0  0
  -30.2720  -14.8800   19.2800 C   0  0  0  0  0  0  0  0  0  0  0  0
  -30.4180  -12.4230   18.5540 C   0  0  0  0  0  2  0  0  0  0  0  0
  -29.3510  -12.2360   17.4420 C   0  0  0  0  0  2  0  0  0  0  0  0
  -27.9430  -12.0490   18.0450 C   0  0  0  0  0  2  0  0  0  0  0  0
  -27.6790  -13.0470   19.2010 C   0  0  0  0  0  3  0  0  0  0  0  0
  -28.8240  -13.0620   20.2230 C   0  0  0  0  0  2  0  0  0  0  0  0
  -29.9610  -13.5300   19.4540 N   0  0  0  0  0  0  0  0  0  0  0  0
  -31.4120  -15.0600   18.8040 O   0  0  0  0  0  0  0  0  0  0  0  0
  -29.2150  -15.9020   19.4860 N   0  0  0  0  0  0  0  0  0  0  0  0
  -28.4360  -15.4680   19.9580 H   0  0  0  0  0  0  0  0  0  0  0  0
  -25.5580  -13.8170   20.3700 C   0  0  0  0  0  0  0  0  0  0  0  0
  -24.4910  -13.1140   20.8630 C   0  0  0  0  0  0  0  0  0  0  0  0
  -24.7880  -11.7350   20.6420 C   0  0  0  0  0  0  0  0  0  0  0  0
  -26.4170  -12.8520   19.8730 N   0  0  0  0  0  0  0  0  0  0  0  0
  -25.9880  -11.5900   20.1020 N   0  0  0  0  0  0  0  0  0  0  0  0
  -23.9690  -10.5390   20.8520 C   0  0  0  0  0  0  0  0  0  0  0  0
  -24.3450   -9.5430   21.7780 C   0  0  0  0  0  3  0  0  0  0  0  0
  -23.5300   -8.4080   21.9720 C   0  0  0  0  0  3  0  0  0  0  0  0
  -22.3250   -8.2690   21.2410 C   0  0  0  0  0  0  0  0  0  0  0  0
  -21.9720   -9.2510   20.3010 C   0  0  0  0  0  3  0  0  0  0  0  0
  -22.7870  -10.3770   20.1040 C   0  0  0  0  0  3  0  0  0  0  0  0
  -21.4820   -7.1900   21.3450 O   0  0  0  0  0  0  0  0  0  0  0  0
  -21.2710   -6.5580   22.5440 C   0  0  0  0  0  0  0  0  0  0  0  0
  -20.7510   -7.2410   23.6660 C   0  0  0  0  0  3  0  0  0  0  0  0
  -20.4810   -6.5360   24.8560 C   0  0  0  0  0  3  0  0  0  0  0  0
  -20.7260   -5.1510   24.9260 C   0  0  0  0  0  0  0  0  0  0  0  0
  -21.2370   -4.4690   23.8090 C   0  0  0  0  0  3  0  0  0  0  0  0
  -21.5080   -5.1710   22.6210 C   0  0  0  0  0  0  0  0  0  0  0  0
  -21.9820   -4.5070   21.5400 F   0  0  0  0  0  0  0  0  0  0  0  0
  -20.4590   -4.4730   26.0650 F   0  0  0  0  0  0  0  0  0  0  0  0
  -23.2240  -13.7050   21.3990 C   0  0  0  0  0  0  0  0  0  0  0  0
  -22.5820  -13.0120   22.3350 N   0  0  0  0  0  0  0  0  0  0  0  0
  -22.8220  -14.8040   21.0280 O   0  0  0  0  0  0  0  0  0  0  0  0
  -22.9310  -12.1230   22.6560 H   0  0  0  0  0  0  0  0  0  0  0  0
  -21.7310  -13.3790   22.7370 H   0  0  0  0  0  0  0  0  0  0  0  0
  -25.8520  -15.1720   20.2930 N   0  0  0  0  0  0  0  0  0  0  0  0
  -25.1730  -15.8590   20.6030 H   0  0  0  0  0  0  0  0  0  0  0  0
  -26.6030  -15.5820   19.7540 H   0  0  0  0  0  0  0  0  0  0  0  0
  -21.4670  -28.9720   21.2580 C   0  0  0  0  0  3  0  0  0  0  0  0
  -21.7960  -29.7120   22.9750 C   0  0  0  0  0  3  0  0  0  0  0  0
  -23.6170  -28.3530   25.1620 C   0  0  0  0  0  0  0  0  0  0  0  0
  -22.5630  -29.1730   24.4620 N   0  0  0  0  0  0  0  0  0  0  0  0
  -23.4120  -28.3450   26.3770 O   0  0  0  0  0  0  0  0  0  0  0  0
  -22.0530  -29.5810   25.2370 H   0  0  0  0  0  0  0  0  0  0  0  0
  -24.9610  -27.2510   24.7480 C   0  0  0  0  0  2  0  0  0  0  0  0
  -26.6560  -27.3080   24.1450 C   0  0  0  0  0  2  0  0  0  0  0  0
  -27.6360  -26.3300   23.1060 C   0  0  0  0  0  2  0  0  0  0  0  0
  -28.8840  -26.6410   22.1710 O   0  0  0  0  0  0  0  0  0  0  0  0
  -25.0640  -31.1650   23.0530 C   0  0  0  0  0  0  0  0  0  0  0  0
  -28.5680  -27.2430   21.0000 C   0  0  0  0  0  0  0  0  0  0  0  0
  -24.4670  -29.2890   21.3720 C   0  0  0  0  0  3  0  0  0  0  0  0
  -26.3120  -28.3960   20.0160 C   0  0  0  0  0  0  0  0  0  0  0  0
  -26.7240  -30.4140   21.4370 C   0  0  0  0  0  2  0  0  0  0  0  0
  -27.1880  -29.1310   20.8140 C   0  0  0  0  0  0  0  0  0  0  0  0
  -28.4090  -28.6000   21.1910 C   0  0  0  0  0  3  0  0  0  0  0  0
  -27.8500  -26.5410   20.0250 C   0  0  0  0  0  3  0  0  0  0  0  0
  -26.6680  -27.1290   19.5360 C   0  0  0  0  0  3  0  0  0  0  0  0
  -24.9380  -28.9480   19.9380 C   0  0  0  0  0  2  0  0  0  0  0  0
  -25.4210  -30.2540   22.0810 N   0  0  0  0  0  0  0  0  0  0  0  0
  -23.8790  -31.3900   23.3200 O   0  0  0  0  0  0  0  0  0  0  0  0
  -24.2540  -27.7950   22.0330 C   0  0  0  0  0  0  0  0  0  0  0  0
  -23.2540  -26.9170   22.5590 N   0  0  0  0  0  0  0  0  0  0  0  0
  -25.2070  -27.1660   22.2120 O   0  0  0  0  0  0  0  0  0  0  0  0
  -23.8410  -26.1410   22.8060 H   0  0  0  0  0  0  0  0  0  0  0  0
  -19.4000  -25.7230   22.1980 C   0  0  0  0  0  0  0  0  0  0  0  0
  -21.8210  -26.4600   23.0260 C   0  0  0  0  0  3  0  0  0  0  0  0
  -22.0640  -24.9620   22.9830 C   0  0  0  0  0  2  0  0  0  0  0  0
  -21.3460  -24.1650   21.8860 C   0  0  0  0  0  2  0  0  0  0  0  0
  -19.8670  -24.2940   22.0470 C   0  0  0  0  0  2  0  0  0  0  0  0
  -20.2630  -26.7700   22.6570 C   0  0  0  0  0  0  0  0  0  0  0  0
  -19.5560  -27.9800   22.9850 C   0  0  0  0  0  3  0  0  0  0  0  0
  -18.2190  -28.2340   22.5810 C   0  0  0  0  0  3  0  0  0  0  0  0
  -17.4200  -27.1740   22.1350 C   0  0  0  0  0  3  0  0  0  0  0  0
  -18.0110  -25.9160   22.0100 C   0  0  0  0  0  3  0  0  0  0  0  0
  -26.0830  -32.0910   23.8140 C   0  0  0  0  0  3  0  0  0  0  0  0
  -25.3730  -33.3370   24.1350 N   0  0  0  0  0  0  0  0  0  0  0  0
  -25.5160  -34.4860   23.4820 C   0  0  0  0  0  0  0  0  0  0  0  0
  -26.2880  -34.6160   22.5270 O   0  0  0  0  0  0  0  0  0  0  0  0
  -24.6760  -33.2750   24.8630 H   0  0  0  0  0  0  0  0  0  0  0  0
  -23.4440  -35.8490   23.0850 C   0  0  0  0  0  1  0  0  0  0  0  0
  -24.6820  -35.6900   23.9780 C   0  0  0  0  0  3  0  0  0  0  0  0
  -26.4890  -36.9680   25.0440 C   0  0  0  0  0  1  0  0  0  0  0  0
  -25.4520  -36.9540   24.0090 N   0  0  0  0  0  0  0  0  0  0  0  0
  -24.8340  -37.7480   24.1630 H   0  0  0  0  0  0  0  0  0  0  0  0
  -26.7030  -31.5500   25.1650 C   0  0  1  0  0  0  0  0  0  0  0  0
  -25.6510  -31.1170   26.2260 C   0  0  0  0  0  1  0  0  0  0  0  0
  -27.6560  -30.4030   24.9260 C   0  0  0  0  0  1  0  0  0  0  0  0
  -27.6030  -32.6190   25.8130 C   0  0  0  0  0  1  0  0  0  0  0  0
  1  5  1  0
  1  2  1  0
  2 54  1  0
  3  1  2  0
  4  2  1  0
  6 10  1  0
  6  7  1  0
  7  5  1  0
  7  9  1  0
  8  6  2  0
 11 13  1  0
 12 11  1  0
 12 10  1  0
 14 12  1  0
 15 11  1  0
 15 24  1  0
 16 22  1  0
 16 24  1  0
 17 22  1  0
 18 19  1  0
 18 17  1  0
 20 19  1  0
 20 29  1  0
 20 21  1  0
 22 21  1  0
 23 16  2  0
 24 25  1  0
 26 27  2  0
 27 46  1  0
 28 31  1  0
 28 27  1  0
 29 30  1  0
 29 26  1  0
 30 28  2  0
 31 32  1  0
 32 33  2  0
 34 37  1  0
 34 33  1  0
 35 34  2  0
 36 35  1  0
 36 31  2  0
 37 38  1  0
 38 43  2  0
 38 39  1  0
 39 40  2  0
 40 41  1  0
 41 45  1  0
 42 41  2  0
 43 42  1  0
 44 43  1  0
 46 47  1  0
 47 49  1  0
 47 50  1  0
 48 46  2  0
 51 26  1  0
 51 52  1  0
 53 51  1  0
 54 55  2  0
 55 57  1  0
 56 58  2  0
 57 56  1  0
 57 59  1  0
 60 56  1  0
 61 60  1  0
 62 61  1  0
 63 62  1  0
 64 75  2  0
 65 70  1  0
 65 63  1  0
 66 76  1  0
 66 74  1  0
 67 69  1  0
 68 74  1  0
 69 70  2  0
 69 68  1  0
 71 65  2  0
 72 67  2  0
 72 71  1  0
 73 67  1  0
 73 66  1  0
 74 64  1  0
 76 78  2  0
 76 77  1  0
 77 79  1  0
 80 85  1  0
 81 77  1  0
 82 81  1  0
 83 84  1  0
 83 82  1  0
 84 80  1  0
 85 86  2  0
 85 81  1  0
 87 86  1  0
 88 87  2  0
 89 88  1  0
 89 80  2  0
 90 64  1  0
 90 91  1  0
 90100  1  0
 91 94  1  0
 92 96  1  0
 92 91  1  0
 93 92  2  0
 96 95  1  0
 96 98  1  0
 98 99  1  0
 98 97  1  0
100103  1  1
100101  1  0
102100  1  0
M  ISO  4  16 100  24 100  62 101  63 101
M  END
>  <TORSDO>  (14) 
F 27

>  <SCORE>  (14) 
-10.248

>  <name>  (14) 
15

>  <ligand_id>  (14) 
15

>  <original_smiles>  (14) 
[H]c1c([H])c([H])c2c(c1[H])C([H])([H])C([H])([H])C([H])([H])C2([H])N([H])C(=O)C1([H])N(C(=O)C([H])(N([H])C(=O)C([H])(N([H])C([H])([H])[H])C([H])([H])[H])C(C([H])([H])[H])(C([H])([H])[H])C([H])([H])[H])C([H])([H])c2c([H])c(OC([H])([H])C([H])([H])C([H])([H])C(=O)N([H])C([H])([H])C([H])([H])N([H])C(=O)C([H])([H])N([H])C(=O)C([H])([H])N([H])C(=O)C([H])([H])N([H])C(=O)N3C([H])([H])C([H])([H])C([H])([H])C([H])(n4nc(-c5c([H])c([H])c(Oc6c([H])c([H])c(F)c([H])c6F)c([H])c5[H])c(C(=O)N([H])[H])c4N([H])[H])C3([H])[H])c([H])c([H])c2C1([H])[H]

>  <smiles>  (14) 
[H]c1c([H])c([H])c2c(c1[H])C([H])([H])C([H])([H])C([H])([H])C2([H])N([H])C(=O)C1([H])N(C(=O)C([H])(N([H])C(=O)C([H])(N([H])C([H])([H])[H])C([H])([H])[H])C(C([H])([H])[H])(C([H])([H])[H])C([H])([H])[H])C([H])([H])c2c([H])c(OC([H])([H])C([H])([H])C([H])([H])C(=O)N([H])C([H])([H])C([H])([H])N([H])C(=O)C([H])([H])N([H])C(=O)C([H])([H])N([H])C(=O)C([H])([H])N([H])C(=O)N3C([H])([H])C([H])([H])C([H])([H])C([H])(n4nc(-c5c([H])c([H])c(Oc6c([H])c([H])c(F)c([H])c6F)c([H])c5[H])c(C(=O)N([H])[H])c4N([H])[H])C3([H])[H])c([H])c([H])c2C1([H])[H]

$$$$
16:0:0
     RDKit          3D

111113  0  0  1  0  0  0  0  0999 V2000
  -17.8100  -22.8440   21.3950 C   0  0  0  0  0  0  0  0  0  0  0  0
  -19.0670  -22.5850   20.9360 N   0  0  0  0  0  0  0  0  0  0  0  0
  -16.8180  -22.4810   20.7700 O   0  0  0  0  0  0  0  0  0  0  0  0
  -19.7980  -22.8970   21.5590 H   0  0  0  0  0  0  0  0  0  0  0  0
  -17.5790  -23.6700   22.7380 C   0  0  0  0  0  2  0  0  0  0  0  0
  -17.7520  -26.2590   22.8640 C   0  0  0  0  0  0  0  0  0  0  0  0
  -17.1060  -25.0860   22.5320 N   0  0  0  0  0  0  0  0  0  0  0  0
  -18.1490  -26.4060   24.0180 O   0  0  0  0  0  0  0  0  0  0  0  0
  -16.6450  -25.1390   21.6380 H   0  0  0  0  0  0  0  0  0  0  0  0
  -18.2820  -27.3170   21.6670 C   0  0  0  0  0  3  0  0  0  0  0  0
  -21.0670  -25.9610   19.0740 C   0  0  0  0  0  2  0  0  0  0  0  0
  -19.6820  -27.0130   19.4310 N   0  0  0  0  0  0  0  0  0  0  0  0
  -21.5330  -26.2790   17.9870 O   0  0  0  0  0  1  0  0  0  0  0  0
  -19.4810  -27.7070   18.7250 H   0  0  0  0  0  0  0  0  0  0  0  0
  -22.3140  -24.3520   19.7290 C   0  0  0  0  0 15  0  0  0  0  0  0
  -24.8080  -21.6770   19.5390 C   0  0  0  0  0  2  0  0  0  0  0  0
  -23.9670  -23.1780   19.5570 N   0  0  0  0  0  2  0  0  0  0  0  0
  -23.9440  -20.8050   19.5570 O   0  0  0  0  0  1  0  0  0  0  0  0
  -24.7350  -23.8270   19.5640 H   0  0  0  0  0  0  0  0  0  0  0  0
  -26.6670  -20.6320   19.5150 C   0  0  0  0  0 15  0  0  0  0  0  0
  -29.1870  -17.9910   20.0070 C   0  0  0  0  0  0  0  0  0  0  0  0
  -30.6250  -15.5520   19.7690 C   0  0  0  0  0  2  0  0  0  0  0  0
  -30.2380  -14.5040   18.6600 C   0  0  0  0  0  2  0  0  0  0  0  0
  -28.9190  -13.7960   19.0150 C   0  0  0  0  0  2  0  0  0  0  0  0
  -27.9850  -14.8200   19.6870 C   0  0  0  0  0  3  0  0  0  0  0  0
  -28.6050  -15.5470   20.8640 C   0  0  0  0  0  2  0  0  0  0  0  0
  -29.4410  -16.5130   20.1900 N   0  0  0  0  0  0  0  0  0  0  0  0
  -30.4220  -18.3250   19.9390 O   0  0  0  0  0  0  0  0  0  0  0  0
  -27.7510  -18.9420   19.8060 N   0  0  0  0  0  2  0  0  0  0  0  0
  -27.0340  -18.2240   19.7930 H   0  0  0  0  0  0  0  0  0  0  0  0
  -25.6230  -15.1770   20.3600 C   0  0  0  0  0  0  0  0  0  0  0  0
  -24.6270  -14.3140   20.6960 C   0  0  0  0  0  0  0  0  0  0  0  0
  -25.2100  -13.0070   20.6680 C   0  0  0  0  0  0  0  0  0  0  0  0
  -26.7090  -14.3700   20.1050 N   0  0  0  0  0  0  0  0  0  0  0  0
  -26.5010  -13.0700   20.3870 N   0  0  0  0  0  0  0  0  0  0  0  0
  -24.5980  -11.6920   20.8100 C   0  0  0  0  0  0  0  0  0  0  0  0
  -24.9920  -10.8010   21.8300 C   0  0  0  0  0  3  0  0  0  0  0  0
  -24.3760   -9.5400   21.9440 C   0  0  0  0  0  3  0  0  0  0  0  0
  -23.3560   -9.1650   21.0380 C   0  0  0  0  0  0  0  0  0  0  0  0
  -22.9880  -10.0480   20.0080 C   0  0  0  0  0  3  0  0  0  0  0  0
  -23.6070  -11.3010   19.8890 C   0  0  0  0  0  3  0  0  0  0  0  0
  -22.7080   -7.9560   21.0620 O   0  0  0  0  0  0  0  0  0  0  0  0
  -22.3720   -7.3500   22.2430 C   0  0  0  0  0  0  0  0  0  0  0  0
  -21.6070   -8.0100   23.2270 C   0  0  0  0  0  3  0  0  0  0  0  0
  -21.2260   -7.3240   24.3980 C   0  0  0  0  0  3  0  0  0  0  0  0
  -21.5990   -5.9780   24.5790 C   0  0  0  0  0  0  0  0  0  0  0  0
  -22.3590   -5.3190   23.5950 C   0  0  0  0  0  3  0  0  0  0  0  0
  -22.7420   -6.0040   22.4290 C   0  0  0  0  0  0  0  0  0  0  0  0
  -23.4590   -5.3600   21.4750 F   0  0  0  0  0  0  0  0  0  0  0  0
  -21.2240   -5.3130   25.6970 F   0  0  0  0  0  0  0  0  0  0  0  0
  -23.1900  -14.6770   20.8960 C   0  0  0  0  0  0  0  0  0  0  0  0
  -22.4750  -13.9250   21.7250 N   0  0  0  0  0  0  0  0  0  0  0  0
  -22.7080  -15.6640   20.3400 O   0  0  0  0  0  0  0  0  0  0  0  0
  -22.8760  -13.1290   22.2000 H   0  0  0  0  0  0  0  0  0  0  0  0
  -21.5030  -14.1470   21.8880 H   0  0  0  0  0  0  0  0  0  0  0  0
  -25.7120  -16.5620   20.2090 N   0  0  0  0  0  0  0  0  0  0  0  0
  -24.8420  -17.0830   20.2440 H   0  0  0  0  0  0  0  0  0  0  0  0
  -26.2960  -16.8670   19.4390 H   0  0  0  0  0  0  0  0  0  0  0  0
  -19.5930  -21.9800   19.6550 C   0  0  0  0  0  2  0  0  0  0  0  0
  -19.4820  -22.7890   18.3040 C   0  0  0  0  0  0  0  0  0  0  0  0
  -20.5010  -22.7330   17.3910 N   0  0  0  0  0  0  0  0  0  0  0  0
  -18.4740  -23.4630   18.0930 O   0  0  0  0  0  0  0  0  0  0  0  0
  -21.1110  -21.9330   17.4870 H   0  0  0  0  0  0  0  0  0  0  0  0
  -20.6800  -23.4920   16.1060 C   0  0  0  0  0  2  0  0  0  0  0  0
  -22.1660  -23.7780   15.5760 C   0  0  0  0  0  2  0  0  0  0  0  0
  -22.9680  -24.9220   16.1810 N   0  0  0  0  0  4  0  0  0  0  0  0
  -22.5740  -25.7830   15.8240 H   0  0  0  0  0  0  0  0  0  0  0  0
  -22.7740  -24.9400   17.1730 H   0  0  0  0  0  0  0  0  0  0  0  0
  -24.4810  -24.9680   15.9510 C   0  0  0  0  0  2  0  0  0  0  0  0
  -25.4520  -25.3330   17.1920 C   0  0  0  0  0  2  0  0  0  0  0  0
  -26.4320  -26.4610   17.2080 O   0  0  0  0  0  0  0  0  0  0  0  0
  -25.2850  -30.0330   23.3590 C   0  0  0  0  0  0  0  0  0  0  0  0
  -25.9330  -27.5640   17.8690 C   0  0  0  0  0  0  0  0  0  0  0  0
  -23.6480  -30.1720   21.5400 C   0  0  0  0  0  3  0  0  0  0  0  0
  -24.4160  -29.4860   19.2460 C   0  0  0  0  0  0  0  0  0  0  0  0
  -26.1370  -29.8010   21.0170 C   0  0  0  0  0  2  0  0  0  0  0  0
  -25.6760  -29.1180   19.7420 C   0  0  0  0  0  0  0  0  0  0  0  0
  -26.4480  -28.1300   19.0660 C   0  0  0  0  0  3  0  0  0  0  0  0
  -24.7730  -28.1240   17.3210 C   0  0  0  0  0  3  0  0  0  0  0  0
  -23.9620  -28.9950   18.0300 C   0  0  0  0  0  3  0  0  0  0  0  0
  -23.5810  -30.4580   20.0250 C   0  0  0  0  0  2  0  0  0  0  0  0
  -25.0580  -30.0160   22.0170 N   0  0  0  0  0  0  0  0  0  0  0  0
  -24.3740  -30.2660   24.1640 O   0  0  0  0  0  0  0  0  0  0  0  0
  -22.8470  -28.8890   21.8460 C   0  0  0  0  0  0  0  0  0  0  0  0
  -21.5420  -28.9590   21.9040 N   0  0  0  0  0  0  0  0  0  0  0  0
  -23.3790  -27.8050   22.0370 O   0  0  0  0  0  0  0  0  0  0  0  0
  -21.1140  -29.8650   21.7690 H   0  0  0  0  0  0  0  0  0  0  0  0
  -18.0810  -29.3180   21.9500 C   0  0  0  0  0  0  0  0  0  0  0  0
  -20.6600  -27.8990   22.3900 C   0  0  0  0  0  2  0  0  0  0  0  0
  -20.2930  -26.0120   21.4170 C   0  0  0  0  0 15  0  0  0  0  0  0
  -18.3120  -26.1560   20.2160 C   0  0  0  0  0  2  0  0  0  0  0  0
  -17.4830  -28.1700   20.5690 C   0  0  0  0  0  2  0  0  0  0  0  0
  -19.4480  -29.1570   22.7070 C   0  0  0  0  0  0  0  0  0  0  0  0
  -19.6160  -29.7840   24.0160 C   0  0  0  0  0  3  0  0  0  0  0  0
  -18.5870  -30.4290   24.7440 C   0  0  0  0  0  3  0  0  0  0  0  0
  -17.3100  -30.4510   24.1740 C   0  0  0  0  0  3  0  0  0  0  0  0
  -17.0890  -29.9180   22.8550 C   0  0  0  0  0  3  0  0  0  0  0  0
  -26.7070  -29.7630   23.9290 C   0  0  0  0  0  3  0  0  0  0  0  0
  -26.9380  -30.7610   24.9740 N   0  0  0  0  0  0  0  0  0  0  0  0
  -27.6530  -31.8810   24.8040 C   0  0  0  0  0  0  0  0  0  0  0  0
  -28.2540  -32.1400   23.7570 O   0  0  0  0  0  0  0  0  0  0  0  0
  -26.4310  -30.6500   25.8400 H   0  0  0  0  0  0  0  0  0  0  0  0
  -26.7600  -34.0400   25.7280 C   0  0  0  0  0  1  0  0  0  0  0  0
  -27.7130  -32.8610   25.9830 C   0  0  0  0  0  3  0  0  0  0  0  0
  -29.9870  -32.3580   26.7610 C   0  0  0  0  0  1  0  0  0  0  0  0
  -29.0730  -33.3770   26.2490 N   0  0  0  0  0  0  0  0  0  0  0  0
  -29.0420  -34.1420   26.9170 H   0  0  0  0  0  0  0  0  0  0  0  0
  -26.8830  -28.3010   24.4940 C   0  0  1  0  0  0  0  0  0  0  0  0
  -25.7820  -27.8830   25.4940 C   0  0  0  0  0  1  0  0  0  0  0  0
  -26.9050  -27.2550   23.3530 C   0  0  0  0  0  1  0  0  0  0  0  0
  -28.2490  -28.1930   25.2090 C   0  0  0  0  0  1  0  0  0  0  0  0
  1  5  1  0
  2  1  1  0
  2  4  1  0
  3  1  2  0
  6  8  2  0
  7  5  1  0
  7  6  1  0
  9  7  1  0
 10 91  1  0
 10  6  1  0
 11 12  1  0
 12 91  1  0
 13 11  1  0
 14 12  1  0
 16 18  1  0
 16 17  1  0
 17 19  1  0
 21 27  1  0
 22 27  1  0
 23 24  1  0
 23 22  1  0
 25 24  1  0
 25 34  1  0
 25 26  1  0
 27 26  1  0
 28 21  2  0
 29 21  1  0
 30 29  1  0
 31 32  2  0
 32 51  1  0
 33 32  1  0
 33 36  1  0
 34 31  1  0
 34 35  1  0
 35 33  2  0
 36 37  1  0
 37 38  2  0
 39 42  1  0
 39 38  1  0
 40 39  2  0
 41 40  1  0
 41 36  2  0
 42 43  1  0
 43 48  2  0
 43 44  1  0
 44 45  2  0
 45 46  1  0
 46 50  1  0
 47 46  2  0
 48 47  1  0
 49 48  1  0
 51 52  1  0
 52 55  1  0
 52 54  1  0
 53 51  2  0
 56 57  1  0
 56 31  1  0
 58 56  1  0
 59  2  1  0
 60 59  1  0
 61 63  1  0
 61 60  1  0
 62 60  2  0
 64 61  1  0
 65 64  1  0
 65 66  1  0
 66 68  1  0
 67 66  1  0
 69 66  1  0
 69 70  1  0
 70 71  1  0
 71 73  1  0
 72 83  2  0
 73 78  1  0
 74 81  1  0
 74 84  1  0
 74 82  1  0
 75 77  1  0
 75 81  1  0
 76 82  1  0
 77 76  1  0
 78 77  2  0
 79 73  2  0
 79 80  1  0
 80 75  2  0
 82 72  1  0
 84 85  1  0
 84 86  2  0
 85 89  1  0
 87 85  1  0
 88 93  2  0
 88 97  1  0
 89 93  1  0
 92 10  1  0
 92 88  1  0
 93 94  1  0
 94 95  2  0
 96 95  1  0
 97 96  2  0
 98 72  1  0
 98108  1  0
 98 99  1  0
 99102  1  0
100 99  1  0
100104  1  0
101100  2  0
104103  1  0
104106  1  0
106105  1  0
106107  1  0
108111  1  1
108109  1  0
110108  1  0
M  ISO  4  21 100  29 100  70 101  71 101
M  END
>  <TORSDO>  (15) 
F 30

>  <SCORE>  (15) 
-3.554

>  <name>  (15) 
16

>  <ligand_id>  (15) 
16

>  <original_smiles>  (15) 
[H]c1c([H])c([H])c2c(c1[H])C([H])([H])C([H])([H])C([H])([H])C2([H])N([H])C(=O)C1([H])N(C(=O)C([H])(N([H])C(=O)C([H])(N([H])C([H])([H])[H])C([H])([H])[H])C(C([H])([H])[H])(C([H])([H])[H])C([H])([H])[H])C([H])([H])c2c([H])c(OC([H])([H])C([H])([H])[N+]([H])([H])C([H])([H])C([H])([H])N([H])C(=O)C([H])([H])N([H])C(=O)C([H])([H])N([H])C(=O)C([H])([H])N([H])C(=O)C([H])([H])N([H])C(=O)C([H])([H])N([H])C(=O)N3C([H])([H])C([H])([H])C([H])([H])C([H])(n4nc(-c5c([H])c([H])c(Oc6c([H])c([H])c(F)c([H])c6F)c([H])c5[H])c(C(=O)N([H])[H])c4N([H])[H])C3([H])[H])c([H])c([H])c2C1([H])[H]

>  <smiles>  (15) 
[H]c1c([H])c([H])c2c(c1[H])C([H])([H])C([H])([H])C([H])([H])C2([H])N([H])C(=O)C1([H])N(C(=O)C([H])(N([H])C(=O)C([H])(N([H])C([H])([H])[H])C([H])([H])[H])C(C([H])([H])[H])(C([H])([H])[H])C([H])([H])[H])C([H])([H])c2c([H])c(OC([H])([H])C([H])([H])[N+]([H])([H])C([H])([H])C([H])([H])N([H])C(=O)C([H])([H])N([H])C(=O)C([H])([H])N([H])C(=O)C([H])([H])N([H])C(=O)C([H])([H])N([H])C(=O)C([H])([H])N([H])C(=O)N3C([H])([H])C([H])([H])C([H])([H])C([H])(n4nc(-c5c([H])c([H])c(Oc6c([H])c([H])c(F)c([H])c6F)c([H])c5[H])c(C(=O)N([H])[H])c4N([H])[H])C3([H])[H])c([H])c([H])c2C1([H])[H]

$$$$
17:0:0
     RDKit          3D

108114  0  0  1  0  0  0  0  0999 V2000
  -20.0340  -19.8010   22.4450 C   0  0  0  0  0  0  0  0  0  0  0  0
  -20.0400  -20.8090   21.5590 N   0  0  0  0  0  0  0  0  0  0  0  0
  -19.4150  -19.8720   23.5070 O   0  0  0  0  0  0  0  0  0  0  0  0
  -20.6120  -20.7000   20.7290 H   0  0  0  0  0  0  0  0  0  0  0  0
  -20.7740  -18.5130   22.0750 C   0  0  0  0  0  2  0  0  0  0  0  0
  -22.4550  -17.0050   23.0650 C   0  0  0  0  0  0  0  0  0  0  0  0
  -21.7770  -18.1570   23.0750 N   0  0  0  0  0  0  0  0  0  0  0  0
  -22.2460  -16.1250   22.2290 O   0  0  0  0  0  0  0  0  0  0  0  0
  -21.9970  -18.8490   23.7780 H   0  0  0  0  0  0  0  0  0  0  0  0
  -23.5270  -16.7870   24.1430 C   0  0  0  0  0  2  0  0  0  0  0  0
  -25.1400  -15.1610   23.1200 C   0  0  0  0  0  0  0  0  0  0  0  0
  -24.1700  -15.4690   23.9970 N   0  0  0  0  0  0  0  0  0  0  0  0
  -25.6350  -15.9990   22.3650 O   0  0  0  0  0  0  0  0  0  0  0  0
  -23.7870  -14.7310   24.5720 H   0  0  0  0  0  0  0  0  0  0  0  0
  -25.6170  -13.6840   23.0690 C   0  0  0  0  0  2  0  0  0  0  0  0
  -27.4260  -12.7200   21.2540 C   0  0  0  0  0  3  0  0  0  0  0  0
  -26.8920  -13.4460   22.3320 N   0  0  0  0  0  0  0  0  0  0  0  0
  -26.3270  -11.1120   19.5860 O   0  0  0  0  0  0  0  0  0  0  0  0
  -27.6170  -14.0050   22.7540 H   0  0  0  0  0  0  0  0  0  0  0  0
  -29.0680  -13.3300   21.7310 C   0  0  0  0  0  2  0  0  0  0  0  0
  -31.6220  -13.3250   20.2640 C   0  0  0  0  0  0  0  0  0  0  0  0
  -31.8480  -11.0350   19.0590 C   0  0  0  0  0  2  0  0  0  0  0  0
  -30.9560  -10.4430   17.9170 C   0  0  0  0  0  2  0  0  0  0  0  0
  -29.4410  -10.4740   18.1820 C   0  0  0  0  0  2  0  0  0  0  0  0
  -29.1440  -11.9020   18.4370 C   0  0  0  0  0  3  0  0  0  0  0  0
  -29.8970  -12.3120   19.5070 C   0  0  0  0  0  3  0  0  0  0  0  0
  -31.2410  -12.2290   19.6330 N   0  0  0  0  0  0  0  0  0  0  0  0
  -32.7190  -13.7910   19.8750 O   0  0  0  0  0  0  0  0  0  0  0  0
  -30.6220  -13.7790   21.2450 N   0  0  0  0  0  0  0  0  0  0  0  0
  -30.9550  -14.5820   21.7520 H   0  0  0  0  0  0  0  0  0  0  0  0
  -26.9030  -13.8260   19.7180 C   0  0  0  0  0  3  0  0  0  0  0  0
  -25.3350  -13.2730   20.6570 C   0  0  0  0  0  2  0  0  0  0  0  0
  -25.3060  -11.1990   20.9040 C   0  0  0  0  0  2  0  0  0  0  0  0
  -28.0500  -12.1280   19.1980 N   0  0  0  0  0  2  0  0  0  0  0  0
  -27.0090  -10.4180   20.0340 N   0  0  0  0  0  1  0  0  0  0  0  0
  -24.2290  -10.3410   20.7710 C   0  0  0  0  0  0  0  0  0  0  0  0
  -24.5120   -9.0520   21.1660 C   0  0  0  0  0  3  0  0  0  0  0  0
  -23.4850   -8.1220   21.1490 C   0  0  0  0  0  3  0  0  0  0  0  0
  -22.1960   -8.5090   20.7230 C   0  0  0  0  0  0  0  0  0  0  0  0
  -21.9620   -9.7940   20.1950 C   0  0  0  0  0  3  0  0  0  0  0  0
  -23.0010  -10.7300   20.1970 C   0  0  0  0  0  3  0  0  0  0  0  0
  -21.1350   -7.6570   20.8190 O   0  0  0  0  0  0  0  0  0  0  0  0
  -21.2380   -6.5450   21.6010 C   0  0  0  0  0  0  0  0  0  0  0  0
  -21.6030   -6.6170   22.9710 C   0  0  0  0  0  3  0  0  0  0  0  0
  -21.6400   -5.4460   23.7470 C   0  0  0  0  0  3  0  0  0  0  0  0
  -21.3090   -4.2070   23.1700 C   0  0  0  0  0  0  0  0  0  0  0  0
  -20.9610   -4.1320   21.8130 C   0  0  0  0  0  3  0  0  0  0  0  0
  -20.9290   -5.2970   21.0310 C   0  0  0  0  0  0  0  0  0  0  0  0
  -20.5870   -5.2290   19.7210 F   0  0  0  0  0  0  0  0  0  0  0  0
  -21.3170   -3.0830   23.9260 F   0  0  0  0  0  0  0  0  0  0  0  0
  -24.0890  -14.0090   20.5360 C   0  0  0  0  0  0  0  0  0  0  0  0
  -23.0440  -13.4730   21.1360 N   0  0  0  0  0  0  0  0  0  0  0  0
  -24.0530  -15.0690   19.9190 O   0  0  0  0  0  0  0  0  0  0  0  0
  -23.0720  -12.5650   21.5790 H   0  0  0  0  0  0  0  0  0  0  0  0
  -22.1830  -13.9940   21.1530 H   0  0  0  0  0  0  0  0  0  0  0  0
  -27.3750  -15.0430   19.3610 N   0  0  0  0  0  0  0  0  0  0  0  0
  -26.8180  -15.8870   19.4550 H   0  0  0  0  0  0  0  0  0  0  0  0
  -28.1760  -15.1660   18.7580 H   0  0  0  0  0  0  0  0  0  0  0  0
  -19.1460  -21.9730   21.5980 C   0  0  0  0  0  2  0  0  0  0  0  0
  -19.8470  -23.3530   21.7400 C   0  0  0  0  0  2  0  0  0  0  0  0
  -20.4560  -23.7790   20.4490 N   0  0  0  0  0  4  0  0  0  0  0  0
  -20.7780  -22.9450   19.9820 H   0  0  0  0  0  0  0  0  0  0  0  0
  -19.7050  -24.1680   19.9040 H   0  0  0  0  0  0  0  0  0  0  0  0
  -21.5790  -24.7690   20.5000 C   0  0  0  0  0  2  0  0  0  0  0  0
  -22.3370  -24.9170   19.1300 C   0  0  0  0  0  2  0  0  0  0  0  0
  -23.7520  -24.2370   18.9360 C   0  0  0  0  0  2  0  0  0  0  0  0
  -25.1290  -25.0250   18.9970 C   0  0  0  0  0  2  0  0  0  0  0  0
  -25.4560  -26.1450   18.1020 O   0  0  0  0  0  0  0  0  0  0  0  0
  -24.8450  -30.0000   23.9630 C   0  0  0  0  0  0  0  0  0  0  0  0
  -24.8930  -27.2770   18.6210 C   0  0  0  0  0  0  0  0  0  0  0  0
  -22.8870  -29.9150   22.4540 C   0  0  0  0  0  3  0  0  0  0  0  0
  -23.3460  -29.1070   20.0740 C   0  0  0  0  0  0  0  0  0  0  0  0
  -25.2630  -29.7790   21.5260 C   0  0  0  0  0  2  0  0  0  0  0  0
  -24.7040  -28.9510   20.3840 C   0  0  0  0  0  0  0  0  0  0  0  0
  -25.4850  -28.0170   19.6660 C   0  0  0  0  0  3  0  0  0  0  0  0
  -23.5760  -27.5580   18.2250 C   0  0  0  0  0  3  0  0  0  0  0  0
  -22.7820  -28.4320   18.9800 C   0  0  0  0  0  3  0  0  0  0  0  0
  -22.5340  -30.0340   20.9470 C   0  0  0  0  0  2  0  0  0  0  0  0
  -24.3670  -29.8750   22.6960 N   0  0  0  0  0  0  0  0  0  0  0  0
  -24.0810  -30.1850   24.9160 O   0  0  0  0  0  0  0  0  0  0  0  0
  -22.1380  -28.7080   23.0630 C   0  0  0  0  0  0  0  0  0  0  0  0
  -20.8030  -28.6980   22.9140 N   0  0  0  0  0  0  0  0  0  0  0  0
  -22.7500  -27.7980   23.6270 O   0  0  0  0  0  0  0  0  0  0  0  0
  -20.3700  -29.4770   22.4410 H   0  0  0  0  0  0  0  0  0  0  0  0
  -17.4200  -27.4670   22.6550 C   0  0  0  0  0  0  0  0  0  0  0  0
  -19.8930  -27.6580   23.3800 C   0  0  0  0  0  3  0  0  0  0  0  0
  -20.1240  -26.3420   22.6040 C   0  0  0  0  0  2  0  0  0  0  0  0
  -19.1990  -26.1820   21.3920 C   0  0  0  0  0  2  0  0  0  0  0  0
  -17.7320  -26.2440   21.8120 C   0  0  0  0  0  2  0  0  0  0  0  0
  -18.4360  -28.1400   23.3810 C   0  0  0  0  0  0  0  0  0  0  0  0
  -18.0970  -29.2890   24.1260 C   0  0  0  0  0  3  0  0  0  0  0  0
  -16.7750  -29.7720   24.1540 C   0  0  0  0  0  3  0  0  0  0  0  0
  -15.7700  -29.0950   23.4410 C   0  0  0  0  0  3  0  0  0  0  0  0
  -16.0920  -27.9440   22.7010 C   0  0  0  0  0  3  0  0  0  0  0  0
  -26.3750  -29.9380   24.2700 C   0  0  0  0  0  3  0  0  0  0  0  0
  -26.7600  -31.2370   24.8350 N   0  0  0  0  0  0  0  0  0  0  0  0
  -27.3860  -32.2050   24.1510 C   0  0  0  0  0  0  0  0  0  0  0  0
  -27.7630  -32.0660   22.9830 O   0  0  0  0  0  0  0  0  0  0  0  0
  -26.4500  -31.4430   25.7730 H   0  0  0  0  0  0  0  0  0  0  0  0
  -26.6200  -34.5890   24.3810 C   0  0  0  0  0  1  0  0  0  0  0  0
  -27.6250  -33.5400   24.8820 C   0  0  0  0  0  3  0  0  0  0  0  0
  -29.9990  -33.2540   25.4300 C   0  0  0  0  0  1  0  0  0  0  0  0
  -29.0010  -34.0580   24.7290 N   0  0  0  0  0  0  0  0  0  0  0  0
  -29.0670  -35.0120   25.0700 H   0  0  0  0  0  0  0  0  0  0  0  0
  -26.7710  -28.7630   25.2430 C   0  0  1  0  0  0  0  0  0  0  0  0
  -25.9540  -28.7470   26.5540 C   0  0  0  0  0  1  0  0  0  0  0  0
  -26.5900  -27.3930   24.5440 C   0  0  0  0  0  1  0  0  0  0  0  0
  -28.2670  -28.8800   25.6320 C   0  0  0  0  0  1  0  0  0  0  0  0
  1  3  2  0
  2 59  1  0
  2  1  1  0
  4  2  1  0
  5  1  1  0
  5  7  1  0
  6  7  1  0
  6 10  1  0
  7  9  1  0
  8  6  2  0
 11 12  1  0
 12 10  1  0
 12 14  1  0
 13 11  2  0
 15 11  1  0
 16 20  1  0
 16 17  1  0
 17 19  1  0
 17 15  1  0
 18 35  1  0
 18 33  1  0
 21 29  1  0
 22 27  1  0
 23 24  1  0
 23 22  1  0
 25 24  1  0
 25 34  1  0
 25 26  1  0
 26 34  1  0
 26 27  1  0
 27 21  1  0
 28 21  2  0
 29 20  1  0
 29 30  1  0
 31 32  1  0
 31 16  1  0
 36 33  1  0
 36 37  1  0
 38 37  2  0
 39 42  1  0
 39 38  1  0
 40 41  1  0
 40 39  2  0
 41 36  2  0
 42 43  1  0
 43 44  1  0
 44 45  2  0
 46 45  1  0
 46 50  1  0
 47 46  2  0
 48 43  2  0
 48 47  1  0
 49 48  1  0
 51 32  1  0
 51 52  1  0
 52 55  1  0
 52 54  1  0
 53 51  2  0
 56 57  1  0
 56 31  1  0
 58 56  1  0
 59 60  1  0
 61 64  1  0
 61 60  1  0
 62 61  1  0
 63 61  1  0
 65 64  1  0
 66 67  1  0
 66 65  1  0
 68 70  1  0
 68 67  1  0
 69 80  2  0
 70 75  1  0
 71 79  1  0
 71 81  1  0
 72 74  1  0
 72 78  1  0
 73 79  1  0
 74 73  1  0
 75 74  2  0
 76 70  2  0
 76 77  1  0
 77 72  2  0
 78 71  1  0
 79 69  1  0
 81 83  2  0
 82 81  1  0
 84 82  1  0
 85 94  2  0
 85 90  1  0
 86 82  1  0
 86 90  1  0
 87 86  1  0
 88 89  1  0
 88 87  1  0
 89 85  1  0
 90 91  2  0
 91 92  1  0
 93 92  2  0
 94 93  1  0
 95 69  1  0
 95 96  1  0
 95105  1  0
 96 99  1  0
 97 96  1  0
 97101  1  0
 98 97  2  0
101100  1  0
103101  1  0
103104  1  0
103102  1  0
105108  1  1
105106  1  0
107105  1  0
M  ISO  4  21 100  29 100  67 101  68 101
M  END
>  <TORSDO>  (16) 
F 30

>  <SCORE>  (16) 
41.551

>  <name>  (16) 
17

>  <ligand_id>  (16) 
17

>  <original_smiles>  (16) 
[H]c1c([H])c([H])c2c(c1[H])C([H])([H])C([H])([H])C([H])([H])C2([H])N([H])C(=O)C1([H])N(C(=O)C([H])(N([H])C(=O)C([H])(N([H])C([H])([H])[H])C([H])([H])[H])C(C([H])([H])[H])(C([H])([H])[H])C([H])([H])[H])C([H])([H])c2c([H])c(OC([H])([H])C([H])([H])C([H])([H])C([H])([H])[N+]([H])([H])C([H])([H])C([H])([H])N([H])C(=O)C([H])([H])N([H])C(=O)C([H])([H])N([H])C(=O)C([H])([H])N([H])C(=O)C([H])([H])N([H])C(=O)N3C([H])([H])C([H])([H])C([H])([H])C([H])(n4nc(-c5c([H])c([H])c(Oc6c([H])c([H])c(F)c([H])c6F)c([H])c5[H])c(C(=O)N([H])[H])c4N([H])[H])C3([H])[H])c([H])c([H])c2C1([H])[H]

>  <smiles>  (16) 
[H]c1c([H])c([H])c2c(c1[H])C([H])([H])C([H])([H])C([H])([H])C2([H])N([H])C(=O)C1([H])N(C(=O)C([H])(N([H])C(=O)C([H])(N([H])C([H])([H])[H])C([H])([H])[H])C(C([H])([H])[H])(C([H])([H])[H])C([H])([H])[H])C([H])([H])c2c([H])c(OC([H])([H])C([H])([H])C([H])([H])C([H])([H])[N+]([H])([H])C([H])([H])C([H])([H])N([H])C(=O)C([H])([H])N([H])C(=O)C([H])([H])N([H])C(=O)C([H])([H])N([H])C(=O)C([H])([H])N([H])C(=O)N3C([H])([H])C([H])([H])C([H])([H])C([H])(n4nc(-c5c([H])c([H])c(Oc6c([H])c([H])c(F)c([H])c6F)c([H])c5[H])c(C(=O)N([H])[H])c4N([H])[H])C3([H])[H])c([H])c([H])c2C1([H])[H]

$$$$
18:0:0
     RDKit          3D

 99106  0  0  1  0  0  0  0  0999 V2000
  -33.0950  -21.6360   17.8700 C   0  0  0  0  0  0  0  0  0  0  0  0
  -31.8340  -21.5270   17.4270 N   0  0  0  0  0  0  0  0  0  0  0  0
  -34.0110  -21.6980   17.0510 O   0  0  0  0  0  0  0  0  0  0  0  0
  -31.7590  -21.4750   16.4200 H   0  0  0  0  0  0  0  0  0  0  0  0
  -33.4380  -21.6870   19.3630 C   0  0  0  0  0  2  0  0  0  0  0  0
  -32.6360  -20.7730   21.5000 C   0  0  0  0  0  0  0  0  0  0  0  0
  -32.7880  -20.6580   20.1740 N   0  0  0  0  0  0  0  0  0  0  0  0
  -33.0580  -21.7520   22.1180 O   0  0  0  0  0  0  0  0  0  0  0  0
  -32.4930  -19.8110   19.7090 H   0  0  0  0  0  0  0  0  0  0  0  0
  -31.8940  -19.6790   22.2720 C   0  0  0  0  0  2  0  0  0  0  0  0
  -30.7180  -17.5530   21.8230 C   0  0  0  0  0  0  0  0  0  0  0  0
  -31.1640  -18.7450   21.4210 N   0  0  0  0  0  0  0  0  0  0  0  0
  -30.9130  -17.1130   22.9590 O   0  0  0  0  0  0  0  0  0  0  0  0
  -30.9350  -19.0520   20.4860 H   0  0  0  0  0  0  0  0  0  0  0  0
  -29.8810  -16.7710   20.8150 C   0  0  0  0  0  2  0  0  0  0  0  0
  -30.5720  -14.4110   20.4680 C   0  0  0  0  0  0  0  0  0  0  0  0
  -30.3050  -12.2930   19.2430 C   0  0  0  0  0  2  0  0  0  0  0  0
  -29.3370  -12.5410   18.0660 C   0  0  0  0  0  2  0  0  0  0  0  0
  -27.8670  -12.3900   18.5150 C   0  0  0  0  0  2  0  0  0  0  0  0
  -27.5500  -13.1900   19.8060 C   0  0  0  0  0  3  0  0  0  0  0  0
  -28.6140  -12.8950   20.8890 C   0  0  0  0  0  2  0  0  0  0  0  0
  -29.9410  -13.2190   20.3260 N   0  0  0  0  0  0  0  0  0  0  0  0
  -31.6500  -14.6900   19.9290 O   0  0  0  0  0  0  0  0  0  0  0  0
  -29.8250  -15.3360   21.0760 N   0  0  0  0  0  0  0  0  0  0  0  0
  -29.0020  -15.0010   21.5540 H   0  0  0  0  0  0  0  0  0  0  0  0
  -25.1450  -13.7920   20.5160 C   0  0  0  0  0  0  0  0  0  0  0  0
  -24.0840  -13.0150   20.8970 C   0  0  0  0  0  0  0  0  0  0  0  0
  -24.5530  -11.6650   20.8680 C   0  0  0  0  0  0  0  0  0  0  0  0
  -26.1960  -12.9160   20.2880 N   0  0  0  0  0  0  0  0  0  0  0  0
  -25.8400  -11.6320   20.5510 N   0  0  0  0  0  0  0  0  0  0  0  0
  -23.8360  -10.3990   21.0630 C   0  0  0  0  0  0  0  0  0  0  0  0
  -24.2940   -9.4240   21.9790 C   0  0  0  0  0  3  0  0  0  0  0  0
  -23.5780   -8.2230   22.1660 C   0  0  0  0  0  3  0  0  0  0  0  0
  -22.3890   -7.9860   21.4360 C   0  0  0  0  0  0  0  0  0  0  0  0
  -21.9480   -8.9480   20.5100 C   0  0  0  0  0  3  0  0  0  0  0  0
  -22.6670  -10.1410   20.3190 C   0  0  0  0  0  3  0  0  0  0  0  0
  -21.6390   -6.8390   21.5360 O   0  0  0  0  0  0  0  0  0  0  0  0
  -21.6390   -6.0760   22.6760 C   0  0  0  0  0  0  0  0  0  0  0  0
  -21.2830   -6.6120   23.9340 C   0  0  0  0  0  3  0  0  0  0  0  0
  -21.2310   -5.7750   25.0660 C   0  0  0  0  0  3  0  0  0  0  0  0
  -21.5220   -4.4030   24.9430 C   0  0  0  0  0  0  0  0  0  0  0  0
  -21.8740   -3.8660   23.6920 C   0  0  0  0  0  3  0  0  0  0  0  0
  -21.9300   -4.7010   22.5620 C   0  0  0  0  0  0  0  0  0  0  0  0
  -22.2460   -4.1750   21.3530 F   0  0  0  0  0  0  0  0  0  0  0  0
  -21.4650   -3.5960   26.0280 F   0  0  0  0  0  0  0  0  0  0  0  0
  -22.6840  -13.4830   21.1790 C   0  0  0  0  0  0  0  0  0  0  0  0
  -21.9670  -12.7860   22.0530 N   0  0  0  0  0  0  0  0  0  0  0  0
  -22.2350  -14.5040   20.6600 O   0  0  0  0  0  0  0  0  0  0  0  0
  -22.3420  -11.9620   22.5030 H   0  0  0  0  0  0  0  0  0  0  0  0
  -21.0280  -13.0820   22.2780 H   0  0  0  0  0  0  0  0  0  0  0  0
  -25.3020  -15.1630   20.3310 N   0  0  0  0  0  0  0  0  0  0  0  0
  -24.5340  -15.8170   20.4440 H   0  0  0  0  0  0  0  0  0  0  0  0
  -26.1520  -15.6050   20.0030 H   0  0  0  0  0  0  0  0  0  0  0  0
  -30.5550  -21.4610   18.1390 C   0  0  0  0  0  2  0  0  0  0  0  0
  -30.2060  -22.6820   19.0210 C   0  0  0  0  0  2  0  0  0  0  0  0
  -30.4900  -24.0570   18.3840 C   0  0  0  0  0  2  0  0  0  0  0  0
  -30.0990  -25.2450   19.2850 C   0  0  0  0  0  2  0  0  0  0  0  0
  -28.6210  -25.6630   19.2040 C   0  0  0  0  0  2  0  0  0  0  0  0
  -28.4470  -26.7940   20.0570 O   0  0  0  0  0  0  0  0  0  0  0  0
  -24.6150  -31.8750   23.2100 C   0  0  0  0  0  0  0  0  0  0  0  0
  -27.2370  -27.4530   20.0760 C   0  0  0  0  0  0  0  0  0  0  0  0
  -23.3860  -30.4720   21.5810 C   0  0  0  0  0  3  0  0  0  0  0  0
  -24.8240  -28.9310   20.1400 C   0  0  0  0  0  0  0  0  0  0  0  0
  -25.9080  -30.8280   21.3580 C   0  0  0  0  0  2  0  0  0  0  0  0
  -25.9820  -29.4560   20.7220 C   0  0  0  0  0  0  0  0  0  0  0  0
  -27.1830  -28.7170   20.7030 C   0  0  0  0  0  3  0  0  0  0  0  0
  -26.0550  -26.9270   19.5040 C   0  0  0  0  0  3  0  0  0  0  0  0
  -24.8530  -27.6610   19.5350 C   0  0  0  0  0  3  0  0  0  0  0  0
  -23.5800  -29.7900   20.1980 C   0  0  0  0  0  2  0  0  0  0  0  0
  -24.6530  -31.0750   22.1070 N   0  0  0  0  0  0  0  0  0  0  0  0
  -23.5410  -32.1500   23.7630 O   0  0  0  0  0  0  0  0  0  0  0  0
  -22.7480  -29.4520   22.5520 C   0  0  0  0  0  0  0  0  0  0  0  0
  -21.4230  -29.2690   22.4400 N   0  0  0  0  0  0  0  0  0  0  0  0
  -23.4420  -28.8290   23.3610 O   0  0  0  0  0  0  0  0  0  0  0  0
  -20.9250  -29.8300   21.7620 H   0  0  0  0  0  0  0  0  0  0  0  0
  -18.0520  -28.0780   22.9630 C   0  0  0  0  0  0  0  0  0  0  0  0
  -20.6120  -28.3350   23.2200 C   0  0  0  0  0  3  0  0  0  0  0  0
  -20.7100  -26.9010   22.6460 C   0  0  0  0  0  2  0  0  0  0  0  0
  -19.6020  -26.5780   21.6400 C   0  0  0  0  0  2  0  0  0  0  0  0
  -18.2250  -26.7250   22.2930 C   0  0  0  0  0  2  0  0  0  0  0  0
  -19.1740  -28.8410   23.3830 C   0  0  0  0  0  0  0  0  0  0  0  0
  -18.9610  -30.1070   23.9690 C   0  0  0  0  0  3  0  0  0  0  0  0
  -17.6590  -30.6100   24.1450 C   0  0  0  0  0  3  0  0  0  0  0  0
  -16.5510  -29.8430   23.7430 C   0  0  0  0  0  3  0  0  0  0  0  0
  -16.7480  -28.5810   23.1570 C   0  0  0  0  0  3  0  0  0  0  0  0
  -25.9120  -32.5020   23.8110 C   0  0  0  0  0  3  0  0  0  0  0  0
  -26.4590  -31.7180   25.0670 C   0  0  1  0  0  0  0  0  0  0  0  0
  -25.3940  -31.4620   26.1600 C   0  0  0  0  0  1  0  0  0  0  0  0
  -27.0360  -30.3490   24.6410 C   0  0  0  0  0  1  0  0  0  0  0  0
  -27.6220  -32.5080   25.7110 C   0  0  0  0  0  1  0  0  0  0  0  0
  -25.6090  -33.8960   24.1610 N   0  0  0  0  0  0  0  0  0  0  0  0
  -25.9250  -34.9560   23.4060 C   0  0  0  0  0  0  0  0  0  0  0  0
  -26.5750  -34.8640   22.3610 O   0  0  0  0  0  0  0  0  0  0  0  0
  -25.0340  -34.0440   24.9780 H   0  0  0  0  0  0  0  0  0  0  0  0
  -24.1820  -36.7420   23.1010 C   0  0  0  0  0  1  0  0  0  0  0  0
  -25.4400  -36.3370   23.8860 C   0  0  0  0  0  3  0  0  0  0  0  0
  -27.5880  -37.2210   24.6800 C   0  0  0  0  0  1  0  0  0  0  0  0
  -26.4660  -37.3960   23.7620 N   0  0  0  0  0  0  0  0  0  0  0  0
  -26.0610  -38.3140   23.9300 H   0  0  0  0  0  0  0  0  0  0  0  0
  1  5  1  0
  2  1  1  0
  2 54  1  0
  3  1  2  0
  4  2  1  0
  5  7  1  0
  6  8  2  0
  6 10  1  0
  7  6  1  0
  9  7  1  0
 11 13  2  0
 12 11  1  0
 12 10  1  0
 14 12  1  0
 15 24  1  0
 15 11  1  0
 16 24  1  0
 17 22  1  0
 18 19  1  0
 18 17  1  0
 20 19  1  0
 20 29  1  0
 20 21  1  0
 22 16  1  0
 22 21  1  0
 23 16  2  0
 24 25  1  0
 26 27  2  0
 27 46  1  0
 28 27  1  0
 28 31  1  0
 29 26  1  0
 29 30  1  0
 30 28  2  0
 31 32  1  0
 32 33  2  0
 34 37  1  0
 34 33  1  0
 35 34  2  0
 36 35  1  0
 36 31  2  0
 37 38  1  0
 38 39  1  0
 39 40  2  0
 41 40  1  0
 41 45  1  0
 42 41  2  0
 43 38  2  0
 43 42  1  0
 44 43  1  0
 46 47  1  0
 47 50  1  0
 47 49  1  0
 48 46  2  0
 51 52  1  0
 51 26  1  0
 53 51  1  0
 54 55  1  0
 56 55  1  0
 56 57  1  0
 58 57  1  0
 58 59  1  0
 59 61  1  0
 60 71  2  0
 61 66  1  0
 62 70  1  0
 62 72  1  0
 63 69  1  0
 63 65  1  0
 64 70  1  0
 65 64  1  0
 66 65  2  0
 67 68  1  0
 67 61  2  0
 68 63  2  0
 69 62  1  0
 70 60  1  0
 72 74  2  0
 73 72  1  0
 75 73  1  0
 76 85  2  0
 76 81  1  0
 77 73  1  0
 77 81  1  0
 78 77  1  0
 79 80  1  0
 79 78  1  0
 80 76  1  0
 81 82  2  0
 82 83  1  0
 84 83  2  0
 85 84  1  0
 86 60  1  0
 86 91  1  0
 86 87  1  0
 87 90  1  1
 87 88  1  0
 89 87  1  0
 91 94  1  0
 92 96  1  0
 92 91  1  0
 93 92  2  0
 96 95  1  0
 98 96  1  0
 98 99  1  0
 98 97  1  0
M  ISO  4  16 100  24 100  58 101  59 101
M  END
>  <TORSDO>  (17) 
F 26

>  <SCORE>  (17) 
-11.618

>  <name>  (17) 
18

>  <ligand_id>  (17) 
18

>  <original_smiles>  (17) 
[H]c1c([H])c([H])c2c(c1[H])C([H])([H])C([H])([H])C([H])([H])C2([H])N([H])C(=O)C1([H])N(C(=O)C([H])(N([H])C(=O)C([H])(N([H])C([H])([H])[H])C([H])([H])[H])C(C([H])([H])[H])(C([H])([H])[H])C([H])([H])[H])C([H])([H])c2c([H])c(OC([H])([H])C([H])([H])C([H])([H])C([H])([H])C([H])([H])N([H])C(=O)C([H])([H])N([H])C(=O)C([H])([H])N([H])C(=O)C([H])([H])N([H])C(=O)N3C([H])([H])C([H])([H])C([H])([H])C([H])(n4nc(-c5c([H])c([H])c(Oc6c([H])c([H])c(F)c([H])c6F)c([H])c5[H])c(C(=O)N([H])[H])c4N([H])[H])C3([H])[H])c([H])c([H])c2C1([H])[H]

>  <smiles>  (17) 
[H]c1c([H])c([H])c2c(c1[H])C([H])([H])C([H])([H])C([H])([H])C2([H])N([H])C(=O)C1([H])N(C(=O)C([H])(N([H])C(=O)C([H])(N([H])C([H])([H])[H])C([H])([H])[H])C(C([H])([H])[H])(C([H])([H])[H])C([H])([H])[H])C([H])([H])c2c([H])c(OC([H])([H])C([H])([H])C([H])([H])C([H])([H])C([H])([H])N([H])C(=O)C([H])([H])N([H])C(=O)C([H])([H])N([H])C(=O)C([H])([H])N([H])C(=O)N3C([H])([H])C([H])([H])C([H])([H])C([H])(n4nc(-c5c([H])c([H])c(Oc6c([H])c([H])c(F)c([H])c6F)c([H])c5[H])c(C(=O)N([H])[H])c4N([H])[H])C3([H])[H])c([H])c([H])c2C1([H])[H]

$$$$
19:0:0
     RDKit          3D

111118  0  0  1  0  0  0  0  0999 V2000
  -30.2150  -17.7260   15.4210 C   0  0  0  0  0  0  0  0  0  0  0  0
  -29.0940  -18.3270   15.8360 N   0  0  0  0  0  0  0  0  0  0  0  0
  -30.8470  -16.9430   16.1310 O   0  0  0  0  0  0  0  0  0  0  0  0
  -28.6100  -18.9310   15.1840 H   0  0  0  0  0  0  0  0  0  0  0  0
  -28.5740  -18.2630   17.2050 C   0  0  0  0  0  2  0  0  0  0  0  0
  -29.2770  -19.2760   18.1350 C   0  0  0  0  0  2  0  0  0  0  0  0
  -28.7360  -20.7000   17.9780 C   0  0  0  0  0  0  0  0  0  0  0  0
  -29.5980  -21.6480   17.5910 N   0  0  0  0  0  0  0  0  0  0  0  0
  -27.5450  -20.9290   18.1970 O   0  0  0  0  0  0  0  0  0  0  0  0
  -30.5590  -21.3640   17.3950 H   0  0  0  0  0  0  0  0  0  0  0  0
  -29.2620  -23.0410   17.3140 C   0  0  0  0  0  2  0  0  0  0  0  0
  -30.2780  -24.0110   17.9440 C   0  0  0  0  0  2  0  0  0  0  0  0
  -30.1280  -24.1380   19.4710 C   0  0  0  0  0  2  0  0  0  0  0  0
  -30.6070  -25.4920   20.0240 C   0  0  0  0  0  2  0  0  0  0  0  0
  -30.1830  -25.6910   21.4940 C   0  0  0  0  0  2  0  0  0  0  0  0
  -29.9370  -27.0620   21.8260 O   0  0  0  0  0  0  0  0  0  0  0  0
  -25.0560  -31.9130   23.6610 C   0  0  0  0  0  0  0  0  0  0  0  0
  -28.6930  -27.5980   21.5520 C   0  0  0  0  0  0  0  0  0  0  0  0
  -24.3360  -30.2460   21.9830 C   0  0  0  0  0  3  0  0  0  0  0  0
  -26.1830  -28.7880   21.0080 C   0  0  0  0  0  0  0  0  0  0  0  0
  -26.8040  -30.8910   22.2100 C   0  0  0  0  0  2  0  0  0  0  0  0
  -27.1500  -29.4960   21.7310 C   0  0  0  0  0  0  0  0  0  0  0  0
  -28.4080  -28.9080   21.9990 C   0  0  0  0  0  3  0  0  0  0  0  0
  -27.6940  -26.8960   20.8360 C   0  0  0  0  0  3  0  0  0  0  0  0
  -26.4490  -27.4850   20.5620 C   0  0  0  0  0  3  0  0  0  0  0  0
  -24.8690  -29.4840   20.7430 C   0  0  0  0  0  2  0  0  0  0  0  0
  -25.4030  -31.0380   22.6760 N   0  0  0  0  0  0  0  0  0  0  0  0
  -23.8690  -32.0970   23.9670 O   0  0  0  0  0  0  0  0  0  0  0  0
  -23.6270  -29.2330   22.9110 C   0  0  0  0  0  0  0  0  0  0  0  0
  -22.3580  -28.9230   22.5960 N   0  0  0  0  0  0  0  0  0  0  0  0
  -24.2210  -28.7250   23.8660 O   0  0  0  0  0  0  0  0  0  0  0  0
  -21.9450  -29.3850   21.7980 H   0  0  0  0  0  0  0  0  0  0  0  0
  -19.0160  -27.5600   22.7420 C   0  0  0  0  0  0  0  0  0  0  0  0
  -21.5070  -27.9690   23.3040 C   0  0  0  0  0  3  0  0  0  0  0  0
  -21.7530  -26.5290   22.8000 C   0  0  0  0  0  2  0  0  0  0  0  0
  -20.7980  -26.1110   21.6780 C   0  0  0  0  0  2  0  0  0  0  0  0
  -19.3430  -26.2010   22.1480 C   0  0  0  0  0  2  0  0  0  0  0  0
  -20.0350  -28.3980   23.2690 C   0  0  0  0  0  0  0  0  0  0  0  0
  -19.6810  -29.6680   23.7740 C   0  0  0  0  0  3  0  0  0  0  0  0
  -18.3420  -30.1020   23.7620 C   0  0  0  0  0  3  0  0  0  0  0  0
  -17.3350  -29.2610   23.2550 C   0  0  0  0  0  3  0  0  0  0  0  0
  -17.6740  -27.9930   22.7510 C   0  0  0  0  0  3  0  0  0  0  0  0
  -26.1300  -32.7410   24.4340 C   0  0  0  0  0  3  0  0  0  0  0  0
  -26.4390  -32.1740   25.8740 C   0  0  1  0  0  0  0  0  0  0  0  0
  -25.1710  -31.8790   26.7080 C   0  0  0  0  0  1  0  0  0  0  0  0
  -27.2600  -30.8650   25.7840 C   0  0  0  0  0  1  0  0  0  0  0  0
  -27.3070  -33.1870   26.6580 C   0  0  0  0  0  1  0  0  0  0  0  0
  -25.6440  -34.1250   24.5150 N   0  0  0  0  0  0  0  0  0  0  0  0
  -26.0150  -35.1100   23.6880 C   0  0  0  0  0  0  0  0  0  0  0  0
  -26.8660  -34.9590   22.8060 O   0  0  0  0  0  0  0  0  0  0  0  0
  -24.9010  -34.3050   25.1730 H   0  0  0  0  0  0  0  0  0  0  0  0
  -24.2240  -36.6410   22.8060 C   0  0  0  0  0  1  0  0  0  0  0  0
  -25.3290  -36.4780   23.8630 C   0  0  0  0  0  3  0  0  0  0  0  0
  -27.1960  -37.6800   24.9090 C   0  0  0  0  0  1  0  0  0  0  0  0
  -26.2660  -37.6220   23.7860 N   0  0  0  0  0  0  0  0  0  0  0  0
  -25.7580  -38.5010   23.7460 H   0  0  0  0  0  0  0  0  0  0  0  0
  -30.7120  -18.0460   14.0060 C   0  0  0  0  0  2  0  0  0  0  0  0
  -31.5520  -19.3410   13.9020 C   0  0  0  0  0  2  0  0  0  0  0  0
  -32.3800  -20.3280   16.0340 C   0  0  0  0  0  0  0  0  0  0  0  0
  -32.5240  -19.5040   14.9890 N   0  0  0  0  0  0  0  0  0  0  0  0
  -31.4160  -21.0880   16.1500 O   0  0  0  0  0  0  0  0  0  0  0  0
  -33.3480  -18.9200   14.9690 H   0  0  0  0  0  0  0  0  0  0  0  0
  -33.4610  -20.3010   17.1210 C   0  0  0  0  0  2  0  0  0  0  0  0
  -32.4100  -19.3710   19.1600 C   0  0  0  0  0  0  0  0  0  0  0  0
  -32.8420  -20.4100   18.4410 N   0  0  0  0  0  0  0  0  0  0  0  0
  -32.6550  -18.2060   18.8390 O   0  0  0  0  0  0  0  0  0  0  0  0
  -32.5970  -21.3400   18.7480 H   0  0  0  0  0  0  0  0  0  0  0  0
  -31.5890  -19.6910   20.4170 C   0  0  0  0  0  2  0  0  0  0  0  0
  -30.6680  -17.5580   21.3000 C   0  0  0  0  0  0  0  0  0  0  0  0
  -31.5520  -18.5590   21.3390 N   0  0  0  0  0  0  0  0  0  0  0  0
  -29.7010  -17.5420   20.5350 O   0  0  0  0  0  0  0  0  0  0  0  0
  -32.3320  -18.4730   21.9760 H   0  0  0  0  0  0  0  0  0  0  0  0
  -30.9030  -16.4110   22.2880 C   0  0  0  0  0  2  0  0  0  0  0  0
  -30.7760  -14.4650   20.7410 C   0  0  0  0  0  0  0  0  0  0  0  0
  -30.4240  -12.4500   19.3610 C   0  0  0  0  0  2  0  0  0  0  0  0
  -29.4960  -12.7330   18.1650 C   0  0  0  0  0  2  0  0  0  0  0  0
  -28.0190  -12.5790   18.5690 C   0  0  0  0  0  2  0  0  0  0  0  0
  -27.6740  -13.3600   19.8630 C   0  0  0  0  0  3  0  0  0  0  0  0
  -28.7010  -13.0530   20.9740 C   0  0  0  0  0  2  0  0  0  0  0  0
  -30.0520  -13.3530   20.4590 N   0  0  0  0  0  0  0  0  0  0  0  0
  -31.7900  -14.7980   20.1210 O   0  0  0  0  0  0  0  0  0  0  0  0
  -30.3460  -15.1500   21.8060 N   0  0  0  0  0  0  0  0  0  0  0  0
  -29.5170  -14.8080   22.2660 H   0  0  0  0  0  0  0  0  0  0  0  0
  -25.2500  -13.9600   20.4970 C   0  0  0  0  0  0  0  0  0  0  0  0
  -24.1780  -13.1830   20.8430 C   0  0  0  0  0  0  0  0  0  0  0  0
  -24.6480  -11.8350   20.8360 C   0  0  0  0  0  0  0  0  0  0  0  0
  -26.3070  -13.0850   20.3030 N   0  0  0  0  0  0  0  0  0  0  0  0
  -25.9450  -11.8020   20.5610 N   0  0  0  0  0  0  0  0  0  0  0  0
  -23.9270  -10.5690   21.0190 C   0  0  0  0  0  0  0  0  0  0  0  0
  -24.3360   -9.6170   21.9780 C   0  0  0  0  0  3  0  0  0  0  0  0
  -23.6160   -8.4140   22.1470 C   0  0  0  0  0  3  0  0  0  0  0  0
  -22.4710   -8.1560   21.3560 C   0  0  0  0  0  0  0  0  0  0  0  0
  -22.0810   -9.0980   20.3860 C   0  0  0  0  0  3  0  0  0  0  0  0
  -22.8020  -10.2900   20.2160 C   0  0  0  0  0  3  0  0  0  0  0  0
  -21.7250   -7.0050   21.4310 O   0  0  0  0  0  0  0  0  0  0  0  0
  -21.6120   -6.2950   22.6000 C   0  0  0  0  0  0  0  0  0  0  0  0
  -21.1160   -6.8840   23.7840 C   0  0  0  0  0  3  0  0  0  0  0  0
  -20.9530   -6.1020   24.9440 C   0  0  0  0  0  3  0  0  0  0  0  0
  -21.2730   -4.7300   24.9210 C   0  0  0  0  0  0  0  0  0  0  0  0
  -21.7620   -4.1420   23.7410 C   0  0  0  0  0  3  0  0  0  0  0  0
  -21.9280   -4.9220   22.5830 C   0  0  0  0  0  0  0  0  0  0  0  0
  -22.3790   -4.3450   21.4430 F   0  0  0  0  0  0  0  0  0  0  0  0
  -21.1080   -3.9760   26.0320 F   0  0  0  0  0  0  0  0  0  0  0  0
  -22.7700  -13.6530   21.0790 C   0  0  0  0  0  0  0  0  0  0  0  0
  -22.0310  -12.9670   21.9440 N   0  0  0  0  0  0  0  0  0  0  0  0
  -22.3330  -14.6620   20.5280 O   0  0  0  0  0  0  0  0  0  0  0  0
  -22.3970  -12.1490   22.4100 H   0  0  0  0  0  0  0  0  0  0  0  0
  -21.0870  -13.2660   22.1460 H   0  0  0  0  0  0  0  0  0  0  0  0
  -25.4140  -15.3310   20.3180 N   0  0  0  0  0  0  0  0  0  0  0  0
  -24.6500  -15.9890   20.4150 H   0  0  0  0  0  0  0  0  0  0  0  0
  -26.2870  -15.7730   20.0580 H   0  0  0  0  0  0  0  0  0  0  0  0
  1  2  1  0
  1  3  2  0
  2  5  1  0
  4  2  1  0
  5  6  1  0
  7  6  1  0
  7  9  2  0
  8  7  1  0
 10  8  1  0
 11  8  1  0
 11 12  1  0
 12 13  1  0
 13 14  1  0
 14 15  1  0
 15 16  1  0
 17 28  2  0
 18 16  1  0
 18 23  1  0
 19 27  1  0
 19 29  1  0
 20 22  1  0
 21 27  1  0
 22 23  2  0
 22 21  1  0
 24 18  2  0
 25 24  1  0
 25 20  2  0
 26 20  1  0
 26 19  1  0
 27 17  1  0
 29 31  2  0
 30 29  1  0
 32 30  1  0
 33 42  2  0
 33 38  1  0
 34 30  1  0
 35 34  1  0
 36 37  1  0
 36 35  1  0
 37 33  1  0
 38 34  1  0
 38 39  2  0
 40 39  1  0
 41 40  2  0
 42 41  1  0
 43 17  1  0
 43 48  1  0
 43 44  1  0
 44 47  1  1
 44 45  1  0
 46 44  1  0
 48 51  1  0
 49 53  1  0
 49 48  1  0
 50 49  2  0
 53 52  1  0
 55 53  1  0
 55 54  1  0
 56 55  1  0
 57  1  1  0
 58 57  1  0
 58 60  1  0
 59 61  2  0
 59 63  1  0
 60 59  1  0
 62 60  1  0
 63 65  1  0
 64 68  1  0
 65 67  1  0
 65 64  1  0
 66 64  2  0
 68 70  1  0
 69 70  1  0
 69 73  1  0
 70 72  1  0
 71 69  2  0
 74 82  1  0
 75 80  1  0
 76 77  1  0
 76 75  1  0
 78 77  1  0
 78 87  1  0
 78 79  1  0
 80 74  1  0
 80 79  1  0
 81 74  2  0
 82 83  1  0
 82 73  1  0
 84 85  2  0
 85104  1  0
 86 85  1  0
 86 89  1  0
 87 84  1  0
 87 88  1  0
 88 86  2  0
 89 90  1  0
 90 91  2  0
 92 95  1  0
 92 91  1  0
 93 92  2  0
 94 93  1  0
 94 89  2  0
 95 96  1  0
 96 97  1  0
 97 98  2  0
 99 98  1  0
 99103  1  0
100 99  2  0
101 96  2  0
101100  1  0
102101  1  0
104105  1  0
105108  1  0
105107  1  0
106104  2  0
109110  1  0
109 84  1  0
111109  1  0
M  ISO  4  15 101  16 101  74 100  82 100
M  END
>  <TORSDO>  (18) 
F 32

>  <SCORE>  (18) 
-9.042

>  <name>  (18) 
19

>  <ligand_id>  (18) 
19

>  <original_smiles>  (18) 
[H]c1c([H])c([H])c2c(c1[H])C([H])([H])C([H])([H])C([H])([H])C2([H])N([H])C(=O)C1([H])N(C(=O)C([H])(N([H])C(=O)C([H])(N([H])C([H])([H])[H])C([H])([H])[H])C(C([H])([H])[H])(C([H])([H])[H])C([H])([H])[H])C([H])([H])c2c([H])c(OC([H])([H])C([H])([H])C([H])([H])C([H])([H])C([H])([H])N([H])C(=O)C([H])([H])C([H])([H])N([H])C(=O)C([H])([H])C([H])([H])N([H])C(=O)C([H])([H])N([H])C(=O)C([H])([H])N([H])C(=O)C([H])([H])N([H])C(=O)N3C([H])([H])C([H])([H])C([H])([H])C([H])(n4nc(-c5c([H])c([H])c(Oc6c([H])c([H])c(F)c([H])c6F)c([H])c5[H])c(C(=O)N([H])[H])c4N([H])[H])C3([H])[H])c([H])c([H])c2C1([H])[H]

>  <smiles>  (18) 
[H]c1c([H])c([H])c2c(c1[H])C([H])([H])C([H])([H])C([H])([H])C2([H])N([H])C(=O)C1([H])N(C(=O)C([H])(N([H])C(=O)C([H])(N([H])C([H])([H])[H])C([H])([H])[H])C(C([H])([H])[H])(C([H])([H])[H])C([H])([H])[H])C([H])([H])c2c([H])c(OC([H])([H])C([H])([H])C([H])([H])C([H])([H])C([H])([H])N([H])C(=O)C([H])([H])C([H])([H])N([H])C(=O)C([H])([H])C([H])([H])N([H])C(=O)C([H])([H])N([H])C(=O)C([H])([H])N([H])C(=O)C([H])([H])N([H])C(=O)N3C([H])([H])C([H])([H])C([H])([H])C([H])(n4nc(-c5c([H])c([H])c(Oc6c([H])c([H])c(F)c([H])c6F)c([H])c5[H])c(C(=O)N([H])[H])c4N([H])[H])C3([H])[H])c([H])c([H])c2C1([H])[H]

$$$$
20:0:0
     RDKit          3D

100107  0  0  1  0  0  0  0  0999 V2000
  -31.5720  -20.4030   20.4570 C   0  0  0  0  0  2  0  0  0  0  0  0
  -30.2320  -20.9920   20.0030 C   0  0  0  0  0  2  0  0  0  0  0  0
  -29.4290  -21.4620   21.2140 C   0  0  0  0  0  2  0  0  0  0  0  0
  -27.9780  -21.7760   20.8240 C   0  0  0  0  0  2  0  0  0  0  0  0
  -28.3310  -24.2290   20.4400 C   0  0  0  0  0  0  0  0  0  0  0  0
  -27.8620  -23.0240   20.0650 N   0  0  0  0  0  0  0  0  0  0  0  0
  -28.7690  -24.4440   21.5720 O   0  0  0  0  0  0  0  0  0  0  0  0
  -27.4510  -22.9430   19.1420 H   0  0  0  0  0  0  0  0  0  0  0  0
  -28.4030  -25.3360   19.3780 C   0  0  0  0  0  2  0  0  0  0  0  0
  -28.3800  -26.6550   19.9840 O   0  0  0  0  0  0  0  0  0  0  0  0
  -24.6140  -31.8630   23.2010 C   0  0  0  0  0  0  0  0  0  0  0  0
  -27.2030  -27.3860   20.0390 C   0  0  0  0  0  0  0  0  0  0  0  0
  -23.4020  -30.5040   21.5330 C   0  0  0  0  0  3  0  0  0  0  0  0
  -24.8430  -28.9610   20.1120 C   0  0  0  0  0  0  0  0  0  0  0  0
  -25.9430  -30.8030   21.3750 C   0  0  0  0  0  2  0  0  0  0  0  0
  -26.0130  -29.4370   20.7120 C   0  0  0  0  0  0  0  0  0  0  0  0
  -27.1960  -28.6560   20.6780 C   0  0  0  0  0  3  0  0  0  0  0  0
  -25.9950  -26.9210   19.4790 C   0  0  0  0  0  3  0  0  0  0  0  0
  -24.8260  -27.6980   19.5050 C   0  0  0  0  0  3  0  0  0  0  0  0
  -23.6190  -29.8530   20.1480 C   0  0  0  0  0  2  0  0  0  0  0  0
  -24.6730  -31.0700   22.0950 N   0  0  0  0  0  0  0  0  0  0  0  0
  -23.5320  -32.1430   23.7420 O   0  0  0  0  0  0  0  0  0  0  0  0
  -22.7370  -29.4680   22.4770 C   0  0  0  0  0  0  0  0  0  0  0  0
  -21.4070  -29.3110   22.3610 N   0  0  0  0  0  0  0  0  0  0  0  0
  -23.4170  -28.8150   23.2720 O   0  0  0  0  0  0  0  0  0  0  0  0
  -20.9130  -29.9130   21.7140 H   0  0  0  0  0  0  0  0  0  0  0  0
  -18.0280  -28.1350   22.8430 C   0  0  0  0  0  0  0  0  0  0  0  0
  -20.5860  -28.3690   23.1230 C   0  0  0  0  0  3  0  0  0  0  0  0
  -20.6720  -26.9380   22.5410 C   0  0  0  0  0  2  0  0  0  0  0  0
  -19.5720  -26.6350   21.5160 C   0  0  0  0  0  2  0  0  0  0  0  0
  -18.1910  -26.7890   22.1570 C   0  0  0  0  0  2  0  0  0  0  0  0
  -19.1520  -28.8840   23.2860 C   0  0  0  0  0  0  0  0  0  0  0  0
  -18.9460  -30.1410   23.8910 C   0  0  0  0  0  3  0  0  0  0  0  0
  -17.6500  -30.6550   24.0600 C   0  0  0  0  0  3  0  0  0  0  0  0
  -16.5390  -29.9090   23.6360 C   0  0  0  0  0  3  0  0  0  0  0  0
  -16.7270  -28.6550   23.0270 C   0  0  0  0  0  3  0  0  0  0  0  0
  -25.9030  -32.4770   23.8280 C   0  0  0  0  0  3  0  0  0  0  0  0
  -25.5870  -33.8590   24.2160 N   0  0  0  0  0  0  0  0  0  0  0  0
  -25.9060  -34.9430   23.5010 C   0  0  0  0  0  0  0  0  0  0  0  0
  -26.5670  -34.8910   22.4590 O   0  0  0  0  0  0  0  0  0  0  0  0
  -24.9930  -33.9750   25.0240 H   0  0  0  0  0  0  0  0  0  0  0  0
  -24.1510  -36.7330   23.2630 C   0  0  0  0  0  1  0  0  0  0  0  0
  -25.4130  -36.3060   24.0270 C   0  0  0  0  0  3  0  0  0  0  0  0
  -27.5580  -37.1760   24.8420 C   0  0  0  0  0  1  0  0  0  0  0  0
  -26.4290  -37.3770   23.9400 N   0  0  0  0  0  0  0  0  0  0  0  0
  -26.0130  -38.2800   24.1550 H   0  0  0  0  0  0  0  0  0  0  0  0
  -26.4470  -31.6560   25.0620 C   0  0  1  0  0  0  0  0  0  0  0  0
  -25.3750  -31.3710   26.1410 C   0  0  0  0  0  1  0  0  0  0  0  0
  -27.0240  -30.2960   24.5980 C   0  0  0  0  0  1  0  0  0  0  0  0
  -27.5990  -32.4360   25.7410 C   0  0  0  0  0  1  0  0  0  0  0  0
  -32.7590  -20.8970   19.6330 C   0  0  0  0  0  2  0  0  0  0  0  0
  -34.1050  -20.4210   20.2060 C   0  0  0  0  0  2  0  0  0  0  0  0
  -35.2310  -18.3660   20.9770 C   0  0  0  0  0  0  0  0  0  0  0  0
  -34.1980  -18.9590   20.3580 N   0  0  0  0  0  0  0  0  0  0  0  0
  -36.0460  -19.0360   21.6160 O   0  0  0  0  0  0  0  0  0  0  0  0
  -33.5000  -18.3870   19.9020 H   0  0  0  0  0  0  0  0  0  0  0  0
  -35.4700  -16.8390   20.8790 C   0  0  0  0  0  2  0  0  0  0  0  0
  -33.8420  -15.3550   21.9970 C   0  0  0  0  0  0  0  0  0  0  0  0
  -34.3420  -15.9000   20.8720 N   0  0  0  0  0  0  0  0  0  0  0  0
  -33.9530  -15.8990   23.0940 O   0  0  0  0  0  0  0  0  0  0  0  0
  -34.1710  -15.3920   20.0120 H   0  0  0  0  0  0  0  0  0  0  0  0
  -33.2640  -13.9250   21.9020 C   0  0  0  0  0  2  0  0  0  0  0  0
  -31.0770  -14.1190   20.7240 C   0  0  0  0  0  0  0  0  0  0  0  0
  -30.4160  -12.2710   19.2980 C   0  0  0  0  0  2  0  0  0  0  0  0
  -29.4460  -12.5900   18.1600 C   0  0  0  0  0  2  0  0  0  0  0  0
  -28.0000  -12.4190   18.6360 C   0  0  0  0  0  2  0  0  0  0  0  0
  -27.7100  -13.2230   19.9320 C   0  0  0  0  0  3  0  0  0  0  0  0
  -28.8130  -12.9860   21.0150 C   0  0  0  0  0  2  0  0  0  0  0  0
  -30.1620  -13.1640   20.4350 N   0  0  0  0  0  0  0  0  0  0  0  0
  -31.6280  -14.8190   19.8780 O   0  0  0  0  0  0  0  0  0  0  0  0
  -31.7870  -13.8090   21.8200 N   0  0  0  0  0  0  0  0  0  0  0  0
  -31.3580  -13.1480   22.4540 H   0  0  0  0  0  0  0  0  0  0  0  0
  -25.2770  -13.8180   20.5870 C   0  0  0  0  0  0  0  0  0  0  0  0
  -24.1980  -13.0450   20.9190 C   0  0  0  0  0  0  0  0  0  0  0  0
  -24.6550  -11.6910   20.8800 C   0  0  0  0  0  0  0  0  0  0  0  0
  -26.3390  -12.9450   20.3920 N   0  0  0  0  0  0  0  0  0  0  0  0
  -25.9570  -11.6570   20.6130 N   0  0  0  0  0  0  0  0  0  0  0  0
  -23.9170  -10.4280   21.0430 C   0  0  0  0  0  0  0  0  0  0  0  0
  -24.3640   -9.4160   21.9240 C   0  0  0  0  0  3  0  0  0  0  0  0
  -23.6270   -8.2240   22.0790 C   0  0  0  0  0  3  0  0  0  0  0  0
  -22.4270   -8.0320   21.3590 C   0  0  0  0  0  0  0  0  0  0  0  0
  -21.9950   -9.0280   20.4690 C   0  0  0  0  0  3  0  0  0  0  0  0
  -22.7300  -10.2140   20.3110 C   0  0  0  0  0  3  0  0  0  0  0  0
  -21.6640   -6.8880   21.4250 O   0  0  0  0  0  0  0  0  0  0  0  0
  -21.6880   -6.0720   22.5240 C   0  0  0  0  0  0  0  0  0  0  0  0
  -21.4050   -6.5600   23.8180 C   0  0  0  0  0  3  0  0  0  0  0  0
  -21.3700   -5.6770   24.9130 C   0  0  0  0  0  3  0  0  0  0  0  0
  -21.6100   -4.3020   24.7200 C   0  0  0  0  0  0  0  0  0  0  0  0
  -21.8850   -3.8140   23.4280 C   0  0  0  0  0  3  0  0  0  0  0  0
  -21.9180   -4.6950   22.3360 C   0  0  0  0  0  0  0  0  0  0  0  0
  -22.1610   -4.2120   21.0940 F   0  0  0  0  0  0  0  0  0  0  0  0
  -21.5620   -3.4530   25.7710 F   0  0  0  0  0  0  0  0  0  0  0  0
  -22.7940  -13.5250   21.1750 C   0  0  0  0  0  0  0  0  0  0  0  0
  -22.0500  -12.8380   22.0230 N   0  0  0  0  0  0  0  0  0  0  0  0
  -22.3680  -14.5560   20.6480 O   0  0  0  0  0  0  0  0  0  0  0  0
  -22.3980  -12.0060   22.4770 H   0  0  0  0  0  0  0  0  0  0  0  0
  -21.1150  -13.1620   22.2290 H   0  0  0  0  0  0  0  0  0  0  0  0
  -25.4350  -15.1900   20.4160 N   0  0  0  0  0  0  0  0  0  0  0  0
  -24.6580  -15.8280   20.5550 H   0  0  0  0  0  0  0  0  0  0  0  0
  -26.2840  -15.6640   20.1280 H   0  0  0  0  0  0  0  0  0  0  0  0
  2  1  1  0
  2  3  1  0
  4  3  1  0
  5  7  2  0
  6  5  1  0
  6  4  1  0
  8  6  1  0
  9 10  1  0
  9  5  1  0
 10 12  1  0
 11 22  2  0
 12 17  1  0
 13 21  1  0
 13 23  1  0
 14 20  1  0
 14 16  1  0
 15 21  1  0
 16 15  1  0
 17 16  2  0
 18 19  1  0
 18 12  2  0
 19 14  2  0
 20 13  1  0
 21 11  1  0
 23 25  2  0
 24 23  1  0
 26 24  1  0
 27 36  2  0
 27 32  1  0
 28 24  1  0
 28 32  1  0
 29 28  1  0
 30 31  1  0
 30 29  1  0
 31 27  1  0
 32 33  2  0
 33 34  1  0
 35 34  2  0
 36 35  1  0
 37 11  1  0
 37 38  1  0
 37 47  1  0
 38 41  1  0
 39 43  1  0
 39 38  1  0
 40 39  2  0
 43 42  1  0
 45 43  1  0
 45 46  1  0
 45 44  1  0
 47 50  1  1
 47 48  1  0
 49 47  1  0
 51 52  1  0
 51  1  1  0
 52 54  1  0
 53 55  2  0
 54 53  1  0
 56 54  1  0
 57 53  1  0
 58 60  2  0
 59 57  1  0
 59 58  1  0
 61 59  1  0
 62 58  1  0
 63 71  1  0
 64 69  1  0
 65 66  1  0
 65 64  1  0
 67 66  1  0
 67 76  1  0
 67 68  1  0
 69 63  1  0
 69 68  1  0
 70 63  2  0
 71 62  1  0
 71 72  1  0
 73 74  2  0
 74 93  1  0
 75 74  1  0
 75 78  1  0
 76 73  1  0
 76 77  1  0
 77 75  2  0
 78 79  1  0
 79 80  2  0
 81 84  1  0
 81 80  1  0
 82 81  2  0
 83 82  1  0
 83 78  2  0
 84 85  1  0
 85 86  1  0
 86 87  2  0
 88 87  1  0
 88 92  1  0
 89 88  2  0
 90 85  2  0
 90 89  1  0
 91 90  1  0
 93 94  1  0
 94 97  1  0
 94 96  1  0
 95 93  2  0
 98 99  1  0
 98 73  1  0
100 98  1  0
M  ISO  4   9 101  10 101  63 100  71 100
M  END
>  <TORSDO>  (19) 
F 27

>  <SCORE>  (19) 
5.332

>  <name>  (19) 
20

>  <ligand_id>  (19) 
20

>  <original_smiles>  (19) 
[H]c1c([H])c([H])c2c(c1[H])C([H])([H])C([H])([H])C([H])([H])C2([H])N([H])C(=O)C1([H])N(C(=O)C([H])(N([H])C(=O)C([H])(N([H])C([H])([H])[H])C([H])([H])[H])C(C([H])([H])[H])(C([H])([H])[H])C([H])([H])[H])C([H])([H])c2c([H])c(OC([H])([H])C(=O)N([H])C([H])([H])C([H])([H])C([H])([H])C([H])([H])C([H])([H])C([H])([H])N([H])C(=O)C([H])([H])N([H])C(=O)C([H])([H])N([H])C(=O)N3C([H])([H])C([H])([H])C([H])([H])C([H])(n4nc(-c5c([H])c([H])c(Oc6c([H])c([H])c(F)c([H])c6F)c([H])c5[H])c(C(=O)N([H])[H])c4N([H])[H])C3([H])[H])c([H])c([H])c2C1([H])[H]

>  <smiles>  (19) 
[H]c1c([H])c([H])c2c(c1[H])C([H])([H])C([H])([H])C([H])([H])C2([H])N([H])C(=O)C1([H])N(C(=O)C([H])(N([H])C(=O)C([H])(N([H])C([H])([H])[H])C([H])([H])[H])C(C([H])([H])[H])(C([H])([H])[H])C([H])([H])[H])C([H])([H])c2c([H])c(OC([H])([H])C(=O)N([H])C([H])([H])C([H])([H])C([H])([H])C([H])([H])C([H])([H])C([H])([H])N([H])C(=O)C([H])([H])N([H])C(=O)C([H])([H])N([H])C(=O)N3C([H])([H])C([H])([H])C([H])([H])C([H])(n4nc(-c5c([H])c([H])c(Oc6c([H])c([H])c(F)c([H])c6F)c([H])c5[H])c(C(=O)N([H])[H])c4N([H])[H])C3([H])[H])c([H])c([H])c2C1([H])[H]

$$$$
21:0:0
     RDKit          3D

106113  0  0  1  0  0  0  0  0999 V2000
  -27.6230  -25.1000   23.6340 C   0  0  0  0  0  2  0  0  0  0  0  0
  -28.7880  -26.1020   23.6540 C   0  0  0  0  0  0  0  0  0  0  0  0
  -28.6430  -27.1880   24.4180 N   0  0  0  0  0  0  0  0  0  0  0  0
  -29.8040  -25.9030   22.9830 O   0  0  0  0  0  0  0  0  0  0  0  0
  -27.7710  -27.2960   24.9170 H   0  0  0  0  0  0  0  0  0  0  0  0
  -29.6780  -28.1900   24.6920 C   0  0  0  0  0  2  0  0  0  0  0  0
  -30.3250  -28.8330   23.4550 C   0  0  0  0  0  0  0  0  0  0  0  0
  -30.2150  -28.2060   22.2800 N   0  0  0  0  0  0  0  0  0  0  0  0
  -30.9020  -29.9160   23.5630 O   0  0  0  0  0  0  0  0  0  0  0  0
  -29.7590  -27.3030   22.2700 H   0  0  0  0  0  0  0  0  0  0  0  0
  -30.6810  -28.7320   21.0030 C   0  0  0  0  0  2  0  0  0  0  0  0
  -30.1580  -27.8950   19.8180 C   0  0  0  0  0  2  0  0  0  0  0  0
  -28.9690  -27.1460   20.0840 O   0  0  0  0  0  0  0  0  0  0  0  0
  -24.6260  -31.8010   23.3000 C   0  0  0  0  0  0  0  0  0  0  0  0
  -27.7720  -27.8200   20.0990 C   0  0  0  0  0  0  0  0  0  0  0  0
  -23.6110  -30.4260   21.5060 C   0  0  0  0  0  3  0  0  0  0  0  0
  -25.2490  -29.0950   20.0750 C   0  0  0  0  0  0  0  0  0  0  0  0
  -26.1000  -30.9940   21.4670 C   0  0  0  0  0  2  0  0  0  0  0  0
  -26.3250  -29.6790   20.7540 C   0  0  0  0  0  0  0  0  0  0  0  0
  -27.5840  -29.0500   20.7690 C   0  0  0  0  0  3  0  0  0  0  0  0
  -26.6750  -27.2280   19.4400 C   0  0  0  0  0  3  0  0  0  0  0  0
  -25.4160  -27.8620   19.4170 C   0  0  0  0  0  3  0  0  0  0  0  0
  -23.9390  -29.8500   20.1020 C   0  0  0  0  0  2  0  0  0  0  0  0
  -24.7930  -31.0850   22.1510 N   0  0  0  0  0  0  0  0  0  0  0  0
  -23.5030  -31.9570   23.7980 O   0  0  0  0  0  0  0  0  0  0  0  0
  -22.9940  -29.3000   22.3660 C   0  0  0  0  0  0  0  0  0  0  0  0
  -21.6820  -29.0720   22.1940 N   0  0  0  0  0  0  0  0  0  0  0  0
  -23.6920  -28.6400   23.1410 O   0  0  0  0  0  0  0  0  0  0  0  0
  -21.1810  -29.6610   21.5440 H   0  0  0  0  0  0  0  0  0  0  0  0
  -18.3510  -27.7190   22.5290 C   0  0  0  0  0  0  0  0  0  0  0  0
  -20.8940  -28.0380   22.8620 C   0  0  0  0  0  3  0  0  0  0  0  0
  -21.0550  -26.6720   22.1550 C   0  0  0  0  0  2  0  0  0  0  0  0
  -19.9760  -26.4070   21.1010 C   0  0  0  0  0  2  0  0  0  0  0  0
  -18.5840  -26.4440   21.7360 C   0  0  0  0  0  2  0  0  0  0  0  0
  -19.4370  -28.4750   23.0450 C   0  0  0  0  0  0  0  0  0  0  0  0
  -19.1670  -29.6710   23.7440 C   0  0  0  0  0  3  0  0  0  0  0  0
  -17.8440  -30.1110   23.9360 C   0  0  0  0  0  3  0  0  0  0  0  0
  -16.7730  -29.3490   23.4380 C   0  0  0  0  0  3  0  0  0  0  0  0
  -17.0270  -28.1550   22.7410 C   0  0  0  0  0  3  0  0  0  0  0  0
  -25.8310  -32.4770   24.0270 C   0  0  0  0  0  3  0  0  0  0  0  0
  -25.4560  -33.8700   24.3000 N   0  0  0  0  0  0  0  0  0  0  0  0
  -25.8610  -34.9200   23.5740 C   0  0  0  0  0  0  0  0  0  0  0  0
  -26.6570  -34.8200   22.6350 O   0  0  0  0  0  0  0  0  0  0  0  0
  -24.7630  -34.0180   25.0190 H   0  0  0  0  0  0  0  0  0  0  0  0
  -24.1370  -36.6570   23.0000 C   0  0  0  0  0  1  0  0  0  0  0  0
  -25.2940  -36.3020   23.9470 C   0  0  0  0  0  3  0  0  0  0  0  0
  -27.3200  -37.2430   24.9670 C   0  0  0  0  0  1  0  0  0  0  0  0
  -26.3080  -37.3800   23.9240 N   0  0  0  0  0  0  0  0  0  0  0  0
  -25.8670  -38.2900   24.0270 H   0  0  0  0  0  0  0  0  0  0  0  0
  -26.2500  -31.7370   25.3570 C   0  0  1  0  0  0  0  0  0  0  0  0
  -25.0670  -31.4620   26.3130 C   0  0  0  0  0  1  0  0  0  0  0  0
  -26.9270  -30.3820   25.0390 C   0  0  0  0  0  1  0  0  0  0  0  0
  -27.2940  -32.5830   26.1230 C   0  0  0  0  0  1  0  0  0  0  0  0
  -29.0480  -23.0960   23.2850 C   0  0  0  0  0  0  0  0  0  0  0  0
  -27.9890  -23.8500   22.9670 N   0  0  0  0  0  0  0  0  0  0  0  0
  -29.7640  -23.3270   24.2590 O   0  0  0  0  0  0  0  0  0  0  0  0
  -27.4810  -23.6150   22.1260 H   0  0  0  0  0  0  0  0  0  0  0  0
  -29.3850  -21.9480   22.3420 C   0  0  0  0  0  2  0  0  0  0  0  0
  -31.1720  -21.6070   20.6630 C   0  0  0  0  0  0  0  0  0  0  0  0
  -30.6450  -22.2740   21.6900 N   0  0  0  0  0  0  0  0  0  0  0  0
  -30.6590  -20.5780   20.2170 O   0  0  0  0  0  0  0  0  0  0  0  0
  -31.1140  -23.1070   22.0210 H   0  0  0  0  0  0  0  0  0  0  0  0
  -32.4490  -22.1900   20.0460 C   0  0  0  0  0  2  0  0  0  0  0  0
  -33.6720  -20.2780   19.0220 C   0  0  0  0  0  0  0  0  0  0  0  0
  -33.5210  -21.2010   19.9760 N   0  0  0  0  0  0  0  0  0  0  0  0
  -32.9250  -20.1960   18.0450 O   0  0  0  0  0  0  0  0  0  0  0  0
  -34.1620  -21.1760   20.7570 H   0  0  0  0  0  0  0  0  0  0  0  0
  -34.8500  -19.3160   19.1970 C   0  0  0  0  0  2  0  0  0  0  0  0
  -34.7660  -17.1070   18.0480 C   0  0  0  0  0  0  0  0  0  0  0  0
  -34.9840  -14.7220   17.4620 C   0  0  0  0  0  2  0  0  0  0  0  0
  -33.9400  -14.2380   16.4420 C   0  0  0  0  0  2  0  0  0  0  0  0
  -32.6460  -13.8080   17.1530 C   0  0  0  0  0  2  0  0  0  0  0  0
  -32.1320  -14.8820   18.1460 C   0  0  0  0  0  3  0  0  0  0  0  0
  -33.2670  -15.3630   19.0760 C   0  0  0  0  0  2  0  0  0  0  0  0
  -34.4040  -15.8170   18.2510 N   0  0  0  0  0  0  0  0  0  0  0  0
  -35.4800  -17.4800   17.1110 O   0  0  0  0  0  0  0  0  0  0  0  0
  -34.4410  -17.9220   19.0530 N   0  0  0  0  0  0  0  0  0  0  0  0
  -33.8770  -17.5300   19.7930 H   0  0  0  0  0  0  0  0  0  0  0  0
  -29.8200  -15.0610   19.2730 C   0  0  0  0  0  0  0  0  0  0  0  0
  -29.0420  -14.1340   19.9120 C   0  0  0  0  0  0  0  0  0  0  0  0
  -29.7870  -12.9160   19.8980 C   0  0  0  0  0  0  0  0  0  0  0  0
  -30.9820  -14.3960   18.9070 N   0  0  0  0  0  0  0  0  0  0  0  0
  -30.9740  -13.1080   19.3370 N   0  0  0  0  0  0  0  0  0  0  0  0
  -29.4150  -11.5620   20.3350 C   0  0  0  0  0  0  0  0  0  0  0  0
  -30.3820  -10.6470   20.8060 C   0  0  0  0  0  3  0  0  0  0  0  0
  -29.9980   -9.3580   21.2370 C   0  0  0  0  0  3  0  0  0  0  0  0
  -28.6360   -8.9760   21.2020 C   0  0  0  0  0  0  0  0  0  0  0  0
  -27.6820   -9.8820   20.7090 C   0  0  0  0  0  3  0  0  0  0  0  0
  -28.0650  -11.1620   20.2760 C   0  0  0  0  0  3  0  0  0  0  0  0
  -28.1740   -7.7370   21.5740 O   0  0  0  0  0  0  0  0  0  0  0  0
  -29.0060   -6.7920   22.1190 C   0  0  0  0  0  0  0  0  0  0  0  0
  -30.1500   -7.1490   22.8670 C   0  0  0  0  0  3  0  0  0  0  0  0
  -30.9390   -6.1470   23.4680 C   0  0  0  0  0  3  0  0  0  0  0  0
  -30.5830   -4.7930   23.3310 C   0  0  0  0  0  0  0  0  0  0  0  0
  -29.4410   -4.4360   22.5910 C   0  0  0  0  0  3  0  0  0  0  0  0
  -28.6540   -5.4330   21.9900 C   0  0  0  0  0  0  0  0  0  0  0  0
  -27.5440   -5.0860   21.2960 F   0  0  0  0  0  0  0  0  0  0  0  0
  -31.3350   -3.8310   23.9150 F   0  0  0  0  0  0  0  0  0  0  0  0
  -27.6440  -14.3390   20.4220 C   0  0  0  0  0  0  0  0  0  0  0  0
  -27.2630  -13.6220   21.4730 N   0  0  0  0  0  0  0  0  0  0  0  0
  -26.8950  -15.1750   19.9180 O   0  0  0  0  0  0  0  0  0  0  0  0
  -27.8830  -12.9510   21.9020 H   0  0  0  0  0  0  0  0  0  0  0  0
  -26.3360  -13.7490   21.8570 H   0  0  0  0  0  0  0  0  0  0  0  0
  -29.6330  -16.4030   18.9560 N   0  0  0  0  0  0  0  0  0  0  0  0
  -28.7760  -16.8990   19.1760 H   0  0  0  0  0  0  0  0  0  0  0  0
  -30.3030  -16.9740   18.4550 H   0  0  0  0  0  0  0  0  0  0  0  0
  1  2  1  0
  2  3  1  0
  3  6  1  0
  3  5  1  0
  4  2  2  0
  7  9  2  0
  7  6  1  0
  8  7  1  0
 10  8  1  0
 11  8  1  0
 12 13  1  0
 12 11  1  0
 13 15  1  0
 14 25  2  0
 15 20  1  0
 16 24  1  0
 16 26  1  0
 17 23  1  0
 17 19  1  0
 18 24  1  0
 19 20  2  0
 19 18  1  0
 21 15  2  0
 22 21  1  0
 22 17  2  0
 23 16  1  0
 24 14  1  0
 26 28  2  0
 27 26  1  0
 29 27  1  0
 30 39  2  0
 30 35  1  0
 31 27  1  0
 31 35  1  0
 32 31  1  0
 33 34  1  0
 33 32  1  0
 34 30  1  0
 35 36  2  0
 36 37  1  0
 38 37  2  0
 39 38  1  0
 40 14  1  0
 40 41  1  0
 40 50  1  0
 41 44  1  0
 42 46  1  0
 42 41  1  0
 43 42  2  0
 46 45  1  0
 48 46  1  0
 48 49  1  0
 48 47  1  0
 50 53  1  1
 50 51  1  0
 52 50  1  0
 54 56  2  0
 55 54  1  0
 55  1  1  0
 57 55  1  0
 58 54  1  0
 59 60  1  0
 60 62  1  0
 60 58  1  0
 61 59  2  0
 63 59  1  0
 64 68  1  0
 64 65  1  0
 65 63  1  0
 65 67  1  0
 66 64  2  0
 69 75  1  0
 69 77  1  0
 70 75  1  0
 71 72  1  0
 71 70  1  0
 73 72  1  0
 73 82  1  0
 73 74  1  0
 75 74  1  0
 76 69  2  0
 77 68  1  0
 77 78  1  0
 79 80  2  0
 80 99  1  0
 81 80  1  0
 81 84  1  0
 82 79  1  0
 82 83  1  0
 83 81  2  0
 84 85  1  0
 85 86  2  0
 87 86  1  0
 87 90  1  0
 88 87  2  0
 89 84  2  0
 89 88  1  0
 90 91  1  0
 91 92  1  0
 92 93  2  0
 94 93  1  0
 94 98  1  0
 95 94  2  0
 96 91  2  0
 96 95  1  0
 97 96  1  0
 99100  1  0
100103  1  0
100102  1  0
101 99  2  0
104105  1  0
104 79  1  0
106104  1  0
M  ISO  4  12 101  13 101  69 100  77 100
M  END
>  <TORSDO>  (20) 
F 27

>  <SCORE>  (20) 
-7.577

>  <name>  (20) 
21

>  <ligand_id>  (20) 
21

>  <original_smiles>  (20) 
[H]c1c([H])c([H])c2c(c1[H])C([H])([H])C([H])([H])C([H])([H])C2([H])N([H])C(=O)C1([H])N(C(=O)C([H])(N([H])C(=O)C([H])(N([H])C([H])([H])[H])C([H])([H])[H])C(C([H])([H])[H])(C([H])([H])[H])C([H])([H])[H])C([H])([H])c2c([H])c(OC([H])([H])C([H])([H])N([H])C(=O)C([H])([H])N([H])C(=O)C([H])([H])N([H])C(=O)C([H])([H])N([H])C(=O)C([H])([H])N([H])C(=O)C([H])([H])N([H])C(=O)N3C([H])([H])C([H])([H])C([H])([H])C([H])(n4nc(-c5c([H])c([H])c(Oc6c([H])c([H])c(F)c([H])c6F)c([H])c5[H])c(C(=O)N([H])[H])c4N([H])[H])C3([H])[H])c([H])c([H])c2C1([H])[H]

>  <smiles>  (20) 
[H]c1c([H])c([H])c2c(c1[H])C([H])([H])C([H])([H])C([H])([H])C2([H])N([H])C(=O)C1([H])N(C(=O)C([H])(N([H])C(=O)C([H])(N([H])C([H])([H])[H])C([H])([H])[H])C(C([H])([H])[H])(C([H])([H])[H])C([H])([H])[H])C([H])([H])c2c([H])c(OC([H])([H])C([H])([H])N([H])C(=O)C([H])([H])N([H])C(=O)C([H])([H])N([H])C(=O)C([H])([H])N([H])C(=O)C([H])([H])N([H])C(=O)C([H])([H])N([H])C(=O)N3C([H])([H])C([H])([H])C([H])([H])C([H])(n4nc(-c5c([H])c([H])c(Oc6c([H])c([H])c(F)c([H])c6F)c([H])c5[H])c(C(=O)N([H])[H])c4N([H])[H])C3([H])[H])c([H])c([H])c2C1([H])[H]

$$$$
22:0:0
     RDKit          3D

111118  0  0  1  0  0  0  0  0999 V2000
  -37.5550  -23.1890   13.7670 C   0  0  0  0  0  0  0  0  0  0  0  0
  -38.1100  -22.0260   13.4040 N   0  0  0  0  0  0  0  0  0  0  0  0
  -37.7230  -23.6640   14.8890 O   0  0  0  0  0  0  0  0  0  0  0  0
  -38.0040  -21.6980   12.4590 H   0  0  0  0  0  0  0  0  0  0  0  0
  -36.7240  -23.9610   12.7470 C   0  0  0  0  0  2  0  0  0  0  0  0
  -35.3750  -22.9390   10.9500 C   0  0  0  0  0  0  0  0  0  0  0  0
  -35.6280  -23.1450   12.2450 N   0  0  0  0  0  0  0  0  0  0  0  0
  -35.9380  -23.5620   10.0460 O   0  0  0  0  0  0  0  0  0  0  0  0
  -35.1350  -22.5750   12.9200 H   0  0  0  0  0  0  0  0  0  0  0  0
  -34.3550  -21.8490   10.6090 C   0  0  0  0  0  2  0  0  0  0  0  0
  -32.8010  -20.2930   11.7870 C   0  0  0  0  0  0  0  0  0  0  0  0
  -33.8310  -21.1550   11.7900 N   0  0  0  0  0  0  0  0  0  0  0  0
  -32.2010  -19.9860   10.7570 O   0  0  0  0  0  0  0  0  0  0  0  0
  -34.2580  -21.3770   12.6780 H   0  0  0  0  0  0  0  0  0  0  0  0
  -32.3490  -19.7210   13.1350 C   0  0  0  0  0  2  0  0  0  0  0  0
  -33.3850  -21.2330   14.8960 C   0  0  0  0  0  0  0  0  0  0  0  0
  -32.3490  -20.6590   14.2620 N   0  0  0  0  0  0  0  0  0  0  0  0
  -34.5490  -21.1640   14.5150 O   0  0  0  0  0  0  0  0  0  0  0  0
  -31.4490  -20.7960   14.6910 H   0  0  0  0  0  0  0  0  0  0  0  0
  -33.0530  -22.0260   16.1580 C   0  0  0  0  0  2  0  0  0  0  0  0
  -31.2880  -23.3890   15.0720 C   0  0  0  0  0  0  0  0  0  0  0  0
  -30.4710  -25.6950   14.9470 C   0  0  0  0  0  2  0  0  0  0  0  0
  -31.3370  -26.5390   15.9090 C   0  0  0  0  0  2  0  0  0  0  0  0
  -30.7570  -26.4990   17.3370 C   0  0  0  0  0  2  0  0  0  0  0  0
  -30.4130  -25.0640   17.8120 C   0  0  0  0  0  3  0  0  0  0  0  0
  -29.6250  -24.2870   16.7310 C   0  0  0  0  0  2  0  0  0  0  0  0
  -30.3980  -24.3310   15.4840 N   0  0  0  0  0  0  0  0  0  0  0  0
  -31.8630  -23.4220   13.9890 O   0  0  0  0  0  0  0  0  0  0  0  0
  -31.6990  -22.5690   16.0470 N   0  0  0  0  0  0  0  0  0  0  0  0
  -31.1720  -22.5720   16.9030 H   0  0  0  0  0  0  0  0  0  0  0  0
  -30.2220  -25.2100   20.3630 C   0  0  0  0  0  0  0  0  0  0  0  0
  -29.1340  -25.2630   21.1980 C   0  0  0  0  0  0  0  0  0  0  0  0
  -27.9880  -25.1130   20.3580 C   0  0  0  0  0  0  0  0  0  0  0  0
  -29.7090  -25.0800   19.0860 N   0  0  0  0  0  0  0  0  0  0  0  0
  -28.3570  -24.9590   19.0950 N   0  0  0  0  0  0  0  0  0  0  0  0
  -26.5500  -25.1520   20.6670 C   0  0  0  0  0  0  0  0  0  0  0  0
  -25.7250  -26.1800   20.1610 C   0  0  0  0  0  3  0  0  0  0  0  0
  -24.3450  -26.1950   20.4500 C   0  0  0  0  0  3  0  0  0  0  0  0
  -23.7740  -25.1720   21.2440 C   0  0  0  0  0  0  0  0  0  0  0  0
  -24.6050  -24.1520   21.7480 C   0  0  0  0  0  3  0  0  0  0  0  0
  -25.9810  -24.1410   21.4660 C   0  0  0  0  0  3  0  0  0  0  0  0
  -22.4490  -25.1220   21.6100 O   0  0  0  0  0  0  0  0  0  0  0  0
  -21.8090  -26.2100   22.1460 C   0  0  0  0  0  0  0  0  0  0  0  0
  -22.3650  -26.9600   23.2030 C   0  0  0  0  0  3  0  0  0  0  0  0
  -21.7020  -28.1120   23.6700 C   0  0  0  0  0  3  0  0  0  0  0  0
  -20.4880  -28.5170   23.0770 C   0  0  0  0  0  0  0  0  0  0  0  0
  -19.9410  -27.7780   22.0170 C   0  0  0  0  0  3  0  0  0  0  0  0
  -20.6020  -26.6260   21.5450 C   0  0  0  0  0  0  0  0  0  0  0  0
  -20.0780  -25.9290   20.5100 F   0  0  0  0  0  0  0  0  0  0  0  0
  -19.8510  -29.6210   23.5290 F   0  0  0  0  0  0  0  0  0  0  0  0
  -29.1490  -25.5270   22.6780 C   0  0  0  0  0  0  0  0  0  0  0  0
  -28.8350  -26.7520   23.0850 N   0  0  0  0  0  0  0  0  0  0  0  0
  -29.4080  -24.6350   23.4810 O   0  0  0  0  0  0  0  0  0  0  0  0
  -28.6590  -27.4910   22.4260 H   0  0  0  0  0  0  0  0  0  0  0  0
  -28.8350  -26.9600   24.0770 H   0  0  0  0  0  0  0  0  0  0  0  0
  -31.5980  -25.2760   20.5600 N   0  0  0  0  0  0  0  0  0  0  0  0
  -32.0510  -25.4590   21.4420 H   0  0  0  0  0  0  0  0  0  0  0  0
  -32.2590  -25.3490   19.8000 H   0  0  0  0  0  0  0  0  0  0  0  0
  -38.8950  -21.2510   14.3470 C   0  0  0  0  0  2  0  0  0  0  0  0
  -38.1290  -20.7180   15.5360 C   0  0  0  0  0  0  0  0  0  0  0  0
  -38.3260  -21.3030   16.7320 N   0  0  0  0  0  4  0  0  0  0  0  0
  -37.3350  -19.6240   15.3750 N   0  0  0  0  0  0  0  0  0  0  0  0
  -39.0860  -21.9690   16.8480 H   0  0  0  0  0  0  0  0  0  0  0  0
  -37.9140  -20.9780   17.5970 H   0  0  0  0  0  0  0  0  0  0  0  0
  -36.8220  -19.2200   16.1490 H   0  0  0  0  0  0  0  0  0  0  0  0
  -37.1770  -18.9880   14.0470 C   0  0  0  0  0  2  0  0  0  0  0  0
  -38.1930  -17.9210   13.6090 C   0  0  0  0  0  2  0  0  0  0  0  0
  -38.1730  -17.7680   12.0730 C   0  0  0  0  0  2  0  0  0  0  0  0
  -37.1320  -16.7520   11.5780 C   0  0  0  0  0  2  0  0  0  0  0  0
  -37.7160  -15.3290   11.3870 C   0  0  0  0  0  2  0  0  0  0  0  0
  -37.1100  -14.3130   12.1720 O   0  0  0  0  0  0  0  0  0  0  0  0
  -34.1850  -15.9480   18.3540 C   0  0  0  0  0  0  0  0  0  0  0  0
  -37.2830  -14.2180   13.5350 C   0  0  0  0  0  0  0  0  0  0  0  0
  -36.4790  -15.0020   18.5240 C   0  0  0  0  0  3  0  0  0  0  0  0
  -37.4130  -14.0360   16.3510 C   0  0  0  0  0  0  0  0  0  0  0  0
  -34.9330  -14.3950   16.5690 C   0  0  0  0  0  2  0  0  0  0  0  0
  -36.1790  -14.2230   15.7220 C   0  0  0  0  0  0  0  0  0  0  0  0
  -36.1120  -14.2870   14.3200 C   0  0  0  0  0  3  0  0  0  0  0  0
  -38.5300  -14.0660   14.1780 C   0  0  0  0  0  3  0  0  0  0  0  0
  -38.5980  -13.9830   15.5880 C   0  0  0  0  0  3  0  0  0  0  0  0
  -37.3840  -13.9260   17.8570 C   0  0  0  0  0  2  0  0  0  0  0  0
  -35.1560  -15.1500   17.8250 N   0  0  0  0  0  0  0  0  0  0  0  0
  -34.3470  -16.5090   19.4460 O   0  0  0  0  0  0  0  0  0  0  0  0
  -37.2780  -16.3200   18.6130 C   0  0  0  0  0  0  0  0  0  0  0  0
  -37.5930  -16.7460   19.8470 N   0  0  0  0  0  0  0  0  0  0  0  0
  -37.6370  -16.9150   17.5930 O   0  0  0  0  0  0  0  0  0  0  0  0
  -37.2600  -16.2000   20.6300 H   0  0  0  0  0  0  0  0  0  0  0  0
  -38.0410  -19.3370   22.3190 C   0  0  0  0  0  0  0  0  0  0  0  0
  -38.3780  -17.9350   20.1750 C   0  0  0  0  0  3  0  0  0  0  0  0
  -39.7550  -17.5430   20.7680 C   0  0  0  0  0  2  0  0  0  0  0  0
  -39.7490  -17.4720   22.2980 C   0  0  0  0  0  2  0  0  0  0  0  0
  -39.3450  -18.8180   22.9020 C   0  0  0  0  0  2  0  0  0  0  0  0
  -37.5780  -18.9110   21.0460 C   0  0  0  0  0  0  0  0  0  0  0  0
  -36.3380  -19.3960   20.5750 C   0  0  0  0  0  3  0  0  0  0  0  0
  -35.5760  -20.2940   21.3460 C   0  0  0  0  0  3  0  0  0  0  0  0
  -36.0480  -20.7250   22.5970 C   0  0  0  0  0  3  0  0  0  0  0  0
  -37.2780  -20.2480   23.0800 C   0  0  0  0  0  3  0  0  0  0  0  0
  -32.8220  -16.1740   17.6290 C   0  0  0  0  0  3  0  0  0  0  0  0
  -32.7420  -17.5400   16.8410 C   0  0  1  0  0  0  0  0  0  0  0  0
  -31.9980  -17.4360   15.4910 C   0  0  0  0  0  1  0  0  0  0  0  0
  -32.0290  -18.6210   17.6870 C   0  0  0  0  0  1  0  0  0  0  0  0
  -34.1700  -18.0660   16.5650 C   0  0  0  0  0  1  0  0  0  0  0  0
  -31.7690  -16.0940   18.6470 N   0  0  0  0  0  0  0  0  0  0  0  0
  -30.9800  -15.0310   18.8470 C   0  0  0  0  0  0  0  0  0  0  0  0
  -31.0270  -14.0190   18.1410 O   0  0  0  0  0  0  0  0  0  0  0  0
  -31.7100  -16.8680   19.2920 H   0  0  0  0  0  0  0  0  0  0  0  0
  -30.1270  -13.8420   20.8890 C   0  0  0  0  0  1  0  0  0  0  0  0
  -29.9840  -15.1000   20.0190 C   0  0  0  0  0  3  0  0  0  0  0  0
  -28.2040  -16.6290   19.2960 C   0  0  0  0  0  1  0  0  0  0  0  0
  -28.5780  -15.2510   19.5910 N   0  0  0  0  0  0  0  0  0  0  0  0
  -27.9440  -14.8950   20.3010 H   0  0  0  0  0  0  0  0  0  0  0  0
  1  3  2  0
  2  1  1  0
  2 59  1  0
  4  2  1  0
  5  1  1  0
  6  7  1  0
  7  5  1  0
  7  9  1  0
  8  6  2  0
 10  6  1  0
 10 12  1  0
 11 12  1  0
 11 15  1  0
 12 14  1  0
 13 11  2  0
 15 17  1  0
 16 20  1  0
 17 19  1  0
 17 16  1  0
 18 16  2  0
 21 27  1  0
 21 29  1  0
 22 27  1  0
 22 23  1  0
 23 24  1  0
 24 25  1  0
 25 26  1  0
 25 34  1  0
 27 26  1  0
 28 21  2  0
 29 20  1  0
 29 30  1  0
 31 56  1  0
 31 32  2  0
 32 51  1  0
 33 36  1  0
 33 32  1  0
 34 35  1  0
 34 31  1  0
 35 33  2  0
 36 41  1  0
 37 38  1  0
 37 36  2  0
 38 39  2  0
 39 42  1  0
 39 40  1  0
 41 40  2  0
 42 43  1  0
 43 44  1  0
 44 45  2  0
 46 50  1  0
 46 45  1  0
 47 46  2  0
 48 47  1  0
 48 43  2  0
 49 48  1  0
 51 52  1  0
 51 53  2  0
 52 55  1  0
 54 52  1  0
 56 57  1  0
 58 56  1  0
 59 60  1  0
 60 61  2  0
 61 63  1  0
 61 64  1  0
 62 60  1  0
 62 65  1  0
 66 62  1  0
 67 66  1  0
 68 67  1  0
 69 68  1  0
 70 69  1  0
 70 71  1  0
 71 73  1  0
 72 83  2  0
 73 79  2  0
 73 78  1  0
 74 84  1  0
 75 81  1  0
 76 82  1  0
 77 75  1  0
 77 76  1  0
 78 77  2  0
 79 80  1  0
 80 75  2  0
 81 74  1  0
 82 72  1  0
 82 74  1  0
 84 85  1  0
 85 87  1  0
 86 84  2  0
 88 92  1  0
 88 97  1  0
 89 85  1  0
 89 90  1  0
 89 93  1  0
 90 91  1  0
 91 92  1  0
 93 88  2  0
 94 93  1  0
 94 95  2  0
 95 96  1  0
 96 97  2  0
 98 72  1  0
 98103  1  0
 99 98  1  0
 99101  1  1
100 99  1  0
102 99  1  0
103104  1  0
103106  1  0
104108  1  0
105104  2  0
108107  1  0
109110  1  0
110108  1  0
110111  1  0
M  ISO  4  21 100  29 100  70 101  71 101
M  END
>  <TORSDO>  (21) 
F 30

>  <SCORE>  (21) 
-3.549

>  <name>  (21) 
22

>  <ligand_id>  (21) 
22

>  <original_smiles>  (21) 
[H]c1c([H])c([H])c2c(c1[H])C([H])([H])C([H])([H])C([H])([H])C2([H])N([H])C(=O)C1([H])N(C(=O)C([H])(N([H])C(=O)C([H])(N([H])C([H])([H])[H])C([H])([H])[H])C(C([H])([H])[H])(C([H])([H])[H])C([H])([H])[H])C([H])([H])c2c([H])c(OC([H])([H])C([H])([H])C([H])([H])C([H])([H])C([H])([H])[N+]([H])=C(N([H])[H])C([H])([H])N([H])C(=O)C([H])([H])N([H])C(=O)C([H])([H])N([H])C(=O)C([H])([H])N([H])C(=O)C([H])([H])N([H])C(=O)N3C([H])([H])C([H])([H])C([H])([H])C([H])(n4nc(-c5c([H])c([H])c(Oc6c([H])c([H])c(F)c([H])c6F)c([H])c5[H])c(C(=O)N([H])[H])c4N([H])[H])C3([H])[H])c([H])c([H])c2C1([H])[H]

>  <smiles>  (21) 
[H]c1c([H])c([H])c2c(c1[H])C([H])([H])C([H])([H])C([H])([H])C2([H])N([H])C(=O)C1([H])N(C(=O)C([H])(N([H])C(=O)C([H])(N([H])C([H])([H])[H])C([H])([H])[H])C(C([H])([H])[H])(C([H])([H])[H])C([H])([H])[H])C([H])([H])c2c([H])c(OC([H])([H])C([H])([H])C([H])([H])C([H])([H])C([H])([H])[N+]([H])=C(N([H])[H])C([H])([H])N([H])C(=O)C([H])([H])N([H])C(=O)C([H])([H])N([H])C(=O)C([H])([H])N([H])C(=O)C([H])([H])N([H])C(=O)N3C([H])([H])C([H])([H])C([H])([H])C([H])(n4nc(-c5c([H])c([H])c(Oc6c([H])c([H])c(F)c([H])c6F)c([H])c5[H])c(C(=O)N([H])[H])c4N([H])[H])C3([H])[H])c([H])c([H])c2C1([H])[H]

$$$$
23:0:0
     RDKit          3D

110117  0  0  1  0  0  0  0  0999 V2000
  -27.7100  -19.1870   24.7830 N   0  0  0  0  0  4  0  0  0  0  0  0
  -27.2900  -20.1030   24.7170 H   0  0  0  0  0  0  0  0  0  0  0  0
  -28.6680  -19.3170   25.0620 H   0  0  0  0  0  0  0  0  0  0  0  0
  -26.9920  -18.3690   25.7840 C   0  0  0  0  0  2  0  0  0  0  0  0
  -27.1160  -18.9190   27.2210 C   0  0  0  0  0  2  0  0  0  0  0  0
  -29.0200  -17.6970   28.2500 C   0  0  0  0  0  0  0  0  0  0  0  0
  -28.4710  -18.8190   27.7650 N   0  0  0  0  0  0  0  0  0  0  0  0
  -28.4400  -16.6110   28.2240 O   0  0  0  0  0  0  0  0  0  0  0  0
  -29.0020  -19.6750   27.8640 H   0  0  0  0  0  0  0  0  0  0  0  0
  -30.4260  -17.8050   28.8450 C   0  0  0  0  0  2  0  0  0  0  0  0
  -31.5040  -18.1390   27.7950 C   0  0  0  0  0  2  0  0  0  0  0  0
  -31.7090  -17.0410   26.7400 C   0  0  0  0  0  2  0  0  0  0  0  0
  -32.5660  -17.5160   25.5580 C   0  0  0  0  0  2  0  0  0  0  0  0
  -31.7880  -16.1000   23.6700 C   0  0  0  0  0  0  0  0  0  0  0  0
  -32.7110  -16.4580   24.5680 N   0  0  0  0  0  0  0  0  0  0  0  0
  -30.7060  -16.6800   23.5460 O   0  0  0  0  0  0  0  0  0  0  0  0
  -33.5770  -15.9340   24.5780 H   0  0  0  0  0  0  0  0  0  0  0  0
  -32.1390  -14.8970   22.8050 C   0  0  0  0  0  2  0  0  0  0  0  0
  -30.8870  -14.2070   20.7820 C   0  0  0  0  0  0  0  0  0  0  0  0
  -30.4000  -12.2810   19.3470 C   0  0  0  0  0  2  0  0  0  0  0  0
  -29.4570  -12.5440   18.1680 C   0  0  0  0  0  2  0  0  0  0  0  0
  -27.9950  -12.3800   18.6080 C   0  0  0  0  0  2  0  0  0  0  0  0
  -27.6660  -13.2070   19.8770 C   0  0  0  0  0  3  0  0  0  0  0  0
  -28.7110  -12.9750   20.9920 C   0  0  0  0  0  2  0  0  0  0  0  0
  -30.0620  -13.1920   20.4450 N   0  0  0  0  0  0  0  0  0  0  0  0
  -31.7210  -14.7040   20.0200 O   0  0  0  0  0  0  0  0  0  0  0  0
  -30.9770  -14.3540   22.1040 N   0  0  0  0  0  0  0  0  0  0  0  0
  -30.2860  -13.8830   22.6660 H   0  0  0  0  0  0  0  0  0  0  0  0
  -25.2610  -13.8180   20.5700 C   0  0  0  0  0  0  0  0  0  0  0  0
  -24.1860  -13.0450   20.9180 C   0  0  0  0  0  0  0  0  0  0  0  0
  -24.6410  -11.6910   20.8740 C   0  0  0  0  0  0  0  0  0  0  0  0
  -26.3050  -12.9360   20.3410 N   0  0  0  0  0  0  0  0  0  0  0  0
  -25.9340  -11.6500   20.5790 N   0  0  0  0  0  0  0  0  0  0  0  0
  -23.9070  -10.4300   21.0400 C   0  0  0  0  0  0  0  0  0  0  0  0
  -24.3620   -9.4210   21.9180 C   0  0  0  0  0  3  0  0  0  0  0  0
  -23.6290   -8.2240   22.0750 C   0  0  0  0  0  3  0  0  0  0  0  0
  -22.4280   -8.0290   21.3540 C   0  0  0  0  0  0  0  0  0  0  0  0
  -21.9910   -9.0260   20.4640 C   0  0  0  0  0  3  0  0  0  0  0  0
  -22.7240  -10.2140   20.3050 C   0  0  0  0  0  3  0  0  0  0  0  0
  -21.6640   -6.8880   21.4240 O   0  0  0  0  0  0  0  0  0  0  0  0
  -21.6850   -6.0740   22.5270 C   0  0  0  0  0  0  0  0  0  0  0  0
  -21.4020   -6.5640   23.8210 C   0  0  0  0  0  3  0  0  0  0  0  0
  -21.3660   -5.6790   24.9170 C   0  0  0  0  0  3  0  0  0  0  0  0
  -21.6040   -4.3060   24.7220 C   0  0  0  0  0  0  0  0  0  0  0  0
  -21.8820   -3.8150   23.4340 C   0  0  0  0  0  3  0  0  0  0  0  0
  -21.9190   -4.6960   22.3400 C   0  0  0  0  0  0  0  0  0  0  0  0
  -22.1660   -4.2150   21.0980 F   0  0  0  0  0  0  0  0  0  0  0  0
  -21.5630   -3.4540   25.7730 F   0  0  0  0  0  0  0  0  0  0  0  0
  -22.7870  -13.5240   21.1840 C   0  0  0  0  0  0  0  0  0  0  0  0
  -22.0510  -12.8240   22.0380 N   0  0  0  0  0  0  0  0  0  0  0  0
  -22.3560  -14.5550   20.6680 O   0  0  0  0  0  0  0  0  0  0  0  0
  -22.4120  -11.9890   22.4780 H   0  0  0  0  0  0  0  0  0  0  0  0
  -21.1120  -13.1260   22.2570 H   0  0  0  0  0  0  0  0  0  0  0  0
  -25.4340  -15.1890   20.4110 N   0  0  0  0  0  0  0  0  0  0  0  0
  -24.6680  -15.8460   20.5080 H   0  0  0  0  0  0  0  0  0  0  0  0
  -26.2910  -15.6220   20.0900 H   0  0  0  0  0  0  0  0  0  0  0  0
  -27.6730  -18.6430   23.4120 C   0  0  0  0  0  2  0  0  0  0  0  0
  -27.8090  -19.7680   22.3910 C   0  0  0  0  0  0  0  0  0  0  0  0
  -28.3850  -19.4670   21.2210 N   0  0  0  0  0  0  0  0  0  0  0  0
  -27.3640  -20.8840   22.6600 O   0  0  0  0  0  0  0  0  0  0  0  0
  -28.7130  -18.5170   21.1030 H   0  0  0  0  0  0  0  0  0  0  0  0
  -28.5200  -20.3490   20.0580 C   0  0  0  0  0  2  0  0  0  0  0  0
  -29.8990  -21.0440   19.9610 C   0  0  0  0  0  2  0  0  0  0  0  0
  -29.8980  -22.4890   20.4750 C   0  0  0  0  0  0  0  0  0  0  0  0
  -29.9660  -23.4590   19.5560 N   0  0  0  0  0  0  0  0  0  0  0  0
  -29.8410  -22.7230   21.6830 O   0  0  0  0  0  0  0  0  0  0  0  0
  -30.0470  -23.1840   18.5860 H   0  0  0  0  0  0  0  0  0  0  0  0
  -29.8850  -24.8910   19.8260 C   0  0  0  0  0  2  0  0  0  0  0  0
  -28.4400  -25.4040   19.7260 C   0  0  0  0  0  2  0  0  0  0  0  0
  -28.4370  -26.7850   20.0700 O   0  0  0  0  0  0  0  0  0  0  0  0
  -24.6130  -31.8700   23.2100 C   0  0  0  0  0  0  0  0  0  0  0  0
  -27.2340  -27.4570   20.0810 C   0  0  0  0  0  0  0  0  0  0  0  0
  -23.3980  -30.4950   21.5500 C   0  0  0  0  0  3  0  0  0  0  0  0
  -24.8400  -28.9610   20.1180 C   0  0  0  0  0  0  0  0  0  0  0  0
  -25.9240  -30.8400   21.3610 C   0  0  0  0  0  2  0  0  0  0  0  0
  -25.9990  -29.4760   20.7100 C   0  0  0  0  0  0  0  0  0  0  0  0
  -27.1960  -28.7300   20.6890 C   0  0  0  0  0  3  0  0  0  0  0  0
  -26.0490  -26.9440   19.5000 C   0  0  0  0  0  3  0  0  0  0  0  0
  -24.8570  -27.6910   19.5160 C   0  0  0  0  0  3  0  0  0  0  0  0
  -23.6050  -29.8300   20.1640 C   0  0  0  0  0  2  0  0  0  0  0  0
  -24.6630  -31.0810   22.1000 N   0  0  0  0  0  0  0  0  0  0  0  0
  -23.5340  -32.1480   23.7500 O   0  0  0  0  0  0  0  0  0  0  0  0
  -22.7390  -29.4670   22.5000 C   0  0  0  0  0  0  0  0  0  0  0  0
  -21.4130  -29.3030   22.3730 N   0  0  0  0  0  0  0  0  0  0  0  0
  -23.4170  -28.8210   23.3030 O   0  0  0  0  0  0  0  0  0  0  0  0
  -20.9280  -29.8810   21.7010 H   0  0  0  0  0  0  0  0  0  0  0  0
  -18.0270  -28.1380   22.8480 C   0  0  0  0  0  0  0  0  0  0  0  0
  -20.5860  -28.3650   23.1310 C   0  0  0  0  0  3  0  0  0  0  0  0
  -20.6750  -26.9390   22.5410 C   0  0  0  0  0  2  0  0  0  0  0  0
  -19.5730  -26.6380   21.5200 C   0  0  0  0  0  2  0  0  0  0  0  0
  -18.1900  -26.7920   22.1620 C   0  0  0  0  0  2  0  0  0  0  0  0
  -19.1520  -28.8830   23.2880 C   0  0  0  0  0  0  0  0  0  0  0  0
  -18.9470  -30.1440   23.8890 C   0  0  0  0  0  3  0  0  0  0  0  0
  -17.6480  -30.6590   24.0570 C   0  0  0  0  0  3  0  0  0  0  0  0
  -16.5360  -29.9100   23.6330 C   0  0  0  0  0  3  0  0  0  0  0  0
  -16.7270  -28.6520   23.0340 C   0  0  0  0  0  3  0  0  0  0  0  0
  -25.9050  -32.4830   23.8370 C   0  0  0  0  0  3  0  0  0  0  0  0
  -26.4490  -31.6640   25.0720 C   0  0  1  0  0  0  0  0  0  0  0  0
  -25.3740  -31.3770   26.1470 C   0  0  0  0  0  1  0  0  0  0  0  0
  -27.0360  -30.3090   24.6110 C   0  0  0  0  0  1  0  0  0  0  0  0
  -27.6060  -32.4390   25.7480 C   0  0  0  0  0  1  0  0  0  0  0  0
  -25.5920  -33.8620   24.2300 N   0  0  0  0  0  0  0  0  0  0  0  0
  -25.9050  -34.9470   23.5100 C   0  0  0  0  0  0  0  0  0  0  0  0
  -26.5600  -34.8930   22.4660 O   0  0  0  0  0  0  0  0  0  0  0  0
  -25.0130  -33.9800   25.0480 H   0  0  0  0  0  0  0  0  0  0  0  0
  -24.1470  -36.7280   23.2640 C   0  0  0  0  0  1  0  0  0  0  0  0
  -25.4110  -36.3100   24.0320 C   0  0  0  0  0  3  0  0  0  0  0  0
  -27.5570  -37.1800   24.8470 C   0  0  0  0  0  1  0  0  0  0  0  0
  -26.4280  -37.3780   23.9410 N   0  0  0  0  0  0  0  0  0  0  0  0
  -26.0160  -38.2840   24.1470 H   0  0  0  0  0  0  0  0  0  0  0  0
  1  3  1  0
  1  4  1  0
  2  1  1  0
  4  5  1  0
  5  7  1  0
  6 10  1  0
  7  9  1  0
  7  6  1  0
  8  6  2  0
 11 10  1  0
 12 11  1  0
 13 12  1  0
 14 15  1  0
 15 17  1  0
 15 13  1  0
 16 14  2  0
 18 14  1  0
 19 27  1  0
 20 25  1  0
 21 22  1  0
 21 20  1  0
 23 22  1  0
 23 32  1  0
 23 24  1  0
 25 19  1  0
 25 24  1  0
 26 19  2  0
 27 28  1  0
 27 18  1  0
 29 30  2  0
 30 49  1  0
 31 30  1  0
 31 34  1  0
 32 29  1  0
 32 33  1  0
 33 31  2  0
 34 35  1  0
 35 36  2  0
 37 40  1  0
 37 36  1  0
 38 37  2  0
 39 38  1  0
 39 34  2  0
 40 41  1  0
 41 42  1  0
 42 43  2  0
 44 43  1  0
 44 48  1  0
 45 44  2  0
 46 41  2  0
 46 45  1  0
 47 46  1  0
 49 50  1  0
 50 53  1  0
 50 52  1  0
 51 49  2  0
 54 55  1  0
 54 29  1  0
 56 54  1  0
 57  1  1  0
 58 60  2  0
 58 57  1  0
 59 58  1  0
 61 59  1  0
 62 59  1  0
 63 62  1  0
 63 64  1  0
 64 66  2  0
 65 68  1  0
 65 64  1  0
 67 65  1  0
 69 68  1  0
 69 70  1  0
 70 72  1  0
 71 82  2  0
 72 77  1  0
 73 81  1  0
 73 83  1  0
 74 80  1  0
 74 76  1  0
 75 81  1  0
 76 75  1  0
 77 76  2  0
 78 79  1  0
 78 72  2  0
 79 74  2  0
 80 73  1  0
 81 71  1  0
 83 85  2  0
 84 83  1  0
 86 84  1  0
 87 96  2  0
 87 92  1  0
 88 84  1  0
 88 92  1  0
 89 88  1  0
 90 91  1  0
 90 89  1  0
 91 87  1  0
 92 93  2  0
 93 94  1  0
 95 94  2  0
 96 95  1  0
 97 71  1  0
 97102  1  0
 97 98  1  0
 98101  1  1
 98 99  1  0
100 98  1  0
102105  1  0
103107  1  0
103102  1  0
104103  2  0
107106  1  0
109107  1  0
109110  1  0
109108  1  0
M  ISO  4  19 100  27 100  69 101  70 101
M  END
>  <TORSDO>  (22) 
F 32

>  <SCORE>  (22) 
51.699

>  <name>  (22) 
23

>  <ligand_id>  (22) 
23

>  <original_smiles>  (22) 
[H]c1c([H])c([H])c2c(c1[H])C([H])([H])C([H])([H])C([H])([H])C2([H])N([H])C(=O)C1([H])N(C(=O)C([H])(N([H])C(=O)C([H])(N([H])C([H])([H])[H])C([H])([H])[H])C(C([H])([H])[H])(C([H])([H])[H])C([H])([H])[H])C([H])([H])c2c([H])c(OC([H])([H])C([H])([H])N([H])C(=O)C([H])([H])C([H])([H])N([H])C(=O)C([H])([H])[N+]([H])([H])C([H])([H])C([H])([H])N([H])C(=O)C([H])([H])C([H])([H])C([H])([H])C([H])([H])N([H])C(=O)C([H])([H])N([H])C(=O)N3C([H])([H])C([H])([H])C([H])([H])C([H])(n4nc(-c5c([H])c([H])c(Oc6c([H])c([H])c(F)c([H])c6F)c([H])c5[H])c(C(=O)N([H])[H])c4N([H])[H])C3([H])[H])c([H])c([H])c2C1([H])[H]

>  <smiles>  (22) 
[H]c1c([H])c([H])c2c(c1[H])C([H])([H])C([H])([H])C([H])([H])C2([H])N([H])C(=O)C1([H])N(C(=O)C([H])(N([H])C(=O)C([H])(N([H])C([H])([H])[H])C([H])([H])[H])C(C([H])([H])[H])(C([H])([H])[H])C([H])([H])[H])C([H])([H])c2c([H])c(OC([H])([H])C([H])([H])N([H])C(=O)C([H])([H])C([H])([H])N([H])C(=O)C([H])([H])[N+]([H])([H])C([H])([H])C([H])([H])N([H])C(=O)C([H])([H])C([H])([H])C([H])([H])C([H])([H])N([H])C(=O)C([H])([H])N([H])C(=O)N3C([H])([H])C([H])([H])C([H])([H])C([H])(n4nc(-c5c([H])c([H])c(Oc6c([H])c([H])c(F)c([H])c6F)c([H])c5[H])c(C(=O)N([H])[H])c4N([H])[H])C3([H])[H])c([H])c([H])c2C1([H])[H]

$$$$
24:0:0
     RDKit          3D

105112  0  0  1  0  0  0  0  0999 V2000
  -23.9370  -18.6350   24.4390 C   0  0  0  0  0  0  0  0  0  0  0  0
  -23.1110  -19.5740   24.9220 N   0  0  0  0  0  0  0  0  0  0  0  0
  -25.1140  -18.8640   24.1530 O   0  0  0  0  0  0  0  0  0  0  0  0
  -22.1670  -19.2900   25.1450 H   0  0  0  0  0  0  0  0  0  0  0  0
  -23.4530  -20.9670   25.2120 C   0  0  0  0  0  2  0  0  0  0  0  0
  -22.7240  -21.9720   24.2870 C   0  0  0  0  0  2  0  0  0  0  0  0
  -23.6800  -22.7790   23.3870 C   0  0  0  0  0  2  0  0  0  0  0  0
  -23.9430  -24.1990   23.9200 C   0  0  0  0  0  2  0  0  0  0  0  0
  -25.7560  -24.9970   22.4150 C   0  0  0  0  0  0  0  0  0  0  0  0
  -25.2840  -24.6910   23.6260 N   0  0  0  0  0  0  0  0  0  0  0  0
  -25.2000  -24.6470   21.3710 O   0  0  0  0  0  0  0  0  0  0  0  0
  -25.8450  -24.9740   24.4200 H   0  0  0  0  0  0  0  0  0  0  0  0
  -26.9870  -25.9020   22.3920 C   0  0  0  0  0  2  0  0  0  0  0  0
  -28.0800  -25.4590   21.3940 C   0  0  0  0  0  2  0  0  0  0  0  0
  -29.0160  -26.6110   20.9790 C   0  0  0  0  0  2  0  0  0  0  0  0
  -28.6420  -27.1990   19.7310 O   0  0  0  0  0  0  0  0  0  0  0  0
  -24.4570  -31.7840   23.1990 C   0  0  0  0  0  0  0  0  0  0  0  0
  -27.4580  -27.8820   19.7640 C   0  0  0  0  0  0  0  0  0  0  0  0
  -23.3820  -30.4910   21.3780 C   0  0  0  0  0  3  0  0  0  0  0  0
  -24.9700  -29.1890   19.8610 C   0  0  0  0  0  0  0  0  0  0  0  0
  -25.8790  -31.0120   21.3110 C   0  0  0  0  0  2  0  0  0  0  0  0
  -26.0680  -29.7170   20.5540 C   0  0  0  0  0  0  0  0  0  0  0  0
  -27.3120  -29.0550   20.5290 C   0  0  0  0  0  3  0  0  0  0  0  0
  -26.3630  -27.3790   19.0350 C   0  0  0  0  0  3  0  0  0  0  0  0
  -25.1090  -28.0110   19.1080 C   0  0  0  0  0  3  0  0  0  0  0  0
  -23.6730  -29.9600   19.9480 C   0  0  0  0  0  2  0  0  0  0  0  0
  -24.5890  -31.1050   22.0250 N   0  0  0  0  0  0  0  0  0  0  0  0
  -23.3460  -31.9370   23.7260 O   0  0  0  0  0  0  0  0  0  0  0  0
  -22.7670  -29.3410   22.2090 C   0  0  0  0  0  0  0  0  0  0  0  0
  -21.4360  -29.1830   22.1140 N   0  0  0  0  0  0  0  0  0  0  0  0
  -23.4790  -28.6020   22.8950 O   0  0  0  0  0  0  0  0  0  0  0  0
  -20.9180  -29.8330   21.5380 H   0  0  0  0  0  0  0  0  0  0  0  0
  -18.0750  -27.9950   22.6620 C   0  0  0  0  0  0  0  0  0  0  0  0
  -20.6520  -28.1440   22.7810 C   0  0  0  0  0  3  0  0  0  0  0  0
  -20.6630  -26.8230   21.9740 C   0  0  0  0  0  2  0  0  0  0  0  0
  -19.4820  -26.6990   21.0030 C   0  0  0  0  0  2  0  0  0  0  0  0
  -18.1560  -26.7710   21.7660 C   0  0  0  0  0  2  0  0  0  0  0  0
  -19.2460  -28.6470   23.1310 C   0  0  0  0  0  0  0  0  0  0  0  0
  -19.1160  -29.8020   23.9330 C   0  0  0  0  0  3  0  0  0  0  0  0
  -17.8470  -30.3020   24.2750 C   0  0  0  0  0  3  0  0  0  0  0  0
  -16.6880  -29.6440   23.8210 C   0  0  0  0  0  3  0  0  0  0  0  0
  -16.8030  -28.4900   23.0250 C   0  0  0  0  0  3  0  0  0  0  0  0
  -25.6860  -32.4200   23.9230 C   0  0  0  0  0  3  0  0  0  0  0  0
  -25.3780  -33.8370   24.1500 N   0  0  0  0  0  0  0  0  0  0  0  0
  -25.8100  -34.8430   23.3770 C   0  0  0  0  0  0  0  0  0  0  0  0
  -26.5750  -34.6750   22.4240 O   0  0  0  0  0  0  0  0  0  0  0  0
  -24.7110  -34.0410   24.8800 H   0  0  0  0  0  0  0  0  0  0  0  0
  -24.1910  -36.6610   22.7390 C   0  0  0  0  0  1  0  0  0  0  0  0
  -25.3090  -36.2630   23.7150 C   0  0  0  0  0  3  0  0  0  0  0  0
  -27.3820  -37.1000   24.7320 C   0  0  0  0  0  1  0  0  0  0  0  0
  -26.3790  -37.2830   23.6860 N   0  0  0  0  0  0  0  0  0  0  0  0
  -25.9900  -38.2180   23.7800 H   0  0  0  0  0  0  0  0  0  0  0  0
  -26.0560  -31.6980   25.2760 C   0  0  1  0  0  0  0  0  0  0  0  0
  -24.8380  -31.4440   26.1960 C   0  0  0  0  0  1  0  0  0  0  0  0
  -26.7310  -30.3340   24.9970 C   0  0  0  0  0  1  0  0  0  0  0  0
  -27.0780  -32.5460   26.0640 C   0  0  0  0  0  1  0  0  0  0  0  0
  -23.3380  -17.2330   24.2650 C   0  0  0  0  0  2  0  0  0  0  0  0
  -24.9040  -15.4860   23.4000 C   0  0  0  0  0  0  0  0  0  0  0  0
  -24.0170  -16.4710   23.2200 N   0  0  0  0  0  0  0  0  0  0  0  0
  -25.2090  -15.0500   24.5130 O   0  0  0  0  0  0  0  0  0  0  0  0
  -23.8570  -16.7850   22.2720 H   0  0  0  0  0  0  0  0  0  0  0  0
  -25.5220  -14.9020   22.1260 C   0  0  0  0  0  2  0  0  0  0  0  0
  -27.7350  -15.5980   21.2120 C   0  0  0  0  0  0  0  0  0  0  0  0
  -26.9920  -14.9190   22.0920 N   0  0  0  0  0  0  0  0  0  0  0  0
  -27.2430  -16.3620   20.3800 O   0  0  0  0  0  0  0  0  0  0  0  0
  -27.4670  -14.3390   22.7690 H   0  0  0  0  0  0  0  0  0  0  0  0
  -29.2540  -15.3790   21.2360 C   0  0  0  0  0  2  0  0  0  0  0  0
  -30.3540  -13.9300   19.4550 C   0  0  0  0  0  0  0  0  0  0  0  0
  -30.2000  -11.5160   18.9440 C   0  0  0  0  0  2  0  0  0  0  0  0
  -29.2180  -11.2660   17.7800 C   0  0  0  0  0  2  0  0  0  0  0  0
  -27.7640  -11.1560   18.2820 C   0  0  0  0  0  2  0  0  0  0  0  0
  -27.3860  -12.3130   19.2420 C   0  0  0  0  0  3  0  0  0  0  0  0
  -28.4690  -12.4440   20.3280 C   0  0  0  0  0  2  0  0  0  0  0  0
  -29.7610  -12.7190   19.6760 N   0  0  0  0  0  0  0  0  0  0  0  0
  -31.3410  -14.0550   18.7250 O   0  0  0  0  0  0  0  0  0  0  0  0
  -29.7470  -15.0420   19.8970 N   0  0  0  0  0  0  0  0  0  0  0  0
  -30.0270  -15.8610   19.3790 H   0  0  0  0  0  0  0  0  0  0  0  0
  -25.0480  -13.0370   20.0470 C   0  0  0  0  0  0  0  0  0  0  0  0
  -24.0010  -12.3290   20.5670 C   0  0  0  0  0  0  0  0  0  0  0  0
  -24.4320  -10.9660   20.6100 C   0  0  0  0  0  0  0  0  0  0  0  0
  -26.0630  -12.1160   19.8300 N   0  0  0  0  0  0  0  0  0  0  0  0
  -25.6940  -10.8680   20.2140 N   0  0  0  0  0  0  0  0  0  0  0  0
  -23.6980   -9.7420   20.9440 C   0  0  0  0  0  0  0  0  0  0  0  0
  -24.1570   -8.8500   21.9400 C   0  0  0  0  0  3  0  0  0  0  0  0
  -23.4200   -7.6890   22.2560 C   0  0  0  0  0  3  0  0  0  0  0  0
  -22.2110   -7.4130   21.5800 C   0  0  0  0  0  0  0  0  0  0  0  0
  -21.7700   -8.2880   20.5730 C   0  0  0  0  0  3  0  0  0  0  0  0
  -22.5050   -9.4400   20.2550 C   0  0  0  0  0  3  0  0  0  0  0  0
  -21.4430   -6.2940   21.8040 O   0  0  0  0  0  0  0  0  0  0  0  0
  -21.5050   -5.6030   22.9870 C   0  0  0  0  0  0  0  0  0  0  0  0
  -21.0040   -6.1430   24.1910 C   0  0  0  0  0  3  0  0  0  0  0  0
  -21.0220   -5.3690   25.3710 C   0  0  0  0  0  3  0  0  0  0  0  0
  -21.5380   -4.0590   25.3460 C   0  0  0  0  0  0  0  0  0  0  0  0
  -22.0300   -3.5190   24.1450 C   0  0  0  0  0  3  0  0  0  0  0  0
  -22.0110   -4.2880   22.9700 C   0  0  0  0  0  0  0  0  0  0  0  0
  -22.4680   -3.7550   21.8110 F   0  0  0  0  0  0  0  0  0  0  0  0
  -21.5490   -3.3130   26.4760 F   0  0  0  0  0  0  0  0  0  0  0  0
  -22.6400  -12.8600   20.9130 C   0  0  0  0  0  0  0  0  0  0  0  0
  -21.9480  -12.2140   21.8440 N   0  0  0  0  0  0  0  0  0  0  0  0
  -22.2050  -13.8880   20.3950 O   0  0  0  0  0  0  0  0  0  0  0  0
  -22.3090  -11.3730   22.2720 H   0  0  0  0  0  0  0  0  0  0  0  0
  -21.0390  -12.5500   22.1240 H   0  0  0  0  0  0  0  0  0  0  0  0
  -25.2180  -14.3770   19.7160 N   0  0  0  0  0  0  0  0  0  0  0  0
  -24.4640  -15.0520   19.7670 H   0  0  0  0  0  0  0  0  0  0  0  0
  -26.0700  -14.7670   19.3380 H   0  0  0  0  0  0  0  0  0  0  0  0
  1  2  1  0
  2  4  1  0
  2  5  1  0
  3  1  2  0
  6  5  1  0
  7  8  1  0
  7  6  1  0
  9 10  1  0
 10  8  1  0
 10 12  1  0
 11  9  2  0
 13  9  1  0
 14 13  1  0
 15 14  1  0
 16 18  1  0
 16 15  1  0
 17 28  2  0
 18 23  1  0
 19 27  1  0
 19 29  1  0
 20 26  1  0
 20 22  1  0
 21 27  1  0
 22 21  1  0
 23 22  2  0
 24 25  1  0
 24 18  2  0
 25 20  2  0
 26 19  1  0
 27 17  1  0
 29 31  2  0
 30 29  1  0
 32 30  1  0
 33 42  2  0
 33 38  1  0
 34 30  1  0
 34 38  1  0
 35 34  1  0
 36 37  1  0
 36 35  1  0
 37 33  1  0
 38 39  2  0
 39 40  1  0
 41 40  2  0
 42 41  1  0
 43 17  1  0
 43 44  1  0
 43 53  1  0
 44 47  1  0
 45 49  1  0
 45 44  1  0
 46 45  2  0
 49 48  1  0
 51 49  1  0
 51 52  1  0
 51 50  1  0
 53 56  1  1
 53 54  1  0
 55 53  1  0
 57  1  1  0
 58 60  2  0
 59 58  1  0
 59 57  1  0
 61 59  1  0
 62 58  1  0
 63 67  1  0
 63 64  1  0
 64 62  1  0
 64 66  1  0
 65 63  2  0
 68 74  1  0
 68 76  1  0
 69 74  1  0
 70 71  1  0
 70 69  1  0
 72 71  1  0
 72 81  1  0
 72 73  1  0
 74 73  1  0
 75 68  2  0
 76 67  1  0
 77 76  1  0
 78 79  2  0
 79 80  1  0
 79 98  1  0
 80 83  1  0
 81 78  1  0
 81 82  1  0
 82 80  2  0
 83 84  1  0
 84 85  2  0
 86 89  1  0
 86 85  1  0
 87 86  2  0
 88 87  1  0
 88 83  2  0
 89 90  1  0
 90 91  1  0
 91 92  2  0
 93 92  1  0
 93 97  1  0
 94 93  2  0
 95 90  2  0
 95 94  1  0
 96 95  1  0
 98 99  1  0
 99102  1  0
 99101  1  0
100 98  2  0
103104  1  0
103 78  1  0
105103  1  0
M  ISO  4  15 101  16 101  68 100  76 100
M  END
>  <TORSDO>  (23) 
F 29

>  <SCORE>  (23) 
30.565

>  <name>  (23) 
24

>  <ligand_id>  (23) 
24

>  <original_smiles>  (23) 
[H]c1c([H])c([H])c2c(c1[H])C([H])([H])C([H])([H])C([H])([H])C2([H])N([H])C(=O)C1([H])N(C(=O)C([H])(N([H])C(=O)C([H])(N([H])C([H])([H])[H])C([H])([H])[H])C(C([H])([H])[H])(C([H])([H])[H])C([H])([H])[H])C([H])([H])c2c([H])c(OC([H])([H])C([H])([H])C([H])([H])C(=O)N([H])C([H])([H])C([H])([H])C([H])([H])C([H])([H])N([H])C(=O)C([H])([H])N([H])C(=O)C([H])([H])N([H])C(=O)C([H])([H])N([H])C(=O)N3C([H])([H])C([H])([H])C([H])([H])C([H])(n4nc(-c5c([H])c([H])c(Oc6c([H])c([H])c(F)c([H])c6F)c([H])c5[H])c(C(=O)N([H])[H])c4N([H])[H])C3([H])[H])c([H])c([H])c2C1([H])[H]

>  <smiles>  (23) 
[H]c1c([H])c([H])c2c(c1[H])C([H])([H])C([H])([H])C([H])([H])C2([H])N([H])C(=O)C1([H])N(C(=O)C([H])(N([H])C(=O)C([H])(N([H])C([H])([H])[H])C([H])([H])[H])C(C([H])([H])[H])(C([H])([H])[H])C([H])([H])[H])C([H])([H])c2c([H])c(OC([H])([H])C([H])([H])C([H])([H])C(=O)N([H])C([H])([H])C([H])([H])C([H])([H])C([H])([H])N([H])C(=O)C([H])([H])N([H])C(=O)C([H])([H])N([H])C(=O)C([H])([H])N([H])C(=O)N3C([H])([H])C([H])([H])C([H])([H])C([H])(n4nc(-c5c([H])c([H])c(Oc6c([H])c([H])c(F)c([H])c6F)c([H])c5[H])c(C(=O)N([H])[H])c4N([H])[H])C3([H])[H])c([H])c([H])c2C1([H])[H]

$$$$
25:0:0
     RDKit          3D

 98105  0  0  1  0  0  0  0  0999 V2000
  -31.6330  -20.1420   19.0860 C   0  0  0  0  0  0  0  0  0  0  0  0
  -31.7160  -21.3390   18.4910 N   0  0  0  0  0  0  0  0  0  0  0  0
  -32.6170  -19.6700   19.6570 O   0  0  0  0  0  0  0  0  0  0  0  0
  -32.6350  -21.7630   18.5030 H   0  0  0  0  0  0  0  0  0  0  0  0
  -30.3120  -19.3450   19.0640 C   0  0  0  0  0  2  0  0  0  0  0  0
  -30.1570  -18.9960   21.5240 C   0  0  0  0  0  0  0  0  0  0  0  0
  -30.1340  -18.5310   20.2690 N   0  0  0  0  0  0  0  0  0  0  0  0
  -30.2370  -20.2040   21.7650 O   0  0  0  0  0  0  0  0  0  0  0  0
  -30.0470  -17.5340   20.1430 H   0  0  0  0  0  0  0  0  0  0  0  0
  -30.0320  -17.9730   22.5480 C   0  0  0  0  0  3  0  0  0  0  0  0
  -30.5800  -16.7350   22.5430 C   0  0  0  0  0  3  0  0  0  0  0  0
  -31.4850  -16.0570   21.5220 C   0  0  0  0  0  2  0  0  0  0  0  0
  -31.2390  -14.0530   20.0390 C   0  0  0  0  0  0  0  0  0  0  0  0
  -30.6510  -12.0800   18.6730 C   0  0  0  0  0  2  0  0  0  0  0  0
  -29.6570  -12.4530   17.5560 C   0  0  0  0  0  2  0  0  0  0  0  0
  -28.2050  -12.4130   18.0720 C   0  0  0  0  0  2  0  0  0  0  0  0
  -28.0250  -13.1880   19.4030 C   0  0  0  0  0  3  0  0  0  0  0  0
  -29.1040  -12.7650   20.4210 C   0  0  0  0  0  2  0  0  0  0  0  0
  -30.4300  -12.9870   19.8090 N   0  0  0  0  0  0  0  0  0  0  0  0
  -32.2590  -14.2940   19.3850 O   0  0  0  0  0  0  0  0  0  0  0  0
  -30.8380  -14.8430   21.0410 N   0  0  0  0  0  0  0  0  0  0  0  0
  -30.0060  -14.5420   21.5290 H   0  0  0  0  0  0  0  0  0  0  0  0
  -25.7060  -13.9700   20.2130 C   0  0  0  0  0  0  0  0  0  0  0  0
  -24.6050  -13.2760   20.6390 C   0  0  0  0  0  0  0  0  0  0  0  0
  -24.9700  -11.8950   20.5970 C   0  0  0  0  0  0  0  0  0  0  0  0
  -26.6760  -13.0170   19.9420 N   0  0  0  0  0  0  0  0  0  0  0  0
  -26.2370  -11.7640   20.2270 N   0  0  0  0  0  0  0  0  0  0  0  0
  -24.1700  -10.6860   20.8330 C   0  0  0  0  0  0  0  0  0  0  0  0
  -24.5750   -9.7030   21.7630 C   0  0  0  0  0  3  0  0  0  0  0  0
  -23.7800   -8.5580   21.9840 C   0  0  0  0  0  3  0  0  0  0  0  0
  -22.5670   -8.3890   21.2760 C   0  0  0  0  0  0  0  0  0  0  0  0
  -22.1820   -9.3590   20.3360 C   0  0  0  0  0  3  0  0  0  0  0  0
  -22.9750  -10.4960   20.1120 C   0  0  0  0  0  3  0  0  0  0  0  0
  -21.7450   -7.2960   21.4070 O   0  0  0  0  0  0  0  0  0  0  0  0
  -21.6820   -6.5780   22.5740 C   0  0  0  0  0  0  0  0  0  0  0  0
  -21.3460   -7.1830   23.8040 C   0  0  0  0  0  3  0  0  0  0  0  0
  -21.2260   -6.3960   24.9670 C   0  0  0  0  0  3  0  0  0  0  0  0
  -21.4300   -5.0040   24.9000 C   0  0  0  0  0  0  0  0  0  0  0  0
  -21.7570   -4.3990   23.6740 C   0  0  0  0  0  3  0  0  0  0  0  0
  -21.8800   -5.1840   22.5140 C   0  0  0  0  0  0  0  0  0  0  0  0
  -22.1770   -4.5920   21.3320 F   0  0  0  0  0  0  0  0  0  0  0  0
  -21.3040   -4.2470   26.0140 F   0  0  0  0  0  0  0  0  0  0  0  0
  -23.2590  -13.8500   20.9750 C   0  0  0  0  0  0  0  0  0  0  0  0
  -22.5350  -13.2180   21.8920 N   0  0  0  0  0  0  0  0  0  0  0  0
  -22.8620  -14.8940   20.4600 O   0  0  0  0  0  0  0  0  0  0  0  0
  -22.8700  -12.3740   22.3300 H   0  0  0  0  0  0  0  0  0  0  0  0
  -21.6340  -13.5890   22.1600 H   0  0  0  0  0  0  0  0  0  0  0  0
  -25.9590  -15.3250   20.0180 N   0  0  0  0  0  0  0  0  0  0  0  0
  -25.2500  -16.0360   20.1620 H   0  0  0  0  0  0  0  0  0  0  0  0
  -26.8270  -15.6960   19.6530 H   0  0  0  0  0  0  0  0  0  0  0  0
  -30.7080  -22.0200   17.6720 C   0  0  0  0  0  2  0  0  0  0  0  0
  -29.6440  -22.8260   18.4560 C   0  0  0  0  0  2  0  0  0  0  0  0
  -30.1440  -23.3700   19.7400 N   0  0  0  0  0  4  0  0  0  0  0  0
  -31.1380  -23.1980   19.7530 H   0  0  0  0  0  0  0  0  0  0  0  0
  -29.7540  -22.8280   20.4980 H   0  0  0  0  0  0  0  0  0  0  0  0
  -29.9290  -24.8240   19.9690 C   0  0  0  0  0  2  0  0  0  0  0  0
  -28.4530  -25.2800   19.9400 C   0  0  0  0  0  2  0  0  0  0  0  0
  -28.4310  -26.6890   20.1670 O   0  0  0  0  0  0  0  0  0  0  0  0
  -24.6120  -31.8370   23.2020 C   0  0  0  0  0  0  0  0  0  0  0  0
  -27.2280  -27.3610   20.1570 C   0  0  0  0  0  0  0  0  0  0  0  0
  -23.3920  -30.4310   21.5720 C   0  0  0  0  0  3  0  0  0  0  0  0
  -24.8310  -28.8670   20.1650 C   0  0  0  0  0  0  0  0  0  0  0  0
  -25.9170  -30.7720   21.3670 C   0  0  0  0  0  2  0  0  0  0  0  0
  -25.9910  -29.3950   20.7440 C   0  0  0  0  0  0  0  0  0  0  0  0
  -27.1890  -28.6490   20.7350 C   0  0  0  0  0  3  0  0  0  0  0  0
  -26.0430  -26.8370   19.5850 C   0  0  0  0  0  3  0  0  0  0  0  0
  -24.8510  -27.5860   19.5860 C   0  0  0  0  0  3  0  0  0  0  0  0
  -23.5930  -29.7340   20.2000 C   0  0  0  0  0  2  0  0  0  0  0  0
  -24.6580  -31.0290   22.1060 N   0  0  0  0  0  0  0  0  0  0  0  0
  -23.5340  -32.1220   23.7430 O   0  0  0  0  0  0  0  0  0  0  0  0
  -22.7340  -29.4230   22.5440 C   0  0  0  0  0  0  0  0  0  0  0  0
  -21.4100  -29.2480   22.4150 N   0  0  0  0  0  0  0  0  0  0  0  0
  -23.4140  -28.8010   23.3640 O   0  0  0  0  0  0  0  0  0  0  0  0
  -20.9230  -29.8020   21.7240 H   0  0  0  0  0  0  0  0  0  0  0  0
  -18.0310  -28.0700   22.9070 C   0  0  0  0  0  0  0  0  0  0  0  0
  -20.5860  -28.3230   23.1940 C   0  0  0  0  0  3  0  0  0  0  0  0
  -20.6880  -26.8840   22.6370 C   0  0  0  0  0  2  0  0  0  0  0  0
  -19.5930  -26.5510   21.6190 C   0  0  0  0  0  2  0  0  0  0  0  0
  -18.2080  -26.7110   22.2530 C   0  0  0  0  0  2  0  0  0  0  0  0
  -19.1480  -28.8340   23.3350 C   0  0  0  0  0  0  0  0  0  0  0  0
  -18.9320  -30.1060   23.9060 C   0  0  0  0  0  3  0  0  0  0  0  0
  -17.6280  -30.6160   24.0530 C   0  0  0  0  0  3  0  0  0  0  0  0
  -16.5230  -29.8500   23.6440 C   0  0  0  0  0  3  0  0  0  0  0  0
  -16.7260  -28.5790   23.0760 C   0  0  0  0  0  3  0  0  0  0  0  0
  -25.9060  -32.4620   23.8140 C   0  0  0  0  0  3  0  0  0  0  0  0
  -26.4420  -31.6740   25.0720 C   0  0  1  0  0  0  0  0  0  0  0  0
  -25.3650  -31.4210   26.1520 C   0  0  0  0  0  1  0  0  0  0  0  0
  -27.0220  -30.3040   24.6520 C   0  0  0  0  0  1  0  0  0  0  0  0
  -27.5990  -32.4620   25.7290 C   0  0  0  0  0  1  0  0  0  0  0  0
  -25.5990  -33.8540   24.1640 N   0  0  0  0  0  0  0  0  0  0  0  0
  -25.9230  -34.9160   23.4120 C   0  0  0  0  0  0  0  0  0  0  0  0
  -26.5820  -34.8240   22.3730 O   0  0  0  0  0  0  0  0  0  0  0  0
  -25.0140  -33.9990   24.9740 H   0  0  0  0  0  0  0  0  0  0  0  0
  -24.1860  -36.7060   23.0960 C   0  0  0  0  0  1  0  0  0  0  0  0
  -25.4380  -36.2970   23.8890 C   0  0  0  0  0  3  0  0  0  0  0  0
  -27.5810  -37.1780   24.7010 C   0  0  0  0  0  1  0  0  0  0  0  0
  -26.4660  -37.3540   23.7750 N   0  0  0  0  0  0  0  0  0  0  0  0
  -26.0600  -38.2720   23.9380 H   0  0  0  0  0  0  0  0  0  0  0  0
  1  3  2  0
  2  4  1  0
  2  1  1  0
  5  1  1  0
  5  7  1  0
  6  8  2  0
  6 10  1  0
  7  6  1  0
  9  7  1  0
 11 10  2  0
 12 11  1  0
 13 21  1  0
 14 19  1  0
 15 16  1  0
 15 14  1  0
 17 16  1  0
 17 26  1  0
 17 18  1  0
 19 13  1  0
 19 18  1  0
 20 13  2  0
 21 12  1  0
 21 22  1  0
 23 24  2  0
 24 43  1  0
 25 24  1  0
 25 28  1  0
 26 23  1  0
 26 27  1  0
 27 25  2  0
 28 29  1  0
 29 30  2  0
 31 34  1  0
 31 30  1  0
 32 31  2  0
 33 32  1  0
 33 28  2  0
 34 35  1  0
 35 36  1  0
 36 37  2  0
 38 37  1  0
 38 42  1  0
 39 38  2  0
 40 35  2  0
 40 39  1  0
 41 40  1  0
 43 44  1  0
 44 47  1  0
 44 46  1  0
 45 43  2  0
 48 49  1  0
 48 23  1  0
 50 48  1  0
 51 52  1  0
 51  2  1  0
 52 53  1  0
 53 54  1  0
 53 56  1  0
 53 55  1  0
 57 56  1  0
 57 58  1  0
 59 70  2  0
 60 58  1  0
 60 65  1  0
 61 69  1  0
 61 71  1  0
 62 68  1  0
 62 64  1  0
 63 69  1  0
 64 63  1  0
 65 64  2  0
 66 67  1  0
 66 60  2  0
 67 62  2  0
 68 61  1  0
 69 59  1  0
 71 73  2  0
 72 71  1  0
 74 72  1  0
 75 84  2  0
 75 80  1  0
 76 72  1  0
 76 80  1  0
 77 76  1  0
 78 79  1  0
 78 77  1  0
 79 75  1  0
 80 81  2  0
 81 82  1  0
 83 82  2  0
 84 83  1  0
 85 59  1  0
 85 90  1  0
 85 86  1  0
 86 89  1  1
 86 87  1  0
 88 86  1  0
 90 93  1  0
 91 95  1  0
 91 90  1  0
 92 91  2  0
 95 94  1  0
 97 95  1  0
 97 98  1  0
 97 96  1  0
M  ISO  4  13 100  21 100  57 101  58 101
M  END
>  <TORSDO>  (24) 
F 25

>  <SCORE>  (24) 
-11.068

>  <name>  (24) 
25

>  <ligand_id>  (24) 
25

>  <original_smiles>  (24) 
[H]C(C(=O)N([H])C([H])([H])C(=O)N([H])C([H])([H])C([H])([H])[N+]([H])([H])C([H])([H])C([H])([H])Oc1c([H])c([H])c2c(c1[H])C([H])([H])N(C(=O)C([H])(N([H])C(=O)C([H])(N([H])C([H])([H])[H])C([H])([H])[H])C(C([H])([H])[H])(C([H])([H])[H])C([H])([H])[H])C([H])(C(=O)N([H])C1([H])c3c([H])c([H])c([H])c([H])c3C([H])([H])C([H])([H])C1([H])[H])C2([H])[H])=C([H])C([H])([H])N([H])C(=O)N1C([H])([H])C([H])([H])C([H])([H])C([H])(n2nc(-c3c([H])c([H])c(Oc4c([H])c([H])c(F)c([H])c4F)c([H])c3[H])c(C(=O)N([H])[H])c2N([H])[H])C1([H])[H]

>  <smiles>  (24) 
[H]C(C(=O)N([H])C([H])([H])C(=O)N([H])C([H])([H])C([H])([H])[N+]([H])([H])C([H])([H])C([H])([H])Oc1c([H])c([H])c2c(c1[H])C([H])([H])N(C(=O)C([H])(N([H])C(=O)C([H])(N([H])C([H])([H])[H])C([H])([H])[H])C(C([H])([H])[H])(C([H])([H])[H])C([H])([H])[H])C([H])(C(=O)N([H])C1([H])c3c([H])c([H])c([H])c([H])c3C([H])([H])C([H])([H])C1([H])[H])C2([H])[H])=C([H])C([H])([H])N([H])C(=O)N1C([H])([H])C([H])([H])C([H])([H])C([H])(n2nc(-c3c([H])c([H])c(Oc4c([H])c([H])c(F)c([H])c4F)c([H])c3[H])c(C(=O)N([H])[H])c2N([H])[H])C1([H])[H]

$$$$
26:0:0
     RDKit          3D

112119  0  0  1  0  0  0  0  0999 V2000
  -23.7450  -18.6270   22.9950 C   0  0  0  0  0  0  0  0  0  0  0  0
  -23.0610  -19.2480   23.9620 N   0  0  0  0  0  0  0  0  0  0  0  0
  -24.1460  -19.2130   21.9860 O   0  0  0  0  0  0  0  0  0  0  0  0
  -22.8000  -18.7160   24.7770 H   0  0  0  0  0  0  0  0  0  0  0  0
  -22.7380  -20.6710   23.9770 C   0  0  0  0  0  2  0  0  0  0  0  0
  -23.8960  -21.4920   24.5620 C   0  0  0  0  0  0  0  0  0  0  0  0
  -24.2820  -22.5750   23.8780 N   0  0  0  0  0  0  0  0  0  0  0  0
  -24.4420  -21.1360   25.6100 O   0  0  0  0  0  0  0  0  0  0  0  0
  -23.7940  -22.8020   23.0240 H   0  0  0  0  0  0  0  0  0  0  0  0
  -25.3950  -23.4450   24.2410 C   0  0  0  0  0  2  0  0  0  0  0  0
  -24.8980  -24.8480   24.6170 C   0  0  0  0  0  0  0  0  0  0  0  0
  -24.5610  -25.7050   23.6420 N   0  0  0  0  0  0  0  0  0  0  0  0
  -24.8100  -25.1800   25.7990 O   0  0  0  0  0  0  0  0  0  0  0  0
  -24.3030  -26.6380   23.9410 H   0  0  0  0  0  0  0  0  0  0  0  0
  -24.4420  -25.3830   22.2180 C   0  0  0  0  0  2  0  0  0  0  0  0
  -23.5770  -26.3820   21.4490 C   0  0  0  0  0  2  0  0  0  0  0  0
  -24.3490  -27.6090   20.9110 C   0  0  0  0  0  2  0  0  0  0  0  0
  -23.5640  -28.8010   20.9570 O   0  0  0  0  0  0  0  0  0  0  0  0
  -27.8020  -33.1420   24.7280 C   0  0  0  0  0  0  0  0  0  0  0  0
  -23.7610  -29.5770   22.0740 C   0  0  0  0  0  0  0  0  0  0  0  0
  -25.7020  -32.4290   25.8330 C   0  0  0  0  0  3  0  0  0  0  0  0
  -24.0320  -31.2240   24.3400 C   0  0  0  0  0  0  0  0  0  0  0  0
  -25.8610  -32.5570   23.2870 C   0  0  0  0  0  2  0  0  0  0  0  0
  -24.8570  -31.4270   23.2260 C   0  0  0  0  0  0  0  0  0  0  0  0
  -24.7330  -30.6040   22.0870 C   0  0  0  0  0  3  0  0  0  0  0  0
  -22.9400  -29.3860   23.2020 C   0  0  0  0  0  3  0  0  0  0  0  0
  -23.0830  -30.1920   24.3410 C   0  0  0  0  0  3  0  0  0  0  0  0
  -24.2090  -32.1580   25.5120 C   0  0  0  0  0  2  0  0  0  0  0  0
  -26.5140  -32.7090   24.6070 N   0  0  0  0  0  0  0  0  0  0  0  0
  -28.3030  -33.3550   25.8430 O   0  0  0  0  0  0  0  0  0  0  0  0
  -26.2520  -31.2430   26.6640 C   0  0  0  0  0  0  0  0  0  0  0  0
  -25.9280  -31.2280   27.9700 N   0  0  0  0  0  0  0  0  0  0  0  0
  -26.9270  -30.3540   26.1350 O   0  0  0  0  0  0  0  0  0  0  0  0
  -25.3710  -31.9930   28.3250 H   0  0  0  0  0  0  0  0  0  0  0  0
  -25.7250  -30.2950   31.4510 C   0  0  0  0  0  0  0  0  0  0  0  0
  -26.3010  -30.1960   28.9340 C   0  0  0  0  0  3  0  0  0  0  0  0
  -25.3280  -28.9970   28.8670 C   0  0  0  0  0  2  0  0  0  0  0  0
  -24.1610  -29.1240   29.8490 C   0  0  0  0  0  2  0  0  0  0  0  0
  -24.6870  -29.1970   31.2820 C   0  0  0  0  0  2  0  0  0  0  0  0
  -26.4700  -30.7770   30.3440 C   0  0  0  0  0  0  0  0  0  0  0  0
  -27.3910  -31.8290   30.5430 C   0  0  0  0  0  3  0  0  0  0  0  0
  -27.5760  -32.3900   31.8220 C   0  0  0  0  0  3  0  0  0  0  0  0
  -26.8520  -31.8910   32.9210 C   0  0  0  0  0  3  0  0  0  0  0  0
  -25.9350  -30.8420   32.7340 C   0  0  0  0  0  3  0  0  0  0  0  0
  -28.6960  -33.4150   23.4760 C   0  0  0  0  0  3  0  0  0  0  0  0
  -29.6870  -32.2340   23.1420 C   0  0  1  0  0  0  0  0  0  0  0  0
  -30.5410  -31.7800   24.3480 C   0  0  0  0  0  1  0  0  0  0  0  0
  -28.9160  -30.9970   22.6180 C   0  0  0  0  0  1  0  0  0  0  0  0
  -30.6490  -32.6590   22.0050 C   0  0  0  0  0  1  0  0  0  0  0  0
  -29.4330  -34.6610   23.7220 N   0  0  0  0  0  0  0  0  0  0  0  0
  -29.1070  -35.8510   23.1990 C   0  0  0  0  0  0  0  0  0  0  0  0
  -28.1870  -35.9980   22.3900 O   0  0  0  0  0  0  0  0  0  0  0  0
  -30.1640  -34.6270   24.4170 H   0  0  0  0  0  0  0  0  0  0  0  0
  -29.1600  -37.8530   24.7190 C   0  0  0  0  0  1  0  0  0  0  0  0
  -29.9340  -37.0700   23.6470 C   0  0  0  0  0  3  0  0  0  0  0  0
  -31.2450  -37.3890   21.5950 C   0  0  0  0  0  1  0  0  0  0  0  0
  -30.2930  -37.9750   22.5360 N   0  0  0  0  0  0  0  0  0  0  0  0
  -30.6880  -38.8400   22.8900 H   0  0  0  0  0  0  0  0  0  0  0  0
  -24.0360  -17.1340   23.2020 C   0  0  0  0  0  2  0  0  0  0  0  0
  -25.4060  -15.3550   22.1430 C   0  0  0  0  0  0  0  0  0  0  0  0
  -24.8220  -16.5560   22.1140 N   0  0  0  0  0  0  0  0  0  0  0  0
  -25.3740  -14.6330   23.1400 O   0  0  0  0  0  0  0  0  0  0  0  0
  -24.8770  -17.0890   21.2580 H   0  0  0  0  0  0  0  0  0  0  0  0
  -26.1470  -14.9120   20.8770 C   0  0  0  0  0  2  0  0  0  0  0  0
  -27.9530  -16.4760   21.6090 C   0  0  0  0  0  0  0  0  0  0  0  0
  -27.3370  -15.7360   20.6830 N   0  0  0  0  0  0  0  0  0  0  0  0
  -27.6820  -16.4090   22.8110 O   0  0  0  0  0  0  0  0  0  0  0  0
  -27.6120  -15.8770   19.7200 H   0  0  0  0  0  0  0  0  0  0  0  0
  -29.0550  -17.4130   21.1000 C   0  0  0  0  0  2  0  0  0  0  0  0
  -28.8420  -19.6130   19.9220 C   0  0  0  0  0  0  0  0  0  0  0  0
  -28.7210  -18.8350   21.0050 N   0  0  0  0  0  0  0  0  0  0  0  0
  -28.9650  -19.1740   18.7780 O   0  0  0  0  0  0  0  0  0  0  0  0
  -28.5510  -19.3020   21.8850 H   0  0  0  0  0  0  0  0  0  0  0  0
  -28.9490  -21.1170   20.1870 C   0  0  0  0  0  2  0  0  0  0  0  0
  -30.9930  -22.1920   19.2230 C   0  0  0  0  0  0  0  0  0  0  0  0
  -33.2370  -21.5960   20.0790 C   0  0  0  0  0  2  0  0  0  0  0  0
  -34.2810  -21.3190   18.9820 C   0  0  0  0  0  2  0  0  0  0  0  0
  -34.2310  -19.8420   18.5560 C   0  0  0  0  0  2  0  0  0  0  0  0
  -32.7990  -19.4040   18.1800 C   0  0  0  0  0  3  0  0  0  0  0  0
  -31.7950  -19.8030   19.2700 C   0  0  0  0  0  2  0  0  0  0  0  0
  -31.8980  -21.2410   19.5810 N   0  0  0  0  0  0  0  0  0  0  0  0
  -31.2980  -23.3750   19.0450 O   0  0  0  0  0  0  0  0  0  0  0  0
  -29.7070  -21.8120   19.1340 N   0  0  0  0  0  0  0  0  0  0  0  0
  -29.1340  -22.4390   18.5930 H   0  0  0  0  0  0  0  0  0  0  0  0
  -32.0270  -17.3110   16.8870 C   0  0  0  0  0  0  0  0  0  0  0  0
  -32.3290  -15.9800   17.0390 C   0  0  0  0  0  0  0  0  0  0  0  0
  -33.1970  -15.9010   18.1690 C   0  0  0  0  0  0  0  0  0  0  0  0
  -32.7100  -17.9720   17.8980 N   0  0  0  0  0  0  0  0  0  0  0  0
  -33.3630  -17.1010   18.7100 N   0  0  0  0  0  0  0  0  0  0  0  0
  -33.9250  -14.7560   18.7350 C   0  0  0  0  0  0  0  0  0  0  0  0
  -33.6520  -14.2770   20.0350 C   0  0  0  0  0  3  0  0  0  0  0  0
  -34.3570  -13.1670   20.5490 C   0  0  0  0  0  3  0  0  0  0  0  0
  -35.3440  -12.5280   19.7630 C   0  0  0  0  0  0  0  0  0  0  0  0
  -35.6290  -13.0250   18.4810 C   0  0  0  0  0  3  0  0  0  0  0  0
  -34.9300  -14.1320   17.9710 C   0  0  0  0  0  3  0  0  0  0  0  0
  -36.0960  -11.4580   20.1900 O   0  0  0  0  0  0  0  0  0  0  0  0
  -35.5610  -10.4650   20.9710 C   0  0  0  0  0  0  0  0  0  0  0  0
  -34.4360   -9.7210   20.5580 C   0  0  0  0  0  3  0  0  0  0  0  0
  -33.9580   -8.6640   21.3590 C   0  0  0  0  0  3  0  0  0  0  0  0
  -34.6090   -8.3460   22.5680 C   0  0  0  0  0  0  0  0  0  0  0  0
  -35.7330   -9.0840   22.9780 C   0  0  0  0  0  3  0  0  0  0  0  0
  -36.2080  -10.1400   22.1800 C   0  0  0  0  0  0  0  0  0  0  0  0
  -37.3040  -10.8360   22.5700 F   0  0  0  0  0  0  0  0  0  0  0  0
  -34.1560   -7.3270   23.3340 F   0  0  0  0  0  0  0  0  0  0  0  0
  -31.9210  -14.8630   16.1240 C   0  0  0  0  0  0  0  0  0  0  0  0
  -31.7290  -13.6640   16.6680 N   0  0  0  0  0  0  0  0  0  0  0  0
  -31.7370  -15.0510   14.9230 O   0  0  0  0  0  0  0  0  0  0  0  0
  -31.8510  -13.5170   17.6580 H   0  0  0  0  0  0  0  0  0  0  0  0
  -31.4320  -12.8920   16.0900 H   0  0  0  0  0  0  0  0  0  0  0  0
  -31.2570  -18.0120   15.9650 N   0  0  0  0  0  0  0  0  0  0  0  0
  -30.7670  -17.5490   15.2080 H   0  0  0  0  0  0  0  0  0  0  0  0
  -31.1290  -19.0170   15.9690 H   0  0  0  0  0  0  0  0  0  0  0  0
  1 59  1  0
  1  2  1  0
  2  5  1  0
  2  4  1  0
  3  1  2  0
  5  6  1  0
  6  8  2  0
  7 10  1  0
  7  6  1  0
  9  7  1  0
 10 11  1  0
 11 13  2  0
 12 14  1  0
 12 11  1  0
 15 12  1  0
 16 15  1  0
 17 18  1  0
 17 16  1  0
 18 20  1  0
 19 30  2  0
 20 25  2  0
 20 26  1  0
 21 31  1  0
 22 27  1  0
 22 28  1  0
 23 29  1  0
 24 23  1  0
 24 22  2  0
 25 24  1  0
 26 27  2  0
 28 21  1  0
 29 19  1  0
 29 21  1  0
 31 32  1  0
 32 34  1  0
 33 31  2  0
 35 44  1  0
 36 32  1  0
 36 40  1  0
 37 36  1  0
 37 38  1  0
 38 39  1  0
 39 35  1  0
 40 41  1  0
 40 35  2  0
 41 42  2  0
 42 43  1  0
 44 43  2  0
 45 50  1  0
 45 19  1  0
 46 45  1  0
 46 47  1  1
 48 46  1  0
 49 46  1  0
 50 53  1  0
 51 55  1  0
 51 50  1  0
 52 51  2  0
 55 54  1  0
 56 57  1  0
 57 58  1  0
 57 55  1  0
 60 62  2  0
 61 60  1  0
 61 59  1  0
 63 61  1  0
 64 60  1  0
 65 67  2  0
 66 64  1  0
 66 65  1  0
 68 66  1  0
 69 65  1  0
 70 74  1  0
 70 71  1  0
 71 69  1  0
 71 73  1  0
 72 70  2  0
 75 81  1  0
 77 76  1  0
 78 77  1  0
 79 88  1  0
 79 78  1  0
 79 80  1  0
 80 81  1  0
 81 76  1  0
 82 75  2  0
 83 75  1  0
 83 74  1  0
 84 83  1  0
 85 86  2  0
 85 88  1  0
 86 87  1  0
 87 89  2  0
 87 90  1  0
 88 89  1  0
 90 91  1  0
 91 92  2  0
 93 96  1  0
 93 92  1  0
 94 93  2  0
 95 94  1  0
 95 90  2  0
 96 97  1  0
 97102  1  0
 98 97  2  0
 98 99  1  0
 99100  2  0
100101  1  0
100104  1  0
102103  1  0
102101  2  0
105106  1  0
105 86  1  0
106108  1  0
107105  2  0
109106  1  0
110112  1  0
110 85  1  0
111110  1  0
M  ISO  4  17 101  18 101  75 100  83 100
M  END
>  <TORSDO>  (25) 
F 30

>  <SCORE>  (25) 
50.159

>  <name>  (25) 
26

>  <ligand_id>  (25) 
26

>  <original_smiles>  (25) 
[H]c1c([H])c([H])c2c(c1[H])C([H])([H])C([H])([H])C([H])([H])C2([H])N([H])C(=O)C1([H])N(C(=O)C([H])(N([H])C(=O)C([H])(N([H])C([H])([H])[H])C([H])([H])[H])C(C([H])([H])[H])(C([H])([H])[H])C([H])([H])[H])C([H])([H])c2c([H])c(OC([H])([H])C([H])([H])C([H])([H])N([H])C(=O)C([H])([H])N([H])C(=O)C([H])([H])N([H])C(=O)C([H])([H])N([H])C(=O)C([H])([H])N([H])C(=O)C([H])([H])N([H])C(=O)C([H])([H])N([H])C(=O)N3C([H])([H])C([H])([H])C([H])([H])C([H])(n4nc(-c5c([H])c([H])c(Oc6c([H])c([H])c(F)c([H])c6F)c([H])c5[H])c(C(=O)N([H])[H])c4N([H])[H])C3([H])[H])c([H])c([H])c2C1([H])[H]

>  <smiles>  (25) 
[H]c1c([H])c([H])c2c(c1[H])C([H])([H])C([H])([H])C([H])([H])C2([H])N([H])C(=O)C1([H])N(C(=O)C([H])(N([H])C(=O)C([H])(N([H])C([H])([H])[H])C([H])([H])[H])C(C([H])([H])[H])(C([H])([H])[H])C([H])([H])[H])C([H])([H])c2c([H])c(OC([H])([H])C([H])([H])C([H])([H])N([H])C(=O)C([H])([H])N([H])C(=O)C([H])([H])N([H])C(=O)C([H])([H])N([H])C(=O)C([H])([H])N([H])C(=O)C([H])([H])N([H])C(=O)C([H])([H])N([H])C(=O)N3C([H])([H])C([H])([H])C([H])([H])C([H])(n4nc(-c5c([H])c([H])c(Oc6c([H])c([H])c(F)c([H])c6F)c([H])c5[H])c(C(=O)N([H])[H])c4N([H])[H])C3([H])[H])c([H])c([H])c2C1([H])[H]

$$$$
27:0:0
     RDKit          3D

104111  0  0  1  0  0  0  0  0999 V2000
  -27.3810  -27.5540   17.7980 C   0  0  0  0  0  0  0  0  0  0  0  0
  -26.0780  -28.1810   18.1270 N   0  0  0  0  0  0  0  0  0  0  0  0
  -28.3680  -28.2850   17.9240 O   0  0  0  0  0  0  0  0  0  0  0  0
  -25.3280  -27.5130   18.0070 H   0  0  0  0  0  0  0  0  0  0  0  0
  -27.7900  -25.9340   17.2690 C   0  0  0  0  0  2  0  0  0  0  0  0
  -28.9130  -23.2690   17.6440 C   0  0  0  0  0  0  0  0  0  0  0  0
  -28.7210  -24.7110   17.9030 N   0  0  0  0  0  0  0  0  0  0  0  0
  -28.3750  -22.8470   16.6220 O   0  0  0  0  0  0  0  0  0  0  0  0
  -29.3260  -25.0410   18.6460 H   0  0  0  0  0  0  0  0  0  0  0  0
  -29.7600  -22.0420   18.5230 C   0  0  0  0  0  2  0  0  0  0  0  0
  -30.0500  -19.2070   19.1450 C   0  0  0  0  0  0  0  0  0  0  0  0
  -29.9610  -20.4090   18.2930 N   0  0  0  0  0  0  0  0  0  0  0  0
  -29.7780  -19.3800   20.3320 O   0  0  0  0  0  0  0  0  0  0  0  0
  -30.1400  -20.1980   17.3170 H   0  0  0  0  0  0  0  0  0  0  0  0
  -30.5690  -17.5890   18.7990 C   0  0  0  0  0  2  0  0  0  0  0  0
  -30.9830  -14.8460   19.6210 C   0  0  0  0  0  0  0  0  0  0  0  0
  -30.7530  -12.3840   18.9820 C   0  0  0  0  0  2  0  0  0  0  0  0
  -29.7700  -12.2460   17.8000 C   0  0  0  0  0  2  0  0  0  0  0  0
  -28.3220  -12.1140   18.3100 C   0  0  0  0  0  2  0  0  0  0  0  0
  -27.9930  -13.1440   19.4220 C   0  0  0  0  0  3  0  0  0  0  0  0
  -29.1060  -13.2450   20.4890 C   0  0  0  0  0  2  0  0  0  0  0  0
  -30.3400  -13.5950   19.7620 N   0  0  0  0  0  0  0  0  0  0  0  0
  -32.1930  -14.7670   19.3830 O   0  0  0  0  0  0  0  0  0  0  0  0
  -30.2780  -16.1260   19.4970 N   0  0  0  0  0  0  0  0  0  0  0  0
  -29.3220  -16.0530   19.8160 H   0  0  0  0  0  0  0  0  0  0  0  0
  -25.7080  -13.8740   20.3030 C   0  0  0  0  0  0  0  0  0  0  0  0
  -24.6110  -13.1790   20.7140 C   0  0  0  0  0  0  0  0  0  0  0  0
  -24.9730  -11.7950   20.6510 C   0  0  0  0  0  0  0  0  0  0  0  0
  -26.6740  -12.9300   20.0040 N   0  0  0  0  0  0  0  0  0  0  0  0
  -26.2430  -11.6700   20.2830 N   0  0  0  0  0  0  0  0  0  0  0  0
  -24.1640  -10.5880   20.8590 C   0  0  0  0  0  0  0  0  0  0  0  0
  -24.5390   -9.6000   21.7940 C   0  0  0  0  0  3  0  0  0  0  0  0
  -23.7310   -8.4600   21.9930 C   0  0  0  0  0  3  0  0  0  0  0  0
  -22.5330   -8.3010   21.2560 C   0  0  0  0  0  0  0  0  0  0  0  0
  -22.1760   -9.2760   20.3090 C   0  0  0  0  0  3  0  0  0  0  0  0
  -22.9830  -10.4080   20.1090 C   0  0  0  0  0  3  0  0  0  0  0  0
  -21.6990   -7.2130   21.3640 O   0  0  0  0  0  0  0  0  0  0  0  0
  -21.5790   -6.5110   22.5380 C   0  0  0  0  0  0  0  0  0  0  0  0
  -21.1770   -7.1340   23.7400 C   0  0  0  0  0  3  0  0  0  0  0  0
  -20.9990   -6.3620   24.9060 C   0  0  0  0  0  3  0  0  0  0  0  0
  -21.2150   -4.9730   24.8710 C   0  0  0  0  0  0  0  0  0  0  0  0
  -21.6090   -4.3500   23.6740 C   0  0  0  0  0  3  0  0  0  0  0  0
  -21.7890   -5.1180   22.5100 C   0  0  0  0  0  0  0  0  0  0  0  0
  -22.1500   -4.5110   21.3530 F   0  0  0  0  0  0  0  0  0  0  0  0
  -21.0360   -4.2300   25.9890 F   0  0  0  0  0  0  0  0  0  0  0  0
  -23.2650  -13.7530   21.0470 C   0  0  0  0  0  0  0  0  0  0  0  0
  -22.5330  -13.1160   21.9530 N   0  0  0  0  0  0  0  0  0  0  0  0
  -22.8760  -14.8040   20.5350 O   0  0  0  0  0  0  0  0  0  0  0  0
  -22.8620  -12.2650   22.3830 H   0  0  0  0  0  0  0  0  0  0  0  0
  -21.6340  -13.4860   22.2220 H   0  0  0  0  0  0  0  0  0  0  0  0
  -25.9640  -15.2360   20.1280 N   0  0  0  0  0  0  0  0  0  0  0  0
  -25.2490  -15.9360   20.2830 H   0  0  0  0  0  0  0  0  0  0  0  0
  -26.8130  -15.6160   19.7320 H   0  0  0  0  0  0  0  0  0  0  0  0
  -25.5060  -29.5770   18.8500 C   0  0  0  0  0  2  0  0  0  0  0  0
  -24.1280  -29.9930   19.9980 C   0  0  0  0  0  2  0  0  0  0  0  0
  -23.7210  -30.3150   21.7640 C   0  0  0  0  0  2  0  0  0  0  0  0
  -22.6280  -29.8790   23.2320 C   0  0  0  0  0  2  0  0  0  0  0  0
  -22.3540  -28.4960   24.2570 N   0  0  0  0  0  4  0  0  0  0  0  0
  -21.7960  -27.8740   23.6880 H   0  0  0  0  0  0  0  0  0  0  0  0
  -21.7510  -28.8580   24.9790 H   0  0  0  0  0  0  0  0  0  0  0  0
  -23.2860  -27.2940   25.1140 C   0  0  0  0  0  2  0  0  0  0  0  0
  -24.3640  -25.7920   24.7070 C   0  0  0  0  0  2  0  0  0  0  0  0
  -25.3110  -24.8520   23.4110 C   0  0  0  0  0  2  0  0  0  0  0  0
  -25.4110  -23.6490   22.2480 O   0  0  0  0  0  0  0  0  0  0  0  0
  -25.6190  -28.5570   23.3090 C   0  0  0  0  0  0  0  0  0  0  0  0
  -26.0740  -23.6400   21.0430 C   0  0  0  0  0  3  0  0  0  0  0  0
  -23.7270  -27.2900   21.3690 C   0  0  0  0  0  3  0  0  0  0  0  0
  -24.7480  -25.6740   20.1430 C   0  0  0  0  0  0  0  0  0  0  0  0
  -26.3460  -27.1220   21.5800 C   0  0  0  0  0  2  0  0  0  0  0  0
  -25.9850  -25.8840   20.8240 C   0  0  0  0  0  0  0  0  0  0  0  0
  -26.8170  -24.7990   21.0140 C   0  0  0  0  0  2  0  0  0  0  0  0
  -25.0820  -23.3510   20.0850 C   0  0  0  0  0  3  0  0  0  0  0  0
  -24.3470  -24.4360   19.6470 C   0  0  0  0  0  3  0  0  0  0  0  0
  -23.7580  -26.6670   20.0310 C   0  0  0  0  0  2  0  0  0  0  0  0
  -25.1700  -27.6720   22.2150 N   0  0  0  0  0  0  0  0  0  0  0  0
  -24.9870  -29.4950   23.8090 O   0  0  0  0  0  0  0  0  0  0  0  0
  -22.3860  -26.6020   21.8590 C   0  0  0  0  0  0  0  0  0  0  0  0
  -21.2060  -27.2580   21.8220 N   0  0  0  0  0  0  0  0  0  0  0  0
  -22.4340  -25.5130   22.3720 O   0  0  0  0  0  0  0  0  0  0  0  0
  -21.0280  -28.0010   21.1620 H   0  0  0  0  0  0  0  0  0  0  0  0
  -17.7300  -27.8420   22.1770 C   0  0  0  0  0  0  0  0  0  0  0  0
  -20.0460  -26.8300   22.6030 C   0  0  0  0  0  3  0  0  0  0  0  0
  -19.4390  -25.5460   22.0050 C   0  0  0  0  0  2  0  0  0  0  0  0
  -18.5560  -25.8680   20.8170 C   0  0  0  0  0  2  0  0  0  0  0  0
  -17.3440  -26.6320   21.3430 C   0  0  0  0  0  2  0  0  0  0  0  0
  -19.0180  -27.9570   22.7680 C   0  0  0  0  0  0  0  0  0  0  0  0
  -19.3280  -29.1180   23.5110 C   0  0  0  0  0  3  0  0  0  0  0  0
  -18.3740  -30.1470   23.6660 C   0  0  0  0  0  3  0  0  0  0  0  0
  -17.0990  -30.0160   23.0970 C   0  0  0  0  0  3  0  0  0  0  0  0
  -16.7780  -28.8630   22.3530 C   0  0  0  0  0  3  0  0  0  0  0  0
  -26.9170  -28.6110   24.1810 C   0  0  0  0  0  3  0  0  0  0  0  0
  -27.1470  -30.0320   24.6010 N   0  0  0  0  0  0  0  0  0  0  0  0
  -27.7560  -30.9740   23.9020 C   0  0  0  0  0  0  0  0  0  0  0  0
  -28.3790  -30.7050   22.8780 O   0  0  0  0  0  0  0  0  0  0  0  0
  -26.5860  -30.3290   25.3820 H   0  0  0  0  0  0  0  0  0  0  0  0
  -26.8180  -33.2980   23.5420 C   0  0  0  0  0  1  0  0  0  0  0  0
  -27.6960  -32.4190   24.4500 C   0  0  0  0  0  3  0  0  0  0  0  0
  -29.8330  -32.4040   25.6410 C   0  0  0  0  0  1  0  0  0  0  0  0
  -29.0440  -33.0190   24.5820 N   0  0  0  0  0  0  0  0  0  0  0  0
  -28.9970  -34.0230   24.7420 H   0  0  0  0  0  0  0  0  0  0  0  0
  -26.8230  -27.8360   25.5710 C   0  0  1  0  0  0  0  0  0  0  0  0
  -25.5930  -28.1180   26.5150 C   0  0  0  0  0  1  0  0  0  0  0  0
  -27.0850  -26.3420   25.3810 C   0  0  0  0  0  1  0  0  0  0  0  0
  -28.0420  -28.2850   26.4250 C   0  0  0  0  0  1  0  0  0  0  0  0
  1  3  2  0
  1  2  1  0
  2 54  1  0
  4  2  1  0
  5  1  1  0
  5  7  1  0
  6  7  1  0
  6 10  1  0
  7  9  1  0
  8  6  2  0
 11 13  2  0
 12 10  1  0
 12 11  1  0
 14 12  1  0
 15 11  1  0
 15 24  1  0
 16 22  1  0
 17 22  1  0
 18 19  1  0
 18 17  1  0
 20 19  1  0
 20 29  1  0
 20 21  1  0
 22 21  1  0
 23 16  2  0
 24 16  1  0
 24 25  1  0
 26 27  2  0
 27 46  1  0
 28 27  1  0
 28 31  1  0
 29 30  1  0
 29 26  1  0
 30 28  2  0
 31 32  1  0
 32 33  2  0
 34 37  1  0
 34 33  1  0
 35 34  2  0
 36 35  1  0
 36 31  2  0
 37 38  1  0
 38 39  1  0
 39 40  2  0
 41 40  1  0
 41 45  1  0
 42 41  2  0
 43 38  2  0
 43 42  1  0
 44 43  1  0
 46 47  1  0
 47 50  1  0
 47 49  1  0
 48 46  2  0
 51 52  1  0
 51 26  1  0
 53 51  1  0
 54 55  1  0
 55 56  1  0
 56 57  1  0
 57 58  1  0
 58 60  1  0
 58 61  1  0
 59 58  1  0
 62 61  1  0
 63 62  1  0
 64 63  1  0
 65 76  2  0
 66 64  1  0
 67 77  1  0
 67 75  1  0
 68 70  2  0
 69 75  1  0
 70 71  1  0
 70 69  1  0
 71 66  1  0
 72 66  1  0
 73 72  2  0
 73 68  1  0
 74 68  1  0
 74 67  1  0
 75 65  1  0
 77 79  2  0
 78 77  1  0
 80 78  1  0
 81 90  2  0
 81 86  1  0
 82 78  1  0
 82 86  1  0
 83 82  1  0
 84 85  1  0
 84 83  1  0
 85 81  1  0
 86 87  2  0
 87 88  1  0
 89 88  2  0
 90 89  1  0
 91 65  1  0
 91 92  1  0
 91101  1  0
 92 95  1  0
 93 97  1  0
 93 92  1  0
 94 93  2  0
 97 96  1  0
 97 99  1  0
 99100  1  0
 99 98  1  0
101104  1  1
101102  1  0
103101  1  0
M  ISO  4  16 100  24 100  63 101  64 101
M  END
>  <TORSDO>  (26) 
F 29

>  <SCORE>  (26) 
-12.851

>  <name>  (26) 
27

>  <ligand_id>  (26) 
27

>  <original_smiles>  (26) 
[H]c1c([H])c([H])c2c(c1[H])C([H])([H])C([H])([H])C([H])([H])C2([H])N([H])C(=O)C1([H])N(C(=O)C([H])(N([H])C(=O)C([H])(N([H])C([H])([H])[H])C([H])([H])[H])C(C([H])([H])[H])(C([H])([H])[H])C([H])([H])[H])C([H])([H])c2c([H])c(OC([H])([H])C([H])([H])C([H])([H])[N+]([H])([H])C([H])([H])C([H])([H])C([H])([H])C([H])([H])N([H])C(=O)C([H])([H])N([H])C(=O)C([H])([H])N([H])C(=O)C([H])([H])N([H])C(=O)N3C([H])([H])C([H])([H])C([H])([H])C([H])(n4nc(-c5c([H])c([H])c(Oc6c([H])c([H])c(F)c([H])c6F)c([H])c5[H])c(C(=O)N([H])[H])c4N([H])[H])C3([H])[H])c([H])c([H])c2C1([H])[H]

>  <smiles>  (26) 
[H]c1c([H])c([H])c2c(c1[H])C([H])([H])C([H])([H])C([H])([H])C2([H])N([H])C(=O)C1([H])N(C(=O)C([H])(N([H])C(=O)C([H])(N([H])C([H])([H])[H])C([H])([H])[H])C(C([H])([H])[H])(C([H])([H])[H])C([H])([H])[H])C([H])([H])c2c([H])c(OC([H])([H])C([H])([H])C([H])([H])[N+]([H])([H])C([H])([H])C([H])([H])C([H])([H])C([H])([H])N([H])C(=O)C([H])([H])N([H])C(=O)C([H])([H])N([H])C(=O)C([H])([H])N([H])C(=O)N3C([H])([H])C([H])([H])C([H])([H])C([H])(n4nc(-c5c([H])c([H])c(Oc6c([H])c([H])c(F)c([H])c6F)c([H])c5[H])c(C(=O)N([H])[H])c4N([H])[H])C3([H])[H])c([H])c([H])c2C1([H])[H]

$$$$
28:0:0
     RDKit          3D

108114  0  0  1  0  0  0  0  0999 V2000
  -18.5340  -29.4840   24.5590 C   0  0  0  0  0  1  0  0  0  0  0  0
  -16.2290  -29.7170   22.1280 C   0  0  0  0  0  1  0  0  0  0  0  0
  -16.1430  -28.3890   19.1460 C   0  0  0  0  0  0  0  0  0  0  0  0
  -16.5000  -29.1720   20.4210 N   0  0  0  0  0  0  0  0  0  0  0  0
  -14.9490  -28.1000   19.0500 O   0  0  0  0  0  0  0  0  0  0  0  0
  -17.5000  -29.2670   20.2980 H   0  0  0  0  0  0  0  0  0  0  0  0
  -17.1400  -27.7060   17.7360 C   0  0  0  0  0  2  0  0  0  0  0  0
  -17.7930  -26.2770   15.0490 C   0  0  0  0  0  0  0  0  0  0  0  0
  -16.9960  -26.6990   16.2980 N   0  0  0  0  0  0  0  0  0  0  0  0
  -18.9360  -26.7320   15.0590 O   0  0  0  0  0  0  0  0  0  0  0  0
  -16.0630  -26.3100   16.2460 H   0  0  0  0  0  0  0  0  0  0  0  0
  -17.4970  -25.2840   13.5190 C   0  0  0  0  0  2  0  0  0  0  0  0
  -17.9320  -24.3140   10.5990 C   0  0  0  0  0  0  0  0  0  0  0  0
  -18.2720  -24.8990   11.9830 N   0  0  0  0  0  0  0  0  0  0  0  0
  -16.7470  -23.9860   10.5240 O   0  0  0  0  0  0  0  0  0  0  0  0
  -19.2600  -25.1200   12.0420 H   0  0  0  0  0  0  0  0  0  0  0  0
  -18.7980  -23.9930    8.9990 C   0  0  0  0  0  2  0  0  0  0  0  0
  -18.9260  -23.0430    5.9640 C   0  0  0  0  0  0  0  0  0  0  0  0
  -18.0010  -22.7720    3.4990 C   0  0  0  0  0  2  0  0  0  0  0  0
  -16.8030  -23.7420    3.3020 C   0  0  0  0  0  2  0  0  0  0  0  0
  -15.5280  -23.1700    3.9590 C   0  0  0  0  0  2  0  0  0  0  0  0
  -15.8420  -22.5420    5.3370 C   0  0  0  0  0  3  0  0  0  0  0  0
  -17.0070  -21.5570    5.2760 C   0  0  0  0  0  2  0  0  0  0  0  0
  -18.1120  -22.4280    4.9730 N   0  0  0  0  0  0  0  0  0  0  0  0
  -19.9970  -23.4030    5.4110 O   0  0  0  0  0  0  0  0  0  0  0  0
  -18.4450  -23.3200    7.4130 N   0  0  0  0  0  0  0  0  0  0  0  0
  -17.5300  -22.9000    7.4980 H   0  0  0  0  0  0  0  0  0  0  0  0
  -14.3480  -22.0670    7.3080 C   0  0  0  0  0  0  0  0  0  0  0  0
  -13.2180  -21.3170    7.4360 C   0  0  0  0  0  0  0  0  0  0  0  0
  -12.9930  -20.7240    6.1550 C   0  0  0  0  0  0  0  0  0  0  0  0
  -14.7290  -21.9220    5.9910 N   0  0  0  0  0  0  0  0  0  0  0  0
  -13.9620  -21.0440    5.3130 N   0  0  0  0  0  0  0  0  0  0  0  0
  -11.8720  -19.9300    5.6570 C   0  0  0  0  0  0  0  0  0  0  0  0
  -12.0720  -18.6650    5.0630 C   0  0  0  0  0  3  0  0  0  0  0  0
  -10.9710  -17.9140    4.6030 C   0  0  0  0  0  3  0  0  0  0  0  0
   -9.6590  -18.4280    4.7340 C   0  0  0  0  0  0  0  0  0  0  0  0
   -9.4710  -19.7020    5.2990 C   0  0  0  0  0  3  0  0  0  0  0  0
  -10.5670  -20.4500    5.7540 C   0  0  0  0  0  3  0  0  0  0  0  0
   -8.5310  -17.7790    4.2970 O   0  0  0  0  0  0  0  0  0  0  0  0
   -8.4620  -16.4100    4.2520 C   0  0  0  0  0  0  0  0  0  0  0  0
   -8.7010  -15.6140    5.3950 C   0  0  0  0  0  3  0  0  0  0  0  0
   -8.5520  -14.2150    5.3190 C   0  0  0  0  0  3  0  0  0  0  0  0
   -8.1530  -13.6120    4.1100 C   0  0  0  0  0  0  0  0  0  0  0  0
   -7.9110  -14.4040    2.9750 C   0  0  0  0  0  3  0  0  0  0  0  0
   -8.0630  -15.7990    3.0470 C   0  0  0  0  0  0  0  0  0  0  0  0
   -7.8080  -16.5620    1.9550 F   0  0  0  0  0  0  0  0  0  0  0  0
   -8.0010  -12.2700    4.0400 F   0  0  0  0  0  0  0  0  0  0  0  0
  -12.3280  -21.2560    8.6400 C   0  0  0  0  0  0  0  0  0  0  0  0
  -11.6610  -20.1280    8.8470 N   0  0  0  0  0  0  0  0  0  0  0  0
  -12.2570  -22.2010    9.4260 O   0  0  0  0  0  0  0  0  0  0  0  0
  -11.7360  -19.3520    8.2060 H   0  0  0  0  0  0  0  0  0  0  0  0
  -11.0610  -20.0400    9.6550 H   0  0  0  0  0  0  0  0  0  0  0  0
  -15.0640  -22.8880    8.1750 N   0  0  0  0  0  0  0  0  0  0  0  0
  -14.6950  -23.0800    9.1000 H   0  0  0  0  0  0  0  0  0  0  0  0
  -15.5560  -23.6950    7.8150 H   0  0  0  0  0  0  0  0  0  0  0  0
  -20.3370  -29.5110   24.2450 C   0  0  0  0  0  3  0  0  0  0  0  0
  -21.4240  -29.7810   22.8730 C   0  0  0  0  0  3  0  0  0  0  0  0
  -23.1780  -29.6430   22.6570 C   0  0  0  0  0  2  0  0  0  0  0  0
  -24.3100  -29.8930   21.2800 C   0  0  0  0  0  2  0  0  0  0  0  0
  -25.7170  -29.0810   20.4080 C   0  0  0  0  0  2  0  0  0  0  0  0
  -26.1430  -28.1190   18.8470 C   0  0  0  0  0  2  0  0  0  0  0  0
  -26.2140  -26.4140   18.0780 C   0  0  0  0  0  2  0  0  0  0  0  0
  -27.0110  -23.5480   17.9910 C   0  0  0  0  0  0  0  0  0  0  0  0
  -26.3820  -24.7850   18.4680 N   0  0  0  0  0  0  0  0  0  0  0  0
  -27.7710  -23.6970   17.0320 O   0  0  0  0  0  0  0  0  0  0  0  0
  -25.7150  -24.5520   19.1910 H   0  0  0  0  0  0  0  0  0  0  0  0
  -26.7870  -21.8710   18.3810 C   0  0  0  0  0  2  0  0  0  0  0  0
  -27.7940  -20.5840   18.5120 O   0  0  0  0  0  0  0  0  0  0  0  0
  -32.4200  -23.7910   16.1860 C   0  0  0  0  0  0  0  0  0  0  0  0
  -29.0150  -20.7060   19.1930 C   0  0  0  0  0  0  0  0  0  0  0  0
  -33.3950  -22.4850   18.0050 C   0  0  0  0  0  3  0  0  0  0  0  0
  -31.7110  -21.4280   19.5510 C   0  0  0  0  0  0  0  0  0  0  0  0
  -31.1700  -23.5370   18.3090 C   0  0  0  0  0  2  0  0  0  0  0  0
  -30.7780  -22.2710   18.9880 C   0  0  0  0  0  0  0  0  0  0  0  0
  -29.4650  -21.9780   19.0070 C   0  0  0  0  0  3  0  0  0  0  0  0
  -29.9160  -19.7910   19.8620 C   0  0  0  0  0  3  0  0  0  0  0  0
  -31.2770  -20.1930   20.0940 C   0  0  0  0  0  3  0  0  0  0  0  0
  -33.1140  -21.9800   19.4540 C   0  0  0  0  0  2  0  0  0  0  0  0
  -32.2880  -23.2760   17.4200 N   0  0  0  0  0  0  0  0  0  0  0  0
  -33.5320  -23.8980   15.6820 O   0  0  0  0  0  0  0  0  0  0  0  0
  -33.6830  -21.2550   17.1500 C   0  0  0  0  0  0  0  0  0  0  0  0
  -34.8540  -20.7380   17.3230 N   0  0  0  0  0  0  0  0  0  0  0  0
  -32.8860  -20.7240   16.3930 O   0  0  0  0  0  0  0  0  0  0  0  0
  -35.5150  -21.2820   17.8630 H   0  0  0  0  0  0  0  0  0  0  0  0
  -38.0630  -19.0720   16.5580 C   0  0  0  0  0  0  0  0  0  0  0  0
  -35.4260  -19.7290   16.4770 C   0  0  0  0  0  3  0  0  0  0  0  0
  -35.2960  -18.2690   16.9380 C   0  0  0  0  0  2  0  0  0  0  0  0
  -36.4750  -17.3910   17.4950 C   0  0  0  0  0  2  0  0  0  0  0  0
  -37.9260  -17.7850   17.3190 C   0  0  0  0  0  2  0  0  0  0  0  0
  -36.7660  -20.1510   16.4510 C   0  0  0  0  0  0  0  0  0  0  0  0
  -37.0970  -21.8250   16.6900 C   0  0  0  0  0  3  0  0  0  0  0  0
  -38.6700  -22.2620   16.9230 C   0  0  0  0  0  3  0  0  0  0  0  0
  -39.8370  -21.1700   16.9600 C   0  0  0  0  0  3  0  0  0  0  0  0
  -39.5510  -19.6380   16.7690 C   0  0  0  0  0  3  0  0  0  0  0  0
  -31.2210  -24.2770   15.3960 C   0  0  0  0  0  3  0  0  0  0  0  0
  -30.7080  -23.0430   14.2750 C   0  0  1  0  0  0  0  0  0  0  0  0
  -31.8010  -22.3360   13.4530 C   0  0  0  0  0  1  0  0  0  0  0  0
  -30.2020  -21.8810   15.1450 C   0  0  0  0  0  1  0  0  0  0  0  0
  -29.5520  -22.9820   13.1370 C   0  0  0  0  0  1  0  0  0  0  0  0
  -31.7290  -25.6730   15.1060 N   0  0  0  0  0  0  0  0  0  0  0  0
  -31.3700  -26.9190   15.4780 C   0  0  0  0  0  0  0  0  0  0  0  0
  -30.5480  -27.1270   16.3650 O   0  0  0  0  0  0  0  0  0  0  0  0
  -32.4490  -25.6370   14.3990 H   0  0  0  0  0  0  0  0  0  0  0  0
  -33.2710  -28.5810   15.3900 C   0  0  0  0  0  1  0  0  0  0  0  0
  -31.9920  -28.1110   14.6860 C   0  0  0  0  0  3  0  0  0  0  0  0
  -30.0140  -29.0950   13.5300 C   0  0  0  0  0  1  0  0  0  0  0  0
  -31.1060  -29.2890   14.4790 N   0  0  0  0  0  0  0  0  0  0  0  0
  -31.6540  -30.0790   14.1490 H   0  0  0  0  0  0  0  0  0  0  0  0
  3  4  1  0
  4  2  1  0
  5  3  2  0
  6  4  1  0
  7  3  1  0
  8 10  2  0
  8  9  1  0
  9  7  1  0
 11  9  1  0
 12  8  1  0
 13 14  1  0
 14 16  1  0
 14 12  1  0
 15 13  2  0
 17 13  1  0
 18 26  1  0
 19 24  1  0
 20 19  1  0
 20 21  1  0
 22 21  1  0
 22 31  1  0
 23 22  1  0
 24 23  1  0
 24 18  1  0
 25 18  2  0
 26 27  1  0
 26 17  1  0
 28 29  2  0
 28 53  1  0
 29 48  1  0
 30 29  1  0
 31 28  1  0
 32 31  1  0
 32 30  2  0
 33 38  1  0
 33 30  1  0
 34 33  2  0
 35 36  2  0
 35 34  1  0
 36 37  1  0
 37 38  2  0
 39 36  1  0
 40 39  1  0
 40 41  1  0
 42 41  2  0
 43 42  1  0
 44 45  1  0
 44 43  2  0
 45 40  2  0
 46 45  1  0
 47 43  1  0
 48 49  1  0
 48 50  2  0
 49 52  1  0
 51 49  1  0
 53 54  1  0
 55 53  1  0
 56  1  1  0
 57 56  2  0
 58 57  1  0
 59 58  1  0
 60 59  1  0
 61 60  1  0
 62 64  1  0
 62 61  1  0
 63 67  1  0
 63 64  1  0
 64 66  1  0
 65 63  2  0
 67 68  1  0
 68 70  1  0
 69 79  1  0
 70 76  1  0
 71 81  1  0
 71 78  1  0
 72 77  1  0
 73 74  1  0
 74 75  1  0
 74 72  2  0
 75 70  2  0
 76 77  2  0
 78 72  1  0
 79 71  1  0
 79 73  1  0
 80 69  2  0
 81 82  1  0
 82 84  1  0
 83 81  2  0
 85 94  1  0
 85 89  1  0
 86 87  1  0
 86 82  1  0
 87 88  1  0
 89 88  1  0
 90 86  1  0
 90 85  2  0
 90 91  1  0
 91 92  2  0
 92 93  1  0
 94 93  2  0
 95 69  1  0
 96 98  1  1
 96 95  1  0
 97 96  1  0
 99 96  1  0
100 95  1  0
100101  1  0
101102  2  0
103100  1  0
105104  1  0
105101  1  0
106107  1  0
107105  1  0
108107  1  0
M  ISO  4  18 100  26 100  67 101  68 101
M  END
>  <TORSDO>  (27) 
F 32

>  <SCORE>  (27) 
6.493

>  <name>  (27) 
28

>  <ligand_id>  (27) 
28

>  <original_smiles>  (27) 
[H]c1c([H])c([H])c2c(c1[H])C([H])([H])C([H])([H])C([H])([H])C2([H])N([H])C(=O)C1([H])N(C(=O)C([H])(N([H])C(=O)C([H])(N([H])C([H])([H])[H])C([H])([H])[H])C(C([H])([H])[H])(C([H])([H])[H])C([H])([H])[H])C([H])([H])c2c([H])c(OC([H])([H])C(=O)N([H])C([H])([H])C([H])([H])C([H])([H])C([H])([H])C([H])([H])C([H])([H])C([H])([H])C([H])([H])C([H])([H])N([H])C(=O)C([H])([H])N([H])C(=O)C([H])([H])N([H])C(=O)C([H])([H])N([H])C(=O)N3C([H])([H])C([H])([H])C([H])([H])C([H])(n4nc(-c5c([H])c([H])c(Oc6c([H])c([H])c(F)c([H])c6F)c([H])c5[H])c(C(=O)N([H])[H])c4N([H])[H])C3([H])[H])c([H])c([H])c2C1([H])[H]

>  <smiles>  (27) 
[H]c1c([H])c([H])c2c(c1[H])C([H])([H])C([H])([H])C([H])([H])C2([H])N([H])C(=O)C1([H])N(C(=O)C([H])(N([H])C(=O)C([H])(N([H])C([H])([H])[H])C([H])([H])[H])C(C([H])([H])[H])(C([H])([H])[H])C([H])([H])[H])C([H])([H])c2c([H])c(OC([H])([H])C(=O)N([H])C([H])([H])C([H])([H])C([H])([H])C([H])([H])C([H])([H])C([H])([H])C([H])([H])C([H])([H])C([H])([H])N([H])C(=O)C([H])([H])N([H])C(=O)C([H])([H])N([H])C(=O)C([H])([H])N([H])C(=O)N3C([H])([H])C([H])([H])C([H])([H])C([H])(n4nc(-c5c([H])c([H])c(Oc6c([H])c([H])c(F)c([H])c6F)c([H])c5[H])c(C(=O)N([H])[H])c4N([H])[H])C3([H])[H])c([H])c([H])c2C1([H])[H]

$$$$
29:0:0
     RDKit          3D

104111  0  0  1  0  0  0  0  0999 V2000
  -36.2540  -21.2750   23.9020 C   0  0  0  0  0  0  0  0  0  0  0  0
  -35.1190  -21.8500   23.4910 N   0  0  0  0  0  0  0  0  0  0  0  0
  -36.3440  -20.0640   24.1240 O   0  0  0  0  0  0  0  0  0  0  0  0
  -35.1210  -22.8550   23.3740 H   0  0  0  0  0  0  0  0  0  0  0  0
  -33.9280  -21.1340   23.0390 C   0  0  0  0  0  2  0  0  0  0  0  0
  -34.1640  -20.5240   21.6440 C   0  0  0  0  0  2  0  0  0  0  0  0
  -34.2010  -21.5840   20.5280 C   0  0  0  0  0  2  0  0  0  0  0  0
  -33.9690  -21.0060   19.1290 C   0  0  0  0  0  2  0  0  0  0  0  0
  -33.8970  -22.1140   18.0680 C   0  0  0  0  0  2  0  0  0  0  0  0
  -33.2680  -21.6170   16.7630 C   0  0  0  0  0  2  0  0  0  0  0  0
  -33.0180  -22.7370   15.7350 C   0  0  0  0  0  2  0  0  0  0  0  0
  -31.6030  -23.3310   15.8190 C   0  0  0  0  0  2  0  0  0  0  0  0
  -31.3390  -24.2050   17.0600 C   0  0  0  0  0  2  0  0  0  0  0  0
  -29.8470  -24.5300   17.1870 C   0  0  0  0  0  2  0  0  0  0  0  0
  -29.5750  -25.2960   18.3570 O   0  0  0  0  0  0  0  0  0  0  0  0
  -24.9470  -28.4540   22.7240 C   0  0  0  0  0  0  0  0  0  0  0  0
  -28.3110  -25.8390   18.4830 C   0  0  0  0  0  0  0  0  0  0  0  0
  -24.0380  -27.7700   20.5300 C   0  0  0  0  0  3  0  0  0  0  0  0
  -25.7640  -27.0340   18.8060 C   0  0  0  0  0  0  0  0  0  0  0  0
  -26.5200  -28.3350   20.8020 C   0  0  0  0  0  2  0  0  0  0  0  0
  -26.8040  -27.3520   19.6860 C   0  0  0  0  0  0  0  0  0  0  0  0
  -28.0760  -26.7580   19.5290 C   0  0  0  0  0  3  0  0  0  0  0  0
  -27.2410  -25.5210   17.6110 C   0  0  0  0  0  3  0  0  0  0  0  0
  -25.9750  -26.1070   17.7740 C   0  0  0  0  0  3  0  0  0  0  0  0
  -24.4360  -27.7190   19.0320 C   0  0  0  0  0  2  0  0  0  0  0  0
  -25.1800  -28.1750   21.4120 N   0  0  0  0  0  0  0  0  0  0  0  0
  -23.8020  -28.4160   23.1930 O   0  0  0  0  0  0  0  0  0  0  0  0
  -23.4180  -26.4090   20.9170 C   0  0  0  0  0  0  0  0  0  0  0  0
  -22.1920  -26.1490   20.4340 N   0  0  0  0  0  0  0  0  0  0  0  0
  -24.0470  -25.6040   21.6110 O   0  0  0  0  0  0  0  0  0  0  0  0
  -21.7350  -26.8620   19.8820 H   0  0  0  0  0  0  0  0  0  0  0  0
  -19.1150  -24.4570   19.6000 C   0  0  0  0  0  0  0  0  0  0  0  0
  -21.4330  -24.9170   20.6440 C   0  0  0  0  0  3  0  0  0  0  0  0
  -21.9540  -23.7790   19.7370 C   0  0  0  0  0  2  0  0  0  0  0  0
  -21.2070  -23.6770   18.4040 C   0  0  0  0  0  2  0  0  0  0  0  0
  -19.7130  -23.4350   18.6460 C   0  0  0  0  0  2  0  0  0  0  0  0
  -19.9260  -25.1630   20.5270 C   0  0  0  0  0  0  0  0  0  0  0  0
  -19.3280  -26.1250   21.3690 C   0  0  0  0  0  3  0  0  0  0  0  0
  -17.9490  -26.3890   21.2970 C   0  0  0  0  0  3  0  0  0  0  0  0
  -17.1450  -25.6750   20.3890 C   0  0  0  0  0  3  0  0  0  0  0  0
  -17.7270  -24.7080   19.5480 C   0  0  0  0  0  3  0  0  0  0  0  0
  -26.1030  -28.8610   23.6910 C   0  0  0  0  0  3  0  0  0  0  0  0
  -26.2050  -27.9360   24.9660 C   0  0  1  0  0  0  0  0  0  0  0  0
  -24.8720  -27.7870   25.7340 C   0  0  0  0  0  1  0  0  0  0  0  0
  -26.6930  -26.5190   24.5850 C   0  0  0  0  0  1  0  0  0  0  0  0
  -27.2530  -28.5100   25.9490 C   0  0  0  0  0  1  0  0  0  0  0  0
  -25.8770  -30.2580   24.0790 N   0  0  0  0  0  0  0  0  0  0  0  0
  -26.6510  -31.2870   23.7040 C   0  0  0  0  0  0  0  0  0  0  0  0
  -27.6830  -31.1430   23.0440 O   0  0  0  0  0  0  0  0  0  0  0  0
  -25.0100  -30.4560   24.5560 H   0  0  0  0  0  0  0  0  0  0  0  0
  -25.6680  -33.4660   22.9130 C   0  0  0  0  0  1  0  0  0  0  0  0
  -26.2080  -32.6990   24.1310 C   0  0  0  0  0  3  0  0  0  0  0  0
  -27.6580  -32.9860   26.0910 C   0  0  0  0  0  1  0  0  0  0  0  0
  -27.2840  -33.4860   24.7720 N   0  0  0  0  0  0  0  0  0  0  0  0
  -27.0080  -34.4590   24.8710 H   0  0  0  0  0  0  0  0  0  0  0  0
  -37.4680  -22.1960   24.0760 C   0  0  0  0  0  2  0  0  0  0  0  0
  -38.3480  -23.3540   22.0510 C   0  0  0  0  0  0  0  0  0  0  0  0
  -38.2450  -22.2800   22.8440 N   0  0  0  0  0  0  0  0  0  0  0  0
  -37.8870  -24.4580   22.3510 O   0  0  0  0  0  0  0  0  0  0  0  0
  -38.6420  -21.4150   22.5070 H   0  0  0  0  0  0  0  0  0  0  0  0
  -39.1110  -23.1300   20.7410 C   0  0  0  0  0  2  0  0  0  0  0  0
  -37.8650  -21.2440   19.6500 C   0  0  0  0  0  0  0  0  0  0  0  0
  -38.3660  -22.4860   19.6610 N   0  0  0  0  0  0  0  0  0  0  0  0
  -37.7820  -20.5270   20.6470 O   0  0  0  0  0  0  0  0  0  0  0  0
  -38.3410  -22.9910   18.7860 H   0  0  0  0  0  0  0  0  0  0  0  0
  -37.5090  -20.7030   18.2690 C   0  0  0  0  0  2  0  0  0  0  0  0
  -36.4950  -18.8250   17.1040 C   0  0  0  0  0  0  0  0  0  0  0  0
  -37.9280  -17.1530   16.0400 C   0  0  0  0  0  2  0  0  0  0  0  0
  -37.2480  -16.0270   15.2570 C   0  0  0  0  0  2  0  0  0  0  0  0
  -36.8860  -14.8690   16.1980 C   0  0  0  0  0  2  0  0  0  0  0  0
  -36.0920  -15.3460   17.4420 C   0  0  0  0  0  3  0  0  0  0  0  0
  -36.7770  -16.5500   18.1280 C   0  0  0  0  0  2  0  0  0  0  0  0
  -37.0410  -17.5910   17.1230 N   0  0  0  0  0  0  0  0  0  0  0  0
  -36.2570  -19.4650   16.0750 O   0  0  0  0  0  0  0  0  0  0  0  0
  -36.7480  -19.4530   18.2540 N   0  0  0  0  0  0  0  0  0  0  0  0
  -36.9020  -18.8520   19.0500 H   0  0  0  0  0  0  0  0  0  0  0  0
  -34.6900  -13.8290   18.9790 C   0  0  0  0  0  0  0  0  0  0  0  0
  -35.0080  -12.7060   19.6920 C   0  0  0  0  0  0  0  0  0  0  0  0
  -36.4030  -12.4790   19.4720 C   0  0  0  0  0  0  0  0  0  0  0  0
  -35.8680  -14.2430   18.3740 N   0  0  0  0  0  0  0  0  0  0  0  0
  -36.9120  -13.4470   18.7210 N   0  0  0  0  0  0  0  0  0  0  0  0
  -37.2680  -11.3670   19.8880 C   0  0  0  0  0  0  0  0  0  0  0  0
  -38.3930  -11.5790   20.7150 C   0  0  0  0  0  3  0  0  0  0  0  0
  -39.2000  -10.4930   21.1170 C   0  0  0  0  0  3  0  0  0  0  0  0
  -38.8850   -9.1790   20.6960 C   0  0  0  0  0  0  0  0  0  0  0  0
  -37.7770   -8.9760   19.8550 C   0  0  0  0  0  3  0  0  0  0  0  0
  -36.9770  -10.0580   19.4520 C   0  0  0  0  0  3  0  0  0  0  0  0
  -39.6260   -8.0670   21.0150 O   0  0  0  0  0  0  0  0  0  0  0  0
  -40.2180   -7.9250   22.2450 C   0  0  0  0  0  0  0  0  0  0  0  0
  -39.4570   -7.8480   23.4320 C   0  0  0  0  0  3  0  0  0  0  0  0
  -40.1010   -7.6320   24.6670 C   0  0  0  0  0  3  0  0  0  0  0  0
  -41.5000   -7.4830   24.7170 C   0  0  0  0  0  0  0  0  0  0  0  0
  -42.2590   -7.5530   23.5340 C   0  0  0  0  0  3  0  0  0  0  0  0
  -41.6170   -7.7710   22.3020 C   0  0  0  0  0  0  0  0  0  0  0  0
  -42.3500   -7.8170   21.1630 F   0  0  0  0  0  0  0  0  0  0  0  0
  -42.1190   -7.2670   25.9020 F   0  0  0  0  0  0  0  0  0  0  0  0
  -34.0580  -11.8320   20.4600 C   0  0  0  0  0  0  0  0  0  0  0  0
  -34.5210  -11.2280   21.5470 N   0  0  0  0  0  0  0  0  0  0  0  0
  -32.8810  -11.7210   20.1220 O   0  0  0  0  0  0  0  0  0  0  0  0
  -35.4820  -11.3390   21.8370 H   0  0  0  0  0  0  0  0  0  0  0  0
  -33.9070  -10.6460   22.0990 H   0  0  0  0  0  0  0  0  0  0  0  0
  -33.5010  -14.5240   18.7790 N   0  0  0  0  0  0  0  0  0  0  0  0
  -32.6170  -14.2140   19.1670 H   0  0  0  0  0  0  0  0  0  0  0  0
  -33.4110  -15.3440   18.1920 H   0  0  0  0  0  0  0  0  0  0  0  0
  1 56  1  0
  1  3  2  0
  2  1  1  0
  4  2  1  0
  5  2  1  0
  6  5  1  0
  7  6  1  0
  8  7  1  0
  9  8  1  0
 10  9  1  0
 11 12  1  0
 11 10  1  0
 12 13  1  0
 13 14  1  0
 14 15  1  0
 15 17  1  0
 16 27  2  0
 17 22  1  0
 18 28  1  0
 18 26  1  0
 19 25  1  0
 19 21  1  0
 20 26  1  0
 21 20  1  0
 22 21  2  0
 23 24  1  0
 23 17  2  0
 24 19  2  0
 25 18  1  0
 26 16  1  0
 28 30  2  0
 29 28  1  0
 31 29  1  0
 32 37  1  0
 33 29  1  0
 34 33  1  0
 35 36  1  0
 35 34  1  0
 36 32  1  0
 37 33  1  0
 37 38  2  0
 39 38  1  0
 40 39  2  0
 41 32  2  0
 41 40  1  0
 42 16  1  0
 42 47  1  0
 42 43  1  0
 43 44  1  1
 43 46  1  0
 45 43  1  0
 47 50  1  0
 48 47  1  0
 48 52  1  0
 49 48  2  0
 52 51  1  0
 52 54  1  0
 54 55  1  0
 54 53  1  0
 57 59  2  0
 57 58  1  0
 58 56  1  0
 60 58  1  0
 61 57  1  0
 62 63  1  0
 62 64  2  0
 63 61  1  0
 65 63  1  0
 66 62  1  0
 67 73  1  0
 67 75  1  0
 68 73  1  0
 69 68  1  0
 69 70  1  0
 71 70  1  0
 71 72  1  0
 71 80  1  0
 73 72  1  0
 74 67  2  0
 75 66  1  0
 75 76  1  0
 77 78  2  0
 78 97  1  0
 79 78  1  0
 79 82  1  0
 80 81  1  0
 80 77  1  0
 81 79  2  0
 82 83  1  0
 83 84  2  0
 85 88  1  0
 85 84  1  0
 86 85  2  0
 87 86  1  0
 87 82  2  0
 88 89  1  0
 89 94  2  0
 89 90  1  0
 90 91  2  0
 91 92  1  0
 92 96  1  0
 93 92  2  0
 94 93  1  0
 95 94  1  0
 97 98  1  0
 98100  1  0
 98101  1  0
 99 97  2  0
102 77  1  0
102103  1  0
104102  1  0
M  ISO  4  14 101  15 101  67 100  75 100
M  END
>  <TORSDO>  (28) 
F 31

>  <SCORE>  (28) 
-3.447

>  <name>  (28) 
29

>  <ligand_id>  (28) 
29

>  <original_smiles>  (28) 
[H]c1c([H])c([H])c2c(c1[H])C([H])([H])C([H])([H])C([H])([H])C2([H])N([H])C(=O)C1([H])N(C(=O)C([H])(N([H])C(=O)C([H])(N([H])C([H])([H])[H])C([H])([H])[H])C(C([H])([H])[H])(C([H])([H])[H])C([H])([H])[H])C([H])([H])c2c([H])c(OC([H])([H])C([H])([H])C([H])([H])C([H])([H])C([H])([H])C([H])([H])C([H])([H])C([H])([H])C([H])([H])C([H])([H])N([H])C(=O)C([H])([H])N([H])C(=O)C([H])([H])N([H])C(=O)C([H])([H])N([H])C(=O)N3C([H])([H])C([H])([H])C([H])([H])C([H])(n4nc(-c5c([H])c([H])c(Oc6c([H])c([H])c(F)c([H])c6F)c([H])c5[H])c(C(=O)N([H])[H])c4N([H])[H])C3([H])[H])c([H])c([H])c2C1([H])[H]

>  <smiles>  (28) 
[H]c1c([H])c([H])c2c(c1[H])C([H])([H])C([H])([H])C([H])([H])C2([H])N([H])C(=O)C1([H])N(C(=O)C([H])(N([H])C(=O)C([H])(N([H])C([H])([H])[H])C([H])([H])[H])C(C([H])([H])[H])(C([H])([H])[H])C([H])([H])[H])C([H])([H])c2c([H])c(OC([H])([H])C([H])([H])C([H])([H])C([H])([H])C([H])([H])C([H])([H])C([H])([H])C([H])([H])C([H])([H])C([H])([H])N([H])C(=O)C([H])([H])N([H])C(=O)C([H])([H])N([H])C(=O)C([H])([H])N([H])C(=O)N3C([H])([H])C([H])([H])C([H])([H])C([H])(n4nc(-c5c([H])c([H])c(Oc6c([H])c([H])c(F)c([H])c6F)c([H])c5[H])c(C(=O)N([H])[H])c4N([H])[H])C3([H])[H])c([H])c([H])c2C1([H])[H]

$$$$
30:0:0
     RDKit          3D

101108  0  0  1  0  0  0  0  0999 V2000
  -31.1240  -23.0780   23.7890 C   0  0  0  0  0  0  0  0  0  0  0  0
  -30.3790  -23.6590   24.7320 N   0  0  0  0  0  0  0  0  0  0  0  0
  -31.8550  -23.7170   23.0250 O   0  0  0  0  0  0  0  0  0  0  0  0
  -29.7710  -23.0710   25.2870 H   0  0  0  0  0  0  0  0  0  0  0  0
  -31.0560  -21.5560   23.7090 C   0  0  0  0  0  2  0  0  0  0  0  0
  -30.2420  -20.1850   21.8350 C   0  0  0  0  0  0  0  0  0  0  0  0
  -31.0760  -21.1020   22.3260 N   0  0  0  0  0  0  0  0  0  0  0  0
  -29.3980  -19.6290   22.5460 O   0  0  0  0  0  0  0  0  0  0  0  0
  -31.7670  -21.5320   21.7220 H   0  0  0  0  0  0  0  0  0  0  0  0
  -30.3810  -19.8360   20.3480 C   0  0  0  0  0  2  0  0  0  0  0  0
  -28.0900  -20.2110   19.4690 C   0  0  0  0  0  0  0  0  0  0  0  0
  -29.1070  -19.4060   19.7770 N   0  0  0  0  0  0  0  0  0  0  0  0
  -28.1680  -21.4420   19.5040 O   0  0  0  0  0  0  0  0  0  0  0  0
  -28.9430  -18.4090   19.7360 H   0  0  0  0  0  0  0  0  0  0  0  0
  -26.7770  -19.5240   19.1020 C   0  0  0  0  0  2  0  0  0  0  0  0
  -25.5720  -20.6940   17.2700 C   0  0  0  0  0  0  0  0  0  0  0  0
  -23.6770  -21.1720   15.7740 C   0  0  0  0  0  2  0  0  0  0  0  0
  -23.7700  -22.5130   15.0310 C   0  0  0  0  0  2  0  0  0  0  0  0
  -23.2030  -23.6510   15.8980 C   0  0  0  0  0  2  0  0  0  0  0  0
  -23.8120  -23.6640   17.3230 C   0  0  0  0  0  3  0  0  0  0  0  0
  -23.7410  -22.2620   17.9640 C   0  0  0  0  0  2  0  0  0  0  0  0
  -24.3790  -21.2910   17.0560 N   0  0  0  0  0  0  0  0  0  0  0  0
  -26.2790  -20.2110   16.3790 O   0  0  0  0  0  0  0  0  0  0  0  0
  -25.7920  -20.4510   18.5640 N   0  0  0  0  0  0  0  0  0  0  0  0
  -25.1390  -20.8560   19.2170 H   0  0  0  0  0  0  0  0  0  0  0  0
  -23.6480  -25.8920   18.6050 C   0  0  0  0  0  0  0  0  0  0  0  0
  -22.6260  -26.4680   19.3100 C   0  0  0  0  0  0  0  0  0  0  0  0
  -21.5420  -25.5380   19.2620 C   0  0  0  0  0  0  0  0  0  0  0  0
  -23.1670  -24.6670   18.1690 N   0  0  0  0  0  0  0  0  0  0  0  0
  -21.9070  -24.4370   18.6190 N   0  0  0  0  0  0  0  0  0  0  0  0
  -20.1590  -25.6560   19.7410 C   0  0  0  0  0  0  0  0  0  0  0  0
  -19.6060  -24.7160   20.6380 C   0  0  0  0  0  3  0  0  0  0  0  0
  -18.2800  -24.8590   21.0990 C   0  0  0  0  0  3  0  0  0  0  0  0
  -17.4930  -25.9530   20.6670 C   0  0  0  0  0  0  0  0  0  0  0  0
  -18.0410  -26.8740   19.7550 C   0  0  0  0  0  3  0  0  0  0  0  0
  -19.3590  -26.7270   19.2940 C   0  0  0  0  0  3  0  0  0  0  0  0
  -16.1870  -26.1600   21.0400 O   0  0  0  0  0  0  0  0  0  0  0  0
  -15.7200  -25.7680   22.2680 C   0  0  0  0  0  0  0  0  0  0  0  0
  -16.3280  -26.1960   23.4690 C   0  0  0  0  0  3  0  0  0  0  0  0
  -15.7730  -25.8260   24.7100 C   0  0  0  0  0  3  0  0  0  0  0  0
  -14.6070  -25.0380   24.7540 C   0  0  0  0  0  0  0  0  0  0  0  0
  -13.9960  -24.6160   23.5590 C   0  0  0  0  0  3  0  0  0  0  0  0
  -14.5510  -24.9830   22.3210 C   0  0  0  0  0  0  0  0  0  0  0  0
  -13.9470  -24.5910   21.1720 F   0  0  0  0  0  0  0  0  0  0  0  0
  -14.0680  -24.6890   25.9450 F   0  0  0  0  0  0  0  0  0  0  0  0
  -22.6160  -27.8440   19.9130 C   0  0  0  0  0  0  0  0  0  0  0  0
  -21.8420  -28.0420   20.9730 N   0  0  0  0  0  0  0  0  0  0  0  0
  -23.3340  -28.7390   19.4710 O   0  0  0  0  0  0  0  0  0  0  0  0
  -21.2660  -27.3010   21.3460 H   0  0  0  0  0  0  0  0  0  0  0  0
  -21.8230  -28.9490   21.4180 H   0  0  0  0  0  0  0  0  0  0  0  0
  -24.9350  -26.3130   18.2830 N   0  0  0  0  0  0  0  0  0  0  0  0
  -25.2920  -27.2240   18.5490 H   0  0  0  0  0  0  0  0  0  0  0  0
  -25.5900  -25.7790   17.7240 H   0  0  0  0  0  0  0  0  0  0  0  0
  -30.3590  -25.0860   25.0260 C   0  0  0  0  0  2  0  0  0  0  0  0
  -29.6410  -25.8840   23.9340 C   0  0  0  0  0  0  0  0  0  0  0  0
  -30.4000  -26.6910   23.1880 N   0  0  0  0  0  0  0  0  0  0  0  0
  -28.4210  -25.7880   23.7930 O   0  0  0  0  0  0  0  0  0  0  0  0
  -31.3970  -26.6690   23.3540 H   0  0  0  0  0  0  0  0  0  0  0  0
  -29.9140  -27.6580   22.2120 C   0  0  0  0  0  2  0  0  0  0  0  0
  -29.3930  -27.0110   20.9130 C   0  0  0  0  0  2  0  0  0  0  0  0
  -28.7880  -27.9430   20.0160 O   0  0  0  0  0  0  0  0  0  0  0  0
  -26.8390  -32.7990   24.8490 C   0  0  0  0  0  0  0  0  0  0  0  0
  -27.8100  -28.7570   20.5330 C   0  0  0  0  0  0  0  0  0  0  0  0
  -25.0190  -31.8760   23.4480 C   0  0  0  0  0  3  0  0  0  0  0  0
  -25.7630  -30.4650   21.4610 C   0  0  0  0  0  0  0  0  0  0  0  0
  -27.4110  -31.9900   22.5650 C   0  0  0  0  0  2  0  0  0  0  0  0
  -27.1010  -30.7560   21.7480 C   0  0  0  0  0  0  0  0  0  0  0  0
  -28.1260  -29.9170   21.2740 C   0  0  0  0  0  3  0  0  0  0  0  0
  -26.4600  -28.4740   20.2440 C   0  0  0  0  0  3  0  0  0  0  0  0
  -25.4320  -29.3230   20.7070 C   0  0  0  0  0  3  0  0  0  0  0  0
  -24.7310  -31.4350   21.9860 C   0  0  0  0  0  2  0  0  0  0  0  0
  -26.4590  -32.2210   23.6750 N   0  0  0  0  0  0  0  0  0  0  0  0
  -26.0050  -33.0910   25.7180 O   0  0  0  0  0  0  0  0  0  0  0  0
  -24.4930  -30.7790   24.4010 C   0  0  0  0  0  0  0  0  0  0  0  0
  -23.3260  -30.2080   24.0660 N   0  0  0  0  0  0  0  0  0  0  0  0
  -25.1410  -30.4410   25.3950 O   0  0  0  0  0  0  0  0  0  0  0  0
  -22.8560  -30.5440   23.2360 H   0  0  0  0  0  0  0  0  0  0  0  0
  -21.0310  -27.4460   23.6950 C   0  0  0  0  0  0  0  0  0  0  0  0
  -22.6590  -29.1280   24.7900 C   0  0  0  0  0  3  0  0  0  0  0  0
  -23.6090  -27.9250   24.9900 C   0  0  0  0  0  2  0  0  0  0  0  0
  -23.4880  -26.8720   23.8830 C   0  0  0  0  0  2  0  0  0  0  0  0
  -22.0570  -26.3320   23.8100 C   0  0  0  0  0  2  0  0  0  0  0  0
  -21.3190  -28.7630   24.1420 C   0  0  0  0  0  0  0  0  0  0  0  0
  -20.3430  -29.7690   23.9830 C   0  0  0  0  0  3  0  0  0  0  0  0
  -19.0990  -29.4790   23.3900 C   0  0  0  0  0  3  0  0  0  0  0  0
  -18.8130  -28.1700   22.9650 C   0  0  0  0  0  3  0  0  0  0  0  0
  -19.7750  -27.1570   23.1220 C   0  0  0  0  0  3  0  0  0  0  0  0
  -28.3310  -33.1470   25.1480 C   0  0  0  0  0  3  0  0  0  0  0  0
  -29.0170  -32.1380   26.1510 C   0  0  1  0  0  0  0  0  0  0  0  0
  -28.1890  -31.8710   27.4290 C   0  0  0  0  0  1  0  0  0  0  0  0
  -29.2780  -30.7770   25.4610 C   0  0  0  0  0  1  0  0  0  0  0  0
  -30.3980  -32.6860   26.5840 C   0  0  0  0  0  1  0  0  0  0  0  0
  -28.3660  -34.5160   25.6790 N   0  0  0  0  0  0  0  0  0  0  0  0
  -28.8940  -35.5670   25.0370 C   0  0  0  0  0  0  0  0  0  0  0  0
  -29.4730  -35.4660   23.9530 O   0  0  0  0  0  0  0  0  0  0  0  0
  -27.8570  -34.6830   26.5350 H   0  0  0  0  0  0  0  0  0  0  0  0
  -27.6700  -37.7640   24.9890 C   0  0  0  0  0  1  0  0  0  0  0  0
  -28.7580  -36.9480   25.7050 C   0  0  0  0  0  3  0  0  0  0  0  0
  -31.0310  -37.1420   26.6140 C   0  0  0  0  0  1  0  0  0  0  0  0
  -30.0200  -37.7170   25.7300 N   0  0  0  0  0  0  0  0  0  0  0  0
  -29.8520  -38.6740   26.0250 H   0  0  0  0  0  0  0  0  0  0  0  0
  1  2  1  0
  2 54  1  0
  2  4  1  0
  3  1  2  0
  5  1  1  0
  6  7  1  0
  6  8  2  0
  7  5  1  0
  9  7  1  0
 10  6  1  0
 11 13  2  0
 11 12  1  0
 12 10  1  0
 14 12  1  0
 15 11  1  0
 16 24  1  0
 17 22  1  0
 18 17  1  0
 18 19  1  0
 20 19  1  0
 20 21  1  0
 20 29  1  0
 22 16  1  0
 22 21  1  0
 23 16  2  0
 24 15  1  0
 24 25  1  0
 26 27  2  0
 27 46  1  0
 28 27  1  0
 28 31  1  0
 29 26  1  0
 29 30  1  0
 30 28  2  0
 31 32  1  0
 32 33  2  0
 34 37  1  0
 34 33  1  0
 35 34  2  0
 36 31  2  0
 36 35  1  0
 37 38  1  0
 38 43  2  0
 38 39  1  0
 39 40  2  0
 40 41  1  0
 41 45  1  0
 42 41  2  0
 43 42  1  0
 44 43  1  0
 46 47  1  0
 47 49  1  0
 47 50  1  0
 48 46  2  0
 51 52  1  0
 51 26  1  0
 53 51  1  0
 55 54  1  0
 56 58  1  0
 56 55  1  0
 57 55  2  0
 59 56  1  0
 60 59  1  0
 61 63  1  0
 61 60  1  0
 62 73  2  0
 63 68  1  0
 64 72  1  0
 64 74  1  0
 65 67  1  0
 65 71  1  0
 66 72  1  0
 67 66  1  0
 68 67  2  0
 69 63  2  0
 69 70  1  0
 70 65  2  0
 71 64  1  0
 72 62  1  0
 74 76  2  0
 75 74  1  0
 77 75  1  0
 78 82  1  0
 78 83  1  0
 79 75  1  0
 79 80  1  0
 81 80  1  0
 82 81  1  0
 83 79  1  0
 84 83  2  0
 85 84  1  0
 86 87  1  0
 86 85  2  0
 87 78  2  0
 88 62  1  0
 88 93  1  0
 88 89  1  0
 89 92  1  1
 89 90  1  0
 91 89  1  0
 93 96  1  0
 94 93  1  0
 94 98  1  0
 95 94  2  0
 98 97  1  0
 98100  1  0
100101  1  0
100 99  1  0
M  ISO  4  16 100  24 100  60 101  61 101
M  END
>  <TORSDO>  (29) 
F 25

>  <SCORE>  (29) 
5.297

>  <name>  (29) 
30

>  <ligand_id>  (29) 
30

>  <original_smiles>  (29) 
[H]c1c([H])c([H])c2c(c1[H])C([H])([H])C([H])([H])C([H])([H])C2([H])N([H])C(=O)C1([H])N(C(=O)C([H])(N([H])C(=O)C([H])(N([H])C([H])([H])[H])C([H])([H])[H])C(C([H])([H])[H])(C([H])([H])[H])C([H])([H])[H])C([H])([H])c2c([H])c(OC([H])([H])C([H])([H])N([H])C(=O)C([H])([H])N([H])C(=O)C([H])([H])N([H])C(=O)C([H])([H])N([H])C(=O)C([H])([H])N([H])C(=O)N3C([H])([H])C([H])([H])C([H])([H])C([H])(n4nc(-c5c([H])c([H])c(Oc6c([H])c([H])c(F)c([H])c6F)c([H])c5[H])c(C(=O)N([H])[H])c4N([H])[H])C3([H])[H])c([H])c([H])c2C1([H])[H]

>  <smiles>  (29) 
[H]c1c([H])c([H])c2c(c1[H])C([H])([H])C([H])([H])C([H])([H])C2([H])N([H])C(=O)C1([H])N(C(=O)C([H])(N([H])C(=O)C([H])(N([H])C([H])([H])[H])C([H])([H])[H])C(C([H])([H])[H])(C([H])([H])[H])C([H])([H])[H])C([H])([H])c2c([H])c(OC([H])([H])C([H])([H])N([H])C(=O)C([H])([H])N([H])C(=O)C([H])([H])N([H])C(=O)C([H])([H])N([H])C(=O)C([H])([H])N([H])C(=O)N3C([H])([H])C([H])([H])C([H])([H])C([H])(n4nc(-c5c([H])c([H])c(Oc6c([H])c([H])c(F)c([H])c6F)c([H])c5[H])c(C(=O)N([H])[H])c4N([H])[H])C3([H])[H])c([H])c([H])c2C1([H])[H]

$$$$
32:0:0
     RDKit          3D

109114  0  0  1  0  0  0  0  0999 V2000
  -20.9450  -15.9160   22.3050 C   0  0  0  0  0  2  0  0  0  0  0  0
  -22.1060  -14.8300   22.4910 C   0  0  0  0  0  2  0  0  0  0  0  0
  -24.0050  -13.7370   21.1320 C   0  0  0  0  0  0  0  0  0  0  0  0
  -22.6920  -14.1330   21.2780 N   0  0  0  0  0  0  0  0  0  0  0  0
  -24.7810  -13.8360   22.0840 O   0  0  0  0  0  0  0  0  0  0  0  0
  -22.0330  -13.8730   20.5470 H   0  0  0  0  0  0  0  0  0  0  0  0
  -24.6380  -13.3390   19.7360 C   0  0  0  0  0  2  0  0  0  0  0  0
  -27.0250  -12.9360   18.7280 C   0  0  0  0  0  2  0  0  0  0  0  0
  -26.1420  -13.2160   19.7810 N   0  0  0  0  0  0  0  0  0  0  0  0
  -26.4280  -12.1500   17.9620 O   0  0  0  0  0  1  0  0  0  0  0  0
  -26.5330  -13.7660   20.5260 H   0  0  0  0  0  0  0  0  0  0  0  0
  -29.7080  -14.6950   17.9840 C   0  0  0  0  0  1  0  0  0  0  0  0
  -29.9450  -17.5600   19.3860 C   0  0  0  0  0  0  0  0  0  0  0  0
  -29.9060  -16.4920   18.2310 N   0  0  0  0  0  4  0  0  0  0  0  0
  -29.6880  -16.9080   21.9020 O   0  0  0  0  0  0  0  0  0  0  0  0
  -30.0830  -16.9290   17.3330 H   0  0  0  0  0  0  0  0  0  0  0  0
  -30.5990  -19.3420   19.0970 C   0  0  0  0  0  2  0  0  0  0  0  0
  -32.4760  -21.1820   20.9740 C   0  0  0  0  0  0  0  0  0  0  0  0
  -34.4560  -20.7320   19.7840 C   0  0  0  0  0  2  0  0  0  0  0  0
  -33.6240  -20.2900   18.5850 C   0  0  0  0  0  2  0  0  0  0  0  0
  -33.1670  -18.8640   18.9830 C   0  0  0  0  0  2  0  0  0  0  0  0
  -32.8400  -18.6040   20.5610 C   0  0  0  0  0  0  0  0  0  0  0  0
  -33.7020  -19.1880   21.5300 C   0  0  0  0  0  2  0  0  0  0  0  0
  -33.6280  -20.4890   20.9530 N   0  0  0  0  0  0  0  0  0  0  0  0
  -32.7290  -22.2110   21.6450 O   0  0  0  0  0  0  0  0  0  0  0  0
  -31.2650  -20.6820   20.1230 N   0  0  0  0  0  0  0  0  0  0  0  0
  -30.5630  -21.4010   20.1800 H   0  0  0  0  0  0  0  0  0  0  0  0
  -29.6190  -17.7980   20.4730 C   0  0  1  0  0  0  0  0  0  0  0  0
  -29.1760  -15.9730   20.4810 C   0  0  1  0  0  0  0  0  0  0  0  0
  -30.7060  -14.8450   20.9330 C   0  0  0  0  0  2  0  0  0  0  0  0
  -31.8150  -17.9400   20.9430 N   0  0  0  0  0  2  0  0  0  0  0  0
  -32.4170  -15.9640   21.2080 N   0  0  0  0  0 15  0  0  0  0  0  0
  -30.8450  -13.7110   20.7690 C   0  0  0  0  0  0  0  0  0  0  0  0
  -32.2190  -13.2550   21.6560 C   0  0  0  0  0  3  0  0  0  0  0  0
  -33.1480  -12.0210   21.1180 C   0  0  0  0  0  3  0  0  0  0  0  0
  -32.7620  -11.1900   19.7410 C   0  0  0  0  0  0  0  0  0  0  0  0
  -31.4240  -11.6330   18.7640 C   0  0  0  0  0  3  0  0  0  0  0  0
  -30.3980  -12.9220   19.2650 C   0  0  0  0  0  3  0  0  0  0  0  0
  -33.0390   -9.8350   19.8380 O   0  0  0  0  0  0  0  0  0  0  0  0
  -33.4590   -9.1870   21.0130 C   0  0  0  0  0  0  0  0  0  0  0  0
  -32.7540   -9.0140   22.2500 C   0  0  0  0  0  3  0  0  0  0  0  0
  -33.2990   -8.2370   23.2990 C   0  0  0  0  0  3  0  0  0  0  0  0
  -34.5580   -7.6380   23.1430 C   0  0  0  0  0  0  0  0  0  0  0  0
  -35.2660   -7.8120   21.9450 C   0  0  0  0  0  3  0  0  0  0  0  0
  -34.7120   -8.5730   20.9020 C   0  0  0  0  0  0  0  0  0  0  0  0
  -35.3900   -8.7170   19.7440 F   0  0  0  0  0  0  0  0  0  0  0  0
  -35.0880   -6.8980   24.1470 F   0  0  0  0  0  0  0  0  0  0  0  0
  -27.9480  -15.2490   20.4360 C   0  0  0  0  0  0  0  0  0  0  0  0
  -28.0050  -14.2020   21.2010 N   0  0  0  0  0  0  0  0  0  0  0  0
  -26.9820  -15.5890   19.8060 O   0  0  0  0  0  0  0  0  0  0  0  0
  -28.6810  -14.2580   21.9440 H   0  0  0  0  0  0  0  0  0  0  0  0
  -27.1430  -13.7030   21.3650 H   0  0  0  0  0  0  0  0  0  0  0  0
  -28.7600  -18.8260   20.2650 N   0  0  0  0  0  0  0  0  0  0  0  0
  -27.7780  -18.6500   20.0880 H   0  0  0  0  0  0  0  0  0  0  0  0
  -29.0000  -19.8060   20.3510 H   0  0  0  0  0  0  0  0  0  0  0  0
  -21.1850  -17.4470   22.7200 C   0  0  0  0  0  2  0  0  0  0  0  0
  -20.2740  -18.1610   23.8170 C   0  0  0  0  0  2  0  0  0  0  0  0
  -18.9070  -18.8960   23.4320 C   0  0  0  0  0  2  0  0  0  0  0  0
  -17.8690  -21.2530   23.0660 C   0  0  0  0  0  0  0  0  0  0  0  0
  -18.9040  -20.3540   23.0510 N   0  0  0  0  0  0  0  0  0  0  0  0
  -16.7880  -20.9950   23.6010 O   0  0  0  0  0  0  0  0  0  0  0  0
  -19.7330  -20.6800   22.5750 H   0  0  0  0  0  0  0  0  0  0  0  0
  -18.0550  -22.6320   22.3390 C   0  0  0  0  0  2  0  0  0  0  0  0
  -16.4300  -23.8640   20.7480 C   0  0  0  0  0  0  0  0  0  0  0  0
  -16.8630  -23.4770   21.9890 N   0  0  0  0  0  0  0  0  0  0  0  0
  -16.8310  -23.3030   19.7240 O   0  0  0  0  0  0  0  0  0  0  0  0
  -16.4550  -23.9650   22.7740 H   0  0  0  0  0  0  0  0  0  0  0  0
  -15.4850  -25.1230   20.6240 C   0  0  0  0  0  2  0  0  0  0  0  0
  -14.0720  -24.9010   20.2780 O   0  0  0  0  0  0  0  0  0  0  0  0
  -11.4560  -23.0380   26.6230 C   0  0  0  0  0  0  0  0  0  0  0  0
  -13.5030  -23.9040   21.0350 C   0  0  0  0  0  0  0  0  0  0  0  0
  -12.4230  -21.2390   25.2280 C   0  0  0  0  0  3  0  0  0  0  0  0
  -12.7790  -21.8050   22.7660 C   0  0  0  0  0  0  0  0  0  0  0  0
  -11.2900  -23.2620   24.1400 C   0  0  0  0  0  2  0  0  0  0  0  0
  -12.2260  -23.0800   22.9560 C   0  0  0  0  0  0  0  0  0  0  0  0
  -12.5780  -24.1420   22.0860 C   0  0  0  0  0  3  0  0  0  0  0  0
  -13.9840  -22.6030   20.8180 C   0  0  0  0  0  3  0  0  0  0  0  0
  -13.6420  -21.5580   21.6850 C   0  0  0  0  0  3  0  0  0  0  0  0
  -12.4150  -20.7280   23.7620 C   0  0  0  0  0  2  0  0  0  0  0  0
  -11.7280  -22.5610   25.3740 N   0  0  0  0  0  0  0  0  0  0  0  0
  -11.7410  -22.3820   27.6330 O   0  0  0  0  0  0  0  0  0  0  0  0
  -13.8800  -21.2610   25.7490 C   0  0  0  0  0  0  0  0  0  0  0  0
  -14.2340  -20.2650   26.5790 N   0  0  0  0  0  0  0  0  0  0  0  0
  -14.6680  -22.1370   25.3850 O   0  0  0  0  0  0  0  0  0  0  0  0
  -13.5250  -19.5950   26.8430 H   0  0  0  0  0  0  0  0  0  0  0  0
  -16.0620  -18.4040   29.0810 C   0  0  0  0  0  0  0  0  0  0  0  0
  -15.5580  -20.0620   27.1630 C   0  0  0  0  0  3  0  0  0  0  0  0
  -16.4240  -19.1390   26.2760 C   0  0  0  0  0  2  0  0  0  0  0  0
  -16.3430  -17.6620   26.6760 C   0  0  0  0  0  2  0  0  0  0  0  0
  -16.7960  -17.4760   28.1280 C   0  0  0  0  0  2  0  0  0  0  0  0
  -15.4670  -19.6090   28.6240 C   0  0  0  0  0  0  0  0  0  0  0  0
  -14.7650  -20.4210   29.5400 C   0  0  0  0  0  3  0  0  0  0  0  0
  -14.6490  -20.0470   30.8910 C   0  0  0  0  0  3  0  0  0  0  0  0
  -15.2500  -18.8600   31.3440 C   0  0  0  0  0  3  0  0  0  0  0  0
  -15.9600  -18.0450   30.4430 C   0  0  0  0  0  3  0  0  0  0  0  0
  -10.7530  -24.4140   26.8420 C   0  0  0  0  0  3  0  0  0  0  0  0
  -11.7040  -25.6490   26.5890 C   0  0  1  0  0  0  0  0  0  0  0  0
  -13.0230  -25.5900   27.3900 C   0  0  0  0  0  1  0  0  0  0  0  0
  -12.0600  -25.7650   25.0880 C   0  0  0  0  0  1  0  0  0  0  0  0
  -10.9740  -26.9590   26.9730 C   0  0  0  0  0  1  0  0  0  0  0  0
  -10.2300  -24.4280   28.2140 N   0  0  0  0  0  0  0  0  0  0  0  0
   -9.0670  -23.8800   28.5890 C   0  0  0  0  0  0  0  0  0  0  0  0
   -8.2800  -23.3670   27.7900 O   0  0  0  0  0  0  0  0  0  0  0  0
  -10.8420  -24.7890   28.9310 H   0  0  0  0  0  0  0  0  0  0  0  0
   -9.1910  -22.5940   30.7460 C   0  0  0  0  0  1  0  0  0  0  0  0
   -8.7240  -23.9030   30.0890 C   0  0  0  0  0  3  0  0  0  0  0  0
   -6.8020  -25.4230   29.9370 C   0  0  0  0  0  1  0  0  0  0  0  0
   -7.2850  -24.1100   30.3610 N   0  0  0  0  0  0  0  0  0  0  0  0
   -7.0840  -24.0030   31.3520 H   0  0  0  0  0  0  0  0  0  0  0  0
  1  2  1  0
  1 56  1  0
  3  4  1  0
  3  5  2  0
  4  2  1  0
  6  4  1  0
  7  9  1  0
  7  3  1  0
  8  9  1  0
  9 11  1  0
 10  8  1  0
 12 14  1  0
 14 13  2  0
 16 14  1  0
 17 13  1  0
 17 26  1  0
 18 25  2  0
 19 24  1  0
 20 21  1  0
 20 19  1  0
 21 22  1  0
 22 31  2  0
 22 23  1  0
 24 18  1  0
 24 23  1  0
 26 27  1  0
 26 18  1  0
 28 13  1  0
 28 29  1  0
 28 15  1  0
 29 30  1  6
 29 15  1  0
 33 30  1  0
 33 34  1  0
 35 34  2  0
 36 39  1  0
 36 35  1  0
 37 38  1  0
 37 36  2  0
 38 33  2  0
 39 40  1  0
 40 41  1  0
 41 42  2  0
 43 42  1  0
 43 47  1  0
 44 43  2  0
 45 40  2  0
 45 44  1  0
 46 45  1  0
 48 29  1  0
 48 49  1  0
 49 52  1  0
 49 51  1  0
 50 48  2  0
 53 55  1  0
 28 53  1  1
 54 53  1  0
 56 57  1  0
 58 57  1  0
 59 61  2  0
 60 59  1  0
 60 58  1  0
 62 60  1  0
 63 59  1  0
 64 65  1  0
 65 63  1  0
 65 67  1  0
 66 64  2  0
 68 64  1  0
 69 68  1  0
 69 71  1  0
 70 81  2  0
 71 76  1  0
 72 80  1  0
 72 82  1  0
 73 75  1  0
 73 79  1  0
 74 80  1  0
 75 74  1  0
 76 75  2  0
 77 71  2  0
 77 78  1  0
 78 73  2  0
 79 72  1  0
 80 70  1  0
 82 83  1  0
 83 85  1  0
 84 82  2  0
 86 95  1  0
 87 83  1  0
 87 91  1  0
 88 89  1  0
 88 87  1  0
 89 90  1  0
 90 86  1  0
 91 86  2  0
 91 92  1  0
 92 93  2  0
 93 94  1  0
 95 94  2  0
 96 70  1  0
 96101  1  0
 97 96  1  0
 97100  1  1
 97 98  1  0
 99 97  1  0
101102  1  0
101104  1  0
102106  1  0
103102  2  0
106108  1  0
106105  1  0
107108  1  0
108109  1  0
M  ISO  4  18 100  26 100  68 101  69 101
M  END
>  <TORSDO>  (30) 
F 30

>  <SCORE>  (30) 
25.746

>  <name>  (30) 
32

>  <ligand_id>  (30) 
32

>  <original_smiles>  (30) 
[H]c1c([H])c([H])c2c(c1[H])C([H])([H])C([H])([H])C([H])([H])C2([H])N([H])C(=O)C1([H])N(C(=O)C([H])(N([H])C(=O)C([H])(N([H])C([H])([H])[H])C([H])([H])[H])C(C([H])([H])[H])(C([H])([H])[H])C([H])([H])[H])C([H])([H])c2c([H])c(OC([H])([H])C(=O)N([H])C([H])([H])C(=O)N([H])C([H])([H])C([H])([H])C([H])([H])C([H])([H])C([H])([H])N([H])C(=O)C([H])([H])N([H])C(=O)C([H])([H])N([H])C(=O)C([H])([H])N([H])C(=O)N3C([H])([H])C([H])([H])C([H])([H])C([H])(n4nc(-c5c([H])c([H])c(Oc6c([H])c([H])c(F)c([H])c6F)c([H])c5[H])c(C(=O)N([H])[H])c4N([H])[H])C3([H])[H])c([H])c([H])c2C1([H])[H]

>  <smiles>  (30) 
[H]c1c([H])c([H])c2c(c1[H])C([H])([H])C([H])([H])C([H])([H])C2([H])N([H])C(=O)C1([H])N(C(=O)C([H])(N([H])C(=O)C([H])(N([H])C([H])([H])[H])C([H])([H])[H])C(C([H])([H])[H])(C([H])([H])[H])C([H])([H])[H])C([H])([H])c2c([H])c(OC([H])([H])C(=O)N([H])C([H])([H])C(=O)N([H])C([H])([H])C([H])([H])C([H])([H])C([H])([H])C([H])([H])N([H])C(=O)C([H])([H])N([H])C(=O)C([H])([H])N([H])C(=O)C([H])([H])N([H])C(=O)N3C([H])([H])C([H])([H])C([H])([H])C([H])(n4nc(-c5c([H])c([H])c(Oc6c([H])c([H])c(F)c([H])c6F)c([H])c5[H])c(C(=O)N([H])[H])c4N([H])[H])C3([H])[H])c([H])c([H])c2C1([H])[H]

$$$$
33:0:0
     RDKit          3D

109116  0  0  1  0  0  0  0  0999 V2000
  -26.5870  -27.4880   21.4270 C   0  0  0  0  0  0  0  0  0  0  0  0
  -27.6370  -27.7030   22.2280 N   0  0  0  0  0  0  0  0  0  0  0  0
  -26.4310  -28.1090   20.3750 O   0  0  0  0  0  0  0  0  0  0  0  0
  -27.6970  -27.2140   23.1090 H   0  0  0  0  0  0  0  0  0  0  0  0
  -28.7980  -28.4550   21.7670 C   0  0  0  0  0  2  0  0  0  0  0  0
  -30.0360  -27.5880   21.4540 C   0  0  0  0  0  2  0  0  0  0  0  0
  -29.9700  -26.6310   20.2400 C   0  0  0  0  0  2  0  0  0  0  0  0
  -29.5520  -25.1690   20.4970 C   0  0  0  0  0  2  0  0  0  0  0  0
  -29.7400  -24.6320   21.9340 C   0  0  0  0  0  2  0  0  0  0  0  0
  -29.3770  -23.1350   22.0440 C   0  0  0  0  0  2  0  0  0  0  0  0
  -30.3120  -22.3150   22.9490 C   0  0  0  0  0  2  0  0  0  0  0  0
  -31.1510  -21.4950   22.1390 O   0  0  0  0  0  0  0  0  0  0  0  0
  -31.5050  -20.2670   22.7690 C   0  0  0  0  0  2  0  0  0  0  0  0
  -31.2920  -19.0840   21.8100 C   0  0  0  0  0  2  0  0  0  0  0  0
  -32.5220  -18.6450   21.2290 O   0  0  0  0  0  0  0  0  0  0  0  0
  -35.8430  -19.0100   14.9680 C   0  0  0  0  0  0  0  0  0  0  0  0
  -32.4800  -18.2830   19.9000 C   0  0  0  0  0  0  0  0  0  0  0  0
  -33.5240  -18.1550   14.9050 C   0  0  0  0  0  3  0  0  0  0  0  0
  -32.4820  -17.5840   17.1600 C   0  0  0  0  0  0  0  0  0  0  0  0
  -34.9650  -17.8560   16.9950 C   0  0  0  0  0  2  0  0  0  0  0  0
  -33.6870  -17.8910   17.8060 C   0  0  0  0  0  0  0  0  0  0  0  0
  -33.6900  -18.2330   19.1750 C   0  0  0  0  0  3  0  0  0  0  0  0
  -31.2720  -17.9620   19.2360 C   0  0  0  0  0  3  0  0  0  0  0  0
  -31.2710  -17.6160   17.8730 C   0  0  0  0  0  3  0  0  0  0  0  0
  -32.5600  -17.2300   15.6960 C   0  0  0  0  0  2  0  0  0  0  0  0
  -34.8220  -18.3830   15.6170 N   0  0  0  0  0  0  0  0  0  0  0  0
  -35.7340  -19.3530   13.7810 O   0  0  0  0  0  0  0  0  0  0  0  0
  -32.7730  -19.4600   14.5530 C   0  0  0  0  0  0  0  0  0  0  0  0
  -32.2350  -19.5290   13.3260 N   0  0  0  0  0  0  0  0  0  0  0  0
  -32.6620  -20.3700   15.3800 O   0  0  0  0  0  0  0  0  0  0  0  0
  -32.3730  -18.7450   12.7070 H   0  0  0  0  0  0  0  0  0  0  0  0
  -31.1210  -21.1220   10.2790 C   0  0  0  0  0  0  0  0  0  0  0  0
  -31.4410  -20.6390   12.7980 C   0  0  0  0  0  3  0  0  0  0  0  0
  -29.9310  -20.3050   12.8230 C   0  0  0  0  0  2  0  0  0  0  0  0
  -29.4310  -19.7030   11.5060 C   0  0  0  0  0  2  0  0  0  0  0  0
  -29.6720  -20.6660   10.3400 C   0  0  0  0  0  2  0  0  0  0  0  0
  -31.9580  -21.0920   11.4270 C   0  0  0  0  0  0  0  0  0  0  0  0
  -33.3040  -21.4940   11.3040 C   0  0  0  0  0  3  0  0  0  0  0  0
  -33.8220  -21.9150   10.0640 C   0  0  0  0  0  3  0  0  0  0  0  0
  -32.9870  -21.9570    8.9350 C   0  0  0  0  0  3  0  0  0  0  0  0
  -31.6390  -21.5670    9.0440 C   0  0  0  0  0  3  0  0  0  0  0  0
  -37.2010  -19.3020   15.6750 C   0  0  0  0  0  3  0  0  0  0  0  0
  -37.2950  -20.7620   16.2590 C   0  0  1  0  0  0  0  0  0  0  0  0
  -37.9500  -21.7820   15.2990 C   0  0  0  0  0  1  0  0  0  0  0  0
  -35.8930  -21.2940   16.6170 C   0  0  0  0  0  1  0  0  0  0  0  0
  -38.1060  -20.7540   17.5750 C   0  0  0  0  0  1  0  0  0  0  0  0
  -38.2680  -19.0670   14.6950 N   0  0  0  0  0  0  0  0  0  0  0  0
  -38.8930  -17.8940   14.5230 C   0  0  0  0  0  0  0  0  0  0  0  0
  -38.6740  -16.9080   15.2340 O   0  0  0  0  0  0  0  0  0  0  0  0
  -38.4440  -19.8080   14.0330 H   0  0  0  0  0  0  0  0  0  0  0  0
  -39.3250  -17.0130   12.2060 C   0  0  0  0  0  1  0  0  0  0  0  0
  -39.9230  -17.8030   13.3800 C   0  0  0  0  0  3  0  0  0  0  0  0
  -42.0310  -18.0690   14.6120 C   0  0  0  0  0  1  0  0  0  0  0  0
  -41.2020  -17.1870   13.7930 N   0  0  0  0  0  0  0  0  0  0  0  0
  -41.7450  -16.9040   12.9830 H   0  0  0  0  0  0  0  0  0  0  0  0
  -25.5680  -26.4160   21.8210 C   0  0  0  0  0  2  0  0  0  0  0  0
  -24.3360  -24.9840   20.1970 C   0  0  0  0  0  0  0  0  0  0  0  0
  -24.6820  -26.1830   20.6800 N   0  0  0  0  0  0  0  0  0  0  0  0
  -24.5170  -23.9400   20.8250 O   0  0  0  0  0  0  0  0  0  0  0  0
  -24.5300  -26.9850   20.0860 H   0  0  0  0  0  0  0  0  0  0  0  0
  -23.7100  -24.9710   18.7960 C   0  0  0  0  0  2  0  0  0  0  0  0
  -23.5190  -26.6270   16.9360 C   0  0  0  0  0  0  0  0  0  0  0  0
  -24.1840  -26.0670   17.9510 N   0  0  0  0  0  0  0  0  0  0  0  0
  -22.3920  -26.2640   16.5850 O   0  0  0  0  0  0  0  0  0  0  0  0
  -25.0800  -26.4640   18.2020 H   0  0  0  0  0  0  0  0  0  0  0  0
  -24.2450  -27.7560   16.2040 C   0  0  0  0  0  2  0  0  0  0  0  0
  -24.5760  -27.5140   13.7800 C   0  0  0  0  0  0  0  0  0  0  0  0
  -23.8150  -27.8910   14.8130 N   0  0  0  0  0  0  0  0  0  0  0  0
  -25.6740  -26.9850   13.9570 O   0  0  0  0  0  0  0  0  0  0  0  0
  -22.8990  -28.2900   14.6530 H   0  0  0  0  0  0  0  0  0  0  0  0
  -24.0760  -27.7690   12.3500 C   0  0  0  0  0  2  0  0  0  0  0  0
  -25.1370  -26.3340   10.5990 C   0  0  0  0  0  0  0  0  0  0  0  0
  -26.5520  -24.6250    9.5090 C   0  0  0  0  0  2  0  0  0  0  0  0
  -26.6650  -23.3610   10.3840 C   0  0  0  0  0  2  0  0  0  0  0  0
  -27.8050  -23.5030   11.4090 C   0  0  0  0  0  2  0  0  0  0  0  0
  -27.7270  -24.8360   12.1970 C   0  0  0  0  0  3  0  0  0  0  0  0
  -27.5590  -26.0270   11.2250 C   0  0  0  0  0  2  0  0  0  0  0  0
  -26.3630  -25.7890   10.3900 N   0  0  0  0  0  0  0  0  0  0  0  0
  -24.0990  -25.9160   10.0750 O   0  0  0  0  0  0  0  0  0  0  0  0
  -25.1390  -27.3860   11.4220 N   0  0  0  0  0  0  0  0  0  0  0  0
  -26.0570  -27.6810   11.7140 H   0  0  0  0  0  0  0  0  0  0  0  0
  -28.9370  -25.3450   14.4140 C   0  0  0  0  0  0  0  0  0  0  0  0
  -30.2600  -25.3120   14.7580 C   0  0  0  0  0  0  0  0  0  0  0  0
  -30.9690  -24.9540   13.5710 C   0  0  0  0  0  0  0  0  0  0  0  0
  -28.8860  -25.0170   13.0670 N   0  0  0  0  0  0  0  0  0  0  0  0
  -30.1290  -24.8320   12.5530 N   0  0  0  0  0  0  0  0  0  0  0  0
  -32.3920  -24.6650   13.3560 C   0  0  0  0  0  0  0  0  0  0  0  0
  -33.1130  -25.2490   12.2900 C   0  0  0  0  0  3  0  0  0  0  0  0
  -34.4840  -24.9690   12.1170 C   0  0  0  0  0  3  0  0  0  0  0  0
  -35.1500  -24.0980   13.0140 C   0  0  0  0  0  0  0  0  0  0  0  0
  -34.4220  -23.5050   14.0610 C   0  0  0  0  0  3  0  0  0  0  0  0
  -33.0550  -23.7810   14.2300 C   0  0  0  0  0  3  0  0  0  0  0  0
  -36.4740  -23.7500   12.9100 O   0  0  0  0  0  0  0  0  0  0  0  0
  -37.4700  -24.6930   12.9170 C   0  0  0  0  0  0  0  0  0  0  0  0
  -37.8150  -25.4040   14.0890 C   0  0  0  0  0  3  0  0  0  0  0  0
  -38.8930  -26.3110   14.0700 C   0  0  0  0  0  3  0  0  0  0  0  0
  -39.6310  -26.5050   12.8880 C   0  0  0  0  0  0  0  0  0  0  0  0
  -39.2940  -25.7970   11.7230 C   0  0  0  0  0  3  0  0  0  0  0  0
  -38.2170  -24.8890   11.7390 C   0  0  0  0  0  0  0  0  0  0  0  0
  -37.9110  -24.1930   10.6190 F   0  0  0  0  0  0  0  0  0  0  0  0
  -40.6720  -27.3710   12.8730 F   0  0  0  0  0  0  0  0  0  0  0  0
  -30.8320  -25.5200   16.1330 C   0  0  0  0  0  0  0  0  0  0  0  0
  -31.7030  -26.5090   16.2910 N   0  0  0  0  0  0  0  0  0  0  0  0
  -30.4720  -24.8350   17.0870 O   0  0  0  0  0  0  0  0  0  0  0  0
  -31.9880  -27.0890   15.5150 H   0  0  0  0  0  0  0  0  0  0  0  0
  -32.0870  -26.6890   17.2080 H   0  0  0  0  0  0  0  0  0  0  0  0
  -27.7780  -25.6180   15.1320 N   0  0  0  0  0  0  0  0  0  0  0  0
  -27.8510  -25.9710   16.0780 H   0  0  0  0  0  0  0  0  0  0  0  0
  -26.9640  -25.9890   14.6440 H   0  0  0  0  0  0  0  0  0  0  0  0
  1 56  1  0
  1  2  1  0
  2  4  1  0
  3  1  2  0
  5  2  1  0
  6  5  1  0
  7  8  1  0
  7  6  1  0
  8  9  1  0
  9 10  1  0
 10 11  1  0
 12 13  1  0
 12 11  1  0
 14 13  1  0
 15 14  1  0
 16 26  1  0
 17 15  1  0
 18 28  1  0
 18 26  1  0
 18 25  1  0
 19 21  2  0
 19 24  1  0
 20 21  1  0
 21 22  1  0
 22 17  2  0
 23 17  1  0
 24 23  2  0
 25 19  1  0
 26 20  1  0
 27 16  2  0
 28 30  2  0
 29 28  1  0
 31 29  1  0
 32 36  1  0
 32 37  1  0
 33 34  1  0
 33 29  1  0
 35 34  1  0
 36 35  1  0
 37 33  1  0
 38 37  2  0
 39 38  1  0
 40 41  1  0
 40 39  2  0
 41 32  2  0
 42 16  1  0
 42 43  1  0
 43 45  1  1
 43 46  1  0
 44 43  1  0
 47 42  1  0
 48 47  1  0
 48 49  2  0
 50 47  1  0
 52 51  1  0
 52 54  1  0
 52 48  1  0
 54 53  1  0
 55 54  1  0
 57 58  1  0
 57 59  2  0
 58 56  1  0
 60 58  1  0
 61 57  1  0
 62 63  1  0
 63 65  1  0
 63 61  1  0
 64 62  2  0
 66 62  1  0
 67 69  2  0
 67 68  1  0
 68 66  1  0
 70 68  1  0
 71 67  1  0
 72 80  1  0
 73 74  1  0
 73 78  1  0
 74 75  1  0
 75 76  1  0
 76 77  1  0
 76 85  1  0
 78 72  1  0
 78 77  1  0
 79 72  2  0
 80 81  1  0
 80 71  1  0
 82 83  2  0
 82107  1  0
 83102  1  0
 84 83  1  0
 85 82  1  0
 86 85  1  0
 86 84  2  0
 87 84  1  0
 87 92  1  0
 88 87  2  0
 89 88  1  0
 89 90  2  0
 90 91  1  0
 91 92  2  0
 93 94  1  0
 93 90  1  0
 94 95  1  0
 96 95  2  0
 97 96  1  0
 98 99  1  0
 98 97  2  0
 99 94  2  0
100 99  1  0
101 97  1  0
102103  1  0
102104  2  0
103106  1  0
105103  1  0
107108  1  0
109107  1  0
M  ISO  4  14 101  15 101  72 100  80 100
M  END
>  <TORSDO>  (31) 
F 33

>  <SCORE>  (31) 
-2.840

>  <name>  (31) 
33

>  <ligand_id>  (31) 
33

>  <original_smiles>  (31) 
[H]c1c([H])c([H])c2c(c1[H])C([H])([H])C([H])([H])C([H])([H])C2([H])N([H])C(=O)C1([H])N(C(=O)C([H])(N([H])C(=O)C([H])(N([H])C([H])([H])[H])C([H])([H])[H])C(C([H])([H])[H])(C([H])([H])[H])C([H])([H])[H])C([H])([H])c2c([H])c(OC([H])([H])C([H])([H])OC([H])([H])C([H])([H])C([H])([H])C([H])([H])C([H])([H])C([H])([H])C([H])([H])N([H])C(=O)C([H])([H])N([H])C(=O)C([H])([H])N([H])C(=O)C([H])([H])N([H])C(=O)C([H])([H])N([H])C(=O)N3C([H])([H])C([H])([H])C([H])([H])C([H])(n4nc(-c5c([H])c([H])c(Oc6c([H])c([H])c(F)c([H])c6F)c([H])c5[H])c(C(=O)N([H])[H])c4N([H])[H])C3([H])[H])c([H])c([H])c2C1([H])[H]

>  <smiles>  (31) 
[H]c1c([H])c([H])c2c(c1[H])C([H])([H])C([H])([H])C([H])([H])C2([H])N([H])C(=O)C1([H])N(C(=O)C([H])(N([H])C(=O)C([H])(N([H])C([H])([H])[H])C([H])([H])[H])C(C([H])([H])[H])(C([H])([H])[H])C([H])([H])[H])C([H])([H])c2c([H])c(OC([H])([H])C([H])([H])OC([H])([H])C([H])([H])C([H])([H])C([H])([H])C([H])([H])C([H])([H])C([H])([H])N([H])C(=O)C([H])([H])N([H])C(=O)C([H])([H])N([H])C(=O)C([H])([H])N([H])C(=O)C([H])([H])N([H])C(=O)N3C([H])([H])C([H])([H])C([H])([H])C([H])(n4nc(-c5c([H])c([H])c(Oc6c([H])c([H])c(F)c([H])c6F)c([H])c5[H])c(C(=O)N([H])[H])c4N([H])[H])C3([H])[H])c([H])c([H])c2C1([H])[H]

$$$$
34:0:0
     RDKit          3D

102109  0  0  1  0  0  0  0  0999 V2000
  -25.2540  -19.1630   19.3680 C   0  0  0  0  0  0  0  0  0  0  0  0
  -25.6420  -20.4300   19.5530 N   0  0  0  0  0  0  0  0  0  0  0  0
  -24.1690  -18.8680   18.8660 O   0  0  0  0  0  0  0  0  0  0  0  0
  -26.5360  -20.5540   20.0120 H   0  0  0  0  0  0  0  0  0  0  0  0
  -26.2540  -18.0650   19.7590 C   0  0  0  0  0  2  0  0  0  0  0  0
  -28.2170  -17.0460   18.6120 C   0  0  0  0  0  0  0  0  0  0  0  0
  -27.4920  -18.1150   18.9750 N   0  0  0  0  0  0  0  0  0  0  0  0
  -27.9240  -15.9010   18.9590 O   0  0  0  0  0  0  0  0  0  0  0  0
  -27.8020  -19.0280   18.6710 H   0  0  0  0  0  0  0  0  0  0  0  0
  -29.4070  -17.2990   17.6800 C   0  0  0  0  0  2  0  0  0  0  0  0
  -31.6590  -16.2140   17.7870 C   0  0  0  0  0  0  0  0  0  0  0  0
  -30.6810  -16.9580   18.3110 N   0  0  0  0  0  0  0  0  0  0  0  0
  -31.6210  -15.7440   16.6500 O   0  0  0  0  0  0  0  0  0  0  0  0
  -30.8030  -17.2810   19.2600 H   0  0  0  0  0  0  0  0  0  0  0  0
  -32.8710  -15.9600   18.6780 C   0  0  0  0  0  2  0  0  0  0  0  0
  -34.1450  -13.9830   19.3520 C   0  0  0  0  0  0  0  0  0  0  0  0
  -34.3820  -12.4210   21.2410 C   0  0  0  0  0  2  0  0  0  0  0  0
  -33.7930  -11.0510   20.8510 C   0  0  0  0  0  2  0  0  0  0  0  0
  -32.2790  -11.0030   21.1390 C   0  0  0  0  0  2  0  0  0  0  0  0
  -31.5250  -12.2400   20.5790 C   0  0  0  0  0  3  0  0  0  0  0  0
  -32.2490  -13.5440   20.9690 C   0  0  0  0  0  2  0  0  0  0  0  0
  -33.6440  -13.4560   20.5010 N   0  0  0  0  0  0  0  0  0  0  0  0
  -35.2920  -13.7800   18.9500 O   0  0  0  0  0  0  0  0  0  0  0  0
  -33.2590  -14.5630   18.5380 N   0  0  0  0  0  0  0  0  0  0  0  0
  -33.4450  -14.3620   17.5670 H   0  0  0  0  0  0  0  0  0  0  0  0
  -29.3020  -13.3360   21.2810 C   0  0  0  0  0  0  0  0  0  0  0  0
  -28.0700  -12.8110   21.5710 C   0  0  0  0  0  0  0  0  0  0  0  0
  -28.2040  -11.3970   21.4280 C   0  0  0  0  0  0  0  0  0  0  0  0
  -30.1230  -12.2560   20.9990 N   0  0  0  0  0  0  0  0  0  0  0  0
  -29.4600  -11.0800   21.1360 N   0  0  0  0  0  0  0  0  0  0  0  0
  -27.1950  -10.3320   21.4940 C   0  0  0  0  0  0  0  0  0  0  0  0
  -26.9130   -9.6600   22.7040 C   0  0  0  0  0  3  0  0  0  0  0  0
  -25.9290   -8.6480   22.7450 C   0  0  0  0  0  3  0  0  0  0  0  0
  -25.2170   -8.3040   21.5730 C   0  0  0  0  0  0  0  0  0  0  0  0
  -25.5180   -8.9620   20.3680 C   0  0  0  0  0  3  0  0  0  0  0  0
  -26.5010   -9.9640   20.3260 C   0  0  0  0  0  3  0  0  0  0  0  0
  -24.2640   -7.3160   21.5140 O   0  0  0  0  0  0  0  0  0  0  0  0
  -23.1420   -7.3500   22.3030 C   0  0  0  0  0  0  0  0  0  0  0  0
  -22.2340   -8.4310   22.2590 C   0  0  0  0  0  3  0  0  0  0  0  0
  -21.0590   -8.3940   23.0370 C   0  0  0  0  0  3  0  0  0  0  0  0
  -20.7850   -7.2760   23.8480 C   0  0  0  0  0  0  0  0  0  0  0  0
  -21.6850   -6.1970   23.8860 C   0  0  0  0  0  3  0  0  0  0  0  0
  -22.8590   -6.2340   23.1140 C   0  0  0  0  0  0  0  0  0  0  0  0
  -23.7130   -5.1820   23.1400 F   0  0  0  0  0  0  0  0  0  0  0  0
  -19.6530   -7.2360   24.5900 F   0  0  0  0  0  0  0  0  0  0  0  0
  -26.8160  -13.5850   21.8670 C   0  0  0  0  0  0  0  0  0  0  0  0
  -25.9280  -13.0240   22.6810 N   0  0  0  0  0  0  0  0  0  0  0  0
  -26.6400  -14.7170   21.4180 O   0  0  0  0  0  0  0  0  0  0  0  0
  -26.0880  -12.1090   23.0740 H   0  0  0  0  0  0  0  0  0  0  0  0
  -25.0820  -13.5220   22.9190 H   0  0  0  0  0  0  0  0  0  0  0  0
  -29.7830  -14.6370   21.2190 N   0  0  0  0  0  0  0  0  0  0  0  0
  -29.1840  -15.4370   21.3830 H   0  0  0  0  0  0  0  0  0  0  0  0
  -30.7300  -14.8960   20.9740 H   0  0  0  0  0  0  0  0  0  0  0  0
  -24.9810  -21.6250   19.0470 C   0  0  0  0  0  2  0  0  0  0  0  0
  -25.7960  -22.2460   17.8980 C   0  0  0  0  0  2  0  0  0  0  0  0
  -25.7390  -23.7810   17.9180 C   0  0  0  0  0  2  0  0  0  0  0  0
  -26.8560  -24.3980   17.1730 N   0  0  0  0  0  4  0  0  0  0  0  0
  -26.5360  -24.5700   16.2330 H   0  0  0  0  0  0  0  0  0  0  0  0
  -27.6400  -23.7650   17.1190 H   0  0  0  0  0  0  0  0  0  0  0  0
  -27.3100  -25.6800   17.7530 C   0  0  0  0  0  2  0  0  0  0  0  0
  -27.8080  -26.6560   16.6700 C   0  0  0  0  0  2  0  0  0  0  0  0
  -27.6220  -28.0010   17.1030 O   0  0  0  0  0  0  0  0  0  0  0  0
  -24.3350  -30.4700   22.8840 C   0  0  0  0  0  0  0  0  0  0  0  0
  -26.4060  -28.3380   17.6580 C   0  0  0  0  0  0  0  0  0  0  0  0
  -22.8490  -29.5980   21.1070 C   0  0  0  0  0  3  0  0  0  0  0  0
  -23.9740  -29.0970   18.8760 C   0  0  0  0  0  0  0  0  0  0  0  0
  -25.1450  -30.5590   20.5310 C   0  0  0  0  0  2  0  0  0  0  0  0
  -25.1860  -29.6040   19.3590 C   0  0  0  0  0  0  0  0  0  0  0  0
  -26.4020  -29.2310   18.7490 C   0  0  0  0  0  3  0  0  0  0  0  0
  -25.1720  -27.8280   17.1850 C   0  0  0  0  0  3  0  0  0  0  0  0
  -23.9620  -28.2010   17.7960 C   0  0  0  0  0  3  0  0  0  0  0  0
  -22.7140  -29.5700   19.5620 C   0  0  0  0  0  2  0  0  0  0  0  0
  -24.1430  -30.2020   21.5610 N   0  0  0  0  0  0  0  0  0  0  0  0
  -23.4410  -30.2640   23.7160 O   0  0  0  0  0  0  0  0  0  0  0  0
  -22.6200  -28.1680   21.6430 C   0  0  0  0  0  0  0  0  0  0  0  0
  -21.4780  -27.5680   21.2710 N   0  0  0  0  0  0  0  0  0  0  0  0
  -23.4680  -27.6130   22.3480 O   0  0  0  0  0  0  0  0  0  0  0  0
  -20.8340  -28.0940   20.6960 H   0  0  0  0  0  0  0  0  0  0  0  0
  -19.1400  -24.9360   20.4640 C   0  0  0  0  0  0  0  0  0  0  0  0
  -21.0670  -26.2110   21.6240 C   0  0  0  0  0  3  0  0  0  0  0  0
  -22.0080  -25.1620   20.9880 C   0  0  0  0  0  2  0  0  0  0  0  0
  -21.5130  -24.6520   19.6300 C   0  0  0  0  0  2  0  0  0  0  0  0
  -20.1280  -24.0150   19.7690 C   0  0  0  0  0  2  0  0  0  0  0  0
  -19.5830  -25.9770   21.3230 C   0  0  0  0  0  0  0  0  0  0  0  0
  -18.6250  -26.8300   21.9150 C   0  0  0  0  0  3  0  0  0  0  0  0
  -17.2510  -26.6540   21.6630 C   0  0  0  0  0  3  0  0  0  0  0  0
  -16.8190  -25.6120   20.8250 C   0  0  0  0  0  3  0  0  0  0  0  0
  -17.7610  -24.7540   20.2320 C   0  0  0  0  0  3  0  0  0  0  0  0
  -25.6770  -31.0730   23.4070 C   0  0  0  0  0  3  0  0  0  0  0  0
  -25.3790  -32.4010   23.9560 N   0  0  0  0  0  0  0  0  0  0  0  0
  -25.7120  -33.5580   23.3680 C   0  0  0  0  0  0  0  0  0  0  0  0
  -26.3780  -33.6170   22.3300 O   0  0  0  0  0  0  0  0  0  0  0  0
  -24.7890  -32.4290   24.7750 H   0  0  0  0  0  0  0  0  0  0  0  0
  -24.0320  -35.4270   23.2650 C   0  0  0  0  0  1  0  0  0  0  0  0
  -25.2320  -34.8580   24.0400 C   0  0  0  0  0  3  0  0  0  0  0  0
  -27.3420  -35.5390   25.0960 C   0  0  0  0  0  1  0  0  0  0  0  0
  -26.2880  -35.8890   24.1480 N   0  0  0  0  0  0  0  0  0  0  0  0
  -25.8910  -36.7820   24.4300 H   0  0  0  0  0  0  0  0  0  0  0  0
  -26.3820  -30.1660   24.4890 C   0  0  1  0  0  0  0  0  0  0  0  0
  -25.4550  -29.7490   25.6530 C   0  0  0  0  0  1  0  0  0  0  0  0
  -26.9310  -28.8740   23.8390 C   0  0  0  0  0  1  0  0  0  0  0  0
  -27.5960  -30.9130   25.0910 C   0  0  0  0  0  1  0  0  0  0  0  0
  1  2  1  0
  1  5  1  0
  2  4  1  0
  3  1  2  0
  6  8  2  0
  6  7  1  0
  7  5  1  0
  9  7  1  0
 10 12  1  0
 10  6  1  0
 11 12  1  0
 11 15  1  0
 12 14  1  0
 13 11  2  0
 16 22  1  0
 18 19  1  0
 18 17  1  0
 20 21  1  0
 20 29  1  0
 20 19  1  0
 22 21  1  0
 22 17  1  0
 23 16  2  0
 24 15  1  0
 24 16  1  0
 25 24  1  0
 26 27  2  0
 27 46  1  0
 28 31  1  0
 28 27  1  0
 29 30  1  0
 29 26  1  0
 30 28  2  0
 31 32  1  0
 32 33  2  0
 34 33  1  0
 35 34  2  0
 36 35  1  0
 36 31  2  0
 37 34  1  0
 37 38  1  0
 38 43  1  0
 39 38  2  0
 39 40  1  0
 40 41  2  0
 41 42  1  0
 41 45  1  0
 43 44  1  0
 43 42  2  0
 46 47  1  0
 47 50  1  0
 47 49  1  0
 48 46  2  0
 51 26  1  0
 51 52  1  0
 53 51  1  0
 54  2  1  0
 55 56  1  0
 55 54  1  0
 57 60  1  0
 57 56  1  0
 58 57  1  0
 59 57  1  0
 61 62  1  0
 61 60  1  0
 62 64  1  0
 63 74  2  0
 64 69  1  0
 65 73  1  0
 65 75  1  0
 66 68  1  0
 66 72  1  0
 67 73  1  0
 68 67  1  0
 69 68  2  0
 70 64  2  0
 70 71  1  0
 71 66  2  0
 72 65  1  0
 73 63  1  0
 75 77  2  0
 76 75  1  0
 78 76  1  0
 79 84  1  0
 80 76  1  0
 81 80  1  0
 82 83  1  0
 82 81  1  0
 83 79  1  0
 84 80  1  0
 84 85  2  0
 86 85  1  0
 87 86  2  0
 88 79  2  0
 88 87  1  0
 89 63  1  0
 89 90  1  0
 89 99  1  0
 90 93  1  0
 91 90  1  0
 91 95  1  0
 92 91  2  0
 95 94  1  0
 95 97  1  0
 97 98  1  0
 97 96  1  0
 99102  1  1
 99100  1  0
101 99  1  0
M  ISO  4  16 100  24 100  61 101  62 101
M  END
>  <TORSDO>  (32) 
F 27

>  <SCORE>  (32) 
-1.166

>  <name>  (32) 
34

>  <ligand_id>  (32) 
34

>  <original_smiles>  (32) 
[H]c1c([H])c([H])c2c(c1[H])C([H])([H])C([H])([H])C([H])([H])C2([H])N([H])C(=O)C1([H])N(C(=O)C([H])(N([H])C(=O)C([H])(N([H])C([H])([H])[H])C([H])([H])[H])C(C([H])([H])[H])(C([H])([H])[H])C([H])([H])[H])C([H])([H])c2c([H])c(OC([H])([H])C([H])([H])[N+]([H])([H])C([H])([H])C([H])([H])C([H])([H])N([H])C(=O)C([H])([H])N([H])C(=O)C([H])([H])N([H])C(=O)C([H])([H])N([H])C(=O)N3C([H])([H])C([H])([H])C([H])([H])C([H])(n4nc(-c5c([H])c([H])c(Oc6c([H])c([H])c(F)c([H])c6F)c([H])c5[H])c(C(=O)N([H])[H])c4N([H])[H])C3([H])[H])c([H])c([H])c2C1([H])[H]

>  <smiles>  (32) 
[H]c1c([H])c([H])c2c(c1[H])C([H])([H])C([H])([H])C([H])([H])C2([H])N([H])C(=O)C1([H])N(C(=O)C([H])(N([H])C(=O)C([H])(N([H])C([H])([H])[H])C([H])([H])[H])C(C([H])([H])[H])(C([H])([H])[H])C([H])([H])[H])C([H])([H])c2c([H])c(OC([H])([H])C([H])([H])[N+]([H])([H])C([H])([H])C([H])([H])C([H])([H])N([H])C(=O)C([H])([H])N([H])C(=O)C([H])([H])N([H])C(=O)C([H])([H])N([H])C(=O)N3C([H])([H])C([H])([H])C([H])([H])C([H])(n4nc(-c5c([H])c([H])c(Oc6c([H])c([H])c(F)c([H])c6F)c([H])c5[H])c(C(=O)N([H])[H])c4N([H])[H])C3([H])[H])c([H])c([H])c2C1([H])[H]

$$$$
35:0:0
     RDKit          3D

102109  0  0  1  0  0  0  0  0999 V2000
  -25.5290  -21.8280   17.8000 C   0  0  0  0  0  0  0  0  0  0  0  0
  -24.8730  -22.3840   16.7730 N   0  0  0  0  0  0  0  0  0  0  0  0
  -25.7650  -22.4420   18.8410 O   0  0  0  0  0  0  0  0  0  0  0  0
  -24.7550  -21.8190   15.9430 H   0  0  0  0  0  0  0  0  0  0  0  0
  -25.9640  -20.3670   17.6360 C   0  0  0  0  0  2  0  0  0  0  0  0
  -28.1080  -19.9760   18.8540 C   0  0  0  0  0  0  0  0  0  0  0  0
  -27.4150  -20.1880   17.7280 N   0  0  0  0  0  0  0  0  0  0  0  0
  -27.5870  -20.0050   19.9720 O   0  0  0  0  0  0  0  0  0  0  0  0
  -27.9230  -20.1680   16.8550 H   0  0  0  0  0  0  0  0  0  0  0  0
  -29.6110  -19.6720   18.7020 C   0  0  0  0  0  2  0  0  0  0  0  0
  -29.7990  -17.5390   20.0020 C   0  0  0  0  0  0  0  0  0  0  0  0
  -30.1390  -18.8130   19.7690 N   0  0  0  0  0  0  0  0  0  0  0  0
  -28.9790  -16.9300   19.3080 O   0  0  0  0  0  0  0  0  0  0  0  0
  -30.8050  -19.2410   20.3970 H   0  0  0  0  0  0  0  0  0  0  0  0
  -30.4710  -16.8500   21.2000 C   0  0  0  0  0  2  0  0  0  0  0  0
  -30.8440  -14.4780   20.5430 C   0  0  0  0  0  0  0  0  0  0  0  0
  -30.5640  -12.3310   19.3650 C   0  0  0  0  0  2  0  0  0  0  0  0
  -29.6350  -12.5380   18.1500 C   0  0  0  0  0  2  0  0  0  0  0  0
  -28.1530  -12.4200   18.5540 C   0  0  0  0  0  2  0  0  0  0  0  0
  -27.8070  -13.2550   19.8110 C   0  0  0  0  0  3  0  0  0  0  0  0
  -28.8380  -13.0040   20.9310 C   0  0  0  0  0  2  0  0  0  0  0  0
  -30.1770  -13.3060   20.3950 N   0  0  0  0  0  0  0  0  0  0  0  0
  -31.9340  -14.7150   20.0090 O   0  0  0  0  0  0  0  0  0  0  0  0
  -30.1790  -15.4170   21.2270 N   0  0  0  0  0  0  0  0  0  0  0  0
  -29.2670  -15.1580   21.5700 H   0  0  0  0  0  0  0  0  0  0  0  0
  -25.3970  -13.8850   20.4700 C   0  0  0  0  0  0  0  0  0  0  0  0
  -24.3190  -13.1210   20.8190 C   0  0  0  0  0  0  0  0  0  0  0  0
  -24.7710  -11.7660   20.8020 C   0  0  0  0  0  0  0  0  0  0  0  0
  -26.4410  -12.9970   20.2630 N   0  0  0  0  0  0  0  0  0  0  0  0
  -26.0660  -11.7160   20.5150 N   0  0  0  0  0  0  0  0  0  0  0  0
  -24.0330  -10.5090   20.9810 C   0  0  0  0  0  0  0  0  0  0  0  0
  -24.4310   -9.5470   21.9370 C   0  0  0  0  0  3  0  0  0  0  0  0
  -23.6950   -8.3550   22.1030 C   0  0  0  0  0  3  0  0  0  0  0  0
  -22.5470   -8.1130   21.3110 C   0  0  0  0  0  0  0  0  0  0  0  0
  -22.1690   -9.0630   20.3450 C   0  0  0  0  0  3  0  0  0  0  0  0
  -22.9070  -10.2470   20.1760 C   0  0  0  0  0  3  0  0  0  0  0  0
  -21.7850   -6.9730   21.3870 O   0  0  0  0  0  0  0  0  0  0  0  0
  -21.6780   -6.2530   22.5500 C   0  0  0  0  0  0  0  0  0  0  0  0
  -21.1760   -6.8300   23.7370 C   0  0  0  0  0  3  0  0  0  0  0  0
  -21.0170   -6.0360   24.8920 C   0  0  0  0  0  3  0  0  0  0  0  0
  -21.3510   -4.6700   24.8590 C   0  0  0  0  0  0  0  0  0  0  0  0
  -21.8470   -4.0930   23.6750 C   0  0  0  0  0  3  0  0  0  0  0  0
  -22.0070   -4.8840   22.5230 C   0  0  0  0  0  0  0  0  0  0  0  0
  -22.4650   -4.3210   21.3800 F   0  0  0  0  0  0  0  0  0  0  0  0
  -21.1910   -3.9050   25.9640 F   0  0  0  0  0  0  0  0  0  0  0  0
  -22.9200  -13.6050   21.0710 C   0  0  0  0  0  0  0  0  0  0  0  0
  -22.1790  -12.9120   21.9300 N   0  0  0  0  0  0  0  0  0  0  0  0
  -22.4940  -14.6300   20.5400 O   0  0  0  0  0  0  0  0  0  0  0  0
  -22.5420  -12.0840   22.3780 H   0  0  0  0  0  0  0  0  0  0  0  0
  -21.2410  -13.2150   22.1420 H   0  0  0  0  0  0  0  0  0  0  0  0
  -25.5720  -15.2550   20.2910 N   0  0  0  0  0  0  0  0  0  0  0  0
  -24.8030  -15.9130   20.3610 H   0  0  0  0  0  0  0  0  0  0  0  0
  -26.4280  -15.6810   19.9600 H   0  0  0  0  0  0  0  0  0  0  0  0
  -24.2210  -23.6990   16.7520 C   0  0  0  0  0  2  0  0  0  0  0  0
  -25.1550  -24.9150   16.6390 C   0  0  0  0  0  0  0  0  0  0  0  0
  -26.4730  -24.7200   16.7780 N   0  0  0  0  0  0  0  0  0  0  0  0
  -24.6730  -26.0300   16.4420 O   0  0  0  0  0  0  0  0  0  0  0  0
  -26.7650  -23.7640   16.9380 H   0  0  0  0  0  0  0  0  0  0  0  0
  -27.4650  -25.7680   16.9880 C   0  0  0  0  0  2  0  0  0  0  0  0
  -28.3840  -25.3900   18.1660 C   0  0  0  0  0  2  0  0  0  0  0  0
  -28.9800  -26.6080   18.8950 C   0  0  0  0  0  2  0  0  0  0  0  0
  -28.3740  -26.8340   20.1660 O   0  0  0  0  0  0  0  0  0  0  0  0
  -24.5580  -31.9530   23.2670 C   0  0  0  0  0  0  0  0  0  0  0  0
  -27.1900  -27.5320   20.1740 C   0  0  0  0  0  0  0  0  0  0  0  0
  -23.3380  -30.5380   21.6500 C   0  0  0  0  0  3  0  0  0  0  0  0
  -24.7760  -28.9940   20.2260 C   0  0  0  0  0  0  0  0  0  0  0  0
  -25.8550  -30.9090   21.4150 C   0  0  0  0  0  2  0  0  0  0  0  0
  -25.9380  -29.5350   20.7910 C   0  0  0  0  0  0  0  0  0  0  0  0
  -27.1470  -28.8070   20.7690 C   0  0  0  0  0  3  0  0  0  0  0  0
  -26.0040  -26.9780   19.6490 C   0  0  0  0  0  3  0  0  0  0  0  0
  -24.8000  -27.7080   19.6600 C   0  0  0  0  0  3  0  0  0  0  0  0
  -23.5290  -29.8460   20.2770 C   0  0  0  0  0  2  0  0  0  0  0  0
  -24.6030  -31.1490   22.1680 N   0  0  0  0  0  0  0  0  0  0  0  0
  -23.4830  -32.2280   23.8180 O   0  0  0  0  0  0  0  0  0  0  0  0
  -22.7040  -29.5190   22.6240 C   0  0  0  0  0  0  0  0  0  0  0  0
  -21.3900  -29.2840   22.4700 N   0  0  0  0  0  0  0  0  0  0  0  0
  -23.3890  -28.9410   23.4710 O   0  0  0  0  0  0  0  0  0  0  0  0
  -20.8980  -29.8020   21.7570 H   0  0  0  0  0  0  0  0  0  0  0  0
  -18.0580  -27.9610   22.8910 C   0  0  0  0  0  0  0  0  0  0  0  0
  -20.5890  -28.3410   23.2470 C   0  0  0  0  0  3  0  0  0  0  0  0
  -20.7750  -26.8980   22.7290 C   0  0  0  0  0  2  0  0  0  0  0  0
  -19.7290  -26.4870   21.6870 C   0  0  0  0  0  2  0  0  0  0  0  0
  -18.3190  -26.5950   22.2740 C   0  0  0  0  0  2  0  0  0  0  0  0
  -19.1250  -28.7880   23.3320 C   0  0  0  0  0  0  0  0  0  0  0  0
  -18.8280  -30.0650   23.8580 C   0  0  0  0  0  3  0  0  0  0  0  0
  -17.4980  -30.5130   23.9560 C   0  0  0  0  0  3  0  0  0  0  0  0
  -16.4450  -29.6830   23.5360 C   0  0  0  0  0  3  0  0  0  0  0  0
  -16.7260  -28.4120   23.0050 C   0  0  0  0  0  3  0  0  0  0  0  0
  -25.8510  -32.5890   23.8690 C   0  0  0  0  0  3  0  0  0  0  0  0
  -26.3830  -31.8330   25.1480 C   0  0  1  0  0  0  0  0  0  0  0  0
  -25.2970  -31.5940   26.2220 C   0  0  0  0  0  1  0  0  0  0  0  0
  -26.9780  -30.4600   24.7610 C   0  0  0  0  0  1  0  0  0  0  0  0
  -27.5270  -32.6470   25.7970 C   0  0  0  0  0  1  0  0  0  0  0  0
  -25.5500  -33.9920   24.1800 N   0  0  0  0  0  0  0  0  0  0  0  0
  -25.8940  -35.0320   23.4090 C   0  0  0  0  0  0  0  0  0  0  0  0
  -26.5730  -34.9140   22.3850 O   0  0  0  0  0  0  0  0  0  0  0  0
  -24.9480  -34.1620   24.9720 H   0  0  0  0  0  0  0  0  0  0  0  0
  -24.1840  -36.8330   23.0090 C   0  0  0  0  0  1  0  0  0  0  0  0
  -25.4060  -36.4260   23.8470 C   0  0  0  0  0  3  0  0  0  0  0  0
  -27.5290  -37.3030   24.7180 C   0  0  0  0  0  1  0  0  0  0  0  0
  -26.4480  -37.4700   23.7510 N   0  0  0  0  0  0  0  0  0  0  0  0
  -26.0440  -38.3940   23.8750 H   0  0  0  0  0  0  0  0  0  0  0  0
  1  3  2  0
  2  1  1  0
  4  2  1  0
  5  7  1  0
  5  1  1  0
  6  8  2  0
  7  6  1  0
  9  7  1  0
 10  6  1  0
 10 12  1  0
 11 15  1  0
 12 11  1  0
 12 14  1  0
 13 11  2  0
 15 24  1  0
 16 24  1  0
 17 22  1  0
 18 19  1  0
 18 17  1  0
 20 19  1  0
 20 29  1  0
 20 21  1  0
 22 16  1  0
 22 21  1  0
 23 16  2  0
 24 25  1  0
 26 27  2  0
 27 46  1  0
 28 27  1  0
 28 31  1  0
 29 26  1  0
 29 30  1  0
 30 28  2  0
 31 32  1  0
 32 33  2  0
 34 37  1  0
 34 33  1  0
 35 34  2  0
 36 35  1  0
 36 31  2  0
 37 38  1  0
 38 39  1  0
 39 40  2  0
 41 40  1  0
 41 45  1  0
 42 41  2  0
 43 38  2  0
 43 42  1  0
 44 43  1  0
 46 47  1  0
 47 50  1  0
 47 49  1  0
 48 46  2  0
 51 52  1  0
 51 26  1  0
 53 51  1  0
 54  2  1  0
 55 54  1  0
 55 56  1  0
 56 58  1  0
 56 59  1  0
 57 55  2  0
 59 60  1  0
 60 61  1  0
 61 62  1  0
 62 64  1  0
 63 74  2  0
 64 69  1  0
 65 73  1  0
 65 75  1  0
 66 72  1  0
 66 68  1  0
 67 73  1  0
 68 67  1  0
 69 68  2  0
 70 71  1  0
 70 64  2  0
 71 66  2  0
 72 65  1  0
 73 63  1  0
 75 77  2  0
 76 75  1  0
 78 76  1  0
 79 88  2  0
 79 84  1  0
 80 76  1  0
 80 84  1  0
 81 80  1  0
 82 83  1  0
 82 81  1  0
 83 79  1  0
 84 85  2  0
 85 86  1  0
 87 86  2  0
 88 87  1  0
 89 63  1  0
 89 94  1  0
 89 90  1  0
 90 93  1  1
 90 91  1  0
 92 90  1  0
 94 97  1  0
 95 99  1  0
 95 94  1  0
 96 95  2  0
 99 98  1  0
101 99  1  0
101102  1  0
101100  1  0
M  ISO  4  16 100  24 100  61 101  62 101
M  END
>  <TORSDO>  (33) 
F 26

>  <SCORE>  (33) 
-11.985

>  <name>  (33) 
35

>  <ligand_id>  (33) 
35

>  <original_smiles>  (33) 
[H]c1c([H])c([H])c2c(c1[H])C([H])([H])C([H])([H])C([H])([H])C2([H])N([H])C(=O)C1([H])N(C(=O)C([H])(N([H])C(=O)C([H])(N([H])C([H])([H])[H])C([H])([H])[H])C(C([H])([H])[H])(C([H])([H])[H])C([H])([H])[H])C([H])([H])c2c([H])c(OC([H])([H])C([H])([H])C([H])([H])N([H])C(=O)C([H])([H])N([H])C(=O)C([H])([H])N([H])C(=O)C([H])([H])N([H])C(=O)C([H])([H])N([H])C(=O)N3C([H])([H])C([H])([H])C([H])([H])C([H])(n4nc(-c5c([H])c([H])c(Oc6c([H])c([H])c(F)c([H])c6F)c([H])c5[H])c(C(=O)N([H])[H])c4N([H])[H])C3([H])[H])c([H])c([H])c2C1([H])[H]

>  <smiles>  (33) 
[H]c1c([H])c([H])c2c(c1[H])C([H])([H])C([H])([H])C([H])([H])C2([H])N([H])C(=O)C1([H])N(C(=O)C([H])(N([H])C(=O)C([H])(N([H])C([H])([H])[H])C([H])([H])[H])C(C([H])([H])[H])(C([H])([H])[H])C([H])([H])[H])C([H])([H])c2c([H])c(OC([H])([H])C([H])([H])C([H])([H])N([H])C(=O)C([H])([H])N([H])C(=O)C([H])([H])N([H])C(=O)C([H])([H])N([H])C(=O)C([H])([H])N([H])C(=O)N3C([H])([H])C([H])([H])C([H])([H])C([H])(n4nc(-c5c([H])c([H])c(Oc6c([H])c([H])c(F)c([H])c6F)c([H])c5[H])c(C(=O)N([H])[H])c4N([H])[H])C3([H])[H])c([H])c([H])c2C1([H])[H]

$$$$
36:0:0
     RDKit          3D

121128  0  0  1  0  0  0  0  0999 V2000
  -32.1810  -22.0920   29.5660 C   0  0  0  0  0  0  0  0  0  0  0  0
  -32.7250  -22.0040   28.3480 N   0  0  0  0  0  0  0  0  0  0  0  0
  -31.3840  -22.9840   29.8710 O   0  0  0  0  0  0  0  0  0  0  0  0
  -33.3630  -21.2400   28.1710 H   0  0  0  0  0  0  0  0  0  0  0  0
  -32.4560  -22.9070   27.2270 C   0  0  0  0  0  2  0  0  0  0  0  0
  -31.1280  -22.6170   26.5100 C   0  0  0  0  0  0  0  0  0  0  0  0
  -30.7630  -23.4760   25.5480 N   0  0  0  0  0  0  0  0  0  0  0  0
  -30.4420  -21.6340   26.8030 O   0  0  0  0  0  0  0  0  0  0  0  0
  -31.4020  -24.2320   25.3380 H   0  0  0  0  0  0  0  0  0  0  0  0
  -29.6190  -23.2880   24.6510 C   0  0  0  0  0  2  0  0  0  0  0  0
  -28.2570  -23.5550   25.3260 C   0  0  0  0  0  2  0  0  0  0  0  0
  -28.1710  -24.9070   25.9180 N   0  0  0  0  0  4  0  0  0  0  0  0
  -28.2300  -25.5850   25.1750 H   0  0  0  0  0  0  0  0  0  0  0  0
  -28.9630  -25.0480   26.5250 H   0  0  0  0  0  0  0  0  0  0  0  0
  -26.9280  -25.1520   26.6790 C   0  0  0  0  0  2  0  0  0  0  0  0
  -26.8630  -26.5960   27.2200 C   0  0  0  0  0  2  0  0  0  0  0  0
  -25.7620  -26.7500   28.1650 N   0  0  0  0  0  0  0  0  0  0  0  0
  -25.8660  -26.0790   28.9230 H   0  0  0  0  0  0  0  0  0  0  0  0
  -25.7730  -28.0950   28.7350 C   0  0  0  0  0  2  0  0  0  0  0  0
  -24.8120  -28.1880   29.9330 C   0  0  0  0  0  2  0  0  0  0  0  0
  -23.4470  -28.1920   29.5120 O   0  0  0  0  0  0  0  0  0  0  0  0
  -21.3180  -26.7960   36.1850 C   0  0  0  0  0  0  0  0  0  0  0  0
  -22.4750  -28.2720   30.4890 C   0  0  0  0  0  0  0  0  0  0  0  0
  -19.5520  -27.5640   34.6240 C   0  0  0  0  0  3  0  0  0  0  0  0
  -20.3800  -28.4690   32.3850 C   0  0  0  0  0  0  0  0  0  0  0  0
  -21.9820  -28.2760   34.3000 C   0  0  0  0  0  2  0  0  0  0  0  0
  -21.7040  -28.3240   32.8140 C   0  0  0  0  0  0  0  0  0  0  0  0
  -22.7490  -28.2260   31.8780 C   0  0  0  0  0  3  0  0  0  0  0  0
  -21.1340  -28.4090   30.0710 C   0  0  0  0  0  3  0  0  0  0  0  0
  -20.0850  -28.5060   31.0100 C   0  0  0  0  0  3  0  0  0  0  0  0
  -19.3270  -28.5760   33.4660 C   0  0  0  0  0  2  0  0  0  0  0  0
  -20.9840  -27.4990   35.0660 N   0  0  0  0  0  0  0  0  0  0  0  0
  -20.4510  -26.2450   36.8750 O   0  0  0  0  0  0  0  0  0  0  0  0
  -18.9830  -26.1950   34.1920 C   0  0  0  0  0  0  0  0  0  0  0  0
  -17.7010  -25.9580   34.5080 N   0  0  0  0  0  0  0  0  0  0  0  0
  -19.6770  -25.3920   33.5620 O   0  0  0  0  0  0  0  0  0  0  0  0
  -17.2020  -26.6650   35.0290 H   0  0  0  0  0  0  0  0  0  0  0  0
  -14.5500  -24.2740   35.0160 C   0  0  0  0  0  0  0  0  0  0  0  0
  -16.9420  -24.7560   34.1700 C   0  0  0  0  0  3  0  0  0  0  0  0
  -16.3120  -24.8730   32.7620 C   0  0  0  0  0  2  0  0  0  0  0  0
  -14.8830  -25.4260   32.7860 C   0  0  0  0  0  2  0  0  0  0  0  0
  -13.9750  -24.5290   33.6320 C   0  0  0  0  0  2  0  0  0  0  0  0
  -15.9410  -24.3980   35.2720 C   0  0  0  0  0  0  0  0  0  0  0  0
  -16.4190  -24.1840   36.5810 C   0  0  0  0  0  3  0  0  0  0  0  0
  -15.5350  -23.8570   37.6250 C   0  0  0  0  0  3  0  0  0  0  0  0
  -14.1600  -23.7240   37.3650 C   0  0  0  0  0  3  0  0  0  0  0  0
  -13.6710  -23.9250   36.0620 C   0  0  0  0  0  3  0  0  0  0  0  0
  -22.7990  -26.6690   36.6620 C   0  0  0  0  0  3  0  0  0  0  0  0
  -22.7760  -26.4280   38.1110 N   0  0  0  0  0  0  0  0  0  0  0  0
  -22.9890  -27.3680   39.0400 C   0  0  0  0  0  0  0  0  0  0  0  0
  -23.3000  -28.5300   38.7590 O   0  0  0  0  0  0  0  0  0  0  0  0
  -22.4680  -25.5150   38.4140 H   0  0  0  0  0  0  0  0  0  0  0  0
  -21.4860  -27.4760   41.0540 C   0  0  0  0  0  1  0  0  0  0  0  0
  -22.8290  -26.9570   40.5160 C   0  0  0  0  0  3  0  0  0  0  0  0
  -25.2050  -26.7700   41.1070 C   0  0  0  0  0  1  0  0  0  0  0  0
  -23.9320  -27.4300   41.3820 N   0  0  0  0  0  0  0  0  0  0  0  0
  -23.7030  -27.2850   42.3620 H   0  0  0  0  0  0  0  0  0  0  0  0
  -23.5990  -25.5310   35.9180 C   0  0  1  0  0  0  0  0  0  0  0  0
  -22.8480  -24.1800   35.8590 C   0  0  0  0  0  1  0  0  0  0  0  0
  -23.9240  -25.9540   34.4670 C   0  0  0  0  0  1  0  0  0  0  0  0
  -24.9550  -25.2950   36.6240 C   0  0  0  0  0  1  0  0  0  0  0  0
  -32.6220  -21.0460   30.6020 C   0  0  0  0  0  2  0  0  0  0  0  0
  -30.5640  -20.5880   31.9220 C   0  0  0  0  0  0  0  0  0  0  0  0
  -31.8000  -21.0840   31.8150 N   0  0  0  0  0  0  0  0  0  0  0  0
  -30.0130  -19.9800   31.0020 O   0  0  0  0  0  0  0  0  0  0  0  0
  -32.1800  -21.5990   32.5980 H   0  0  0  0  0  0  0  0  0  0  0  0
  -29.8260  -20.7900   33.2490 C   0  0  0  0  0  2  0  0  0  0  0  0
  -28.3730  -20.9240   33.0180 N   0  0  0  0  0  4  0  0  0  0  0  0
  -27.8710  -20.2220   33.5390 H   0  0  0  0  0  0  0  0  0  0  0  0
  -28.2570  -20.7390   32.0330 H   0  0  0  0  0  0  0  0  0  0  0  0
  -27.8140  -22.2630   33.3100 C   0  0  0  0  0  2  0  0  0  0  0  0
  -26.6030  -22.5860   32.4110 C   0  0  0  0  0  2  0  0  0  0  0  0
  -25.8120  -23.8400   32.8410 C   0  0  0  0  0  2  0  0  0  0  0  0
  -27.0360  -25.9210   32.1970 C   0  0  0  0  0  0  0  0  0  0  0  0
  -26.6690  -24.9970   33.0960 N   0  0  0  0  0  0  0  0  0  0  0  0
  -26.6400  -25.9070   31.0280 O   0  0  0  0  0  0  0  0  0  0  0  0
  -27.0060  -25.1220   34.0430 H   0  0  0  0  0  0  0  0  0  0  0  0
  -27.9980  -27.0110   32.6780 C   0  0  0  0  0  2  0  0  0  0  0  0
  -27.3840  -28.2880   32.5330 O   0  0  0  0  0  0  0  0  0  0  0  0
  -28.2580  -29.3380   32.9090 C   0  0  0  0  0  2  0  0  0  0  0  0
  -27.5120  -30.6730   32.8420 C   0  0  0  0  0  2  0  0  0  0  0  0
  -28.4470  -31.8690   33.0900 C   0  0  0  0  0  2  0  0  0  0  0  0
  -27.8010  -33.2240   32.7750 C   0  0  0  0  0  2  0  0  0  0  0  0
  -27.0510  -34.7160   34.6200 C   0  0  0  0  0  0  0  0  0  0  0  0
  -25.7340  -36.6200   35.4410 C   0  0  0  0  0  2  0  0  0  0  0  0
  -25.7250  -36.7890   36.9660 C   0  0  0  0  0  2  0  0  0  0  0  0
  -24.6130  -35.9360   37.5990 C   0  0  0  0  0  2  0  0  0  0  0  0
  -24.6540  -34.4640   37.1160 C   0  0  0  0  0  3  0  0  0  0  0  0
  -24.7510  -34.3800   35.5760 C   0  0  0  0  0  2  0  0  0  0  0  0
  -25.8910  -35.1970   35.1180 N   0  0  0  0  0  0  0  0  0  0  0  0
  -28.1270  -35.3190   34.6720 O   0  0  0  0  0  0  0  0  0  0  0  0
  -26.8730  -33.6620   33.8150 N   0  0  0  0  0  0  0  0  0  0  0  0
  -25.9340  -33.2940   33.7740 H   0  0  0  0  0  0  0  0  0  0  0  0
  -23.4840  -32.5870   38.4380 C   0  0  0  0  0  0  0  0  0  0  0  0
  -22.1620  -32.3240   38.6810 C   0  0  0  0  0  0  0  0  0  0  0  0
  -21.4270  -33.3370   37.9920 C   0  0  0  0  0  0  0  0  0  0  0  0
  -23.5080  -33.7100   37.6260 N   0  0  0  0  0  0  0  0  0  0  0  0
  -22.2520  -34.1290   37.3200 N   0  0  0  0  0  0  0  0  0  0  0  0
  -19.9870  -33.6320   37.9800 C   0  0  0  0  0  0  0  0  0  0  0  0
  -19.2810  -33.8090   36.7710 C   0  0  0  0  0  3  0  0  0  0  0  0
  -17.8950  -34.0740   36.7820 C   0  0  0  0  0  3  0  0  0  0  0  0
  -17.2000  -34.1610   38.0120 C   0  0  0  0  0  0  0  0  0  0  0  0
  -17.9120  -34.0070   39.2150 C   0  0  0  0  0  3  0  0  0  0  0  0
  -19.2940  -33.7480   39.2010 C   0  0  0  0  0  3  0  0  0  0  0  0
  -15.8590  -34.4400   38.1220 O   0  0  0  0  0  0  0  0  0  0  0  0
  -14.9800  -34.1660   37.1060 C   0  0  0  0  0  0  0  0  0  0  0  0
  -14.8450  -32.8660   36.5680 C   0  0  0  0  0  3  0  0  0  0  0  0
  -13.8820  -32.6140   35.5720 C   0  0  0  0  0  3  0  0  0  0  0  0
  -13.0470  -33.6530   35.1190 C   0  0  0  0  0  0  0  0  0  0  0  0
  -13.1750  -34.9460   35.6570 C   0  0  0  0  0  3  0  0  0  0  0  0
  -14.1370  -35.2000   36.6500 C   0  0  0  0  0  0  0  0  0  0  0  0
  -14.2440  -36.4420   37.1800 F   0  0  0  0  0  0  0  0  0  0  0  0
  -12.1150  -33.4080   34.1670 F   0  0  0  0  0  0  0  0  0  0  0  0
  -21.6110  -31.2540   39.5780 C   0  0  0  0  0  0  0  0  0  0  0  0
  -20.4360  -30.7250   39.2540 N   0  0  0  0  0  0  0  0  0  0  0  0
  -22.2470  -30.8450   40.5500 O   0  0  0  0  0  0  0  0  0  0  0  0
  -19.9260  -31.0460   38.4440 H   0  0  0  0  0  0  0  0  0  0  0  0
  -20.0400  -29.9900   39.8210 H   0  0  0  0  0  0  0  0  0  0  0  0
  -24.6640  -31.9770   38.8520 N   0  0  0  0  0  0  0  0  0  0  0  0
  -24.6750  -31.1890   39.4900 H   0  0  0  0  0  0  0  0  0  0  0  0
  -25.5910  -32.3060   38.6130 H   0  0  0  0  0  0  0  0  0  0  0  0
  1  3  2  0
  1 62  1  0
  2  1  1  0
  4  2  1  0
  5  2  1  0
  6  8  2  0
  6  5  1  0
  7  6  1  0
  9  7  1  0
 10 11  1  0
 10  7  1  0
 11 12  1  0
 12 14  1  0
 12 15  1  0
 13 12  1  0
 15 16  1  0
 16 17  1  0
 17 19  1  0
 17 18  1  0
 19 20  1  0
 21 20  1  0
 21 23  1  0
 22 33  2  0
 23 28  1  0
 24 34  1  0
 24 32  1  0
 25 27  1  0
 25 31  1  0
 26 32  1  0
 27 26  1  0
 28 27  2  0
 29 23  2  0
 29 30  1  0
 30 25  2  0
 31 24  1  0
 32 22  1  0
 34 35  1  0
 35 37  1  0
 36 34  2  0
 38 43  2  0
 38 47  1  0
 39 35  1  0
 39 43  1  0
 40 41  1  0
 40 39  1  0
 41 42  1  0
 42 38  1  0
 43 44  1  0
 44 45  2  0
 46 45  1  0
 47 46  2  0
 48 22  1  0
 48 49  1  0
 49 52  1  0
 49 50  1  0
 50 54  1  0
 51 50  2  0
 54 53  1  0
 54 56  1  0
 55 56  1  0
 56 57  1  0
 58 61  1  1
 58 48  1  0
 59 58  1  0
 60 58  1  0
 62 64  1  0
 63 67  1  0
 64 63  1  0
 64 66  1  0
 65 63  2  0
 68 67  1  0
 68 71  1  0
 68 69  1  0
 70 68  1  0
 72 73  1  0
 72 71  1  0
 73 75  1  0
 74 78  1  0
 74 75  1  0
 75 77  1  0
 76 74  2  0
 79 78  1  0
 79 80  1  0
 81 80  1  0
 81 82  1  0
 83 82  1  0
 83 92  1  0
 84 91  2  0
 84 90  1  0
 85 86  1  0
 86 87  1  0
 88 89  1  0
 88 87  1  0
 88 97  1  0
 90 85  1  0
 90 89  1  0
 92 84  1  0
 93 92  1  0
 94 95  2  0
 94119  1  0
 95114  1  0
 96 95  1  0
 97 94  1  0
 98 97  1  0
 98 96  2  0
 99 96  1  0
 99104  1  0
100101  1  0
100 99  2  0
101102  2  0
102105  1  0
102103  1  0
104103  2  0
106105  1  0
107106  2  0
108107  1  0
109108  2  0
109110  1  0
110111  2  0
111106  1  0
111112  1  0
113109  1  0
114116  2  0
115114  1  0
115118  1  0
117115  1  0
119120  1  0
121119  1  0
M  ISO  4  20 101  21 101  84 100  92 100
M  END
>  <TORSDO>  (34) 
F 40

>  <SCORE>  (34) 
35.067

>  <name>  (34) 
36

>  <ligand_id>  (34) 
36

>  <original_smiles>  (34) 
[H]c1c([H])c([H])c2c(c1[H])C([H])([H])C([H])([H])C([H])([H])C2([H])N([H])C(=O)C1([H])N(C(=O)C([H])(N([H])C(=O)C([H])(N([H])C([H])([H])[H])C([H])([H])[H])C(C([H])([H])[H])(C([H])([H])[H])C([H])([H])[H])C([H])([H])c2c([H])c(OC([H])([H])C([H])([H])N([H])C([H])([H])C([H])([H])[N+]([H])([H])C([H])([H])C([H])([H])N([H])C(=O)C([H])([H])N([H])C(=O)C([H])([H])N([H])C(=O)C([H])([H])[N+]([H])([H])C([H])([H])C([H])([H])C([H])([H])N([H])C(=O)C([H])([H])OC([H])([H])C([H])([H])C([H])([H])C([H])([H])N([H])C(=O)N3C([H])([H])C([H])([H])C([H])([H])C([H])(n4nc(-c5c([H])c([H])c(Oc6c([H])c([H])c(F)c([H])c6F)c([H])c5[H])c(C(=O)N([H])[H])c4N([H])[H])C3([H])[H])c([H])c([H])c2C1([H])[H]

>  <smiles>  (34) 
[H]c1c([H])c([H])c2c(c1[H])C([H])([H])C([H])([H])C([H])([H])C2([H])N([H])C(=O)C1([H])N(C(=O)C([H])(N([H])C(=O)C([H])(N([H])C([H])([H])[H])C([H])([H])[H])C(C([H])([H])[H])(C([H])([H])[H])C([H])([H])[H])C([H])([H])c2c([H])c(OC([H])([H])C([H])([H])N([H])C([H])([H])C([H])([H])[N+]([H])([H])C([H])([H])C([H])([H])N([H])C(=O)C([H])([H])N([H])C(=O)C([H])([H])N([H])C(=O)C([H])([H])[N+]([H])([H])C([H])([H])C([H])([H])C([H])([H])N([H])C(=O)C([H])([H])OC([H])([H])C([H])([H])C([H])([H])C([H])([H])N([H])C(=O)N3C([H])([H])C([H])([H])C([H])([H])C([H])(n4nc(-c5c([H])c([H])c(Oc6c([H])c([H])c(F)c([H])c6F)c([H])c5[H])c(C(=O)N([H])[H])c4N([H])[H])C3([H])[H])c([H])c([H])c2C1([H])[H]

$$$$
37:0:0
     RDKit          3D

101108  0  0  1  0  0  0  0  0999 V2000
  -23.0870  -19.1550   23.9360 C   0  0  0  0  0  0  0  0  0  0  0  0
  -22.7580  -20.4500   23.8630 N   0  0  0  0  0  0  0  0  0  0  0  0
  -23.5890  -18.6370   24.9370 O   0  0  0  0  0  0  0  0  0  0  0  0
  -22.3350  -20.7590   22.9990 H   0  0  0  0  0  0  0  0  0  0  0  0
  -22.7970  -18.3160   22.6850 C   0  0  0  0  0  2  0  0  0  0  0  0
  -25.0070  -17.3640   22.0310 C   0  0  0  0  0  0  0  0  0  0  0  0
  -23.7490  -17.2260   22.4690 N   0  0  0  0  0  0  0  0  0  0  0  0
  -25.5390  -18.4630   21.8550 O   0  0  0  0  0  0  0  0  0  0  0  0
  -23.3970  -16.2890   22.6080 H   0  0  0  0  0  0  0  0  0  0  0  0
  -25.7790  -16.0680   21.7420 C   0  0  0  0  0  2  0  0  0  0  0  0
  -27.7930  -16.5290   20.3380 C   0  0  0  0  0  0  0  0  0  0  0  0
  -27.2160  -16.2570   21.5140 N   0  0  0  0  0  0  0  0  0  0  0  0
  -27.1510  -16.7630   19.3120 O   0  0  0  0  0  0  0  0  0  0  0  0
  -27.8220  -16.0970   22.3070 H   0  0  0  0  0  0  0  0  0  0  0  0
  -29.3220  -16.4600   20.2860 C   0  0  0  0  0  2  0  0  0  0  0  0
  -30.5060  -14.7750   18.8210 C   0  0  0  0  0  0  0  0  0  0  0  0
  -30.6590  -12.3120   18.8290 C   0  0  0  0  0  2  0  0  0  0  0  0
  -29.7300  -11.7080   17.7550 C   0  0  0  0  0  2  0  0  0  0  0  0
  -28.2960  -11.5220   18.2930 C   0  0  0  0  0  2  0  0  0  0  0  0
  -27.7630  -12.7870   19.0180 C   0  0  0  0  0  3  0  0  0  0  0  0
  -28.8170  -13.2810   20.0300 C   0  0  0  0  0  2  0  0  0  0  0  0
  -30.0620  -13.5750   19.3000 N   0  0  0  0  0  0  0  0  0  0  0  0
  -31.4760  -14.8690   18.0650 O   0  0  0  0  0  0  0  0  0  0  0  0
  -29.7750  -15.8770   19.0230 N   0  0  0  0  0  0  0  0  0  0  0  0
  -29.9610  -16.5880   18.3310 H   0  0  0  0  0  0  0  0  0  0  0  0
  -25.4530  -13.4140   19.9810 C   0  0  0  0  0  0  0  0  0  0  0  0
  -24.4330  -12.6530   20.4830 C   0  0  0  0  0  0  0  0  0  0  0  0
  -24.8900  -11.3000   20.4290 C   0  0  0  0  0  0  0  0  0  0  0  0
  -26.4720  -12.5300   19.6590 N   0  0  0  0  0  0  0  0  0  0  0  0
  -26.1360  -11.2530   19.9790 N   0  0  0  0  0  0  0  0  0  0  0  0
  -24.1940  -10.0440   20.7330 C   0  0  0  0  0  0  0  0  0  0  0  0
  -24.6080   -9.2080   21.7930 C   0  0  0  0  0  3  0  0  0  0  0  0
  -23.9100   -8.0150   22.0810 C   0  0  0  0  0  3  0  0  0  0  0  0
  -22.7830   -7.6510   21.3060 C   0  0  0  0  0  0  0  0  0  0  0  0
  -22.3880   -8.4750   20.2380 C   0  0  0  0  0  3  0  0  0  0  0  0
  -23.0890   -9.6580   19.9500 C   0  0  0  0  0  3  0  0  0  0  0  0
  -22.0610   -6.4970   21.4910 O   0  0  0  0  0  0  0  0  0  0  0  0
  -21.8930   -5.9480   22.7360 C   0  0  0  0  0  0  0  0  0  0  0  0
  -21.1790   -6.6170   23.7530 C   0  0  0  0  0  3  0  0  0  0  0  0
  -20.9660   -5.9840   24.9950 C   0  0  0  0  0  3  0  0  0  0  0  0
  -21.4580   -4.6850   25.2190 C   0  0  0  0  0  0  0  0  0  0  0  0
  -22.1680   -4.0170   24.2050 C   0  0  0  0  0  3  0  0  0  0  0  0
  -22.3810   -4.6450   22.9660 C   0  0  0  0  0  0  0  0  0  0  0  0
  -23.0450   -3.9900   21.9850 F   0  0  0  0  0  0  0  0  0  0  0  0
  -21.2510   -4.0750   26.4090 F   0  0  0  0  0  0  0  0  0  0  0  0
  -23.0810  -13.1410   20.9190 C   0  0  0  0  0  0  0  0  0  0  0  0
  -22.4580  -12.4440   21.8610 N   0  0  0  0  0  0  0  0  0  0  0  0
  -22.5960  -14.1770   20.4650 O   0  0  0  0  0  0  0  0  0  0  0  0
  -22.8700  -11.6090   22.2500 H   0  0  0  0  0  0  0  0  0  0  0  0
  -21.5600  -12.7510   22.2030 H   0  0  0  0  0  0  0  0  0  0  0  0
  -25.5920  -14.7810   19.7710 N   0  0  0  0  0  0  0  0  0  0  0  0
  -24.8630  -15.3920   20.1160 H   0  0  0  0  0  0  0  0  0  0  0  0
  -26.5220  -15.1800   19.9200 H   0  0  0  0  0  0  0  0  0  0  0  0
  -23.0070  -21.4750   24.8720 C   0  0  0  0  0  2  0  0  0  0  0  0
  -23.9390  -22.5760   24.3310 C   0  0  0  0  0  2  0  0  0  0  0  0
  -23.5320  -23.1450   22.9550 C   0  0  0  0  0  2  0  0  0  0  0  0
  -24.7460  -23.6010   22.1250 C   0  0  0  0  0  2  0  0  0  0  0  0
  -24.3860  -23.9620   20.6720 C   0  0  0  0  0  2  0  0  0  0  0  0
  -25.6110  -23.9980   19.7400 C   0  0  0  0  0  2  0  0  0  0  0  0
  -25.4680  -24.9270   18.5150 C   0  0  0  0  0  2  0  0  0  0  0  0
  -26.0090  -26.2270   18.7710 O   0  0  0  0  0  0  0  0  0  0  0  0
  -25.6790  -29.9920   24.7850 C   0  0  0  0  0  0  0  0  0  0  0  0
  -25.2950  -27.1620   19.4920 C   0  0  0  0  0  0  0  0  0  0  0  0
  -23.6930  -30.1530   23.3170 C   0  0  0  0  0  3  0  0  0  0  0  0
  -23.9600  -29.1600   20.9850 C   0  0  0  0  0  0  0  0  0  0  0  0
  -26.0030  -29.6580   22.3400 C   0  0  0  0  0  2  0  0  0  0  0  0
  -25.3060  -28.8760   21.2450 C   0  0  0  0  0  0  0  0  0  0  0  0
  -25.9760  -27.8850   20.4960 C   0  0  0  0  0  3  0  0  0  0  0  0
  -23.9330  -27.4570   19.2470 C   0  0  0  0  0  3  0  0  0  0  0  0
  -23.2670  -28.4480   19.9910 C   0  0  0  0  0  3  0  0  0  0  0  0
  -23.3200  -30.2490   21.8140 C   0  0  0  0  0  2  0  0  0  0  0  0
  -25.1570  -29.9120   23.5290 N   0  0  0  0  0  0  0  0  0  0  0  0
  -24.9710  -30.3030   25.7540 O   0  0  0  0  0  0  0  0  0  0  0  0
  -22.7960  -29.0830   23.9800 C   0  0  0  0  0  0  0  0  0  0  0  0
  -21.4870  -29.1330   23.6830 N   0  0  0  0  0  0  0  0  0  0  0  0
  -23.2810  -28.2200   24.7170 O   0  0  0  0  0  0  0  0  0  0  0  0
  -21.1690  -29.8820   23.0830 H   0  0  0  0  0  0  0  0  0  0  0  0
  -18.1590  -27.8920   23.0280 C   0  0  0  0  0  0  0  0  0  0  0  0
  -20.4610  -28.2060   24.1570 C   0  0  0  0  0  3  0  0  0  0  0  0
  -20.7660  -26.7590   23.7050 C   0  0  0  0  0  2  0  0  0  0  0  0
  -20.0840  -26.3830   22.3850 C   0  0  0  0  0  2  0  0  0  0  0  0
  -18.5650  -26.5230   22.5070 C   0  0  0  0  0  2  0  0  0  0  0  0
  -19.0540  -28.6880   23.7890 C   0  0  0  0  0  0  0  0  0  0  0  0
  -18.6380  -29.9660   24.2190 C   0  0  0  0  0  3  0  0  0  0  0  0
  -17.3560  -30.4510   23.9010 C   0  0  0  0  0  3  0  0  0  0  0  0
  -16.4680  -29.6530   23.1600 C   0  0  0  0  0  3  0  0  0  0  0  0
  -16.8680  -28.3750   22.7300 C   0  0  0  0  0  3  0  0  0  0  0  0
  -27.1920  -29.7210   25.0630 C   0  0  0  0  0  3  0  0  0  0  0  0
  -27.6810  -30.7990   25.9320 N   0  0  0  0  0  0  0  0  0  0  0  0
  -28.3770  -31.8610   25.5070 C   0  0  0  0  0  0  0  0  0  0  0  0
  -28.7420  -31.9980   24.3360 O   0  0  0  0  0  0  0  0  0  0  0  0
  -27.3700  -30.7790   26.8920 H   0  0  0  0  0  0  0  0  0  0  0  0
  -27.7740  -34.1430   26.3790 C   0  0  0  0  0  1  0  0  0  0  0  0
  -28.7230  -32.9440   26.5470 C   0  0  0  0  0  3  0  0  0  0  0  0
  -31.0920  -32.3960   26.8900 C   0  0  0  0  0  1  0  0  0  0  0  0
  -30.1260  -33.4070   26.4700 N   0  0  0  0  0  0  0  0  0  0  0  0
  -30.2640  -34.2360   27.0410 H   0  0  0  0  0  0  0  0  0  0  0  0
  -27.4600  -28.3120   25.7190 C   0  0  1  0  0  0  0  0  0  0  0  0
  -26.6140  -28.0440   26.9850 C   0  0  0  0  0  1  0  0  0  0  0  0
  -27.1780  -27.1740   24.7090 C   0  0  0  0  0  1  0  0  0  0  0  0
  -28.9510  -28.1950   26.1170 C   0  0  0  0  0  1  0  0  0  0  0  0
  1  3  2  0
  2  1  1  0
  2 54  1  0
  4  2  1  0
  5  1  1  0
  6  7  1  0
  7  9  1  0
  7  5  1  0
  8  6  2  0
 10  6  1  0
 11 12  1  0
 12 10  1  0
 12 14  1  0
 13 11  2  0
 15 11  1  0
 16 24  1  0
 16 22  1  0
 17 22  1  0
 18 19  1  0
 18 17  1  0
 20 19  1  0
 20 29  1  0
 20 21  1  0
 22 21  1  0
 23 16  2  0
 24 15  1  0
 25 24  1  0
 26 27  2  0
 27 46  1  0
 28 27  1  0
 28 31  1  0
 29 30  1  0
 29 26  1  0
 30 28  2  0
 31 32  1  0
 32 33  2  0
 34 37  1  0
 34 33  1  0
 35 34  2  0
 36 35  1  0
 36 31  2  0
 37 38  1  0
 38 43  2  0
 38 39  1  0
 39 40  2  0
 40 41  1  0
 41 45  1  0
 42 41  2  0
 43 42  1  0
 44 43  1  0
 46 47  1  0
 47 50  1  0
 47 49  1  0
 48 46  2  0
 51 53  1  0
 51 26  1  0
 51 52  1  0
 55 54  1  0
 56 55  1  0
 57 56  1  0
 58 57  1  0
 59 58  1  0
 60 61  1  0
 60 59  1  0
 61 63  1  0
 62 73  2  0
 63 68  1  0
 64 72  1  0
 64 74  1  0
 65 67  1  0
 65 71  1  0
 66 72  1  0
 67 66  1  0
 68 67  2  0
 69 63  2  0
 69 70  1  0
 70 65  2  0
 71 64  1  0
 72 62  1  0
 74 76  2  0
 75 74  1  0
 77 75  1  0
 78 83  1  0
 79 75  1  0
 80 79  1  0
 81 82  1  0
 81 80  1  0
 82 78  1  0
 83 79  1  0
 83 84  2  0
 85 84  1  0
 86 85  2  0
 87 78  2  0
 87 86  1  0
 88 62  1  0
 88 98  1  0
 88 89  1  0
 89 92  1  0
 90 89  1  0
 90 94  1  0
 91 90  2  0
 94 93  1  0
 96 94  1  0
 96 95  1  0
 96 97  1  0
 98101  1  1
 98 99  1  0
100 98  1  0
M  ISO  4  16 100  24 100  60 101  61 101
M  END
>  <TORSDO>  (35) 
F 28

>  <SCORE>  (35) 
41.217

>  <name>  (35) 
37

>  <ligand_id>  (35) 
37

>  <original_smiles>  (35) 
[H]c1c([H])c([H])c2c(c1[H])C([H])([H])C([H])([H])C([H])([H])C2([H])N([H])C(=O)C1([H])N(C(=O)C([H])(N([H])C(=O)C([H])(N([H])C([H])([H])[H])C([H])([H])[H])C(C([H])([H])[H])(C([H])([H])[H])C([H])([H])[H])C([H])([H])c2c([H])c(OC([H])([H])C([H])([H])C([H])([H])C([H])([H])C([H])([H])C([H])([H])C([H])([H])N([H])C(=O)C([H])([H])N([H])C(=O)C([H])([H])N([H])C(=O)C([H])([H])N([H])C(=O)N3C([H])([H])C([H])([H])C([H])([H])C([H])(n4nc(-c5c([H])c([H])c(Oc6c([H])c([H])c(F)c([H])c6F)c([H])c5[H])c(C(=O)N([H])[H])c4N([H])[H])C3([H])[H])c([H])c([H])c2C1([H])[H]

>  <smiles>  (35) 
[H]c1c([H])c([H])c2c(c1[H])C([H])([H])C([H])([H])C([H])([H])C2([H])N([H])C(=O)C1([H])N(C(=O)C([H])(N([H])C(=O)C([H])(N([H])C([H])([H])[H])C([H])([H])[H])C(C([H])([H])[H])(C([H])([H])[H])C([H])([H])[H])C([H])([H])c2c([H])c(OC([H])([H])C([H])([H])C([H])([H])C([H])([H])C([H])([H])C([H])([H])C([H])([H])N([H])C(=O)C([H])([H])N([H])C(=O)C([H])([H])N([H])C(=O)C([H])([H])N([H])C(=O)N3C([H])([H])C([H])([H])C([H])([H])C([H])(n4nc(-c5c([H])c([H])c(Oc6c([H])c([H])c(F)c([H])c6F)c([H])c5[H])c(C(=O)N([H])[H])c4N([H])[H])C3([H])[H])c([H])c([H])c2C1([H])[H]

$$$$
39:0:0
     RDKit          3D

106113  0  0  1  0  0  0  0  0999 V2000
  -33.4930  -22.1920   20.1300 C   0  0  0  0  0  2  0  0  0  0  0  0
  -33.8810  -21.9160   22.5830 C   0  0  0  0  0  0  0  0  0  0  0  0
  -34.0420  -21.5260   21.3120 N   0  0  0  0  0  0  0  0  0  0  0  0
  -33.1520  -22.8530   22.9130 O   0  0  0  0  0  0  0  0  0  0  0  0
  -34.5920  -20.6900   21.1600 H   0  0  0  0  0  0  0  0  0  0  0  0
  -34.6730  -21.1530   23.6480 C   0  0  0  0  0  2  0  0  0  0  0  0
  -33.5330  -18.9800   23.9360 C   0  0  0  0  0  0  0  0  0  0  0  0
  -33.8370  -20.2040   24.3770 N   0  0  0  0  0  0  0  0  0  0  0  0
  -33.9020  -18.5770   22.8290 O   0  0  0  0  0  0  0  0  0  0  0  0
  -33.4950  -20.4870   25.2850 H   0  0  0  0  0  0  0  0  0  0  0  0
  -32.7380  -18.0700   24.8850 C   0  0  0  0  0  2  0  0  0  0  0  0
  -31.7460  -16.2760   23.4810 C   0  0  0  0  0  0  0  0  0  0  0  0
  -32.6500  -16.7110   24.3610 N   0  0  0  0  0  0  0  0  0  0  0  0
  -30.7700  -16.9420   23.1280 O   0  0  0  0  0  0  0  0  0  0  0  0
  -33.4260  -16.1000   24.5740 H   0  0  0  0  0  0  0  0  0  0  0  0
  -32.0010  -14.8810   22.9210 C   0  0  0  0  0  2  0  0  0  0  0  0
  -30.8700  -14.2120   20.8080 C   0  0  0  0  0  0  0  0  0  0  0  0
  -30.4000  -12.2860   19.3520 C   0  0  0  0  0  2  0  0  0  0  0  0
  -29.4600  -12.5390   18.1690 C   0  0  0  0  0  2  0  0  0  0  0  0
  -27.9950  -12.3750   18.6050 C   0  0  0  0  0  2  0  0  0  0  0  0
  -27.6620  -13.2040   19.8710 C   0  0  0  0  0  3  0  0  0  0  0  0
  -28.7010  -12.9670   20.9870 C   0  0  0  0  0  2  0  0  0  0  0  0
  -30.0510  -13.1990   20.4440 N   0  0  0  0  0  0  0  0  0  0  0  0
  -31.7390  -14.7010   20.0780 O   0  0  0  0  0  0  0  0  0  0  0  0
  -30.8860  -14.3660   22.1330 N   0  0  0  0  0  0  0  0  0  0  0  0
  -30.1550  -13.8970   22.6460 H   0  0  0  0  0  0  0  0  0  0  0  0
  -25.2590  -13.8160   20.5660 C   0  0  0  0  0  0  0  0  0  0  0  0
  -24.1840  -13.0440   20.9160 C   0  0  0  0  0  0  0  0  0  0  0  0
  -24.6390  -11.6910   20.8720 C   0  0  0  0  0  0  0  0  0  0  0  0
  -26.3030  -12.9330   20.3350 N   0  0  0  0  0  0  0  0  0  0  0  0
  -25.9320  -11.6490   20.5740 N   0  0  0  0  0  0  0  0  0  0  0  0
  -23.9050  -10.4300   21.0410 C   0  0  0  0  0  0  0  0  0  0  0  0
  -24.3600   -9.4220   21.9190 C   0  0  0  0  0  3  0  0  0  0  0  0
  -23.6290   -8.2250   22.0750 C   0  0  0  0  0  3  0  0  0  0  0  0
  -22.4270   -8.0290   21.3540 C   0  0  0  0  0  0  0  0  0  0  0  0
  -21.9910   -9.0250   20.4640 C   0  0  0  0  0  3  0  0  0  0  0  0
  -22.7230  -10.2140   20.3050 C   0  0  0  0  0  3  0  0  0  0  0  0
  -21.6630   -6.8890   21.4240 O   0  0  0  0  0  0  0  0  0  0  0  0
  -21.6840   -6.0740   22.5270 C   0  0  0  0  0  0  0  0  0  0  0  0
  -21.4030   -6.5640   23.8210 C   0  0  0  0  0  3  0  0  0  0  0  0
  -21.3650   -5.6790   24.9160 C   0  0  0  0  0  3  0  0  0  0  0  0
  -21.6030   -4.3060   24.7230 C   0  0  0  0  0  0  0  0  0  0  0  0
  -21.8820   -3.8150   23.4350 C   0  0  0  0  0  3  0  0  0  0  0  0
  -21.9200   -4.6960   22.3410 C   0  0  0  0  0  0  0  0  0  0  0  0
  -22.1660   -4.2150   21.0990 F   0  0  0  0  0  0  0  0  0  0  0  0
  -21.5620   -3.4540   25.7740 F   0  0  0  0  0  0  0  0  0  0  0  0
  -22.7870  -13.5240   21.1850 C   0  0  0  0  0  0  0  0  0  0  0  0
  -22.0490  -12.8230   22.0390 N   0  0  0  0  0  0  0  0  0  0  0  0
  -22.3560  -14.5560   20.6710 O   0  0  0  0  0  0  0  0  0  0  0  0
  -22.4100  -11.9870   22.4760 H   0  0  0  0  0  0  0  0  0  0  0  0
  -21.1130  -13.1260   22.2620 H   0  0  0  0  0  0  0  0  0  0  0  0
  -25.4330  -15.1880   20.4070 N   0  0  0  0  0  0  0  0  0  0  0  0
  -24.6740  -15.8500   20.5210 H   0  0  0  0  0  0  0  0  0  0  0  0
  -26.2950  -15.6200   20.0990 H   0  0  0  0  0  0  0  0  0  0  0  0
  -32.2800  -21.4560   19.5330 C   0  0  0  0  0  2  0  0  0  0  0  0
  -31.1750  -21.1660   20.5610 C   0  0  0  0  0  2  0  0  0  0  0  0
  -29.8760  -20.6370   19.9270 C   0  0  0  0  0  2  0  0  0  0  0  0
  -28.8170  -20.1890   20.9570 C   0  0  0  0  0  2  0  0  0  0  0  0
  -28.4550  -21.2520   22.0120 C   0  0  0  0  0  2  0  0  0  0  0  0
  -27.9820  -22.5090   21.4020 N   0  0  0  0  0  4  0  0  0  0  0  0
  -26.9860  -22.4470   21.2550 H   0  0  0  0  0  0  0  0  0  0  0  0
  -28.4260  -22.5920   20.5030 H   0  0  0  0  0  0  0  0  0  0  0  0
  -28.2910  -23.7080   22.2140 C   0  0  0  0  0  2  0  0  0  0  0  0
  -27.7740  -25.0150   21.5930 C   0  0  0  0  0  2  0  0  0  0  0  0
  -28.4460  -25.4030   20.2560 C   0  0  0  0  0  2  0  0  0  0  0  0
  -28.4490  -26.8130   20.0700 O   0  0  0  0  0  0  0  0  0  0  0  0
  -24.6140  -31.8680   23.2110 C   0  0  0  0  0  0  0  0  0  0  0  0
  -27.2480  -27.4790   20.0840 C   0  0  0  0  0  0  0  0  0  0  0  0
  -23.4000  -30.4910   21.5520 C   0  0  0  0  0  3  0  0  0  0  0  0
  -24.8480  -28.9550   20.1260 C   0  0  0  0  0  0  0  0  0  0  0  0
  -25.9250  -30.8470   21.3600 C   0  0  0  0  0  2  0  0  0  0  0  0
  -26.0050  -29.4820   20.7120 C   0  0  0  0  0  0  0  0  0  0  0  0
  -27.2060  -28.7500   20.6880 C   0  0  0  0  0  3  0  0  0  0  0  0
  -26.0740  -26.9470   19.5050 C   0  0  0  0  0  3  0  0  0  0  0  0
  -24.8740  -27.6830   19.5230 C   0  0  0  0  0  3  0  0  0  0  0  0
  -23.6100  -29.8200   20.1680 C   0  0  0  0  0  2  0  0  0  0  0  0
  -24.6650  -31.0810   22.1010 N   0  0  0  0  0  0  0  0  0  0  0  0
  -23.5340  -32.1430   23.7520 O   0  0  0  0  0  0  0  0  0  0  0  0
  -22.7430  -29.4650   22.5020 C   0  0  0  0  0  0  0  0  0  0  0  0
  -21.4160  -29.3020   22.3760 N   0  0  0  0  0  0  0  0  0  0  0  0
  -23.4220  -28.8200   23.3030 O   0  0  0  0  0  0  0  0  0  0  0  0
  -20.9330  -29.8790   21.7040 H   0  0  0  0  0  0  0  0  0  0  0  0
  -18.0260  -28.1370   22.8490 C   0  0  0  0  0  0  0  0  0  0  0  0
  -20.5860  -28.3640   23.1330 C   0  0  0  0  0  3  0  0  0  0  0  0
  -20.6750  -26.9370   22.5440 C   0  0  0  0  0  2  0  0  0  0  0  0
  -19.5720  -26.6370   21.5230 C   0  0  0  0  0  2  0  0  0  0  0  0
  -18.1880  -26.7920   22.1630 C   0  0  0  0  0  2  0  0  0  0  0  0
  -19.1510  -28.8820   23.2890 C   0  0  0  0  0  0  0  0  0  0  0  0
  -18.9450  -30.1430   23.8900 C   0  0  0  0  0  3  0  0  0  0  0  0
  -17.6450  -30.6560   24.0580 C   0  0  0  0  0  3  0  0  0  0  0  0
  -16.5340  -29.9070   23.6350 C   0  0  0  0  0  3  0  0  0  0  0  0
  -16.7260  -28.6510   23.0340 C   0  0  0  0  0  3  0  0  0  0  0  0
  -25.9030  -32.4830   23.8410 C   0  0  0  0  0  3  0  0  0  0  0  0
  -26.4460  -31.6620   25.0760 C   0  0  1  0  0  0  0  0  0  0  0  0
  -25.3710  -31.3630   26.1500 C   0  0  0  0  0  1  0  0  0  0  0  0
  -27.0320  -30.3100   24.6080 C   0  0  0  0  0  1  0  0  0  0  0  0
  -27.6100  -32.4300   25.7500 C   0  0  0  0  0  1  0  0  0  0  0  0
  -25.5890  -33.8630   24.2350 N   0  0  0  0  0  0  0  0  0  0  0  0
  -25.9030  -34.9470   23.5140 C   0  0  0  0  0  0  0  0  0  0  0  0
  -26.5600  -34.8900   22.4700 O   0  0  0  0  0  0  0  0  0  0  0  0
  -25.0050  -33.9810   25.0500 H   0  0  0  0  0  0  0  0  0  0  0  0
  -24.1480  -36.7330   23.2630 C   0  0  0  0  0  1  0  0  0  0  0  0
  -25.4100  -36.3130   24.0340 C   0  0  0  0  0  3  0  0  0  0  0  0
  -27.5560  -37.1790   24.8440 C   0  0  0  0  0  1  0  0  0  0  0  0
  -26.4280  -37.3800   23.9410 N   0  0  0  0  0  0  0  0  0  0  0  0
  -26.0190  -38.2880   24.1490 H   0  0  0  0  0  0  0  0  0  0  0  0
  1  3  1  0
  2  4  2  0
  2  6  1  0
  3  2  1  0
  5  3  1  0
  6  8  1  0
  7  8  1  0
  7 11  1  0
  8 10  1  0
  9  7  2  0
 12 13  1  0
 13 15  1  0
 13 11  1  0
 14 12  2  0
 16 12  1  0
 17 25  1  0
 18 23  1  0
 19 20  1  0
 19 18  1  0
 21 20  1  0
 21 30  1  0
 21 22  1  0
 23 17  1  0
 23 22  1  0
 24 17  2  0
 25 26  1  0
 25 16  1  0
 27 28  2  0
 28 47  1  0
 29 28  1  0
 29 32  1  0
 30 27  1  0
 30 31  1  0
 31 29  2  0
 32 33  1  0
 33 34  2  0
 35 38  1  0
 35 34  1  0
 36 35  2  0
 37 36  1  0
 37 32  2  0
 38 39  1  0
 39 40  1  0
 40 41  2  0
 42 41  1  0
 42 46  1  0
 43 42  2  0
 44 39  2  0
 44 43  1  0
 45 44  1  0
 47 48  1  0
 48 51  1  0
 48 50  1  0
 49 47  2  0
 52 53  1  0
 52 27  1  0
 54 52  1  0
 55  1  1  0
 55 56  1  0
 57 56  1  0
 57 58  1  0
 58 59  1  0
 60 59  1  0
 60 63  1  0
 61 60  1  0
 62 60  1  0
 64 63  1  0
 65 64  1  0
 66 68  1  0
 66 65  1  0
 67 78  2  0
 68 73  1  0
 69 77  1  0
 69 79  1  0
 70 76  1  0
 70 72  1  0
 71 77  1  0
 72 71  1  0
 73 72  2  0
 74 75  1  0
 74 68  2  0
 75 70  2  0
 76 69  1  0
 77 67  1  0
 79 81  2  0
 80 79  1  0
 82 80  1  0
 83 92  2  0
 83 88  1  0
 84 80  1  0
 84 88  1  0
 85 84  1  0
 86 87  1  0
 86 85  1  0
 87 83  1  0
 88 89  2  0
 89 90  1  0
 91 90  2  0
 92 91  1  0
 93 67  1  0
 93 98  1  0
 93 94  1  0
 94 97  1  1
 94 95  1  0
 96 94  1  0
 98101  1  0
 99103  1  0
 99 98  1  0
100 99  2  0
103102  1  0
105103  1  0
105106  1  0
105104  1  0
M  ISO  4  17 100  25 100  65 101  66 101
M  END
>  <TORSDO>  (36) 
F 31

>  <SCORE>  (36) 
13.735

>  <name>  (36) 
39

>  <ligand_id>  (36) 
39

>  <original_smiles>  (36) 
[H]c1c([H])c([H])c2c(c1[H])C([H])([H])C([H])([H])C([H])([H])C2([H])N([H])C(=O)C1([H])N(C(=O)C([H])(N([H])C(=O)C([H])(N([H])C([H])([H])[H])C([H])([H])[H])C(C([H])([H])[H])(C([H])([H])[H])C([H])([H])[H])C([H])([H])c2c([H])c(OC([H])([H])C([H])([H])C([H])([H])[N+]([H])([H])C([H])([H])C([H])([H])C([H])([H])C([H])([H])C([H])([H])C([H])([H])N([H])C(=O)C([H])([H])N([H])C(=O)C([H])([H])N([H])C(=O)C([H])([H])N([H])C(=O)N3C([H])([H])C([H])([H])C([H])([H])C([H])(n4nc(-c5c([H])c([H])c(Oc6c([H])c([H])c(F)c([H])c6F)c([H])c5[H])c(C(=O)N([H])[H])c4N([H])[H])C3([H])[H])c([H])c([H])c2C1([H])[H]

>  <smiles>  (36) 
[H]c1c([H])c([H])c2c(c1[H])C([H])([H])C([H])([H])C([H])([H])C2([H])N([H])C(=O)C1([H])N(C(=O)C([H])(N([H])C(=O)C([H])(N([H])C([H])([H])[H])C([H])([H])[H])C(C([H])([H])[H])(C([H])([H])[H])C([H])([H])[H])C([H])([H])c2c([H])c(OC([H])([H])C([H])([H])C([H])([H])[N+]([H])([H])C([H])([H])C([H])([H])C([H])([H])C([H])([H])C([H])([H])C([H])([H])N([H])C(=O)C([H])([H])N([H])C(=O)C([H])([H])N([H])C(=O)C([H])([H])N([H])C(=O)N3C([H])([H])C([H])([H])C([H])([H])C([H])(n4nc(-c5c([H])c([H])c(Oc6c([H])c([H])c(F)c([H])c6F)c([H])c5[H])c(C(=O)N([H])[H])c4N([H])[H])C3([H])[H])c([H])c([H])c2C1([H])[H]

$$$$
40:0:0
     RDKit          3D

 96103  0  0  1  0  0  0  0  0999 V2000
  -25.6120  -23.3300   17.8510 C   0  0  0  0  0  2  0  0  0  0  0  0
  -27.0150  -23.8640   17.4590 C   0  0  0  0  0  2  0  0  0  0  0  0
  -29.1150  -24.1150   18.8630 C   0  0  0  0  0  0  0  0  0  0  0  0
  -28.0320  -23.4590   18.4180 N   0  0  0  0  0  0  0  0  0  0  0  0
  -29.8000  -23.6050   19.7460 O   0  0  0  0  0  0  0  0  0  0  0  0
  -27.8740  -22.5550   18.8380 H   0  0  0  0  0  0  0  0  0  0  0  0
  -29.5870  -25.4340   18.2350 C   0  0  0  0  0  2  0  0  0  0  0  0
  -28.7860  -26.7020   18.6030 C   0  0  0  0  0  2  0  0  0  0  0  0
  -28.4150  -26.8610   19.9820 O   0  0  0  0  0  0  0  0  0  0  0  0
  -24.5760  -31.9450   23.2580 C   0  0  0  0  0  0  0  0  0  0  0  0
  -27.2280  -27.5400   20.1300 C   0  0  0  0  0  0  0  0  0  0  0  0
  -23.3630  -30.5410   21.6260 C   0  0  0  0  0  3  0  0  0  0  0  0
  -24.8130  -28.9990   20.2080 C   0  0  0  0  0  0  0  0  0  0  0  0
  -25.8870  -30.9110   21.4080 C   0  0  0  0  0  2  0  0  0  0  0  0
  -25.9760  -29.5360   20.7800 C   0  0  0  0  0  0  0  0  0  0  0  0
  -27.1880  -28.8090   20.7520 C   0  0  0  0  0  3  0  0  0  0  0  0
  -26.0370  -26.9890   19.6160 C   0  0  0  0  0  3  0  0  0  0  0  0
  -24.8330  -27.7120   19.6440 C   0  0  0  0  0  3  0  0  0  0  0  0
  -23.5640  -29.8490   20.2520 C   0  0  0  0  0  2  0  0  0  0  0  0
  -24.6280  -31.1490   22.1550 N   0  0  0  0  0  0  0  0  0  0  0  0
  -23.4990  -32.2130   23.8080 O   0  0  0  0  0  0  0  0  0  0  0  0
  -22.7290  -29.5170   22.5910 C   0  0  0  0  0  0  0  0  0  0  0  0
  -21.4050  -29.3220   22.4700 N   0  0  0  0  0  0  0  0  0  0  0  0
  -23.4210  -28.8950   23.4040 O   0  0  0  0  0  0  0  0  0  0  0  0
  -20.9050  -29.8800   21.7870 H   0  0  0  0  0  0  0  0  0  0  0  0
  -18.0450  -28.0930   22.9650 C   0  0  0  0  0  0  0  0  0  0  0  0
  -20.5990  -28.3740   23.2400 C   0  0  0  0  0  3  0  0  0  0  0  0
  -20.7180  -26.9440   22.6660 C   0  0  0  0  0  2  0  0  0  0  0  0
  -19.6190  -26.6060   21.6550 C   0  0  0  0  0  2  0  0  0  0  0  0
  -18.2350  -26.7420   22.2970 C   0  0  0  0  0  2  0  0  0  0  0  0
  -19.1560  -28.8680   23.3930 C   0  0  0  0  0  0  0  0  0  0  0  0
  -18.9260  -30.1310   23.9760 C   0  0  0  0  0  3  0  0  0  0  0  0
  -17.6180  -30.6220   24.1400 C   0  0  0  0  0  3  0  0  0  0  0  0
  -16.5210  -29.8460   23.7270 C   0  0  0  0  0  3  0  0  0  0  0  0
  -16.7350  -28.5820   23.1460 C   0  0  0  0  0  3  0  0  0  0  0  0
  -25.8660  -32.5820   23.8690 C   0  0  0  0  0  3  0  0  0  0  0  0
  -26.3870  -31.8220   25.1500 C   0  0  1  0  0  0  0  0  0  0  0  0
  -25.2970  -31.5930   26.2220 C   0  0  0  0  0  1  0  0  0  0  0  0
  -26.9730  -30.4430   24.7670 C   0  0  0  0  0  1  0  0  0  0  0  0
  -27.5310  -32.6280   25.8100 C   0  0  0  0  0  1  0  0  0  0  0  0
  -25.5550  -33.9830   24.1860 N   0  0  0  0  0  0  0  0  0  0  0  0
  -25.8950  -35.0290   23.4210 C   0  0  0  0  0  0  0  0  0  0  0  0
  -26.5760  -34.9180   22.3980 O   0  0  0  0  0  0  0  0  0  0  0  0
  -24.9480  -34.1420   24.9770 H   0  0  0  0  0  0  0  0  0  0  0  0
  -24.1760  -36.8250   23.0360 C   0  0  0  0  0  1  0  0  0  0  0  0
  -25.4050  -36.4200   23.8640 C   0  0  0  0  0  3  0  0  0  0  0  0
  -27.5300  -37.3040   24.7220 C   0  0  0  0  0  1  0  0  0  0  0  0
  -26.4420  -37.4700   23.7600 N   0  0  0  0  0  0  0  0  0  0  0  0
  -26.0360  -38.3920   23.8990 H   0  0  0  0  0  0  0  0  0  0  0  0
  -25.4340  -21.7970   17.7970 C   0  0  0  0  0  2  0  0  0  0  0  0
  -25.9570  -21.0580   19.0480 C   0  0  0  0  0  2  0  0  0  0  0  0
  -26.0270  -19.5210   18.8960 C   0  0  0  0  0  2  0  0  0  0  0  0
  -27.4690  -19.0010   18.9190 C   0  0  0  0  0  0  0  0  0  0  0  0
  -27.8500  -18.2410   19.9640 N   0  0  0  0  0  0  0  0  0  0  0  0
  -28.2420  -19.3260   18.0160 O   0  0  0  0  0  0  0  0  0  0  0  0
  -27.1570  -18.0470   20.6750 H   0  0  0  0  0  0  0  0  0  0  0  0
  -29.2270  -17.8200   20.2510 C   0  0  0  0  0  2  0  0  0  0  0  0
  -29.3340  -16.4060   20.8710 C   0  0  0  0  0  2  0  0  0  0  0  0
  -31.0910  -14.5770   20.3500 C   0  0  0  0  0  0  0  0  0  0  0  0
  -30.7010  -12.4010   19.3020 C   0  0  0  0  0  2  0  0  0  0  0  0
  -29.7860  -12.5670   18.0720 C   0  0  0  0  0  2  0  0  0  0  0  0
  -28.3080  -12.4500   18.4900 C   0  0  0  0  0  2  0  0  0  0  0  0
  -27.9610  -13.3550   19.7000 C   0  0  0  0  0  3  0  0  0  0  0  0
  -29.0080  -13.2150   20.8320 C   0  0  0  0  0  2  0  0  0  0  0  0
  -30.3290  -13.4590   20.2490 N   0  0  0  0  0  0  0  0  0  0  0  0
  -32.2810  -14.6070   20.0500 O   0  0  0  0  0  0  0  0  0  0  0  0
  -30.4920  -15.7660   20.2580 N   0  0  0  0  0  0  0  0  0  0  0  0
  -31.1790  -16.4440   19.9680 H   0  0  0  0  0  0  0  0  0  0  0  0
  -25.5810  -14.0290   20.4010 C   0  0  0  0  0  0  0  0  0  0  0  0
  -24.4920  -13.2800   20.7720 C   0  0  0  0  0  0  0  0  0  0  0  0
  -24.9280  -11.9220   20.7570 C   0  0  0  0  0  0  0  0  0  0  0  0
  -26.6060  -13.1200   20.1820 N   0  0  0  0  0  0  0  0  0  0  0  0
  -26.2160  -11.8520   20.4610 N   0  0  0  0  0  0  0  0  0  0  0  0
  -24.1760  -10.6750   20.9480 C   0  0  0  0  0  0  0  0  0  0  0  0
  -24.5580   -9.7260   21.9250 C   0  0  0  0  0  3  0  0  0  0  0  0
  -23.8100   -8.5430   22.1030 C   0  0  0  0  0  3  0  0  0  0  0  0
  -22.6700   -8.2980   21.3010 C   0  0  0  0  0  0  0  0  0  0  0  0
  -22.3110   -9.2320   20.3160 C   0  0  0  0  0  3  0  0  0  0  0  0
  -23.0560  -10.4070   20.1370 C   0  0  0  0  0  3  0  0  0  0  0  0
  -21.8990   -7.1620   21.3850 O   0  0  0  0  0  0  0  0  0  0  0  0
  -21.7570   -6.4750   22.5630 C   0  0  0  0  0  0  0  0  0  0  0  0
  -21.2420   -7.0870   23.7260 C   0  0  0  0  0  3  0  0  0  0  0  0
  -21.0450   -6.3250   24.8970 C   0  0  0  0  0  3  0  0  0  0  0  0
  -21.3570   -4.9510   24.9010 C   0  0  0  0  0  0  0  0  0  0  0  0
  -21.8640   -4.3390   23.7420 C   0  0  0  0  0  3  0  0  0  0  0  0
  -22.0610   -5.1000   22.5760 C   0  0  0  0  0  0  0  0  0  0  0  0
  -22.5310   -4.5000   21.4550 F   0  0  0  0  0  0  0  0  0  0  0  0
  -21.1610   -4.2180   26.0210 F   0  0  0  0  0  0  0  0  0  0  0  0
  -23.1020  -13.7870   21.0270 C   0  0  0  0  0  0  0  0  0  0  0  0
  -22.3560  -13.1150   21.8960 N   0  0  0  0  0  0  0  0  0  0  0  0
  -22.6860  -14.8100   20.4880 O   0  0  0  0  0  0  0  0  0  0  0  0
  -22.7030  -12.2850   22.3530 H   0  0  0  0  0  0  0  0  0  0  0  0
  -21.4220  -13.4350   22.1070 H   0  0  0  0  0  0  0  0  0  0  0  0
  -25.7690  -15.3950   20.2020 N   0  0  0  0  0  0  0  0  0  0  0  0
  -25.0060  -16.0600   20.2870 H   0  0  0  0  0  0  0  0  0  0  0  0
  -26.6130  -15.8060   19.8270 H   0  0  0  0  0  0  0  0  0  0  0  0
  2  1  1  0
  2  4  1  0
  3  5  2  0
  4  6  1  0
  4  3  1  0
  7  8  1  0
  7  3  1  0
  8  9  1  0
  9 11  1  0
 10 21  2  0
 11 16  1  0
 12 20  1  0
 12 22  1  0
 13 19  1  0
 13 15  1  0
 14 20  1  0
 15 14  1  0
 16 15  2  0
 17 18  1  0
 17 11  2  0
 18 13  2  0
 19 12  1  0
 20 10  1  0
 22 24  2  0
 23 22  1  0
 25 23  1  0
 26 35  2  0
 26 31  1  0
 27 23  1  0
 27 31  1  0
 28 27  1  0
 29 30  1  0
 29 28  1  0
 30 26  1  0
 31 32  2  0
 32 33  1  0
 34 33  2  0
 35 34  1  0
 36 10  1  0
 36 41  1  0
 36 37  1  0
 37 40  1  1
 37 38  1  0
 39 37  1  0
 41 44  1  0
 42 46  1  0
 42 41  1  0
 43 42  2  0
 46 45  1  0
 48 46  1  0
 48 49  1  0
 48 47  1  0
 50  1  1  0
 50 51  1  0
 52 53  1  0
 52 51  1  0
 53 54  1  0
 54 57  1  0
 54 56  1  0
 55 53  2  0
 57 58  1  0
 60 65  1  0
 61 62  1  0
 61 60  1  0
 63 62  1  0
 63 72  1  0
 63 64  1  0
 65 59  1  0
 65 64  1  0
 66 59  2  0
 67 59  1  0
 67 58  1  0
 68 67  1  0
 69 70  2  0
 70 89  1  0
 71 70  1  0
 71 74  1  0
 72 69  1  0
 72 73  1  0
 73 71  2  0
 74 75  1  0
 75 76  2  0
 77 80  1  0
 77 76  1  0
 78 77  2  0
 79 78  1  0
 79 74  2  0
 80 81  1  0
 81 86  2  0
 81 82  1  0
 82 83  2  0
 83 84  1  0
 84 88  1  0
 85 84  2  0
 86 85  1  0
 87 86  1  0
 89 90  1  0
 90 93  1  0
 90 92  1  0
 91 89  2  0
 94 95  1  0
 94 69  1  0
 96 94  1  0
M  ISO  4   8 101   9 101  59 100  67 100
M  END
>  <TORSDO>  (37) 
F 26

>  <SCORE>  (37) 
-11.256

>  <name>  (37) 
40

>  <ligand_id>  (37) 
40

>  <original_smiles>  (37) 
[H]c1c([H])c([H])c2c(c1[H])C([H])([H])C([H])([H])C([H])([H])C2([H])N([H])C(=O)C1([H])N(C(=O)C([H])(N([H])C(=O)C([H])(N([H])C([H])([H])[H])C([H])([H])[H])C(C([H])([H])[H])(C([H])([H])[H])C([H])([H])[H])C([H])([H])c2c([H])c(OC([H])([H])C([H])([H])C(=O)N([H])C([H])([H])C([H])([H])C([H])([H])C([H])([H])C([H])([H])C(=O)N([H])C([H])([H])C([H])([H])N([H])C(=O)N3C([H])([H])C([H])([H])C([H])([H])C([H])(n4nc(-c5c([H])c([H])c(Oc6c([H])c([H])c(F)c([H])c6F)c([H])c5[H])c(C(=O)N([H])[H])c4N([H])[H])C3([H])[H])c([H])c([H])c2C1([H])[H]

>  <smiles>  (37) 
[H]c1c([H])c([H])c2c(c1[H])C([H])([H])C([H])([H])C([H])([H])C2([H])N([H])C(=O)C1([H])N(C(=O)C([H])(N([H])C(=O)C([H])(N([H])C([H])([H])[H])C([H])([H])[H])C(C([H])([H])[H])(C([H])([H])[H])C([H])([H])[H])C([H])([H])c2c([H])c(OC([H])([H])C([H])([H])C(=O)N([H])C([H])([H])C([H])([H])C([H])([H])C([H])([H])C([H])([H])C(=O)N([H])C([H])([H])C([H])([H])N([H])C(=O)N3C([H])([H])C([H])([H])C([H])([H])C([H])(n4nc(-c5c([H])c([H])c(Oc6c([H])c([H])c(F)c([H])c6F)c([H])c5[H])c(C(=O)N([H])[H])c4N([H])[H])C3([H])[H])c([H])c([H])c2C1([H])[H]

$$$$
41:0:0
     RDKit          3D

107114  0  0  1  0  0  0  0  0999 V2000
  -25.9990  -15.9990   23.1680 C   0  0  0  0  0  2  0  0  0  0  0  0
  -25.8100  -17.1210   20.9420 C   0  0  0  0  0  0  0  0  0  0  0  0
  -26.3190  -16.1830   21.7560 N   0  0  0  0  0  0  0  0  0  0  0  0
  -24.9540  -17.9240   21.3150 O   0  0  0  0  0  0  0  0  0  0  0  0
  -26.9750  -15.5260   21.3460 H   0  0  0  0  0  0  0  0  0  0  0  0
  -26.3470  -17.1990   19.5010 C   0  0  0  0  0  2  0  0  0  0  0  0
  -28.6350  -16.2880   19.1680 C   0  0  0  0  0  0  0  0  0  0  0  0
  -27.3050  -16.1470   19.1640 N   0  0  0  0  0  0  0  0  0  0  0  0
  -29.1820  -17.3660   19.4000 O   0  0  0  0  0  0  0  0  0  0  0  0
  -26.9210  -15.2390   18.9410 H   0  0  0  0  0  0  0  0  0  0  0  0
  -29.4770  -15.0380   18.8980 C   0  0  0  0  0  2  0  0  0  0  0  0
  -31.3840  -14.7340   20.4770 C   0  0  0  0  0  0  0  0  0  0  0  0
  -30.1010  -14.5610   20.1330 N   0  0  0  0  0  0  0  0  0  0  0  0
  -32.1870  -15.3230   19.7520 O   0  0  0  0  0  0  0  0  0  0  0  0
  -29.4820  -14.1520   20.8170 H   0  0  0  0  0  0  0  0  0  0  0  0
  -31.8640  -14.1640   21.8210 C   0  0  0  0  0  2  0  0  0  0  0  0
  -31.8170  -11.6680   21.9590 C   0  0  0  0  0  0  0  0  0  0  0  0
  -31.3020   -9.2690   21.6810 C   0  0  0  0  0  2  0  0  0  0  0  0
  -30.7030   -9.0220   20.2810 C   0  0  0  0  0  2  0  0  0  0  0  0
  -29.1830   -9.2810   20.2690 C   0  0  0  0  0  2  0  0  0  0  0  0
  -28.8020  -10.6280   20.9360 C   0  0  0  0  0  3  0  0  0  0  0  0
  -29.4940  -10.7700   22.3060 C   0  0  0  0  0  2  0  0  0  0  0  0
  -30.9490  -10.6330   22.0960 N   0  0  0  0  0  0  0  0  0  0  0  0
  -33.0010  -11.5270   21.6370 O   0  0  0  0  0  0  0  0  0  0  0  0
  -31.2590  -12.8730   22.1490 N   0  0  0  0  0  0  0  0  0  0  0  0
  -30.3030  -12.8780   22.4670 H   0  0  0  0  0  0  0  0  0  0  0  0
  -26.5780  -11.9210   20.8660 C   0  0  0  0  0  0  0  0  0  0  0  0
  -25.2800  -11.5170   21.0300 C   0  0  0  0  0  0  0  0  0  0  0  0
  -25.3370  -10.1140   21.2950 C   0  0  0  0  0  0  0  0  0  0  0  0
  -27.3540  -10.7880   21.0450 N   0  0  0  0  0  0  0  0  0  0  0  0
  -26.5990   -9.7050   21.3530 N   0  0  0  0  0  0  0  0  0  0  0  0
  -24.2660   -9.1220   21.4410 C   0  0  0  0  0  0  0  0  0  0  0  0
  -24.1590   -8.3200   22.5990 C   0  0  0  0  0  3  0  0  0  0  0  0
  -23.1060   -7.3900   22.7300 C   0  0  0  0  0  3  0  0  0  0  0  0
  -22.1510   -7.2510   21.6960 C   0  0  0  0  0  0  0  0  0  0  0  0
  -22.2770   -8.0330   20.5350 C   0  0  0  0  0  3  0  0  0  0  0  0
  -23.3230   -8.9590   20.4050 C   0  0  0  0  0  3  0  0  0  0  0  0
  -21.1140   -6.3490   21.7200 O   0  0  0  0  0  0  0  0  0  0  0  0
  -20.4920   -5.9990   22.8900 C   0  0  0  0  0  0  0  0  0  0  0  0
  -19.8500   -6.9560   23.7060 C   0  0  0  0  0  3  0  0  0  0  0  0
  -19.1650   -6.5450   24.8670 C   0  0  0  0  0  3  0  0  0  0  0  0
  -19.1120   -5.1800   25.2050 C   0  0  0  0  0  0  0  0  0  0  0  0
  -19.7470   -4.2250   24.3910 C   0  0  0  0  0  3  0  0  0  0  0  0
  -20.4350   -4.6350   23.2350 C   0  0  0  0  0  0  0  0  0  0  0  0
  -21.0260   -3.7100   22.4410 F   0  0  0  0  0  0  0  0  0  0  0  0
  -18.4490   -4.7810   26.3150 F   0  0  0  0  0  0  0  0  0  0  0  0
  -24.0490  -12.3570   20.8410 C   0  0  0  0  0  0  0  0  0  0  0  0
  -22.9860  -12.0690   21.5820 N   0  0  0  0  0  0  0  0  0  0  0  0
  -24.0450  -13.3090   20.0580 O   0  0  0  0  0  0  0  0  0  0  0  0
  -22.9970  -11.2990   22.2380 H   0  0  0  0  0  0  0  0  0  0  0  0
  -22.1470  -12.6220   21.4940 H   0  0  0  0  0  0  0  0  0  0  0  0
  -27.1620  -13.1430   20.5410 N   0  0  0  0  0  0  0  0  0  0  0  0
  -26.4830  -13.7530   20.1040 H   0  0  0  0  0  0  0  0  0  0  0  0
  -27.9860  -13.0250   19.9680 H   0  0  0  0  0  0  0  0  0  0  0  0
  -26.2210  -17.2830   23.9960 C   0  0  0  0  0  2  0  0  0  0  0  0
  -27.6710  -17.4980   24.4640 C   0  0  0  0  0  2  0  0  0  0  0  0
  -27.7670  -18.5620   25.5730 C   0  0  0  0  0  2  0  0  0  0  0  0
  -29.2060  -18.8290   26.0510 C   0  0  0  0  0  2  0  0  0  0  0  0
  -30.0400  -19.7330   25.1210 C   0  0  0  0  0  2  0  0  0  0  0  0
  -29.4990  -21.1060   25.0470 N   0  0  0  0  0  4  0  0  0  0  0  0
  -29.7670  -21.5910   25.8900 H   0  0  0  0  0  0  0  0  0  0  0  0
  -28.4920  -21.0600   25.0220 H   0  0  0  0  0  0  0  0  0  0  0  0
  -29.9550  -21.8870   23.8770 C   0  0  0  0  0  2  0  0  0  0  0  0
  -29.5320  -23.3630   23.9890 C   0  0  0  0  0  2  0  0  0  0  0  0
  -29.6260  -24.1400   22.6640 C   0  0  0  0  0  2  0  0  0  0  0  0
  -29.4010  -25.6450   22.8680 C   0  0  0  0  0  2  0  0  0  0  0  0
  -29.3610  -26.2940   21.6020 O   0  0  0  0  0  0  0  0  0  0  0  0
  -24.8790  -31.4670   23.5260 C   0  0  0  0  0  0  0  0  0  0  0  0
  -28.1830  -26.9510   21.3670 C   0  0  0  0  0  0  0  0  0  0  0  0
  -24.0180  -29.8490   21.8640 C   0  0  0  0  0  3  0  0  0  0  0  0
  -25.7480  -28.2680   20.8600 C   0  0  0  0  0  0  0  0  0  0  0  0
  -26.5180  -30.3400   22.0340 C   0  0  0  0  0  2  0  0  0  0  0  0
  -26.7660  -28.9250   21.5630 C   0  0  0  0  0  0  0  0  0  0  0  0
  -27.9870  -28.2700   21.8240 C   0  0  0  0  0  3  0  0  0  0  0  0
  -27.1590  -26.2960   20.6570 C   0  0  0  0  0  3  0  0  0  0  0  0
  -25.9360  -26.9480   20.4070 C   0  0  0  0  0  3  0  0  0  0  0  0
  -24.4780  -29.0510   20.6150 C   0  0  0  0  0  2  0  0  0  0  0  0
  -25.1450  -30.5720   22.5340 N   0  0  0  0  0  0  0  0  0  0  0  0
  -23.7140  -31.7250   23.8570 O   0  0  0  0  0  0  0  0  0  0  0  0
  -23.2620  -28.8860   22.8090 C   0  0  0  0  0  0  0  0  0  0  0  0
  -21.9700  -28.6630   22.5210 N   0  0  0  0  0  0  0  0  0  0  0  0
  -23.8390  -28.3420   23.7530 O   0  0  0  0  0  0  0  0  0  0  0  0
  -21.5700  -29.1500   21.7330 H   0  0  0  0  0  0  0  0  0  0  0  0
  -18.5570  -27.4960   22.7120 C   0  0  0  0  0  0  0  0  0  0  0  0
  -21.0710  -27.7670   23.2470 C   0  0  0  0  0  3  0  0  0  0  0  0
  -21.2280  -26.3080   22.7620 C   0  0  0  0  0  2  0  0  0  0  0  0
  -20.2410  -25.9320   21.6520 C   0  0  0  0  0  2  0  0  0  0  0  0
  -18.7980  -26.1110   22.1340 C   0  0  0  0  0  2  0  0  0  0  0  0
  -19.6270  -28.2790   23.2220 C   0  0  0  0  0  0  0  0  0  0  0  0
  -19.3550  -29.5710   23.7190 C   0  0  0  0  0  3  0  0  0  0  0  0
  -18.0450  -30.0830   23.7130 C   0  0  0  0  0  3  0  0  0  0  0  0
  -16.9870  -29.2980   23.2250 C   0  0  0  0  0  3  0  0  0  0  0  0
  -17.2420  -28.0070   22.7300 C   0  0  0  0  0  3  0  0  0  0  0  0
  -26.0210  -32.2240   24.2750 C   0  0  0  0  0  3  0  0  0  0  0  0
  -26.2740  -31.6790   25.7340 C   0  0  1  0  0  0  0  0  0  0  0  0
  -24.9940  -31.6050   26.5990 C   0  0  0  0  0  1  0  0  0  0  0  0
  -26.8980  -30.2640   25.6900 C   0  0  0  0  0  1  0  0  0  0  0  0
  -27.2920  -32.5880   26.4640 C   0  0  0  0  0  1  0  0  0  0  0  0
  -25.6610  -33.6470   24.3050 N   0  0  0  0  0  0  0  0  0  0  0  0
  -26.1640  -34.5740   23.4800 C   0  0  0  0  0  0  0  0  0  0  0  0
  -27.0460  -34.3270   22.6510 O   0  0  0  0  0  0  0  0  0  0  0  0
  -24.9070  -33.9090   24.9210 H   0  0  0  0  0  0  0  0  0  0  0  0
  -24.5930  -36.2480   22.4560 C   0  0  0  0  0  1  0  0  0  0  0  0
  -25.6000  -36.0030   23.5910 C   0  0  0  0  0  3  0  0  0  0  0  0
  -27.4870  -37.0550   24.7590 C   0  0  0  0  0  1  0  0  0  0  0  0
  -26.6430  -37.0510   23.5670 N   0  0  0  0  0  0  0  0  0  0  0  0
  -26.2260  -37.9730   23.4700 H   0  0  0  0  0  0  0  0  0  0  0  0
  1 55  1  0
  2  4  2  0
  2  3  1  0
  3  1  1  0
  5  3  1  0
  6  2  1  0
  7  9  2  0
  8  7  1  0
  8  6  1  0
 10  8  1  0
 11  7  1  0
 11 13  1  0
 12 16  1  0
 13 12  1  0
 13 15  1  0
 14 12  2  0
 16 25  1  0
 17 23  1  0
 17 25  1  0
 18 23  1  0
 19 18  1  0
 20 19  1  0
 21 20  1  0
 21 30  1  0
 21 22  1  0
 23 22  1  0
 24 17  2  0
 25 26  1  0
 27 28  2  0
 27 30  1  0
 28 29  1  0
 29 31  2  0
 29 32  1  0
 30 31  1  0
 32 33  1  0
 33 34  2  0
 35 38  1  0
 35 34  1  0
 36 35  2  0
 37 36  1  0
 37 32  2  0
 38 39  1  0
 39 44  2  0
 39 40  1  0
 40 41  2  0
 41 42  1  0
 42 46  1  0
 43 42  2  0
 44 43  1  0
 45 44  1  0
 47 28  1  0
 47 48  1  0
 48 50  1  0
 49 47  2  0
 51 48  1  0
 52 27  1  0
 53 52  1  0
 54 52  1  0
 55 56  1  0
 56 57  1  0
 57 58  1  0
 59 58  1  0
 60 59  1  0
 60 61  1  0
 62 60  1  0
 63 64  1  0
 63 60  1  0
 65 66  1  0
 65 64  1  0
 67 66  1  0
 68 79  2  0
 69 67  1  0
 69 74  1  0
 70 78  1  0
 70 80  1  0
 71 73  1  0
 72 78  1  0
 73 74  2  0
 73 72  1  0
 75 69  2  0
 76 75  1  0
 76 71  2  0
 77 71  1  0
 77 70  1  0
 78 68  1  0
 80 82  2  0
 81 80  1  0
 83 81  1  0
 84 93  2  0
 84 89  1  0
 85 81  1  0
 86 85  1  0
 87 88  1  0
 87 86  1  0
 88 84  1  0
 89 85  1  0
 89 90  2  0
 91 90  1  0
 92 91  2  0
 93 92  1  0
 94 68  1  0
 94 99  1  0
 94 95  1  0
 95 98  1  1
 95 96  1  0
 97 95  1  0
 99102  1  0
100104  1  0
100 99  1  0
101100  2  0
104103  1  0
106104  1  0
106105  1  0
107106  1  0
M  ISO  4  17 100  25 100  66 101  67 101
M  END
>  <TORSDO>  (38) 
F 32

>  <SCORE>  (38) 
22.946

>  <name>  (38) 
41

>  <ligand_id>  (38) 
41

>  <original_smiles>  (38) 
[H]c1c([H])c([H])c2c(c1[H])C([H])([H])C([H])([H])C([H])([H])C2([H])N([H])C(=O)C1([H])N(C(=O)C([H])(N([H])C(=O)C([H])(N([H])C([H])([H])[H])C([H])([H])[H])C(C([H])([H])[H])(C([H])([H])[H])C([H])([H])[H])C([H])([H])c2c([H])c(OC([H])([H])C([H])([H])C([H])([H])C([H])([H])[N+]([H])([H])C([H])([H])C([H])([H])C([H])([H])C([H])([H])C([H])([H])C([H])([H])N([H])C(=O)C([H])([H])N([H])C(=O)C([H])([H])N([H])C(=O)C([H])([H])N([H])C(=O)N3C([H])([H])C([H])([H])C([H])([H])C([H])(n4nc(-c5c([H])c([H])c(Oc6c([H])c([H])c(F)c([H])c6F)c([H])c5[H])c(C(=O)N([H])[H])c4N([H])[H])C3([H])[H])c([H])c([H])c2C1([H])[H]

>  <smiles>  (38) 
[H]c1c([H])c([H])c2c(c1[H])C([H])([H])C([H])([H])C([H])([H])C2([H])N([H])C(=O)C1([H])N(C(=O)C([H])(N([H])C(=O)C([H])(N([H])C([H])([H])[H])C([H])([H])[H])C(C([H])([H])[H])(C([H])([H])[H])C([H])([H])[H])C([H])([H])c2c([H])c(OC([H])([H])C([H])([H])C([H])([H])C([H])([H])[N+]([H])([H])C([H])([H])C([H])([H])C([H])([H])C([H])([H])C([H])([H])C([H])([H])N([H])C(=O)C([H])([H])N([H])C(=O)C([H])([H])N([H])C(=O)C([H])([H])N([H])C(=O)N3C([H])([H])C([H])([H])C([H])([H])C([H])(n4nc(-c5c([H])c([H])c(Oc6c([H])c([H])c(F)c([H])c6F)c([H])c5[H])c(C(=O)N([H])[H])c4N([H])[H])C3([H])[H])c([H])c([H])c2C1([H])[H]

$$$$
42:0:0
     RDKit          3D

105103  0  0  1  0  0  0  0  0999 V2000
  -20.7380  -22.7210   22.0250 C   0  0  0  0  0  2  0  0  0  0  0  0
  -22.0970  -23.1910   21.5790 N   0  0  0  0  0  4  0  0  0  0  0  0
  -22.0220  -23.4920   20.6280 H   0  0  0  0  0  0  0  0  0  0  0  0
  -22.7300  -22.4090   21.6000 H   0  0  0  0  0  0  0  0  0  0  0  0
  -22.6900  -24.3230   22.3660 C   0  0  0  0  0  3  0  0  0  0  0  0
  -24.2400  -24.5750   22.1730 C   0  0  0  0  0  3  0  0  0  0  0  0
  -24.9080  -25.8580   22.8230 C   0  0  0  0  0  2  0  0  0  0  0  0
  -25.9470  -26.6320   22.0430 N   0  0  0  0  0  4  0  0  0  0  0  0
  -25.6670  -26.7430   21.0780 H   0  0  0  0  0  0  0  0  0  0  0  0
  -26.7880  -26.0710   22.0200 H   0  0  0  0  0  0  0  0  0  0  0  0
  -26.2970  -27.9830   22.6430 C   0  0  0  0  0  2  0  0  0  0  0  0
  -27.1550  -29.0020   21.7750 C   0  0  0  0  0  2  0  0  0  0  0  0
  -28.3370  -29.6910   22.3050 O   0  0  0  0  0  0  0  0  0  0  0  0
  -34.5380  -29.1060   18.9010 C   0  0  0  0  0  0  0  0  0  0  0  0
  -29.4850  -28.9700   22.1170 C   0  0  0  0  0  0  0  0  0  0  0  0
  -33.4120  -26.9840   19.6490 C   0  0  0  0  0  3  0  0  0  0  0  0
  -31.6340  -27.3020   21.4140 C   0  0  0  0  0  0  0  0  0  0  0  0
  -33.1380  -29.2130   20.9290 C   0  0  0  0  0  2  0  0  0  0  0  0
  -31.7960  -28.6890   21.3870 C   0  0  0  0  0  0  0  0  0  0  0  0
  -30.7190  -29.5450   21.7320 C   0  0  0  0  0  3  0  0  0  0  0  0
  -29.3960  -27.5760   22.2560 C   0  0  0  0  0  3  0  0  0  0  0  0
  -30.4290  -26.7340   21.8380 C   0  0  0  0  0  3  0  0  0  0  0  0
  -32.8080  -26.4630   20.9750 C   0  0  0  0  0  2  0  0  0  0  0  0
  -33.6940  -28.4720   19.7680 N   0  0  0  0  0  0  0  0  0  0  0  0
  -35.1070  -28.4790   17.9980 O   0  0  0  0  0  0  0  0  0  0  0  0
  -32.3400  -26.5800   18.5920 C   0  0  0  0  0  0  0  0  0  0  0  0
  -31.9640  -25.2450   18.4570 N   0  0  0  0  0  0  0  0  0  0  0  0
  -31.7770  -27.4940   17.9790 O   0  0  0  0  0  0  0  0  0  0  0  0
  -32.5510  -24.5960   18.9620 H   0  0  0  0  0  0  0  0  0  0  0  0
  -31.9010  -23.0160   17.3120 C   0  0  0  0  0  3  0  0  0  0  0  0
  -30.6570  -24.5560   17.7650 C   0  0  0  0  0  3  0  0  0  0  0  0
  -29.7990  -23.8350   18.5890 C   0  0  0  0  0  2  0  0  0  0  0  0
  -30.2260  -22.3930   18.7890 C   0  0  0  0  0  2  0  0  0  0  0  0
  -31.3530  -21.8280   17.9670 C   0  0  0  0  0  2  0  0  0  0  0  0
  -30.4820  -23.5360   16.3360 C   0  0  0  0  0  2  0  0  0  0  0  0
  -30.8990  -23.9770   14.1970 C   0  0  0  0  0 15  0  0  0  0  0  0
  -32.9170  -23.9560   13.8570 C   0  0  0  0  0  1  0  0  0  0  0  0
  -34.0550  -23.4590   15.1700 C   0  0  0  0  0  3  0  0  0  0  0  0
  -33.5430  -23.0300   16.7560 C   0  0  0  0  0  3  0  0  0  0  0  0
  -34.8450  -30.6410   19.0190 C   0  0  0  0  0  3  0  0  0  0  0  0
  -34.1620  -31.5100   17.8880 C   0  0  1  0  0  0  0  0  0  0  0  0
  -34.5770  -31.0890   16.4610 C   0  0  0  0  0  1  0  0  0  0  0  0
  -32.6180  -31.4290   17.9770 C   0  0  0  0  0  1  0  0  0  0  0  0
  -34.5350  -33.0010   18.0650 C   0  0  0  0  0  1  0  0  0  0  0  0
  -36.3050  -30.8170   18.9960 N   0  0  0  0  0  0  0  0  0  0  0  0
  -37.0710  -31.0130   20.0800 C   0  0  0  0  0  0  0  0  0  0  0  0
  -36.6080  -31.1290   21.2190 O   0  0  0  0  0  0  0  0  0  0  0  0
  -36.7620  -30.6850   18.1060 H   0  0  0  0  0  0  0  0  0  0  0  0
  -39.2280  -29.7280   20.2200 C   0  0  0  0  0  1  0  0  0  0  0  0
  -38.5960  -31.0830   19.8620 C   0  0  0  0  0  3  0  0  0  0  0  0
  -38.9220  -33.4970   20.1580 C   0  0  0  0  0  1  0  0  0  0  0  0
  -39.2570  -32.1580   20.6340 N   0  0  0  0  0  0  0  0  0  0  0  0
  -40.2670  -32.0550   20.5920 H   0  0  0  0  0  0  0  0  0  0  0  0
  -19.7220  -22.3120   20.8870 C   0  0  0  0  0  2  0  0  0  0  0  0
  -19.7860  -23.2400   19.6470 C   0  0  0  0  0  3  0  0  0  0  0  0
  -18.5200  -23.6160   18.7540 C   0  0  0  0  0  3  0  0  0  0  0  0
  -18.5320  -24.5400   17.4040 C   0  0  0  0  0  2  0  0  0  0  0  0
  -22.1040  -26.3880   17.2160 C   0  0  0  0  0  2  0  0  0  0  0  0
  -19.4970  -25.7230   17.0490 N   0  0  0  0  0  2  0  0  0  0  0  0
  -22.5730  -27.5410   17.1050 O   0  0  0  0  0  0  0  0  0  0  0  0
  -18.9950  -26.5140   16.6800 H   0  0  0  0  0  0  0  0  0  0  0  0
  -23.7240  -24.5090   18.0940 C   0  0  0  0  0 15  0  0  0  0  0  0
  -26.1990  -20.9230   18.7950 C   0  0  0  0  0  2  0  0  0  0  0  0
  -24.8570  -22.3880   18.4970 N   0  0  0  0  0  1  0  0  0  0  0  0
  -27.2160  -21.5930   18.9660 O   0  0  0  0  0  0  0  0  0  0  0  0
  -25.6630  -22.9690   18.7030 H   0  0  0  0  0  0  0  0  0  0  0  0
  -27.1850  -18.5850   19.0630 C   0  0  0  0  0 15  0  0  0  0  0  0
  -29.5230  -14.8510   19.0450 C   0  0  0  0  0  2  0  0  0  0  0  0
  -31.6810  -12.5860   19.3070 C   0  0  0  0  0  2  0  0  0  0  0  0
  -33.2850  -12.5070   19.6450 C   0  0  0  0  0  2  0  0  0  0  0  0
  -34.1560  -13.1180   18.5540 C   0  0  0  0  0  2  0  0  0  0  0  0
  -33.2460  -14.1920   17.9700 C   0  0  0  0  0  3  0  0  0  0  0  0
  -31.8030  -13.8090   17.5090 C   0  0  0  0  0  2  0  0  0  0  0  0
  -30.8990  -13.9590   18.6970 N   0  0  0  0  0  0  0  0  0  0  0  0
  -29.2110  -13.7630   19.7170 O   0  0  0  0  0  1  0  0  0  0  0  0
  -28.5830  -16.6130   18.8810 N   0  0  0  0  0  1  0  0  0  0  0  0
  -27.8150  -16.0960   19.2960 H   0  0  0  0  0  0  0  0  0  0  0  0
  -33.2140  -16.2210   16.6240 C   0  0  0  0  0  0  0  0  0  0  0  0
  -34.0200  -16.7090   15.6550 C   0  0  0  0  0  0  0  0  0  0  0  0
  -35.0760  -15.7570   15.4930 C   0  0  0  0  0  0  0  0  0  0  0  0
  -33.7990  -15.0380   16.9930 N   0  0  0  0  0  0  0  0  0  0  0  0
  -34.8910  -14.7020   16.2770 N   0  0  0  0  0  0  0  0  0  0  0  0
  -36.2830  -15.8290   14.6790 C   0  0  0  0  0  0  0  0  0  0  0  0
  -37.1110  -14.7050   14.4710 C   0  0  0  0  0  3  0  0  0  0  0  0
  -38.2550  -14.8110   13.6520 C   0  0  0  0  0  3  0  0  0  0  0  0
  -38.5750  -16.0450   13.0370 C   0  0  0  0  0  0  0  0  0  0  0  0
  -37.7590  -17.1650   13.2730 C   0  0  0  0  0  3  0  0  0  0  0  0
  -36.6250  -17.0610   14.0920 C   0  0  0  0  0  3  0  0  0  0  0  0
  -39.6790  -16.2500   12.2470 O   0  0  0  0  0  0  0  0  0  0  0  0
  -40.8200  -15.5090   12.4070 C   0  0  0  0  0  0  0  0  0  0  0  0
  -40.8200  -14.1030   12.2700 C   0  0  0  0  0  3  0  0  0  0  0  0
  -42.0310  -13.3890   12.3710 C   0  0  0  0  0  3  0  0  0  0  0  0
  -43.2380  -14.0750   12.6000 C   0  0  0  0  0  0  0  0  0  0  0  0
  -43.2380  -15.4750   12.7350 C   0  0  0  0  0  3  0  0  0  0  0  0
  -42.0320  -16.1900   12.6340 C   0  0  0  0  0  0  0  0  0  0  0  0
  -42.0370  -17.5400   12.7400 F   0  0  0  0  0  0  0  0  0  0  0  0
  -44.4020  -13.3920   12.6920 F   0  0  0  0  0  0  0  0  0  0  0  0
  -33.8510  -18.0380   15.0000 C   0  0  0  0  0  0  0  0  0  0  0  0
  -34.1310  -18.1140   13.7070 N   0  0  0  0  0  0  0  0  0  0  0  0
  -33.4060  -19.0000   15.6260 O   0  0  0  0  0  0  0  0  0  0  0  0
  -34.4750  -17.3080   13.2040 H   0  0  0  0  0  0  0  0  0  0  0  0
  -34.0080  -18.9890   13.2160 H   0  0  0  0  0  0  0  0  0  0  0  0
  -32.0430  -16.6780   17.2360 N   0  0  0  0  0  0  0  0  0  0  0  0
  -31.6470  -17.5890   17.0300 H   0  0  0  0  0  0  0  0  0  0  0  0
  -31.6190  -16.2300   18.0360 H   0  0  0  0  0  0  0  0  0  0  0  0
  2  4  1  0
  2  1  1  0
  2  5  1  0
  3  2  1  0
  6  5  2  0
  6  7  1  0
  8 11  1  0
  8  7  1  0
  9  8  1  0
 10  8  1  0
 12 13  1  0
 12 11  1  0
 14 24  1  0
 15 21  1  0
 15 13  1  0
 16 26  1  0
 16 24  1  0
 16 23  1  0
 17 22  1  0
 18 19  1  0
 19 17  2  0
 19 20  1  0
 20 15  2  0
 22 21  2  0
 23 17  1  0
 24 18  1  0
 25 14  2  0
 27 26  1  0
 27 29  1  0
 28 26  2  0
 30 39  1  0
 30 34  1  0
 31 27  1  0
 31 32  1  0
 32 33  1  0
 34 33  1  0
 35 30  1  0
 35 31  1  0
 37 38  1  0
 38 39  2  0
 40 14  1  0
 41 43  1  6
 41 44  1  0
 41 40  1  0
 42 41  1  0
 45 40  1  0
 45 46  1  0
 46 47  2  0
 48 45  1  0
 50 46  1  0
 50 49  1  0
 50 52  1  0
 51 52  1  0
 53 52  1  0
 54  1  1  0
 55 54  1  0
 56 55  2  0
 57 56  1  0
 59 57  1  0
 60 58  2  0
 61 59  1  0
 63 65  2  0
 64 66  1  0
 68 75  1  0
 69 70  1  0
 71 70  1  0
 72 81  1  0
 72 71  1  0
 73 72  1  0
 73 74  1  0
 74 68  1  0
 74 69  1  0
 76 77  1  0
 78 81  1  0
 78103  1  0
 79 78  2  0
 80 79  1  0
 80 82  2  0
 82 81  1  0
 83 80  1  0
 84 83  1  0
 85 84  2  0
 86 87  2  0
 86 85  1  0
 87 88  1  0
 88 83  2  0
 89 90  1  0
 89 86  1  0
 90 95  1  0
 91 92  1  0
 91 90  2  0
 92 93  2  0
 93 97  1  0
 93 94  1  0
 95 94  2  0
 95 96  1  0
 98100  2  0
 98 79  1  0
 99 98  1  0
101 99  1  0
102 99  1  0
103105  1  0
104103  1  0
M  ISO  4  12 101  13 101  68 100  76 100
M  END
>  <TORSDO>  (39) 
F 31

>  <SCORE>  (39) 
-0.798

>  <name>  (39) 
42

>  <ligand_id>  (39) 
42

>  <original_smiles>  (39) 
[H]c1c([H])c([H])c2c(c1[H])C([H])([H])C([H])([H])C([H])([H])C2([H])N([H])C(=O)C1([H])N(C(=O)C([H])(N([H])C(=O)C([H])(N([H])C([H])([H])[H])C([H])([H])[H])C(C([H])([H])[H])(C([H])([H])[H])C([H])([H])[H])C([H])([H])c2c([H])c(OC([H])([H])C([H])([H])[N+]([H])([H])C([H])([H])C([H])([H])C([H])([H])[N+]([H])([H])C([H])([H])C([H])([H])C([H])([H])C([H])([H])C([H])([H])N([H])C(=O)C([H])([H])N([H])C(=O)C([H])([H])N([H])C(=O)N3C([H])([H])C([H])([H])C([H])([H])C([H])(n4nc(-c5c([H])c([H])c(Oc6c([H])c([H])c(F)c([H])c6F)c([H])c5[H])c(C(=O)N([H])[H])c4N([H])[H])C3([H])[H])c([H])c([H])c2C1([H])[H]

>  <smiles>  (39) 
[H]c1c([H])c([H])c2c(c1[H])C([H])([H])C([H])([H])C([H])([H])C2([H])N([H])C(=O)C1([H])N(C(=O)C([H])(N([H])C(=O)C([H])(N([H])C([H])([H])[H])C([H])([H])[H])C(C([H])([H])[H])(C([H])([H])[H])C([H])([H])[H])C([H])([H])c2c([H])c(OC([H])([H])C([H])([H])[N+]([H])([H])C([H])([H])C([H])([H])C([H])([H])[N+]([H])([H])C([H])([H])C([H])([H])C([H])([H])C([H])([H])C([H])([H])N([H])C(=O)C([H])([H])N([H])C(=O)C([H])([H])N([H])C(=O)N3C([H])([H])C([H])([H])C([H])([H])C([H])(n4nc(-c5c([H])c([H])c(Oc6c([H])c([H])c(F)c([H])c6F)c([H])c5[H])c(C(=O)N([H])[H])c4N([H])[H])C3([H])[H])c([H])c([H])c2C1([H])[H]

$$$$
43:0:0
     RDKit          3D

112119  0  0  1  0  0  0  0  0999 V2000
  -25.6040  -18.0760   22.2440 C   0  0  0  0  0  0  0  0  0  0  0  0
  -24.9370  -17.1540   21.5400 N   0  0  0  0  0  0  0  0  0  0  0  0
  -25.5350  -19.2830   22.0090 O   0  0  0  0  0  0  0  0  0  0  0  0
  -25.0570  -16.1940   21.8380 H   0  0  0  0  0  0  0  0  0  0  0  0
  -26.4550  -17.5420   23.4000 C   0  0  0  0  0  2  0  0  0  0  0  0
  -28.5810  -18.1510   24.5050 C   0  0  0  0  0  0  0  0  0  0  0  0
  -27.7980  -18.1200   23.4190 N   0  0  0  0  0  0  0  0  0  0  0  0
  -28.1960  -17.7230   25.5930 O   0  0  0  0  0  0  0  0  0  0  0  0
  -28.1240  -18.5460   22.5610 H   0  0  0  0  0  0  0  0  0  0  0  0
  -30.0190  -18.6740   24.3760 C   0  0  0  0  0  2  0  0  0  0  0  0
  -30.3980  -20.0320   22.3100 C   0  0  0  0  0  0  0  0  0  0  0  0
  -30.4320  -18.8820   22.9920 N   0  0  0  0  0  0  0  0  0  0  0  0
  -29.9830  -21.0860   22.7970 O   0  0  0  0  0  0  0  0  0  0  0  0
  -30.7900  -18.0760   22.4980 H   0  0  0  0  0  0  0  0  0  0  0  0
  -30.8960  -19.9870   20.8560 C   0  0  0  0  0  2  0  0  0  0  0  0
  -29.4550  -18.4920   19.5070 C   0  0  0  0  0  0  0  0  0  0  0  0
  -30.5860  -18.7280   20.1750 N   0  0  0  0  0  0  0  0  0  0  0  0
  -28.5610  -19.3300   19.3960 O   0  0  0  0  0  0  0  0  0  0  0  0
  -31.2780  -17.9910   20.2130 H   0  0  0  0  0  0  0  0  0  0  0  0
  -29.2670  -17.0960   18.9350 C   0  0  0  0  0  2  0  0  0  0  0  0
  -30.2260  -15.3170   20.3940 C   0  0  0  0  0  0  0  0  0  0  0  0
  -30.5830  -12.9140   20.7360 C   0  0  0  0  0  2  0  0  0  0  0  0
  -29.9500  -12.1830   19.5330 C   0  0  0  0  0  2  0  0  0  0  0  0
  -28.4490  -11.9210   19.7740 C   0  0  0  0  0  2  0  0  0  0  0  0
  -27.6840  -13.1830   20.2540 C   0  0  0  0  0  3  0  0  0  0  0  0
  -28.4480  -13.8680   21.4120 C   0  0  0  0  0  2  0  0  0  0  0  0
  -29.8180  -14.1490   20.9480 N   0  0  0  0  0  0  0  0  0  0  0  0
  -31.3910  -15.5600   20.0660 O   0  0  0  0  0  0  0  0  0  0  0  0
  -29.2140  -16.0930   19.9970 N   0  0  0  0  0  0  0  0  0  0  0  0
  -28.2930  -15.8040   20.2900 H   0  0  0  0  0  0  0  0  0  0  0  0
  -25.2160  -13.7130   20.7820 C   0  0  0  0  0  0  0  0  0  0  0  0
  -24.1530  -12.9030   21.0700 C   0  0  0  0  0  0  0  0  0  0  0  0
  -24.6610  -11.5650   21.0620 C   0  0  0  0  0  0  0  0  0  0  0  0
  -26.3070  -12.8670   20.6280 N   0  0  0  0  0  0  0  0  0  0  0  0
  -25.9690  -11.5710   20.8470 N   0  0  0  0  0  0  0  0  0  0  0  0
  -23.9660  -10.2780   21.1860 C   0  0  0  0  0  0  0  0  0  0  0  0
  -24.4050   -9.2830   22.0860 C   0  0  0  0  0  3  0  0  0  0  0  0
  -23.7110   -8.0590   22.1990 C   0  0  0  0  0  3  0  0  0  0  0  0
  -22.5600   -7.8220   21.4110 C   0  0  0  0  0  0  0  0  0  0  0  0
  -22.1390   -8.8070   20.4990 C   0  0  0  0  0  3  0  0  0  0  0  0
  -22.8350  -10.0220   20.3860 C   0  0  0  0  0  3  0  0  0  0  0  0
  -21.8390   -6.6540   21.4360 O   0  0  0  0  0  0  0  0  0  0  0  0
  -21.7870   -5.8640   22.5560 C   0  0  0  0  0  0  0  0  0  0  0  0
  -21.3470   -6.3630   23.8020 C   0  0  0  0  0  3  0  0  0  0  0  0
  -21.2440   -5.5000   24.9110 C   0  0  0  0  0  3  0  0  0  0  0  0
  -21.5720   -4.1380   24.7760 C   0  0  0  0  0  0  0  0  0  0  0  0
  -22.0050   -3.6370   23.5350 C   0  0  0  0  0  3  0  0  0  0  0  0
  -22.1090   -4.4970   22.4280 C   0  0  0  0  0  0  0  0  0  0  0  0
  -22.5080   -4.0060   21.2320 F   0  0  0  0  0  0  0  0  0  0  0  0
  -21.4650   -3.3070   25.8390 F   0  0  0  0  0  0  0  0  0  0  0  0
  -22.7230  -13.3310   21.2410 C   0  0  0  0  0  0  0  0  0  0  0  0
  -21.9620  -12.6190   22.0670 N   0  0  0  0  0  0  0  0  0  0  0  0
  -22.2850  -14.3340   20.6790 O   0  0  0  0  0  0  0  0  0  0  0  0
  -22.3210  -11.8060   22.5480 H   0  0  0  0  0  0  0  0  0  0  0  0
  -21.0030  -12.8930   22.2230 H   0  0  0  0  0  0  0  0  0  0  0  0
  -25.3480  -15.0890   20.6190 N   0  0  0  0  0  0  0  0  0  0  0  0
  -24.5250  -15.6710   20.5140 H   0  0  0  0  0  0  0  0  0  0  0  0
  -26.1820  -15.5190   20.2400 H   0  0  0  0  0  0  0  0  0  0  0  0
  -24.0200  -17.3810   20.4210 C   0  0  0  0  0  2  0  0  0  0  0  0
  -24.7050  -18.0340   19.2030 C   0  0  0  0  0  2  0  0  0  0  0  0
  -23.6980  -18.7170   18.2670 C   0  0  0  0  0  0  0  0  0  0  0  0
  -23.5860  -20.0540   18.2400 N   0  0  0  0  0  0  0  0  0  0  0  0
  -23.0050  -18.0230   17.5260 O   0  0  0  0  0  0  0  0  0  0  0  0
  -22.9270  -20.4310   17.5690 H   0  0  0  0  0  0  0  0  0  0  0  0
  -24.2530  -21.0370   19.0890 C   0  0  0  0  0  2  0  0  0  0  0  0
  -25.6090  -21.4620   18.5010 C   0  0  0  0  0  2  0  0  0  0  0  0
  -26.3730  -22.3090   19.4410 N   0  0  0  0  0  4  0  0  0  0  0  0
  -26.4850  -21.8230   20.3180 H   0  0  0  0  0  0  0  0  0  0  0  0
  -25.8320  -23.1400   19.6260 H   0  0  0  0  0  0  0  0  0  0  0  0
  -27.7100  -22.7020   18.9370 C   0  0  0  0  0  2  0  0  0  0  0  0
  -28.4510  -23.6520   19.8970 C   0  0  0  0  0  2  0  0  0  0  0  0
  -28.5760  -24.9610   19.3380 O   0  0  0  0  0  0  0  0  0  0  0  0
  -26.0390  -29.2770   24.3770 C   0  0  0  0  0  0  0  0  0  0  0  0
  -27.6060  -25.8590   19.7030 C   0  0  0  0  0  0  0  0  0  0  0  0
  -24.5850  -28.9620   22.4000 C   0  0  0  0  0  3  0  0  0  0  0  0
  -25.6570  -27.7660   20.4200 C   0  0  0  0  0  0  0  0  0  0  0  0
  -27.1230  -28.7300   22.2050 C   0  0  0  0  0  2  0  0  0  0  0  0
  -26.8830  -27.7300   21.0960 C   0  0  0  0  0  0  0  0  0  0  0  0
  -27.8620  -26.7820   20.7380 C   0  0  0  0  0  3  0  0  0  0  0  0
  -26.3720  -25.9120   19.0200 C   0  0  0  0  0  3  0  0  0  0  0  0
  -25.3930  -26.8580   19.3810 C   0  0  0  0  0  3  0  0  0  0  0  0
  -24.6730  -28.8290   20.8560 C   0  0  0  0  0  2  0  0  0  0  0  0
  -25.9350  -28.9780   23.0530 N   0  0  0  0  0  0  0  0  0  0  0  0
  -25.0420  -29.5840   25.0440 O   0  0  0  0  0  0  0  0  0  0  0  0
  -23.6590  -27.8470   22.9370 C   0  0  0  0  0  0  0  0  0  0  0  0
  -22.3450  -28.0010   22.7040 N   0  0  0  0  0  0  0  0  0  0  0  0
  -24.1220  -26.8650   23.5240 O   0  0  0  0  0  0  0  0  0  0  0  0
  -22.0480  -28.8360   22.2200 H   0  0  0  0  0  0  0  0  0  0  0  0
  -18.7940  -27.3680   22.4770 C   0  0  0  0  0  0  0  0  0  0  0  0
  -21.2890  -27.0620   23.0800 C   0  0  0  0  0  3  0  0  0  0  0  0
  -21.2620  -25.8410   22.1340 C   0  0  0  0  0  2  0  0  0  0  0  0
  -20.2930  -26.0090   20.9590 C   0  0  0  0  0  2  0  0  0  0  0  0
  -18.8660  -26.2350   21.4680 C   0  0  0  0  0  2  0  0  0  0  0  0
  -19.9360  -27.7650   23.2230 C   0  0  0  0  0  0  0  0  0  0  0  0
  -19.8240  -28.8470   24.1230 C   0  0  0  0  0  3  0  0  0  0  0  0
  -18.6000  -29.5230   24.2870 C   0  0  0  0  0  3  0  0  0  0  0  0
  -17.4690  -29.1180   23.5560 C   0  0  0  0  0  3  0  0  0  0  0  0
  -17.5670  -28.0400   22.6580 C   0  0  0  0  0  3  0  0  0  0  0  0
  -27.4170  -29.2750   25.1120 C   0  0  0  0  0  3  0  0  0  0  0  0
  -27.6980  -27.9400   25.9070 C   0  0  1  0  0  0  0  0  0  0  0  0
  -26.5520  -27.5270   26.8580 C   0  0  0  0  0  1  0  0  0  0  0  0
  -27.9460  -26.7660   24.9310 C   0  0  0  0  0  1  0  0  0  0  0  0
  -28.9840  -28.0920   26.7510 C   0  0  0  0  0  1  0  0  0  0  0  0
  -27.4380  -30.4340   26.0130 N   0  0  0  0  0  0  0  0  0  0  0  0
  -28.0920  -31.5770   25.7670 C   0  0  0  0  0  0  0  0  0  0  0  0
  -28.8120  -31.7370   24.7780 O   0  0  0  0  0  0  0  0  0  0  0  0
  -26.8300  -30.3940   26.8170 H   0  0  0  0  0  0  0  0  0  0  0  0
  -26.9100  -33.7460   26.2360 C   0  0  0  0  0  1  0  0  0  0  0  0
  -27.9200  -32.7240   26.7810 C   0  0  0  0  0  3  0  0  0  0  0  0
  -30.1080  -32.5700   27.8820 C   0  0  0  0  0  1  0  0  0  0  0  0
  -29.1860  -33.4080   27.1180 N   0  0  0  0  0  0  0  0  0  0  0  0
  -29.0090  -34.2560   27.6490 H   0  0  0  0  0  0  0  0  0  0  0  0
  1  5  1  0
  2  4  1  0
  2  1  1  0
  3  1  2  0
  5  7  1  0
  6  8  2  0
  7  6  1  0
  9  7  1  0
 10  6  1  0
 11 13  2  0
 11 12  1  0
 12 10  1  0
 14 12  1  0
 15 11  1  0
 16 17  1  0
 17 19  1  0
 17 15  1  0
 18 16  2  0
 20 16  1  0
 20 29  1  0
 21 27  1  0
 22 27  1  0
 23 24  1  0
 23 22  1  0
 25 24  1  0
 25 34  1  0
 25 26  1  0
 27 26  1  0
 28 21  2  0
 29 30  1  0
 29 21  1  0
 31 32  2  0
 32 51  1  0
 33 32  1  0
 33 36  1  0
 34 31  1  0
 34 35  1  0
 35 33  2  0
 36 37  1  0
 37 38  2  0
 39 42  1  0
 39 38  1  0
 40 39  2  0
 41 40  1  0
 41 36  2  0
 42 43  1  0
 43 44  1  0
 44 45  2  0
 46 45  1  0
 46 50  1  0
 47 46  2  0
 48 43  2  0
 48 47  1  0
 49 48  1  0
 51 52  1  0
 52 55  1  0
 52 54  1  0
 53 51  2  0
 56 31  1  0
 57 56  1  0
 58 56  1  0
 59  2  1  0
 60 59  1  0
 61 60  1  0
 62 61  1  0
 62 65  1  0
 63 61  2  0
 64 62  1  0
 66 65  1  0
 66 67  1  0
 67 69  1  0
 67 68  1  0
 70 67  1  0
 70 71  1  0
 72 74  1  0
 72 71  1  0
 73 84  2  0
 74 79  1  0
 75 85  1  0
 75 83  1  0
 76 82  1  0
 76 78  1  0
 77 83  1  0
 78 77  1  0
 79 78  2  0
 80 81  1  0
 80 74  2  0
 81 76  2  0
 82 75  1  0
 83 73  1  0
 85 87  2  0
 86 85  1  0
 88 86  1  0
 89 98  2  0
 89 94  1  0
 90 86  1  0
 90 94  1  0
 91 90  1  0
 92 93  1  0
 92 91  1  0
 93 89  1  0
 94 95  2  0
 95 96  1  0
 97 96  2  0
 98 97  1  0
 99 73  1  0
 99100  1  0
 99104  1  0
100103  1  1
100101  1  0
102100  1  0
104107  1  0
105104  1  0
105109  1  0
106105  2  0
109108  1  0
109111  1  0
111112  1  0
111110  1  0
M  ISO  4  21 100  29 100  71 101  72 101
M  END
>  <TORSDO>  (40) 
F 31

>  <SCORE>  (40) 
34.658

>  <name>  (40) 
43

>  <ligand_id>  (40) 
43

>  <original_smiles>  (40) 
[H]c1c([H])c([H])c2c(c1[H])C([H])([H])C([H])([H])C([H])([H])C2([H])N([H])C(=O)C1([H])N(C(=O)C([H])(N([H])C(=O)C([H])(N([H])C([H])([H])[H])C([H])([H])[H])C(C([H])([H])[H])(C([H])([H])[H])C([H])([H])[H])C([H])([H])c2c([H])c(OC([H])([H])C([H])([H])[N+]([H])([H])C([H])([H])C([H])([H])N([H])C(=O)C([H])([H])C([H])([H])N([H])C(=O)C([H])([H])N([H])C(=O)C([H])([H])N([H])C(=O)C([H])([H])N([H])C(=O)C([H])([H])N([H])C(=O)N3C([H])([H])C([H])([H])C([H])([H])C([H])(n4nc(-c5c([H])c([H])c(Oc6c([H])c([H])c(F)c([H])c6F)c([H])c5[H])c(C(=O)N([H])[H])c4N([H])[H])C3([H])[H])c([H])c([H])c2C1([H])[H]

>  <smiles>  (40) 
[H]c1c([H])c([H])c2c(c1[H])C([H])([H])C([H])([H])C([H])([H])C2([H])N([H])C(=O)C1([H])N(C(=O)C([H])(N([H])C(=O)C([H])(N([H])C([H])([H])[H])C([H])([H])[H])C(C([H])([H])[H])(C([H])([H])[H])C([H])([H])[H])C([H])([H])c2c([H])c(OC([H])([H])C([H])([H])[N+]([H])([H])C([H])([H])C([H])([H])N([H])C(=O)C([H])([H])C([H])([H])N([H])C(=O)C([H])([H])N([H])C(=O)C([H])([H])N([H])C(=O)C([H])([H])N([H])C(=O)C([H])([H])N([H])C(=O)N3C([H])([H])C([H])([H])C([H])([H])C([H])(n4nc(-c5c([H])c([H])c(Oc6c([H])c([H])c(F)c([H])c6F)c([H])c5[H])c(C(=O)N([H])[H])c4N([H])[H])C3([H])[H])c([H])c([H])c2C1([H])[H]

$$$$
44:0:0
     RDKit          3D

102109  0  0  1  0  0  0  0  0999 V2000
  -33.2750  -26.2540   22.2270 C   0  0  0  0  0  0  0  0  0  0  0  0
  -31.9460  -26.3260   22.1210 N   0  0  0  0  0  0  0  0  0  0  0  0
  -33.9020  -26.8130   23.1280 O   0  0  0  0  0  0  0  0  0  0  0  0
  -31.5360  -25.7860   21.3720 H   0  0  0  0  0  0  0  0  0  0  0  0
  -34.0140  -25.4360   21.1570 C   0  0  0  0  0  2  0  0  0  0  0  0
  -32.5520  -23.5400   20.4420 C   0  0  0  0  0  0  0  0  0  0  0  0
  -33.1160  -24.7370   20.2270 N   0  0  0  0  0  0  0  0  0  0  0  0
  -32.7650  -22.8900   21.4660 O   0  0  0  0  0  0  0  0  0  0  0  0
  -32.9020  -25.2150   19.3620 H   0  0  0  0  0  0  0  0  0  0  0  0
  -31.5970  -23.0090   19.3630 C   0  0  0  0  0  2  0  0  0  0  0  0
  -30.7800  -20.7480   20.0570 C   0  0  0  0  0  0  0  0  0  0  0  0
  -31.5580  -21.5470   19.3190 N   0  0  0  0  0  0  0  0  0  0  0  0
  -30.0500  -21.1670   20.9570 O   0  0  0  0  0  0  0  0  0  0  0  0
  -32.1520  -21.1060   18.6310 H   0  0  0  0  0  0  0  0  0  0  0  0
  -30.8500  -19.3790   19.5820 C   0  0  0  0  0  3  0  0  0  0  0  0
  -30.0790  -18.4050   20.1010 C   0  0  0  0  0  3  0  0  0  0  0  0
  -30.0200  -17.0120   19.5050 C   0  0  0  0  0  2  0  0  0  0  0  0
  -30.8630  -14.8450   20.2830 C   0  0  0  0  0  0  0  0  0  0  0  0
  -30.6110  -12.5830   19.3690 C   0  0  0  0  0  2  0  0  0  0  0  0
  -29.7120  -12.7080   18.1210 C   0  0  0  0  0  2  0  0  0  0  0  0
  -28.2230  -12.6100   18.5120 C   0  0  0  0  0  2  0  0  0  0  0  0
  -27.8500  -13.5330   19.7030 C   0  0  0  0  0  3  0  0  0  0  0  0
  -28.8780  -13.4070   20.8540 C   0  0  0  0  0  2  0  0  0  0  0  0
  -30.2200  -13.6470   20.3040 N   0  0  0  0  0  0  0  0  0  0  0  0
  -32.0090  -14.9940   19.8530 O   0  0  0  0  0  0  0  0  0  0  0  0
  -30.0570  -15.9030   20.4640 N   0  0  0  0  0  0  0  0  0  0  0  0
  -29.1750  -15.6870   20.9040 H   0  0  0  0  0  0  0  0  0  0  0  0
  -25.4300  -14.1770   20.3070 C   0  0  0  0  0  0  0  0  0  0  0  0
  -24.3560  -13.4270   20.7120 C   0  0  0  0  0  0  0  0  0  0  0  0
  -24.8250  -12.0820   20.7920 C   0  0  0  0  0  0  0  0  0  0  0  0
  -26.4840  -13.2870   20.1670 N   0  0  0  0  0  0  0  0  0  0  0  0
  -26.1220  -12.0260   20.5150 N   0  0  0  0  0  0  0  0  0  0  0  0
  -24.1010  -10.8310   21.0600 C   0  0  0  0  0  0  0  0  0  0  0  0
  -24.5040   -9.9550   22.0920 C   0  0  0  0  0  3  0  0  0  0  0  0
  -23.7830   -8.7680   22.3440 C   0  0  0  0  0  3  0  0  0  0  0  0
  -22.6440   -8.4490   21.5640 C   0  0  0  0  0  0  0  0  0  0  0  0
  -22.2620   -9.3160   20.5250 C   0  0  0  0  0  3  0  0  0  0  0  0
  -22.9830  -10.4950   20.2720 C   0  0  0  0  0  3  0  0  0  0  0  0
  -21.8960   -7.3080   21.7220 O   0  0  0  0  0  0  0  0  0  0  0  0
  -21.7870   -6.6790   22.9360 C   0  0  0  0  0  0  0  0  0  0  0  0
  -21.2990   -7.3480   24.0790 C   0  0  0  0  0  3  0  0  0  0  0  0
  -21.1380   -6.6450   25.2900 C   0  0  0  0  0  3  0  0  0  0  0  0
  -21.4520   -5.2750   25.3570 C   0  0  0  0  0  0  0  0  0  0  0  0
  -21.9320   -4.6060   24.2180 C   0  0  0  0  0  3  0  0  0  0  0  0
  -22.0970   -5.3040   23.0090 C   0  0  0  0  0  0  0  0  0  0  0  0
  -22.5390   -4.6490   21.9100 F   0  0  0  0  0  0  0  0  0  0  0  0
  -21.2890   -4.5990   26.5190 F   0  0  0  0  0  0  0  0  0  0  0  0
  -22.9510  -13.9150   20.9170 C   0  0  0  0  0  0  0  0  0  0  0  0
  -22.2090  -13.2840   21.8240 N   0  0  0  0  0  0  0  0  0  0  0  0
  -22.5170  -14.8920   20.3090 O   0  0  0  0  0  0  0  0  0  0  0  0
  -22.5720  -12.4960   22.3380 H   0  0  0  0  0  0  0  0  0  0  0  0
  -21.2660  -13.5940   22.0040 H   0  0  0  0  0  0  0  0  0  0  0  0
  -25.5910  -15.5300   20.0270 N   0  0  0  0  0  0  0  0  0  0  0  0
  -24.8200  -16.1870   20.0620 H   0  0  0  0  0  0  0  0  0  0  0  0
  -26.4470  -15.9450   19.6810 H   0  0  0  0  0  0  0  0  0  0  0  0
  -31.0250  -26.9910   23.0280 C   0  0  0  0  0  2  0  0  0  0  0  0
  -30.2080  -25.9300   23.7760 C   0  0  0  0  0  2  0  0  0  0  0  0
  -28.7130  -26.2560   23.8870 C   0  0  0  0  0  2  0  0  0  0  0  0
  -27.8880  -25.7280   22.6920 C   0  0  0  0  0  2  0  0  0  0  0  0
  -27.6260  -26.7590   21.5710 C   0  0  0  0  0  2  0  0  0  0  0  0
  -28.1370  -26.3850   20.1520 C   0  0  0  0  0  2  0  0  0  0  0  0
  -27.9160  -27.3940   19.1500 O   0  0  0  0  0  0  0  0  0  0  0  0
  -24.2840  -31.9350   23.1670 C   0  0  0  0  0  0  0  0  0  0  0  0
  -26.7510  -28.1080   19.2800 C   0  0  0  0  0  0  0  0  0  0  0  0
  -22.9800  -30.8090   21.3850 C   0  0  0  0  0  3  0  0  0  0  0  0
  -24.3520  -29.5340   19.6530 C   0  0  0  0  0  0  0  0  0  0  0  0
  -25.4810  -31.2380   21.0980 C   0  0  0  0  0  2  0  0  0  0  0  0
  -25.5340  -29.9860   20.2500 C   0  0  0  0  0  0  0  0  0  0  0  0
  -26.7400  -29.2840   20.0560 C   0  0  0  0  0  3  0  0  0  0  0  0
  -25.5620  -27.6630   18.6710 C   0  0  0  0  0  3  0  0  0  0  0  0
  -24.3590  -28.3750   18.8560 C   0  0  0  0  0  3  0  0  0  0  0  0
  -23.1080  -30.3520   19.9050 C   0  0  0  0  0  2  0  0  0  0  0  0
  -24.2690  -31.3330   21.9440 N   0  0  0  0  0  0  0  0  0  0  0  0
  -23.2380  -32.1000   23.8090 O   0  0  0  0  0  0  0  0  0  0  0  0
  -22.3850  -29.6450   22.2080 C   0  0  0  0  0  0  0  0  0  0  0  0
  -21.0580  -29.4680   22.1180 N   0  0  0  0  0  0  0  0  0  0  0  0
  -23.1130  -28.9060   22.8760 O   0  0  0  0  0  0  0  0  0  0  0  0
  -20.5300  -30.1180   21.5520 H   0  0  0  0  0  0  0  0  0  0  0  0
  -17.7230  -28.1520   22.5680 C   0  0  0  0  0  0  0  0  0  0  0  0
  -20.2870  -28.4100   22.7690 C   0  0  0  0  0  3  0  0  0  0  0  0
  -20.3810  -27.0860   21.9740 C   0  0  0  0  0  2  0  0  0  0  0  0
  -19.2390  -26.9060   20.9680 C   0  0  0  0  0  2  0  0  0  0  0  0
  -17.8860  -26.9260   21.6850 C   0  0  0  0  0  2  0  0  0  0  0  0
  -18.8520  -28.8570   23.0650 C   0  0  0  0  0  0  0  0  0  0  0  0
  -18.6470  -30.0090   23.8530 C   0  0  0  0  0  3  0  0  0  0  0  0
  -17.3460  -30.4590   24.1470 C   0  0  0  0  0  3  0  0  0  0  0  0
  -16.2320  -29.7500   23.6620 C   0  0  0  0  0  3  0  0  0  0  0  0
  -16.4210  -28.5980   22.8790 C   0  0  0  0  0  3  0  0  0  0  0  0
  -25.6060  -32.4640   23.8050 C   0  0  0  0  0  3  0  0  0  0  0  0
  -25.3190  -33.7860   24.3770 N   0  0  0  0  0  0  0  0  0  0  0  0
  -25.6320  -34.9510   23.7910 C   0  0  0  0  0  0  0  0  0  0  0  0
  -26.2590  -35.0210   22.7290 O   0  0  0  0  0  0  0  0  0  0  0  0
  -24.7540  -33.8020   25.2130 H   0  0  0  0  0  0  0  0  0  0  0  0
  -23.9020  -36.7800   23.8150 C   0  0  0  0  0  1  0  0  0  0  0  0
  -25.1740  -36.2430   24.4920 C   0  0  0  0  0  3  0  0  0  0  0  0
  -27.3530  -36.9850   25.3550 C   0  0  0  0  0  1  0  0  0  0  0  0
  -26.2060  -37.3020   24.5060 N   0  0  0  0  0  0  0  0  0  0  0  0
  -25.8140  -38.1830   24.8240 H   0  0  0  0  0  0  0  0  0  0  0  0
  -26.2000  -31.4940   24.9000 C   0  0  1  0  0  0  0  0  0  0  0  0
  -25.1720  -31.0660   25.9740 C   0  0  0  0  0  1  0  0  0  0  0  0
  -26.7540  -30.2010   24.2480 C   0  0  0  0  0  1  0  0  0  0  0  0
  -27.3890  -32.1800   25.6110 C   0  0  0  0  0  1  0  0  0  0  0  0
  1  3  2  0
  2  1  1  0
  2 56  1  0
  4  2  1  0
  5  1  1  0
  6  8  2  0
  7  6  1  0
  7  5  1  0
  9  7  1  0
 10  6  1  0
 11 13  2  0
 12 10  1  0
 12 11  1  0
 14 12  1  0
 15 11  1  0
 15 16  2  0
 17 16  1  0
 17 26  1  0
 18 24  1  0
 18 26  1  0
 19 24  1  0
 20 21  1  0
 20 19  1  0
 22 21  1  0
 22 31  1  0
 22 23  1  0
 24 23  1  0
 25 18  2  0
 26 27  1  0
 28 29  2  0
 29 30  1  0
 29 48  1  0
 30 33  1  0
 31 28  1  0
 31 32  1  0
 32 30  2  0
 33 34  1  0
 34 35  2  0
 36 39  1  0
 36 35  1  0
 37 36  2  0
 38 37  1  0
 38 33  2  0
 39 40  1  0
 40 45  2  0
 40 41  1  0
 41 42  2  0
 42 43  1  0
 43 47  1  0
 44 43  2  0
 45 44  1  0
 46 45  1  0
 48 49  1  0
 49 52  1  0
 49 51  1  0
 50 48  2  0
 53 54  1  0
 53 28  1  0
 55 53  1  0
 56 57  1  0
 57 58  1  0
 59 58  1  0
 60 59  1  0
 61 60  1  0
 62 64  1  0
 62 61  1  0
 63 74  2  0
 64 69  1  0
 65 73  1  0
 65 75  1  0
 66 72  1  0
 66 68  1  0
 67 73  1  0
 68 67  1  0
 69 68  2  0
 70 71  1  0
 70 64  2  0
 71 66  2  0
 72 65  1  0
 73 63  1  0
 75 77  2  0
 76 75  1  0
 78 76  1  0
 79 88  2  0
 79 84  1  0
 80 76  1  0
 80 84  1  0
 81 80  1  0
 82 83  1  0
 82 81  1  0
 83 79  1  0
 84 85  2  0
 85 86  1  0
 87 86  2  0
 88 87  1  0
 89 63  1  0
 89 90  1  0
 89 99  1  0
 90 93  1  0
 91 90  1  0
 91 95  1  0
 92 91  2  0
 95 94  1  0
 95 97  1  0
 97 98  1  0
 97 96  1  0
 99102  1  1
 99100  1  0
101 99  1  0
M  ISO  4  18 100  26 100  61 101  62 101
M  END
>  <TORSDO>  (41) 
F 28

>  <SCORE>  (41) 
-5.469

>  <name>  (41) 
44

>  <ligand_id>  (41) 
44

>  <original_smiles>  (41) 
[H]C(C(=O)N([H])C([H])([H])C(=O)N([H])C([H])([H])C(=O)N([H])C([H])([H])C([H])([H])C([H])([H])C([H])([H])C([H])([H])C([H])([H])Oc1c([H])c([H])c2c(c1[H])C([H])([H])N(C(=O)C([H])(N([H])C(=O)C([H])(N([H])C([H])([H])[H])C([H])([H])[H])C(C([H])([H])[H])(C([H])([H])[H])C([H])([H])[H])C([H])(C(=O)N([H])C1([H])c3c([H])c([H])c([H])c([H])c3C([H])([H])C([H])([H])C1([H])[H])C2([H])[H])=C([H])C([H])([H])N([H])C(=O)N1C([H])([H])C([H])([H])C([H])([H])C([H])(n2nc(-c3c([H])c([H])c(Oc4c([H])c([H])c(F)c([H])c4F)c([H])c3[H])c(C(=O)N([H])[H])c2N([H])[H])C1([H])[H]

>  <smiles>  (41) 
[H]C(C(=O)N([H])C([H])([H])C(=O)N([H])C([H])([H])C(=O)N([H])C([H])([H])C([H])([H])C([H])([H])C([H])([H])C([H])([H])C([H])([H])Oc1c([H])c([H])c2c(c1[H])C([H])([H])N(C(=O)C([H])(N([H])C(=O)C([H])(N([H])C([H])([H])[H])C([H])([H])[H])C(C([H])([H])[H])(C([H])([H])[H])C([H])([H])[H])C([H])(C(=O)N([H])C1([H])c3c([H])c([H])c([H])c([H])c3C([H])([H])C([H])([H])C1([H])[H])C2([H])[H])=C([H])C([H])([H])N([H])C(=O)N1C([H])([H])C([H])([H])C([H])([H])C([H])(n2nc(-c3c([H])c([H])c(Oc4c([H])c([H])c(F)c([H])c4F)c([H])c3[H])c(C(=O)N([H])[H])c2N([H])[H])C1([H])[H]

$$$$
45:0:0
     RDKit          3D

109116  0  0  1  0  0  0  0  0999 V2000
  -31.5020  -24.0480   20.7640 C   0  0  0  0  0  0  0  0  0  0  0  0
  -32.2100  -25.0910   21.2120 N   0  0  0  0  0  0  0  0  0  0  0  0
  -31.8260  -23.4270   19.7490 O   0  0  0  0  0  0  0  0  0  0  0  0
  -31.8740  -25.5560   22.0440 H   0  0  0  0  0  0  0  0  0  0  0  0
  -30.2300  -23.6690   21.5390 C   0  0  0  0  0  2  0  0  0  0  0  0
  -30.2410  -21.2020   21.3210 C   0  0  0  0  0  0  0  0  0  0  0  0
  -29.6810  -22.3920   21.0820 N   0  0  0  0  0  0  0  0  0  0  0  0
  -31.1990  -21.0750   22.0920 O   0  0  0  0  0  0  0  0  0  0  0  0
  -28.9170  -22.4350   20.4230 H   0  0  0  0  0  0  0  0  0  0  0  0
  -29.6690  -19.9780   20.5770 C   0  0  0  0  0  3  0  0  0  0  0  0
  -29.8980  -17.5650   21.2190 C   0  0  0  0  0  0  0  0  0  0  0  0
  -30.3860  -18.7900   21.0300 N   0  0  0  0  0  0  0  0  0  0  0  0
  -28.7310  -17.2580   20.9690 O   0  0  0  0  0  0  0  0  0  0  0  0
  -31.3330  -18.9730   21.3360 H   0  0  0  0  0  0  0  0  0  0  0  0
  -30.8690  -16.5350   21.8020 C   0  0  0  0  0  2  0  0  0  0  0  0
  -30.8330  -14.5180   20.3610 C   0  0  0  0  0  0  0  0  0  0  0  0
  -30.4600  -12.4810   19.0200 C   0  0  0  0  0  2  0  0  0  0  0  0
  -29.4760  -12.7370   17.8640 C   0  0  0  0  0  2  0  0  0  0  0  0
  -28.0190  -12.5670   18.3370 C   0  0  0  0  0  2  0  0  0  0  0  0
  -27.7220  -13.3610   19.6350 C   0  0  0  0  0  3  0  0  0  0  0  0
  -28.8010  -13.0740   20.7010 C   0  0  0  0  0  2  0  0  0  0  0  0
  -30.1250  -13.3860   20.1270 N   0  0  0  0  0  0  0  0  0  0  0  0
  -31.7870  -14.8880   19.6680 O   0  0  0  0  0  0  0  0  0  0  0  0
  -30.4560  -15.1840   21.4540 N   0  0  0  0  0  0  0  0  0  0  0  0
  -29.6760  -14.8010   21.9670 H   0  0  0  0  0  0  0  0  0  0  0  0
  -25.3360  -13.9430   20.4190 C   0  0  0  0  0  0  0  0  0  0  0  0
  -24.2830  -13.1570   20.8010 C   0  0  0  0  0  0  0  0  0  0  0  0
  -24.7510  -11.8090   20.7280 C   0  0  0  0  0  0  0  0  0  0  0  0
  -26.3800  -13.0740   20.1420 N   0  0  0  0  0  0  0  0  0  0  0  0
  -26.0310  -11.7840   20.3830 N   0  0  0  0  0  0  0  0  0  0  0  0
  -24.0400  -10.5370   20.9160 C   0  0  0  0  0  0  0  0  0  0  0  0
  -24.4570   -9.5920   21.8780 C   0  0  0  0  0  3  0  0  0  0  0  0
  -23.7470   -8.3850   22.0510 C   0  0  0  0  0  3  0  0  0  0  0  0
  -22.6050   -8.1140   21.2600 C   0  0  0  0  0  0  0  0  0  0  0  0
  -22.2070   -9.0490   20.2880 C   0  0  0  0  0  3  0  0  0  0  0  0
  -22.9180  -10.2480   20.1140 C   0  0  0  0  0  3  0  0  0  0  0  0
  -21.8680   -6.9570   21.3400 O   0  0  0  0  0  0  0  0  0  0  0  0
  -21.7410   -6.2640   22.5180 C   0  0  0  0  0  0  0  0  0  0  0  0
  -21.1830   -6.8540   23.6730 C   0  0  0  0  0  3  0  0  0  0  0  0
  -21.0070   -6.0850   24.8410 C   0  0  0  0  0  3  0  0  0  0  0  0
  -21.3770   -4.7270   24.8530 C   0  0  0  0  0  0  0  0  0  0  0  0
  -21.9280   -4.1370   23.7020 C   0  0  0  0  0  3  0  0  0  0  0  0
  -22.1060   -4.9030   22.5360 C   0  0  0  0  0  0  0  0  0  0  0  0
  -22.6170   -4.3240   21.4230 F   0  0  0  0  0  0  0  0  0  0  0  0
  -21.2020   -3.9870   25.9720 F   0  0  0  0  0  0  0  0  0  0  0  0
  -22.8900  -13.6170   21.1250 C   0  0  0  0  0  0  0  0  0  0  0  0
  -22.1940  -12.8990   21.9990 N   0  0  0  0  0  0  0  0  0  0  0  0
  -22.4290  -14.6500   20.6400 O   0  0  0  0  0  0  0  0  0  0  0  0
  -22.5800  -12.0630   22.4150 H   0  0  0  0  0  0  0  0  0  0  0  0
  -21.2610  -13.1880   22.2580 H   0  0  0  0  0  0  0  0  0  0  0  0
  -25.4900  -15.3190   20.2700 N   0  0  0  0  0  0  0  0  0  0  0  0
  -24.7300  -15.9710   20.4370 H   0  0  0  0  0  0  0  0  0  0  0  0
  -26.3560  -15.7760   20.0090 H   0  0  0  0  0  0  0  0  0  0  0  0
  -31.1070  -20.0490   18.4240 C   0  0  0  0  0  1  0  0  0  0  0  0
  -28.7980  -19.0430   18.3290 C   0  0  0  0  0  1  0  0  0  0  0  0
  -29.6880  -20.0910   19.0210 C   0  0  0  0  0  3  0  0  0  0  0  0
  -33.4810  -25.5800   20.6660 C   0  0  0  0  0  2  0  0  0  0  0  0
  -33.3680  -26.3920   19.3610 C   0  0  0  0  0  0  0  0  0  0  0  0
  -32.3870  -26.0670   18.5120 N   0  0  0  0  0  0  0  0  0  0  0  0
  -34.1440  -27.3240   19.1470 O   0  0  0  0  0  0  0  0  0  0  0  0
  -31.8590  -25.2380   18.7640 H   0  0  0  0  0  0  0  0  0  0  0  0
  -32.0360  -26.7280   17.2590 C   0  0  0  0  0  2  0  0  0  0  0  0
  -31.6070  -28.2030   17.3920 C   0  0  0  0  0  0  0  0  0  0  0  0
  -30.7180  -28.6040   18.3130 N   0  0  0  0  0  0  0  0  0  0  0  0
  -32.1130  -29.0360   16.6400 O   0  0  0  0  0  0  0  0  0  0  0  0
  -30.5350  -29.5990   18.3220 H   0  0  0  0  0  0  0  0  0  0  0  0
  -29.9020  -27.8210   19.2390 C   0  0  0  0  0  2  0  0  0  0  0  0
  -28.7270  -27.1260   18.5270 C   0  0  0  0  0  2  0  0  0  0  0  0
  -27.7920  -26.5720   19.4540 O   0  0  0  0  0  0  0  0  0  0  0  0
  -24.5300  -31.7500   23.1070 C   0  0  0  0  0  0  0  0  0  0  0  0
  -26.6730  -27.3390   19.6590 C   0  0  0  0  0  0  0  0  0  0  0  0
  -23.1090  -30.4720   21.5310 C   0  0  0  0  0  3  0  0  0  0  0  0
  -24.3510  -28.9130   19.9420 C   0  0  0  0  0  0  0  0  0  0  0  0
  -25.6140  -30.7240   21.1180 C   0  0  0  0  0  2  0  0  0  0  0  0
  -25.5750  -29.3730   20.4410 C   0  0  0  0  0  0  0  0  0  0  0  0
  -26.7370  -28.5910   20.3060 C   0  0  0  0  0  3  0  0  0  0  0  0
  -25.4330  -26.8660   19.1870 C   0  0  0  0  0  3  0  0  0  0  0  0
  -24.2700  -27.6530   19.3190 C   0  0  0  0  0  3  0  0  0  0  0  0
  -23.1630  -29.8310   20.1170 C   0  0  0  0  0  2  0  0  0  0  0  0
  -24.4410  -30.9930   21.9760 N   0  0  0  0  0  0  0  0  0  0  0  0
  -23.5180  -32.0540   23.7520 O   0  0  0  0  0  0  0  0  0  0  0  0
  -22.4930  -29.4490   22.5110 C   0  0  0  0  0  0  0  0  0  0  0  0
  -21.1640  -29.2790   22.4350 N   0  0  0  0  0  0  0  0  0  0  0  0
  -23.2040  -28.8130   23.2930 O   0  0  0  0  0  0  0  0  0  0  0  0
  -20.6530  -29.8440   21.7710 H   0  0  0  0  0  0  0  0  0  0  0  0
  -17.8130  -28.0500   22.9820 C   0  0  0  0  0  0  0  0  0  0  0  0
  -20.3680  -28.3460   23.2310 C   0  0  0  0  0  3  0  0  0  0  0  0
  -20.4870  -26.9060   22.6810 C   0  0  0  0  0  2  0  0  0  0  0  0
  -19.3820  -26.5490   21.6810 C   0  0  0  0  0  2  0  0  0  0  0  0
  -18.0030  -26.6890   22.3340 C   0  0  0  0  0  2  0  0  0  0  0  0
  -18.9240  -28.8350   23.3890 C   0  0  0  0  0  0  0  0  0  0  0  0
  -18.6940  -30.1070   23.9550 C   0  0  0  0  0  3  0  0  0  0  0  0
  -17.3850  -30.5960   24.1200 C   0  0  0  0  0  3  0  0  0  0  0  0
  -16.2870  -29.8090   23.7310 C   0  0  0  0  0  3  0  0  0  0  0  0
  -16.5020  -28.5380   23.1680 C   0  0  0  0  0  3  0  0  0  0  0  0
  -25.8990  -32.2870   23.6300 C   0  0  0  0  0  3  0  0  0  0  0  0
  -26.5190  -31.3980   24.7780 C   0  0  1  0  0  0  0  0  0  0  0  0
  -25.5320  -31.0960   25.9290 C   0  0  0  0  0  1  0  0  0  0  0  0
  -27.0100  -30.0450   24.2120 C   0  0  0  0  0  1  0  0  0  0  0  0
  -27.7580  -32.1040   25.3770 C   0  0  0  0  0  1  0  0  0  0  0  0
  -25.6840  -33.6650   24.0910 N   0  0  0  0  0  0  0  0  0  0  0  0
  -26.0260  -34.7580   23.3990 C   0  0  0  0  0  0  0  0  0  0  0  0
  -26.6300  -34.7100   22.3230 O   0  0  0  0  0  0  0  0  0  0  0  0
  -25.1440  -33.7820   24.9360 H   0  0  0  0  0  0  0  0  0  0  0  0
  -24.3910  -36.6620   23.2770 C   0  0  0  0  0  1  0  0  0  0  0  0
  -25.6390  -36.1250   23.9950 C   0  0  0  0  0  3  0  0  0  0  0  0
  -27.8520  -36.8170   24.8000 C   0  0  0  0  0  1  0  0  0  0  0  0
  -26.7270  -37.1260   23.9220 N   0  0  0  0  0  0  0  0  0  0  0  0
  -26.3830  -38.0510   24.1650 H   0  0  0  0  0  0  0  0  0  0  0  0
  1  2  1  0
  1  5  1  0
  2  4  1  0
  3  1  2  0
  6  8  2  0
  7  6  1  0
  7  5  1  0
  9  7  1  0
 10 56  1  0
 10 12  1  0
 10  6  1  0
 11 15  1  0
 12 11  1  0
 12 14  1  0
 13 11  2  0
 16 24  1  0
 17 22  1  0
 18 19  1  0
 18 17  1  0
 20 19  1  0
 20 29  1  0
 20 21  1  0
 22 16  1  0
 22 21  1  0
 23 16  2  0
 24 15  1  0
 24 25  1  0
 26 27  2  0
 27 46  1  0
 28 27  1  0
 28 31  1  0
 29 30  1  0
 29 26  1  0
 30 28  2  0
 31 32  1  0
 32 33  2  0
 34 37  1  0
 34 33  1  0
 35 34  2  0
 36 35  1  0
 36 31  2  0
 37 38  1  0
 38 43  2  0
 38 39  1  0
 39 40  2  0
 40 41  1  0
 41 45  1  0
 42 41  2  0
 43 42  1  0
 44 43  1  0
 46 47  1  0
 47 50  1  0
 47 49  1  0
 48 46  2  0
 51 26  1  0
 51 52  1  0
 53 51  1  0
 54 56  1  0
 55 56  1  0
 57  2  1  0
 58 57  1  0
 59 61  1  0
 59 58  1  0
 60 58  2  0
 62 63  1  0
 62 59  1  0
 63 64  1  0
 64 66  1  0
 64 67  1  0
 65 63  2  0
 68 67  1  0
 68 69  1  0
 69 71  1  0
 70 81  2  0
 71 76  1  0
 72 80  1  0
 72 82  1  0
 73 79  1  0
 73 75  1  0
 74 80  1  0
 75 74  1  0
 76 75  2  0
 77 78  1  0
 77 71  2  0
 78 73  2  0
 79 72  1  0
 80 70  1  0
 82 84  2  0
 83 82  1  0
 85 83  1  0
 86 95  2  0
 86 91  1  0
 87 83  1  0
 87 91  1  0
 88 87  1  0
 89 90  1  0
 89 88  1  0
 90 86  1  0
 91 92  2  0
 92 93  1  0
 94 93  2  0
 95 94  1  0
 96 70  1  0
 96101  1  0
 96 97  1  0
 97100  1  1
 97 98  1  0
 99 97  1  0
101104  1  0
102106  1  0
102101  1  0
103102  2  0
106105  1  0
108106  1  0
108109  1  0
108107  1  0
M  ISO  4  16 100  24 100  68 101  69 101
M  END
>  <TORSDO>  (42) 
F 28

>  <SCORE>  (42) 
-11.103

>  <name>  (42) 
45

>  <ligand_id>  (42) 
45

>  <original_smiles>  (42) 
[H]c1c([H])c([H])c2c(c1[H])C([H])([H])C([H])([H])C([H])([H])C2([H])N([H])C(=O)C1([H])N(C(=O)C([H])(N([H])C(=O)C([H])(N([H])C([H])([H])[H])C([H])([H])[H])C(C([H])([H])[H])(C([H])([H])[H])C([H])([H])[H])C([H])([H])c2c([H])c(OC([H])([H])C([H])([H])N([H])C(=O)C([H])([H])N([H])C(=O)C([H])([H])N([H])C(=O)C([H])([H])N([H])C(=O)C([H])(N([H])C(=O)C([H])([H])N([H])C(=O)N3C([H])([H])C([H])([H])C([H])([H])C([H])(n4nc(-c5c([H])c([H])c(Oc6c([H])c([H])c(F)c([H])c6F)c([H])c5[H])c(C(=O)N([H])[H])c4N([H])[H])C3([H])[H])C([H])(C([H])([H])[H])C([H])([H])[H])c([H])c([H])c2C1([H])[H]

>  <smiles>  (42) 
[H]c1c([H])c([H])c2c(c1[H])C([H])([H])C([H])([H])C([H])([H])C2([H])N([H])C(=O)C1([H])N(C(=O)C([H])(N([H])C(=O)C([H])(N([H])C([H])([H])[H])C([H])([H])[H])C(C([H])([H])[H])(C([H])([H])[H])C([H])([H])[H])C([H])([H])c2c([H])c(OC([H])([H])C([H])([H])N([H])C(=O)C([H])([H])N([H])C(=O)C([H])([H])N([H])C(=O)C([H])([H])N([H])C(=O)C([H])(N([H])C(=O)C([H])([H])N([H])C(=O)N3C([H])([H])C([H])([H])C([H])([H])C([H])(n4nc(-c5c([H])c([H])c(Oc6c([H])c([H])c(F)c([H])c6F)c([H])c5[H])c(C(=O)N([H])[H])c4N([H])[H])C3([H])[H])C([H])(C([H])([H])[H])C([H])([H])[H])c([H])c([H])c2C1([H])[H]

$$$$
46:0:0
     RDKit          3D

 99106  0  0  1  0  0  0  0  0999 V2000
  -33.0950  -21.6360   17.8700 C   0  0  0  0  0  0  0  0  0  0  0  0
  -31.8340  -21.5270   17.4270 N   0  0  0  0  0  0  0  0  0  0  0  0
  -34.0110  -21.6980   17.0510 O   0  0  0  0  0  0  0  0  0  0  0  0
  -31.7590  -21.4750   16.4200 H   0  0  0  0  0  0  0  0  0  0  0  0
  -33.4380  -21.6870   19.3630 C   0  0  0  0  0  2  0  0  0  0  0  0
  -32.6360  -20.7730   21.5000 C   0  0  0  0  0  0  0  0  0  0  0  0
  -32.7880  -20.6580   20.1740 N   0  0  0  0  0  0  0  0  0  0  0  0
  -33.0580  -21.7520   22.1180 O   0  0  0  0  0  0  0  0  0  0  0  0
  -32.4930  -19.8110   19.7090 H   0  0  0  0  0  0  0  0  0  0  0  0
  -31.8940  -19.6790   22.2720 C   0  0  0  0  0  2  0  0  0  0  0  0
  -30.7180  -17.5530   21.8230 C   0  0  0  0  0  0  0  0  0  0  0  0
  -31.1640  -18.7450   21.4210 N   0  0  0  0  0  0  0  0  0  0  0  0
  -30.9130  -17.1130   22.9590 O   0  0  0  0  0  0  0  0  0  0  0  0
  -30.9350  -19.0520   20.4860 H   0  0  0  0  0  0  0  0  0  0  0  0
  -29.8810  -16.7710   20.8150 C   0  0  0  0  0  2  0  0  0  0  0  0
  -30.5720  -14.4110   20.4680 C   0  0  0  0  0  0  0  0  0  0  0  0
  -30.3050  -12.2930   19.2430 C   0  0  0  0  0  2  0  0  0  0  0  0
  -29.3370  -12.5410   18.0660 C   0  0  0  0  0  2  0  0  0  0  0  0
  -27.8670  -12.3900   18.5150 C   0  0  0  0  0  2  0  0  0  0  0  0
  -27.5500  -13.1900   19.8060 C   0  0  0  0  0  3  0  0  0  0  0  0
  -28.6140  -12.8950   20.8890 C   0  0  0  0  0  2  0  0  0  0  0  0
  -29.9410  -13.2190   20.3260 N   0  0  0  0  0  0  0  0  0  0  0  0
  -31.6500  -14.6900   19.9290 O   0  0  0  0  0  0  0  0  0  0  0  0
  -29.8250  -15.3360   21.0760 N   0  0  0  0  0  0  0  0  0  0  0  0
  -29.0020  -15.0010   21.5540 H   0  0  0  0  0  0  0  0  0  0  0  0
  -25.1450  -13.7920   20.5160 C   0  0  0  0  0  0  0  0  0  0  0  0
  -24.0840  -13.0150   20.8970 C   0  0  0  0  0  0  0  0  0  0  0  0
  -24.5530  -11.6650   20.8680 C   0  0  0  0  0  0  0  0  0  0  0  0
  -26.1960  -12.9160   20.2880 N   0  0  0  0  0  0  0  0  0  0  0  0
  -25.8400  -11.6320   20.5510 N   0  0  0  0  0  0  0  0  0  0  0  0
  -23.8360  -10.3990   21.0630 C   0  0  0  0  0  0  0  0  0  0  0  0
  -24.2940   -9.4240   21.9790 C   0  0  0  0  0  3  0  0  0  0  0  0
  -23.5780   -8.2230   22.1660 C   0  0  0  0  0  3  0  0  0  0  0  0
  -22.3890   -7.9860   21.4360 C   0  0  0  0  0  0  0  0  0  0  0  0
  -21.9480   -8.9480   20.5100 C   0  0  0  0  0  3  0  0  0  0  0  0
  -22.6670  -10.1410   20.3190 C   0  0  0  0  0  3  0  0  0  0  0  0
  -21.6390   -6.8390   21.5360 O   0  0  0  0  0  0  0  0  0  0  0  0
  -21.6390   -6.0760   22.6760 C   0  0  0  0  0  0  0  0  0  0  0  0
  -21.2830   -6.6120   23.9340 C   0  0  0  0  0  3  0  0  0  0  0  0
  -21.2310   -5.7750   25.0660 C   0  0  0  0  0  3  0  0  0  0  0  0
  -21.5220   -4.4030   24.9430 C   0  0  0  0  0  0  0  0  0  0  0  0
  -21.8740   -3.8660   23.6920 C   0  0  0  0  0  3  0  0  0  0  0  0
  -21.9300   -4.7010   22.5620 C   0  0  0  0  0  0  0  0  0  0  0  0
  -22.2460   -4.1750   21.3530 F   0  0  0  0  0  0  0  0  0  0  0  0
  -21.4650   -3.5960   26.0280 F   0  0  0  0  0  0  0  0  0  0  0  0
  -22.6840  -13.4830   21.1790 C   0  0  0  0  0  0  0  0  0  0  0  0
  -21.9670  -12.7860   22.0530 N   0  0  0  0  0  0  0  0  0  0  0  0
  -22.2350  -14.5040   20.6600 O   0  0  0  0  0  0  0  0  0  0  0  0
  -22.3420  -11.9620   22.5030 H   0  0  0  0  0  0  0  0  0  0  0  0
  -21.0280  -13.0820   22.2780 H   0  0  0  0  0  0  0  0  0  0  0  0
  -25.3020  -15.1630   20.3310 N   0  0  0  0  0  0  0  0  0  0  0  0
  -24.5340  -15.8170   20.4440 H   0  0  0  0  0  0  0  0  0  0  0  0
  -26.1520  -15.6050   20.0030 H   0  0  0  0  0  0  0  0  0  0  0  0
  -30.5550  -21.4610   18.1390 C   0  0  0  0  0  2  0  0  0  0  0  0
  -30.2060  -22.6820   19.0210 C   0  0  0  0  0  2  0  0  0  0  0  0
  -30.4900  -24.0570   18.3840 C   0  0  0  0  0  2  0  0  0  0  0  0
  -30.0990  -25.2450   19.2850 C   0  0  0  0  0  2  0  0  0  0  0  0
  -28.6210  -25.6630   19.2040 C   0  0  0  0  0  2  0  0  0  0  0  0
  -28.4470  -26.7940   20.0570 O   0  0  0  0  0  0  0  0  0  0  0  0
  -24.6150  -31.8750   23.2100 C   0  0  0  0  0  0  0  0  0  0  0  0
  -27.2370  -27.4530   20.0760 C   0  0  0  0  0  0  0  0  0  0  0  0
  -23.3860  -30.4720   21.5810 C   0  0  0  0  0  3  0  0  0  0  0  0
  -24.8240  -28.9310   20.1400 C   0  0  0  0  0  0  0  0  0  0  0  0
  -25.9080  -30.8280   21.3580 C   0  0  0  0  0  2  0  0  0  0  0  0
  -25.9820  -29.4560   20.7220 C   0  0  0  0  0  0  0  0  0  0  0  0
  -27.1830  -28.7170   20.7030 C   0  0  0  0  0  3  0  0  0  0  0  0
  -26.0550  -26.9270   19.5040 C   0  0  0  0  0  3  0  0  0  0  0  0
  -24.8530  -27.6610   19.5350 C   0  0  0  0  0  3  0  0  0  0  0  0
  -23.5800  -29.7900   20.1980 C   0  0  0  0  0  2  0  0  0  0  0  0
  -24.6530  -31.0750   22.1070 N   0  0  0  0  0  0  0  0  0  0  0  0
  -23.5410  -32.1500   23.7630 O   0  0  0  0  0  0  0  0  0  0  0  0
  -22.7480  -29.4520   22.5520 C   0  0  0  0  0  0  0  0  0  0  0  0
  -21.4230  -29.2690   22.4400 N   0  0  0  0  0  0  0  0  0  0  0  0
  -23.4420  -28.8290   23.3610 O   0  0  0  0  0  0  0  0  0  0  0  0
  -20.9250  -29.8300   21.7620 H   0  0  0  0  0  0  0  0  0  0  0  0
  -18.0520  -28.0780   22.9630 C   0  0  0  0  0  0  0  0  0  0  0  0
  -20.6120  -28.3350   23.2200 C   0  0  0  0  0  3  0  0  0  0  0  0
  -20.7100  -26.9010   22.6460 C   0  0  0  0  0  2  0  0  0  0  0  0
  -19.6020  -26.5780   21.6400 C   0  0  0  0  0  2  0  0  0  0  0  0
  -18.2250  -26.7250   22.2930 C   0  0  0  0  0  2  0  0  0  0  0  0
  -19.1740  -28.8410   23.3830 C   0  0  0  0  0  0  0  0  0  0  0  0
  -18.9610  -30.1070   23.9690 C   0  0  0  0  0  3  0  0  0  0  0  0
  -17.6590  -30.6100   24.1450 C   0  0  0  0  0  3  0  0  0  0  0  0
  -16.5510  -29.8430   23.7430 C   0  0  0  0  0  3  0  0  0  0  0  0
  -16.7480  -28.5810   23.1570 C   0  0  0  0  0  3  0  0  0  0  0  0
  -25.9120  -32.5020   23.8110 C   0  0  0  0  0  3  0  0  0  0  0  0
  -26.4590  -31.7180   25.0670 C   0  0  1  0  0  0  0  0  0  0  0  0
  -25.3940  -31.4620   26.1600 C   0  0  0  0  0  1  0  0  0  0  0  0
  -27.0360  -30.3490   24.6410 C   0  0  0  0  0  1  0  0  0  0  0  0
  -27.6220  -32.5080   25.7110 C   0  0  0  0  0  1  0  0  0  0  0  0
  -25.6090  -33.8960   24.1610 N   0  0  0  0  0  0  0  0  0  0  0  0
  -25.9250  -34.9560   23.4060 C   0  0  0  0  0  0  0  0  0  0  0  0
  -26.5750  -34.8640   22.3610 O   0  0  0  0  0  0  0  0  0  0  0  0
  -25.0340  -34.0440   24.9780 H   0  0  0  0  0  0  0  0  0  0  0  0
  -24.1820  -36.7420   23.1010 C   0  0  0  0  0  1  0  0  0  0  0  0
  -25.4400  -36.3370   23.8860 C   0  0  0  0  0  3  0  0  0  0  0  0
  -27.5880  -37.2210   24.6800 C   0  0  0  0  0  1  0  0  0  0  0  0
  -26.4660  -37.3960   23.7620 N   0  0  0  0  0  0  0  0  0  0  0  0
  -26.0610  -38.3140   23.9300 H   0  0  0  0  0  0  0  0  0  0  0  0
  1  5  1  0
  2  1  1  0
  2 54  1  0
  3  1  2  0
  4  2  1  0
  5  7  1  0
  6  8  2  0
  6 10  1  0
  7  6  1  0
  9  7  1  0
 11 13  2  0
 12 11  1  0
 12 10  1  0
 14 12  1  0
 15 24  1  0
 15 11  1  0
 16 24  1  0
 17 22  1  0
 18 19  1  0
 18 17  1  0
 20 19  1  0
 20 29  1  0
 20 21  1  0
 22 16  1  0
 22 21  1  0
 23 16  2  0
 24 25  1  0
 26 27  2  0
 27 46  1  0
 28 27  1  0
 28 31  1  0
 29 26  1  0
 29 30  1  0
 30 28  2  0
 31 32  1  0
 32 33  2  0
 34 37  1  0
 34 33  1  0
 35 34  2  0
 36 35  1  0
 36 31  2  0
 37 38  1  0
 38 39  1  0
 39 40  2  0
 41 40  1  0
 41 45  1  0
 42 41  2  0
 43 38  2  0
 43 42  1  0
 44 43  1  0
 46 47  1  0
 47 50  1  0
 47 49  1  0
 48 46  2  0
 51 52  1  0
 51 26  1  0
 53 51  1  0
 54 55  1  0
 56 55  1  0
 56 57  1  0
 58 57  1  0
 58 59  1  0
 59 61  1  0
 60 71  2  0
 61 66  1  0
 62 70  1  0
 62 72  1  0
 63 69  1  0
 63 65  1  0
 64 70  1  0
 65 64  1  0
 66 65  2  0
 67 68  1  0
 67 61  2  0
 68 63  2  0
 69 62  1  0
 70 60  1  0
 72 74  2  0
 73 72  1  0
 75 73  1  0
 76 85  2  0
 76 81  1  0
 77 73  1  0
 77 81  1  0
 78 77  1  0
 79 80  1  0
 79 78  1  0
 80 76  1  0
 81 82  2  0
 82 83  1  0
 84 83  2  0
 85 84  1  0
 86 60  1  0
 86 91  1  0
 86 87  1  0
 87 90  1  1
 87 88  1  0
 89 87  1  0
 91 94  1  0
 92 96  1  0
 92 91  1  0
 93 92  2  0
 96 95  1  0
 98 96  1  0
 98 99  1  0
 98 97  1  0
M  ISO  4  16 100  24 100  58 101  59 101
M  END
>  <TORSDO>  (43) 
F 26

>  <SCORE>  (43) 
-11.618

>  <name>  (43) 
46

>  <ligand_id>  (43) 
46

>  <original_smiles>  (43) 
[H]c1c([H])c([H])c2c(c1[H])C([H])([H])C([H])([H])C([H])([H])C2([H])N([H])C(=O)C1([H])N(C(=O)C([H])(N([H])C(=O)C([H])(N([H])C([H])([H])[H])C([H])([H])[H])C(C([H])([H])[H])(C([H])([H])[H])C([H])([H])[H])C([H])([H])c2c([H])c(OC([H])([H])C([H])([H])C([H])([H])C([H])([H])C([H])([H])N([H])C(=O)C([H])([H])N([H])C(=O)C([H])([H])N([H])C(=O)C([H])([H])N([H])C(=O)N3C([H])([H])C([H])([H])C([H])([H])C([H])(n4nc(-c5c([H])c([H])c(Oc6c([H])c([H])c(F)c([H])c6F)c([H])c5[H])c(C(=O)N([H])[H])c4N([H])[H])C3([H])[H])c([H])c([H])c2C1([H])[H]

>  <smiles>  (43) 
[H]c1c([H])c([H])c2c(c1[H])C([H])([H])C([H])([H])C([H])([H])C2([H])N([H])C(=O)C1([H])N(C(=O)C([H])(N([H])C(=O)C([H])(N([H])C([H])([H])[H])C([H])([H])[H])C(C([H])([H])[H])(C([H])([H])[H])C([H])([H])[H])C([H])([H])c2c([H])c(OC([H])([H])C([H])([H])C([H])([H])C([H])([H])C([H])([H])N([H])C(=O)C([H])([H])N([H])C(=O)C([H])([H])N([H])C(=O)C([H])([H])N([H])C(=O)N3C([H])([H])C([H])([H])C([H])([H])C([H])(n4nc(-c5c([H])c([H])c(Oc6c([H])c([H])c(F)c([H])c6F)c([H])c5[H])c(C(=O)N([H])[H])c4N([H])[H])C3([H])[H])c([H])c([H])c2C1([H])[H]

$$$$
47:0:0
     RDKit          3D

109116  0  0  1  0  0  0  0  0999 V2000
  -23.4580  -24.5730   23.6220 N   0  0  0  0  0  4  0  0  0  0  0  0
  -23.6000  -24.2380   22.6840 H   0  0  0  0  0  0  0  0  0  0  0  0
  -23.0670  -23.8170   24.1640 H   0  0  0  0  0  0  0  0  0  0  0  0
  -24.7860  -24.9350   24.1590 C   0  0  0  0  0  2  0  0  0  0  0  0
  -25.8980  -24.7130   23.1170 C   0  0  0  0  0  2  0  0  0  0  0  0
  -25.4020  -24.4920   21.6720 C   0  0  0  0  0  2  0  0  0  0  0  0
  -24.1520  -25.3050   21.2830 C   0  0  0  0  0  2  0  0  0  0  0  0
  -23.5310  -24.8060   19.9710 C   0  0  0  0  0  2  0  0  0  0  0  0
  -22.0680  -25.2460   19.7780 C   0  0  0  0  0  2  0  0  0  0  0  0
  -21.5520  -25.1510   17.3430 C   0  0  0  0  0  0  0  0  0  0  0  0
  -21.5140  -24.6340   18.5770 N   0  0  0  0  0  0  0  0  0  0  0  0
  -21.9440  -26.3000   17.1120 O   0  0  0  0  0  0  0  0  0  0  0  0
  -21.1420  -23.6970   18.6690 H   0  0  0  0  0  0  0  0  0  0  0  0
  -21.1210  -24.2170   16.2070 C   0  0  0  0  0  2  0  0  0  0  0  0
  -21.3460  -24.8390   14.9460 O   0  0  0  0  0  0  0  0  0  0  0  0
  -20.9010  -24.0300   13.8660 C   0  0  0  0  0  2  0  0  0  0  0  0
  -20.7590  -24.8960   12.6140 C   0  0  0  0  0  2  0  0  0  0  0  0
  -22.3320  -25.4860   10.7750 C   0  0  0  0  0  0  0  0  0  0  0  0
  -23.3490  -27.2750    9.4310 C   0  0  0  0  0  2  0  0  0  0  0  0
  -24.4640  -26.8400    8.4710 C   0  0  0  0  0  2  0  0  0  0  0  0
  -25.8180  -26.8210    9.1970 C   0  0  0  0  0  2  0  0  0  0  0  0
  -25.7670  -26.0150   10.5180 C   0  0  0  0  0  3  0  0  0  0  0  0
  -24.5680  -26.4470   11.3930 C   0  0  0  0  0  2  0  0  0  0  0  0
  -23.3330  -26.3750   10.5910 N   0  0  0  0  0  0  0  0  0  0  0  0
  -21.5560  -25.1220    9.8860 O   0  0  0  0  0  0  0  0  0  0  0  0
  -22.0590  -25.2840   12.0670 N   0  0  0  0  0  0  0  0  0  0  0  0
  -22.7340  -25.6410   12.7280 H   0  0  0  0  0  0  0  0  0  0  0  0
  -27.9200  -25.1150   11.6070 C   0  0  0  0  0  0  0  0  0  0  0  0
  -28.9780  -25.7500   12.2030 C   0  0  0  0  0  0  0  0  0  0  0  0
  -28.6730  -27.1440   12.1660 C   0  0  0  0  0  0  0  0  0  0  0  0
  -27.0310  -26.1160   11.2460 N   0  0  0  0  0  0  0  0  0  0  0  0
  -27.4720  -27.3390   11.6360 N   0  0  0  0  0  0  0  0  0  0  0  0
  -29.4790  -28.3100   12.5520 C   0  0  0  0  0  0  0  0  0  0  0  0
  -29.0090  -29.2550   13.4910 C   0  0  0  0  0  3  0  0  0  0  0  0
  -29.8100  -30.3570   13.8600 C   0  0  0  0  0  3  0  0  0  0  0  0
  -31.0960  -30.5220   13.2930 C   0  0  0  0  0  0  0  0  0  0  0  0
  -31.5500  -29.5910   12.3420 C   0  0  0  0  0  3  0  0  0  0  0  0
  -30.7500  -28.4970   11.9710 C   0  0  0  0  0  3  0  0  0  0  0  0
  -31.9330  -31.5760   13.5720 O   0  0  0  0  0  0  0  0  0  0  0  0
  -31.9060  -32.2140   14.7850 C   0  0  0  0  0  0  0  0  0  0  0  0
  -32.1290  -31.5240   15.9960 C   0  0  0  0  0  3  0  0  0  0  0  0
  -32.1600  -32.2320   17.2140 C   0  0  0  0  0  3  0  0  0  0  0  0
  -31.9790  -33.6280   17.2240 C   0  0  0  0  0  0  0  0  0  0  0  0
  -31.7620  -34.3190   16.0170 C   0  0  0  0  0  3  0  0  0  0  0  0
  -31.7290  -33.6130   14.8020 C   0  0  0  0  0  0  0  0  0  0  0  0
  -31.5400  -34.2850   13.6410 F   0  0  0  0  0  0  0  0  0  0  0  0
  -32.0170  -34.3100   18.3920 F   0  0  0  0  0  0  0  0  0  0  0  0
  -30.2450  -25.1080   12.6950 C   0  0  0  0  0  0  0  0  0  0  0  0
  -30.8410  -25.6590   13.7470 N   0  0  0  0  0  0  0  0  0  0  0  0
  -30.6860  -24.0850   12.1750 O   0  0  0  0  0  0  0  0  0  0  0  0
  -30.4670  -26.4870   14.1860 H   0  0  0  0  0  0  0  0  0  0  0  0
  -31.6830  -25.2440   14.1200 H   0  0  0  0  0  0  0  0  0  0  0  0
  -27.6500  -23.7800   11.3260 N   0  0  0  0  0  0  0  0  0  0  0  0
  -28.3070  -23.0360   11.5350 H   0  0  0  0  0  0  0  0  0  0  0  0
  -26.8210  -23.4530   10.8450 H   0  0  0  0  0  0  0  0  0  0  0  0
  -22.5000  -25.6960   23.5570 C   0  0  0  0  0  2  0  0  0  0  0  0
  -21.1510  -25.2470   22.9730 C   0  0  0  0  0  2  0  0  0  0  0  0
  -20.4380  -26.3590   22.1850 C   0  0  0  0  0  2  0  0  0  0  0  0
  -19.0190  -25.9470   21.7650 C   0  0  0  0  0  2  0  0  0  0  0  0
  -18.5980  -26.5420   20.4060 C   0  0  0  0  0  2  0  0  0  0  0  0
  -17.2270  -26.0410   19.9070 C   0  0  0  0  0  2  0  0  0  0  0  0
  -17.0420  -24.5280   20.0820 C   0  0  0  0  0  0  0  0  0  0  0  0
  -16.0000  -24.1360   20.8210 N   0  0  0  0  0  0  0  0  0  0  0  0
  -17.8450  -23.7370   19.5830 O   0  0  0  0  0  0  0  0  0  0  0  0
  -15.3890  -24.8640   21.1640 H   0  0  0  0  0  0  0  0  0  0  0  0
  -15.6730  -22.7690   21.2180 C   0  0  0  0  0  2  0  0  0  0  0  0
  -16.2080  -22.4200   22.6220 C   0  0  0  0  0  2  0  0  0  0  0  0
  -15.8490  -20.9740   23.0530 C   0  0  0  0  0  2  0  0  0  0  0  0
  -15.9550  -20.7290   24.4590 O   0  0  0  0  0  0  0  0  0  0  0  0
  -10.0530  -24.5290   25.7080 C   0  0  0  0  0  0  0  0  0  0  0  0
  -14.8810  -21.0100   25.2800 C   0  0  0  0  0  0  0  0  0  0  0  0
  -11.0020  -23.3260   27.6540 C   0  0  0  0  0  3  0  0  0  0  0  0
  -12.8070  -21.6010   27.1110 C   0  0  0  0  0  0  0  0  0  0  0  0
  -11.3080  -22.4230   25.2870 C   0  0  0  0  0  2  0  0  0  0  0  0
  -12.6230  -21.8350   25.7450 C   0  0  0  0  0  0  0  0  0  0  0  0
  -13.6490  -21.5400   24.8260 C   0  0  0  0  0  3  0  0  0  0  0  0
  -15.0450  -20.7620   26.6610 C   0  0  0  0  0  3  0  0  0  0  0  0
  -14.0170  -21.0600   27.5780 C   0  0  0  0  0  3  0  0  0  0  0  0
  -11.6610  -21.9670   28.0280 C   0  0  0  0  0  2  0  0  0  0  0  0
  -10.7830  -23.4790   26.1810 N   0  0  0  0  0  0  0  0  0  0  0  0
   -9.5200  -25.3360   26.4830 O   0  0  0  0  0  0  0  0  0  0  0  0
  -11.8470  -24.4630   28.2680 C   0  0  0  0  0  0  0  0  0  0  0  0
  -11.6160  -24.7440   29.5600 N   0  0  0  0  0  0  0  0  0  0  0  0
  -12.7080  -25.0450   27.6000 O   0  0  0  0  0  0  0  0  0  0  0  0
  -10.8940  -24.2230   30.0360 H   0  0  0  0  0  0  0  0  0  0  0  0
  -11.6670  -26.3740   32.7800 C   0  0  0  0  0  0  0  0  0  0  0  0
  -12.3210  -25.7440   30.3610 C   0  0  0  0  0  3  0  0  0  0  0  0
  -13.6120  -25.1540   30.9710 C   0  0  0  0  0  2  0  0  0  0  0  0
  -13.4090  -24.5830   32.3780 C   0  0  0  0  0  2  0  0  0  0  0  0
  -12.8960  -25.6690   33.3280 C   0  0  0  0  0  2  0  0  0  0  0  0
  -11.3880  -26.3960   31.3880 C   0  0  0  0  0  0  0  0  0  0  0  0
  -10.2140  -27.0340   30.9330 C   0  0  0  0  0  3  0  0  0  0  0  0
   -9.3320  -27.6480   31.8410 C   0  0  0  0  0  3  0  0  0  0  0  0
   -9.6210  -27.6380   33.2170 C   0  0  0  0  0  3  0  0  0  0  0  0
  -10.7880  -27.0060   33.6820 C   0  0  0  0  0  3  0  0  0  0  0  0
   -9.8290  -24.7530   24.1800 C   0  0  0  0  0  3  0  0  0  0  0  0
  -10.8350  -25.7910   23.5460 C   0  0  1  0  0  0  0  0  0  0  0  0
  -10.8460  -27.1610   24.2630 C   0  0  0  0  0  1  0  0  0  0  0  0
  -12.2800  -25.2350   23.5610 C   0  0  0  0  0  1  0  0  0  0  0  0
  -10.4690  -26.0320   22.0610 C   0  0  0  0  0  1  0  0  0  0  0  0
   -8.4390  -25.1910   23.9960 N   0  0  0  0  0  0  0  0  0  0  0  0
   -7.4240  -24.3840   23.6650 C   0  0  0  0  0  0  0  0  0  0  0  0
   -7.5780  -23.1850   23.4080 O   0  0  0  0  0  0  0  0  0  0  0  0
   -8.2300  -26.1470   24.2450 H   0  0  0  0  0  0  0  0  0  0  0  0
   -5.2840  -24.7430   24.9380 C   0  0  0  0  0  1  0  0  0  0  0  0
   -6.0140  -25.0020   23.6110 C   0  0  0  0  0  3  0  0  0  0  0  0
   -5.6700  -24.9410   21.1800 C   0  0  0  0  0  1  0  0  0  0  0  0
   -5.1950  -24.5000   22.4880 N   0  0  0  0  0  0  0  0  0  0  0  0
   -4.2270  -24.7940   22.5900 H   0  0  0  0  0  0  0  0  0  0  0  0
  1  4  1  0
  1  3  1  0
  2  1  1  0
  5  4  1  0
  6  5  1  0
  7  6  1  0
  8  7  1  0
  9  8  1  0
 10 11  1  0
 11 13  1  0
 11  9  1  0
 12 10  2  0
 14 10  1  0
 15 14  1  0
 16 15  1  0
 17 16  1  0
 18 26  1  0
 19 24  1  0
 20 21  1  0
 20 19  1  0
 22 21  1  0
 22 31  1  0
 22 23  1  0
 24 18  1  0
 24 23  1  0
 25 18  2  0
 26 17  1  0
 26 27  1  0
 28 29  2  0
 29 48  1  0
 30 29  1  0
 30 33  1  0
 31 28  1  0
 31 32  1  0
 32 30  2  0
 33 34  1  0
 34 35  2  0
 36 39  1  0
 36 35  1  0
 37 36  2  0
 38 37  1  0
 38 33  2  0
 39 40  1  0
 40 45  2  0
 40 41  1  0
 41 42  2  0
 42 43  1  0
 43 47  1  0
 44 43  2  0
 45 44  1  0
 46 45  1  0
 48 49  1  0
 49 52  1  0
 49 51  1  0
 50 48  2  0
 53 54  1  0
 53 28  1  0
 55 53  1  0
 56  1  1  0
 57 56  1  0
 58 57  1  0
 59 58  1  0
 60 59  1  0
 61 62  1  0
 61 60  1  0
 62 63  1  0
 63 65  1  0
 63 66  1  0
 64 62  2  0
 66 67  1  0
 67 68  1  0
 68 69  1  0
 69 71  1  0
 70 80  1  0
 70 81  2  0
 71 77  1  0
 72 79  1  0
 72 82  1  0
 73 78  1  0
 73 79  1  0
 74 75  1  0
 74 80  1  0
 75 73  2  0
 76 71  2  0
 76 75  1  0
 77 78  2  0
 80 72  1  0
 82 83  1  0
 83 85  1  0
 84 82  2  0
 86 90  1  0
 86 95  1  0
 87 83  1  0
 87 88  1  0
 87 91  1  0
 88 89  1  0
 89 90  1  0
 91 86  2  0
 92 91  1  0
 92 93  2  0
 93 94  1  0
 94 95  2  0
 96 70  1  0
 97 99  1  6
 97 96  1  0
 97 98  1  0
100 97  1  0
101 96  1  0
101104  1  0
102101  1  0
103102  2  0
106102  1  0
106105  1  0
107108  1  0
108109  1  0
108106  1  0
M  ISO  4  18 100  26 100  68 101  69 101
M  END
>  <TORSDO>  (44) 
F 37

>  <SCORE>  (44) 
-3.194

>  <name>  (44) 
47

>  <ligand_id>  (44) 
47

>  <original_smiles>  (44) 
[H]c1c([H])c([H])c2c(c1[H])C([H])([H])C([H])([H])C([H])([H])C2([H])N([H])C(=O)C1([H])N(C(=O)C([H])(N([H])C(=O)C([H])(N([H])C([H])([H])[H])C([H])([H])[H])C(C([H])([H])[H])(C([H])([H])[H])C([H])([H])[H])C([H])([H])c2c([H])c(OC([H])([H])C([H])([H])C([H])([H])N([H])C(=O)C([H])([H])C([H])([H])C([H])([H])C([H])([H])C([H])([H])C([H])([H])[N+]([H])([H])C([H])([H])C([H])([H])C([H])([H])C([H])([H])C([H])([H])C([H])([H])N([H])C(=O)C([H])([H])OC([H])([H])C([H])([H])N([H])C(=O)N3C([H])([H])C([H])([H])C([H])([H])C([H])(n4nc(-c5c([H])c([H])c(Oc6c([H])c([H])c(F)c([H])c6F)c([H])c5[H])c(C(=O)N([H])[H])c4N([H])[H])C3([H])[H])c([H])c([H])c2C1([H])[H]

>  <smiles>  (44) 
[H]c1c([H])c([H])c2c(c1[H])C([H])([H])C([H])([H])C([H])([H])C2([H])N([H])C(=O)C1([H])N(C(=O)C([H])(N([H])C(=O)C([H])(N([H])C([H])([H])[H])C([H])([H])[H])C(C([H])([H])[H])(C([H])([H])[H])C([H])([H])[H])C([H])([H])c2c([H])c(OC([H])([H])C([H])([H])C([H])([H])N([H])C(=O)C([H])([H])C([H])([H])C([H])([H])C([H])([H])C([H])([H])C([H])([H])[N+]([H])([H])C([H])([H])C([H])([H])C([H])([H])C([H])([H])C([H])([H])C([H])([H])N([H])C(=O)C([H])([H])OC([H])([H])C([H])([H])N([H])C(=O)N3C([H])([H])C([H])([H])C([H])([H])C([H])(n4nc(-c5c([H])c([H])c(Oc6c([H])c([H])c(F)c([H])c6F)c([H])c5[H])c(C(=O)N([H])[H])c4N([H])[H])C3([H])[H])c([H])c([H])c2C1([H])[H]

$$$$
48:0:0
     RDKit          3D

103110  0  0  1  0  0  0  0  0999 V2000
  -27.4120  -23.8930   15.5640 C   0  0  0  0  0  2  0  0  0  0  0  0
  -26.8400  -23.5140   17.9450 C   0  0  0  0  0  0  0  0  0  0  0  0
  -27.6330  -23.3090   16.8860 N   0  0  0  0  0  0  0  0  0  0  0  0
  -25.7900  -24.1530   17.8680 O   0  0  0  0  0  0  0  0  0  0  0  0
  -28.4220  -22.6910   17.0120 H   0  0  0  0  0  0  0  0  0  0  0  0
  -27.2840  -22.9550   19.2990 C   0  0  0  0  0  2  0  0  0  0  0  0
  -28.5770  -24.5630   20.6990 C   0  0  0  0  0  0  0  0  0  0  0  0
  -27.4270  -24.0680   20.2290 N   0  0  0  0  0  0  0  0  0  0  0  0
  -29.6570  -23.9930   20.5620 O   0  0  0  0  0  0  0  0  0  0  0  0
  -26.5920  -24.6230   20.3690 H   0  0  0  0  0  0  0  0  0  0  0  0
  -28.5080  -25.9290   21.3900 C   0  0  0  0  0  2  0  0  0  0  0  0
  -28.5380  -26.9520   20.3860 O   0  0  0  0  0  0  0  0  0  0  0  0
  -24.5980  -32.0040   23.3930 C   0  0  0  0  0  0  0  0  0  0  0  0
  -27.3760  -27.6780   20.3270 C   0  0  0  0  0  0  0  0  0  0  0  0
  -23.4370  -30.6050   21.7050 C   0  0  0  0  0  3  0  0  0  0  0  0
  -24.9520  -29.1040   20.3030 C   0  0  0  0  0  0  0  0  0  0  0  0
  -25.9580  -31.0180   21.5590 C   0  0  0  0  0  2  0  0  0  0  0  0
  -26.0820  -29.6560   20.9160 C   0  0  0  0  0  0  0  0  0  0  0  0
  -27.3020  -28.9470   20.9290 C   0  0  0  0  0  3  0  0  0  0  0  0
  -26.2360  -27.1400   19.6970 C   0  0  0  0  0  3  0  0  0  0  0  0
  -25.0170  -27.8360   19.7000 C   0  0  0  0  0  3  0  0  0  0  0  0
  -23.6950  -29.9370   20.3260 C   0  0  0  0  0  2  0  0  0  0  0  0
  -24.6800  -31.2200   22.2810 N   0  0  0  0  0  0  0  0  0  0  0  0
  -23.5050  -32.2410   23.9240 O   0  0  0  0  0  0  0  0  0  0  0  0
  -22.7900  -29.5620   22.6430 C   0  0  0  0  0  0  0  0  0  0  0  0
  -21.4720  -29.3390   22.4860 N   0  0  0  0  0  0  0  0  0  0  0  0
  -23.4740  -28.9560   23.4740 O   0  0  0  0  0  0  0  0  0  0  0  0
  -20.9710  -29.8910   21.8030 H   0  0  0  0  0  0  0  0  0  0  0  0
  -18.1380  -28.0190   22.8620 C   0  0  0  0  0  0  0  0  0  0  0  0
  -20.6710  -28.3660   23.2280 C   0  0  0  0  0  3  0  0  0  0  0  0
  -20.8490  -26.9380   22.6500 C   0  0  0  0  0  2  0  0  0  0  0  0
  -19.7960  -26.5840   21.5940 C   0  0  0  0  0  2  0  0  0  0  0  0
  -18.3870  -26.6800   22.1900 C   0  0  0  0  0  2  0  0  0  0  0  0
  -19.2110  -28.8180   23.3370 C   0  0  0  0  0  0  0  0  0  0  0  0
  -18.9320  -30.0770   23.9180 C   0  0  0  0  0  3  0  0  0  0  0  0
  -17.6080  -30.5410   24.0140 C   0  0  0  0  0  3  0  0  0  0  0  0
  -16.5480  -29.7360   23.5630 C   0  0  0  0  0  3  0  0  0  0  0  0
  -16.8100  -28.4780   22.9940 C   0  0  0  0  0  3  0  0  0  0  0  0
  -25.8620  -32.6470   24.0410 C   0  0  0  0  0  3  0  0  0  0  0  0
  -26.3410  -31.9020   25.3450 C   0  0  1  0  0  0  0  0  0  0  0  0
  -25.2160  -31.6910   26.3860 C   0  0  0  0  0  1  0  0  0  0  0  0
  -26.9310  -30.5150   24.9970 C   0  0  0  0  0  1  0  0  0  0  0  0
  -27.4760  -32.7040   26.0210 C   0  0  0  0  0  1  0  0  0  0  0  0
  -25.5510  -34.0560   24.3200 N   0  0  0  0  0  0  0  0  0  0  0  0
  -25.9220  -35.0850   23.5430 C   0  0  0  0  0  0  0  0  0  0  0  0
  -26.6260  -34.9450   22.5410 O   0  0  0  0  0  0  0  0  0  0  0  0
  -24.9370  -34.2360   25.1010 H   0  0  0  0  0  0  0  0  0  0  0  0
  -24.2270  -36.8700   23.0400 C   0  0  0  0  0  1  0  0  0  0  0  0
  -25.4250  -36.4920   23.9300 C   0  0  0  0  0  3  0  0  0  0  0  0
  -27.5260  -37.3700   24.8430 C   0  0  0  0  0  1  0  0  0  0  0  0
  -26.4720  -37.5350   23.8450 N   0  0  0  0  0  0  0  0  0  0  0  0
  -26.0670  -38.4590   23.9700 H   0  0  0  0  0  0  0  0  0  0  0  0
  -28.0860  -25.2840   15.4270 C   0  0  0  0  0  2  0  0  0  0  0  0
  -29.4630  -25.2860   14.7100 C   0  0  0  0  0  2  0  0  0  0  0  0
  -30.6540  -25.8660   15.5130 C   0  0  0  0  0  2  0  0  0  0  0  0
  -30.9460  -25.1530   16.7780 N   0  0  0  0  0  4  0  0  0  0  0  0
  -31.6510  -25.6720   17.2800 H   0  0  0  0  0  0  0  0  0  0  0  0
  -30.1160  -25.1670   17.3480 H   0  0  0  0  0  0  0  0  0  0  0  0
  -31.4330  -23.7600   16.6600 C   0  0  0  0  0  2  0  0  0  0  0  0
  -31.0040  -22.9610   17.9030 C   0  0  0  0  0  2  0  0  0  0  0  0
  -31.2440  -21.4420   17.8650 C   0  0  0  0  0  2  0  0  0  0  0  0
  -30.4070  -20.6790   18.9230 C   0  0  0  0  0  2  0  0  0  0  0  0
  -30.9950  -19.3060   19.3250 C   0  0  0  0  0  2  0  0  0  0  0  0
  -30.0040  -18.3380   20.0300 C   0  0  0  0  0  2  0  0  0  0  0  0
  -30.6630  -17.3790   21.0620 C   0  0  0  0  0  2  0  0  0  0  0  0
  -30.8690  -14.9360   20.5480 C   0  0  0  0  0  0  0  0  0  0  0  0
  -30.5940  -12.7750   19.3970 C   0  0  0  0  0  2  0  0  0  0  0  0
  -29.7020  -13.0000   18.1600 C   0  0  0  0  0  2  0  0  0  0  0  0
  -28.2120  -12.8580   18.5350 C   0  0  0  0  0  2  0  0  0  0  0  0
  -27.8300  -13.6780   19.7970 C   0  0  0  0  0  3  0  0  0  0  0  0
  -28.8520  -13.4670   20.9380 C   0  0  0  0  0  2  0  0  0  0  0  0
  -30.1900  -13.7660   20.4070 N   0  0  0  0  0  0  0  0  0  0  0  0
  -32.0190  -15.0890   20.1390 O   0  0  0  0  0  0  0  0  0  0  0  0
  -30.1620  -15.9920   21.0060 N   0  0  0  0  0  0  0  0  0  0  0  0
  -29.2140  -15.8210   21.3040 H   0  0  0  0  0  0  0  0  0  0  0  0
  -25.3940  -14.2450   20.4060 C   0  0  0  0  0  0  0  0  0  0  0  0
  -24.3270  -13.4550   20.7540 C   0  0  0  0  0  0  0  0  0  0  0  0
  -24.8190  -12.1140   20.7680 C   0  0  0  0  0  0  0  0  0  0  0  0
  -26.4650  -13.3810   20.2330 N   0  0  0  0  0  0  0  0  0  0  0  0
  -26.1210  -12.0960   20.5080 N   0  0  0  0  0  0  0  0  0  0  0  0
  -24.1090  -10.8400   20.9580 C   0  0  0  0  0  0  0  0  0  0  0  0
  -24.5200   -9.9040   21.9330 C   0  0  0  0  0  3  0  0  0  0  0  0
  -23.8120   -8.6930   22.1080 C   0  0  0  0  0  3  0  0  0  0  0  0
  -22.6800   -8.4110   21.3080 C   0  0  0  0  0  0  0  0  0  0  0  0
  -22.2920   -9.3340   20.3200 C   0  0  0  0  0  3  0  0  0  0  0  0
  -23.0010  -10.5340   20.1440 C   0  0  0  0  0  3  0  0  0  0  0  0
  -21.9470   -7.2510   21.3920 O   0  0  0  0  0  0  0  0  0  0  0  0
  -21.8490   -6.5440   22.5630 C   0  0  0  0  0  0  0  0  0  0  0  0
  -21.3270   -7.1230   23.7430 C   0  0  0  0  0  3  0  0  0  0  0  0
  -21.1790   -6.3400   24.9050 C   0  0  0  0  0  3  0  0  0  0  0  0
  -21.5410   -4.9790   24.8900 C   0  0  0  0  0  0  0  0  0  0  0  0
  -22.0530   -4.4010   23.7180 C   0  0  0  0  0  3  0  0  0  0  0  0
  -22.2050   -5.1800   22.5570 C   0  0  0  0  0  0  0  0  0  0  0  0
  -22.6810   -4.6120   21.4230 F   0  0  0  0  0  0  0  0  0  0  0  0
  -21.3920   -4.2270   26.0050 F   0  0  0  0  0  0  0  0  0  0  0  0
  -22.9090  -13.9060   20.9580 C   0  0  0  0  0  0  0  0  0  0  0  0
  -22.1620  -13.2090   21.8110 N   0  0  0  0  0  0  0  0  0  0  0  0
  -22.4700  -14.9090   20.4010 O   0  0  0  0  0  0  0  0  0  0  0  0
  -22.5270  -12.4000   22.2890 H   0  0  0  0  0  0  0  0  0  0  0  0
  -21.2080  -13.4870   21.9890 H   0  0  0  0  0  0  0  0  0  0  0  0
  -25.5430  -15.6120   20.2060 N   0  0  0  0  0  0  0  0  0  0  0  0
  -24.7660  -16.2630   20.2570 H   0  0  0  0  0  0  0  0  0  0  0  0
  -26.4020  -16.0470   19.8970 H   0  0  0  0  0  0  0  0  0  0  0  0
  1  3  1  0
  2  6  1  0
  3  5  1  0
  3  2  1  0
  4  2  2  0
  6  8  1  0
  7 11  1  0
  8 10  1  0
  8  7  1  0
  9  7  2  0
 12 11  1  0
 13 24  2  0
 14 12  1  0
 14 19  1  0
 15 23  1  0
 15 25  1  0
 16 22  1  0
 16 18  1  0
 17 23  1  0
 18 19  2  0
 18 17  1  0
 20 21  1  0
 20 14  2  0
 21 16  2  0
 22 15  1  0
 23 13  1  0
 25 27  2  0
 26 25  1  0
 28 26  1  0
 29 38  2  0
 29 34  1  0
 30 26  1  0
 30 34  1  0
 31 30  1  0
 32 33  1  0
 32 31  1  0
 33 29  1  0
 34 35  2  0
 35 36  1  0
 37 36  2  0
 38 37  1  0
 39 13  1  0
 39 44  1  0
 39 40  1  0
 40 43  1  1
 40 41  1  0
 42 40  1  0
 44 47  1  0
 45 49  1  0
 45 44  1  0
 46 45  2  0
 49 48  1  0
 51 49  1  0
 51 52  1  0
 51 50  1  0
 53  1  1  0
 54 53  1  0
 54 55  1  0
 55 56  1  0
 56 57  1  0
 56 58  1  0
 59 56  1  0
 59 60  1  0
 61 60  1  0
 61 62  1  0
 62 63  1  0
 63 64  1  0
 64 65  1  0
 66 74  1  0
 67 72  1  0
 68 69  1  0
 68 67  1  0
 70 69  1  0
 70 79  1  0
 70 71  1  0
 72 66  1  0
 72 71  1  0
 73 66  2  0
 74 65  1  0
 74 75  1  0
 76 77  2  0
 77 78  1  0
 77 96  1  0
 78 81  1  0
 79 76  1  0
 79 80  1  0
 80 78  2  0
 81 82  1  0
 82 83  2  0
 84 87  1  0
 84 83  1  0
 85 84  2  0
 86 85  1  0
 86 81  2  0
 87 88  1  0
 88 89  1  0
 89 90  2  0
 91 90  1  0
 91 95  1  0
 92 91  2  0
 93 88  2  0
 93 92  1  0
 94 93  1  0
 96 97  1  0
 97100  1  0
 97 99  1  0
 98 96  2  0
101102  1  0
101 76  1  0
103101  1  0
M  ISO  4  11 101  12 101  66 100  74 100
M  END
>  <TORSDO>  (45) 
F 31

>  <SCORE>  (45) 
-9.075

>  <name>  (45) 
48

>  <ligand_id>  (45) 
48

>  <original_smiles>  (45) 
[H]c1c([H])c([H])c2c(c1[H])C([H])([H])C([H])([H])C([H])([H])C2([H])N([H])C(=O)C1([H])N(C(=O)C([H])(N([H])C(=O)C([H])(N([H])C([H])([H])[H])C([H])([H])[H])C(C([H])([H])[H])(C([H])([H])[H])C([H])([H])[H])C([H])([H])c2c([H])c(OC([H])([H])C(=O)N([H])C([H])([H])C(=O)N([H])C([H])([H])C([H])([H])C([H])([H])C([H])([H])[N+]([H])([H])C([H])([H])C([H])([H])C([H])([H])C([H])([H])C([H])([H])C([H])([H])C([H])([H])N([H])C(=O)N3C([H])([H])C([H])([H])C([H])([H])C([H])(n4nc(-c5c([H])c([H])c(Oc6c([H])c([H])c(F)c([H])c6F)c([H])c5[H])c(C(=O)N([H])[H])c4N([H])[H])C3([H])[H])c([H])c([H])c2C1([H])[H]

>  <smiles>  (45) 
[H]c1c([H])c([H])c2c(c1[H])C([H])([H])C([H])([H])C([H])([H])C2([H])N([H])C(=O)C1([H])N(C(=O)C([H])(N([H])C(=O)C([H])(N([H])C([H])([H])[H])C([H])([H])[H])C(C([H])([H])[H])(C([H])([H])[H])C([H])([H])[H])C([H])([H])c2c([H])c(OC([H])([H])C(=O)N([H])C([H])([H])C(=O)N([H])C([H])([H])C([H])([H])C([H])([H])C([H])([H])[N+]([H])([H])C([H])([H])C([H])([H])C([H])([H])C([H])([H])C([H])([H])C([H])([H])C([H])([H])N([H])C(=O)N3C([H])([H])C([H])([H])C([H])([H])C([H])(n4nc(-c5c([H])c([H])c(Oc6c([H])c([H])c(F)c([H])c6F)c([H])c5[H])c(C(=O)N([H])[H])c4N([H])[H])C3([H])[H])c([H])c([H])c2C1([H])[H]

$$$$
49:0:0
     RDKit          3D

109116  0  0  1  0  0  0  0  0999 V2000
  -33.1760  -26.5480   18.7520 C   0  0  0  0  0  2  0  0  0  0  0  0
  -33.3170  -27.9120   19.4500 C   0  0  0  0  0  2  0  0  0  0  0  0
  -33.9760  -28.9900   18.5670 C   0  0  0  0  0  2  0  0  0  0  0  0
  -32.2590  -29.7280   16.9240 C   0  0  0  0  0  0  0  0  0  0  0  0
  -33.3630  -29.0440   17.2410 N   0  0  0  0  0  0  0  0  0  0  0  0
  -31.7380  -30.5470   17.6830 O   0  0  0  0  0  0  0  0  0  0  0  0
  -33.7640  -28.4430   16.5340 H   0  0  0  0  0  0  0  0  0  0  0  0
  -31.6140  -29.4000   15.5740 C   0  0  0  0  0  2  0  0  0  0  0  0
  -30.1090  -29.0530   15.6570 C   0  0  0  0  0  2  0  0  0  0  0  0
  -29.8040  -27.7740   16.3480 N   0  0  0  0  0  4  0  0  0  0  0  0
  -30.5700  -27.1280   16.2280 H   0  0  0  0  0  0  0  0  0  0  0  0
  -29.0160  -27.3720   15.8610 H   0  0  0  0  0  0  0  0  0  0  0  0
  -29.4210  -27.9110   17.7780 C   0  0  0  0  0  2  0  0  0  0  0  0
  -29.0720  -26.5630   18.4440 C   0  0  0  0  0  2  0  0  0  0  0  0
  -28.6360  -26.7400   19.7970 O   0  0  0  0  0  0  0  0  0  0  0  0
  -24.6870  -31.6960   23.0450 C   0  0  0  0  0  0  0  0  0  0  0  0
  -27.4240  -27.3740   19.9050 C   0  0  0  0  0  0  0  0  0  0  0  0
  -23.5110  -30.3000   21.3760 C   0  0  0  0  0  3  0  0  0  0  0  0
  -24.9960  -28.7970   19.9510 C   0  0  0  0  0  0  0  0  0  0  0  0
  -26.0280  -30.7030   21.2000 C   0  0  0  0  0  2  0  0  0  0  0  0
  -26.1370  -29.3400   20.5550 C   0  0  0  0  0  0  0  0  0  0  0  0
  -27.3530  -28.6250   20.5480 C   0  0  0  0  0  3  0  0  0  0  0  0
  -26.2640  -26.8210   19.3240 C   0  0  0  0  0  3  0  0  0  0  0  0
  -25.0480  -27.5280   19.3470 C   0  0  0  0  0  3  0  0  0  0  0  0
  -23.7400  -29.6380   19.9900 C   0  0  0  0  0  2  0  0  0  0  0  0
  -24.7590  -30.9140   21.9310 N   0  0  0  0  0  0  0  0  0  0  0  0
  -23.5990  -31.9430   23.5820 O   0  0  0  0  0  0  0  0  0  0  0  0
  -22.8700  -29.2540   22.3160 C   0  0  0  0  0  0  0  0  0  0  0  0
  -21.5400  -29.0990   22.2180 N   0  0  0  0  0  0  0  0  0  0  0  0
  -23.5650  -28.5860   23.0870 O   0  0  0  0  0  0  0  0  0  0  0  0
  -21.0420  -29.6890   21.5660 H   0  0  0  0  0  0  0  0  0  0  0  0
  -18.1540  -27.9960   22.8150 C   0  0  0  0  0  0  0  0  0  0  0  0
  -20.7280  -28.1500   22.9770 C   0  0  0  0  0  3  0  0  0  0  0  0
  -20.7520  -26.7490   22.3220 C   0  0  0  0  0  2  0  0  0  0  0  0
  -19.5940  -26.5200   21.3450 C   0  0  0  0  0  2  0  0  0  0  0  0
  -18.2500  -26.6790   22.0610 C   0  0  0  0  0  2  0  0  0  0  0  0
  -19.3180  -28.6950   23.2290 C   0  0  0  0  0  0  0  0  0  0  0  0
  -19.1760  -29.9320   23.8920 C   0  0  0  0  0  3  0  0  0  0  0  0
  -17.9000  -30.4700   24.1450 C   0  0  0  0  0  3  0  0  0  0  0  0
  -16.7500  -29.7660   23.7460 C   0  0  0  0  0  3  0  0  0  0  0  0
  -16.8790  -28.5310   23.0870 C   0  0  0  0  0  3  0  0  0  0  0  0
  -25.9610  -32.3360   23.6790 C   0  0  0  0  0  3  0  0  0  0  0  0
  -26.5200  -31.5220   24.9110 C   0  0  1  0  0  0  0  0  0  0  0  0
  -25.4530  -31.2000   25.9840 C   0  0  0  0  0  1  0  0  0  0  0  0
  -27.1360  -30.1820   24.4450 C   0  0  0  0  0  1  0  0  0  0  0  0
  -27.6550  -32.3210   25.5940 C   0  0  0  0  0  1  0  0  0  0  0  0
  -25.6140  -33.7060   24.0760 N   0  0  0  0  0  0  0  0  0  0  0  0
  -25.9020  -34.8000   23.3590 C   0  0  0  0  0  0  0  0  0  0  0  0
  -26.5600  -34.7640   22.3150 O   0  0  0  0  0  0  0  0  0  0  0  0
  -25.0250  -33.8020   24.8900 H   0  0  0  0  0  0  0  0  0  0  0  0
  -24.1140  -36.5530   23.0980 C   0  0  0  0  0  1  0  0  0  0  0  0
  -25.3730  -36.1500   23.8800 C   0  0  0  0  0  3  0  0  0  0  0  0
  -27.4870  -37.0650   24.7340 C   0  0  0  0  0  1  0  0  0  0  0  0
  -26.3700  -37.2420   23.8090 N   0  0  0  0  0  0  0  0  0  0  0  0
  -25.9350  -38.1380   24.0090 H   0  0  0  0  0  0  0  0  0  0  0  0
  -32.6120  -25.4580   19.6740 C   0  0  0  0  0  2  0  0  0  0  0  0
  -31.1000  -23.5890   19.0440 C   0  0  0  0  0  0  0  0  0  0  0  0
  -32.2350  -24.2800   18.8960 N   0  0  0  0  0  0  0  0  0  0  0  0
  -30.2450  -23.8940   19.8810 O   0  0  0  0  0  0  0  0  0  0  0  0
  -32.8930  -23.9500   18.2010 H   0  0  0  0  0  0  0  0  0  0  0  0
  -30.8710  -22.3920   18.1080 C   0  0  0  0  0  2  0  0  0  0  0  0
  -30.3190  -20.5870   19.7040 C   0  0  0  0  0  0  0  0  0  0  0  0
  -29.9680  -21.4130   18.7130 N   0  0  0  0  0  0  0  0  0  0  0  0
  -31.4930  -20.4560   20.0680 O   0  0  0  0  0  0  0  0  0  0  0  0
  -28.9890  -21.4750   18.4650 H   0  0  0  0  0  0  0  0  0  0  0  0
  -29.1930  -19.8330   20.4170 C   0  0  0  0  0  2  0  0  0  0  0  0
  -29.7780  -17.4770   20.9170 C   0  0  0  0  0  0  0  0  0  0  0  0
  -29.7550  -18.7690   21.2430 N   0  0  0  0  0  0  0  0  0  0  0  0
  -29.1740  -17.0310   19.9390 O   0  0  0  0  0  0  0  0  0  0  0  0
  -30.3210  -19.0680   22.0260 H   0  0  0  0  0  0  0  0  0  0  0  0
  -30.6030  -16.5590   21.8300 C   0  0  0  0  0  2  0  0  0  0  0  0
  -30.8040  -14.3980   20.6220 C   0  0  0  0  0  0  0  0  0  0  0  0
  -30.4480  -12.3870   19.2430 C   0  0  0  0  0  2  0  0  0  0  0  0
  -29.5040  -12.7110   18.0690 C   0  0  0  0  0  2  0  0  0  0  0  0
  -28.0290  -12.5640   18.4910 C   0  0  0  0  0  2  0  0  0  0  0  0
  -27.7110  -13.3120   19.8130 C   0  0  0  0  0  3  0  0  0  0  0  0
  -28.7560  -12.9560   20.8940 C   0  0  0  0  0  2  0  0  0  0  0  0
  -30.0980  -13.2680   20.3650 N   0  0  0  0  0  0  0  0  0  0  0  0
  -31.8230  -14.7290   20.0080 O   0  0  0  0  0  0  0  0  0  0  0  0
  -30.2900  -15.1540   21.5980 N   0  0  0  0  0  0  0  0  0  0  0  0
  -29.4730  -14.7900   22.0640 H   0  0  0  0  0  0  0  0  0  0  0  0
  -25.2960  -13.9120   20.4900 C   0  0  0  0  0  0  0  0  0  0  0  0
  -24.2280  -13.1360   20.8580 C   0  0  0  0  0  0  0  0  0  0  0  0
  -24.6980  -11.7860   20.8350 C   0  0  0  0  0  0  0  0  0  0  0  0
  -26.3490  -13.0360   20.2710 N   0  0  0  0  0  0  0  0  0  0  0  0
  -25.9890  -11.7520   20.5300 N   0  0  0  0  0  0  0  0  0  0  0  0
  -23.9770  -10.5200   21.0260 C   0  0  0  0  0  0  0  0  0  0  0  0
  -24.4070   -9.5620   21.9700 C   0  0  0  0  0  3  0  0  0  0  0  0
  -23.6900   -8.3590   22.1480 C   0  0  0  0  0  3  0  0  0  0  0  0
  -22.5270   -8.1080   21.3810 C   0  0  0  0  0  0  0  0  0  0  0  0
  -22.1160   -9.0550   20.4270 C   0  0  0  0  0  3  0  0  0  0  0  0
  -22.8350  -10.2490   20.2470 C   0  0  0  0  0  3  0  0  0  0  0  0
  -21.7790   -6.9590   21.4680 O   0  0  0  0  0  0  0  0  0  0  0  0
  -21.7220   -6.2230   22.6250 C   0  0  0  0  0  0  0  0  0  0  0  0
  -21.2750   -6.7820   23.8420 C   0  0  0  0  0  3  0  0  0  0  0  0
  -21.1680   -5.9720   24.9900 C   0  0  0  0  0  3  0  0  0  0  0  0
  -21.4960   -4.6040   24.9220 C   0  0  0  0  0  0  0  0  0  0  0  0
  -21.9350   -4.0460   23.7090 C   0  0  0  0  0  3  0  0  0  0  0  0
  -22.0460   -4.8540   22.5640 C   0  0  0  0  0  0  0  0  0  0  0  0
  -22.4510   -4.3070   21.3920 F   0  0  0  0  0  0  0  0  0  0  0  0
  -21.3850   -3.8240   26.0220 F   0  0  0  0  0  0  0  0  0  0  0  0
  -22.8270  -13.6060   21.1220 C   0  0  0  0  0  0  0  0  0  0  0  0
  -22.0940  -12.9090   21.9840 N   0  0  0  0  0  0  0  0  0  0  0  0
  -22.3870  -14.6290   20.5970 O   0  0  0  0  0  0  0  0  0  0  0  0
  -22.4600  -12.0830   22.4340 H   0  0  0  0  0  0  0  0  0  0  0  0
  -21.1530  -13.2060   22.2010 H   0  0  0  0  0  0  0  0  0  0  0  0
  -25.4530  -15.2830   20.3060 N   0  0  0  0  0  0  0  0  0  0  0  0
  -24.6730  -15.9270   20.3860 H   0  0  0  0  0  0  0  0  0  0  0  0
  -26.3010  -15.7220   19.9730 H   0  0  0  0  0  0  0  0  0  0  0  0
  1  2  1  0
  1 56  1  0
  3  2  1  0
  4  5  1  0
  4  6  2  0
  5  3  1  0
  7  5  1  0
  8  9  1  0
  8  4  1  0
  9 10  1  0
 10 13  1  0
 11 10  1  0
 12 10  1  0
 13 14  1  0
 14 15  1  0
 15 17  1  0
 16 27  2  0
 17 22  1  0
 18 26  1  0
 18 28  1  0
 19 25  1  0
 19 21  1  0
 20 26  1  0
 21 20  1  0
 22 21  2  0
 23 24  1  0
 23 17  2  0
 24 19  2  0
 25 18  1  0
 26 16  1  0
 28 30  2  0
 29 28  1  0
 31 29  1  0
 32 41  2  0
 32 37  1  0
 33 29  1  0
 33 37  1  0
 34 33  1  0
 35 36  1  0
 35 34  1  0
 36 32  1  0
 37 38  2  0
 38 39  1  0
 40 39  2  0
 41 40  1  0
 42 16  1  0
 42 47  1  0
 42 43  1  0
 43 46  1  1
 43 44  1  0
 45 43  1  0
 47 50  1  0
 48 52  1  0
 48 47  1  0
 49 48  2  0
 52 51  1  0
 54 52  1  0
 54 55  1  0
 54 53  1  0
 57 59  2  0
 58 57  1  0
 58 56  1  0
 60 58  1  0
 61 63  1  0
 61 57  1  0
 62 64  2  0
 62 66  1  0
 63 62  1  0
 65 63  1  0
 66 68  1  0
 67 68  1  0
 67 71  1  0
 68 70  1  0
 69 67  2  0
 72 80  1  0
 73 78  1  0
 74 75  1  0
 74 73  1  0
 76 75  1  0
 76 85  1  0
 76 77  1  0
 78 72  1  0
 78 77  1  0
 79 72  2  0
 80 71  1  0
 80 81  1  0
 82 83  2  0
 83102  1  0
 84 83  1  0
 84 87  1  0
 85 82  1  0
 85 86  1  0
 86 84  2  0
 87 88  1  0
 88 89  2  0
 90 93  1  0
 90 89  1  0
 91 90  2  0
 92 91  1  0
 92 87  2  0
 93 94  1  0
 94 95  1  0
 95 96  2  0
 97 96  1  0
 97101  1  0
 98 97  2  0
 99 94  2  0
 99 98  1  0
100 99  1  0
102103  1  0
103106  1  0
103105  1  0
104102  2  0
107108  1  0
107 82  1  0
109107  1  0
M  ISO  4  14 101  15 101  72 100  80 100
M  END
>  <TORSDO>  (46) 
F 31

>  <SCORE>  (46) 
-10.806

>  <name>  (46) 
49

>  <ligand_id>  (46) 
49

>  <original_smiles>  (46) 
[H]c1c([H])c([H])c2c(c1[H])C([H])([H])C([H])([H])C([H])([H])C2([H])N([H])C(=O)C1([H])N(C(=O)C([H])(N([H])C(=O)C([H])(N([H])C([H])([H])[H])C([H])([H])[H])C(C([H])([H])[H])(C([H])([H])[H])C([H])([H])[H])C([H])([H])c2c([H])c(OC([H])([H])C([H])([H])[N+]([H])([H])C([H])([H])C([H])([H])C(=O)N([H])C([H])([H])C([H])([H])C([H])([H])C([H])([H])N([H])C(=O)C([H])([H])N([H])C(=O)C([H])([H])N([H])C(=O)C([H])([H])N([H])C(=O)N3C([H])([H])C([H])([H])C([H])([H])C([H])(n4nc(-c5c([H])c([H])c(Oc6c([H])c([H])c(F)c([H])c6F)c([H])c5[H])c(C(=O)N([H])[H])c4N([H])[H])C3([H])[H])c([H])c([H])c2C1([H])[H]

>  <smiles>  (46) 
[H]c1c([H])c([H])c2c(c1[H])C([H])([H])C([H])([H])C([H])([H])C2([H])N([H])C(=O)C1([H])N(C(=O)C([H])(N([H])C(=O)C([H])(N([H])C([H])([H])[H])C([H])([H])[H])C(C([H])([H])[H])(C([H])([H])[H])C([H])([H])[H])C([H])([H])c2c([H])c(OC([H])([H])C([H])([H])[N+]([H])([H])C([H])([H])C([H])([H])C(=O)N([H])C([H])([H])C([H])([H])C([H])([H])C([H])([H])N([H])C(=O)C([H])([H])N([H])C(=O)C([H])([H])N([H])C(=O)C([H])([H])N([H])C(=O)N3C([H])([H])C([H])([H])C([H])([H])C([H])(n4nc(-c5c([H])c([H])c(Oc6c([H])c([H])c(F)c([H])c6F)c([H])c5[H])c(C(=O)N([H])[H])c4N([H])[H])C3([H])[H])c([H])c([H])c2C1([H])[H]

$$$$
50:0:0
     RDKit          3D

103110  0  0  1  0  0  0  0  0999 V2000
  -30.1380  -21.6280   22.7000 N   0  0  0  0  0  0  0  0  0  0  0  0
  -31.6250  -21.1550   24.6510 C   0  0  0  0  0  1  0  0  0  0  0  0
  -30.3120  -20.8310   23.9220 C   0  0  0  0  0  2  0  0  0  0  0  0
  -28.7310  -21.5430   22.2790 C   0  0  0  0  0  2  0  0  0  0  0  0
  -27.8870  -22.7470   22.7640 C   0  0  0  0  0  2  0  0  0  0  0  0
  -27.4880  -23.6580   21.6700 N   0  0  0  0  0  4  0  0  0  0  0  0
  -27.0400  -23.1020   20.9600 H   0  0  0  0  0  0  0  0  0  0  0  0
  -26.7830  -24.2810   22.0370 H   0  0  0  0  0  0  0  0  0  0  0  0
  -28.5480  -24.4770   21.0390 C   0  0  0  0  0  2  0  0  0  0  0  0
  -27.9530  -25.3240   19.8970 C   0  0  0  0  0  2  0  0  0  0  0  0
  -28.9330  -26.2960   19.2080 C   0  0  0  0  0  2  0  0  0  0  0  0
  -28.3050  -26.9620   18.1070 O   0  0  0  0  0  0  0  0  0  0  0  0
  -24.5600  -30.9320   22.6650 C   0  0  0  0  0  0  0  0  0  0  0  0
  -27.1180  -27.5800   18.4090 C   0  0  0  0  0  0  0  0  0  0  0  0
  -23.2600  -29.8140   20.8800 C   0  0  0  0  0  3  0  0  0  0  0  0
  -24.6370  -28.7750   18.9980 C   0  0  0  0  0  0  0  0  0  0  0  0
  -25.7040  -30.4610   20.5060 C   0  0  0  0  0  2  0  0  0  0  0  0
  -25.8110  -29.2770   19.5740 C   0  0  0  0  0  0  0  0  0  0  0  0
  -27.0570  -28.6810   19.2870 C   0  0  0  0  0  3  0  0  0  0  0  0
  -25.9330  -27.0900   17.8220 C   0  0  0  0  0  3  0  0  0  0  0  0
  -24.6890  -27.6760   18.1230 C   0  0  0  0  0  3  0  0  0  0  0  0
  -23.3470  -29.4750   19.3660 C   0  0  0  0  0  2  0  0  0  0  0  0
  -24.5330  -30.4050   21.4090 N   0  0  0  0  0  0  0  0  0  0  0  0
  -23.5400  -30.9710   23.3660 O   0  0  0  0  0  0  0  0  0  0  0  0
  -22.8100  -28.5480   21.6440 C   0  0  0  0  0  0  0  0  0  0  0  0
  -21.5020  -28.2490   21.5920 N   0  0  0  0  0  0  0  0  0  0  0  0
  -23.6310  -27.8470   22.2400 O   0  0  0  0  0  0  0  0  0  0  0  0
  -20.8900  -28.8840   21.0970 H   0  0  0  0  0  0  0  0  0  0  0  0
  -18.3270  -26.5890   22.0480 C   0  0  0  0  0  0  0  0  0  0  0  0
  -20.8580  -27.0880   22.2030 C   0  0  0  0  0  3  0  0  0  0  0  0
  -21.0580  -25.8210   21.3390 C   0  0  0  0  0  2  0  0  0  0  0  0
  -19.9110  -25.5760   20.3530 C   0  0  0  0  0  2  0  0  0  0  0  0
  -18.5820  -25.4290   21.1010 C   0  0  0  0  0  2  0  0  0  0  0  0
  -19.3930  -27.3790   22.5530 C   0  0  0  0  0  0  0  0  0  0  0  0
  -19.0960  -28.4700   23.4000 C   0  0  0  0  0  3  0  0  0  0  0  0
  -17.7660  -28.7680   23.7490 C   0  0  0  0  0  3  0  0  0  0  0  0
  -16.7160  -27.9730   23.2580 C   0  0  0  0  0  3  0  0  0  0  0  0
  -16.9980  -26.8860   22.4120 C   0  0  0  0  0  3  0  0  0  0  0  0
  -25.8670  -31.5350   23.2710 C   0  0  0  0  0  3  0  0  0  0  0  0
  -25.5130  -32.8130   23.8990 N   0  0  0  0  0  0  0  0  0  0  0  0
  -25.7240  -34.0160   23.3460 C   0  0  0  0  0  0  0  0  0  0  0  0
  -26.3100  -34.1640   22.2710 O   0  0  0  0  0  0  0  0  0  0  0  0
  -24.9860  -32.7670   24.7600 H   0  0  0  0  0  0  0  0  0  0  0  0
  -23.8860  -35.7250   23.4730 C   0  0  0  0  0  1  0  0  0  0  0  0
  -25.2040  -35.2500   24.1050 C   0  0  0  0  0  3  0  0  0  0  0  0
  -27.3470  -36.0900   24.9630 C   0  0  0  0  0  1  0  0  0  0  0  0
  -26.1700  -36.3700   24.1430 N   0  0  0  0  0  0  0  0  0  0  0  0
  -25.7270  -37.2110   24.5020 H   0  0  0  0  0  0  0  0  0  0  0  0
  -26.5720  -30.5760   24.3070 C   0  0  1  0  0  0  0  0  0  0  0  0
  -25.6280  -30.0510   25.4140 C   0  0  0  0  0  1  0  0  0  0  0  0
  -27.1830  -29.3510   23.5880 C   0  0  0  0  0  1  0  0  0  0  0  0
  -27.7450  -31.3150   24.9930 C   0  0  0  0  0  1  0  0  0  0  0  0
  -30.9880  -21.0970   21.6290 C   0  0  0  0  0  2  0  0  0  0  0  0
  -31.3280  -22.1820   20.5890 C   0  0  0  0  0  2  0  0  0  0  0  0
  -31.7540  -20.9010   18.5190 C   0  0  0  0  0  0  0  0  0  0  0  0
  -32.1920  -21.6220   19.5570 N   0  0  0  0  0  0  0  0  0  0  0  0
  -30.5600  -20.8290   18.2230 O   0  0  0  0  0  0  0  0  0  0  0  0
  -33.1880  -21.6540   19.7320 H   0  0  0  0  0  0  0  0  0  0  0  0
  -32.7880  -20.0930   17.7260 C   0  0  0  0  0  2  0  0  0  0  0  0
  -33.2930  -18.8250   18.4580 C   0  0  0  0  0  2  0  0  0  0  0  0
  -32.0100  -17.7410   20.3090 C   0  0  0  0  0  0  0  0  0  0  0  0
  -32.2040  -18.0200   19.0130 N   0  0  0  0  0  0  0  0  0  0  0  0
  -32.8220  -18.0120   21.1950 O   0  0  0  0  0  0  0  0  0  0  0  0
  -31.4920  -17.7080   18.3650 H   0  0  0  0  0  0  0  0  0  0  0  0
  -30.6630  -17.1040   20.6670 C   0  0  0  0  0  2  0  0  0  0  0  0
  -31.3030  -14.6920   20.2480 C   0  0  0  0  0  0  0  0  0  0  0  0
  -30.8800  -12.6080   19.0220 C   0  0  0  0  0  2  0  0  0  0  0  0
  -29.9060  -12.9220   17.8650 C   0  0  0  0  0  2  0  0  0  0  0  0
  -28.4400  -12.8480   18.3380 C   0  0  0  0  0  2  0  0  0  0  0  0
  -28.1950  -13.6380   19.6510 C   0  0  0  0  0  3  0  0  0  0  0  0
  -29.2690  -13.2790   20.7050 C   0  0  0  0  0  2  0  0  0  0  0  0
  -30.5950  -13.5430   20.1180 N   0  0  0  0  0  0  0  0  0  0  0  0
  -32.3810  -14.8870   19.6790 O   0  0  0  0  0  0  0  0  0  0  0  0
  -30.6380  -15.6570   20.9010 N   0  0  0  0  0  0  0  0  0  0  0  0
  -29.8200  -15.3250   21.3880 H   0  0  0  0  0  0  0  0  0  0  0  0
  -25.8730  -14.3450   20.5180 C   0  0  0  0  0  0  0  0  0  0  0  0
  -24.7670  -13.6170   20.8670 C   0  0  0  0  0  0  0  0  0  0  0  0
  -25.1280  -12.2450   20.6860 C   0  0  0  0  0  0  0  0  0  0  0  0
  -26.8420  -13.4200   20.1600 N   0  0  0  0  0  0  0  0  0  0  0  0
  -26.3970  -12.1460   20.3150 N   0  0  0  0  0  0  0  0  0  0  0  0
  -24.3240  -11.0210   20.7920 C   0  0  0  0  0  0  0  0  0  0  0  0
  -24.7350   -9.9380   21.6000 C   0  0  0  0  0  3  0  0  0  0  0  0
  -23.9390   -8.7770   21.6980 C   0  0  0  0  0  3  0  0  0  0  0  0
  -22.7170   -8.6930   20.9900 C   0  0  0  0  0  0  0  0  0  0  0  0
  -22.3240   -9.7660   20.1690 C   0  0  0  0  0  3  0  0  0  0  0  0
  -23.1190  -10.9190   20.0680 C   0  0  0  0  0  3  0  0  0  0  0  0
  -21.8890   -7.5950   21.0070 O   0  0  0  0  0  0  0  0  0  0  0  0
  -21.8360   -6.7490   22.0850 C   0  0  0  0  0  0  0  0  0  0  0  0
  -21.5030   -7.2100   23.3790 C   0  0  0  0  0  3  0  0  0  0  0  0
  -21.3920   -6.2940   24.4440 C   0  0  0  0  0  3  0  0  0  0  0  0
  -21.6060   -4.9220   24.2180 C   0  0  0  0  0  0  0  0  0  0  0  0
  -21.9300   -4.4610   22.9300 C   0  0  0  0  0  3  0  0  0  0  0  0
  -22.0420   -5.3720   21.8660 C   0  0  0  0  0  0  0  0  0  0  0  0
  -22.3360   -4.9210   20.6220 F   0  0  0  0  0  0  0  0  0  0  0  0
  -21.4930   -4.0410   25.2400 F   0  0  0  0  0  0  0  0  0  0  0  0
  -23.4190  -14.1580   21.2500 C   0  0  0  0  0  0  0  0  0  0  0  0
  -22.6840  -13.4340   22.0880 N   0  0  0  0  0  0  0  0  0  0  0  0
  -23.0280  -15.2510   20.8440 O   0  0  0  0  0  0  0  0  0  0  0  0
  -23.0100  -12.5470   22.4420 H   0  0  0  0  0  0  0  0  0  0  0  0
  -21.7800  -13.7760   22.3840 H   0  0  0  0  0  0  0  0  0  0  0  0
  -26.1330  -15.7120   20.4550 N   0  0  0  0  0  0  0  0  0  0  0  0
  -25.4250  -16.4120   20.6450 H   0  0  0  0  0  0  0  0  0  0  0  0
  -27.0000  -16.1080   20.1090 H   0  0  0  0  0  0  0  0  0  0  0  0
  1  3  1  0
  3  2  1  0
  4  1  1  0
  4  5  1  0
  6  8  1  0
  6  5  1  0
  7  6  1  0
  9  6  1  0
 10  9  1  0
 11 10  1  0
 12 14  1  0
 12 11  1  0
 13 24  2  0
 14 19  1  0
 15 23  1  0
 15 25  1  0
 16 22  1  0
 16 18  1  0
 17 23  1  0
 18 17  1  0
 19 18  2  0
 20 21  1  0
 20 14  2  0
 21 16  2  0
 22 15  1  0
 23 13  1  0
 25 27  2  0
 26 25  1  0
 28 26  1  0
 29 38  2  0
 29 34  1  0
 30 26  1  0
 30 34  1  0
 31 30  1  0
 32 33  1  0
 32 31  1  0
 33 29  1  0
 34 35  2  0
 35 36  1  0
 37 36  2  0
 38 37  1  0
 39 13  1  0
 39 40  1  0
 39 49  1  0
 40 43  1  0
 41 40  1  0
 41 45  1  0
 42 41  2  0
 45 44  1  0
 45 47  1  0
 47 48  1  0
 47 46  1  0
 49 52  1  1
 49 50  1  0
 51 49  1  0
 53  1  1  0
 54 53  1  0
 55 56  1  0
 56 58  1  0
 56 54  1  0
 57 55  2  0
 59 60  1  0
 59 55  1  0
 60 62  1  0
 61 65  1  0
 61 63  2  0
 62 61  1  0
 64 62  1  0
 65 74  1  0
 66 74  1  0
 67 72  1  0
 68 69  1  0
 68 67  1  0
 70 69  1  0
 70 79  1  0
 70 71  1  0
 72 66  1  0
 72 71  1  0
 73 66  2  0
 74 75  1  0
 76 77  2  0
 77 96  1  0
 78 81  1  0
 78 77  1  0
 79 80  1  0
 79 76  1  0
 80 78  2  0
 81 82  1  0
 82 83  2  0
 84 87  1  0
 84 83  1  0
 85 84  2  0
 86 85  1  0
 86 81  2  0
 87 88  1  0
 88 89  1  0
 89 90  2  0
 91 90  1  0
 91 95  1  0
 92 91  2  0
 93 88  2  0
 93 92  1  0
 94 93  1  0
 96 97  1  0
 97100  1  0
 97 99  1  0
 98 96  2  0
101 76  1  0
101102  1  0
103101  1  0
M  ISO  4  11 101  12 101  66 100  74 100
M  END
>  <TORSDO>  (47) 
F 30

>  <SCORE>  (47) 
-7.094

>  <name>  (47) 
50

>  <ligand_id>  (47) 
50

>  <original_smiles>  (47) 
[H]c1c([H])c([H])c2c(c1[H])C([H])([H])C([H])([H])C([H])([H])C2([H])N([H])C(=O)C1([H])N(C(=O)C([H])(N([H])C(=O)C([H])(N([H])C([H])([H])[H])C([H])([H])[H])C(C([H])([H])[H])(C([H])([H])[H])C([H])([H])[H])C([H])([H])c2c([H])c(OC([H])([H])C([H])([H])C([H])([H])[N+]([H])([H])C([H])([H])C([H])([H])N(C([H])([H])C([H])([H])[H])C([H])([H])C([H])([H])N([H])C(=O)C([H])([H])C([H])([H])N([H])C(=O)C([H])([H])N([H])C(=O)N3C([H])([H])C([H])([H])C([H])([H])C([H])(n4nc(-c5c([H])c([H])c(Oc6c([H])c([H])c(F)c([H])c6F)c([H])c5[H])c(C(=O)N([H])[H])c4N([H])[H])C3([H])[H])c([H])c([H])c2C1([H])[H]

>  <smiles>  (47) 
[H]c1c([H])c([H])c2c(c1[H])C([H])([H])C([H])([H])C([H])([H])C2([H])N([H])C(=O)C1([H])N(C(=O)C([H])(N([H])C(=O)C([H])(N([H])C([H])([H])[H])C([H])([H])[H])C(C([H])([H])[H])(C([H])([H])[H])C([H])([H])[H])C([H])([H])c2c([H])c(OC([H])([H])C([H])([H])C([H])([H])[N+]([H])([H])C([H])([H])C([H])([H])N(C([H])([H])C([H])([H])[H])C([H])([H])C([H])([H])N([H])C(=O)C([H])([H])C([H])([H])N([H])C(=O)C([H])([H])N([H])C(=O)N3C([H])([H])C([H])([H])C([H])([H])C([H])(n4nc(-c5c([H])c([H])c(Oc6c([H])c([H])c(F)c([H])c6F)c([H])c5[H])c(C(=O)N([H])[H])c4N([H])[H])C3([H])[H])c([H])c([H])c2C1([H])[H]

$$$$
51:0:0
     RDKit          3D

111117  0  0  1  0  0  0  0  0999 V2000
  -25.9920  -14.9300   21.0790 N   0  0  0  0  0  0  0  0  0  0  0  0
  -26.4150  -14.3380   20.3640 H   0  0  0  0  0  0  0  0  0  0  0  0
  -26.4490  -14.6850   21.9440 H   0  0  0  0  0  0  0  0  0  0  0  0
  -24.4990  -14.5950   21.2150 C   0  0  0  0  0  2  0  0  0  0  0  0
  -23.9820  -13.0520   21.2660 C   0  0  0  0  0  2  0  0  0  0  0  0
  -23.9930  -10.8370   19.7560 C   0  0  0  0  0  0  0  0  0  0  0  0
  -24.4360  -12.0720   20.2010 N   0  0  0  0  0  0  0  0  0  0  0  0
  -22.8110  -10.5510   19.9520 O   0  0  0  0  0  0  0  0  0  0  0  0
  -25.3880  -12.2780   19.9340 H   0  0  0  0  0  0  0  0  0  0  0  0
  -25.0180   -9.6640   19.0660 C   0  0  0  0  0  2  0  0  0  0  0  0
  -28.8000   -7.9680   19.8160 C   0  0  0  0  0  0  0  0  0  0  0  0
  -27.3930   -8.2120   20.1990 N   0  0  0  0  0  2  0  0  0  0  0  0
  -29.0720   -6.9830   19.1260 O   0  0  0  0  0  0  0  0  0  0  0  0
  -27.4040   -8.5960   21.1340 H   0  0  0  0  0  0  0  0  0  0  0  0
  -30.0830   -8.9230   20.1990 C   0  0  0  0  0  2  0  0  0  0  0  0
  -32.7800   -9.8780   20.0110 C   0  0  0  0  0  0  0  0  0  0  0  0
  -31.6220   -9.0720   19.7060 N   0  0  0  0  0  0  0  0  0  0  0  0
  -32.7560  -11.0310   19.5900 O   0  0  0  0  0  0  0  0  0  0  0  0
  -31.9610   -8.1230   19.6130 H   0  0  0  0  0  0  0  0  0  0  0  0
  -34.2400   -9.4200   20.8060 C   0  0  0  0  0  2  0  0  0  0  0  0
  -35.5160  -10.0910   23.4500 C   0  0  0  0  0  0  0  0  0  0  0  0
  -34.4710   -8.3230   24.4800 C   0  0  0  0  0  2  0  0  0  0  0  0
  -33.8520   -7.8100   23.2180 C   0  0  0  0  0  2  0  0  0  0  0  0
  -32.6090   -8.6990   22.9880 C   0  0  0  0  0  2  0  0  0  0  0  0
  -32.6730  -10.3180   23.0920 C   0  0  0  0  0  3  0  0  0  0  0  0
  -33.3070  -10.5350   24.4300 C   0  0  0  0  0  2  0  0  0  0  0  0
  -34.5420   -9.7580   24.3010 N   0  0  0  0  0  0  0  0  0  0  0  0
  -36.6230  -10.2410   24.0000 O   0  0  0  0  0  0  0  0  0  0  0  0
  -35.2470  -10.0320   22.0000 N   0  0  0  0  0  0  0  0  0  0  0  0
  -36.0720  -10.3870   21.5370 H   0  0  0  0  0  0  0  0  0  0  0  0
  -31.2400  -12.3050   22.2110 C   0  0  0  0  0  0  0  0  0  0  0  0
  -29.9140  -12.3390   21.9420 C   0  0  0  0  0  0  0  0  0  0  0  0
  -29.5460  -11.0620   22.3500 C   0  0  0  0  0  0  0  0  0  0  0  0
  -31.4920  -11.0470   22.7840 N   0  0  0  0  0  0  0  0  0  0  0  0
  -30.4170  -10.3460   22.9560 N   0  0  0  0  0  0  0  0  0  0  0  0
  -28.3760  -10.4630   22.2760 C   0  0  0  0  0  0  0  0  0  0  0  0
  -27.9190   -9.2480   23.4930 C   0  0  0  0  0  3  0  0  0  0  0  0
  -26.4070   -8.4080   23.2950 C   0  0  0  0  0  3  0  0  0  0  0  0
  -25.3930   -8.7530   21.9310 C   0  0  0  0  0  0  0  0  0  0  0  0
  -25.8500   -9.9050   20.7480 C   0  0  0  0  0  0  0  0  0  0  0  0
  -27.3240  -10.7900   20.8980 C   0  0  0  0  0  3  0  0  0  0  0  0
  -24.1350   -8.2710   21.7920 O   0  0  0  0  0  0  0  0  0  0  0  0
  -23.4040   -7.9360   22.8930 C   0  0  0  0  0  0  0  0  0  0  0  0
  -23.0660   -8.8470   23.9220 C   0  0  0  0  0  3  0  0  0  0  0  0
  -22.2170   -8.4340   24.9670 C   0  0  0  0  0  3  0  0  0  0  0  0
  -21.6900   -7.1310   24.9670 C   0  0  0  0  0  0  0  0  0  0  0  0
  -22.0110   -6.2340   23.9350 C   0  0  0  0  0  3  0  0  0  0  0  0
  -22.8700   -6.6400   22.9000 C   0  0  0  0  0  0  0  0  0  0  0  0
  -23.1640   -5.7960   21.8810 F   0  0  0  0  0  0  0  0  0  0  0  0
  -20.8490   -6.7360   25.9530 F   0  0  0  0  0  0  0  0  0  0  0  0
  -29.0640  -13.4050   21.2900 C   0  0  0  0  0  0  0  0  0  0  0  0
  -27.8040  -13.6030   21.6770 N   0  0  0  0  0  0  0  0  0  0  0  0
  -29.5390  -14.1380   20.4330 O   0  0  0  0  0  0  0  0  0  0  0  0
  -27.2950  -13.0150   22.3160 H   0  0  0  0  0  0  0  0  0  0  0  0
  -27.2780  -14.3240   21.2040 H   0  0  0  0  0  0  0  0  0  0  0  0
  -32.2190  -13.2630   22.0230 N   0  0  0  0  0  0  0  0  0  0  0  0
  -32.0290  -13.8170   21.1950 H   0  0  0  0  0  0  0  0  0  0  0  0
  -33.1820  -12.9390   21.9920 H   0  0  0  0  0  0  0  0  0  0  0  0
  -26.4270  -16.3740   20.7750 C   0  0  0  0  0  1  0  0  0  0  0  0
  -27.7770  -16.5570   19.9030 C   0  0  0  0  0  2  0  0  0  0  0  0
  -29.9350  -17.9860   19.4900 C   0  0  0  0  0  0  0  0  0  0  0  0
  -28.8990  -17.5190   20.2780 N   0  0  0  0  0  0  0  0  0  0  0  0
  -29.8250  -18.0220   18.2630 O   0  0  0  0  0  0  0  0  0  0  0  0
  -29.0610  -17.6100   21.2730 H   0  0  0  0  0  0  0  0  0  0  0  0
  -31.3450  -18.3490   20.1280 C   0  0  0  0  0  2  0  0  0  0  0  0
  -33.5200  -19.2830   19.0080 C   0  0  0  0  0  0  0  0  0  0  0  0
  -32.2800  -19.4160   19.5850 N   0  0  0  0  0  0  0  0  0  0  0  0
  -33.8640  -18.2300   18.4680 O   0  0  0  0  0  0  0  0  0  0  0  0
  -32.0920  -20.3420   19.9400 H   0  0  0  0  0  0  0  0  0  0  0  0
  -34.5570  -20.4790   19.1110 C   0  0  0  0  0  2  0  0  0  0  0  0
  -35.9410  -20.2440   18.6330 O   0  0  0  0  0  0  0  0  0  0  0  0
  -39.0060  -26.3150   20.7320 C   0  0  0  0  0  0  0  0  0  0  0  0
  -36.5650  -21.4120   18.2310 C   0  0  0  0  0  0  0  0  0  0  0  0
  -37.9620  -26.3070   18.4930 C   0  0  0  0  0  3  0  0  0  0  0  0
  -37.4200  -24.0110   17.5180 C   0  0  0  0  0  0  0  0  0  0  0  0
  -39.0010  -24.1690   19.4450 C   0  0  0  0  0  2  0  0  0  0  0  0
  -37.9900  -23.3770   18.6320 C   0  0  0  0  0  0  0  0  0  0  0  0
  -37.5810  -22.0640   18.9860 C   0  0  0  0  0  3  0  0  0  0  0  0
  -36.0530  -22.0510   17.0880 C   0  0  0  0  0  3  0  0  0  0  0  0
  -36.4580  -23.3490   16.7390 C   0  0  0  0  0  3  0  0  0  0  0  0
  -37.8680  -25.4240   17.2210 C   0  0  0  0  0  2  0  0  0  0  0  0
  -38.6520  -25.6030   19.6220 N   0  0  0  0  0  0  0  0  0  0  0  0
  -38.7900  -27.5320   20.8120 O   0  0  0  0  0  0  0  0  0  0  0  0
  -36.5450  -26.8070   18.8630 C   0  0  0  0  0  0  0  0  0  0  0  0
  -36.1570  -27.9740   18.3230 N   0  0  0  0  0  0  0  0  0  0  0  0
  -35.8160  -26.1410   19.6040 O   0  0  0  0  0  0  0  0  0  0  0  0
  -36.8170  -28.4710   17.7410 H   0  0  0  0  0  0  0  0  0  0  0  0
  -34.2690  -30.9790   17.6460 C   0  0  0  0  0  0  0  0  0  0  0  0
  -34.8550  -28.6140   18.5100 C   0  0  0  0  0  3  0  0  0  0  0  0
  -33.8220  -28.0990   17.4810 C   0  0  0  0  0  2  0  0  0  0  0  0
  -33.7440  -28.9610   16.2170 C   0  0  0  0  0  2  0  0  0  0  0  0
  -33.3650  -30.3990   16.5740 C   0  0  0  0  0  2  0  0  0  0  0  0
  -34.9780  -30.1420   18.5460 C   0  0  0  0  0  0  0  0  0  0  0  0
  -35.8340  -30.7340   19.5030 C   0  0  0  0  0  3  0  0  0  0  0  0
  -35.9790  -32.1330   19.5700 C   0  0  0  0  0  3  0  0  0  0  0  0
  -35.2610  -32.9570   18.6850 C   0  0  0  0  0  3  0  0  0  0  0  0
  -34.4030  -32.3800   17.7310 C   0  0  0  0  0  3  0  0  0  0  0  0
  -39.7170  -25.6360   21.9430 C   0  0  0  0  0  3  0  0  0  0  0  0
  -40.7360  -26.5690   22.4440 N   0  0  0  0  0  0  0  0  0  0  0  0
  -42.0430  -26.4900   22.1560 C   0  0  0  0  0  0  0  0  0  0  0  0
  -42.5290  -25.5700   21.4910 O   0  0  0  0  0  0  0  0  0  0  0  0
  -40.4070  -27.3760   22.9530 H   0  0  0  0  0  0  0  0  0  0  0  0
  -43.2900  -28.5870   21.5530 C   0  0  0  0  0  1  0  0  0  0  0  0
  -42.9560  -27.6090   22.6920 C   0  0  0  0  0  3  0  0  0  0  0  0
  -43.9850  -26.3870   24.5560 C   0  0  0  0  0  1  0  0  0  0  0  0
  -44.2070  -27.1080   23.3040 N   0  0  0  0  0  0  0  0  0  0  0  0
  -44.8450  -27.8750   23.4930 H   0  0  0  0  0  0  0  0  0  0  0  0
  -38.7250  -25.2230   23.0990 C   0  0  1  0  0  0  0  0  0  0  0  0
  -37.7860  -26.3660   23.5480 C   0  0  0  0  0  1  0  0  0  0  0  0
  -37.8430  -24.0310   22.6640 C   0  0  0  0  0  1  0  0  0  0  0  0
  -39.5220  -24.7450   24.3370 C   0  0  0  0  0  1  0  0  0  0  0  0
  1  4  1  0
  1  3  1  0
  2  1  1  0
  4  5  1  0
  6  8  2  0
  6  7  1  0
  7  5  1  0
  9  7  1  0
 10  6  1  0
 10 40  1  0
 11 12  1  0
 11 15  1  0
 12 14  1  0
 13 11  2  0
 16 20  1  0
 17 16  1  0
 17 15  1  0
 18 16  2  0
 19 17  1  0
 20 29  1  0
 21 28  2  0
 21 27  1  0
 23 22  1  0
 24 25  1  0
 24 23  1  0
 25 34  1  0
 25 26  1  0
 27 26  1  0
 27 22  1  0
 29 21  1  0
 30 29  1  0
 31 34  1  0
 32 31  2  0
 32 33  1  0
 33 35  2  0
 34 35  1  0
 36 33  1  0
 36 37  1  0
 38 37  2  0
 39 38  1  0
 40 41  1  0
 40 39  2  0
 41 36  2  0
 42 39  1  0
 42 43  1  0
 43 48  2  0
 43 44  1  0
 44 45  2  0
 45 46  1  0
 46 50  1  0
 47 46  2  0
 48 47  1  0
 49 48  1  0
 51 52  1  0
 51 32  1  0
 52 54  1  0
 53 51  2  0
 55 52  1  0
 56 31  1  0
 57 56  1  0
 58 56  1  0
 60 62  1  0
 60 59  1  0
 61 65  1  0
 61 62  1  0
 62 64  1  0
 63 61  2  0
 66 70  1  0
 66 67  1  0
 67 69  1  0
 67 65  1  0
 68 66  2  0
 71 70  1  0
 72 83  2  0
 73 71  1  0
 73 78  1  0
 74 84  1  0
 74 82  1  0
 75 77  1  0
 76 82  1  0
 77 78  2  0
 77 76  1  0
 79 73  2  0
 80 79  1  0
 80 75  2  0
 81 75  1  0
 81 74  1  0
 82 72  1  0
 84 86  2  0
 85 84  1  0
 87 85  1  0
 88 97  2  0
 88 93  1  0
 89 85  1  0
 89 93  1  0
 90 89  1  0
 91 92  1  0
 91 90  1  0
 92 88  1  0
 93 94  2  0
 94 95  1  0
 96 95  2  0
 97 96  1  0
 98 72  1  0
 98 99  1  0
 98108  1  0
 99102  1  0
100 99  1  0
100104  1  0
101100  2  0
104103  1  0
104106  1  0
106107  1  0
106105  1  0
108109  1  1
108111  1  0
110108  1  0
M  ISO  4  21 100  29 100  70 101  71 101
M  END
>  <TORSDO>  (48) 
F 30

>  <SCORE>  (48) 
1.698

>  <name>  (48) 
51

>  <ligand_id>  (48) 
51

>  <original_smiles>  (48) 
[H]c1c([H])c([H])c2c(c1[H])C([H])([H])C([H])([H])C([H])([H])C2([H])N([H])C(=O)C1([H])N(C(=O)C([H])(N([H])C(=O)C([H])(N([H])C([H])([H])[H])C([H])([H])[H])C(C([H])([H])[H])(C([H])([H])[H])C([H])([H])[H])C([H])([H])c2c([H])c(OC([H])([H])C(=O)N([H])C([H])([H])C(=O)N([H])C([H])([H])C([H])([H])[N+]([H])([H])C([H])([H])C([H])([H])N([H])C(=O)C([H])([H])N([H])C(=O)C([H])([H])N([H])C(=O)C([H])([H])N([H])C(=O)N3C([H])([H])C([H])([H])C([H])([H])C([H])(n4nc(-c5c([H])c([H])c(Oc6c([H])c([H])c(F)c([H])c6F)c([H])c5[H])c(C(=O)N([H])[H])c4N([H])[H])C3([H])[H])c([H])c([H])c2C1([H])[H]

>  <smiles>  (48) 
[H]c1c([H])c([H])c2c(c1[H])C([H])([H])C([H])([H])C([H])([H])C2([H])N([H])C(=O)C1([H])N(C(=O)C([H])(N([H])C(=O)C([H])(N([H])C([H])([H])[H])C([H])([H])[H])C(C([H])([H])[H])(C([H])([H])[H])C([H])([H])[H])C([H])([H])c2c([H])c(OC([H])([H])C(=O)N([H])C([H])([H])C(=O)N([H])C([H])([H])C([H])([H])[N+]([H])([H])C([H])([H])C([H])([H])N([H])C(=O)C([H])([H])N([H])C(=O)C([H])([H])N([H])C(=O)C([H])([H])N([H])C(=O)N3C([H])([H])C([H])([H])C([H])([H])C([H])(n4nc(-c5c([H])c([H])c(Oc6c([H])c([H])c(F)c([H])c6F)c([H])c5[H])c(C(=O)N([H])[H])c4N([H])[H])C3([H])[H])c([H])c([H])c2C1([H])[H]

$$$$
52:0:0
     RDKit          3D

 95102  0  0  1  0  0  0  0  0999 V2000
  -30.2930  -22.4700   24.6710 C   0  0  0  0  0  2  0  0  0  0  0  0
  -29.2520  -23.3920   24.0280 C   0  0  0  0  0  2  0  0  0  0  0  0
  -29.1370  -24.7570   24.7300 C   0  0  0  0  0  2  0  0  0  0  0  0
  -28.4650  -25.6780   23.8800 O   0  0  0  0  0  0  0  0  0  0  0  0
  -29.2140  -26.0930   22.7430 C   0  0  0  0  0  2  0  0  0  0  0  0
  -28.2540  -26.1650   21.5510 C   0  0  0  0  0  2  0  0  0  0  0  0
  -28.9490  -26.5460   20.2270 C   0  0  0  0  0  2  0  0  0  0  0  0
  -28.0130  -26.6290   19.1500 O   0  0  0  0  0  0  0  0  0  0  0  0
  -24.5820  -31.4630   23.1020 C   0  0  0  0  0  0  0  0  0  0  0  0
  -26.8980  -27.4090   19.3460 C   0  0  0  0  0  0  0  0  0  0  0  0
  -23.2170  -30.2690   21.4140 C   0  0  0  0  0  3  0  0  0  0  0  0
  -24.5250  -28.8920   19.7110 C   0  0  0  0  0  0  0  0  0  0  0  0
  -25.7180  -30.6370   21.0500 C   0  0  0  0  0  2  0  0  0  0  0  0
  -25.7290  -29.3470   20.2610 C   0  0  0  0  0  0  0  0  0  0  0  0
  -26.9170  -28.6140   20.0840 C   0  0  0  0  0  3  0  0  0  0  0  0
  -25.6850  -26.9670   18.7820 C   0  0  0  0  0  3  0  0  0  0  0  0
  -24.4950  -27.6970   18.9690 C   0  0  0  0  0  3  0  0  0  0  0  0
  -23.2980  -29.7440   19.9550 C   0  0  0  0  0  2  0  0  0  0  0  0
  -24.5280  -30.7980   21.9140 N   0  0  0  0  0  0  0  0  0  0  0  0
  -23.5540  -31.6830   23.7570 O   0  0  0  0  0  0  0  0  0  0  0  0
  -22.6280  -29.1540   22.3050 C   0  0  0  0  0  0  0  0  0  0  0  0
  -21.3080  -28.9340   22.1880 N   0  0  0  0  0  0  0  0  0  0  0  0
  -23.3510  -28.4920   23.0540 O   0  0  0  0  0  0  0  0  0  0  0  0
  -20.7840  -29.5240   21.5560 H   0  0  0  0  0  0  0  0  0  0  0  0
  -17.9980  -27.5620   22.6130 C   0  0  0  0  0  0  0  0  0  0  0  0
  -20.5410  -27.9130   22.8970 C   0  0  0  0  0  3  0  0  0  0  0  0
  -20.7040  -26.5300   22.2250 C   0  0  0  0  0  2  0  0  0  0  0  0
  -19.6140  -26.2270   21.1920 C   0  0  0  0  0  2  0  0  0  0  0  0
  -18.2290  -26.2690   21.8470 C   0  0  0  0  0  2  0  0  0  0  0  0
  -19.0840  -28.3410   23.0920 C   0  0  0  0  0  0  0  0  0  0  0  0
  -18.8140  -29.5520   23.7640 C   0  0  0  0  0  3  0  0  0  0  0  0
  -17.4890  -29.9850   23.9650 C   0  0  0  0  0  3  0  0  0  0  0  0
  -16.4180  -29.2010   23.5030 C   0  0  0  0  0  3  0  0  0  0  0  0
  -16.6730  -27.9910   22.8340 C   0  0  0  0  0  3  0  0  0  0  0  0
  -25.9300  -31.9980   23.6820 C   0  0  0  0  0  3  0  0  0  0  0  0
  -26.4640  -31.1540   24.9030 C   0  0  1  0  0  0  0  0  0  0  0  0
  -25.4040  -30.9160   26.0030 C   0  0  0  0  0  1  0  0  0  0  0  0
  -26.9750  -29.7730   24.4290 C   0  0  0  0  0  1  0  0  0  0  0  0
  -27.6680  -31.8760   25.5520 C   0  0  0  0  0  1  0  0  0  0  0  0
  -25.7180  -33.3990   24.0680 N   0  0  0  0  0  0  0  0  0  0  0  0
  -26.1610  -34.4550   23.3720 C   0  0  0  0  0  0  0  0  0  0  0  0
  -26.8600  -34.3460   22.3600 O   0  0  0  0  0  0  0  0  0  0  0  0
  -25.1080  -33.5620   24.8560 H   0  0  0  0  0  0  0  0  0  0  0  0
  -24.6170  -36.4040   23.0110 C   0  0  0  0  0  1  0  0  0  0  0  0
  -25.7600  -35.8530   23.8780 C   0  0  0  0  0  3  0  0  0  0  0  0
  -27.8980  -36.5010   24.8940 C   0  0  0  0  0  1  0  0  0  0  0  0
  -26.8820  -36.8150   23.8940 N   0  0  0  0  0  0  0  0  0  0  0  0
  -26.5460  -37.7570   24.0660 H   0  0  0  0  0  0  0  0  0  0  0  0
  -30.6710  -21.5000   23.7070 O   0  0  0  0  0  0  0  0  0  0  0  0
  -32.0260  -21.6270   23.2900 C   0  0  0  0  0  2  0  0  0  0  0  0
  -32.4720  -20.3070   22.6470 C   0  0  0  0  0  0  0  0  0  0  0  0
  -32.6830  -20.3240   21.3260 N   0  0  0  0  0  0  0  0  0  0  0  0
  -32.5790  -19.2820   23.3240 O   0  0  0  0  0  0  0  0  0  0  0  0
  -32.5960  -21.2200   20.8630 H   0  0  0  0  0  0  0  0  0  0  0  0
  -32.8870  -19.1580   20.4720 C   0  0  0  0  0  2  0  0  0  0  0  0
  -31.6110  -18.8670   19.6630 C   0  0  0  0  0  2  0  0  0  0  0  0
  -31.7940  -17.8410   18.5350 C   0  0  0  0  0  2  0  0  0  0  0  0
  -31.4430  -15.4020   18.2370 C   0  0  0  0  0  0  0  0  0  0  0  0
  -31.6850  -13.0190   18.8000 C   0  0  0  0  0  2  0  0  0  0  0  0
  -30.8070  -12.0820   17.9570 C   0  0  0  0  0  2  0  0  0  0  0  0
  -29.4120  -11.9410   18.5870 C   0  0  0  0  0  2  0  0  0  0  0  0
  -28.7680  -13.3130   18.9120 C   0  0  0  0  0  3  0  0  0  0  0  0
  -29.7490  -14.2260   19.6830 C   0  0  0  0  0  2  0  0  0  0  0  0
  -31.0120  -14.3190   18.9280 N   0  0  0  0  0  0  0  0  0  0  0  0
  -32.2640  -15.3360   17.3160 O   0  0  0  0  0  0  0  0  0  0  0  0
  -31.0940  -16.5760   18.7770 N   0  0  0  0  0  0  0  0  0  0  0  0
  -30.4510  -16.5370   19.5550 H   0  0  0  0  0  0  0  0  0  0  0  0
  -26.6110  -14.1080   20.0760 C   0  0  0  0  0  0  0  0  0  0  0  0
  -25.5610  -13.4200   20.6240 C   0  0  0  0  0  0  0  0  0  0  0  0
  -25.8760  -12.0340   20.4750 C   0  0  0  0  0  0  0  0  0  0  0  0
  -27.5070  -13.1460   19.6320 N   0  0  0  0  0  0  0  0  0  0  0  0
  -27.0740  -11.8920   19.9250 N   0  0  0  0  0  0  0  0  0  0  0  0
  -25.0800  -10.8360   20.7720 C   0  0  0  0  0  0  0  0  0  0  0  0
  -25.3740  -10.0120   21.8810 C   0  0  0  0  0  3  0  0  0  0  0  0
  -24.5830   -8.8760   22.1590 C   0  0  0  0  0  3  0  0  0  0  0  0
  -23.4850   -8.5540   21.3250 C   0  0  0  0  0  0  0  0  0  0  0  0
  -23.2110   -9.3640   20.2080 C   0  0  0  0  0  3  0  0  0  0  0  0
  -24.0020  -10.4920   19.9320 C   0  0  0  0  0  3  0  0  0  0  0  0
  -22.6790   -7.4560   21.5000 O   0  0  0  0  0  0  0  0  0  0  0  0
  -22.1600   -7.1320   22.7280 C   0  0  0  0  0  0  0  0  0  0  0  0
  -21.3600   -8.0360   23.4620 C   0  0  0  0  0  3  0  0  0  0  0  0
  -20.7910   -7.6370   24.6880 C   0  0  0  0  0  3  0  0  0  0  0  0
  -21.0120   -6.3360   25.1770 C   0  0  0  0  0  0  0  0  0  0  0  0
  -21.8030   -5.4330   24.4460 C   0  0  0  0  0  3  0  0  0  0  0  0
  -22.3730   -5.8300   23.2230 C   0  0  0  0  0  0  0  0  0  0  0  0
  -23.1170   -4.9480   22.5120 F   0  0  0  0  0  0  0  0  0  0  0  0
  -20.4590   -5.9500   26.3510 F   0  0  0  0  0  0  0  0  0  0  0  0
  -24.2930  -14.0090   21.1710 C   0  0  0  0  0  0  0  0  0  0  0  0
  -23.7230  -13.3890   22.1990 N   0  0  0  0  0  0  0  0  0  0  0  0
  -23.8250  -15.0540   20.7200 O   0  0  0  0  0  0  0  0  0  0  0  0
  -24.1180  -12.5440   22.5840 H   0  0  0  0  0  0  0  0  0  0  0  0
  -22.8790  -13.7670   22.6080 H   0  0  0  0  0  0  0  0  0  0  0  0
  -26.8710  -15.4640   19.9020 N   0  0  0  0  0  0  0  0  0  0  0  0
  -26.2080  -16.1840   20.1710 H   0  0  0  0  0  0  0  0  0  0  0  0
  -27.6940  -15.8350   19.4430 H   0  0  0  0  0  0  0  0  0  0  0  0
  2  1  1  0
  2  3  1  0
  4  3  1  0
  5  4  1  0
  6  5  1  0
  7  6  1  0
  8 10  1  0
  8  7  1  0
  9 20  2  0
 10 15  1  0
 11 19  1  0
 11 21  1  0
 12 18  1  0
 12 14  1  0
 13 19  1  0
 14 13  1  0
 15 14  2  0
 16 17  1  0
 16 10  2  0
 17 12  2  0
 18 11  1  0
 19  9  1  0
 21 23  2  0
 22 21  1  0
 24 22  1  0
 25 34  2  0
 25 30  1  0
 26 22  1  0
 26 30  1  0
 27 26  1  0
 28 29  1  0
 28 27  1  0
 29 25  1  0
 30 31  2  0
 31 32  1  0
 33 32  2  0
 34 33  1  0
 35  9  1  0
 35 40  1  0
 35 36  1  0
 36 39  1  1
 36 37  1  0
 38 36  1  0
 40 43  1  0
 41 45  1  0
 41 40  1  0
 42 41  2  0
 45 44  1  0
 45 47  1  0
 47 48  1  0
 47 46  1  0
 49  1  1  0
 50 49  1  0
 51 50  1  0
 51 53  2  0
 52 51  1  0
 54 52  1  0
 55 52  1  0
 56 55  1  0
 57 66  1  0
 57 56  1  0
 58 66  1  0
 58 64  1  0
 59 64  1  0
 60 61  1  0
 60 59  1  0
 62 61  1  0
 62 71  1  0
 62 63  1  0
 64 63  1  0
 65 58  2  0
 66 67  1  0
 68 69  2  0
 69 88  1  0
 70 69  1  0
 70 73  1  0
 71 72  1  0
 71 68  1  0
 72 70  2  0
 73 74  1  0
 74 75  2  0
 76 79  1  0
 76 75  1  0
 77 76  2  0
 78 77  1  0
 78 73  2  0
 79 80  1  0
 80 85  2  0
 80 81  1  0
 81 82  2  0
 82 83  1  0
 83 87  1  0
 84 83  2  0
 85 84  1  0
 86 85  1  0
 88 89  1  0
 89 91  1  0
 89 92  1  0
 90 88  2  0
 93 68  1  0
 93 94  1  0
 95 93  1  0
M  ISO  4   7 101   8 101  58 100  66 100
M  END
>  <TORSDO>  (49) 
F 28

>  <SCORE>  (49) 
-6.909

>  <name>  (49) 
52

>  <ligand_id>  (49) 
52

>  <original_smiles>  (49) 
[H]c1c([H])c([H])c2c(c1[H])C([H])([H])C([H])([H])C([H])([H])C2([H])N([H])C(=O)C1([H])N(C(=O)C([H])(N([H])C(=O)C([H])(N([H])C([H])([H])[H])C([H])([H])[H])C(C([H])([H])[H])(C([H])([H])[H])C([H])([H])[H])C([H])([H])c2c([H])c(OC([H])([H])C([H])([H])C([H])([H])OC([H])([H])C([H])([H])C([H])([H])OC([H])([H])C(=O)N([H])C([H])([H])C([H])([H])C([H])([H])N([H])C(=O)N3C([H])([H])C([H])([H])C([H])([H])C([H])(n4nc(-c5c([H])c([H])c(Oc6c([H])c([H])c(F)c([H])c6F)c([H])c5[H])c(C(=O)N([H])[H])c4N([H])[H])C3([H])[H])c([H])c([H])c2C1([H])[H]

>  <smiles>  (49) 
[H]c1c([H])c([H])c2c(c1[H])C([H])([H])C([H])([H])C([H])([H])C2([H])N([H])C(=O)C1([H])N(C(=O)C([H])(N([H])C(=O)C([H])(N([H])C([H])([H])[H])C([H])([H])[H])C(C([H])([H])[H])(C([H])([H])[H])C([H])([H])[H])C([H])([H])c2c([H])c(OC([H])([H])C([H])([H])C([H])([H])OC([H])([H])C([H])([H])C([H])([H])OC([H])([H])C(=O)N([H])C([H])([H])C([H])([H])C([H])([H])N([H])C(=O)N3C([H])([H])C([H])([H])C([H])([H])C([H])(n4nc(-c5c([H])c([H])c(Oc6c([H])c([H])c(F)c([H])c6F)c([H])c5[H])c(C(=O)N([H])[H])c4N([H])[H])C3([H])[H])c([H])c([H])c2C1([H])[H]

$$$$
53:0:0
     RDKit          3D

102109  0  0  1  0  0  0  0  0999 V2000
  -25.5290  -21.8280   17.8000 C   0  0  0  0  0  0  0  0  0  0  0  0
  -24.8730  -22.3840   16.7730 N   0  0  0  0  0  0  0  0  0  0  0  0
  -25.7650  -22.4420   18.8410 O   0  0  0  0  0  0  0  0  0  0  0  0
  -24.7550  -21.8190   15.9430 H   0  0  0  0  0  0  0  0  0  0  0  0
  -25.9640  -20.3670   17.6360 C   0  0  0  0  0  2  0  0  0  0  0  0
  -28.1080  -19.9760   18.8540 C   0  0  0  0  0  0  0  0  0  0  0  0
  -27.4150  -20.1880   17.7280 N   0  0  0  0  0  0  0  0  0  0  0  0
  -27.5870  -20.0050   19.9720 O   0  0  0  0  0  0  0  0  0  0  0  0
  -27.9230  -20.1680   16.8550 H   0  0  0  0  0  0  0  0  0  0  0  0
  -29.6110  -19.6720   18.7020 C   0  0  0  0  0  2  0  0  0  0  0  0
  -29.7990  -17.5390   20.0020 C   0  0  0  0  0  0  0  0  0  0  0  0
  -30.1390  -18.8130   19.7690 N   0  0  0  0  0  0  0  0  0  0  0  0
  -28.9790  -16.9300   19.3080 O   0  0  0  0  0  0  0  0  0  0  0  0
  -30.8050  -19.2410   20.3970 H   0  0  0  0  0  0  0  0  0  0  0  0
  -30.4710  -16.8500   21.2000 C   0  0  0  0  0  2  0  0  0  0  0  0
  -30.8440  -14.4780   20.5430 C   0  0  0  0  0  0  0  0  0  0  0  0
  -30.5640  -12.3310   19.3650 C   0  0  0  0  0  2  0  0  0  0  0  0
  -29.6350  -12.5380   18.1500 C   0  0  0  0  0  2  0  0  0  0  0  0
  -28.1530  -12.4200   18.5540 C   0  0  0  0  0  2  0  0  0  0  0  0
  -27.8070  -13.2550   19.8110 C   0  0  0  0  0  3  0  0  0  0  0  0
  -28.8380  -13.0040   20.9310 C   0  0  0  0  0  2  0  0  0  0  0  0
  -30.1770  -13.3060   20.3950 N   0  0  0  0  0  0  0  0  0  0  0  0
  -31.9340  -14.7150   20.0090 O   0  0  0  0  0  0  0  0  0  0  0  0
  -30.1790  -15.4170   21.2270 N   0  0  0  0  0  0  0  0  0  0  0  0
  -29.2670  -15.1580   21.5700 H   0  0  0  0  0  0  0  0  0  0  0  0
  -25.3970  -13.8850   20.4700 C   0  0  0  0  0  0  0  0  0  0  0  0
  -24.3190  -13.1210   20.8190 C   0  0  0  0  0  0  0  0  0  0  0  0
  -24.7710  -11.7660   20.8020 C   0  0  0  0  0  0  0  0  0  0  0  0
  -26.4410  -12.9970   20.2630 N   0  0  0  0  0  0  0  0  0  0  0  0
  -26.0660  -11.7160   20.5150 N   0  0  0  0  0  0  0  0  0  0  0  0
  -24.0330  -10.5090   20.9810 C   0  0  0  0  0  0  0  0  0  0  0  0
  -24.4310   -9.5470   21.9370 C   0  0  0  0  0  3  0  0  0  0  0  0
  -23.6950   -8.3550   22.1030 C   0  0  0  0  0  3  0  0  0  0  0  0
  -22.5470   -8.1130   21.3110 C   0  0  0  0  0  0  0  0  0  0  0  0
  -22.1690   -9.0630   20.3450 C   0  0  0  0  0  3  0  0  0  0  0  0
  -22.9070  -10.2470   20.1760 C   0  0  0  0  0  3  0  0  0  0  0  0
  -21.7850   -6.9730   21.3870 O   0  0  0  0  0  0  0  0  0  0  0  0
  -21.6780   -6.2530   22.5500 C   0  0  0  0  0  0  0  0  0  0  0  0
  -21.1760   -6.8300   23.7370 C   0  0  0  0  0  3  0  0  0  0  0  0
  -21.0170   -6.0360   24.8920 C   0  0  0  0  0  3  0  0  0  0  0  0
  -21.3510   -4.6700   24.8590 C   0  0  0  0  0  0  0  0  0  0  0  0
  -21.8470   -4.0930   23.6750 C   0  0  0  0  0  3  0  0  0  0  0  0
  -22.0070   -4.8840   22.5230 C   0  0  0  0  0  0  0  0  0  0  0  0
  -22.4650   -4.3210   21.3800 F   0  0  0  0  0  0  0  0  0  0  0  0
  -21.1910   -3.9050   25.9640 F   0  0  0  0  0  0  0  0  0  0  0  0
  -22.9200  -13.6050   21.0710 C   0  0  0  0  0  0  0  0  0  0  0  0
  -22.1790  -12.9120   21.9300 N   0  0  0  0  0  0  0  0  0  0  0  0
  -22.4940  -14.6300   20.5400 O   0  0  0  0  0  0  0  0  0  0  0  0
  -22.5420  -12.0840   22.3780 H   0  0  0  0  0  0  0  0  0  0  0  0
  -21.2410  -13.2150   22.1420 H   0  0  0  0  0  0  0  0  0  0  0  0
  -25.5720  -15.2550   20.2910 N   0  0  0  0  0  0  0  0  0  0  0  0
  -24.8030  -15.9130   20.3610 H   0  0  0  0  0  0  0  0  0  0  0  0
  -26.4280  -15.6810   19.9600 H   0  0  0  0  0  0  0  0  0  0  0  0
  -24.2210  -23.6990   16.7520 C   0  0  0  0  0  2  0  0  0  0  0  0
  -25.1550  -24.9150   16.6390 C   0  0  0  0  0  0  0  0  0  0  0  0
  -26.4730  -24.7200   16.7780 N   0  0  0  0  0  0  0  0  0  0  0  0
  -24.6730  -26.0300   16.4420 O   0  0  0  0  0  0  0  0  0  0  0  0
  -26.7650  -23.7640   16.9380 H   0  0  0  0  0  0  0  0  0  0  0  0
  -27.4650  -25.7680   16.9880 C   0  0  0  0  0  2  0  0  0  0  0  0
  -28.3840  -25.3900   18.1660 C   0  0  0  0  0  2  0  0  0  0  0  0
  -28.9800  -26.6080   18.8950 C   0  0  0  0  0  2  0  0  0  0  0  0
  -28.3740  -26.8340   20.1660 O   0  0  0  0  0  0  0  0  0  0  0  0
  -24.5580  -31.9530   23.2670 C   0  0  0  0  0  0  0  0  0  0  0  0
  -27.1900  -27.5320   20.1740 C   0  0  0  0  0  0  0  0  0  0  0  0
  -23.3380  -30.5380   21.6500 C   0  0  0  0  0  3  0  0  0  0  0  0
  -24.7760  -28.9940   20.2260 C   0  0  0  0  0  0  0  0  0  0  0  0
  -25.8550  -30.9090   21.4150 C   0  0  0  0  0  2  0  0  0  0  0  0
  -25.9380  -29.5350   20.7910 C   0  0  0  0  0  0  0  0  0  0  0  0
  -27.1470  -28.8070   20.7690 C   0  0  0  0  0  3  0  0  0  0  0  0
  -26.0040  -26.9780   19.6490 C   0  0  0  0  0  3  0  0  0  0  0  0
  -24.8000  -27.7080   19.6600 C   0  0  0  0  0  3  0  0  0  0  0  0
  -23.5290  -29.8460   20.2770 C   0  0  0  0  0  2  0  0  0  0  0  0
  -24.6030  -31.1490   22.1680 N   0  0  0  0  0  0  0  0  0  0  0  0
  -23.4830  -32.2280   23.8180 O   0  0  0  0  0  0  0  0  0  0  0  0
  -22.7040  -29.5190   22.6240 C   0  0  0  0  0  0  0  0  0  0  0  0
  -21.3900  -29.2840   22.4700 N   0  0  0  0  0  0  0  0  0  0  0  0
  -23.3890  -28.9410   23.4710 O   0  0  0  0  0  0  0  0  0  0  0  0
  -20.8980  -29.8020   21.7570 H   0  0  0  0  0  0  0  0  0  0  0  0
  -18.0580  -27.9610   22.8910 C   0  0  0  0  0  0  0  0  0  0  0  0
  -20.5890  -28.3410   23.2470 C   0  0  0  0  0  3  0  0  0  0  0  0
  -20.7750  -26.8980   22.7290 C   0  0  0  0  0  2  0  0  0  0  0  0
  -19.7290  -26.4870   21.6870 C   0  0  0  0  0  2  0  0  0  0  0  0
  -18.3190  -26.5950   22.2740 C   0  0  0  0  0  2  0  0  0  0  0  0
  -19.1250  -28.7880   23.3320 C   0  0  0  0  0  0  0  0  0  0  0  0
  -18.8280  -30.0650   23.8580 C   0  0  0  0  0  3  0  0  0  0  0  0
  -17.4980  -30.5130   23.9560 C   0  0  0  0  0  3  0  0  0  0  0  0
  -16.4450  -29.6830   23.5360 C   0  0  0  0  0  3  0  0  0  0  0  0
  -16.7260  -28.4120   23.0050 C   0  0  0  0  0  3  0  0  0  0  0  0
  -25.8510  -32.5890   23.8690 C   0  0  0  0  0  3  0  0  0  0  0  0
  -26.3830  -31.8330   25.1480 C   0  0  1  0  0  0  0  0  0  0  0  0
  -25.2970  -31.5940   26.2220 C   0  0  0  0  0  1  0  0  0  0  0  0
  -26.9780  -30.4600   24.7610 C   0  0  0  0  0  1  0  0  0  0  0  0
  -27.5270  -32.6470   25.7970 C   0  0  0  0  0  1  0  0  0  0  0  0
  -25.5500  -33.9920   24.1800 N   0  0  0  0  0  0  0  0  0  0  0  0
  -25.8940  -35.0320   23.4090 C   0  0  0  0  0  0  0  0  0  0  0  0
  -26.5730  -34.9140   22.3850 O   0  0  0  0  0  0  0  0  0  0  0  0
  -24.9480  -34.1620   24.9720 H   0  0  0  0  0  0  0  0  0  0  0  0
  -24.1840  -36.8330   23.0090 C   0  0  0  0  0  1  0  0  0  0  0  0
  -25.4060  -36.4260   23.8470 C   0  0  0  0  0  3  0  0  0  0  0  0
  -27.5290  -37.3030   24.7180 C   0  0  0  0  0  1  0  0  0  0  0  0
  -26.4480  -37.4700   23.7510 N   0  0  0  0  0  0  0  0  0  0  0  0
  -26.0440  -38.3940   23.8750 H   0  0  0  0  0  0  0  0  0  0  0  0
  1  3  2  0
  2  1  1  0
  4  2  1  0
  5  7  1  0
  5  1  1  0
  6  8  2  0
  7  6  1  0
  9  7  1  0
 10  6  1  0
 10 12  1  0
 11 15  1  0
 12 11  1  0
 12 14  1  0
 13 11  2  0
 15 24  1  0
 16 24  1  0
 17 22  1  0
 18 19  1  0
 18 17  1  0
 20 19  1  0
 20 29  1  0
 20 21  1  0
 22 16  1  0
 22 21  1  0
 23 16  2  0
 24 25  1  0
 26 27  2  0
 27 46  1  0
 28 27  1  0
 28 31  1  0
 29 26  1  0
 29 30  1  0
 30 28  2  0
 31 32  1  0
 32 33  2  0
 34 37  1  0
 34 33  1  0
 35 34  2  0
 36 35  1  0
 36 31  2  0
 37 38  1  0
 38 39  1  0
 39 40  2  0
 41 40  1  0
 41 45  1  0
 42 41  2  0
 43 38  2  0
 43 42  1  0
 44 43  1  0
 46 47  1  0
 47 50  1  0
 47 49  1  0
 48 46  2  0
 51 52  1  0
 51 26  1  0
 53 51  1  0
 54  2  1  0
 55 54  1  0
 55 56  1  0
 56 58  1  0
 56 59  1  0
 57 55  2  0
 59 60  1  0
 60 61  1  0
 61 62  1  0
 62 64  1  0
 63 74  2  0
 64 69  1  0
 65 73  1  0
 65 75  1  0
 66 72  1  0
 66 68  1  0
 67 73  1  0
 68 67  1  0
 69 68  2  0
 70 71  1  0
 70 64  2  0
 71 66  2  0
 72 65  1  0
 73 63  1  0
 75 77  2  0
 76 75  1  0
 78 76  1  0
 79 88  2  0
 79 84  1  0
 80 76  1  0
 80 84  1  0
 81 80  1  0
 82 83  1  0
 82 81  1  0
 83 79  1  0
 84 85  2  0
 85 86  1  0
 87 86  2  0
 88 87  1  0
 89 63  1  0
 89 94  1  0
 89 90  1  0
 90 93  1  1
 90 91  1  0
 92 90  1  0
 94 97  1  0
 95 99  1  0
 95 94  1  0
 96 95  2  0
 99 98  1  0
101 99  1  0
101102  1  0
101100  1  0
M  ISO  4  16 100  24 100  61 101  62 101
M  END
>  <TORSDO>  (50) 
F 26

>  <SCORE>  (50) 
-11.985

>  <name>  (50) 
53

>  <ligand_id>  (50) 
53

>  <original_smiles>  (50) 
[H]c1c([H])c([H])c2c(c1[H])C([H])([H])C([H])([H])C([H])([H])C2([H])N([H])C(=O)C1([H])N(C(=O)C([H])(N([H])C(=O)C([H])(N([H])C([H])([H])[H])C([H])([H])[H])C(C([H])([H])[H])(C([H])([H])[H])C([H])([H])[H])C([H])([H])c2c([H])c(OC([H])([H])C([H])([H])C([H])([H])N([H])C(=O)C([H])([H])N([H])C(=O)C([H])([H])N([H])C(=O)C([H])([H])N([H])C(=O)C([H])([H])N([H])C(=O)N3C([H])([H])C([H])([H])C([H])([H])C([H])(n4nc(-c5c([H])c([H])c(Oc6c([H])c([H])c(F)c([H])c6F)c([H])c5[H])c(C(=O)N([H])[H])c4N([H])[H])C3([H])[H])c([H])c([H])c2C1([H])[H]

>  <smiles>  (50) 
[H]c1c([H])c([H])c2c(c1[H])C([H])([H])C([H])([H])C([H])([H])C2([H])N([H])C(=O)C1([H])N(C(=O)C([H])(N([H])C(=O)C([H])(N([H])C([H])([H])[H])C([H])([H])[H])C(C([H])([H])[H])(C([H])([H])[H])C([H])([H])[H])C([H])([H])c2c([H])c(OC([H])([H])C([H])([H])C([H])([H])N([H])C(=O)C([H])([H])N([H])C(=O)C([H])([H])N([H])C(=O)C([H])([H])N([H])C(=O)C([H])([H])N([H])C(=O)N3C([H])([H])C([H])([H])C([H])([H])C([H])(n4nc(-c5c([H])c([H])c(Oc6c([H])c([H])c(F)c([H])c6F)c([H])c5[H])c(C(=O)N([H])[H])c4N([H])[H])C3([H])[H])c([H])c([H])c2C1([H])[H]

$$$$
55:0:0
     RDKit          3D

103110  0  0  1  0  0  0  0  0999 V2000
  -31.6480  -26.7800   17.5710 N   0  0  0  0  0  4  0  0  0  0  0  0
  -31.9970  -27.5370   17.0030 H   0  0  0  0  0  0  0  0  0  0  0  0
  -32.4470  -26.2460   17.8730 H   0  0  0  0  0  0  0  0  0  0  0  0
  -30.9650  -27.3810   18.7360 C   0  0  0  0  0  2  0  0  0  0  0  0
  -31.8300  -28.4240   19.4690 C   0  0  0  0  0  2  0  0  0  0  0  0
  -31.2410  -28.8190   20.7500 N   0  0  0  0  0  0  0  0  0  0  0  0
  -31.6330  -29.7290   20.9910 H   0  0  0  0  0  0  0  0  0  0  0  0
  -31.5900  -27.9140   21.8440 C   0  0  0  0  0  2  0  0  0  0  0  0
  -30.3440  -27.4260   22.6120 C   0  0  0  0  0  2  0  0  0  0  0  0
  -29.8440  -26.0320   22.1700 C   0  0  0  0  0  2  0  0  0  0  0  0
  -28.4470  -26.0100   21.5280 C   0  0  0  0  0  2  0  0  0  0  0  0
  -28.3930  -26.7240   20.2910 O   0  0  0  0  0  0  0  0  0  0  0  0
  -24.5870  -31.9070   23.2310 C   0  0  0  0  0  0  0  0  0  0  0  0
  -27.2570  -27.4740   20.2070 C   0  0  0  0  0  0  0  0  0  0  0  0
  -23.3900  -30.4800   21.5980 C   0  0  0  0  0  3  0  0  0  0  0  0
  -24.8530  -28.9370   20.1850 C   0  0  0  0  0  0  0  0  0  0  0  0
  -25.9070  -30.8590   21.4030 C   0  0  0  0  0  2  0  0  0  0  0  0
  -26.0010  -29.4840   20.7730 C   0  0  0  0  0  0  0  0  0  0  0  0
  -27.2070  -28.7600   20.7830 C   0  0  0  0  0  3  0  0  0  0  0  0
  -26.1070  -26.9290   19.6080 C   0  0  0  0  0  3  0  0  0  0  0  0
  -24.8990  -27.6550   19.6020 C   0  0  0  0  0  3  0  0  0  0  0  0
  -23.6060  -29.7930   20.2200 C   0  0  0  0  0  2  0  0  0  0  0  0
  -24.6440  -31.1000   22.1360 N   0  0  0  0  0  0  0  0  0  0  0  0
  -23.5080  -32.1830   23.7730 O   0  0  0  0  0  0  0  0  0  0  0  0
  -22.7380  -29.4630   22.5620 C   0  0  0  0  0  0  0  0  0  0  0  0
  -21.4120  -29.2860   22.4380 N   0  0  0  0  0  0  0  0  0  0  0  0
  -23.4200  -28.8390   23.3780 O   0  0  0  0  0  0  0  0  0  0  0  0
  -20.9270  -29.8370   21.7450 H   0  0  0  0  0  0  0  0  0  0  0  0
  -18.0280  -28.1440   22.9490 C   0  0  0  0  0  0  0  0  0  0  0  0
  -20.5910  -28.3560   23.2110 C   0  0  0  0  0  3  0  0  0  0  0  0
  -20.6710  -26.9290   22.6210 C   0  0  0  0  0  2  0  0  0  0  0  0
  -19.5580  -26.6300   21.6130 C   0  0  0  0  0  2  0  0  0  0  0  0
  -18.1840  -26.7930   22.2690 C   0  0  0  0  0  2  0  0  0  0  0  0
  -19.1620  -28.8820   23.3770 C   0  0  0  0  0  0  0  0  0  0  0  0
  -18.9700  -30.1490   23.9710 C   0  0  0  0  0  3  0  0  0  0  0  0
  -17.6770  -30.6710   24.1510 C   0  0  0  0  0  3  0  0  0  0  0  0
  -16.5570  -29.9260   23.7430 C   0  0  0  0  0  3  0  0  0  0  0  0
  -16.7330  -28.6660   23.1450 C   0  0  0  0  0  3  0  0  0  0  0  0
  -25.8740  -32.5380   23.8490 C   0  0  0  0  0  3  0  0  0  0  0  0
  -25.5620  -33.9370   24.1740 N   0  0  0  0  0  0  0  0  0  0  0  0
  -25.9010  -34.9810   23.4060 C   0  0  0  0  0  0  0  0  0  0  0  0
  -26.5800  -34.8710   22.3820 O   0  0  0  0  0  0  0  0  0  0  0  0
  -24.9520  -34.0930   24.9650 H   0  0  0  0  0  0  0  0  0  0  0  0
  -24.1810  -36.7700   23.0150 C   0  0  0  0  0  1  0  0  0  0  0  0
  -25.4100  -36.3710   23.8480 C   0  0  0  0  0  3  0  0  0  0  0  0
  -27.5350  -37.2560   24.7000 C   0  0  0  0  0  1  0  0  0  0  0  0
  -26.4500  -37.4200   23.7350 N   0  0  0  0  0  0  0  0  0  0  0  0
  -26.0460  -38.3450   23.8690 H   0  0  0  0  0  0  0  0  0  0  0  0
  -26.3900  -31.7670   25.1270 C   0  0  1  0  0  0  0  0  0  0  0  0
  -25.2950  -31.5210   26.1900 C   0  0  0  0  0  1  0  0  0  0  0  0
  -26.9790  -30.3940   24.7280 C   0  0  0  0  0  1  0  0  0  0  0  0
  -27.5380  -32.5630   25.7920 C   0  0  0  0  0  1  0  0  0  0  0  0
  -30.7860  -25.9470   16.6980 C   0  0  0  0  0  2  0  0  0  0  0  0
  -30.0500  -24.7760   17.4050 C   0  0  0  0  0  2  0  0  0  0  0  0
  -30.9130  -23.5370   17.7200 C   0  0  0  0  0  2  0  0  0  0  0  0
  -30.5330  -21.2480   18.6100 C   0  0  0  0  0  0  0  0  0  0  0  0
  -30.0990  -22.4810   18.3200 N   0  0  0  0  0  0  0  0  0  0  0  0
  -31.7010  -20.8980   18.4230 O   0  0  0  0  0  0  0  0  0  0  0  0
  -29.1320  -22.6980   18.5210 H   0  0  0  0  0  0  0  0  0  0  0  0
  -29.5090  -20.2650   19.1920 C   0  0  0  0  0  2  0  0  0  0  0  0
  -29.5980  -18.0200   20.2570 C   0  0  0  0  0  0  0  0  0  0  0  0
  -30.1830  -19.0670   19.6710 N   0  0  0  0  0  0  0  0  0  0  0  0
  -28.3720  -17.9300   20.3900 O   0  0  0  0  0  0  0  0  0  0  0  0
  -31.1850  -19.0600   19.5330 H   0  0  0  0  0  0  0  0  0  0  0  0
  -30.5430  -16.9210   20.7530 C   0  0  0  0  0  2  0  0  0  0  0  0
  -30.7470  -14.4880   20.6200 C   0  0  0  0  0  0  0  0  0  0  0  0
  -30.3940  -12.3740   19.4410 C   0  0  0  0  0  2  0  0  0  0  0  0
  -29.4790  -12.6470   18.2310 C   0  0  0  0  0  2  0  0  0  0  0  0
  -27.9970  -12.5250   18.6370 C   0  0  0  0  0  2  0  0  0  0  0  0
  -27.6530  -13.3230   19.9250 C   0  0  0  0  0  3  0  0  0  0  0  0
  -28.6950  -13.0820   21.0420 C   0  0  0  0  0  2  0  0  0  0  0  0
  -30.0320  -13.3460   20.4830 N   0  0  0  0  0  0  0  0  0  0  0  0
  -31.9010  -14.6280   20.2120 O   0  0  0  0  0  0  0  0  0  0  0  0
  -30.0490  -15.5640   20.9880 N   0  0  0  0  0  0  0  0  0  0  0  0
  -29.0690  -15.4540   21.1980 H   0  0  0  0  0  0  0  0  0  0  0  0
  -25.2310  -13.8940   20.5820 C   0  0  0  0  0  0  0  0  0  0  0  0
  -24.1660  -13.1100   20.9270 C   0  0  0  0  0  0  0  0  0  0  0  0
  -24.6460  -11.7610   20.9130 C   0  0  0  0  0  0  0  0  0  0  0  0
  -26.2950  -13.0290   20.3780 N   0  0  0  0  0  0  0  0  0  0  0  0
  -25.9440  -11.7410   20.6350 N   0  0  0  0  0  0  0  0  0  0  0  0
  -23.9320  -10.4930   21.0940 C   0  0  0  0  0  0  0  0  0  0  0  0
  -24.3640   -9.5300   22.0330 C   0  0  0  0  0  3  0  0  0  0  0  0
  -23.6500   -8.3240   22.2030 C   0  0  0  0  0  3  0  0  0  0  0  0
  -22.4910   -8.0700   21.4330 C   0  0  0  0  0  0  0  0  0  0  0  0
  -22.0790   -9.0210   20.4830 C   0  0  0  0  0  3  0  0  0  0  0  0
  -22.7920  -10.2190   20.3110 C   0  0  0  0  0  3  0  0  0  0  0  0
  -21.7480   -6.9170   21.5100 O   0  0  0  0  0  0  0  0  0  0  0  0
  -21.6990   -6.1680   22.6560 C   0  0  0  0  0  0  0  0  0  0  0  0
  -21.2490   -6.7100   23.8810 C   0  0  0  0  0  3  0  0  0  0  0  0
  -21.1500   -5.8880   25.0210 C   0  0  0  0  0  3  0  0  0  0  0  0
  -21.4890   -4.5240   24.9370 C   0  0  0  0  0  0  0  0  0  0  0  0
  -21.9320   -3.9810   23.7190 C   0  0  0  0  0  3  0  0  0  0  0  0
  -22.0340   -4.8000   22.5810 C   0  0  0  0  0  0  0  0  0  0  0  0
  -22.4400   -4.2690   21.4040 F   0  0  0  0  0  0  0  0  0  0  0  0
  -21.3870   -3.7310   26.0300 F   0  0  0  0  0  0  0  0  0  0  0  0
  -22.7560  -13.5650   21.1730 C   0  0  0  0  0  0  0  0  0  0  0  0
  -22.0230  -12.8590   22.0220 N   0  0  0  0  0  0  0  0  0  0  0  0
  -22.3160  -14.5860   20.6430 O   0  0  0  0  0  0  0  0  0  0  0  0
  -22.3970  -12.0360   22.4730 H   0  0  0  0  0  0  0  0  0  0  0  0
  -21.0740  -13.1430   22.2310 H   0  0  0  0  0  0  0  0  0  0  0  0
  -25.3770  -15.2690   20.4030 N   0  0  0  0  0  0  0  0  0  0  0  0
  -24.5970  -15.9090   20.5020 H   0  0  0  0  0  0  0  0  0  0  0  0
  -26.2330  -15.7310   20.1170 H   0  0  0  0  0  0  0  0  0  0  0  0
  1  3  1  0
  1  4  1  0
  2  1  1  0
  4  5  1  0
  5  6  1  0
  6  7  1  0
  6  8  1  0
  8  9  1  0
 10  9  1  0
 11 10  1  0
 12 11  1  0
 13 24  2  0
 14 12  1  0
 14 19  1  0
 15 23  1  0
 15 25  1  0
 16 22  1  0
 16 18  1  0
 17 23  1  0
 18 19  2  0
 18 17  1  0
 20 14  2  0
 21 20  1  0
 21 16  2  0
 22 15  1  0
 23 13  1  0
 25 27  2  0
 26 25  1  0
 28 26  1  0
 29 38  2  0
 29 34  1  0
 30 26  1  0
 30 34  1  0
 31 30  1  0
 32 33  1  0
 32 31  1  0
 33 29  1  0
 34 35  2  0
 35 36  1  0
 37 36  2  0
 38 37  1  0
 39 13  1  0
 39 40  1  0
 39 49  1  0
 40 43  1  0
 41 45  1  0
 41 40  1  0
 42 41  2  0
 45 44  1  0
 47 45  1  0
 47 48  1  0
 47 46  1  0
 49 52  1  1
 49 50  1  0
 51 49  1  0
 53 54  1  0
 53  1  1  0
 54 55  1  0
 55 57  1  0
 56 60  1  0
 57 59  1  0
 57 56  1  0
 58 56  2  0
 60 62  1  0
 61 63  2  0
 61 65  1  0
 62 61  1  0
 64 62  1  0
 65 74  1  0
 66 74  1  0
 67 72  1  0
 68 69  1  0
 68 67  1  0
 70 69  1  0
 70 79  1  0
 70 71  1  0
 72 66  1  0
 72 71  1  0
 73 66  2  0
 74 75  1  0
 76 77  2  0
 77 96  1  0
 78 77  1  0
 78 81  1  0
 79 76  1  0
 79 80  1  0
 80 78  2  0
 81 82  1  0
 82 83  2  0
 84 87  1  0
 84 83  1  0
 85 84  2  0
 86 85  1  0
 86 81  2  0
 87 88  1  0
 88 89  1  0
 89 90  2  0
 91 90  1  0
 91 95  1  0
 92 91  2  0
 93 88  2  0
 93 92  1  0
 94 93  1  0
 96 97  1  0
 97100  1  0
 97 99  1  0
 98 96  2  0
101102  1  0
101 76  1  0
103101  1  0
M  ISO  4  11 101  12 101  66 100  74 100
M  END
>  <TORSDO>  (51) 
F 30

>  <SCORE>  (51) 
-11.202

>  <name>  (51) 
55

>  <ligand_id>  (51) 
55

>  <original_smiles>  (51) 
[H]c1c([H])c([H])c2c(c1[H])C([H])([H])C([H])([H])C([H])([H])C2([H])N([H])C(=O)C1([H])N(C(=O)C([H])(N([H])C(=O)C([H])(N([H])C([H])([H])[H])C([H])([H])[H])C(C([H])([H])[H])(C([H])([H])[H])C([H])([H])[H])C([H])([H])c2c([H])c(OC([H])([H])C([H])([H])C([H])([H])C([H])([H])N([H])C([H])([H])C([H])([H])[N+]([H])([H])C([H])([H])C([H])([H])C([H])([H])N([H])C(=O)C([H])([H])N([H])C(=O)C([H])([H])N([H])C(=O)N3C([H])([H])C([H])([H])C([H])([H])C([H])(n4nc(-c5c([H])c([H])c(Oc6c([H])c([H])c(F)c([H])c6F)c([H])c5[H])c(C(=O)N([H])[H])c4N([H])[H])C3([H])[H])c([H])c([H])c2C1([H])[H]

>  <smiles>  (51) 
[H]c1c([H])c([H])c2c(c1[H])C([H])([H])C([H])([H])C([H])([H])C2([H])N([H])C(=O)C1([H])N(C(=O)C([H])(N([H])C(=O)C([H])(N([H])C([H])([H])[H])C([H])([H])[H])C(C([H])([H])[H])(C([H])([H])[H])C([H])([H])[H])C([H])([H])c2c([H])c(OC([H])([H])C([H])([H])C([H])([H])C([H])([H])N([H])C([H])([H])C([H])([H])[N+]([H])([H])C([H])([H])C([H])([H])C([H])([H])N([H])C(=O)C([H])([H])N([H])C(=O)C([H])([H])N([H])C(=O)N3C([H])([H])C([H])([H])C([H])([H])C([H])(n4nc(-c5c([H])c([H])c(Oc6c([H])c([H])c(F)c([H])c6F)c([H])c5[H])c(C(=O)N([H])[H])c4N([H])[H])C3([H])[H])c([H])c([H])c2C1([H])[H]

$$$$
56:0:0
     RDKit          3D

112119  0  0  1  0  0  0  0  0999 V2000
  -23.7450  -18.6270   22.9950 C   0  0  0  0  0  0  0  0  0  0  0  0
  -23.0610  -19.2480   23.9620 N   0  0  0  0  0  0  0  0  0  0  0  0
  -24.1460  -19.2130   21.9860 O   0  0  0  0  0  0  0  0  0  0  0  0
  -22.8000  -18.7160   24.7770 H   0  0  0  0  0  0  0  0  0  0  0  0
  -22.7380  -20.6710   23.9770 C   0  0  0  0  0  2  0  0  0  0  0  0
  -23.8960  -21.4920   24.5620 C   0  0  0  0  0  0  0  0  0  0  0  0
  -24.2820  -22.5750   23.8780 N   0  0  0  0  0  0  0  0  0  0  0  0
  -24.4420  -21.1360   25.6100 O   0  0  0  0  0  0  0  0  0  0  0  0
  -23.7940  -22.8020   23.0240 H   0  0  0  0  0  0  0  0  0  0  0  0
  -25.3950  -23.4450   24.2410 C   0  0  0  0  0  2  0  0  0  0  0  0
  -24.8980  -24.8480   24.6170 C   0  0  0  0  0  0  0  0  0  0  0  0
  -24.5610  -25.7050   23.6420 N   0  0  0  0  0  0  0  0  0  0  0  0
  -24.8100  -25.1800   25.7990 O   0  0  0  0  0  0  0  0  0  0  0  0
  -24.3030  -26.6380   23.9410 H   0  0  0  0  0  0  0  0  0  0  0  0
  -24.4420  -25.3830   22.2180 C   0  0  0  0  0  2  0  0  0  0  0  0
  -23.5770  -26.3820   21.4490 C   0  0  0  0  0  2  0  0  0  0  0  0
  -24.3490  -27.6090   20.9110 C   0  0  0  0  0  2  0  0  0  0  0  0
  -23.5640  -28.8010   20.9570 O   0  0  0  0  0  0  0  0  0  0  0  0
  -27.8020  -33.1420   24.7280 C   0  0  0  0  0  0  0  0  0  0  0  0
  -23.7610  -29.5770   22.0740 C   0  0  0  0  0  0  0  0  0  0  0  0
  -25.7020  -32.4290   25.8330 C   0  0  0  0  0  3  0  0  0  0  0  0
  -24.0320  -31.2240   24.3400 C   0  0  0  0  0  0  0  0  0  0  0  0
  -25.8610  -32.5570   23.2870 C   0  0  0  0  0  2  0  0  0  0  0  0
  -24.8570  -31.4270   23.2260 C   0  0  0  0  0  0  0  0  0  0  0  0
  -24.7330  -30.6040   22.0870 C   0  0  0  0  0  3  0  0  0  0  0  0
  -22.9400  -29.3860   23.2020 C   0  0  0  0  0  3  0  0  0  0  0  0
  -23.0830  -30.1920   24.3410 C   0  0  0  0  0  3  0  0  0  0  0  0
  -24.2090  -32.1580   25.5120 C   0  0  0  0  0  2  0  0  0  0  0  0
  -26.5140  -32.7090   24.6070 N   0  0  0  0  0  0  0  0  0  0  0  0
  -28.3030  -33.3550   25.8430 O   0  0  0  0  0  0  0  0  0  0  0  0
  -26.2520  -31.2430   26.6640 C   0  0  0  0  0  0  0  0  0  0  0  0
  -25.9280  -31.2280   27.9700 N   0  0  0  0  0  0  0  0  0  0  0  0
  -26.9270  -30.3540   26.1350 O   0  0  0  0  0  0  0  0  0  0  0  0
  -25.3710  -31.9930   28.3250 H   0  0  0  0  0  0  0  0  0  0  0  0
  -25.7250  -30.2950   31.4510 C   0  0  0  0  0  0  0  0  0  0  0  0
  -26.3010  -30.1960   28.9340 C   0  0  0  0  0  3  0  0  0  0  0  0
  -25.3280  -28.9970   28.8670 C   0  0  0  0  0  2  0  0  0  0  0  0
  -24.1610  -29.1240   29.8490 C   0  0  0  0  0  2  0  0  0  0  0  0
  -24.6870  -29.1970   31.2820 C   0  0  0  0  0  2  0  0  0  0  0  0
  -26.4700  -30.7770   30.3440 C   0  0  0  0  0  0  0  0  0  0  0  0
  -27.3910  -31.8290   30.5430 C   0  0  0  0  0  3  0  0  0  0  0  0
  -27.5760  -32.3900   31.8220 C   0  0  0  0  0  3  0  0  0  0  0  0
  -26.8520  -31.8910   32.9210 C   0  0  0  0  0  3  0  0  0  0  0  0
  -25.9350  -30.8420   32.7340 C   0  0  0  0  0  3  0  0  0  0  0  0
  -28.6960  -33.4150   23.4760 C   0  0  0  0  0  3  0  0  0  0  0  0
  -29.6870  -32.2340   23.1420 C   0  0  1  0  0  0  0  0  0  0  0  0
  -30.5410  -31.7800   24.3480 C   0  0  0  0  0  1  0  0  0  0  0  0
  -28.9160  -30.9970   22.6180 C   0  0  0  0  0  1  0  0  0  0  0  0
  -30.6490  -32.6590   22.0050 C   0  0  0  0  0  1  0  0  0  0  0  0
  -29.4330  -34.6610   23.7220 N   0  0  0  0  0  0  0  0  0  0  0  0
  -29.1070  -35.8510   23.1990 C   0  0  0  0  0  0  0  0  0  0  0  0
  -28.1870  -35.9980   22.3900 O   0  0  0  0  0  0  0  0  0  0  0  0
  -30.1640  -34.6270   24.4170 H   0  0  0  0  0  0  0  0  0  0  0  0
  -29.1600  -37.8530   24.7190 C   0  0  0  0  0  1  0  0  0  0  0  0
  -29.9340  -37.0700   23.6470 C   0  0  0  0  0  3  0  0  0  0  0  0
  -31.2450  -37.3890   21.5950 C   0  0  0  0  0  1  0  0  0  0  0  0
  -30.2930  -37.9750   22.5360 N   0  0  0  0  0  0  0  0  0  0  0  0
  -30.6880  -38.8400   22.8900 H   0  0  0  0  0  0  0  0  0  0  0  0
  -24.0360  -17.1340   23.2020 C   0  0  0  0  0  2  0  0  0  0  0  0
  -25.4060  -15.3550   22.1430 C   0  0  0  0  0  0  0  0  0  0  0  0
  -24.8220  -16.5560   22.1140 N   0  0  0  0  0  0  0  0  0  0  0  0
  -25.3740  -14.6330   23.1400 O   0  0  0  0  0  0  0  0  0  0  0  0
  -24.8770  -17.0890   21.2580 H   0  0  0  0  0  0  0  0  0  0  0  0
  -26.1470  -14.9120   20.8770 C   0  0  0  0  0  2  0  0  0  0  0  0
  -27.9530  -16.4760   21.6090 C   0  0  0  0  0  0  0  0  0  0  0  0
  -27.3370  -15.7360   20.6830 N   0  0  0  0  0  0  0  0  0  0  0  0
  -27.6820  -16.4090   22.8110 O   0  0  0  0  0  0  0  0  0  0  0  0
  -27.6120  -15.8770   19.7200 H   0  0  0  0  0  0  0  0  0  0  0  0
  -29.0550  -17.4130   21.1000 C   0  0  0  0  0  2  0  0  0  0  0  0
  -28.8420  -19.6130   19.9220 C   0  0  0  0  0  0  0  0  0  0  0  0
  -28.7210  -18.8350   21.0050 N   0  0  0  0  0  0  0  0  0  0  0  0
  -28.9650  -19.1740   18.7780 O   0  0  0  0  0  0  0  0  0  0  0  0
  -28.5510  -19.3020   21.8850 H   0  0  0  0  0  0  0  0  0  0  0  0
  -28.9490  -21.1170   20.1870 C   0  0  0  0  0  2  0  0  0  0  0  0
  -30.9930  -22.1920   19.2230 C   0  0  0  0  0  0  0  0  0  0  0  0
  -33.2370  -21.5960   20.0790 C   0  0  0  0  0  2  0  0  0  0  0  0
  -34.2810  -21.3190   18.9820 C   0  0  0  0  0  2  0  0  0  0  0  0
  -34.2310  -19.8420   18.5560 C   0  0  0  0  0  2  0  0  0  0  0  0
  -32.7990  -19.4040   18.1800 C   0  0  0  0  0  3  0  0  0  0  0  0
  -31.7950  -19.8030   19.2700 C   0  0  0  0  0  2  0  0  0  0  0  0
  -31.8980  -21.2410   19.5810 N   0  0  0  0  0  0  0  0  0  0  0  0
  -31.2980  -23.3750   19.0450 O   0  0  0  0  0  0  0  0  0  0  0  0
  -29.7070  -21.8120   19.1340 N   0  0  0  0  0  0  0  0  0  0  0  0
  -29.1340  -22.4390   18.5930 H   0  0  0  0  0  0  0  0  0  0  0  0
  -32.0270  -17.3110   16.8870 C   0  0  0  0  0  0  0  0  0  0  0  0
  -32.3290  -15.9800   17.0390 C   0  0  0  0  0  0  0  0  0  0  0  0
  -33.1970  -15.9010   18.1690 C   0  0  0  0  0  0  0  0  0  0  0  0
  -32.7100  -17.9720   17.8980 N   0  0  0  0  0  0  0  0  0  0  0  0
  -33.3630  -17.1010   18.7100 N   0  0  0  0  0  0  0  0  0  0  0  0
  -33.9250  -14.7560   18.7350 C   0  0  0  0  0  0  0  0  0  0  0  0
  -33.6520  -14.2770   20.0350 C   0  0  0  0  0  3  0  0  0  0  0  0
  -34.3570  -13.1670   20.5490 C   0  0  0  0  0  3  0  0  0  0  0  0
  -35.3440  -12.5280   19.7630 C   0  0  0  0  0  0  0  0  0  0  0  0
  -35.6290  -13.0250   18.4810 C   0  0  0  0  0  3  0  0  0  0  0  0
  -34.9300  -14.1320   17.9710 C   0  0  0  0  0  3  0  0  0  0  0  0
  -36.0960  -11.4580   20.1900 O   0  0  0  0  0  0  0  0  0  0  0  0
  -35.5610  -10.4650   20.9710 C   0  0  0  0  0  0  0  0  0  0  0  0
  -34.4360   -9.7210   20.5580 C   0  0  0  0  0  3  0  0  0  0  0  0
  -33.9580   -8.6640   21.3590 C   0  0  0  0  0  3  0  0  0  0  0  0
  -34.6090   -8.3460   22.5680 C   0  0  0  0  0  0  0  0  0  0  0  0
  -35.7330   -9.0840   22.9780 C   0  0  0  0  0  3  0  0  0  0  0  0
  -36.2080  -10.1400   22.1800 C   0  0  0  0  0  0  0  0  0  0  0  0
  -37.3040  -10.8360   22.5700 F   0  0  0  0  0  0  0  0  0  0  0  0
  -34.1560   -7.3270   23.3340 F   0  0  0  0  0  0  0  0  0  0  0  0
  -31.9210  -14.8630   16.1240 C   0  0  0  0  0  0  0  0  0  0  0  0
  -31.7290  -13.6640   16.6680 N   0  0  0  0  0  0  0  0  0  0  0  0
  -31.7370  -15.0510   14.9230 O   0  0  0  0  0  0  0  0  0  0  0  0
  -31.8510  -13.5170   17.6580 H   0  0  0  0  0  0  0  0  0  0  0  0
  -31.4320  -12.8920   16.0900 H   0  0  0  0  0  0  0  0  0  0  0  0
  -31.2570  -18.0120   15.9650 N   0  0  0  0  0  0  0  0  0  0  0  0
  -30.7670  -17.5490   15.2080 H   0  0  0  0  0  0  0  0  0  0  0  0
  -31.1290  -19.0170   15.9690 H   0  0  0  0  0  0  0  0  0  0  0  0
  1 59  1  0
  1  2  1  0
  2  5  1  0
  2  4  1  0
  3  1  2  0
  5  6  1  0
  6  8  2  0
  7 10  1  0
  7  6  1  0
  9  7  1  0
 10 11  1  0
 11 13  2  0
 12 14  1  0
 12 11  1  0
 15 12  1  0
 16 15  1  0
 17 18  1  0
 17 16  1  0
 18 20  1  0
 19 30  2  0
 20 25  2  0
 20 26  1  0
 21 31  1  0
 22 27  1  0
 22 28  1  0
 23 29  1  0
 24 23  1  0
 24 22  2  0
 25 24  1  0
 26 27  2  0
 28 21  1  0
 29 19  1  0
 29 21  1  0
 31 32  1  0
 32 34  1  0
 33 31  2  0
 35 44  1  0
 36 32  1  0
 36 40  1  0
 37 36  1  0
 37 38  1  0
 38 39  1  0
 39 35  1  0
 40 41  1  0
 40 35  2  0
 41 42  2  0
 42 43  1  0
 44 43  2  0
 45 50  1  0
 45 19  1  0
 46 45  1  0
 46 47  1  1
 48 46  1  0
 49 46  1  0
 50 53  1  0
 51 55  1  0
 51 50  1  0
 52 51  2  0
 55 54  1  0
 56 57  1  0
 57 58  1  0
 57 55  1  0
 60 62  2  0
 61 60  1  0
 61 59  1  0
 63 61  1  0
 64 60  1  0
 65 67  2  0
 66 64  1  0
 66 65  1  0
 68 66  1  0
 69 65  1  0
 70 74  1  0
 70 71  1  0
 71 69  1  0
 71 73  1  0
 72 70  2  0
 75 81  1  0
 77 76  1  0
 78 77  1  0
 79 88  1  0
 79 78  1  0
 79 80  1  0
 80 81  1  0
 81 76  1  0
 82 75  2  0
 83 75  1  0
 83 74  1  0
 84 83  1  0
 85 86  2  0
 85 88  1  0
 86 87  1  0
 87 89  2  0
 87 90  1  0
 88 89  1  0
 90 91  1  0
 91 92  2  0
 93 96  1  0
 93 92  1  0
 94 93  2  0
 95 94  1  0
 95 90  2  0
 96 97  1  0
 97102  1  0
 98 97  2  0
 98 99  1  0
 99100  2  0
100101  1  0
100104  1  0
102103  1  0
102101  2  0
105106  1  0
105 86  1  0
106108  1  0
107105  2  0
109106  1  0
110112  1  0
110 85  1  0
111110  1  0
M  ISO  4  17 101  18 101  75 100  83 100
M  END
>  <TORSDO>  (52) 
F 30

>  <SCORE>  (52) 
50.159

>  <name>  (52) 
56

>  <ligand_id>  (52) 
56

>  <original_smiles>  (52) 
[H]c1c([H])c([H])c2c(c1[H])C([H])([H])C([H])([H])C([H])([H])C2([H])N([H])C(=O)C1([H])N(C(=O)C([H])(N([H])C(=O)C([H])(N([H])C([H])([H])[H])C([H])([H])[H])C(C([H])([H])[H])(C([H])([H])[H])C([H])([H])[H])C([H])([H])c2c([H])c(OC([H])([H])C([H])([H])C([H])([H])N([H])C(=O)C([H])([H])N([H])C(=O)C([H])([H])N([H])C(=O)C([H])([H])N([H])C(=O)C([H])([H])N([H])C(=O)C([H])([H])N([H])C(=O)C([H])([H])N([H])C(=O)N3C([H])([H])C([H])([H])C([H])([H])C([H])(n4nc(-c5c([H])c([H])c(Oc6c([H])c([H])c(F)c([H])c6F)c([H])c5[H])c(C(=O)N([H])[H])c4N([H])[H])C3([H])[H])c([H])c([H])c2C1([H])[H]

>  <smiles>  (52) 
[H]c1c([H])c([H])c2c(c1[H])C([H])([H])C([H])([H])C([H])([H])C2([H])N([H])C(=O)C1([H])N(C(=O)C([H])(N([H])C(=O)C([H])(N([H])C([H])([H])[H])C([H])([H])[H])C(C([H])([H])[H])(C([H])([H])[H])C([H])([H])[H])C([H])([H])c2c([H])c(OC([H])([H])C([H])([H])C([H])([H])N([H])C(=O)C([H])([H])N([H])C(=O)C([H])([H])N([H])C(=O)C([H])([H])N([H])C(=O)C([H])([H])N([H])C(=O)C([H])([H])N([H])C(=O)C([H])([H])N([H])C(=O)N3C([H])([H])C([H])([H])C([H])([H])C([H])(n4nc(-c5c([H])c([H])c(Oc6c([H])c([H])c(F)c([H])c6F)c([H])c5[H])c(C(=O)N([H])[H])c4N([H])[H])C3([H])[H])c([H])c([H])c2C1([H])[H]

$$$$
57:0:0
     RDKit          3D

110117  0  0  1  0  0  0  0  0999 V2000
  -27.6410  -20.3110   18.0350 C   0  0  0  0  0  0  0  0  0  0  0  0
  -27.0070  -21.2880   18.6930 N   0  0  0  0  0  0  0  0  0  0  0  0
  -27.8420  -19.1970   18.5240 O   0  0  0  0  0  0  0  0  0  0  0  0
  -26.8830  -22.1640   18.2060 H   0  0  0  0  0  0  0  0  0  0  0  0
  -26.6060  -21.2670   20.0990 C   0  0  0  0  0  2  0  0  0  0  0  0
  -27.4710  -22.2380   20.9130 C   0  0  0  0  0  0  0  0  0  0  0  0
  -26.8410  -23.0960   21.7230 N   0  0  0  0  0  0  0  0  0  0  0  0
  -28.6990  -22.2380   20.7910 O   0  0  0  0  0  0  0  0  0  0  0  0
  -25.8320  -23.0560   21.7570 H   0  0  0  0  0  0  0  0  0  0  0  0
  -27.4770  -24.1520   22.5180 C   0  0  0  0  0  2  0  0  0  0  0  0
  -27.8610  -25.3690   21.6650 C   0  0  0  0  0  0  0  0  0  0  0  0
  -28.6850  -25.1430   20.6340 N   0  0  0  0  0  0  0  0  0  0  0  0
  -27.3890  -26.4790   21.9120 O   0  0  0  0  0  0  0  0  0  0  0  0
  -28.9920  -24.1810   20.5230 H   0  0  0  0  0  0  0  0  0  0  0  0
  -29.1010  -26.1060   19.6210 C   0  0  0  0  0  2  0  0  0  0  0  0
  -27.9980  -26.2880   18.5670 C   0  0  0  0  0  2  0  0  0  0  0  0
  -28.3090  -27.3860   17.5340 C   0  0  0  0  0  2  0  0  0  0  0  0
  -27.1500  -27.6610   16.7490 O   0  0  0  0  0  0  0  0  0  0  0  0
  -24.7080  -30.4820   22.7990 C   0  0  0  0  0  0  0  0  0  0  0  0
  -26.0680  -28.0720   17.4820 C   0  0  0  0  0  0  0  0  0  0  0  0
  -23.0070  -29.4770   21.3070 C   0  0  0  0  0  3  0  0  0  0  0  0
  -23.8110  -28.8730   18.9620 C   0  0  0  0  0  0  0  0  0  0  0  0
  -25.1690  -30.4480   20.3540 C   0  0  0  0  0  2  0  0  0  0  0  0
  -25.0670  -29.4240   19.2470 C   0  0  0  0  0  0  0  0  0  0  0  0
  -26.2020  -29.0250   18.5120 C   0  0  0  0  0  3  0  0  0  0  0  0
  -24.8000  -27.5270   17.1950 C   0  0  0  0  0  3  0  0  0  0  0  0
  -23.6700  -27.9170   17.9400 C   0  0  0  0  0  3  0  0  0  0  0  0
  -22.6500  -29.3590   19.8010 C   0  0  0  0  0  2  0  0  0  0  0  0
  -24.3350  -30.1330   21.5360 N   0  0  0  0  0  0  0  0  0  0  0  0
  -23.9470  -30.3100   23.7630 O   0  0  0  0  0  0  0  0  0  0  0  0
  -22.8960  -28.0760   21.9500 C   0  0  0  0  0  0  0  0  0  0  0  0
  -21.7160  -27.4480   21.8150 N   0  0  0  0  0  0  0  0  0  0  0  0
  -23.8610  -27.5650   22.5240 O   0  0  0  0  0  0  0  0  0  0  0  0
  -20.9730  -27.9390   21.3380 H   0  0  0  0  0  0  0  0  0  0  0  0
  -19.3660  -24.7250   21.4870 C   0  0  0  0  0  0  0  0  0  0  0  0
  -21.3910  -26.1090   22.3020 C   0  0  0  0  0  3  0  0  0  0  0  0
  -22.2700  -25.0380   21.6130 C   0  0  0  0  0  2  0  0  0  0  0  0
  -21.6160  -24.4310   20.3680 C   0  0  0  0  0  2  0  0  0  0  0  0
  -20.2780  -23.7780   20.7260 C   0  0  0  0  0  2  0  0  0  0  0  0
  -19.8870  -25.8290   22.2130 C   0  0  0  0  0  0  0  0  0  0  0  0
  -18.9920  -26.7010   22.8700 C   0  0  0  0  0  3  0  0  0  0  0  0
  -17.6030  -26.4840   22.8140 C   0  0  0  0  0  3  0  0  0  0  0  0
  -17.0940  -25.3790   22.1100 C   0  0  0  0  0  3  0  0  0  0  0  0
  -17.9740  -24.5000   21.4530 C   0  0  0  0  0  3  0  0  0  0  0  0
  -26.0970  -31.1360   23.0930 C   0  0  0  0  0  3  0  0  0  0  0  0
  -27.0540  -30.2120   23.9410 C   0  0  1  0  0  0  0  0  0  0  0  0
  -26.3950  -29.6430   25.2200 C   0  0  0  0  0  1  0  0  0  0  0  0
  -27.5480  -29.0180   23.0910 C   0  0  0  0  0  1  0  0  0  0  0  0
  -28.3120  -31.0060   24.3630 C   0  0  0  0  0  1  0  0  0  0  0  0
  -25.8480  -32.4060   23.7890 N   0  0  0  0  0  0  0  0  0  0  0  0
  -26.1900  -33.6110   23.3130 C   0  0  0  0  0  0  0  0  0  0  0  0
  -26.8210  -33.7630   22.2630 O   0  0  0  0  0  0  0  0  0  0  0  0
  -25.2890  -32.3590   24.6290 H   0  0  0  0  0  0  0  0  0  0  0  0
  -24.6510  -35.5970   23.3870 C   0  0  0  0  0  1  0  0  0  0  0  0
  -25.7630  -34.8440   24.1330 C   0  0  0  0  0  3  0  0  0  0  0  0
  -27.8640  -35.2050   25.3490 C   0  0  0  0  0  1  0  0  0  0  0  0
  -26.8780  -35.7680   24.4300 N   0  0  0  0  0  0  0  0  0  0  0  0
  -26.5300  -36.6340   24.8330 H   0  0  0  0  0  0  0  0  0  0  0  0
  -28.0980  -20.6570   16.6090 C   0  0  0  0  0  2  0  0  0  0  0  0
  -30.0440  -19.1720   16.1740 C   0  0  0  0  0  0  0  0  0  0  0  0
  -28.7940  -19.5690   15.9190 N   0  0  0  0  0  0  0  0  0  0  0  0
  -30.7320  -19.6820   17.0640 O   0  0  0  0  0  0  0  0  0  0  0  0
  -28.2780  -19.0870   15.1960 H   0  0  0  0  0  0  0  0  0  0  0  0
  -30.6120  -18.0320   15.3170 C   0  0  0  0  0  2  0  0  0  0  0  0
  -32.0600  -17.6360   15.6850 C   0  0  0  0  0  2  0  0  0  0  0  0
  -32.1760  -17.2090   17.0970 N   0  0  0  0  0  4  0  0  0  0  0  0
  -32.0320  -16.2090   17.2000 H   0  0  0  0  0  0  0  0  0  0  0  0
  -31.4270  -17.6810   17.5850 H   0  0  0  0  0  0  0  0  0  0  0  0
  -33.4240  -17.6090   17.7740 C   0  0  0  0  0  2  0  0  0  0  0  0
  -33.4300  -17.1340   19.2330 C   0  0  0  0  0  2  0  0  0  0  0  0
  -32.1140  -17.3960   19.9980 C   0  0  0  0  0  2  0  0  0  0  0  0
  -31.8160  -16.3080   21.0440 C   0  0  0  0  0  2  0  0  0  0  0  0
  -31.2190  -14.3110   19.5680 C   0  0  0  0  0  0  0  0  0  0  0  0
  -30.9070  -11.9260   19.0120 C   0  0  0  0  0  2  0  0  0  0  0  0
  -29.9020  -11.6590   17.8800 C   0  0  0  0  0  2  0  0  0  0  0  0
  -28.4650  -11.5890   18.4300 C   0  0  0  0  0  2  0  0  0  0  0  0
  -28.1200  -12.8040   19.3270 C   0  0  0  0  0  3  0  0  0  0  0  0
  -29.2170  -13.0260   20.3910 C   0  0  0  0  0  2  0  0  0  0  0  0
  -30.5220  -13.1580   19.7130 N   0  0  0  0  0  0  0  0  0  0  0  0
  -32.0790  -14.4890   18.6960 O   0  0  0  0  0  0  0  0  0  0  0  0
  -31.0090  -15.1780   20.5700 N   0  0  0  0  0  0  0  0  0  0  0  0
  -30.2780  -14.8880   21.2060 H   0  0  0  0  0  0  0  0  0  0  0  0
  -25.8780  -13.6300   20.2920 C   0  0  0  0  0  0  0  0  0  0  0  0
  -24.7800  -12.9570   20.7580 C   0  0  0  0  0  0  0  0  0  0  0  0
  -25.0950  -11.5680   20.6530 C   0  0  0  0  0  0  0  0  0  0  0  0
  -26.7990  -12.6560   19.9370 N   0  0  0  0  0  0  0  0  0  0  0  0
  -26.3350  -11.4090   20.2090 N   0  0  0  0  0  0  0  0  0  0  0  0
  -24.2670  -10.3790   20.8950 C   0  0  0  0  0  0  0  0  0  0  0  0
  -24.6360   -9.4040   21.8470 C   0  0  0  0  0  3  0  0  0  0  0  0
  -23.8150   -8.2780   22.0750 C   0  0  0  0  0  3  0  0  0  0  0  0
  -22.6090   -8.1220   21.3510 C   0  0  0  0  0  0  0  0  0  0  0  0
  -22.2570   -9.0850   20.3890 C   0  0  0  0  0  3  0  0  0  0  0  0
  -23.0780  -10.2010   20.1590 C   0  0  0  0  0  3  0  0  0  0  0  0
  -21.7610   -7.0480   21.4870 O   0  0  0  0  0  0  0  0  0  0  0  0
  -21.6530   -6.3620   22.6700 C   0  0  0  0  0  0  0  0  0  0  0  0
  -21.1940   -6.9830   23.8520 C   0  0  0  0  0  3  0  0  0  0  0  0
  -21.0320   -6.2240   25.0290 C   0  0  0  0  0  3  0  0  0  0  0  0
  -21.3190   -4.8460   25.0230 C   0  0  0  0  0  0  0  0  0  0  0  0
  -21.7710   -4.2250   23.8450 C   0  0  0  0  0  3  0  0  0  0  0  0
  -21.9340   -4.9810   22.6710 C   0  0  0  0  0  0  0  0  0  0  0  0
  -22.3500   -4.3740   21.5330 F   0  0  0  0  0  0  0  0  0  0  0  0
  -21.1560   -4.1140   26.1500 F   0  0  0  0  0  0  0  0  0  0  0  0
  -23.4750  -13.5620   21.1880 C   0  0  0  0  0  0  0  0  0  0  0  0
  -22.7830  -12.9260   22.1270 N   0  0  0  0  0  0  0  0  0  0  0  0
  -23.0830  -14.6320   20.7240 O   0  0  0  0  0  0  0  0  0  0  0  0
  -23.1140  -12.0580   22.5220 H   0  0  0  0  0  0  0  0  0  0  0  0
  -21.9100  -13.3110   22.4550 H   0  0  0  0  0  0  0  0  0  0  0  0
  -26.1620  -14.9820   20.1250 N   0  0  0  0  0  0  0  0  0  0  0  0
  -25.4800  -15.7040   20.3260 H   0  0  0  0  0  0  0  0  0  0  0  0
  -27.0160  -15.3450   19.7200 H   0  0  0  0  0  0  0  0  0  0  0  0
  1  3  2  0
  1  2  1  0
  2  5  1  0
  4  2  1  0
  5  6  1  0
  6  7  1  0
  7  9  1  0
  7 10  1  0
  8  6  2  0
 11 13  2  0
 11 10  1  0
 12 11  1  0
 14 12  1  0
 15 12  1  0
 16 15  1  0
 17 16  1  0
 18 20  1  0
 18 17  1  0
 19 30  2  0
 20 25  1  0
 21 29  1  0
 21 31  1  0
 22 24  1  0
 22 28  1  0
 23 29  1  0
 24 23  1  0
 25 24  2  0
 26 20  2  0
 26 27  1  0
 27 22  2  0
 28 21  1  0
 29 19  1  0
 31 33  2  0
 32 31  1  0
 34 32  1  0
 35 40  1  0
 36 32  1  0
 37 36  1  0
 38 39  1  0
 38 37  1  0
 39 35  1  0
 40 36  1  0
 40 41  2  0
 42 41  1  0
 43 42  2  0
 44 35  2  0
 44 43  1  0
 45 19  1  0
 45 50  1  0
 45 46  1  0
 46 49  1  1
 46 47  1  0
 48 46  1  0
 50 53  1  0
 51 50  1  0
 51 55  1  0
 52 51  2  0
 55 54  1  0
 55 57  1  0
 57 58  1  0
 57 56  1  0
 59  1  1  0
 60 62  2  0
 61 60  1  0
 61 59  1  0
 63 61  1  0
 64 65  1  0
 64 60  1  0
 65 66  1  0
 66 67  1  0
 66 68  1  0
 66 69  1  0
 69 70  1  0
 70 71  1  0
 71 72  1  0
 73 79  1  0
 73 81  1  0
 74 79  1  0
 75 76  1  0
 75 74  1  0
 77 76  1  0
 77 86  1  0
 77 78  1  0
 79 78  1  0
 80 73  2  0
 81 72  1  0
 81 82  1  0
 83 84  2  0
 84103  1  0
 85 84  1  0
 85 88  1  0
 86 87  1  0
 86 83  1  0
 87 85  2  0
 88 89  1  0
 89 90  2  0
 91 94  1  0
 91 90  1  0
 92 91  2  0
 93 92  1  0
 93 88  2  0
 94 95  1  0
 95100  2  0
 95 96  1  0
 96 97  2  0
 98 97  1  0
 98102  1  0
 99 98  2  0
100 99  1  0
101100  1  0
103104  1  0
104107  1  0
104106  1  0
105103  2  0
108 83  1  0
108109  1  0
110108  1  0
M  ISO  4  17 101  18 101  73 100  81 100
M  END
>  <TORSDO>  (53) 
F 32

>  <SCORE>  (53) 
-7.279

>  <name>  (53) 
57

>  <ligand_id>  (53) 
57

>  <original_smiles>  (53) 
[H]c1c([H])c([H])c2c(c1[H])C([H])([H])C([H])([H])C([H])([H])C2([H])N([H])C(=O)C1([H])N(C(=O)C([H])(N([H])C(=O)C([H])(N([H])C([H])([H])[H])C([H])([H])[H])C(C([H])([H])[H])(C([H])([H])[H])C([H])([H])[H])C([H])([H])c2c([H])c(OC([H])([H])C([H])([H])C([H])([H])N([H])C(=O)C([H])([H])N([H])C(=O)C([H])([H])N([H])C(=O)C([H])([H])N([H])C(=O)C([H])([H])C([H])([H])[N+]([H])([H])C([H])([H])C([H])([H])C([H])([H])C([H])([H])N([H])C(=O)N3C([H])([H])C([H])([H])C([H])([H])C([H])(n4nc(-c5c([H])c([H])c(Oc6c([H])c([H])c(F)c([H])c6F)c([H])c5[H])c(C(=O)N([H])[H])c4N([H])[H])C3([H])[H])c([H])c([H])c2C1([H])[H]

>  <smiles>  (53) 
[H]c1c([H])c([H])c2c(c1[H])C([H])([H])C([H])([H])C([H])([H])C2([H])N([H])C(=O)C1([H])N(C(=O)C([H])(N([H])C(=O)C([H])(N([H])C([H])([H])[H])C([H])([H])[H])C(C([H])([H])[H])(C([H])([H])[H])C([H])([H])[H])C([H])([H])c2c([H])c(OC([H])([H])C([H])([H])C([H])([H])N([H])C(=O)C([H])([H])N([H])C(=O)C([H])([H])N([H])C(=O)C([H])([H])N([H])C(=O)C([H])([H])C([H])([H])[N+]([H])([H])C([H])([H])C([H])([H])C([H])([H])C([H])([H])N([H])C(=O)N3C([H])([H])C([H])([H])C([H])([H])C([H])(n4nc(-c5c([H])c([H])c(Oc6c([H])c([H])c(F)c([H])c6F)c([H])c5[H])c(C(=O)N([H])[H])c4N([H])[H])C3([H])[H])c([H])c([H])c2C1([H])[H]

$$$$
58:0:0
     RDKit          3D

 95100  0  0  1  0  0  0  0  0999 V2000
  -22.7180  -14.9870   21.0840 O   0  0  0  0  0  0  0  0  0  0  0  0
  -23.3090  -15.9760   19.9060 C   0  0  0  0  0  3  0  0  0  0  0  0
  -24.2650  -17.5080   19.8870 C   0  0  0  0  0  3  0  0  0  0  0  0
  -24.7060  -18.7300   18.6280 C   0  0  0  0  0  3  0  0  0  0  0  0
  -25.3550  -20.4170   18.6620 C   0  0  0  0  0  3  0  0  0  0  0  0
  -25.5340  -21.7540   17.4550 C   0  0  0  0  0  3  0  0  0  0  0  0
  -26.2900  -23.3930   17.5150 C   0  0  0  0  0  3  0  0  0  0  0  0
  -26.4490  -24.7770   16.6090 O   0  0  0  0  0  0  0  0  0  0  0  0
  -25.8190  -28.6510   22.7350 C   0  0  0  0  0  0  0  0  0  0  0  0
  -26.2460  -26.0710   17.2060 C   0  0  0  0  0  0  0  0  0  0  0  0
  -24.1070  -28.6950   20.9810 C   0  0  0  0  0  3  0  0  0  0  0  0
  -24.8560  -28.1160   18.6060 C   0  0  0  0  0  0  0  0  0  0  0  0
  -26.5930  -28.5300   20.3290 C   0  0  0  0  0  2  0  0  0  0  0  0
  -26.1510  -27.8010   19.0410 C   0  0  0  0  0  0  0  0  0  0  0  0
  -26.8820  -26.7740   18.3210 C   0  0  0  0  0  3  0  0  0  0  0  0
  -25.0880  -26.6360   16.6970 C   0  0  0  0  0  3  0  0  0  0  0  0
  -24.3640  -27.5870   17.4110 C   0  0  0  0  0  3  0  0  0  0  0  0
  -23.9790  -28.9970   19.4690 C   0  0  0  0  0  2  0  0  0  0  0  0
  -25.5420  -28.6150   21.3970 N   0  0  0  0  0  0  0  0  0  0  0  0
  -24.9170  -28.7430   23.5830 O   0  0  0  0  0  0  0  0  0  0  0  0
  -23.3000  -27.4190   21.3420 C   0  0  0  0  0  0  0  0  0  0  0  0
  -21.9600  -27.5010   21.2730 N   0  0  0  0  0  0  0  0  0  0  0  0
  -23.8830  -26.3830   21.6730 O   0  0  0  0  0  0  0  0  0  0  0  0
  -21.5530  -28.3840   21.0030 H   0  0  0  0  0  0  0  0  0  0  0  0
  -18.4700  -26.5470   21.1340 C   0  0  0  0  0  0  0  0  0  0  0  0
  -21.0180  -26.4120   21.5540 C   0  0  0  0  0  3  0  0  0  0  0  0
  -21.0430  -25.3510   20.4300 C   0  0  0  0  0  2  0  0  0  0  0  0
  -19.9870  -25.5970   19.3470 C   0  0  0  0  0  2  0  0  0  0  0  0
  -18.5820  -25.5970   19.9540 C   0  0  0  0  0  2  0  0  0  0  0  0
  -19.6150  -26.9420   21.8760 C   0  0  0  0  0  0  0  0  0  0  0  0
  -19.4570  -27.8520   22.9430 C   0  0  0  0  0  3  0  0  0  0  0  0
  -18.1860  -28.3620   23.2740 C   0  0  0  0  0  3  0  0  0  0  0  0
  -17.0560  -27.9570   22.5450 C   0  0  0  0  0  3  0  0  0  0  0  0
  -17.1970  -27.0490   21.4800 C   0  0  0  0  0  3  0  0  0  0  0  0
  -27.2830  -28.6030   23.2620 C   0  0  0  0  0  3  0  0  0  0  0  0
  -27.9040  -27.1510   23.2320 C   0  0  1  0  0  0  0  0  0  0  0  0
  -26.9880  -26.0720   23.8560 C   0  0  0  0  0  1  0  0  0  0  0  0
  -28.2200  -26.7150   21.7830 C   0  0  0  0  0  1  0  0  0  0  0  0
  -29.2510  -27.1430   23.9920 C   0  0  0  0  0  1  0  0  0  0  0  0
  -27.2790  -29.1250   24.6390 N   0  0  0  0  0  0  0  0  0  0  0  0
  -27.6910  -30.3500   24.9960 C   0  0  0  0  0  0  0  0  0  0  0  0
  -28.1830  -31.1470   24.1940 O   0  0  0  0  0  0  0  0  0  0  0  0
  -26.8380  -28.5470   25.3390 H   0  0  0  0  0  0  0  0  0  0  0  0
  -26.3000  -31.6630   26.6320 C   0  0  0  0  0  1  0  0  0  0  0  0
  -27.5300  -30.7530   26.4760 C   0  0  0  0  0  3  0  0  0  0  0  0
  -29.8740  -30.5370   27.1720 C   0  0  0  0  0  1  0  0  0  0  0  0
  -28.7220  -31.4250   27.0380 N   0  0  0  0  0  0  0  0  0  0  0  0
  -28.5180  -31.8170   27.9530 H   0  0  0  0  0  0  0  0  0  0  0  0
  -21.8570  -13.5660   21.0900 C   0  0  0  0  0  2  0  0  0  0  0  0
  -21.8380  -12.2510   22.2980 C   0  0  0  0  0  0  0  0  0  0  0  0
  -22.6300  -11.0080   22.3460 N   0  0  0  0  0  0  0  0  0  0  0  0
  -21.1230  -12.4660   23.2800 O   0  0  0  0  0  0  0  0  0  0  0  0
  -23.0870  -10.8850   21.4530 H   0  0  0  0  0  0  0  0  0  0  0  0
  -23.2400   -9.8940   23.4320 C   0  0  0  0  0  1  0  0  0  0  0  0
  -25.6550   -7.6550   23.0310 C   0  0  0  0  0  3  0  0  0  0  0  0
  -27.3440   -7.8960   22.3610 C   0  0  0  0  0  2  0  0  0  0  0  0
  -29.1150   -7.9470   22.7660 C   0  0  0  0  0  2  0  0  0  0  0  0
  -31.8780   -9.7990   22.6450 C   0  0  2  0  0  0  0  0  0  0  0  0
  -32.6160   -8.4240   22.9150 C   0  0  0  0  0  1  0  0  0  0  0  0
  -32.0330   -7.9750   21.1660 C   0  0  0  0  0  1  0  0  0  0  0  0
  -30.8330   -9.0180   20.4090 C   0  0  0  0  0  2  0  0  0  0  0  0
  -30.4630  -10.6420   21.0090 C   0  0  0  0  0  2  0  0  0  0  0  0
  -31.0730  -11.1490   22.7230 C   0  0  0  0  0  1  0  0  0  0  0  0
  -32.1100  -10.0070   23.5700 N   0  0  0  0  0  1  0  0  0  0  0  0
  -32.9300  -10.2940   21.8110 O   0  0  0  0  0  1  0  0  0  0  0  0
  -30.4040   -9.0010   23.0070 N   0  0  0  0  0  2  0  0  0  0  0  0
  -30.3130   -9.2470   23.9830 H   0  0  0  0  0  0  0  0  0  0  0  0
  -28.5460  -11.9850   20.3620 C   0  0  0  0  0  0  0  0  0  0  0  0
  -27.2620  -11.6890   20.3380 C   0  0  0  0  0  0  0  0  0  0  0  0
  -27.0650  -10.5470   21.0630 C   0  0  0  0  0  3  0  0  0  0  0  0
  -29.0910  -10.9020   20.9340 N   0  0  0  0  0  0  0  0  0  0  0  0
  -28.1850  -10.1150   21.5220 N   0  0  0  0  0  2  0  0  0  0  0  0
  -25.8720   -9.9010   21.2430 C   0  0  0  0  0  0  0  0  0  0  0  0
  -25.5080   -9.0300   22.6360 C   0  0  0  0  0  0  0  0  0  0  0  0
  -24.1670   -8.0570   22.6320 C   0  0  0  0  0  0  0  0  0  0  0  0
  -23.2240   -7.9280   21.3080 C   0  0  0  0  0  0  0  0  0  0  0  0
  -23.5660   -8.7690   19.9550 C   0  0  0  0  0  3  0  0  0  0  0  0
  -24.8850   -9.7550   19.8780 C   0  0  0  0  0  3  0  0  0  0  0  0
  -22.0440   -7.2040   21.2850 O   0  0  0  0  0  0  0  0  0  0  0  0
  -21.5010   -6.6210   22.4100 C   0  0  0  0  0  0  0  0  0  0  0  0
  -21.1820   -7.3620   23.5720 C   0  0  0  0  0  3  0  0  0  0  0  0
  -20.5950   -6.7240   24.6860 C   0  0  0  0  0  3  0  0  0  0  0  0
  -20.3020   -5.3470   24.6390 C   0  0  0  0  0  0  0  0  0  0  0  0
  -20.5860   -4.6120   23.4750 C   0  0  0  0  0  3  0  0  0  0  0  0
  -21.1750   -5.2470   22.3660 C   0  0  0  0  0  0  0  0  0  0  0  0
  -21.4170   -4.5310   21.2420 F   0  0  0  0  0  0  0  0  0  0  0  0
  -19.7430   -4.7310   25.7090 F   0  0  0  0  0  0  0  0  0  0  0  0
  -26.3060  -12.6730   20.1450 C   0  0  0  0  0  0  0  0  0  0  0  0
  -26.0440  -13.1150   21.3510 N   0  0  0  0  0  0  0  0  0  0  0  0
  -26.0110  -13.1400   19.0570 O   0  0  0  0  0  0  0  0  0  0  0  0
  -26.4490  -12.6880   22.1700 H   0  0  0  0  0  0  0  0  0  0  0  0
  -25.6920  -14.0690   21.4010 H   0  0  0  0  0  0  0  0  0  0  0  0
  -29.2670  -13.0990   19.9920 N   0  0  0  0  0  0  0  0  0  0  0  0
  -28.8430  -13.9060   19.5540 H   0  0  0  0  0  0  0  0  0  0  0  0
  -30.2710  -13.1890   20.0970 H   0  0  0  0  0  0  0  0  0  0  0  0
  1 49  1  0
  2  1  1  0
  3  2  2  0
  4  5  2  0
  4  3  1  0
  6  7  2  0
  6  5  1  0
  8 10  1  0
  8  7  1  0
  9 20  2  0
 10 15  1  0
 11 21  1  0
 11 19  1  0
 12 14  1  0
 12 18  1  0
 13 19  1  0
 14 13  1  0
 15 14  2  0
 16 10  2  0
 16 17  1  0
 17 12  2  0
 18 11  1  0
 19  9  1  0
 21 23  2  0
 22 21  1  0
 24 22  1  0
 25 34  2  0
 25 30  1  0
 26 22  1  0
 26 30  1  0
 27 26  1  0
 28 29  1  0
 28 27  1  0
 29 25  1  0
 30 31  2  0
 31 32  1  0
 33 32  2  0
 34 33  1  0
 35  9  1  0
 35 40  1  0
 36 35  1  0
 36 37  1  1
 36 39  1  0
 38 36  1  0
 40 41  1  0
 40 43  1  0
 41 45  1  0
 42 41  2  0
 45 44  1  0
 45 47  1  0
 47 46  1  0
 47 48  1  0
 49 50  1  0
 50 51  1  0
 50 52  2  0
 51 54  1  0
 53 51  1  0
 55 56  1  0
 56 57  1  0
 57 66  1  0
 58 63  1  6
 58 59  1  0
 58 64  1  0
 61 62  1  0
 61 60  1  0
 65 58  1  0
 66 67  1  0
 68 71  1  0
 69 68  2  0
 69 70  1  0
 70 73  1  0
 70 72  1  0
 71 62  1  0
 71 72  1  0
 73 74  1  0
 74 55  1  0
 75 74  2  0
 75 55  1  0
 76 75  1  0
 77 76  2  0
 78 77  1  0
 78 73  2  0
 79 76  1  0
 79 80  1  0
 80 81  1  0
 81 82  2  0
 83 82  1  0
 83 87  1  0
 84 83  2  0
 85 80  2  0
 85 84  1  0
 86 85  1  0
 88 69  1  0
 88 89  1  0
 89 92  1  0
 89 91  1  0
 90 88  2  0
 93 95  1  0
 93 68  1  0
 94 93  1  0
M  ISO  4   7 101   8 101  58 100  66 100
M  END
>  <TORSDO>  (54) 
F 28

>  <SCORE>  (54) 
-2.268

>  <name>  (54) 
58

>  <ligand_id>  (54) 
58

>  <original_smiles>  (54) 
[H]c1c([H])c([H])c2c(c1[H])C([H])([H])C([H])([H])C([H])([H])C2([H])N([H])C(=O)C1([H])N(C(=O)C([H])(N([H])C(=O)C([H])(N([H])C([H])([H])[H])C([H])([H])[H])C(C([H])([H])[H])(C([H])([H])[H])C([H])([H])[H])C([H])([H])c2c([H])c(OC([H])([H])C([H])([H])C([H])([H])C([H])([H])C([H])([H])C([H])([H])OC([H])([H])C(=O)N([H])C([H])([H])C([H])([H])C([H])([H])C([H])([H])N([H])C(=O)N3C([H])([H])C([H])([H])C([H])([H])C([H])(n4nc(-c5c([H])c([H])c(Oc6c([H])c([H])c(F)c([H])c6F)c([H])c5[H])c(C(=O)N([H])[H])c4N([H])[H])C3([H])[H])c([H])c([H])c2C1([H])[H]

>  <smiles>  (54) 
[H]c1c([H])c([H])c2c(c1[H])C([H])([H])C([H])([H])C([H])([H])C2([H])N([H])C(=O)C1([H])N(C(=O)C([H])(N([H])C(=O)C([H])(N([H])C([H])([H])[H])C([H])([H])[H])C(C([H])([H])[H])(C([H])([H])[H])C([H])([H])[H])C([H])([H])c2c([H])c(OC([H])([H])C([H])([H])C([H])([H])C([H])([H])C([H])([H])C([H])([H])OC([H])([H])C(=O)N([H])C([H])([H])C([H])([H])C([H])([H])C([H])([H])N([H])C(=O)N3C([H])([H])C([H])([H])C([H])([H])C([H])(n4nc(-c5c([H])c([H])c(Oc6c([H])c([H])c(F)c([H])c6F)c([H])c5[H])c(C(=O)N([H])[H])c4N([H])[H])C3([H])[H])c([H])c([H])c2C1([H])[H]

$$$$
59:0:0
     RDKit          3D

107114  0  0  1  0  0  0  0  0999 V2000
  -28.2460  -24.8840   26.4630 C   0  0  0  0  0  2  0  0  0  0  0  0
  -28.6510  -25.6370   24.1240 C   0  0  0  0  0  0  0  0  0  0  0  0
  -28.4720  -24.6710   25.0330 N   0  0  0  0  0  0  0  0  0  0  0  0
  -28.7240  -26.8310   24.4310 O   0  0  0  0  0  0  0  0  0  0  0  0
  -28.4480  -23.7150   24.7010 H   0  0  0  0  0  0  0  0  0  0  0  0
  -28.7300  -25.2000   22.6550 C   0  0  0  0  0  2  0  0  0  0  0  0
  -28.4870  -26.7790   20.7550 C   0  0  0  0  0  0  0  0  0  0  0  0
  -27.9770  -26.0990   21.7840 N   0  0  0  0  0  0  0  0  0  0  0  0
  -29.6500  -26.6330   20.3690 O   0  0  0  0  0  0  0  0  0  0  0  0
  -27.0130  -26.2720   22.0330 H   0  0  0  0  0  0  0  0  0  0  0  0
  -27.5650  -27.7740   20.0470 C   0  0  0  0  0  2  0  0  0  0  0  0
  -25.7970  -26.5000   18.8810 C   0  0  0  0  0  0  0  0  0  0  0  0
  -26.9660  -27.1440   18.8770 N   0  0  0  0  0  0  0  0  0  0  0  0
  -25.0550  -26.4670   19.8650 O   0  0  0  0  0  0  0  0  0  0  0  0
  -27.5390  -27.0900   18.0460 H   0  0  0  0  0  0  0  0  0  0  0  0
  -25.4290  -25.7610   17.5980 C   0  0  0  0  0  2  0  0  0  0  0  0
  -23.2420  -25.3330   16.5000 C   0  0  0  0  0  0  0  0  0  0  0  0
  -21.5580  -23.7830   15.6070 C   0  0  0  0  0  2  0  0  0  0  0  0
  -20.2370  -24.4200   15.1580 C   0  0  0  0  0  2  0  0  0  0  0  0
  -19.2720  -24.5490   16.3460 C   0  0  0  0  0  2  0  0  0  0  0  0
  -19.9290  -25.2450   17.5640 C   0  0  0  0  0  3  0  0  0  0  0  0
  -21.2940  -24.6080   17.9030 C   0  0  0  0  0  2  0  0  0  0  0  0
  -22.1340  -24.5840   16.6920 N   0  0  0  0  0  0  0  0  0  0  0  0
  -23.6500  -25.6970   15.3910 O   0  0  0  0  0  0  0  0  0  0  0  0
  -24.0250  -25.3620   17.5790 N   0  0  0  0  0  0  0  0  0  0  0  0
  -23.6410  -24.9880   18.4340 H   0  0  0  0  0  0  0  0  0  0  0  0
  -18.3810  -26.3090   19.3270 C   0  0  0  0  0  0  0  0  0  0  0  0
  -17.6020  -25.7580   20.3120 C   0  0  0  0  0  0  0  0  0  0  0  0
  -17.8150  -24.3470   20.2410 C   0  0  0  0  0  0  0  0  0  0  0  0
  -19.0280  -25.2450   18.7170 N   0  0  0  0  0  0  0  0  0  0  0  0
  -18.7200  -24.0640   19.3130 N   0  0  0  0  0  0  0  0  0  0  0  0
  -17.1700  -23.2460   20.9670 C   0  0  0  0  0  0  0  0  0  0  0  0
  -17.9230  -22.3070   21.7090 C   0  0  0  0  0  3  0  0  0  0  0  0
  -17.2790  -21.2680   22.4130 C   0  0  0  0  0  3  0  0  0  0  0  0
  -15.8680  -21.1600   22.3840 C   0  0  0  0  0  0  0  0  0  0  0  0
  -15.1240  -22.0820   21.6260 C   0  0  0  0  0  3  0  0  0  0  0  0
  -15.7670  -23.1130   20.9210 C   0  0  0  0  0  3  0  0  0  0  0  0
  -15.1580  -20.1680   23.0160 O   0  0  0  0  0  0  0  0  0  0  0  0
  -15.5310  -19.6880   24.2460 C   0  0  0  0  0  0  0  0  0  0  0  0
  -15.7550  -20.5460   25.3440 C   0  0  0  0  0  3  0  0  0  0  0  0
  -16.0690  -20.0050   26.6070 C   0  0  0  0  0  3  0  0  0  0  0  0
  -16.1490  -18.6110   26.7770 C   0  0  0  0  0  0  0  0  0  0  0  0
  -15.9210  -17.7540   25.6850 C   0  0  0  0  0  3  0  0  0  0  0  0
  -15.6110  -18.2920   24.4240 C   0  0  0  0  0  0  0  0  0  0  0  0
  -15.3700  -17.4610   23.3810 F   0  0  0  0  0  0  0  0  0  0  0  0
  -16.4430  -18.0900   27.9910 F   0  0  0  0  0  0  0  0  0  0  0  0
  -16.6400  -26.4870   21.2040 C   0  0  0  0  0  0  0  0  0  0  0  0
  -16.5160  -26.0550   22.4540 N   0  0  0  0  0  0  0  0  0  0  0  0
  -16.0280  -27.4800   20.8100 O   0  0  0  0  0  0  0  0  0  0  0  0
  -17.0320  -25.2530   22.7830 H   0  0  0  0  0  0  0  0  0  0  0  0
  -15.8950  -26.5340   23.0910 H   0  0  0  0  0  0  0  0  0  0  0  0
  -18.5770  -27.6140   18.8890 N   0  0  0  0  0  0  0  0  0  0  0  0
  -18.0790  -28.4040   19.2850 H   0  0  0  0  0  0  0  0  0  0  0  0
  -19.1790  -27.8720   18.1160 H   0  0  0  0  0  0  0  0  0  0  0  0
  -26.7870  -25.2840   26.7640 C   0  0  0  0  0  2  0  0  0  0  0  0
  -26.0710  -25.9980   25.6000 C   0  0  0  0  0  2  0  0  0  0  0  0
  -25.0980  -27.0980   26.0510 C   0  0  0  0  0  2  0  0  0  0  0  0
  -25.0350  -28.2560   25.0370 C   0  0  0  0  0  2  0  0  0  0  0  0
  -25.4490  -29.6250   25.6150 C   0  0  0  0  0  2  0  0  0  0  0  0
  -27.8620  -29.4550   26.2300 C   0  0  0  0  0  0  0  0  0  0  0  0
  -26.8780  -29.8700   25.4270 N   0  0  0  0  0  0  0  0  0  0  0  0
  -27.6520  -28.7990   27.2510 O   0  0  0  0  0  0  0  0  0  0  0  0
  -27.1470  -30.4120   24.6130 H   0  0  0  0  0  0  0  0  0  0  0  0
  -29.2990  -29.8410   25.8650 C   0  0  0  0  0  2  0  0  0  0  0  0
  -29.5790  -30.1090   24.3660 C   0  0  0  0  0  2  0  0  0  0  0  0
  -29.8990  -31.5680   23.9650 C   0  0  0  0  0  2  0  0  0  0  0  0
  -28.9990  -32.5450   24.4980 O   0  0  0  0  0  0  0  0  0  0  0  0
  -34.0710  -35.4670   28.5410 C   0  0  0  0  0  0  0  0  0  0  0  0
  -29.5210  -33.6770   25.0830 C   0  0  0  0  0  0  0  0  0  0  0  0
  -32.0740  -36.8760   28.1280 C   0  0  0  0  0  3  0  0  0  0  0  0
  -30.4760  -36.0280   26.3310 C   0  0  0  0  0  0  0  0  0  0  0  0
  -32.8070  -35.1140   26.4320 C   0  0  0  0  0  2  0  0  0  0  0  0
  -31.3550  -34.9780   26.0430 C   0  0  0  0  0  0  0  0  0  0  0  0
  -30.8870  -33.8100   25.4140 C   0  0  0  0  0  3  0  0  0  0  0  0
  -28.6380  -34.7300   25.4030 C   0  0  0  0  0  3  0  0  0  0  0  0
  -29.1100  -35.9100   26.0140 C   0  0  0  0  0  3  0  0  0  0  0  0
  -31.0780  -37.2470   26.9950 C   0  0  0  0  0  2  0  0  0  0  0  0
  -33.0190  -35.7810   27.7350 N   0  0  0  0  0  0  0  0  0  0  0  0
  -34.2900  -36.1040   29.5820 O   0  0  0  0  0  0  0  0  0  0  0  0
  -31.2690  -36.5570   29.4080 C   0  0  0  0  0  0  0  0  0  0  0  0
  -31.1670  -37.5470   30.3090 N   0  0  0  0  0  0  0  0  0  0  0  0
  -30.7350  -35.4560   29.5620 O   0  0  0  0  0  0  0  0  0  0  0  0
  -31.6540  -38.4110   30.1160 H   0  0  0  0  0  0  0  0  0  0  0  0
  -30.5070  -39.3380   33.3710 C   0  0  0  0  0  0  0  0  0  0  0  0
  -30.4280  -37.4880   31.5690 C   0  0  0  0  0  3  0  0  0  0  0  0
  -28.9500  -37.8920   31.3640 C   0  0  0  0  0  2  0  0  0  0  0  0
  -28.6940  -39.3820   31.6050 C   0  0  0  0  0  2  0  0  0  0  0  0
  -29.0900  -39.7700   33.0330 C   0  0  0  0  0  2  0  0  0  0  0  0
  -31.1410  -38.2770   32.6720 C   0  0  0  0  0  0  0  0  0  0  0  0
  -32.4720  -37.9390   32.9980 C   0  0  0  0  0  3  0  0  0  0  0  0
  -33.1640  -38.6320   34.0090 C   0  0  0  0  0  3  0  0  0  0  0  0
  -32.5250  -39.6680   34.7130 C   0  0  0  0  0  3  0  0  0  0  0  0
  -31.2010  -40.0170   34.3930 C   0  0  0  0  0  3  0  0  0  0  0  0
  -35.0620  -34.3130   28.1850 C   0  0  0  0  0  3  0  0  0  0  0  0
  -34.8910  -33.0400   29.1060 C   0  0  1  0  0  0  0  0  0  0  0  0
  -34.6270  -33.3840   30.5900 C   0  0  0  0  0  1  0  0  0  0  0  0
  -33.7220  -32.1580   28.6150 C   0  0  0  0  0  1  0  0  0  0  0  0
  -36.1650  -32.1650   29.0440 C   0  0  0  0  0  1  0  0  0  0  0  0
  -36.4240  -34.8500   28.2920 N   0  0  0  0  0  0  0  0  0  0  0  0
  -37.1540  -35.2940   27.2590 C   0  0  0  0  0  0  0  0  0  0  0  0
  -36.7660  -35.2300   26.0890 O   0  0  0  0  0  0  0  0  0  0  0  0
  -36.7830  -34.9900   29.2250 H   0  0  0  0  0  0  0  0  0  0  0  0
  -38.4270  -37.4440   27.5640 C   0  0  0  0  0  1  0  0  0  0  0  0
  -38.5310  -35.9100   27.5750 C   0  0  0  0  0  3  0  0  0  0  0  0
  -39.9620  -34.0690   26.8110 C   0  0  0  0  0  1  0  0  0  0  0  0
  -39.6010  -35.4750   26.6500 N   0  0  0  0  0  0  0  0  0  0  0  0
  -40.4400  -36.0360   26.7780 H   0  0  0  0  0  0  0  0  0  0  0  0
  1 55  1  0
  2  4  2  0
  2  3  1  0
  3  1  1  0
  5  3  1  0
  6  2  1  0
  7  8  1  0
  8 10  1  0
  8  6  1  0
  9  7  2  0
 11  7  1  0
 12 14  2  0
 13 12  1  0
 13 11  1  0
 15 13  1  0
 16 12  1  0
 17 23  1  0
 17 25  1  0
 18 23  1  0
 19 18  1  0
 19 20  1  0
 21 20  1  0
 21 22  1  0
 21 30  1  0
 23 22  1  0
 24 17  2  0
 25 16  1  0
 25 26  1  0
 27 28  2  0
 28 47  1  0
 29 28  1  0
 29 32  1  0
 30 31  1  0
 30 27  1  0
 31 29  2  0
 32 33  1  0
 33 34  2  0
 35 34  1  0
 35 38  1  0
 36 35  2  0
 37 32  2  0
 37 36  1  0
 38 39  1  0
 39 44  2  0
 39 40  1  0
 40 41  2  0
 41 42  1  0
 42 46  1  0
 43 42  2  0
 44 43  1  0
 45 44  1  0
 47 48  1  0
 48 50  1  0
 48 51  1  0
 49 47  2  0
 52 53  1  0
 52 27  1  0
 54 52  1  0
 56 57  1  0
 56 55  1  0
 58 59  1  0
 58 57  1  0
 60 62  2  0
 61 59  1  0
 61 60  1  0
 63 61  1  0
 64 60  1  0
 65 64  1  0
 66 65  1  0
 66 67  1  0
 67 69  1  0
 68 79  2  0
 69 75  2  0
 69 74  1  0
 70 80  1  0
 71 77  1  0
 72 78  1  0
 73 71  1  0
 73 72  1  0
 74 73  2  0
 75 76  1  0
 76 71  2  0
 77 70  1  0
 78 70  1  0
 78 68  1  0
 80 82  2  0
 80 81  1  0
 83 81  1  0
 84 93  1  0
 85 81  1  0
 85 89  1  0
 86 85  1  0
 86 87  1  0
 87 88  1  0
 88 84  1  0
 89 90  1  0
 89 84  2  0
 90 91  2  0
 91 92  1  0
 93 92  2  0
 94 99  1  0
 94 68  1  0
 94 95  1  0
 95 96  1  1
 97 95  1  0
 98 95  1  0
 99102  1  0
100104  1  0
100 99  1  0
101100  2  0
104103  1  0
106107  1  0
106105  1  0
106104  1  0
M  ISO  4  17 100  25 100  66 101  67 101
M  END
>  <TORSDO>  (55) 
F 31

>  <SCORE>  (55) 
-1.713

>  <name>  (55) 
59

>  <ligand_id>  (55) 
59

>  <original_smiles>  (55) 
[H]c1c([H])c([H])c2c(c1[H])C([H])([H])C([H])([H])C([H])([H])C2([H])N([H])C(=O)C1([H])N(C(=O)C([H])(N([H])C(=O)C([H])(N([H])C([H])([H])[H])C([H])([H])[H])C(C([H])([H])[H])(C([H])([H])[H])C([H])([H])[H])C([H])([H])c2c([H])c(OC([H])([H])C([H])([H])C([H])([H])C(=O)N([H])C([H])([H])C([H])([H])C([H])([H])C([H])([H])C([H])([H])C([H])([H])N([H])C(=O)C([H])([H])N([H])C(=O)C([H])([H])N([H])C(=O)C([H])([H])N([H])C(=O)N3C([H])([H])C([H])([H])C([H])([H])C([H])(n4nc(-c5c([H])c([H])c(Oc6c([H])c([H])c(F)c([H])c6F)c([H])c5[H])c(C(=O)N([H])[H])c4N([H])[H])C3([H])[H])c([H])c([H])c2C1([H])[H]

>  <smiles>  (55) 
[H]c1c([H])c([H])c2c(c1[H])C([H])([H])C([H])([H])C([H])([H])C2([H])N([H])C(=O)C1([H])N(C(=O)C([H])(N([H])C(=O)C([H])(N([H])C([H])([H])[H])C([H])([H])[H])C(C([H])([H])[H])(C([H])([H])[H])C([H])([H])[H])C([H])([H])c2c([H])c(OC([H])([H])C([H])([H])C([H])([H])C(=O)N([H])C([H])([H])C([H])([H])C([H])([H])C([H])([H])C([H])([H])C([H])([H])N([H])C(=O)C([H])([H])N([H])C(=O)C([H])([H])N([H])C(=O)C([H])([H])N([H])C(=O)N3C([H])([H])C([H])([H])C([H])([H])C([H])(n4nc(-c5c([H])c([H])c(Oc6c([H])c([H])c(F)c([H])c6F)c([H])c5[H])c(C(=O)N([H])[H])c4N([H])[H])C3([H])[H])c([H])c([H])c2C1([H])[H]

$$$$
60:0:0
     RDKit          3D

 93100  0  0  1  0  0  0  0  0999 V2000
  -29.4420  -20.9670   22.1630 C   0  0  0  0  0  0  0  0  0  0  0  0
  -30.1110  -19.8220   22.0100 N   0  0  0  0  0  0  0  0  0  0  0  0
  -29.3910  -21.5620   23.2410 O   0  0  0  0  0  0  0  0  0  0  0  0
  -30.0800  -19.3740   21.1040 H   0  0  0  0  0  0  0  0  0  0  0  0
  -30.9350  -19.2020   23.0390 C   0  0  0  0  0  2  0  0  0  0  0  0
  -30.9010  -17.6670   22.9400 C   0  0  0  0  0  2  0  0  0  0  0  0
  -31.3360  -17.1170   21.5690 C   0  0  0  0  0  2  0  0  0  0  0  0
  -31.5360  -15.5930   21.5960 C   0  0  0  0  0  2  0  0  0  0  0  0
  -32.6870  -15.0710   20.7080 C   0  0  0  0  0  2  0  0  0  0  0  0
  -32.5200  -13.7830   18.6100 C   0  0  0  0  0  0  0  0  0  0  0  0
  -31.9820  -11.3860   18.3310 C   0  0  0  0  0  2  0  0  0  0  0  0
  -30.8280  -11.1500   17.3380 C   0  0  0  0  0  2  0  0  0  0  0  0
  -29.4650  -11.2530   18.0500 C   0  0  0  0  0  2  0  0  0  0  0  0
  -29.3410  -12.5420   18.8940 C   0  0  0  0  0  3  0  0  0  0  0  0
  -30.5720  -12.7080   19.8030 C   0  0  0  0  0  2  0  0  0  0  0  0
  -31.7950  -12.6930   18.9780 N   0  0  0  0  0  0  0  0  0  0  0  0
  -33.3220  -13.7760   17.6720 O   0  0  0  0  0  0  0  0  0  0  0  0
  -32.3080  -14.9120   19.3010 N   0  0  0  0  0  0  0  0  0  0  0  0
  -32.5620  -15.7230   18.7570 H   0  0  0  0  0  0  0  0  0  0  0  0
  -27.4670  -13.6280   20.2940 C   0  0  0  0  0  0  0  0  0  0  0  0
  -26.3090  -13.1190   20.8180 C   0  0  0  0  0  0  0  0  0  0  0  0
  -26.2990  -11.7320   20.4800 C   0  0  0  0  0  0  0  0  0  0  0  0
  -28.1020  -12.5620   19.6720 N   0  0  0  0  0  0  0  0  0  0  0  0
  -27.4110  -11.4060   19.8360 N   0  0  0  0  0  0  0  0  0  0  0  0
  -25.2680  -10.7050   20.6770 C   0  0  0  0  0  0  0  0  0  0  0  0
  -25.4400   -9.6520   21.6040 C   0  0  0  0  0  3  0  0  0  0  0  0
  -24.4240   -8.6900   21.7880 C   0  0  0  0  0  3  0  0  0  0  0  0
  -23.2220   -8.7750   21.0450 C   0  0  0  0  0  0  0  0  0  0  0  0
  -23.0650   -9.8140   20.1100 C   0  0  0  0  0  3  0  0  0  0  0  0
  -24.0780  -10.7690   19.9250 C   0  0  0  0  0  3  0  0  0  0  0  0
  -22.1930   -7.8680   21.1380 O   0  0  0  0  0  0  0  0  0  0  0  0
  -21.7030   -7.4570   22.3530 C   0  0  0  0  0  0  0  0  0  0  0  0
  -21.3140   -8.3790   23.3480 C   0  0  0  0  0  3  0  0  0  0  0  0
  -20.7490   -7.9160   24.5540 C   0  0  0  0  0  3  0  0  0  0  0  0
  -20.5670   -6.5350   24.7620 C   0  0  0  0  0  0  0  0  0  0  0  0
  -20.9520   -5.6160   23.7700 C   0  0  0  0  0  3  0  0  0  0  0  0
  -21.5160   -6.0760   22.5680 C   0  0  0  0  0  0  0  0  0  0  0  0
  -21.8670   -5.1880   21.6070 F   0  0  0  0  0  0  0  0  0  0  0  0
  -20.0190   -6.0910   25.9170 F   0  0  0  0  0  0  0  0  0  0  0  0
  -25.2230  -13.8930   21.5120 C   0  0  0  0  0  0  0  0  0  0  0  0
  -24.5800  -13.2940   22.5080 N   0  0  0  0  0  0  0  0  0  0  0  0
  -24.9660  -15.0550   21.2010 O   0  0  0  0  0  0  0  0  0  0  0  0
  -24.8000  -12.3470   22.7820 H   0  0  0  0  0  0  0  0  0  0  0  0
  -23.8500  -13.7900   22.9990 H   0  0  0  0  0  0  0  0  0  0  0  0
  -28.0220  -14.9030   20.2730 N   0  0  0  0  0  0  0  0  0  0  0  0
  -27.5600  -15.7090   20.6810 H   0  0  0  0  0  0  0  0  0  0  0  0
  -28.9020  -15.1310   19.8260 H   0  0  0  0  0  0  0  0  0  0  0  0
  -28.7510  -21.5250   20.9140 C   0  0  0  0  0  2  0  0  0  0  0  0
  -28.6920  -23.0630   20.9060 C   0  0  0  0  0  2  0  0  0  0  0  0
  -28.5840  -23.6660   19.4990 C   0  0  0  0  0  2  0  0  0  0  0  0
  -28.6920  -25.1940   19.5490 C   0  0  0  0  0  2  0  0  0  0  0  0
  -28.6850  -25.8570   18.1640 C   0  0  0  0  0  2  0  0  0  0  0  0
  -28.7510  -27.2730   18.3090 O   0  0  0  0  0  0  0  0  0  0  0  0
  -26.5560  -30.0380   24.4630 C   0  0  0  0  0  0  0  0  0  0  0  0
  -27.7290  -27.9370   18.9560 C   0  0  0  0  0  0  0  0  0  0  0  0
  -24.8660  -29.9870   22.6600 C   0  0  0  0  0  3  0  0  0  0  0  0
  -25.7390  -29.3930   20.3420 C   0  0  0  0  0  0  0  0  0  0  0  0
  -27.3580  -30.1110   22.1060 C   0  0  0  0  0  2  0  0  0  0  0  0
  -27.0500  -29.3570   20.8300 C   0  0  0  0  0  0  0  0  0  0  0  0
  -28.0470  -28.6380   20.1390 C   0  0  0  0  0  3  0  0  0  0  0  0
  -26.3950  -27.9720   18.4810 C   0  0  0  0  0  3  0  0  0  0  0  0
  -25.4060  -28.6970   19.1680 C   0  0  0  0  0  3  0  0  0  0  0  0
  -24.7380  -30.2050   21.1300 C   0  0  0  0  0  2  0  0  0  0  0  0
  -26.2890  -30.0220   23.1270 N   0  0  0  0  0  0  0  0  0  0  0  0
  -25.6420  -30.0710   25.2990 O   0  0  0  0  0  0  0  0  0  0  0  0
  -24.1300  -28.6790   23.0340 C   0  0  0  0  0  0  0  0  0  0  0  0
  -22.8260  -28.6180   22.7220 N   0  0  0  0  0  0  0  0  0  0  0  0
  -24.7340  -27.7410   23.5620 O   0  0  0  0  0  0  0  0  0  0  0  0
  -22.4020  -29.4310   22.2980 H   0  0  0  0  0  0  0  0  0  0  0  0
  -19.5420  -27.3000   21.9980 C   0  0  0  0  0  0  0  0  0  0  0  0
  -21.9400  -27.4760   22.9450 C   0  0  0  0  0  3  0  0  0  0  0  0
  -22.2920  -26.3060   21.9970 C   0  0  0  0  0  2  0  0  0  0  0  0
  -21.4780  -26.3170   20.6990 C   0  0  0  0  0  2  0  0  0  0  0  0
  -19.9790  -26.2390   21.0040 C   0  0  0  0  0  2  0  0  0  0  0  0
  -20.4650  -27.8930   22.8980 C   0  0  0  0  0  0  0  0  0  0  0  0
  -20.0130  -28.9020   23.7780 C   0  0  0  0  0  3  0  0  0  0  0  0
  -18.6680  -29.3130   23.7700 C   0  0  0  0  0  3  0  0  0  0  0  0
  -17.7550  -28.7130   22.8850 C   0  0  0  0  0  3  0  0  0  0  0  0
  -18.1920  -27.7070   22.0050 C   0  0  0  0  0  3  0  0  0  0  0  0
  -28.0200  -30.0450   25.0060 C   0  0  0  0  0  3  0  0  0  0  0  0
  -28.5270  -28.6180   25.4470 C   0  0  1  0  0  0  0  0  0  0  0  0
  -27.5410  -27.8650   26.3690 C   0  0  0  0  0  1  0  0  0  0  0  0
  -28.7850  -27.7300   24.2080 C   0  0  0  0  0  1  0  0  0  0  0  0
  -29.8790  -28.7450   26.1890 C   0  0  0  0  0  1  0  0  0  0  0  0
  -28.0690  -30.9840   26.1340 N   0  0  0  0  0  0  0  0  0  0  0  0
  -28.5930  -32.2170   26.0750 C   0  0  0  0  0  0  0  0  0  0  0  0
  -29.1570  -32.6580   25.0700 O   0  0  0  0  0  0  0  0  0  0  0  0
  -27.5780  -30.7110   26.9730 H   0  0  0  0  0  0  0  0  0  0  0  0
  -27.3430  -34.1270   27.1310 C   0  0  0  0  0  1  0  0  0  0  0  0
  -28.4710  -33.1010   27.3310 C   0  0  0  0  0  3  0  0  0  0  0  0
  -30.7760  -32.9020   28.1520 C   0  0  0  0  0  1  0  0  0  0  0  0
  -29.7260  -33.8010   27.6820 N   0  0  0  0  0  0  0  0  0  0  0  0
  -29.5590  -34.4990   28.4020 H   0  0  0  0  0  0  0  0  0  0  0  0
  1  3  2  0
  2  1  1  0
  2  5  1  0
  4  2  1  0
  6  5  1  0
  7  8  1  0
  7  6  1  0
  9  8  1  0
 10 16  1  0
 10 18  1  0
 11 16  1  0
 12 13  1  0
 12 11  1  0
 14 13  1  0
 14 23  1  0
 14 15  1  0
 16 15  1  0
 17 10  2  0
 18  9  1  0
 19 18  1  0
 20 21  2  0
 21 40  1  0
 22 25  1  0
 22 21  1  0
 23 24  1  0
 23 20  1  0
 24 22  2  0
 25 26  1  0
 26 27  2  0
 28 31  1  0
 28 27  1  0
 29 28  2  0
 30 29  1  0
 30 25  2  0
 31 32  1  0
 32 37  2  0
 32 33  1  0
 33 34  2  0
 34 35  1  0
 35 39  1  0
 36 35  2  0
 37 36  1  0
 38 37  1  0
 40 41  1  0
 41 43  1  0
 41 44  1  0
 42 40  2  0
 45 20  1  0
 45 46  1  0
 47 45  1  0
 48  1  1  0
 49 48  1  0
 50 51  1  0
 50 49  1  0
 52 53  1  0
 52 51  1  0
 53 55  1  0
 54 65  2  0
 55 60  1  0
 56 66  1  0
 56 64  1  0
 57 59  1  0
 57 63  1  0
 58 64  1  0
 59 58  1  0
 60 59  2  0
 61 55  2  0
 61 62  1  0
 62 57  2  0
 63 56  1  0
 64 54  1  0
 66 68  2  0
 67 66  1  0
 69 67  1  0
 70 79  2  0
 70 75  1  0
 71 67  1  0
 72 71  1  0
 73 74  1  0
 73 72  1  0
 74 70  1  0
 75 71  1  0
 75 76  2  0
 77 76  1  0
 78 77  2  0
 79 78  1  0
 80 54  1  0
 80 81  1  0
 80 85  1  0
 81 84  1  1
 81 82  1  0
 83 81  1  0
 85 88  1  0
 86 85  1  0
 86 90  1  0
 87 86  2  0
 90 89  1  0
 90 92  1  0
 92 91  1  0
 92 93  1  0
M  ISO  4  10 100  18 100  52 101  53 101
M  END
>  <TORSDO>  (56) 
F 26

>  <SCORE>  (56) 
-3.382

>  <name>  (56) 
60

>  <ligand_id>  (56) 
60

>  <original_smiles>  (56) 
[H]c1c([H])c([H])c2c(c1[H])C([H])([H])C([H])([H])C([H])([H])C2([H])N([H])C(=O)C1([H])N(C(=O)C([H])(N([H])C(=O)C([H])(N([H])C([H])([H])[H])C([H])([H])[H])C(C([H])([H])[H])(C([H])([H])[H])C([H])([H])[H])C([H])([H])c2c([H])c(OC([H])([H])C([H])([H])C([H])([H])C([H])([H])C([H])([H])C(=O)N([H])C([H])([H])C([H])([H])C([H])([H])C([H])([H])C([H])([H])N([H])C(=O)N3C([H])([H])C([H])([H])C([H])([H])C([H])(n4nc(-c5c([H])c([H])c(Oc6c([H])c([H])c(F)c([H])c6F)c([H])c5[H])c(C(=O)N([H])[H])c4N([H])[H])C3([H])[H])c([H])c([H])c2C1([H])[H]

>  <smiles>  (56) 
[H]c1c([H])c([H])c2c(c1[H])C([H])([H])C([H])([H])C([H])([H])C2([H])N([H])C(=O)C1([H])N(C(=O)C([H])(N([H])C(=O)C([H])(N([H])C([H])([H])[H])C([H])([H])[H])C(C([H])([H])[H])(C([H])([H])[H])C([H])([H])[H])C([H])([H])c2c([H])c(OC([H])([H])C([H])([H])C([H])([H])C([H])([H])C([H])([H])C(=O)N([H])C([H])([H])C([H])([H])C([H])([H])C([H])([H])C([H])([H])N([H])C(=O)N3C([H])([H])C([H])([H])C([H])([H])C([H])(n4nc(-c5c([H])c([H])c(Oc6c([H])c([H])c(F)c([H])c6F)c([H])c5[H])c(C(=O)N([H])[H])c4N([H])[H])C3([H])[H])c([H])c([H])c2C1([H])[H]

$$$$
61:0:0
     RDKit          3D

 89 97  0  0  1  0  0  0  0  0999 V2000
  -29.3350  -21.5580   20.1680 C   0  0  0  0  0  2  0  0  0  0  0  0
  -28.8380  -20.2520   20.9010 C   0  0  0  0  0  2  0  0  0  0  0  0
  -30.7020  -14.6870   20.0650 C   0  0  0  0  0  0  0  0  0  0  0  0
  -30.3130  -12.4910   18.9760 C   0  0  0  0  0  2  0  0  0  0  0  0
  -29.3180  -12.6160   17.8060 C   0  0  0  0  0  2  0  0  0  0  0  0
  -27.8730  -12.4360   18.3070 C   0  0  0  0  0  2  0  0  0  0  0  0
  -27.5740  -13.2850   19.5680 C   0  0  0  0  0  3  0  0  0  0  0  0
  -28.6990  -13.1630   20.6280 C   0  0  0  0  0  2  0  0  0  0  0  0
  -29.9570  -13.5330   19.9680 N   0  0  0  0  0  0  0  0  0  0  0  0
  -31.8780  -14.6530   19.6890 O   0  0  0  0  0  0  0  0  0  0  0  0
  -28.7610  -16.3670   20.2450 C   0  0  0  0  0  2  0  0  0  0  0  0
  -31.1220  -17.0880   20.3990 C   0  0  0  0  0  2  0  0  0  0  0  0
  -28.3550  -17.8050   20.7130 C   0  0  0  0  0  2  0  0  0  0  0  0
  -30.6400  -18.4780   20.9240 C   0  0  0  0  0  2  0  0  0  0  0  0
  -30.1700  -15.9320   20.4050 N   0  0  0  0  0  0  0  0  0  0  0  0
  -29.3180  -18.8970   20.3980 N   0  0  2  0  0  4  0  0  0  0  0  0
  -29.3830  -18.9490   19.3920 H   0  0  0  0  0  0  0  0  0  0  0  0
  -25.2260  -13.8830   20.4170 C   0  0  0  0  0  0  0  0  0  0  0  0
  -24.1800  -13.1060   20.8300 C   0  0  0  0  0  0  0  0  0  0  0  0
  -24.6400  -11.7550   20.7590 C   0  0  0  0  0  0  0  0  0  0  0  0
  -26.2560  -13.0020   20.1230 N   0  0  0  0  0  0  0  0  0  0  0  0
  -25.9130  -11.7190   20.3910 N   0  0  0  0  0  0  0  0  0  0  0  0
  -23.9240  -10.4910   20.9600 C   0  0  0  0  0  0  0  0  0  0  0  0
  -24.3790   -9.5260   21.8850 C   0  0  0  0  0  3  0  0  0  0  0  0
  -23.6630   -8.3240   22.0750 C   0  0  0  0  0  3  0  0  0  0  0  0
  -22.4790   -8.0810   21.3400 C   0  0  0  0  0  0  0  0  0  0  0  0
  -22.0440   -9.0350   20.4030 C   0  0  0  0  0  3  0  0  0  0  0  0
  -22.7600  -10.2270   20.2110 C   0  0  0  0  0  3  0  0  0  0  0  0
  -21.7320   -6.9330   21.4420 O   0  0  0  0  0  0  0  0  0  0  0  0
  -21.6830   -6.2060   22.6040 C   0  0  0  0  0  0  0  0  0  0  0  0
  -21.2270   -6.7690   23.8160 C   0  0  0  0  0  3  0  0  0  0  0  0
  -21.1290   -5.9680   24.9720 C   0  0  0  0  0  3  0  0  0  0  0  0
  -21.4760   -4.6050   24.9140 C   0  0  0  0  0  0  0  0  0  0  0  0
  -21.9250   -4.0420   23.7070 C   0  0  0  0  0  3  0  0  0  0  0  0
  -22.0260   -4.8410   22.5550 C   0  0  0  0  0  0  0  0  0  0  0  0
  -22.4390   -4.2890   21.3890 F   0  0  0  0  0  0  0  0  0  0  0  0
  -21.3750   -3.8320   26.0210 F   0  0  0  0  0  0  0  0  0  0  0  0
  -22.7970  -13.5800   21.1680 C   0  0  0  0  0  0  0  0  0  0  0  0
  -22.1040  -12.8710   22.0530 N   0  0  0  0  0  0  0  0  0  0  0  0
  -22.3390  -14.6140   20.6840 O   0  0  0  0  0  0  0  0  0  0  0  0
  -22.4870  -12.0360   22.4690 H   0  0  0  0  0  0  0  0  0  0  0  0
  -21.1770  -13.1710   22.3180 H   0  0  0  0  0  0  0  0  0  0  0  0
  -25.3720  -15.2560   20.2380 N   0  0  0  0  0  0  0  0  0  0  0  0
  -24.5820  -15.8820   20.3440 H   0  0  0  0  0  0  0  0  0  0  0  0
  -26.1440  -15.6760   19.7400 H   0  0  0  0  0  0  0  0  0  0  0  0
  -28.6980  -22.7550   20.7080 O   0  0  0  0  0  0  0  0  0  0  0  0
  -28.9740  -24.0380   20.0740 C   0  0  0  0  0  2  0  0  0  0  0  0
  -28.2220  -25.2420   20.7650 C   0  0  0  0  0  2  0  0  0  0  0  0
  -28.4100  -26.5970   20.2270 O   0  0  0  0  0  0  0  0  0  0  0  0
  -24.6200  -31.9050   23.2540 C   0  0  0  0  0  0  0  0  0  0  0  0
  -27.2780  -27.4070   20.2050 C   0  0  0  0  0  0  0  0  0  0  0  0
  -23.4260  -30.4890   21.6190 C   0  0  0  0  0  3  0  0  0  0  0  0
  -24.8890  -28.9540   20.1950 C   0  0  0  0  0  0  0  0  0  0  0  0
  -25.9580  -30.8440   21.4290 C   0  0  0  0  0  2  0  0  0  0  0  0
  -26.0510  -29.4700   20.7840 C   0  0  0  0  0  0  0  0  0  0  0  0
  -27.2520  -28.7080   20.7770 C   0  0  0  0  0  3  0  0  0  0  0  0
  -26.0990  -26.9310   19.5900 C   0  0  0  0  0  3  0  0  0  0  0  0
  -24.9120  -27.6870   19.5880 C   0  0  0  0  0  3  0  0  0  0  0  0
  -23.6430  -29.8120   20.2410 C   0  0  0  0  0  2  0  0  0  0  0  0
  -24.6860  -31.0960   22.1570 N   0  0  0  0  0  0  0  0  0  0  0  0
  -23.5360  -32.1730   23.7920 O   0  0  0  0  0  0  0  0  0  0  0  0
  -22.7780  -29.4680   22.5830 C   0  0  0  0  0  0  0  0  0  0  0  0
  -21.4540  -29.2770   22.4580 N   0  0  0  0  0  0  0  0  0  0  0  0
  -23.4650  -28.8500   23.4010 O   0  0  0  0  0  0  0  0  0  0  0  0
  -20.9580  -29.8280   21.7710 H   0  0  0  0  0  0  0  0  0  0  0  0
  -18.0890  -28.0580   22.9670 C   0  0  0  0  0  0  0  0  0  0  0  0
  -20.6450  -28.3360   23.2340 C   0  0  0  0  0  3  0  0  0  0  0  0
  -20.7560  -26.9030   22.6630 C   0  0  0  0  0  2  0  0  0  0  0  0
  -19.6550  -26.5690   21.6520 C   0  0  0  0  0  2  0  0  0  0  0  0
  -18.2720  -26.7080   22.2970 C   0  0  0  0  0  2  0  0  0  0  0  0
  -19.2020  -28.8290   23.3930 C   0  0  0  0  0  0  0  0  0  0  0  0
  -18.9750  -30.0940   23.9810 C   0  0  0  0  0  3  0  0  0  0  0  0
  -17.6670  -30.5860   24.1460 C   0  0  0  0  0  3  0  0  0  0  0  0
  -16.5670  -29.8110   23.7370 C   0  0  0  0  0  3  0  0  0  0  0  0
  -16.7790  -28.5500   23.1540 C   0  0  0  0  0  3  0  0  0  0  0  0
  -25.9000  -32.5500   23.8700 C   0  0  0  0  0  3  0  0  0  0  0  0
  -26.4130  -31.8030   25.1620 C   0  0  1  0  0  0  0  0  0  0  0  0
  -25.3150  -31.5800   26.2280 C   0  0  0  0  0  1  0  0  0  0  0  0
  -27.0010  -30.4200   24.7980 C   0  0  0  0  0  1  0  0  0  0  0  0
  -27.5570  -32.6120   25.8160 C   0  0  0  0  0  1  0  0  0  0  0  0
  -25.5860  -33.9520   24.1740 N   0  0  0  0  0  0  0  0  0  0  0  0
  -25.9190  -34.9930   23.3980 C   0  0  0  0  0  0  0  0  0  0  0  0
  -26.5920  -34.8720   22.3710 O   0  0  0  0  0  0  0  0  0  0  0  0
  -24.9880  -34.1200   24.9690 H   0  0  0  0  0  0  0  0  0  0  0  0
  -24.1910  -36.7780   23.0040 C   0  0  0  0  0  1  0  0  0  0  0  0
  -25.4280  -36.3870   23.8300 C   0  0  0  0  0  3  0  0  0  0  0  0
  -27.5540  -37.2880   24.6630 C   0  0  0  0  0  1  0  0  0  0  0  0
  -26.4600  -37.4400   23.7080 N   0  0  0  0  0  0  0  0  0  0  0  0
  -26.0510  -38.3610   23.8390 H   0  0  0  0  0  0  0  0  0  0  0  0
  1 46  1  0
  1  2  1  0
  3 15  1  0
  4  9  1  0
  5  6  1  0
  5  4  1  0
  7  6  1  0
  7 21  1  0
  7  8  1  0
  9  3  1  0
  9  8  1  0
 10  3  2  0
 11 15  1  0
 11 13  1  0
 12 15  1  0
 12 14  1  0
 16 13  1  0
 16  2  1  0
 16 14  1  0
 16 17  1  6
 18 19  2  0
 19 38  1  0
 20 19  1  0
 20 23  1  0
 21 22  1  0
 21 18  1  0
 22 20  2  0
 23 24  1  0
 24 25  2  0
 26 29  1  0
 26 25  1  0
 27 26  2  0
 28 27  1  0
 28 23  2  0
 29 30  1  0
 30 31  1  0
 31 32  2  0
 33 32  1  0
 33 37  1  0
 34 33  2  0
 35 30  2  0
 35 34  1  0
 36 35  1  0
 38 39  1  0
 39 42  1  0
 39 41  1  0
 40 38  2  0
 43 44  1  0
 43 18  1  0
 45 43  1  0
 47 46  1  0
 47 48  1  0
 49 48  1  0
 50 61  2  0
 51 49  1  0
 51 56  1  0
 52 60  1  0
 52 62  1  0
 53 59  1  0
 53 55  1  0
 54 60  1  0
 55 54  1  0
 56 55  2  0
 57 51  2  0
 58 57  1  0
 58 53  2  0
 59 52  1  0
 60 50  1  0
 62 64  2  0
 63 62  1  0
 65 63  1  0
 66 75  2  0
 66 71  1  0
 67 63  1  0
 67 71  1  0
 68 67  1  0
 69 70  1  0
 69 68  1  0
 70 66  1  0
 71 72  2  0
 72 73  1  0
 74 73  2  0
 75 74  1  0
 76 50  1  0
 76 81  1  0
 76 77  1  0
 77 80  1  1
 77 78  1  0
 79 77  1  0
 81 84  1  0
 82 86  1  0
 82 81  1  0
 83 82  2  0
 86 85  1  0
 88 86  1  0
 88 89  1  0
 88 87  1  0
M  ISO  4   3 100  15 100  48 101  49 101
M  END
>  <TORSDO>  (57) 
F 20

>  <SCORE>  (57) 
-13.634

>  <name>  (57) 
61

>  <ligand_id>  (57) 
61

>  <original_smiles>  (57) 
[H]c1c([H])c([H])c2c(c1[H])C([H])([H])C([H])([H])C([H])([H])C2([H])N([H])C(=O)C1([H])N(C(=O)C([H])(N([H])C(=O)C([H])(N([H])C([H])([H])[H])C([H])([H])[H])C(C([H])([H])[H])(C([H])([H])[H])C([H])([H])[H])C([H])([H])c2c([H])c(OC([H])([H])C([H])([H])OC([H])([H])C([H])([H])[N+]3([H])C([H])([H])C([H])([H])N(C(=O)N4C([H])([H])C([H])([H])C([H])([H])C([H])(n5nc(-c6c([H])c([H])c(Oc7c([H])c([H])c(F)c([H])c7F)c([H])c6[H])c(C(=O)N([H])[H])c5N([H])[H])C4([H])[H])C([H])([H])C3([H])[H])c([H])c([H])c2C1([H])[H]

>  <smiles>  (57) 
[H]c1c([H])c([H])c2c(c1[H])C([H])([H])C([H])([H])C([H])([H])C2([H])N([H])C(=O)C1([H])N(C(=O)C([H])(N([H])C(=O)C([H])(N([H])C([H])([H])[H])C([H])([H])[H])C(C([H])([H])[H])(C([H])([H])[H])C([H])([H])[H])C([H])([H])c2c([H])c(OC([H])([H])C([H])([H])OC([H])([H])C([H])([H])[N+]3([H])C([H])([H])C([H])([H])N(C(=O)N4C([H])([H])C([H])([H])C([H])([H])C([H])(n5nc(-c6c([H])c([H])c(Oc7c([H])c([H])c(F)c([H])c7F)c([H])c6[H])c(C(=O)N([H])[H])c5N([H])[H])C4([H])[H])C([H])([H])C3([H])[H])c([H])c([H])c2C1([H])[H]

$$$$
62:0:0
     RDKit          3D

112119  0  0  1  0  0  0  0  0999 V2000
  -22.8080  -20.5220   25.0820 C   0  0  0  0  0  0  0  0  0  0  0  0
  -22.5220  -21.4630   25.9900 N   0  0  0  0  0  0  0  0  0  0  0  0
  -23.0440  -20.8040   23.9040 O   0  0  0  0  0  0  0  0  0  0  0  0
  -22.2950  -21.1410   26.9230 H   0  0  0  0  0  0  0  0  0  0  0  0
  -22.8290  -19.0610   25.5490 C   0  0  0  0  0  2  0  0  0  0  0  0
  -24.7620  -18.0430   24.3570 C   0  0  0  0  0  0  0  0  0  0  0  0
  -23.4450  -18.1790   24.5550 N   0  0  0  0  0  0  0  0  0  0  0  0
  -25.5990  -18.5670   25.0990 O   0  0  0  0  0  0  0  0  0  0  0  0
  -22.8150  -17.7210   23.9090 H   0  0  0  0  0  0  0  0  0  0  0  0
  -25.1940  -17.1860   23.1600 C   0  0  0  0  0  2  0  0  0  0  0  0
  -27.1170  -18.4000   22.1220 C   0  0  0  0  0  0  0  0  0  0  0  0
  -26.6030  -17.3630   22.7960 N   0  0  0  0  0  0  0  0  0  0  0  0
  -26.4230  -19.3310   21.7030 O   0  0  0  0  0  0  0  0  0  0  0  0
  -27.2380  -16.6410   23.1080 H   0  0  0  0  0  0  0  0  0  0  0  0
  -28.6310  -18.3720   21.8810 C   0  0  0  0  0  2  0  0  0  0  0  0
  -29.9660  -20.2980   21.0220 C   0  0  0  0  0  0  0  0  0  0  0  0
  -29.0310  -19.3550   20.8770 N   0  0  0  0  0  0  0  0  0  0  0  0
  -30.5850  -20.4660   22.0720 O   0  0  0  0  0  0  0  0  0  0  0  0
  -28.5220  -19.2930   19.9980 H   0  0  0  0  0  0  0  0  0  0  0  0
  -30.2900  -21.1570   19.7960 C   0  0  0  0  0  2  0  0  0  0  0  0
  -32.4080  -20.8710   18.5220 C   0  0  0  0  0  0  0  0  0  0  0  0
  -33.4030  -18.9840   17.2680 C   0  0  0  0  0  2  0  0  0  0  0  0
  -32.4710  -18.4660   16.1560 C   0  0  0  0  0  2  0  0  0  0  0  0
  -31.4420  -17.4550   16.7040 C   0  0  0  0  0  2  0  0  0  0  0  0
  -30.7400  -17.9570   17.9900 C   0  0  0  0  0  3  0  0  0  0  0  0
  -31.8030  -18.4470   18.9890 C   0  0  0  0  0  2  0  0  0  0  0  0
  -32.5720  -19.5280   18.3540 N   0  0  0  0  0  0  0  0  0  0  0  0
  -32.9870  -21.7050   17.8220 O   0  0  0  0  0  0  0  0  0  0  0  0
  -31.7380  -21.2840   19.6070 N   0  0  0  0  0  0  0  0  0  0  0  0
  -32.0590  -22.1870   19.9270 H   0  0  0  0  0  0  0  0  0  0  0  0
  -28.5190  -16.9720   18.8490 C   0  0  0  0  0  0  0  0  0  0  0  0
  -28.1970  -15.7260   19.3200 C   0  0  0  0  0  0  0  0  0  0  0  0
  -29.4080  -14.9680   19.2920 C   0  0  0  0  0  0  0  0  0  0  0  0
  -29.8770  -16.9280   18.5670 N   0  0  0  0  0  0  0  0  0  0  0  0
  -30.4180  -15.7280   18.8940 N   0  0  0  0  0  0  0  0  0  0  0  0
  -29.6580  -13.5480   19.5720 C   0  0  0  0  0  0  0  0  0  0  0  0
  -30.6160  -13.1400   20.5260 C   0  0  0  0  0  3  0  0  0  0  0  0
  -30.8260  -11.7690   20.7880 C   0  0  0  0  0  3  0  0  0  0  0  0
  -30.0660  -10.7920   20.1040 C   0  0  0  0  0  0  0  0  0  0  0  0
  -29.1300  -11.2020   19.1400 C   0  0  0  0  0  3  0  0  0  0  0  0
  -28.9260  -12.5670   18.8730 C   0  0  0  0  0  3  0  0  0  0  0  0
  -30.2210   -9.4370   20.2790 O   0  0  0  0  0  0  0  0  0  0  0  0
  -30.6100   -8.9080   21.4830 C   0  0  0  0  0  0  0  0  0  0  0  0
  -29.8990   -9.1670   22.6770 C   0  0  0  0  0  3  0  0  0  0  0  0
  -30.2900   -8.5450   23.8790 C   0  0  0  0  0  3  0  0  0  0  0  0
  -31.3820   -7.6590   23.8900 C   0  0  0  0  0  0  0  0  0  0  0  0
  -32.0880   -7.3940   22.7040 C   0  0  0  0  0  3  0  0  0  0  0  0
  -31.7010   -8.0160   21.5030 C   0  0  0  0  0  0  0  0  0  0  0  0
  -32.3740   -7.7460   20.3580 F   0  0  0  0  0  0  0  0  0  0  0  0
  -31.7500   -7.0540   25.0420 F   0  0  0  0  0  0  0  0  0  0  0  0
  -26.8270  -15.2310   19.6790 C   0  0  0  0  0  0  0  0  0  0  0  0
  -26.7390  -14.3060   20.6290 N   0  0  0  0  0  0  0  0  0  0  0  0
  -25.8180  -15.6980   19.1520 O   0  0  0  0  0  0  0  0  0  0  0  0
  -27.5610  -13.9350   21.0760 H   0  0  0  0  0  0  0  0  0  0  0  0
  -25.8340  -13.9590   20.9090 H   0  0  0  0  0  0  0  0  0  0  0  0
  -27.7770  -18.1290   18.6290 N   0  0  0  0  0  0  0  0  0  0  0  0
  -26.7660  -18.1030   18.7190 H   0  0  0  0  0  0  0  0  0  0  0  0
  -28.0910  -18.8500   17.9900 H   0  0  0  0  0  0  0  0  0  0  0  0
  -22.4110  -22.9100   25.7630 C   0  0  0  0  0  2  0  0  0  0  0  0
  -23.6640  -23.5540   25.1240 C   0  0  0  0  0  2  0  0  0  0  0  0
  -23.7720  -23.2420   23.6840 N   0  0  0  0  0  4  0  0  0  0  0  0
  -24.0750  -22.2730   23.5990 H   0  0  0  0  0  0  0  0  0  0  0  0
  -22.8590  -23.2980   23.2670 H   0  0  0  0  0  0  0  0  0  0  0  0
  -24.6540  -24.1350   22.9080 C   0  0  0  0  0  2  0  0  0  0  0  0
  -24.0980  -24.3780   21.4910 C   0  0  0  0  0  2  0  0  0  0  0  0
  -21.7890  -25.2980   21.7970 C   0  0  0  0  0  0  0  0  0  0  0  0
  -22.6310  -24.3300   21.4130 N   0  0  0  0  0  0  0  0  0  0  0  0
  -22.1590  -26.2800   22.4410 O   0  0  0  0  0  0  0  0  0  0  0  0
  -22.2310  -23.5750   20.8680 H   0  0  0  0  0  0  0  0  0  0  0  0
  -20.3260  -25.1100   21.3850 C   0  0  0  0  0  2  0  0  0  0  0  0
  -19.4170  -26.3460   21.5950 C   0  0  0  0  0  2  0  0  0  0  0  0
  -18.1420  -26.2190   20.9540 O   0  0  0  0  0  0  0  0  0  0  0  0
  -13.1360  -25.4160   25.9430 C   0  0  0  0  0  0  0  0  0  0  0  0
  -17.2610  -25.3790   21.5860 C   0  0  0  0  0  0  0  0  0  0  0  0
  -14.0170  -23.3290   24.9390 C   0  0  0  0  0  3  0  0  0  0  0  0
  -15.4600  -23.6260   22.8590 C   0  0  0  0  0  0  0  0  0  0  0  0
  -14.0010  -25.5140   23.6130 C   0  0  0  0  0  2  0  0  0  0  0  0
  -15.2280  -25.0080   22.8870 C   0  0  0  0  0  0  0  0  0  0  0  0
  -16.1300  -25.8920   22.2550 C   0  0  0  0  0  3  0  0  0  0  0  0
  -17.4710  -23.9840   21.5410 C   0  0  0  0  0  3  0  0  0  0  0  0
  -16.5820  -23.1070   22.1880 C   0  0  0  0  0  3  0  0  0  0  0  0
  -14.4510  -22.7520   23.5650 C   0  0  0  0  0  2  0  0  0  0  0  0
  -13.7180  -24.7960   24.8760 N   0  0  0  0  0  0  0  0  0  0  0  0
  -12.8020  -24.7760   26.9490 O   0  0  0  0  0  0  0  0  0  0  0  0
  -15.0870  -22.9650   25.9910 C   0  0  0  0  0  0  0  0  0  0  0  0
  -15.0010  -21.7390   26.5290 N   0  0  0  0  0  0  0  0  0  0  0  0
  -15.9830  -23.7620   26.2860 O   0  0  0  0  0  0  0  0  0  0  0  0
  -14.2320  -21.1510   26.2410 H   0  0  0  0  0  0  0  0  0  0  0  0
  -15.6160  -18.8370   28.5920 C   0  0  0  0  0  0  0  0  0  0  0  0
  -15.9180  -21.1670   27.5110 C   0  0  0  0  0  3  0  0  0  0  0  0
  -17.1690  -20.5740   26.8240 C   0  0  0  0  0  2  0  0  0  0  0  0
  -17.0300  -19.0800   26.5060 C   0  0  0  0  0  2  0  0  0  0  0  0
  -16.7800  -18.2800   27.7880 C   0  0  0  0  0  2  0  0  0  0  0  0
  -15.2010  -20.1890   28.4480 C   0  0  0  0  0  0  0  0  0  0  0  0
  -14.0910  -20.6460   29.1900 C   0  0  0  0  0  3  0  0  0  0  0  0
  -13.4000  -19.7850   30.0620 C   0  0  0  0  0  3  0  0  0  0  0  0
  -13.8250  -18.4520   30.2120 C   0  0  0  0  0  3  0  0  0  0  0  0
  -14.9320  -17.9840   29.4820 C   0  0  0  0  0  3  0  0  0  0  0  0
  -12.8360  -26.9490   25.9340 C   0  0  0  0  0  3  0  0  0  0  0  0
  -13.8720  -27.7920   26.7740 C   0  0  1  0  0  0  0  0  0  0  0  0
  -14.0760  -27.2660   28.2130 C   0  0  0  0  0  1  0  0  0  0  0  0
  -15.2530  -27.8120   26.0740 C   0  0  0  0  0  1  0  0  0  0  0  0
  -13.3980  -29.2640   26.8720 C   0  0  0  0  0  1  0  0  0  0  0  0
  -11.4740  -27.1360   26.4490 N   0  0  0  0  0  0  0  0  0  0  0  0
  -10.3850  -27.2760   25.6810 C   0  0  0  0  0  0  0  0  0  0  0  0
  -10.4350  -27.3390   24.4500 O   0  0  0  0  0  0  0  0  0  0  0  0
  -11.3530  -27.0490   27.4470 H   0  0  0  0  0  0  0  0  0  0  0  0
   -8.3320  -25.9880   26.3480 C   0  0  0  0  0  1  0  0  0  0  0  0
   -9.0240  -27.3600   26.3950 C   0  0  0  0  0  3  0  0  0  0  0  0
   -8.5940  -29.7550   26.0720 C   0  0  0  0  0  1  0  0  0  0  0  0
   -8.1270  -28.3920   25.8330 N   0  0  0  0  0  0  0  0  0  0  0  0
   -7.1950  -28.3070   26.2280 H   0  0  0  0  0  0  0  0  0  0  0  0
  1  5  1  0
  1  2  1  0
  2  4  1  0
  3  1  2  0
  6  7  1  0
  6  8  2  0
  7  5  1  0
  9  7  1  0
 10  6  1  0
 11 12  1  0
 12 14  1  0
 12 10  1  0
 13 11  2  0
 15 11  1  0
 16 18  2  0
 17 16  1  0
 17 15  1  0
 19 17  1  0
 20 16  1  0
 21 29  1  0
 22 27  1  0
 23 24  1  0
 23 22  1  0
 25 24  1  0
 25 34  1  0
 25 26  1  0
 27 21  1  0
 27 26  1  0
 28 21  2  0
 29 20  1  0
 29 30  1  0
 31 32  2  0
 32 51  1  0
 33 32  1  0
 33 36  1  0
 34 31  1  0
 34 35  1  0
 35 33  2  0
 36 37  1  0
 37 38  2  0
 39 42  1  0
 39 38  1  0
 40 39  2  0
 41 40  1  0
 41 36  2  0
 42 43  1  0
 43 48  2  0
 43 44  1  0
 44 45  2  0
 45 46  1  0
 46 50  1  0
 47 46  2  0
 48 47  1  0
 49 48  1  0
 51 52  1  0
 52 55  1  0
 52 54  1  0
 53 51  2  0
 56 57  1  0
 56 31  1  0
 58 56  1  0
 59  2  1  0
 60 59  1  0
 61 60  1  0
 62 61  1  0
 63 61  1  0
 64 61  1  0
 65 64  1  0
 66 68  2  0
 67 65  1  0
 67 66  1  0
 69 67  1  0
 70 71  1  0
 70 66  1  0
 72 74  1  0
 72 71  1  0
 73 84  2  0
 74 79  1  0
 75 85  1  0
 76 78  1  0
 76 82  1  0
 77 83  1  0
 78 77  1  0
 79 78  2  0
 80 74  2  0
 80 81  1  0
 81 76  2  0
 82 75  1  0
 83 75  1  0
 83 73  1  0
 85 87  2  0
 85 86  1  0
 88 86  1  0
 89 98  1  0
 90 86  1  0
 90 94  1  0
 91 90  1  0
 92 91  1  0
 92 93  1  0
 93 89  1  0
 94 89  2  0
 94 95  1  0
 95 96  2  0
 96 97  1  0
 98 97  2  0
 99 73  1  0
 99104  1  0
 99100  1  0
100103  1  1
100101  1  0
102100  1  0
104107  1  0
105109  1  0
105104  1  0
106105  2  0
109108  1  0
111110  1  0
111112  1  0
111109  1  0
M  ISO  4  21 100  29 100  71 101  72 101
M  END
>  <TORSDO>  (58) 
F 31

>  <SCORE>  (58) 
62.467

>  <name>  (58) 
62

>  <ligand_id>  (58) 
62

>  <original_smiles>  (58) 
[H]c1c([H])c([H])c2c(c1[H])C([H])([H])C([H])([H])C([H])([H])C2([H])N([H])C(=O)C1([H])N(C(=O)C([H])(N([H])C(=O)C([H])(N([H])C([H])([H])[H])C([H])([H])[H])C(C([H])([H])[H])(C([H])([H])[H])C([H])([H])[H])C([H])([H])c2c([H])c(OC([H])([H])C([H])([H])C(=O)N([H])C([H])([H])C([H])([H])[N+]([H])([H])C([H])([H])C([H])([H])N([H])C(=O)C([H])([H])N([H])C(=O)C([H])([H])N([H])C(=O)C([H])([H])N([H])C(=O)C([H])([H])N([H])C(=O)N3C([H])([H])C([H])([H])C([H])([H])C([H])(n4nc(-c5c([H])c([H])c(Oc6c([H])c([H])c(F)c([H])c6F)c([H])c5[H])c(C(=O)N([H])[H])c4N([H])[H])C3([H])[H])c([H])c([H])c2C1([H])[H]

>  <smiles>  (58) 
[H]c1c([H])c([H])c2c(c1[H])C([H])([H])C([H])([H])C([H])([H])C2([H])N([H])C(=O)C1([H])N(C(=O)C([H])(N([H])C(=O)C([H])(N([H])C([H])([H])[H])C([H])([H])[H])C(C([H])([H])[H])(C([H])([H])[H])C([H])([H])[H])C([H])([H])c2c([H])c(OC([H])([H])C([H])([H])C(=O)N([H])C([H])([H])C([H])([H])[N+]([H])([H])C([H])([H])C([H])([H])N([H])C(=O)C([H])([H])N([H])C(=O)C([H])([H])N([H])C(=O)C([H])([H])N([H])C(=O)C([H])([H])N([H])C(=O)N3C([H])([H])C([H])([H])C([H])([H])C([H])(n4nc(-c5c([H])c([H])c(Oc6c([H])c([H])c(F)c([H])c6F)c([H])c5[H])c(C(=O)N([H])[H])c4N([H])[H])C3([H])[H])c([H])c([H])c2C1([H])[H]

$$$$
63:0:0
     RDKit          3D

103110  0  0  1  0  0  0  0  0999 V2000
  -28.5340  -23.6340   25.9270 C   0  0  0  0  0  0  0  0  0  0  0  0
  -28.4950  -24.7930   25.2560 N   0  0  0  0  0  0  0  0  0  0  0  0
  -27.6810  -23.3090   26.7550 O   0  0  0  0  0  0  0  0  0  0  0  0
  -29.2240  -24.9730   24.5770 H   0  0  0  0  0  0  0  0  0  0  0  0
  -29.7260  -22.7040   25.6540 C   0  0  0  0  0  2  0  0  0  0  0  0
  -30.1420  -21.2540   23.6720 C   0  0  0  0  0  0  0  0  0  0  0  0
  -29.9830  -22.4590   24.2340 N   0  0  0  0  0  0  0  0  0  0  0  0
  -29.9170  -20.1990   24.2760 O   0  0  0  0  0  0  0  0  0  0  0  0
  -30.1350  -23.2740   23.6530 H   0  0  0  0  0  0  0  0  0  0  0  0
  -30.6800  -21.2500   22.2310 C   0  0  0  0  0  2  0  0  0  0  0  0
  -30.4340  -18.8140   21.6880 C   0  0  0  0  0  0  0  0  0  0  0  0
  -30.2360  -20.1130   21.4230 N   0  0  0  0  0  0  0  0  0  0  0  0
  -31.0280  -18.4060   22.6900 O   0  0  0  0  0  0  0  0  0  0  0  0
  -29.7390  -20.3380   20.5710 H   0  0  0  0  0  0  0  0  0  0  0  0
  -29.8880  -17.8430   20.6410 C   0  0  0  0  0  2  0  0  0  0  0  0
  -30.8310  -15.5370   20.8260 C   0  0  0  0  0  0  0  0  0  0  0  0
  -31.0530  -13.2440   19.9440 C   0  0  0  0  0  2  0  0  0  0  0  0
  -30.3910  -13.1950   18.5490 C   0  0  0  0  0  2  0  0  0  0  0  0
  -28.8710  -12.9470   18.6570 C   0  0  0  0  0  2  0  0  0  0  0  0
  -28.1850  -13.8620   19.7040 C   0  0  0  0  0  3  0  0  0  0  0  0
  -28.9750  -13.8540   21.0340 C   0  0  0  0  0  2  0  0  0  0  0  0
  -30.3610  -14.2650   20.7420 N   0  0  0  0  0  0  0  0  0  0  0  0
  -31.9840  -15.8580   20.5160 O   0  0  0  0  0  0  0  0  0  0  0  0
  -29.8820  -16.4490   21.0810 N   0  0  0  0  0  0  0  0  0  0  0  0
  -29.0000  -16.0960   21.4220 H   0  0  0  0  0  0  0  0  0  0  0  0
  -25.6300  -14.1820   19.5770 C   0  0  0  0  0  0  0  0  0  0  0  0
  -24.5900  -13.3600   19.9130 C   0  0  0  0  0  0  0  0  0  0  0  0
  -25.1790  -12.1670   20.4370 C   0  0  0  0  0  0  0  0  0  0  0  0
  -26.7850  -13.4870   19.9060 N   0  0  0  0  0  0  0  0  0  0  0  0
  -26.4990  -12.2890   20.4730 N   0  0  0  0  0  0  0  0  0  0  0  0
  -24.5700  -10.8980   20.8510 C   0  0  0  0  0  0  0  0  0  0  0  0
  -24.7840  -10.3640   22.1400 C   0  0  0  0  0  3  0  0  0  0  0  0
  -24.1730   -9.1510   22.5230 C   0  0  0  0  0  3  0  0  0  0  0  0
  -23.3360   -8.4610   21.6150 C   0  0  0  0  0  0  0  0  0  0  0  0
  -23.1420   -8.9860   20.3240 C   0  0  0  0  0  3  0  0  0  0  0  0
  -23.7540  -10.1920   19.9440 C   0  0  0  0  0  3  0  0  0  0  0  0
  -22.7200   -7.2640   21.8910 O   0  0  0  0  0  0  0  0  0  0  0  0
  -22.1000   -7.0340   23.0930 C   0  0  0  0  0  0  0  0  0  0  0  0
  -21.1010   -7.8980   23.5950 C   0  0  0  0  0  3  0  0  0  0  0  0
  -20.4450   -7.5860   24.8030 C   0  0  0  0  0  3  0  0  0  0  0  0
  -20.7750   -6.4100   25.5010 C   0  0  0  0  0  0  0  0  0  0  0  0
  -21.7660   -5.5480   25.0000 C   0  0  0  0  0  3  0  0  0  0  0  0
  -22.4260   -5.8580   23.7980 C   0  0  0  0  0  0  0  0  0  0  0  0
  -23.3640   -5.0130   23.3090 F   0  0  0  0  0  0  0  0  0  0  0  0
  -20.1400   -6.1060   26.6570 F   0  0  0  0  0  0  0  0  0  0  0  0
  -23.1290  -13.6210   19.6810 C   0  0  0  0  0  0  0  0  0  0  0  0
  -22.2660  -13.1010   20.5450 N   0  0  0  0  0  0  0  0  0  0  0  0
  -22.7470  -14.3340   18.7530 O   0  0  0  0  0  0  0  0  0  0  0  0
  -22.5780  -12.5300   21.3160 H   0  0  0  0  0  0  0  0  0  0  0  0
  -21.2770  -13.2810   20.4370 H   0  0  0  0  0  0  0  0  0  0  0  0
  -25.6990  -15.4490   19.0030 N   0  0  0  0  0  0  0  0  0  0  0  0
  -24.8720  -15.9510   18.7030 H   0  0  0  0  0  0  0  0  0  0  0  0
  -26.5630  -15.9010   18.7330 H   0  0  0  0  0  0  0  0  0  0  0  0
  -27.5290  -25.8810   25.4770 C   0  0  0  0  0  2  0  0  0  0  0  0
  -26.1280  -25.6880   24.8620 C   0  0  0  0  0  0  0  0  0  0  0  0
  -25.9630  -25.1040   23.6620 N   0  0  0  0  0  0  0  0  0  0  0  0
  -25.1430  -26.0610   25.4990 O   0  0  0  0  0  0  0  0  0  0  0  0
  -25.0050  -24.9950   23.3600 H   0  0  0  0  0  0  0  0  0  0  0  0
  -26.9780  -24.5960   22.7410 C   0  0  0  0  0  2  0  0  0  0  0  0
  -27.6600  -25.7190   21.9490 C   0  0  0  0  0  2  0  0  0  0  0  0
  -28.7700  -25.1680   21.0360 C   0  0  0  0  0  2  0  0  0  0  0  0
  -29.6290  -26.2320   20.3190 C   0  0  0  0  0  2  0  0  0  0  0  0
  -28.9400  -26.8120   19.2170 O   0  0  0  0  0  0  0  0  0  0  0  0
  -25.5050  -30.6790   24.1180 C   0  0  0  0  0  0  0  0  0  0  0  0
  -27.8860  -27.6230   19.5420 C   0  0  0  0  0  0  0  0  0  0  0  0
  -24.2950  -30.2710   21.9970 C   0  0  0  0  0  3  0  0  0  0  0  0
  -25.6840  -29.2820   20.1020 C   0  0  0  0  0  0  0  0  0  0  0  0
  -26.8480  -30.3360   22.0500 C   0  0  0  0  0  2  0  0  0  0  0  0
  -26.8360  -29.3540   20.8990 C   0  0  0  0  0  0  0  0  0  0  0  0
  -27.9450  -28.5250   20.6250 C   0  0  0  0  0  3  0  0  0  0  0  0
  -26.7280  -27.5660   18.7420 C   0  0  0  0  0  3  0  0  0  0  0  0
  -25.6170  -28.3810   19.0240 C   0  0  0  0  0  3  0  0  0  0  0  0
  -24.5450  -30.2080   20.4670 C   0  0  0  0  0  2  0  0  0  0  0  0
  -25.5640  -30.4080   22.7840 N   0  0  0  0  0  0  0  0  0  0  0  0
  -24.4200  -30.8540   24.6910 O   0  0  0  0  0  0  0  0  0  0  0  0
  -23.4530  -29.0430   22.4170 C   0  0  0  0  0  0  0  0  0  0  0  0
  -22.1320  -29.1160   22.1820 N   0  0  0  0  0  0  0  0  0  0  0  0
  -23.9880  -28.0460   22.9110 O   0  0  0  0  0  0  0  0  0  0  0  0
  -21.7690  -29.9610   21.7610 H   0  0  0  0  0  0  0  0  0  0  0  0
  -18.6170  -28.3300   22.0530 C   0  0  0  0  0  0  0  0  0  0  0  0
  -21.1520  -28.0710   22.4750 C   0  0  0  0  0  3  0  0  0  0  0  0
  -21.1230  -26.9980   21.3640 C   0  0  0  0  0  2  0  0  0  0  0  0
  -20.0890  -27.2980   20.2730 C   0  0  0  0  0  2  0  0  0  0  0  0
  -18.6840  -27.3700   20.8770 C   0  0  0  0  0  2  0  0  0  0  0  0
  -19.7780  -28.6690   22.7970 C   0  0  0  0  0  0  0  0  0  0  0  0
  -19.6680  -29.5830   23.8680 C   0  0  0  0  0  3  0  0  0  0  0  0
  -18.4220  -30.1470   24.2040 C   0  0  0  0  0  3  0  0  0  0  0  0
  -17.2720  -29.7960   23.4740 C   0  0  0  0  0  3  0  0  0  0  0  0
  -17.3710  -28.8920   22.4030 C   0  0  0  0  0  3  0  0  0  0  0  0
  -26.8000  -30.8060   24.9800 C   0  0  0  0  0  3  0  0  0  0  0  0
  -26.7960  -32.1400   25.5940 N   0  0  0  0  0  0  0  0  0  0  0  0
  -27.4980  -33.1860   25.1360 C   0  0  0  0  0  0  0  0  0  0  0  0
  -28.2870  -33.1080   24.1900 O   0  0  0  0  0  0  0  0  0  0  0  0
  -26.1420  -32.2910   26.3480 H   0  0  0  0  0  0  0  0  0  0  0  0
  -26.3660  -35.4320   25.0060 C   0  0  0  0  0  1  0  0  0  0  0  0
  -27.2920  -34.5380   25.8460 C   0  0  0  0  0  3  0  0  0  0  0  0
  -29.3940  -34.6150   27.1150 C   0  0  0  0  0  1  0  0  0  0  0  0
  -28.5520  -35.2620   26.1120 N   0  0  0  0  0  0  0  0  0  0  0  0
  -28.3580  -36.2080   26.4270 H   0  0  0  0  0  0  0  0  0  0  0  0
  -26.9270  -29.6820   26.0790 C   0  0  1  0  0  0  0  0  0  0  0  0
  -25.6440  -29.4790   26.9210 C   0  0  0  0  0  1  0  0  0  0  0  0
  -27.2900  -28.3260   25.4270 C   0  0  0  0  0  1  0  0  0  0  0  0
  -28.0810  -30.0300   27.0500 C   0  0  0  0  0  1  0  0  0  0  0  0
  1  3  2  0
  2 54  1  0
  2  1  1  0
  4  2  1  0
  5  1  1  0
  6  7  1  0
  6  8  2  0
  7  5  1  0
  9  7  1  0
 10  6  1  0
 11 13  2  0
 12 11  1  0
 12 10  1  0
 14 12  1  0
 15 24  1  0
 15 11  1  0
 16 24  1  0
 17 22  1  0
 18 19  1  0
 18 17  1  0
 20 19  1  0
 20 29  1  0
 20 21  1  0
 22 16  1  0
 22 21  1  0
 23 16  2  0
 24 25  1  0
 26 29  1  0
 26 27  2  0
 27 28  1  0
 28 30  2  0
 28 31  1  0
 29 30  1  0
 31 32  1  0
 32 33  2  0
 34 37  1  0
 34 33  1  0
 35 34  2  0
 36 35  1  0
 36 31  2  0
 37 38  1  0
 38 39  2  0
 38 43  1  0
 39 40  1  0
 40 41  2  0
 41 45  1  0
 42 41  1  0
 43 42  2  0
 44 43  1  0
 46 27  1  0
 46 47  1  0
 47 49  1  0
 48 46  2  0
 50 47  1  0
 51 26  1  0
 52 51  1  0
 53 51  1  0
 55 54  1  0
 55 57  2  0
 56 55  1  0
 58 56  1  0
 59 56  1  0
 60 59  1  0
 61 60  1  0
 62 61  1  0
 63 65  1  0
 63 62  1  0
 64 75  2  0
 65 70  1  0
 66 76  1  0
 66 74  1  0
 67 73  1  0
 67 69  1  0
 68 74  1  0
 69 68  1  0
 70 69  2  0
 71 72  1  0
 71 65  2  0
 72 67  2  0
 73 66  1  0
 74 64  1  0
 76 78  2  0
 77 76  1  0
 79 77  1  0
 80 89  2  0
 80 85  1  0
 81 77  1  0
 81 85  1  0
 82 81  1  0
 83 84  1  0
 83 82  1  0
 84 80  1  0
 85 86  2  0
 86 87  1  0
 88 87  2  0
 89 88  1  0
 90 64  1  0
 90 91  1  0
 90100  1  0
 91 94  1  0
 92 91  1  0
 92 96  1  0
 93 92  2  0
 96 95  1  0
 96 98  1  0
 98 99  1  0
 98 97  1  0
100101  1  1
100103  1  0
102100  1  0
M  ISO  4  16 100  24 100  62 101  63 101
M  END
>  <TORSDO>  (59) 
F 27

>  <SCORE>  (59) 
3.956

>  <name>  (59) 
63

>  <ligand_id>  (59) 
63

>  <original_smiles>  (59) 
[H]c1c([H])c([H])c2c(c1[H])C([H])([H])C([H])([H])C([H])([H])C2([H])N([H])C(=O)C1([H])N(C(=O)C([H])(N([H])C(=O)C([H])(N([H])C([H])([H])[H])C([H])([H])[H])C(C([H])([H])[H])(C([H])([H])[H])C([H])([H])[H])C([H])([H])c2c([H])c(OC([H])([H])C([H])([H])C([H])([H])C([H])([H])N([H])C(=O)C([H])([H])N([H])C(=O)C([H])([H])N([H])C(=O)C([H])([H])N([H])C(=O)C([H])([H])N([H])C(=O)N3C([H])([H])C([H])([H])C([H])([H])C([H])(n4nc(-c5c([H])c([H])c(Oc6c([H])c([H])c(F)c([H])c6F)c([H])c5[H])c(C(=O)N([H])[H])c4N([H])[H])C3([H])[H])c([H])c([H])c2C1([H])[H]

>  <smiles>  (59) 
[H]c1c([H])c([H])c2c(c1[H])C([H])([H])C([H])([H])C([H])([H])C2([H])N([H])C(=O)C1([H])N(C(=O)C([H])(N([H])C(=O)C([H])(N([H])C([H])([H])[H])C([H])([H])[H])C(C([H])([H])[H])(C([H])([H])[H])C([H])([H])[H])C([H])([H])c2c([H])c(OC([H])([H])C([H])([H])C([H])([H])C([H])([H])N([H])C(=O)C([H])([H])N([H])C(=O)C([H])([H])N([H])C(=O)C([H])([H])N([H])C(=O)C([H])([H])N([H])C(=O)N3C([H])([H])C([H])([H])C([H])([H])C([H])(n4nc(-c5c([H])c([H])c(Oc6c([H])c([H])c(F)c([H])c6F)c([H])c5[H])c(C(=O)N([H])[H])c4N([H])[H])C3([H])[H])c([H])c([H])c2C1([H])[H]

$$$$
64:0:0
     RDKit          3D

109116  0  0  1  0  0  0  0  0999 V2000
  -23.9900  -28.5270   24.8130 C   0  0  0  0  0  2  0  0  0  0  0  0
  -25.5640  -27.8890   24.8340 C   0  0  0  0  0  2  0  0  0  0  0  0
  -27.7320  -27.4880   23.2700 C   0  0  0  0  0  0  0  0  0  0  0  0
  -26.6990  -28.2710   23.8270 N   0  0  0  0  0  0  0  0  0  0  0  0
  -27.8770  -26.3300   23.6650 O   0  0  0  0  0  0  0  0  0  0  0  0
  -26.6370  -29.2110   23.4560 H   0  0  0  0  0  0  0  0  0  0  0  0
  -28.7700  -27.9840   22.1120 C   0  0  0  0  0  2  0  0  0  0  0  0
  -30.0470  -27.4330   19.8080 C   0  0  0  0  0  0  0  0  0  0  0  0
  -29.2000  -27.1200   20.8860 N   0  0  0  0  0  0  0  0  0  0  0  0
  -30.5650  -28.5520   19.7730 O   0  0  0  0  0  0  0  0  0  0  0  0
  -28.7950  -26.1910   20.8740 H   0  0  0  0  0  0  0  0  0  0  0  0
  -30.4070  -26.4280   18.5700 C   0  0  0  0  0  2  0  0  0  0  0  0
  -31.0420  -26.3920   15.9450 C   0  0  0  0  0  0  0  0  0  0  0  0
  -31.1690  -26.8560   17.2710 N   0  0  0  0  0  0  0  0  0  0  0  0
  -30.2360  -25.4910   15.7210 O   0  0  0  0  0  0  0  0  0  0  0  0
  -31.8490  -27.5900   17.4220 H   0  0  0  0  0  0  0  0  0  0  0  0
  -31.8740  -26.9380   14.6430 C   0  0  0  0  0  2  0  0  0  0  0  0
  -31.6700  -27.3830   11.9180 C   0  0  0  0  0  0  0  0  0  0  0  0
  -30.7030  -28.1960    9.7020 C   0  0  0  0  0  2  0  0  0  0  0  0
  -29.7190  -29.3730    9.9310 C   0  0  0  0  0  2  0  0  0  0  0  0
  -28.3260  -28.8650   10.3590 C   0  0  0  0  0  2  0  0  0  0  0  0
  -28.4200  -27.7780   11.4600 C   0  0  0  0  0  3  0  0  0  0  0  0
  -29.4220  -26.6770   11.0610 C   0  0  0  0  0  2  0  0  0  0  0  0
  -30.7180  -27.3360   10.9180 N   0  0  0  0  0  0  0  0  0  0  0  0
  -32.7660  -27.9060   11.6540 O   0  0  0  0  0  0  0  0  0  0  0  0
  -31.2720  -26.9390   13.2020 N   0  0  0  0  0  0  0  0  0  0  0  0
  -30.3350  -26.5600   13.2020 H   0  0  0  0  0  0  0  0  0  0  0  0
  -26.7950  -26.3660   12.8430 C   0  0  0  0  0  0  0  0  0  0  0  0
  -25.4440  -26.1600   12.7350 C   0  0  0  0  0  0  0  0  0  0  0  0
  -25.0230  -26.9010   11.5910 C   0  0  0  0  0  0  0  0  0  0  0  0
  -27.1270  -27.2040   11.7910 N   0  0  0  0  0  0  0  0  0  0  0  0
  -26.0610  -27.4770   11.0010 N   0  0  0  0  0  0  0  0  0  0  0  0
  -23.6780  -27.1470   11.0570 C   0  0  0  0  0  0  0  0  0  0  0  0
  -23.3450  -26.8310    9.7210 C   0  0  0  0  0  3  0  0  0  0  0  0
  -22.0390  -27.0620    9.2380 C   0  0  0  0  0  3  0  0  0  0  0  0
  -21.0510  -27.6080   10.0920 C   0  0  0  0  0  0  0  0  0  0  0  0
  -21.3960  -27.9430   11.4130 C   0  0  0  0  0  3  0  0  0  0  0  0
  -22.6990  -27.7180   11.8920 C   0  0  0  0  0  3  0  0  0  0  0  0
  -19.7650  -27.8910    9.7020 O   0  0  0  0  0  0  0  0  0  0  0  0
  -19.1810  -27.2580    8.6350 C   0  0  0  0  0  0  0  0  0  0  0  0
  -19.1480  -25.8500    8.5300 C   0  0  0  0  0  3  0  0  0  0  0  0
  -18.4780  -25.2390    7.4520 C   0  0  0  0  0  3  0  0  0  0  0  0
  -17.8320  -26.0310    6.4830 C   0  0  0  0  0  0  0  0  0  0  0  0
  -17.8610  -27.4330    6.5880 C   0  0  0  0  0  3  0  0  0  0  0  0
  -18.5330  -28.0440    7.6610 C   0  0  0  0  0  0  0  0  0  0  0  0
  -18.5370  -29.3950    7.7700 F   0  0  0  0  0  0  0  0  0  0  0  0
  -17.1820  -25.4460    5.4510 F   0  0  0  0  0  0  0  0  0  0  0  0
  -24.5840  -25.3950   13.6970 C   0  0  0  0  0  0  0  0  0  0  0  0
  -23.6330  -24.6200   13.1820 N   0  0  0  0  0  0  0  0  0  0  0  0
  -24.7820  -25.4400   14.9090 O   0  0  0  0  0  0  0  0  0  0  0  0
  -23.4840  -24.5680   12.1850 H   0  0  0  0  0  0  0  0  0  0  0  0
  -23.0460  -24.0720   13.7950 H   0  0  0  0  0  0  0  0  0  0  0  0
  -27.7520  -25.9320   13.7500 N   0  0  0  0  0  0  0  0  0  0  0  0
  -27.5200  -25.3240   14.5290 H   0  0  0  0  0  0  0  0  0  0  0  0
  -28.7390  -26.1550   13.7120 H   0  0  0  0  0  0  0  0  0  0  0  0
  -22.5380  -27.7970   24.2820 C   0  0  0  0  0  2  0  0  0  0  0  0
  -21.4650  -28.2180   23.1620 N   0  0  0  0  0  4  0  0  0  0  0  0
  -21.5600  -29.2210   23.0060 H   0  0  0  0  0  0  0  0  0  0  0  0
  -20.5990  -28.1200   23.6730 H   0  0  0  0  0  0  0  0  0  0  0  0
  -20.9740  -27.6830   21.7130 C   0  0  0  0  0  2  0  0  0  0  0  0
  -20.7980  -28.4510   20.1480 C   0  0  0  0  0  2  0  0  0  0  0  0
  -21.2730  -28.2890   18.4760 C   0  0  0  0  0  2  0  0  0  0  0  0
  -20.3990  -28.0430   17.1720 N   0  0  0  0  0  4  0  0  0  0  0  0
  -19.9430  -28.9270   16.9950 H   0  0  0  0  0  0  0  0  0  0  0  0
  -19.6600  -27.4210   17.4490 H   0  0  0  0  0  0  0  0  0  0  0  0
  -20.8960  -27.5270   15.7450 C   0  0  0  0  0  2  0  0  0  0  0  0
  -19.9190  -26.7990   14.5290 C   0  0  0  0  0  2  0  0  0  0  0  0
  -19.9570  -25.2370   13.8270 C   0  0  0  0  0  2  0  0  0  0  0  0
  -18.8670  -24.0980   13.6500 O   0  0  0  0  0  0  0  0  0  0  0  0
  -22.4550  -24.9510   18.8520 C   0  0  0  0  0  0  0  0  0  0  0  0
  -18.5430  -23.4020   14.7570 C   0  0  0  0  0  3  0  0  0  0  0  0
  -19.8840  -25.6450   18.9680 C   0  0  0  0  0  3  0  0  0  0  0  0
  -18.5890  -24.9180   16.9800 C   0  0  0  0  0  0  0  0  0  0  0  0
  -21.1200  -24.6510   16.9600 C   0  0  0  0  0  2  0  0  0  0  0  0
  -19.7580  -24.2860   16.5180 C   0  0  0  0  0  0  0  0  0  0  0  0
  -19.6830  -23.3230   15.5230 C   0  0  0  0  0  2  0  0  0  0  0  0
  -17.3090  -23.7910   15.3020 C   0  0  0  0  0  3  0  0  0  0  0  0
  -17.3380  -24.6020   16.4380 C   0  0  0  0  0  3  0  0  0  0  0  0
  -18.6900  -25.9410   18.0290 C   0  0  0  0  0  2  0  0  0  0  0  0
  -21.1890  -25.0980   18.3220 N   0  0  0  0  0  0  0  0  0  0  0  0
  -22.7490  -25.3140   19.9530 O   0  0  0  0  0  0  0  0  0  0  0  0
  -19.2170  -24.7120   19.9370 C   0  0  0  0  0  0  0  0  0  0  0  0
  -18.1720  -25.1660   20.6600 N   0  0  0  0  0  0  0  0  0  0  0  0
  -19.5870  -23.5660   19.9050 O   0  0  0  0  0  0  0  0  0  0  0  0
  -17.8190  -26.0880   20.4560 H   0  0  0  0  0  0  0  0  0  0  0  0
  -15.1410  -25.2070   22.6610 C   0  0  0  0  0  0  0  0  0  0  0  0
  -17.4020  -24.4740   21.6850 C   0  0  0  0  0  3  0  0  0  0  0  0
  -16.6690  -23.2770   21.0620 C   0  0  0  0  0  2  0  0  0  0  0  0
  -15.2220  -23.6010   20.7090 C   0  0  0  0  0  2  0  0  0  0  0  0
  -14.4590  -24.0480   21.9580 C   0  0  0  0  0  2  0  0  0  0  0  0
  -16.5310  -25.4220   22.5400 C   0  0  0  0  0  0  0  0  0  0  0  0
  -17.0780  -26.5230   23.2500 C   0  0  0  0  0  3  0  0  0  0  0  0
  -16.2950  -27.4120   23.9980 C   0  0  0  0  0  3  0  0  0  0  0  0
  -14.9200  -27.1840   24.0950 C   0  0  0  0  0  3  0  0  0  0  0  0
  -14.3520  -26.0780   23.4420 C   0  0  0  0  0  3  0  0  0  0  0  0
  -23.7350  -24.4200   18.1540 C   0  0  0  0  0  3  0  0  0  0  0  0
  -24.2400  -23.1040   18.8560 C   0  0  1  0  0  0  0  0  0  0  0  0
  -24.7200  -23.2940   20.3170 C   0  0  0  0  0  1  0  0  0  0  0  0
  -23.1850  -21.9750   18.8500 C   0  0  0  0  0  1  0  0  0  0  0  0
  -25.4440  -22.5510   18.0690 C   0  0  0  0  0  1  0  0  0  0  0  0
  -24.7910  -25.4590   18.3270 N   0  0  0  0  0  0  0  0  0  0  0  0
  -24.7440  -26.7230   17.8990 C   0  0  0  0  0  0  0  0  0  0  0  0
  -23.8300  -27.1300   17.1800 O   0  0  0  0  0  0  0  0  0  0  0  0
  -25.5500  -25.2140   18.9460 H   0  0  0  0  0  0  0  0  0  0  0  0
  -25.7420  -28.0480   19.8050 C   0  0  0  0  0  1  0  0  0  0  0  0
  -25.8820  -27.6780   18.3180 C   0  0  0  0  0  3  0  0  0  0  0  0
  -26.2450  -28.6660   16.1020 C   0  0  0  0  0  1  0  0  0  0  0  0
  -25.9230  -28.9130   17.5060 N   0  0  0  0  0  0  0  0  0  0  0  0
  -26.5930  -29.5770   17.8820 H   0  0  0  0  0  0  0  0  0  0  0  0
  1  2  1  0
  3  5  2  0
  3  4  1  0
  4  2  1  0
  6  4  1  0
  7  3  1  0
  8  9  1  0
  9  7  1  0
 10  8  2  0
 11  9  1  0
 12  8  1  0
 13 14  1  0
 14 16  1  0
 14 12  1  0
 15 13  2  0
 17 13  1  0
 18 26  1  0
 19 20  1  0
 19 24  1  0
 20 21  1  0
 22 21  1  0
 22 31  1  0
 23 22  1  0
 24 23  1  0
 24 18  1  0
 25 18  2  0
 26 17  1  0
 27 26  1  0
 28 53  1  0
 29 28  2  0
 29 48  1  0
 30 29  1  0
 31 28  1  0
 32 30  2  0
 32 31  1  0
 33 30  1  0
 33 38  1  0
 34 33  2  0
 35 34  1  0
 35 36  2  0
 36 37  1  0
 37 38  2  0
 39 36  1  0
 40 39  1  0
 41 40  1  0
 42 41  2  0
 43 44  2  0
 43 42  1  0
 44 45  1  0
 45 46  1  0
 45 40  2  0
 47 43  1  0
 48 50  2  0
 49 48  1  0
 49 52  1  0
 51 49  1  0
 53 54  1  0
 55 53  1  0
 56  1  1  0
 57 59  1  0
 57 56  1  0
 58 57  1  0
 60 57  1  0
 61 60  1  0
 62 61  1  0
 63 65  1  0
 63 62  1  0
 64 63  1  0
 66 63  1  0
 67 66  1  0
 68 67  1  0
 69 68  1  0
 70 81  2  0
 71 69  1  0
 71 77  1  0
 71 76  1  0
 72 82  1  0
 73 79  1  0
 74 80  1  0
 75 74  1  0
 75 73  2  0
 76 75  1  0
 77 78  2  0
 78 73  1  0
 79 72  1  0
 80 70  1  0
 80 72  1  0
 82 83  1  0
 84 82  2  0
 85 83  1  0
 86 95  1  0
 87 83  1  0
 87 91  1  0
 88 87  1  0
 89 88  1  0
 89 90  1  0
 90 86  1  0
 91 86  2  0
 91 92  1  0
 92 93  2  0
 93 94  1  0
 95 94  2  0
 96101  1  0
 96 70  1  0
 96 97  1  0
 97 98  1  1
 99 97  1  0
100 97  1  0
101104  1  0
102106  1  0
102101  1  0
103102  2  0
106105  1  0
107108  1  0
108109  1  0
108106  1  0
M  ISO  4  18 100  26 100  68 101  69 101
M  END
>  <TORSDO>  (60) 
F 32

>  <SCORE>  (60) 
-3.138

>  <name>  (60) 
64

>  <ligand_id>  (60) 
64

>  <original_smiles>  (60) 
[H]c1c([H])c([H])c2c(c1[H])C([H])([H])C([H])([H])C([H])([H])C2([H])N([H])C(=O)C1([H])N(C(=O)C([H])(N([H])C(=O)C([H])(N([H])C([H])([H])[H])C([H])([H])[H])C(C([H])([H])[H])(C([H])([H])[H])C([H])([H])[H])C([H])([H])c2c([H])c(OC([H])([H])C([H])([H])C([H])([H])[N+]([H])([H])C([H])([H])C([H])([H])C([H])([H])[N+]([H])([H])C([H])([H])C([H])([H])C([H])([H])N([H])C(=O)C([H])([H])N([H])C(=O)C([H])([H])N([H])C(=O)C([H])([H])N([H])C(=O)N3C([H])([H])C([H])([H])C([H])([H])C([H])(n4nc(-c5c([H])c([H])c(Oc6c([H])c([H])c(F)c([H])c6F)c([H])c5[H])c(C(=O)N([H])[H])c4N([H])[H])C3([H])[H])c([H])c([H])c2C1([H])[H]

>  <smiles>  (60) 
[H]c1c([H])c([H])c2c(c1[H])C([H])([H])C([H])([H])C([H])([H])C2([H])N([H])C(=O)C1([H])N(C(=O)C([H])(N([H])C(=O)C([H])(N([H])C([H])([H])[H])C([H])([H])[H])C(C([H])([H])[H])(C([H])([H])[H])C([H])([H])[H])C([H])([H])c2c([H])c(OC([H])([H])C([H])([H])C([H])([H])[N+]([H])([H])C([H])([H])C([H])([H])C([H])([H])[N+]([H])([H])C([H])([H])C([H])([H])C([H])([H])N([H])C(=O)C([H])([H])N([H])C(=O)C([H])([H])N([H])C(=O)C([H])([H])N([H])C(=O)N3C([H])([H])C([H])([H])C([H])([H])C([H])(n4nc(-c5c([H])c([H])c(Oc6c([H])c([H])c(F)c([H])c6F)c([H])c5[H])c(C(=O)N([H])[H])c4N([H])[H])C3([H])[H])c([H])c([H])c2C1([H])[H]

$$$$
66:0:0
     RDKit          3D

109116  0  0  1  0  0  0  0  0999 V2000
  -31.4120  -26.1030   16.8660 C   0  0  0  0  0  2  0  0  0  0  0  0
  -30.7230  -25.3750   17.9610 N   0  0  0  0  0  4  0  0  0  0  0  0
  -30.0200  -25.9830   18.3540 H   0  0  0  0  0  0  0  0  0  0  0  0
  -31.3980  -25.1470   18.6740 H   0  0  0  0  0  0  0  0  0  0  0  0
  -30.0660  -24.1120   17.5580 C   0  0  0  0  0  2  0  0  0  0  0  0
  -29.2760  -23.4940   18.7300 C   0  0  0  0  0  2  0  0  0  0  0  0
  -28.7990  -22.0490   18.4850 C   0  0  0  0  0  2  0  0  0  0  0  0
  -30.4950  -20.5260   19.4910 C   0  0  0  0  0  0  0  0  0  0  0  0
  -29.9010  -21.0880   18.4300 N   0  0  0  0  0  0  0  0  0  0  0  0
  -30.2080  -20.8260   20.6520 O   0  0  0  0  0  0  0  0  0  0  0  0
  -30.1850  -20.7600   17.5160 H   0  0  0  0  0  0  0  0  0  0  0  0
  -31.5880  -19.4860   19.2080 C   0  0  0  0  0  2  0  0  0  0  0  0
  -30.7370  -17.4240   20.3050 C   0  0  0  0  0  0  0  0  0  0  0  0
  -31.6230  -18.4210   20.2110 N   0  0  0  0  0  0  0  0  0  0  0  0
  -29.7770  -17.3140   19.5400 O   0  0  0  0  0  0  0  0  0  0  0  0
  -32.3640  -18.4660   20.8970 H   0  0  0  0  0  0  0  0  0  0  0  0
  -30.9630  -16.4000   21.4260 C   0  0  0  0  0  2  0  0  0  0  0  0
  -30.8280  -14.2510   20.1760 C   0  0  0  0  0  0  0  0  0  0  0  0
  -30.3760  -12.1740   18.9270 C   0  0  0  0  0  2  0  0  0  0  0  0
  -29.3820  -12.4280   17.7790 C   0  0  0  0  0  2  0  0  0  0  0  0
  -27.9290  -12.3140   18.2780 C   0  0  0  0  0  2  0  0  0  0  0  0
  -27.6750  -13.1430   19.5640 C   0  0  0  0  0  3  0  0  0  0  0  0
  -28.7670  -12.8630   20.6180 C   0  0  0  0  0  2  0  0  0  0  0  0
  -30.0820  -13.1300   20.0050 N   0  0  0  0  0  0  0  0  0  0  0  0
  -31.8470  -14.4980   19.5240 O   0  0  0  0  0  0  0  0  0  0  0  0
  -30.3820  -15.0930   21.1160 N   0  0  0  0  0  0  0  0  0  0  0  0
  -29.5330  -14.8390   21.5950 H   0  0  0  0  0  0  0  0  0  0  0  0
  -25.3150  -13.8010   20.3650 C   0  0  0  0  0  0  0  0  0  0  0  0
  -24.2490  -13.0510   20.7840 C   0  0  0  0  0  0  0  0  0  0  0  0
  -24.6850  -11.6910   20.7430 C   0  0  0  0  0  0  0  0  0  0  0  0
  -26.3340  -12.9000   20.0970 N   0  0  0  0  0  0  0  0  0  0  0  0
  -25.9600  -11.6260   20.3800 N   0  0  0  0  0  0  0  0  0  0  0  0
  -23.9460  -10.4430   20.9740 C   0  0  0  0  0  0  0  0  0  0  0  0
  -24.3870   -9.4870   21.9150 C   0  0  0  0  0  3  0  0  0  0  0  0
  -23.6490   -8.3030   22.1310 C   0  0  0  0  0  3  0  0  0  0  0  0
  -22.4570   -8.0670   21.4070 C   0  0  0  0  0  0  0  0  0  0  0  0
  -22.0350   -9.0110   20.4550 C   0  0  0  0  0  3  0  0  0  0  0  0
  -22.7730  -10.1870   20.2370 C   0  0  0  0  0  3  0  0  0  0  0  0
  -21.6900   -6.9340   21.5320 O   0  0  0  0  0  0  0  0  0  0  0  0
  -21.6450   -6.2220   22.7040 C   0  0  0  0  0  0  0  0  0  0  0  0
  -21.2190   -6.8060   23.9160 C   0  0  0  0  0  3  0  0  0  0  0  0
  -21.1220   -6.0190   25.0820 C   0  0  0  0  0  3  0  0  0  0  0  0
  -21.4400   -4.6480   25.0350 C   0  0  0  0  0  0  0  0  0  0  0  0
  -21.8580   -4.0630   23.8270 C   0  0  0  0  0  3  0  0  0  0  0  0
  -21.9570   -4.8470   22.6640 C   0  0  0  0  0  0  0  0  0  0  0  0
  -22.3400   -4.2740   21.4980 F   0  0  0  0  0  0  0  0  0  0  0  0
  -21.3390   -3.8900   26.1510 F   0  0  0  0  0  0  0  0  0  0  0  0
  -22.8750  -13.5550   21.1160 C   0  0  0  0  0  0  0  0  0  0  0  0
  -22.1740  -12.8760   22.0170 N   0  0  0  0  0  0  0  0  0  0  0  0
  -22.4320  -14.5840   20.6080 O   0  0  0  0  0  0  0  0  0  0  0  0
  -22.5440  -12.0430   22.4490 H   0  0  0  0  0  0  0  0  0  0  0  0
  -21.2520  -13.1970   22.2820 H   0  0  0  0  0  0  0  0  0  0  0  0
  -25.4970  -15.1680   20.1710 N   0  0  0  0  0  0  0  0  0  0  0  0
  -24.7510  -15.8400   20.3090 H   0  0  0  0  0  0  0  0  0  0  0  0
  -26.3500  -15.5880   19.8190 H   0  0  0  0  0  0  0  0  0  0  0  0
  -32.3970  -27.1910   17.3680 C   0  0  0  0  0  2  0  0  0  0  0  0
  -31.7850  -28.1970   18.3460 C   0  0  0  0  0  0  0  0  0  0  0  0
  -32.5480  -28.5930   19.3750 N   0  0  0  0  0  0  0  0  0  0  0  0
  -30.6140  -28.5530   18.2130 O   0  0  0  0  0  0  0  0  0  0  0  0
  -33.5220  -28.3180   19.3670 H   0  0  0  0  0  0  0  0  0  0  0  0
  -32.0930  -29.4590   20.4680 C   0  0  0  0  0  2  0  0  0  0  0  0
  -32.7020  -29.0830   21.8380 C   0  0  0  0  0  2  0  0  0  0  0  0
  -32.4020  -27.7010   22.2970 N   0  0  0  0  0  4  0  0  0  0  0  0
  -32.8110  -27.0250   21.6750 H   0  0  0  0  0  0  0  0  0  0  0  0
  -32.8750  -27.5900   23.1780 H   0  0  0  0  0  0  0  0  0  0  0  0
  -30.9720  -27.3890   22.5310 C   0  0  0  0  0  2  0  0  0  0  0  0
  -30.4380  -26.3190   21.5530 C   0  0  0  0  0  2  0  0  0  0  0  0
  -28.9070  -26.1390   21.5380 C   0  0  0  0  0  2  0  0  0  0  0  0
  -28.3690  -26.3980   20.2340 O   0  0  0  0  0  0  0  0  0  0  0  0
  -24.5880  -31.6110   23.2340 C   0  0  0  0  0  0  0  0  0  0  0  0
  -27.2370  -27.1780   20.2010 C   0  0  0  0  0  0  0  0  0  0  0  0
  -23.4030  -30.2730   21.5190 C   0  0  0  0  0  3  0  0  0  0  0  0
  -24.8700  -28.7170   20.1250 C   0  0  0  0  0  0  0  0  0  0  0  0
  -25.9360  -30.5790   21.4140 C   0  0  0  0  0  2  0  0  0  0  0  0
  -26.0090  -29.2150   20.7650 C   0  0  0  0  0  0  0  0  0  0  0  0
  -27.1920  -28.4530   20.8020 C   0  0  0  0  0  3  0  0  0  0  0  0
  -26.0930  -26.6930   19.5370 C   0  0  0  0  0  3  0  0  0  0  0  0
  -24.9050  -27.4540   19.5040 C   0  0  0  0  0  3  0  0  0  0  0  0
  -23.6450  -29.6020   20.1370 C   0  0  0  0  0  2  0  0  0  0  0  0
  -24.6580  -30.8330   22.1170 N   0  0  0  0  0  0  0  0  0  0  0  0
  -23.4970  -31.9030   23.7440 O   0  0  0  0  0  0  0  0  0  0  0  0
  -22.6880  -29.2570   22.4380 C   0  0  0  0  0  0  0  0  0  0  0  0
  -21.3580  -29.1570   22.2940 N   0  0  0  0  0  0  0  0  0  0  0  0
  -23.3270  -28.5630   23.2330 O   0  0  0  0  0  0  0  0  0  0  0  0
  -20.9070  -29.7680   21.6280 H   0  0  0  0  0  0  0  0  0  0  0  0
  -17.9070  -28.2150   22.7830 C   0  0  0  0  0  0  0  0  0  0  0  0
  -20.4790  -28.2430   23.0210 C   0  0  0  0  0  3  0  0  0  0  0  0
  -20.4550  -26.8470   22.3540 C   0  0  0  0  0  2  0  0  0  0  0  0
  -19.3160  -26.6830   21.3430 C   0  0  0  0  0  2  0  0  0  0  0  0
  -17.9610  -26.9000   22.0220 C   0  0  0  0  0  2  0  0  0  0  0  0
  -19.0910  -28.8540   23.2370 C   0  0  0  0  0  0  0  0  0  0  0  0
  -18.9870  -30.0930   23.9070 C   0  0  0  0  0  3  0  0  0  0  0  0
  -17.7310  -30.6900   24.1270 C   0  0  0  0  0  3  0  0  0  0  0  0
  -16.5620  -30.0450   23.6890 C   0  0  0  0  0  3  0  0  0  0  0  0
  -16.6500  -28.8090   23.0240 C   0  0  0  0  0  3  0  0  0  0  0  0
  -25.8690  -32.1950   23.9090 C   0  0  0  0  0  3  0  0  0  0  0  0
  -26.3130  -31.3970   25.1960 C   0  0  1  0  0  0  0  0  0  0  0  0
  -25.1790  -31.1960   26.2290 C   0  0  0  0  0  1  0  0  0  0  0  0
  -26.8550  -30.0010   24.8070 C   0  0  0  0  0  1  0  0  0  0  0  0
  -27.4680  -32.1450   25.9020 C   0  0  0  0  0  1  0  0  0  0  0  0
  -25.5990  -33.6010   24.2350 N   0  0  0  0  0  0  0  0  0  0  0  0
  -25.9670  -34.6390   23.4730 C   0  0  0  0  0  0  0  0  0  0  0  0
  -26.6380  -34.5110   22.4450 O   0  0  0  0  0  0  0  0  0  0  0  0
  -25.0050  -33.7750   25.0320 H   0  0  0  0  0  0  0  0  0  0  0  0
  -24.2700  -36.4580   23.1260 C   0  0  0  0  0  1  0  0  0  0  0  0
  -25.5170  -36.0420   23.9210 C   0  0  0  0  0  3  0  0  0  0  0  0
  -27.6810  -36.8950   24.7070 C   0  0  0  0  0  1  0  0  0  0  0  0
  -26.5700  -37.0700   23.7750 N   0  0  0  0  0  0  0  0  0  0  0  0
  -26.1850  -38.0000   23.9160 H   0  0  0  0  0  0  0  0  0  0  0  0
  1 56  1  0
  1  2  1  0
  2  3  1  0
  2  4  1  0
  5  2  1  0
  5  6  1  0
  7  6  1  0
  8 10  2  0
  9  7  1  0
  9  8  1  0
 11  9  1  0
 12  8  1  0
 12 14  1  0
 13 17  1  0
 14 13  1  0
 14 16  1  0
 15 13  2  0
 18 26  1  0
 19 24  1  0
 20 21  1  0
 20 19  1  0
 22 21  1  0
 22 31  1  0
 22 23  1  0
 24 18  1  0
 24 23  1  0
 25 18  2  0
 26 17  1  0
 26 27  1  0
 28 29  2  0
 29 48  1  0
 30 29  1  0
 30 33  1  0
 31 28  1  0
 31 32  1  0
 32 30  2  0
 33 34  1  0
 34 35  2  0
 36 39  1  0
 36 35  1  0
 37 36  2  0
 38 37  1  0
 38 33  2  0
 39 40  1  0
 40 41  1  0
 41 42  2  0
 43 42  1  0
 43 47  1  0
 44 43  2  0
 45 40  2  0
 45 44  1  0
 46 45  1  0
 48 49  1  0
 49 52  1  0
 49 51  1  0
 50 48  2  0
 53 54  1  0
 53 28  1  0
 55 53  1  0
 56 57  1  0
 57 58  1  0
 58 61  1  0
 59 57  2  0
 60 58  1  0
 61 62  1  0
 62 63  1  0
 63 66  1  0
 63 65  1  0
 64 63  1  0
 67 66  1  0
 68 67  1  0
 69 68  1  0
 70 81  2  0
 71 69  1  0
 71 76  1  0
 72 80  1  0
 72 82  1  0
 73 79  1  0
 73 75  1  0
 74 80  1  0
 75 76  2  0
 75 74  1  0
 77 71  2  0
 78 77  1  0
 78 73  2  0
 79 72  1  0
 80 70  1  0
 82 84  2  0
 83 82  1  0
 85 83  1  0
 86 95  2  0
 86 91  1  0
 87 83  1  0
 87 91  1  0
 88 87  1  0
 89 90  1  0
 89 88  1  0
 90 86  1  0
 91 92  2  0
 92 93  1  0
 94 93  2  0
 95 94  1  0
 96 70  1  0
 96101  1  0
 96 97  1  0
 97100  1  1
 97 98  1  0
 99 97  1  0
101104  1  0
102106  1  0
102101  1  0
103102  2  0
106105  1  0
108109  1  0
108106  1  0
108107  1  0
M  ISO  4  18 100  26 100  68 101  69 101
M  END
>  <TORSDO>  (61) 
F 32

>  <SCORE>  (61) 
-10.403

>  <name>  (61) 
66

>  <ligand_id>  (61) 
66

>  <original_smiles>  (61) 
[H]c1c([H])c([H])c2c(c1[H])C([H])([H])C([H])([H])C([H])([H])C2([H])N([H])C(=O)C1([H])N(C(=O)C([H])(N([H])C(=O)C([H])(N([H])C([H])([H])[H])C([H])([H])[H])C(C([H])([H])[H])(C([H])([H])[H])C([H])([H])[H])C([H])([H])c2c([H])c(OC([H])([H])C([H])([H])C([H])([H])[N+]([H])([H])C([H])([H])C([H])([H])N([H])C(=O)C([H])([H])C([H])([H])[N+]([H])([H])C([H])([H])C([H])([H])C([H])([H])N([H])C(=O)C([H])([H])N([H])C(=O)C([H])([H])N([H])C(=O)N3C([H])([H])C([H])([H])C([H])([H])C([H])(n4nc(-c5c([H])c([H])c(Oc6c([H])c([H])c(F)c([H])c6F)c([H])c5[H])c(C(=O)N([H])[H])c4N([H])[H])C3([H])[H])c([H])c([H])c2C1([H])[H]

>  <smiles>  (61) 
[H]c1c([H])c([H])c2c(c1[H])C([H])([H])C([H])([H])C([H])([H])C2([H])N([H])C(=O)C1([H])N(C(=O)C([H])(N([H])C(=O)C([H])(N([H])C([H])([H])[H])C([H])([H])[H])C(C([H])([H])[H])(C([H])([H])[H])C([H])([H])[H])C([H])([H])c2c([H])c(OC([H])([H])C([H])([H])C([H])([H])[N+]([H])([H])C([H])([H])C([H])([H])N([H])C(=O)C([H])([H])C([H])([H])[N+]([H])([H])C([H])([H])C([H])([H])C([H])([H])N([H])C(=O)C([H])([H])N([H])C(=O)C([H])([H])N([H])C(=O)N3C([H])([H])C([H])([H])C([H])([H])C([H])(n4nc(-c5c([H])c([H])c(Oc6c([H])c([H])c(F)c([H])c6F)c([H])c5[H])c(C(=O)N([H])[H])c4N([H])[H])C3([H])[H])c([H])c([H])c2C1([H])[H]

$$$$
67:0:0
     RDKit          3D

108115  0  0  1  0  0  0  0  0999 V2000
  -31.9160  -22.8300   13.5920 C   0  0  0  0  0  0  0  0  0  0  0  0
  -31.7120  -21.5740   13.1810 N   0  0  0  0  0  0  0  0  0  0  0  0
  -32.8920  -23.5020   13.2520 O   0  0  0  0  0  0  0  0  0  0  0  0
  -30.8370  -21.1410   13.4430 H   0  0  0  0  0  0  0  0  0  0  0  0
  -30.9080  -23.2340   14.5580 C   0  0  0  0  0  3  0  0  0  0  0  0
  -30.9700  -24.3790   15.2710 C   0  0  0  0  0  0  0  0  0  0  0  0
  -28.8930  -25.7010   15.6810 C   0  0  0  0  0  1  0  0  0  0  0  0
  -29.9390  -24.7770   16.3230 C   0  0  0  0  0  3  0  0  0  0  0  0
  -30.6390  -25.3950   17.4800 N   0  0  0  0  0  4  0  0  0  0  0  0
  -31.4500  -24.8170   17.6360 H   0  0  0  0  0  0  0  0  0  0  0  0
  -30.9980  -26.2900   17.1910 H   0  0  0  0  0  0  0  0  0  0  0  0
  -29.9060  -25.4760   18.7680 C   0  0  0  0  0  2  0  0  0  0  0  0
  -29.0930  -26.7710   18.9340 C   0  0  0  0  0  2  0  0  0  0  0  0
  -28.2940  -26.6250   20.1010 O   0  0  0  0  0  0  0  0  0  0  0  0
  -24.5200  -31.7640   23.2200 C   0  0  0  0  0  0  0  0  0  0  0  0
  -27.1340  -27.3560   20.1010 C   0  0  0  0  0  0  0  0  0  0  0  0
  -23.2940  -30.3750   21.5740 C   0  0  0  0  0  3  0  0  0  0  0  0
  -24.7400  -28.8360   20.1380 C   0  0  0  0  0  0  0  0  0  0  0  0
  -25.8210  -30.7320   21.3640 C   0  0  0  0  0  2  0  0  0  0  0  0
  -25.8980  -29.3680   20.7160 C   0  0  0  0  0  0  0  0  0  0  0  0
  -27.1040  -28.6350   20.6880 C   0  0  0  0  0  3  0  0  0  0  0  0
  -25.9600  -26.8170   19.5380 C   0  0  0  0  0  3  0  0  0  0  0  0
  -24.7630  -27.5600   19.5470 C   0  0  0  0  0  3  0  0  0  0  0  0
  -23.4970  -29.6990   20.1900 C   0  0  0  0  0  2  0  0  0  0  0  0
  -24.5620  -30.9670   22.1130 N   0  0  0  0  0  0  0  0  0  0  0  0
  -23.4430  -32.0390   23.7650 O   0  0  0  0  0  0  0  0  0  0  0  0
  -22.6390  -29.3550   22.5320 C   0  0  0  0  0  0  0  0  0  0  0  0
  -21.3110  -29.1950   22.4180 N   0  0  0  0  0  0  0  0  0  0  0  0
  -23.3210  -28.7120   23.3340 O   0  0  0  0  0  0  0  0  0  0  0  0
  -20.8220  -29.7640   21.7410 H   0  0  0  0  0  0  0  0  0  0  0  0
  -17.9230  -28.0550   22.9330 C   0  0  0  0  0  0  0  0  0  0  0  0
  -20.4870  -28.2630   23.1840 C   0  0  0  0  0  3  0  0  0  0  0  0
  -20.5600  -26.8370   22.5920 C   0  0  0  0  0  2  0  0  0  0  0  0
  -19.4420  -26.5450   21.5860 C   0  0  0  0  0  2  0  0  0  0  0  0
  -18.0690  -26.7100   22.2420 C   0  0  0  0  0  2  0  0  0  0  0  0
  -19.0600  -28.7920   23.3600 C   0  0  0  0  0  0  0  0  0  0  0  0
  -18.8690  -30.0550   23.9640 C   0  0  0  0  0  3  0  0  0  0  0  0
  -17.5770  -30.5810   24.1440 C   0  0  0  0  0  3  0  0  0  0  0  0
  -16.4530  -29.8370   23.7370 C   0  0  0  0  0  3  0  0  0  0  0  0
  -16.6290  -28.5780   23.1380 C   0  0  0  0  0  3  0  0  0  0  0  0
  -25.8140  -32.3770   23.8380 C   0  0  0  0  0  3  0  0  0  0  0  0
  -26.3310  -31.5980   25.1100 C   0  0  1  0  0  0  0  0  0  0  0  0
  -25.2410  -31.3650   26.1800 C   0  0  0  0  0  1  0  0  0  0  0  0
  -26.9000  -30.2160   24.7100 C   0  0  0  0  0  1  0  0  0  0  0  0
  -27.4910  -32.3780   25.7700 C   0  0  0  0  0  1  0  0  0  0  0  0
  -25.5280  -33.7790   24.1670 N   0  0  0  0  0  0  0  0  0  0  0  0
  -25.8800  -34.8240   23.4090 C   0  0  0  0  0  0  0  0  0  0  0  0
  -26.5520  -34.7090   22.3770 O   0  0  0  0  0  0  0  0  0  0  0  0
  -24.9380  -33.9490   24.9680 H   0  0  0  0  0  0  0  0  0  0  0  0
  -24.1870  -36.6450   23.0330 C   0  0  0  0  0  1  0  0  0  0  0  0
  -25.4090  -36.2170   23.8620 C   0  0  0  0  0  3  0  0  0  0  0  0
  -27.5420  -37.0630   24.7340 C   0  0  0  0  0  1  0  0  0  0  0  0
  -26.4600  -37.2550   23.7700 N   0  0  0  0  0  0  0  0  0  0  0  0
  -26.0660  -38.1820   23.9130 H   0  0  0  0  0  0  0  0  0  0  0  0
  -31.9500  -25.2980   15.1800 O   0  0  0  0  0  0  0  0  0  0  0  0
  -32.5650  -25.0010   14.5160 H   0  0  0  0  0  0  0  0  0  0  0  0
  -32.7360  -20.6810   12.6500 C   0  0  0  0  0  2  0  0  0  0  0  0
  -33.6340  -20.1650   13.7930 C   0  0  0  0  0  2  0  0  0  0  0  0
  -32.8430  -19.4500   14.9110 C   0  0  0  0  0  2  0  0  0  0  0  0
  -33.6300  -19.3530   16.2310 C   0  0  0  0  0  2  0  0  0  0  0  0
  -32.7510  -19.0870   17.3940 N   0  0  0  0  0  4  0  0  0  0  0  0
  -32.4100  -18.1410   17.3520 H   0  0  0  0  0  0  0  0  0  0  0  0
  -31.9580  -19.7030   17.3330 H   0  0  0  0  0  0  0  0  0  0  0  0
  -33.4070  -19.3150   18.7040 C   0  0  0  0  0  2  0  0  0  0  0  0
  -32.4430  -19.8490   19.7870 C   0  0  0  0  0  2  0  0  0  0  0  0
  -31.0410  -18.1060   20.8870 C   0  0  0  0  0  0  0  0  0  0  0  0
  -31.2250  -19.0490   19.9500 N   0  0  0  0  0  0  0  0  0  0  0  0
  -31.8940  -17.8270   21.7290 O   0  0  0  0  0  0  0  0  0  0  0  0
  -30.4240  -19.2920   19.3800 H   0  0  0  0  0  0  0  0  0  0  0  0
  -29.6740  -17.3970   20.9000 C   0  0  0  0  0  2  0  0  0  0  0  0
  -30.4180  -15.0200   20.4690 C   0  0  0  0  0  0  0  0  0  0  0  0
  -30.2790  -12.8230   19.3740 C   0  0  0  0  0  2  0  0  0  0  0  0
  -29.3270  -12.9520   18.1700 C   0  0  0  0  0  2  0  0  0  0  0  0
  -27.8610  -12.7300   18.5970 C   0  0  0  0  0  2  0  0  0  0  0  0
  -27.4720  -13.5530   19.8560 C   0  0  0  0  0  3  0  0  0  0  0  0
  -28.5450  -13.4000   20.9610 C   0  0  0  0  0  2  0  0  0  0  0  0
  -29.8480  -13.7890   20.3930 N   0  0  0  0  0  0  0  0  0  0  0  0
  -31.4620  -15.3060   19.8820 O   0  0  0  0  0  0  0  0  0  0  0  0
  -29.6750  -15.9390   21.1020 N   0  0  0  0  0  0  0  0  0  0  0  0
  -28.8770  -15.5710   21.5950 H   0  0  0  0  0  0  0  0  0  0  0  0
  -25.0430  -14.0000   20.5940 C   0  0  0  0  0  0  0  0  0  0  0  0
  -24.0280  -13.1550   20.9570 C   0  0  0  0  0  0  0  0  0  0  0  0
  -24.5690  -11.8340   20.8870 C   0  0  0  0  0  0  0  0  0  0  0  0
  -26.1400  -13.1900   20.3340 N   0  0  0  0  0  0  0  0  0  0  0  0
  -25.8550  -11.8820   20.5630 N   0  0  0  0  0  0  0  0  0  0  0  0
  -23.9210  -10.5260   21.0510 C   0  0  0  0  0  0  0  0  0  0  0  0
  -24.3780   -9.5940   22.0070 C   0  0  0  0  0  3  0  0  0  0  0  0
  -23.7310   -8.3500   22.1610 C   0  0  0  0  0  3  0  0  0  0  0  0
  -22.6110   -8.0290   21.3590 C   0  0  0  0  0  0  0  0  0  0  0  0
  -22.1740   -8.9500   20.3920 C   0  0  0  0  0  3  0  0  0  0  0  0
  -22.8240  -10.1860   20.2360 C   0  0  0  0  0  3  0  0  0  0  0  0
  -21.9350   -6.8340   21.4220 O   0  0  0  0  0  0  0  0  0  0  0  0
  -21.8270   -6.1280   22.5950 C   0  0  0  0  0  0  0  0  0  0  0  0
  -21.2300   -6.6820   23.7480 C   0  0  0  0  0  3  0  0  0  0  0  0
  -21.0790   -5.8970   24.9070 C   0  0  0  0  0  3  0  0  0  0  0  0
  -21.5170   -4.5590   24.9160 C   0  0  0  0  0  0  0  0  0  0  0  0
  -22.1020   -4.0040   23.7660 C   0  0  0  0  0  3  0  0  0  0  0  0
  -22.2560   -4.7860   22.6080 C   0  0  0  0  0  0  0  0  0  0  0  0
  -22.8040   -4.2400   21.4960 F   0  0  0  0  0  0  0  0  0  0  0  0
  -21.3600   -3.8010   26.0280 F   0  0  0  0  0  0  0  0  0  0  0  0
  -22.6070  -13.5380   21.2560 C   0  0  0  0  0  0  0  0  0  0  0  0
  -21.9350  -12.7770   22.1150 N   0  0  0  0  0  0  0  0  0  0  0  0
  -22.1000  -14.5460   20.7670 O   0  0  0  0  0  0  0  0  0  0  0  0
  -22.3570  -11.9630   22.5350 H   0  0  0  0  0  0  0  0  0  0  0  0
  -20.9810  -13.0120   22.3510 H   0  0  0  0  0  0  0  0  0  0  0  0
  -25.1260  -15.3810   20.4440 N   0  0  0  0  0  0  0  0  0  0  0  0
  -24.3250  -15.9910   20.5770 H   0  0  0  0  0  0  0  0  0  0  0  0
  -25.9450  -15.8740   20.1160 H   0  0  0  0  0  0  0  0  0  0  0  0
  1  5  1  0
  2  4  1  0
  2  1  1  0
  3  1  2  0
  5  6  2  0
  6  8  1  0
  8  7  1  0
  8  9  1  0
  9 10  1  0
  9 12  1  0
 11  9  1  0
 12 13  1  0
 13 14  1  0
 14 16  1  0
 15 26  2  0
 16 21  1  0
 17 25  1  0
 17 27  1  0
 18 24  1  0
 18 20  1  0
 19 25  1  0
 20 19  1  0
 21 20  2  0
 22 23  1  0
 22 16  2  0
 23 18  2  0
 24 17  1  0
 25 15  1  0
 27 29  2  0
 28 27  1  0
 30 28  1  0
 31 40  2  0
 31 36  1  0
 32 28  1  0
 32 36  1  0
 33 32  1  0
 34 35  1  0
 34 33  1  0
 35 31  1  0
 36 37  2  0
 37 38  1  0
 39 38  2  0
 40 39  1  0
 41 15  1  0
 41 46  1  0
 41 42  1  0
 42 45  1  1
 42 43  1  0
 44 42  1  0
 46 49  1  0
 47 51  1  0
 47 46  1  0
 48 47  2  0
 51 50  1  0
 53 51  1  0
 53 54  1  0
 53 52  1  0
 55  6  1  0
 56 55  1  0
 57  2  1  0
 57 58  1  0
 58 59  1  0
 59 60  1  0
 60 61  1  0
 61 64  1  0
 62 61  1  0
 63 61  1  0
 64 65  1  0
 65 67  1  0
 66 70  1  0
 66 68  2  0
 67 66  1  0
 69 67  1  0
 70 79  1  0
 71 79  1  0
 72 77  1  0
 73 74  1  0
 73 72  1  0
 75 74  1  0
 75 84  1  0
 75 76  1  0
 77 71  1  0
 77 76  1  0
 78 71  2  0
 79 80  1  0
 81 82  2  0
 82101  1  0
 83 82  1  0
 83 86  1  0
 84 85  1  0
 84 81  1  0
 85 83  2  0
 86 87  1  0
 87 88  2  0
 89 92  1  0
 89 88  1  0
 90 89  2  0
 91 90  1  0
 91 86  2  0
 92 93  1  0
 93 98  2  0
 93 94  1  0
 94 95  2  0
 95 96  1  0
 96100  1  0
 97 96  2  0
 98 97  1  0
 99 98  1  0
101102  1  0
102105  1  0
102104  1  0
103101  2  0
106107  1  0
106 81  1  0
108106  1  0
M  ISO  4  13 101  14 101  71 100  79 100
M  END
>  <TORSDO>  (62) 
F 31

>  <SCORE>  (62) 
-10.590

>  <name>  (62) 
67

>  <ligand_id>  (62) 
67

>  <original_smiles>  (62) 
[H]OC(=C([H])C(=O)N([H])C([H])([H])C([H])([H])C([H])([H])C([H])([H])[N+]([H])([H])C([H])([H])C([H])([H])N([H])C(=O)C([H])([H])N([H])C(=O)N1C([H])([H])C([H])([H])C([H])([H])C([H])(n2nc(-c3c([H])c([H])c(Oc4c([H])c([H])c(F)c([H])c4F)c([H])c3[H])c(C(=O)N([H])[H])c2N([H])[H])C1([H])[H])C([H])(C([H])([H])[H])[N+]([H])([H])C([H])([H])C([H])([H])Oc1c([H])c([H])c2c(c1[H])C([H])([H])N(C(=O)C([H])(N([H])C(=O)C([H])(N([H])C([H])([H])[H])C([H])([H])[H])C(C([H])([H])[H])(C([H])([H])[H])C([H])([H])[H])C([H])(C(=O)N([H])C1([H])c3c([H])c([H])c([H])c([H])c3C([H])([H])C([H])([H])C1([H])[H])C2([H])[H]

>  <smiles>  (62) 
[H]OC(=C([H])C(=O)N([H])C([H])([H])C([H])([H])C([H])([H])C([H])([H])[N+]([H])([H])C([H])([H])C([H])([H])N([H])C(=O)C([H])([H])N([H])C(=O)N1C([H])([H])C([H])([H])C([H])([H])C([H])(n2nc(-c3c([H])c([H])c(Oc4c([H])c([H])c(F)c([H])c4F)c([H])c3[H])c(C(=O)N([H])[H])c2N([H])[H])C1([H])[H])C([H])(C([H])([H])[H])[N+]([H])([H])C([H])([H])C([H])([H])Oc1c([H])c([H])c2c(c1[H])C([H])([H])N(C(=O)C([H])(N([H])C(=O)C([H])(N([H])C([H])([H])[H])C([H])([H])[H])C(C([H])([H])[H])(C([H])([H])[H])C([H])([H])[H])C([H])(C(=O)N([H])C1([H])c3c([H])c([H])c([H])c([H])c3C([H])([H])C([H])([H])C1([H])[H])C2([H])[H]

$$$$
70:0:0
     RDKit          3D

108114  0  0  1  0  0  0  0  0999 V2000
  -38.7200  -22.7010    4.0330 C   0  0  0  0  0  0  0  0  0  0  0  0
  -40.0130  -23.1260    4.2820 N   0  0  0  0  0  0  0  0  0  0  0  0
  -37.7840  -23.4930    4.1330 O   0  0  0  0  0  0  0  0  0  0  0  0
  -40.7470  -22.4360    4.1860 H   0  0  0  0  0  0  0  0  0  0  0  0
  -40.5170  -24.5270    4.6200 C   0  0  0  0  0  2  0  0  0  0  0  0
  -40.1880  -25.1600    6.0480 C   0  0  0  0  0  0  0  0  0  0  0  0
  -40.4020  -24.5000    7.2480 N   0  0  0  0  0  0  0  0  0  0  0  0
  -39.7320  -26.3050    6.0580 O   0  0  0  0  0  0  0  0  0  0  0  0
  -40.7520  -23.5510    7.2070 H   0  0  0  0  0  0  0  0  0  0  0  0
  -40.2130  -25.0880    8.6470 C   0  0  0  0  0  2  0  0  0  0  0  0
  -39.2040  -24.4430    9.7120 C   0  0  0  0  0  0  0  0  0  0  0  0
  -39.4280  -24.5320   10.9240 O   0  0  0  0  0  0  0  0  0  0  0  0
  -37.9040  -23.7020    9.1590 C   0  0  0  0  0  2  0  0  0  0  0  0
  -37.2950  -23.9520    7.7880 O   0  0  0  0  0  0  0  0  0  0  0  0
  -31.2770  -24.4330   11.6160 C   0  0  0  0  0  0  0  0  0  0  0  0
  -35.8970  -23.7900    7.7630 C   0  0  0  0  0  0  0  0  0  0  0  0
  -31.4430  -22.6130    9.9620 C   0  0  0  0  0  3  0  0  0  0  0  0
  -33.2210  -22.8980    8.1540 C   0  0  0  0  0  0  0  0  0  0  0  0
  -32.5880  -24.8700    9.5270 C   0  0  0  0  0  2  0  0  0  0  0  0
  -33.6230  -24.1260    8.6970 C   0  0  0  0  0  0  0  0  0  0  0  0
  -34.9640  -24.5860    8.5030 C   0  0  0  0  0  3  0  0  0  0  0  0
  -35.3770  -22.6670    7.0820 C   0  0  0  0  0  3  0  0  0  0  0  0
  -34.0870  -22.1840    7.3210 C   0  0  0  0  0  3  0  0  0  0  0  0
  -31.8370  -22.3850    8.4810 C   0  0  0  0  0  2  0  0  0  0  0  0
  -31.7750  -23.9990   10.4220 N   0  0  0  0  0  0  0  0  0  0  0  0
  -30.5430  -23.7140   12.3080 O   0  0  0  0  0  0  0  0  0  0  0  0
  -32.0810  -21.5090   10.8410 C   0  0  0  0  0  0  0  0  0  0  0  0
  -31.3330  -21.0290   11.8500 N   0  0  0  0  0  0  0  0  0  0  0  0
  -33.2160  -21.0890   10.5980 O   0  0  0  0  0  0  0  0  0  0  0  0
  -30.4170  -21.4300   11.9910 H   0  0  0  0  0  0  0  0  0  0  0  0
  -31.7170  -20.2250   15.3560 C   0  0  0  0  0  0  0  0  0  0  0  0
  -31.7240  -19.9710   12.7830 C   0  0  0  0  0  3  0  0  0  0  0  0
  -30.5780  -18.9530   12.9820 C   0  0  0  0  0  2  0  0  0  0  0  0
  -29.6830  -19.2800   14.1820 C   0  0  0  0  0  2  0  0  0  0  0  0
  -30.5050  -19.3150   15.4730 C   0  0  0  0  0  2  0  0  0  0  0  0
  -32.2790  -20.5450   14.0920 C   0  0  0  0  0  0  0  0  0  0  0  0
  -33.3830  -21.4230   14.0370 C   0  0  0  0  0  3  0  0  0  0  0  0
  -33.9240  -21.9750   15.2140 C   0  0  0  0  0  3  0  0  0  0  0  0
  -33.3720  -21.6430   16.4630 C   0  0  0  0  0  3  0  0  0  0  0  0
  -32.2730  -20.7670   16.5330 C   0  0  0  0  0  3  0  0  0  0  0  0
  -31.5890  -25.8630   12.1530 C   0  0  0  0  0  3  0  0  0  0  0  0
  -30.3550  -26.3870   12.7540 N   0  0  0  0  0  0  0  0  0  0  0  0
  -29.4240  -27.0890   12.0930 C   0  0  0  0  0  0  0  0  0  0  0  0
  -29.5530  -27.4240   10.9130 O   0  0  0  0  0  0  0  0  0  0  0  0
  -30.1560  -26.1010   13.7020 H   0  0  0  0  0  0  0  0  0  0  0  0
  -27.1420  -26.3180   12.8200 C   0  0  0  0  0  1  0  0  0  0  0  0
  -28.1480  -27.4800   12.8630 C   0  0  0  0  0  3  0  0  0  0  0  0
  -28.0090  -29.9280   12.9870 C   0  0  0  0  0  1  0  0  0  0  0  0
  -27.5070  -28.7120   12.3530 N   0  0  0  0  0  0  0  0  0  0  0  0
  -26.5000  -28.6760   12.4870 H   0  0  0  0  0  0  0  0  0  0  0  0
  -32.7710  -25.8870   13.1990 C   0  0  1  0  0  0  0  0  0  0  0  0
  -33.9430  -24.9470   12.8340 C   0  0  0  0  0  1  0  0  0  0  0  0
  -33.3440  -27.3150   13.3480 C   0  0  0  0  0  1  0  0  0  0  0  0
  -32.2420  -25.4740   14.5920 C   0  0  0  0  0  1  0  0  0  0  0  0
  -38.4090  -21.2420    3.4690 C   0  0  0  0  0  2  0  0  0  0  0  0
  -38.3470  -19.2340    5.2270 C   0  0  0  0  0  0  0  0  0  0  0  0
  -37.8340  -20.0720    4.2640 N   0  0  0  0  0  0  0  0  0  0  0  0
  -39.5630  -19.1490    5.3820 O   0  0  0  0  0  0  0  0  0  0  0  0
  -36.8280  -20.0000    4.1690 H   0  0  0  0  0  0  0  0  0  0  0  0
  -37.4050  -18.3960    6.2330 C   0  0  0  0  0  2  0  0  0  0  0  0
  -38.0660  -18.9440    8.8180 C   0  0  0  0  0  2  0  0  0  0  0  0
  -37.9140  -18.1690    7.6380 N   0  0  0  0  0  0  0  0  0  0  0  0
  -38.4790  -20.0860    8.5340 O   0  0  0  0  0  1  0  0  0  0  0  0
  -37.7740  -17.1980    7.8860 H   0  0  0  0  0  0  0  0  0  0  0  0
  -36.8140  -17.9500   11.6690 C   0  0  0  0  0  1  0  0  0  0  0  0
  -36.7170  -15.0230   13.1010 C   0  0  0  0  0  0  0  0  0  0  0  0
  -37.0560  -16.2770   12.3070 N   0  0  0  0  0  0  0  0  0  0  0  0
  -35.8070  -15.2230   13.9040 O   0  0  0  0  0  0  0  0  0  0  0  0
  -37.8720  -15.9720   11.7720 H   0  0  0  0  0  0  0  0  0  0  0  0
  -37.2680  -13.2280   13.1410 C   0  0  0  0  0  2  0  0  0  0  0  0
  -37.2550  -10.2040   14.2210 C   0  0  0  0  0  0  0  0  0  0  0  0
  -38.0600   -9.3630   12.3240 C   0  0  0  0  0  2  0  0  0  0  0  0
  -38.3920  -10.7450   11.7810 C   0  0  0  0  0  2  0  0  0  0  0  0
  -36.9910  -11.3170   11.3550 C   0  0  0  0  0  2  0  0  0  0  0  0
  -35.6510  -11.2530   12.3080 C   0  0  0  0  0  3  0  0  0  0  0  0
  -35.5390   -9.7930   12.5410 C   0  0  0  0  0  2  0  0  0  0  0  0
  -36.8640   -9.5390   13.1370 N   0  0  0  0  0  0  0  0  0  0  0  0
  -37.5280   -9.3450   15.1050 O   0  0  0  0  0  0  0  0  0  0  0  0
  -37.5640  -11.7190   14.0810 N   0  0  0  0  0  0  0  0  0  0  0  0
  -38.0650  -11.9840   14.9170 H   0  0  0  0  0  0  0  0  0  0  0  0
  -33.7410  -12.9780   12.8150 C   0  0  0  0  0  0  0  0  0  0  0  0
  -33.1310  -13.7730   11.9030 C   0  0  0  0  0  0  0  0  0  0  0  0
  -33.7580  -13.3530   10.7610 C   0  0  0  0  0  0  0  0  0  0  0  0
  -34.5830  -12.1310   12.0530 N   0  0  0  0  0  0  0  0  0  0  0  0
  -34.5070  -12.3280   10.7970 N   0  0  0  0  0  0  0  0  0  0  0  0
  -33.9010  -13.9610    9.6310 C   0  0  0  0  0  0  0  0  0  0  0  0
  -34.8630  -15.4420    9.6200 C   0  0  0  0  0  3  0  0  0  0  0  0
  -35.0020  -16.2990    8.1620 C   0  0  0  0  0  3  0  0  0  0  0  0
  -34.2180  -15.7820    6.7720 C   0  0  0  0  0  0  0  0  0  0  0  0
  -33.2280  -14.4200    6.7740 C   0  0  0  0  0  3  0  0  0  0  0  0
  -33.0460  -13.4680    8.1770 C   0  0  0  0  0  3  0  0  0  0  0  0
  -34.6690  -16.1690    5.5130 O   0  0  0  0  0  0  0  0  0  0  0  0
  -35.1840  -15.3080    4.5410 C   0  0  0  0  0  0  0  0  0  0  0  0
  -34.5810  -15.0170    3.2860 C   0  0  0  0  0  3  0  0  0  0  0  0
  -35.2390  -14.1970    2.3360 C   0  0  0  0  0  3  0  0  0  0  0  0
  -36.5130  -13.6670    2.6190 C   0  0  0  0  0  0  0  0  0  0  0  0
  -37.1290  -13.9740    3.8430 C   0  0  0  0  0  3  0  0  0  0  0  0
  -36.4720  -14.7910    4.7830 C   0  0  0  0  0  0  0  0  0  0  0  0
  -37.0960  -15.1040    5.9420 F   0  0  0  0  0  0  0  0  0  0  0  0
  -37.1480  -12.8720    1.7230 F   0  0  0  0  0  0  0  0  0  0  0  0
  -32.1580  -14.9090   12.0230 C   0  0  0  0  0  0  0  0  0  0  0  0
  -31.0600  -14.8910   11.2690 N   0  0  0  0  0  0  0  0  0  0  0  0
  -32.3160  -15.8060   12.8300 O   0  0  0  0  0  0  0  0  0  0  0  0
  -30.9330  -14.2110   10.5330 H   0  0  0  0  0  0  0  0  0  0  0  0
  -30.4150  -15.6670   11.3310 H   0  0  0  0  0  0  0  0  0  0  0  0
  -33.6690  -12.9560   14.1940 N   0  0  0  0  0  0  0  0  0  0  0  0
  -33.0400  -13.5540   14.7140 H   0  0  0  0  0  0  0  0  0  0  0  0
  -34.1200  -12.2570   14.7730 H   0  0  0  0  0  0  0  0  0  0  0  0
  1  3  2  0
  1  2  1  0
  2  5  1  0
  4  2  1  0
  5  6  1  0
  6  8  2  0
  6  7  1  0
  7 10  1  0
  9  7  1  0
 10 11  1  0
 11 12  2  0
 13 11  1  0
 14 13  1  0
 15 26  2  0
 16 14  1  0
 16 21  1  0
 17 25  1  0
 17 27  1  0
 18 24  1  0
 18 20  1  0
 19 25  1  0
 20 19  1  0
 21 20  2  0
 22 23  1  0
 22 16  2  0
 23 18  2  0
 24 17  1  0
 25 15  1  0
 27 28  1  0
 28 30  1  0
 29 27  2  0
 31 35  1  0
 31 40  1  0
 32 28  1  0
 32 33  1  0
 32 36  1  0
 33 34  1  0
 34 35  1  0
 36 31  2  0
 37 36  1  0
 37 38  2  0
 38 39  1  0
 39 40  2  0
 41 15  1  0
 41 42  1  0
 41 51  1  0
 42 45  1  0
 43 42  1  0
 43 47  1  0
 44 43  2  0
 47 46  1  0
 49 50  1  0
 49 47  1  0
 49 48  1  0
 51 53  1  1
 51 54  1  0
 52 51  1  0
 55  1  1  0
 55 57  1  0
 56 58  2  0
 56 60  1  0
 57 56  1  0
 59 57  1  0
 60 62  1  0
 62 64  1  0
 62 61  1  0
 63 61  1  0
 65 67  1  0
 66 70  1  0
 66 68  2  0
 67 66  1  0
 69 67  1  0
 70 79  1  0
 71 78  2  0
 72 77  1  0
 73 72  1  0
 74 73  1  0
 75 74  1  0
 75 76  1  0
 76 77  1  0
 77 71  1  0
 79 71  1  0
 79 80  1  0
 81106  1  0
 82101  1  0
 82 81  2  0
 83 85  2  0
 83 82  1  0
 84 75  1  0
 84 81  1  0
 85 84  1  0
 86 83  1  0
 87 86  1  0
 88 87  2  0
 89 90  2  0
 89 88  1  0
 90 91  1  0
 91 86  2  0
 92 89  1  0
 93 98  1  0
 93 92  1  0
 94 93  2  0
 95 96  2  0
 95 94  1  0
 96 97  1  0
 97 98  2  0
 98 99  1  0
100 96  1  0
101103  2  0
102105  1  0
102101  1  0
104102  1  0
106107  1  0
106108  1  0
M  ISO  4  13 101  14 101  71 100  79 100
M  END
>  <TORSDO>  (63) 
F 28

>  <SCORE>  (63) 
-1.771

>  <name>  (63) 
70

>  <ligand_id>  (63) 
70

>  <original_smiles>  (63) 
[H]c1c([H])c([H])c2c(c1[H])C([H])([H])C([H])([H])C([H])([H])C2([H])N([H])C(=O)C1([H])N(C(=O)C([H])(N([H])C(=O)C([H])(N([H])C([H])([H])[H])C([H])([H])[H])C(C([H])([H])[H])(C([H])([H])[H])C([H])([H])[H])C([H])([H])c2c([H])c(OC([H])([H])C(=O)C([H])([H])N([H])C(=O)C([H])([H])N([H])C(=O)C([H])([H])N([H])C(=O)C([H])([H])N([H])C(=O)C([H])([H])N([H])C(=O)C([H])([H])N([H])C(=O)N3C([H])([H])C([H])([H])C([H])([H])C([H])(n4nc(-c5c([H])c([H])c(Oc6c([H])c([H])c(F)c([H])c6F)c([H])c5[H])c(C(=O)N([H])[H])c4N([H])[H])C3([H])[H])c([H])c([H])c2C1([H])[H]

>  <smiles>  (63) 
[H]c1c([H])c([H])c2c(c1[H])C([H])([H])C([H])([H])C([H])([H])C2([H])N([H])C(=O)C1([H])N(C(=O)C([H])(N([H])C(=O)C([H])(N([H])C([H])([H])[H])C([H])([H])[H])C(C([H])([H])[H])(C([H])([H])[H])C([H])([H])[H])C([H])([H])c2c([H])c(OC([H])([H])C(=O)C([H])([H])N([H])C(=O)C([H])([H])N([H])C(=O)C([H])([H])N([H])C(=O)C([H])([H])N([H])C(=O)C([H])([H])N([H])C(=O)C([H])([H])N([H])C(=O)N3C([H])([H])C([H])([H])C([H])([H])C([H])(n4nc(-c5c([H])c([H])c(Oc6c([H])c([H])c(F)c([H])c6F)c([H])c5[H])c(C(=O)N([H])[H])c4N([H])[H])C3([H])[H])c([H])c([H])c2C1([H])[H]

$$$$
71:0:0
     RDKit          3D

103111  0  0  1  0  0  0  0  0999 V2000
  -24.8730  -21.7480   22.9990 C   0  0  0  0  0  0  0  0  0  0  0  0
  -25.3770  -22.8860   23.4900 N   0  0  0  0  0  0  0  0  0  0  0  0
  -23.7380  -21.6840   22.5190 O   0  0  0  0  0  0  0  0  0  0  0  0
  -26.3250  -22.8720   23.8450 H   0  0  0  0  0  0  0  0  0  0  0  0
  -24.7310  -24.1930   23.3380 C   0  0  0  0  0  2  0  0  0  0  0  0
  -25.5140  -25.0540   22.3380 C   0  0  0  0  0  3  0  0  0  0  0  0
  -26.7010  -25.3420   22.5320 O   0  0  0  0  0  0  0  0  0  0  0  0
  -24.7810  -25.4940   21.0700 C   0  0  0  0  0  2  0  0  0  0  0  0
  -25.7710  -25.8090   20.0140 N   0  0  0  0  0  4  0  0  0  0  0  0
  -26.2180  -24.9420   19.7540 H   0  0  0  0  0  0  0  0  0  0  0  0
  -26.4850  -26.3900   20.4270 H   0  0  0  0  0  0  0  0  0  0  0  0
  -25.1610  -26.4650   18.8300 C   0  0  0  0  0  2  0  0  0  0  0  0
  -26.1620  -27.2430   17.9350 C   0  0  0  0  0  2  0  0  0  0  0  0
  -25.9630  -28.6650   17.9590 O   0  0  0  0  0  0  0  0  0  0  0  0
  -25.0670  -28.6010   25.0170 C   0  0  0  0  0  0  0  0  0  0  0  0
  -25.2460  -29.1170   19.0380 C   0  0  0  0  0  0  0  0  0  0  0  0
  -23.1570  -29.4320   23.6790 C   0  0  0  0  0  3  0  0  0  0  0  0
  -23.6510  -29.9000   21.2210 C   0  0  0  0  0  0  0  0  0  0  0  0
  -25.5540  -29.6670   22.8240 C   0  0  0  0  0  2  0  0  0  0  0  0
  -25.0000  -29.5790   21.4210 C   0  0  0  0  0  0  0  0  0  0  0  0
  -25.8060  -29.1800   20.3330 C   0  0  0  0  0  3  0  0  0  0  0  0
  -23.8960  -29.4680   18.8440 C   0  0  0  0  0  3  0  0  0  0  0  0
  -23.0890  -29.8440   19.9340 C   0  0  0  0  0  3  0  0  0  0  0  0
  -22.8540  -30.3150   22.4380 C   0  0  0  0  0  2  0  0  0  0  0  0
  -24.6240  -29.1850   23.8680 N   0  0  0  0  0  0  0  0  0  0  0  0
  -24.2830  -28.3030   25.9280 O   0  0  0  0  0  0  0  0  0  0  0  0
  -22.3270  -28.1340   23.5730 C   0  0  0  0  0  0  0  0  0  0  0  0
  -21.0210  -28.2810   23.2990 N   0  0  0  0  0  0  0  0  0  0  0  0
  -22.8630  -27.0300   23.7070 O   0  0  0  0  0  0  0  0  0  0  0  0
  -20.6620  -29.2200   23.2040 H   0  0  0  0  0  0  0  0  0  0  0  0
  -17.7120  -27.5090   22.0690 C   0  0  0  0  0  0  0  0  0  0  0  0
  -20.0530  -27.2020   23.1210 C   0  0  0  0  0  3  0  0  0  0  0  0
  -20.3880  -26.3560   21.8720 C   0  0  0  0  0  2  0  0  0  0  0  0
  -19.6630  -26.8380   20.6110 C   0  0  0  0  0  2  0  0  0  0  0  0
  -18.1460  -26.7740   20.8130 C   0  0  0  0  0  2  0  0  0  0  0  0
  -18.6130  -27.7270   23.1460 C   0  0  0  0  0  0  0  0  0  0  0  0
  -18.1710  -28.4510   24.2730 C   0  0  0  0  0  3  0  0  0  0  0  0
  -16.8550  -28.9460   24.3410 C   0  0  0  0  0  3  0  0  0  0  0  0
  -15.9600  -28.7110   23.2810 C   0  0  0  0  0  3  0  0  0  0  0  0
  -16.3900  -27.9950   22.1490 C   0  0  0  0  0  3  0  0  0  0  0  0
  -26.5810  -28.2990   25.2490 C   0  0  0  0  0  3  0  0  0  0  0  0
  -26.9650  -28.9170   26.5240 N   0  0  0  0  0  0  0  0  0  0  0  0
  -27.6880  -30.0400   26.6350 C   0  0  0  0  0  0  0  0  0  0  0  0
  -28.1700  -30.6280   25.6620 O   0  0  0  0  0  0  0  0  0  0  0  0
  -26.5620  -28.5210   27.3600 H   0  0  0  0  0  0  0  0  0  0  0  0
  -26.9610  -31.7790   28.2980 C   0  0  0  0  0  1  0  0  0  0  0  0
  -27.9140  -30.5990   28.0520 C   0  0  0  0  0  3  0  0  0  0  0  0
  -30.2490  -29.9090   28.3530 C   0  0  0  0  0  1  0  0  0  0  0  0
  -29.3080  -31.0230   28.3030 N   0  0  0  0  0  0  0  0  0  0  0  0
  -29.3780  -31.5340   29.1790 H   0  0  0  0  0  0  0  0  0  0  0  0
  -26.9150  -26.7560   25.2520 C   0  0  1  0  0  0  0  0  0  0  0  0
  -25.9990  -25.9280   26.1820 C   0  0  0  0  0  1  0  0  0  0  0  0
  -26.7960  -26.1680   23.8250 C   0  0  0  0  0  2  0  0  0  0  0  0
  -28.3790  -26.5370   25.7010 C   0  0  0  0  0  1  0  0  0  0  0  0
  -25.7790  -20.5130   22.9940 C   0  0  0  0  0  2  0  0  0  0  0  0
  -26.1880  -20.3740   20.5490 C   0  0  0  0  0  0  0  0  0  0  0  0
  -25.7290  -19.8500   21.6910 N   0  0  0  0  0  0  0  0  0  0  0  0
  -26.7840  -21.4530   20.5030 O   0  0  0  0  0  0  0  0  0  0  0  0
  -25.2550  -18.9600   21.6440 H   0  0  0  0  0  0  0  0  0  0  0  0
  -25.9420  -19.5740   19.2650 C   0  0  0  0  0  2  0  0  0  0  0  0
  -27.8050  -17.9690   19.3760 C   0  0  0  0  0  0  0  0  0  0  0  0
  -27.1660  -18.9630   18.7550 N   0  0  0  0  0  0  0  0  0  0  0  0
  -27.4070  -17.4970   20.4450 O   0  0  0  0  0  0  0  0  0  0  0  0
  -27.5450  -19.3260   17.8900 H   0  0  0  0  0  0  0  0  0  0  0  0
  -29.0460  -17.3790   18.7120 C   0  0  0  0  0  2  0  0  0  0  0  0
  -30.1310  -15.2110   19.1480 C   0  0  0  0  0  0  0  0  0  0  0  0
  -30.6660  -12.8700   19.6930 C   0  0  0  0  0  2  0  0  0  0  0  0
  -29.9420  -11.8780   18.7680 C   0  0  0  0  0  2  0  0  0  0  0  0
  -28.5370  -11.5530   19.3050 C   0  0  0  0  0  2  0  0  0  0  0  0
  -27.7260  -12.8310   19.6420 C   0  0  0  0  0  3  0  0  0  0  0  0
  -28.5630  -13.7940   20.5140 C   0  0  0  0  0  2  0  0  0  0  0  0
  -29.8450  -14.0780   19.8330 N   0  0  0  0  0  0  0  0  0  0  0  0
  -30.9960  -15.2940   18.2700 O   0  0  0  0  0  0  0  0  0  0  0  0
  -29.4590  -16.2790   19.5670 N   0  0  0  0  0  0  0  0  0  0  0  0
  -28.8430  -16.1250   20.3540 H   0  0  0  0  0  0  0  0  0  0  0  0
  -25.4950  -13.3350   20.8380 C   0  0  0  0  0  0  0  0  0  0  0  0
  -24.4640  -12.5220   21.2300 C   0  0  0  0  0  0  0  0  0  0  0  0
  -24.8520  -11.1950   20.8710 C   0  0  0  0  0  0  0  0  0  0  0  0
  -26.4510  -12.4960   20.2800 N   0  0  0  0  0  0  0  0  0  0  0  0
  -26.0720  -11.1950   20.3500 N   0  0  0  0  0  0  0  0  0  0  0  0
  -24.1080   -9.9290   20.9450 C   0  0  0  0  0  0  0  0  0  0  0  0
  -24.3760   -8.9710   21.9480 C   0  0  0  0  0  3  0  0  0  0  0  0
  -23.6370   -7.7690   22.0080 C   0  0  0  0  0  3  0  0  0  0  0  0
  -22.6170   -7.5180   21.0600 C   0  0  0  0  0  0  0  0  0  0  0  0
  -22.3700   -8.4630   20.0480 C   0  0  0  0  0  3  0  0  0  0  0  0
  -23.1110   -9.6570   19.9880 C   0  0  0  0  0  3  0  0  0  0  0  0
  -21.8660   -6.3690   21.0230 O   0  0  0  0  0  0  0  0  0  0  0  0
  -21.2990   -5.8420   22.1560 C   0  0  0  0  0  0  0  0  0  0  0  0
  -20.3490   -6.5590   22.9150 C   0  0  0  0  0  3  0  0  0  0  0  0
  -19.7390   -5.9550   24.0320 C   0  0  0  0  0  3  0  0  0  0  0  0
  -20.0720   -4.6340   24.3890 C   0  0  0  0  0  0  0  0  0  0  0  0
  -21.0140   -3.9170   23.6300 C   0  0  0  0  0  3  0  0  0  0  0  0
  -21.6240   -4.5190   22.5160 C   0  0  0  0  0  0  0  0  0  0  0  0
  -22.5160   -3.8160   21.7770 F   0  0  0  0  0  0  0  0  0  0  0  0
  -19.4810   -4.0500   25.4560 F   0  0  0  0  0  0  0  0  0  0  0  0
  -23.1530  -12.9580   21.8170 C   0  0  0  0  0  0  0  0  0  0  0  0
  -22.5740  -12.1480   22.6960 N   0  0  0  0  0  0  0  0  0  0  0  0
  -22.6570  -14.0480   21.5360 O   0  0  0  0  0  0  0  0  0  0  0  0
  -22.9890  -11.2620   22.9450 H   0  0  0  0  0  0  0  0  0  0  0  0
  -21.7040  -12.4180   23.1300 H   0  0  0  0  0  0  0  0  0  0  0  0
  -25.6920  -14.7100   20.8940 N   0  0  0  0  0  0  0  0  0  0  0  0
  -24.9870  -15.3450   21.2460 H   0  0  0  0  0  0  0  0  0  0  0  0
  -26.5410  -15.1710   20.5930 H   0  0  0  0  0  0  0  0  0  0  0  0
  1  2  1  0
  2  4  1  0
  3  1  2  0
  5  2  1  0
  6  7  1  0
  6  5  1  0
  7 53  1  0
  8  6  1  0
  9 11  1  0
  9  8  1  0
 10  9  1  0
 12  9  1  0
 13 14  1  0
 13 12  1  0
 14 16  1  0
 15 41  1  0
 15 26  2  0
 16 21  1  0
 17 27  1  0
 17 25  1  0
 18 20  1  0
 18 24  1  0
 19 25  1  0
 20 19  1  0
 21 20  2  0
 22 16  2  0
 22 23  1  0
 23 18  2  0
 24 17  1  0
 25 15  1  0
 27 29  2  0
 28 27  1  0
 30 28  1  0
 31 40  2  0
 31 36  1  0
 32 36  1  0
 32 28  1  0
 33 32  1  0
 34 35  1  0
 34 33  1  0
 35 31  1  0
 36 37  2  0
 37 38  1  0
 39 38  2  0
 40 39  1  0
 41 51  1  0
 41 42  1  0
 42 43  1  0
 42 45  1  0
 43 47  1  0
 44 43  2  0
 47 46  1  0
 47 49  1  0
 49 48  1  0
 49 50  1  0
 51 54  1  1
 51 52  1  0
 53 51  1  0
 55  1  1  0
 56 57  1  0
 57 55  1  0
 58 56  2  0
 59 57  1  0
 60 56  1  0
 61 63  2  0
 62 60  1  0
 62 61  1  0
 64 62  1  0
 65 61  1  0
 65 74  1  0
 66 74  1  0
 66 72  1  0
 67 72  1  0
 68 69  1  0
 68 67  1  0
 70 69  1  0
 70 79  1  0
 70 71  1  0
 72 71  1  0
 73 66  2  0
 74 75  1  0
 76101  1  0
 76 77  2  0
 77 96  1  0
 78 81  1  0
 78 77  1  0
 79 80  1  0
 79 76  1  0
 80 78  2  0
 81 82  1  0
 82 83  2  0
 84 83  1  0
 85 84  2  0
 86 85  1  0
 86 81  2  0
 87 84  1  0
 87 88  1  0
 88 93  2  0
 88 89  1  0
 89 90  2  0
 90 91  1  0
 91 95  1  0
 92 91  2  0
 93 92  1  0
 94 93  1  0
 96 97  1  0
 97 99  1  0
 97100  1  0
 98 96  2  0
101102  1  0
103101  1  0
M  ISO  4  13 101  14 101  66 100  74 100
M  END
>  <TORSDO>  (64) 
F 27

>  <SCORE>  (64) 
23.320

>  <name>  (64) 
71

>  <ligand_id>  (64) 
71

>  <original_smiles>  (64) 
[H]c1c([H])c([H])c2c(c1[H])C([H])([H])C([H])([H])C([H])([H])C2([H])N([H])C(=O)C1([H])N(C(=O)C([H])(N([H])C(=O)C([H])(N([H])C([H])([H])[H])C([H])([H])[H])C(C([H])([H])[H])(C([H])([H])[H])C([H])([H])[H])C([H])([H])c2c([H])c(OC([H])([H])C([H])([H])[N+]([H])([H])C([H])([H])C(=O)C([H])([H])N([H])C(=O)C([H])([H])N([H])C(=O)C([H])([H])N([H])C(=O)C([H])([H])N([H])C(=O)N3C([H])([H])C([H])([H])C([H])([H])C([H])(n4nc(-c5c([H])c([H])c(Oc6c([H])c([H])c(F)c([H])c6F)c([H])c5[H])c(C(=O)N([H])[H])c4N([H])[H])C3([H])[H])c([H])c([H])c2C1([H])[H]

>  <smiles>  (64) 
[H]c1c([H])c([H])c2c(c1[H])C([H])([H])C([H])([H])C([H])([H])C2([H])N([H])C(=O)C1([H])N(C(=O)C([H])(N([H])C(=O)C([H])(N([H])C([H])([H])[H])C([H])([H])[H])C(C([H])([H])[H])(C([H])([H])[H])C([H])([H])[H])C([H])([H])c2c([H])c(OC([H])([H])C([H])([H])[N+]([H])([H])C([H])([H])C(=O)C([H])([H])N([H])C(=O)C([H])([H])N([H])C(=O)C([H])([H])N([H])C(=O)C([H])([H])N([H])C(=O)N3C([H])([H])C([H])([H])C([H])([H])C([H])(n4nc(-c5c([H])c([H])c(Oc6c([H])c([H])c(F)c([H])c6F)c([H])c5[H])c(C(=O)N([H])[H])c4N([H])[H])C3([H])[H])c([H])c([H])c2C1([H])[H]

$$$$
72:0:0
     RDKit          3D

105112  0  0  1  0  0  0  0  0999 V2000
  -26.0910  -23.9270   25.9640 C   0  0  0  0  0  0  0  0  0  0  0  0
  -26.2300  -25.2540   25.8250 N   0  0  0  0  0  0  0  0  0  0  0  0
  -25.8590  -23.3950   27.0510 O   0  0  0  0  0  0  0  0  0  0  0  0
  -26.2840  -25.6080   24.8800 H   0  0  0  0  0  0  0  0  0  0  0  0
  -26.1090  -26.2340   26.9060 C   0  0  0  0  0  2  0  0  0  0  0  0
  -27.2930  -26.2100   27.9030 C   0  0  0  0  0  2  0  0  0  0  0  0
  -28.6210  -26.8470   27.4350 C   0  0  0  0  0  2  0  0  0  0  0  0
  -29.3350  -26.1390   26.2620 C   0  0  0  0  0  2  0  0  0  0  0  0
  -29.1160  -26.8570   24.9880 N   0  0  0  0  0  4  0  0  0  0  0  0
  -29.7540  -27.6380   24.9500 H   0  0  0  0  0  0  0  0  0  0  0  0
  -28.1810  -27.2270   25.0010 H   0  0  0  0  0  0  0  0  0  0  0  0
  -29.2740  -26.0420   23.7640 C   0  0  0  0  0  2  0  0  0  0  0  0
  -28.8540  -26.8430   22.5200 C   0  0  0  0  0  2  0  0  0  0  0  0
  -28.6790  -25.9950   21.2420 C   0  0  0  0  0  2  0  0  0  0  0  0
  -28.4200  -26.7740   20.0710 O   0  0  0  0  0  0  0  0  0  0  0  0
  -24.6100  -31.8700   23.2110 C   0  0  0  0  0  0  0  0  0  0  0  0
  -27.2480  -27.4880   20.0910 C   0  0  0  0  0  0  0  0  0  0  0  0
  -23.3950  -30.4920   21.5510 C   0  0  0  0  0  3  0  0  0  0  0  0
  -24.8430  -28.9590   20.1160 C   0  0  0  0  0  0  0  0  0  0  0  0
  -25.9130  -30.8600   21.3460 C   0  0  0  0  0  2  0  0  0  0  0  0
  -25.9980  -29.4950   20.6980 C   0  0  0  0  0  0  0  0  0  0  0  0
  -27.2060  -28.7740   20.6700 C   0  0  0  0  0  3  0  0  0  0  0  0
  -26.0850  -26.9540   19.5020 C   0  0  0  0  0  3  0  0  0  0  0  0
  -24.8800  -27.6860   19.5120 C   0  0  0  0  0  3  0  0  0  0  0  0
  -23.5990  -29.8160   20.1670 C   0  0  0  0  0  2  0  0  0  0  0  0
  -24.6580  -31.0860   22.0960 N   0  0  0  0  0  0  0  0  0  0  0  0
  -23.5310  -32.1420   23.7560 O   0  0  0  0  0  0  0  0  0  0  0  0
  -22.7380  -29.4670   22.5010 C   0  0  0  0  0  0  0  0  0  0  0  0
  -21.4110  -29.3030   22.3760 N   0  0  0  0  0  0  0  0  0  0  0  0
  -23.4190  -28.8220   23.3030 O   0  0  0  0  0  0  0  0  0  0  0  0
  -20.9250  -29.8790   21.7020 H   0  0  0  0  0  0  0  0  0  0  0  0
  -18.0270  -28.1360   22.8490 C   0  0  0  0  0  0  0  0  0  0  0  0
  -20.5850  -28.3650   23.1340 C   0  0  0  0  0  3  0  0  0  0  0  0
  -20.6750  -26.9380   22.5420 C   0  0  0  0  0  2  0  0  0  0  0  0
  -19.5740  -26.6380   21.5200 C   0  0  0  0  0  2  0  0  0  0  0  0
  -18.1920  -26.7910   22.1620 C   0  0  0  0  0  2  0  0  0  0  0  0
  -19.1510  -28.8820   23.2920 C   0  0  0  0  0  0  0  0  0  0  0  0
  -18.9430  -30.1430   23.8930 C   0  0  0  0  0  3  0  0  0  0  0  0
  -17.6430  -30.6580   24.0550 C   0  0  0  0  0  3  0  0  0  0  0  0
  -16.5330  -29.9070   23.6310 C   0  0  0  0  0  3  0  0  0  0  0  0
  -16.7260  -28.6480   23.0340 C   0  0  0  0  0  3  0  0  0  0  0  0
  -25.9000  -32.4850   23.8390 C   0  0  0  0  0  3  0  0  0  0  0  0
  -25.5840  -33.8650   24.2320 N   0  0  0  0  0  0  0  0  0  0  0  0
  -25.9050  -34.9490   23.5140 C   0  0  0  0  0  0  0  0  0  0  0  0
  -26.5640  -34.8920   22.4720 O   0  0  0  0  0  0  0  0  0  0  0  0
  -24.9870  -33.9810   25.0380 H   0  0  0  0  0  0  0  0  0  0  0  0
  -24.1510  -36.7310   23.2630 C   0  0  0  0  0  1  0  0  0  0  0  0
  -25.4130  -36.3120   24.0350 C   0  0  0  0  0  3  0  0  0  0  0  0
  -27.5590  -37.1800   24.8480 C   0  0  0  0  0  1  0  0  0  0  0  0
  -26.4310  -37.3790   23.9420 N   0  0  0  0  0  0  0  0  0  0  0  0
  -26.0180  -38.2870   24.1390 H   0  0  0  0  0  0  0  0  0  0  0  0
  -26.4470  -31.6610   25.0670 C   0  0  1  0  0  0  0  0  0  0  0  0
  -25.3770  -31.3700   26.1470 C   0  0  0  0  0  1  0  0  0  0  0  0
  -27.0220  -30.3050   24.5970 C   0  0  0  0  0  1  0  0  0  0  0  0
  -27.6110  -32.4310   25.7370 C   0  0  0  0  0  1  0  0  0  0  0  0
  -26.2470  -23.0690   24.7010 C   0  0  0  0  0  2  0  0  0  0  0  0
  -26.8840  -21.6980   25.0030 C   0  0  0  0  0  2  0  0  0  0  0  0
  -28.1480  -19.9750   23.7600 C   0  0  0  0  0  0  0  0  0  0  0  0
  -27.2910  -21.0000   23.7830 N   0  0  0  0  0  0  0  0  0  0  0  0
  -28.6550  -19.5150   24.7890 O   0  0  0  0  0  0  0  0  0  0  0  0
  -26.9020  -21.3090   22.9010 H   0  0  0  0  0  0  0  0  0  0  0  0
  -28.5000  -19.3890   22.3900 C   0  0  0  0  0  2  0  0  0  0  0  0
  -29.7240  -17.3180   21.7620 C   0  0  0  0  0  0  0  0  0  0  0  0
  -29.5320  -18.3730   22.5530 N   0  0  0  0  0  0  0  0  0  0  0  0
  -29.0800  -17.1370   20.7270 O   0  0  0  0  0  0  0  0  0  0  0  0
  -30.0480  -18.4300   23.4220 H   0  0  0  0  0  0  0  0  0  0  0  0
  -30.7910  -16.3170   22.2080 C   0  0  0  0  0  2  0  0  0  0  0  0
  -30.7730  -14.3210   20.7230 C   0  0  0  0  0  0  0  0  0  0  0  0
  -30.4150  -12.2810   19.3810 C   0  0  0  0  0  2  0  0  0  0  0  0
  -29.4830  -12.5530   18.1870 C   0  0  0  0  0  2  0  0  0  0  0  0
  -28.0080  -12.3930   18.6010 C   0  0  0  0  0  2  0  0  0  0  0  0
  -27.6690  -13.1980   19.8830 C   0  0  0  0  0  3  0  0  0  0  0  0
  -28.7040  -12.9130   20.9930 C   0  0  0  0  0  2  0  0  0  0  0  0
  -30.0540  -13.1990   20.4680 N   0  0  0  0  0  0  0  0  0  0  0  0
  -31.7440  -14.6830   20.0520 O   0  0  0  0  0  0  0  0  0  0  0  0
  -30.3890  -14.9700   21.8240 N   0  0  0  0  0  0  0  0  0  0  0  0
  -29.6070  -14.5730   22.3200 H   0  0  0  0  0  0  0  0  0  0  0  0
  -25.2620  -13.8150   20.5660 C   0  0  0  0  0  0  0  0  0  0  0  0
  -24.1860  -13.0440   20.9130 C   0  0  0  0  0  0  0  0  0  0  0  0
  -24.6400  -11.6890   20.8690 C   0  0  0  0  0  0  0  0  0  0  0  0
  -26.3070  -12.9310   20.3380 N   0  0  0  0  0  0  0  0  0  0  0  0
  -25.9330  -11.6460   20.5730 N   0  0  0  0  0  0  0  0  0  0  0  0
  -23.9060  -10.4290   21.0370 C   0  0  0  0  0  0  0  0  0  0  0  0
  -24.3610   -9.4210   21.9150 C   0  0  0  0  0  3  0  0  0  0  0  0
  -23.6290   -8.2240   22.0750 C   0  0  0  0  0  3  0  0  0  0  0  0
  -22.4270   -8.0280   21.3540 C   0  0  0  0  0  0  0  0  0  0  0  0
  -21.9890   -9.0240   20.4640 C   0  0  0  0  0  3  0  0  0  0  0  0
  -22.7220  -10.2120   20.3030 C   0  0  0  0  0  3  0  0  0  0  0  0
  -21.6640   -6.8870   21.4230 O   0  0  0  0  0  0  0  0  0  0  0  0
  -21.6850   -6.0730   22.5270 C   0  0  0  0  0  0  0  0  0  0  0  0
  -21.4020   -6.5640   23.8200 C   0  0  0  0  0  3  0  0  0  0  0  0
  -21.3660   -5.6790   24.9170 C   0  0  0  0  0  3  0  0  0  0  0  0
  -21.6040   -4.3050   24.7220 C   0  0  0  0  0  0  0  0  0  0  0  0
  -21.8820   -3.8140   23.4340 C   0  0  0  0  0  3  0  0  0  0  0  0
  -21.9190   -4.6960   22.3400 C   0  0  0  0  0  0  0  0  0  0  0  0
  -22.1660   -4.2140   21.0970 F   0  0  0  0  0  0  0  0  0  0  0  0
  -21.5630   -3.4540   25.7730 F   0  0  0  0  0  0  0  0  0  0  0  0
  -22.7880  -13.5230   21.1810 C   0  0  0  0  0  0  0  0  0  0  0  0
  -22.0550  -12.8210   22.0380 N   0  0  0  0  0  0  0  0  0  0  0  0
  -22.3560  -14.5540   20.6670 O   0  0  0  0  0  0  0  0  0  0  0  0
  -22.4180  -11.9860   22.4730 H   0  0  0  0  0  0  0  0  0  0  0  0
  -21.1180  -13.1240   22.2640 H   0  0  0  0  0  0  0  0  0  0  0  0
  -25.4380  -15.1870   20.4100 N   0  0  0  0  0  0  0  0  0  0  0  0
  -24.6770  -15.8490   20.5230 H   0  0  0  0  0  0  0  0  0  0  0  0
  -26.3130  -15.6250   20.1490 H   0  0  0  0  0  0  0  0  0  0  0  0
  1  3  2  0
  2  1  1  0
  2  5  1  0
  4  2  1  0
  5  6  1  0
  7  6  1  0
  8  7  1  0
  9 11  1  0
  9  8  1  0
 10  9  1  0
 12  9  1  0
 13 12  1  0
 14 13  1  0
 15 17  1  0
 15 14  1  0
 16 27  2  0
 17 22  1  0
 18 26  1  0
 18 28  1  0
 19 25  1  0
 19 21  1  0
 20 26  1  0
 21 20  1  0
 22 21  2  0
 23 24  1  0
 23 17  2  0
 24 19  2  0
 25 18  1  0
 26 16  1  0
 28 30  2  0
 29 28  1  0
 31 29  1  0
 32 41  2  0
 32 37  1  0
 33 29  1  0
 33 37  1  0
 34 33  1  0
 35 36  1  0
 35 34  1  0
 36 32  1  0
 37 38  2  0
 38 39  1  0
 40 39  2  0
 41 40  1  0
 42 16  1  0
 42 43  1  0
 42 52  1  0
 43 46  1  0
 44 48  1  0
 44 43  1  0
 45 44  2  0
 48 47  1  0
 50 48  1  0
 50 51  1  0
 50 49  1  0
 52 55  1  1
 52 53  1  0
 54 52  1  0
 56 57  1  0
 56  1  1  0
 58 59  1  0
 58 60  2  0
 59 57  1  0
 61 59  1  0
 62 64  1  0
 62 58  1  0
 63 67  1  0
 63 64  1  0
 64 66  1  0
 65 63  2  0
 68 76  1  0
 69 74  1  0
 70 71  1  0
 70 69  1  0
 72 71  1  0
 72 81  1  0
 72 73  1  0
 74 68  1  0
 74 73  1  0
 75 68  2  0
 76 67  1  0
 76 77  1  0
 78 79  2  0
 79 98  1  0
 80 79  1  0
 80 83  1  0
 81 78  1  0
 81 82  1  0
 82 80  2  0
 83 84  1  0
 84 85  2  0
 86 89  1  0
 86 85  1  0
 87 86  2  0
 88 87  1  0
 88 83  2  0
 89 90  1  0
 90 91  1  0
 91 92  2  0
 93 92  1  0
 93 97  1  0
 94 93  2  0
 95 90  2  0
 95 94  1  0
 96 95  1  0
 98 99  1  0
 99102  1  0
 99101  1  0
100 98  2  0
103104  1  0
103 78  1  0
105103  1  0
M  ISO  4  14 101  15 101  68 100  76 100
M  END
>  <TORSDO>  (65) 
F 30

>  <SCORE>  (65) 
32.528

>  <name>  (65) 
72

>  <ligand_id>  (65) 
72

>  <original_smiles>  (65) 
[H]c1c([H])c([H])c2c(c1[H])C([H])([H])C([H])([H])C([H])([H])C2([H])N([H])C(=O)C1([H])N(C(=O)C([H])(N([H])C(=O)C([H])(N([H])C([H])([H])[H])C([H])([H])[H])C(C([H])([H])[H])(C([H])([H])[H])C([H])([H])[H])C([H])([H])c2c([H])c(OC([H])([H])C([H])([H])C([H])([H])[N+]([H])([H])C([H])([H])C([H])([H])C([H])([H])C([H])([H])N([H])C(=O)C([H])([H])C([H])([H])N([H])C(=O)C([H])([H])N([H])C(=O)C([H])([H])N([H])C(=O)N3C([H])([H])C([H])([H])C([H])([H])C([H])(n4nc(-c5c([H])c([H])c(Oc6c([H])c([H])c(F)c([H])c6F)c([H])c5[H])c(C(=O)N([H])[H])c4N([H])[H])C3([H])[H])c([H])c([H])c2C1([H])[H]

>  <smiles>  (65) 
[H]c1c([H])c([H])c2c(c1[H])C([H])([H])C([H])([H])C([H])([H])C2([H])N([H])C(=O)C1([H])N(C(=O)C([H])(N([H])C(=O)C([H])(N([H])C([H])([H])[H])C([H])([H])[H])C(C([H])([H])[H])(C([H])([H])[H])C([H])([H])[H])C([H])([H])c2c([H])c(OC([H])([H])C([H])([H])C([H])([H])[N+]([H])([H])C([H])([H])C([H])([H])C([H])([H])C([H])([H])N([H])C(=O)C([H])([H])C([H])([H])N([H])C(=O)C([H])([H])N([H])C(=O)C([H])([H])N([H])C(=O)N3C([H])([H])C([H])([H])C([H])([H])C([H])(n4nc(-c5c([H])c([H])c(Oc6c([H])c([H])c(F)c([H])c6F)c([H])c5[H])c(C(=O)N([H])[H])c4N([H])[H])C3([H])[H])c([H])c([H])c2C1([H])[H]

$$$$
73:0:0
     RDKit          3D

106113  0  0  1  0  0  0  0  0999 V2000
  -25.3530  -20.7600   19.4910 C   0  0  0  0  0  0  0  0  0  0  0  0
  -26.2620  -20.0910   20.2080 N   0  0  0  0  0  0  0  0  0  0  0  0
  -25.0860  -20.4660   18.3230 O   0  0  0  0  0  0  0  0  0  0  0  0
  -26.4090  -20.3720   21.1670 H   0  0  0  0  0  0  0  0  0  0  0  0
  -27.1150  -19.0050   19.7180 C   0  0  0  0  0  2  0  0  0  0  0  0
  -28.5320  -19.4700   19.3430 C   0  0  0  0  0  0  0  0  0  0  0  0
  -29.1540  -20.3150   20.1740 N   0  0  0  0  0  0  0  0  0  0  0  0
  -29.0630  -19.0500   18.3130 O   0  0  0  0  0  0  0  0  0  0  0  0
  -28.6460  -20.5960   21.0010 H   0  0  0  0  0  0  0  0  0  0  0  0
  -30.5270  -20.7940   20.0500 C   0  0  0  0  0  2  0  0  0  0  0  0
  -31.4940  -19.6170   20.1810 C   0  0  0  0  0  0  0  0  0  0  0  0
  -31.3730  -18.8690   21.2860 N   0  0  0  0  0  0  0  0  0  0  0  0
  -32.3120  -19.3780   19.2910 O   0  0  0  0  0  0  0  0  0  0  0  0
  -30.6660  -19.1390   21.9580 H   0  0  0  0  0  0  0  0  0  0  0  0
  -32.1560  -17.6680   21.5690 C   0  0  0  0  0  2  0  0  0  0  0  0
  -31.3580  -16.6680   22.4330 C   0  0  0  0  0  2  0  0  0  0  0  0
  -31.0910  -15.3120   21.7490 C   0  0  0  0  0  2  0  0  0  0  0  0
  -32.7020  -13.6820   20.4880 C   0  0  0  0  0  0  0  0  0  0  0  0
  -32.0560  -11.8830   18.9370 C   0  0  0  0  0  2  0  0  0  0  0  0
  -31.1000  -12.4320   17.8530 C   0  0  0  0  0  2  0  0  0  0  0  0
  -29.6370  -12.3920   18.3380 C   0  0  0  0  0  2  0  0  0  0  0  0
  -29.4670  -12.9750   19.7610 C   0  0  0  0  0  3  0  0  0  0  0  0
  -30.5220  -12.3700   20.7230 C   0  0  0  0  0  2  0  0  0  0  0  0
  -31.8390  -12.6780   20.1560 N   0  0  0  0  0  0  0  0  0  0  0  0
  -33.8600  -13.7030   20.0690 O   0  0  0  0  0  0  0  0  0  0  0  0
  -32.2390  -14.8610   20.9550 N   0  0  0  0  0  0  0  0  0  0  0  0
  -32.9590  -15.5670   20.8840 H   0  0  0  0  0  0  0  0  0  0  0  0
  -27.1140  -13.7610   20.4360 C   0  0  0  0  0  0  0  0  0  0  0  0
  -26.0040  -13.0690   20.8410 C   0  0  0  0  0  0  0  0  0  0  0  0
  -26.3860  -11.6930   20.8560 C   0  0  0  0  0  0  0  0  0  0  0  0
  -28.1060  -12.8110   20.2520 N   0  0  0  0  0  0  0  0  0  0  0  0
  -27.6710  -11.5650   20.5590 N   0  0  0  0  0  0  0  0  0  0  0  0
  -25.5890  -10.4820   21.0740 C   0  0  0  0  0  0  0  0  0  0  0  0
  -25.7600   -9.6860   22.2270 C   0  0  0  0  0  3  0  0  0  0  0  0
  -24.9700   -8.5360   22.4230 C   0  0  0  0  0  3  0  0  0  0  0  0
  -23.9950   -8.1720   21.4660 C   0  0  0  0  0  0  0  0  0  0  0  0
  -23.8490   -8.9530   20.3060 C   0  0  0  0  0  3  0  0  0  0  0  0
  -24.6440  -10.0960   20.1050 C   0  0  0  0  0  3  0  0  0  0  0  0
  -23.2010   -7.0550   21.5640 O   0  0  0  0  0  0  0  0  0  0  0  0
  -22.4230   -6.8230   22.6710 C   0  0  0  0  0  0  0  0  0  0  0  0
  -21.5500   -7.8040   23.1900 C   0  0  0  0  0  3  0  0  0  0  0  0
  -20.7190   -7.5000   24.2870 C   0  0  0  0  0  3  0  0  0  0  0  0
  -20.7470   -6.2110   24.8560 C   0  0  0  0  0  0  0  0  0  0  0  0
  -21.6130   -5.2310   24.3390 C   0  0  0  0  0  3  0  0  0  0  0  0
  -22.4460   -5.5360   23.2480 C   0  0  0  0  0  0  0  0  0  0  0  0
  -23.2640   -4.5830   22.7400 F   0  0  0  0  0  0  0  0  0  0  0  0
  -19.9400   -5.9140   25.9020 F   0  0  0  0  0  0  0  0  0  0  0  0
  -24.6370  -13.6390   21.0860 C   0  0  0  0  0  0  0  0  0  0  0  0
  -23.8760  -13.0550   22.0040 N   0  0  0  0  0  0  0  0  0  0  0  0
  -24.2540  -14.6480   20.4920 O   0  0  0  0  0  0  0  0  0  0  0  0
  -24.1810  -12.2210   22.4850 H   0  0  0  0  0  0  0  0  0  0  0  0
  -22.9570  -13.4300   22.1920 H   0  0  0  0  0  0  0  0  0  0  0  0
  -27.3450  -15.1110   20.1880 N   0  0  0  0  0  0  0  0  0  0  0  0
  -26.5760  -15.7650   20.1960 H   0  0  0  0  0  0  0  0  0  0  0  0
  -28.1510  -15.4510   19.6820 H   0  0  0  0  0  0  0  0  0  0  0  0
  -24.6730  -21.9510   20.1860 C   0  0  0  0  0  2  0  0  0  0  0  0
  -26.8590  -23.0900   20.5040 C   0  0  0  0  0  0  0  0  0  0  0  0
  -25.5470  -23.1200   20.2440 N   0  0  0  0  0  0  0  0  0  0  0  0
  -27.4530  -22.0480   20.8060 O   0  0  0  0  0  0  0  0  0  0  0  0
  -25.1420  -24.0090   19.9810 H   0  0  0  0  0  0  0  0  0  0  0  0
  -27.5950  -24.4290   20.3890 C   0  0  0  0  0  2  0  0  0  0  0  0
  -29.0030  -24.2140   20.3250 O   0  0  0  0  0  0  0  0  0  0  0  0
  -29.7390  -25.3760   20.6620 C   0  0  0  0  0  2  0  0  0  0  0  0
  -31.1980  -25.1580   20.2540 C   0  0  0  0  0  2  0  0  0  0  0  0
  -32.1330  -26.3090   20.6650 C   0  0  0  0  0  2  0  0  0  0  0  0
  -31.7670  -27.5200   20.0140 O   0  0  0  0  0  0  0  0  0  0  0  0
  -27.1970  -29.6830   25.0350 C   0  0  0  0  0  0  0  0  0  0  0  0
  -30.5330  -28.0190   20.3310 C   0  0  0  0  0  0  0  0  0  0  0  0
  -26.3030  -29.5660   22.7310 C   0  0  0  0  0  3  0  0  0  0  0  0
  -28.0320  -29.1880   20.8940 C   0  0  0  0  0  0  0  0  0  0  0  0
  -28.7960  -29.9580   23.1500 C   0  0  0  0  0  2  0  0  0  0  0  0
  -29.0630  -29.2510   21.8390 C   0  0  0  0  0  0  0  0  0  0  0  0
  -30.3160  -28.6690   21.5630 C   0  0  0  0  0  3  0  0  0  0  0  0
  -29.4930  -27.9640   19.3820 C   0  0  0  0  0  3  0  0  0  0  0  0
  -28.2380  -28.5390   19.6610 C   0  0  0  0  0  3  0  0  0  0  0  0
  -26.7250  -29.8520   21.2640 C   0  0  0  0  0  2  0  0  0  0  0  0
  -27.4420  -29.7140   23.6950 N   0  0  0  0  0  0  0  0  0  0  0  0
  -26.0430  -29.5810   25.4720 O   0  0  0  0  0  0  0  0  0  0  0  0
  -25.6320  -28.1770   22.7870 C   0  0  0  0  0  0  0  0  0  0  0  0
  -24.4940  -28.0350   22.0870 N   0  0  0  0  0  0  0  0  0  0  0  0
  -26.1470  -27.2500   23.4190 O   0  0  0  0  0  0  0  0  0  0  0  0
  -24.1340  -28.8420   21.5950 H   0  0  0  0  0  0  0  0  0  0  0  0
  -21.6160  -26.5700   20.4690 C   0  0  0  0  0  0  0  0  0  0  0  0
  -23.7100  -26.8060   21.9640 C   0  0  0  0  0  3  0  0  0  0  0  0
  -24.3880  -25.8070   21.0000 C   0  0  0  0  0  2  0  0  0  0  0  0
  -23.8890  -25.9310   19.5570 C   0  0  0  0  0  2  0  0  0  0  0  0
  -22.3780  -25.6940   19.4900 C   0  0  0  0  0  2  0  0  0  0  0  0
  -22.2460  -27.1050   21.6240 C   0  0  0  0  0  0  0  0  0  0  0  0
  -21.5040  -27.9420   22.4850 C   0  0  0  0  0  3  0  0  0  0  0  0
  -20.1580  -28.2480   22.2080 C   0  0  0  0  0  3  0  0  0  0  0  0
  -19.5350  -27.7050   21.0720 C   0  0  0  0  0  3  0  0  0  0  0  0
  -20.2600  -26.8630   20.2080 C   0  0  0  0  0  3  0  0  0  0  0  0
  -28.3520  -29.8050   26.0780 C   0  0  0  0  0  3  0  0  0  0  0  0
  -28.3950  -28.6030   27.1020 C   0  0  1  0  0  0  0  0  0  0  0  0
  -27.0270  -28.2980   27.7530 C   0  0  0  0  0  1  0  0  0  0  0  0
  -28.8880  -27.3100   26.4100 C   0  0  0  0  0  1  0  0  0  0  0  0
  -29.4050  -28.9140   28.2310 C   0  0  0  0  0  1  0  0  0  0  0  0
  -28.1780  -31.0820   26.7820 N   0  0  0  0  0  0  0  0  0  0  0  0
  -28.9380  -32.1680   26.5840 C   0  0  0  0  0  0  0  0  0  0  0  0
  -29.9160  -32.1730   25.8320 O   0  0  0  0  0  0  0  0  0  0  0  0
  -27.3600  -31.1690   27.3650 H   0  0  0  0  0  0  0  0  0  0  0  0
  -27.8240  -34.4150   26.3890 C   0  0  0  0  0  1  0  0  0  0  0  0
  -28.5490  -33.4510   27.3420 C   0  0  0  0  0  3  0  0  0  0  0  0
  -30.2900  -33.3990   29.0730 C   0  0  0  0  0  1  0  0  0  0  0  0
  -29.7020  -34.1400   27.9610 N   0  0  0  0  0  0  0  0  0  0  0  0
  -29.4330  -35.0590   28.3000 H   0  0  0  0  0  0  0  0  0  0  0  0
  1 56  1  0
  1  2  1  0
  2  4  1  0
  3  1  2  0
  5  2  1  0
  6  5  1  0
  6  7  1  0
  7  9  1  0
  8  6  2  0
 10  7  1  0
 10 11  1  0
 11 12  1  0
 12 15  1  0
 12 14  1  0
 13 11  2  0
 15 16  1  0
 17 16  1  0
 18 26  1  0
 19 24  1  0
 20 21  1  0
 20 19  1  0
 22 21  1  0
 22 31  1  0
 22 23  1  0
 24 18  1  0
 24 23  1  0
 25 18  2  0
 26 17  1  0
 27 26  1  0
 28 29  2  0
 29 30  1  0
 29 48  1  0
 30 33  1  0
 31 28  1  0
 31 32  1  0
 32 30  2  0
 33 34  1  0
 34 35  2  0
 36 39  1  0
 36 35  1  0
 37 36  2  0
 38 37  1  0
 38 33  2  0
 39 40  1  0
 40 41  2  0
 40 45  1  0
 41 42  1  0
 42 43  2  0
 43 47  1  0
 44 43  1  0
 45 44  2  0
 46 45  1  0
 48 49  1  0
 49 52  1  0
 49 51  1  0
 50 48  2  0
 53 54  1  0
 53 28  1  0
 55 53  1  0
 56 58  1  0
 57 59  2  0
 58 57  1  0
 60 58  1  0
 61 57  1  0
 62 61  1  0
 62 63  1  0
 64 63  1  0
 64 65  1  0
 66 68  1  0
 66 65  1  0
 67 78  2  0
 68 73  1  0
 69 79  1  0
 69 77  1  0
 70 76  1  0
 70 72  1  0
 71 77  1  0
 72 71  1  0
 73 72  2  0
 74 75  1  0
 74 68  2  0
 75 70  2  0
 76 69  1  0
 77 67  1  0
 79 81  2  0
 80 79  1  0
 82 80  1  0
 83 88  1  0
 84 80  1  0
 85 84  1  0
 86 85  1  0
 87 86  1  0
 87 83  1  0
 88 84  1  0
 88 89  2  0
 90 89  1  0
 91 90  2  0
 92 83  2  0
 92 91  1  0
 93 67  1  0
 93 98  1  0
 93 94  1  0
 94 95  1  1
 94 97  1  0
 96 94  1  0
 98101  1  0
 99 98  1  0
 99103  1  0
100 99  2  0
103102  1  0
103105  1  0
105106  1  0
105104  1  0
M  ISO  4  18 100  26 100  65 101  66 101
M  END
>  <TORSDO>  (66) 
F 30

>  <SCORE>  (66) 
-1.548

>  <name>  (66) 
73

>  <ligand_id>  (66) 
73

>  <original_smiles>  (66) 
[H]c1c([H])c([H])c2c(c1[H])C([H])([H])C([H])([H])C([H])([H])C2([H])N([H])C(=O)C1([H])N(C(=O)C([H])(N([H])C(=O)C([H])(N([H])C([H])([H])[H])C([H])([H])[H])C(C([H])([H])[H])(C([H])([H])[H])C([H])([H])[H])C([H])([H])c2c([H])c(OC([H])([H])C([H])([H])C([H])([H])OC([H])([H])C(=O)N([H])C([H])([H])C(=O)N([H])C([H])([H])C(=O)N([H])C([H])([H])C(=O)N([H])C([H])([H])C([H])([H])C([H])([H])N([H])C(=O)N3C([H])([H])C([H])([H])C([H])([H])C([H])(n4nc(-c5c([H])c([H])c(Oc6c([H])c([H])c(F)c([H])c6F)c([H])c5[H])c(C(=O)N([H])[H])c4N([H])[H])C3([H])[H])c([H])c([H])c2C1([H])[H]

>  <smiles>  (66) 
[H]c1c([H])c([H])c2c(c1[H])C([H])([H])C([H])([H])C([H])([H])C2([H])N([H])C(=O)C1([H])N(C(=O)C([H])(N([H])C(=O)C([H])(N([H])C([H])([H])[H])C([H])([H])[H])C(C([H])([H])[H])(C([H])([H])[H])C([H])([H])[H])C([H])([H])c2c([H])c(OC([H])([H])C([H])([H])C([H])([H])OC([H])([H])C(=O)N([H])C([H])([H])C(=O)N([H])C([H])([H])C(=O)N([H])C([H])([H])C(=O)N([H])C([H])([H])C([H])([H])C([H])([H])N([H])C(=O)N3C([H])([H])C([H])([H])C([H])([H])C([H])(n4nc(-c5c([H])c([H])c(Oc6c([H])c([H])c(F)c([H])c6F)c([H])c5[H])c(C(=O)N([H])[H])c4N([H])[H])C3([H])[H])c([H])c([H])c2C1([H])[H]

$$$$
74:0:0
     RDKit          3D

100107  0  0  1  0  0  0  0  0999 V2000
  -28.4530  -23.4140   23.5180 C   0  0  0  0  0  0  0  0  0  0  0  0
  -28.5890  -24.7420   23.4770 N   0  0  0  0  0  0  0  0  0  0  0  0
  -29.3160  -22.6620   23.9790 O   0  0  0  0  0  0  0  0  0  0  0  0
  -27.7990  -25.2770   23.1340 H   0  0  0  0  0  0  0  0  0  0  0  0
  -27.1510  -22.8400   22.9620 C   0  0  0  0  0  2  0  0  0  0  0  0
  -26.7490  -23.3900   21.5730 C   0  0  0  0  0  2  0  0  0  0  0  0
  -27.8390  -23.3350   20.4780 C   0  0  0  0  0  2  0  0  0  0  0  0
  -27.7250  -24.4790   19.4470 C   0  0  0  0  0  2  0  0  0  0  0  0
  -28.7460  -24.3950   18.2970 C   0  0  0  0  0  2  0  0  0  0  0  0
  -30.9530  -23.2600   18.3700 C   0  0  0  0  0  0  0  0  0  0  0  0
  -29.6190  -23.2370   18.4390 N   0  0  0  0  0  0  0  0  0  0  0  0
  -31.6030  -24.2820   18.1420 O   0  0  0  0  0  0  0  0  0  0  0  0
  -29.1770  -22.3480   18.6330 H   0  0  0  0  0  0  0  0  0  0  0  0
  -31.6560  -21.9270   18.6200 C   0  0  0  0  0  2  0  0  0  0  0  0
  -33.9940  -21.2870   19.1170 C   0  0  0  0  0  0  0  0  0  0  0  0
  -35.0190  -19.1340   19.7690 C   0  0  0  0  0  2  0  0  0  0  0  0
  -34.8210  -18.0530   18.6920 C   0  0  0  0  0  2  0  0  0  0  0  0
  -33.4690  -17.3380   18.8660 C   0  0  0  0  0  2  0  0  0  0  0  0
  -32.2930  -18.3330   19.0330 C   0  0  0  0  0  3  0  0  0  0  0  0
  -32.6390  -19.3830   20.1130 C   0  0  0  0  0  2  0  0  0  0  0  0
  -33.8810  -20.0670   19.7110 N   0  0  0  0  0  0  0  0  0  0  0  0
  -35.0500  -21.7080   18.6420 O   0  0  0  0  0  0  0  0  0  0  0  0
  -32.9600  -22.1250   19.2490 N   0  0  0  0  0  0  0  0  0  0  0  0
  -33.2420  -23.0880   19.1180 H   0  0  0  0  0  0  0  0  0  0  0  0
  -29.7570  -18.1600   19.4570 C   0  0  0  0  0  0  0  0  0  0  0  0
  -28.9390  -17.0810   19.6730 C   0  0  0  0  0  0  0  0  0  0  0  0
  -29.7890  -15.9340   19.6580 C   0  0  0  0  0  0  0  0  0  0  0  0
  -31.0390  -17.6440   19.3300 N   0  0  0  0  0  0  0  0  0  0  0  0
  -31.0560  -16.2990   19.5040 N   0  0  0  0  0  0  0  0  0  0  0  0
  -29.4690  -14.5030   19.7230 C   0  0  0  0  0  0  0  0  0  0  0  0
  -29.5070  -13.7930   20.9440 C   0  0  0  0  0  3  0  0  0  0  0  0
  -29.1830  -12.4200   20.9830 C   0  0  0  0  0  3  0  0  0  0  0  0
  -28.8070  -11.7460   19.7970 C   0  0  0  0  0  0  0  0  0  0  0  0
  -28.7890  -12.4520   18.5820 C   0  0  0  0  0  3  0  0  0  0  0  0
  -29.1220  -13.8170   18.5430 C   0  0  0  0  0  3  0  0  0  0  0  0
  -28.5000  -10.4080   19.7370 O   0  0  0  0  0  0  0  0  0  0  0  0
  -27.4160   -9.8890   20.3980 C   0  0  0  0  0  0  0  0  0  0  0  0
  -26.0910  -10.1770   20.0040 C   0  0  0  0  0  3  0  0  0  0  0  0
  -25.0110   -9.5620   20.6690 C   0  0  0  0  0  3  0  0  0  0  0  0
  -25.2520   -8.6600   21.7220 C   0  0  0  0  0  0  0  0  0  0  0  0
  -26.5720   -8.3690   22.1130 C   0  0  0  0  0  3  0  0  0  0  0  0
  -27.6500   -8.9820   21.4490 C   0  0  0  0  0  0  0  0  0  0  0  0
  -28.9200   -8.6810   21.8140 F   0  0  0  0  0  0  0  0  0  0  0  0
  -24.2170   -8.0660   22.3620 F   0  0  0  0  0  0  0  0  0  0  0  0
  -27.4430  -17.1010   19.7940 C   0  0  0  0  0  0  0  0  0  0  0  0
  -26.8740  -16.1140   20.4780 N   0  0  0  0  0  0  0  0  0  0  0  0
  -26.7720  -18.0150   19.3180 O   0  0  0  0  0  0  0  0  0  0  0  0
  -27.4300  -15.3740   20.8780 H   0  0  0  0  0  0  0  0  0  0  0  0
  -25.8720  -16.1040   20.6070 H   0  0  0  0  0  0  0  0  0  0  0  0
  -29.5170  -19.5250   19.3330 N   0  0  0  0  0  0  0  0  0  0  0  0
  -28.5760  -19.9010   19.3240 H   0  0  0  0  0  0  0  0  0  0  0  0
  -30.2080  -20.1840   19.0030 H   0  0  0  0  0  0  0  0  0  0  0  0
  -29.7600  -25.4970   23.9090 C   0  0  0  0  0  2  0  0  0  0  0  0
  -30.9090  -25.4730   22.8720 C   0  0  0  0  0  2  0  0  0  0  0  0
  -30.0510  -26.9690   21.0970 C   0  0  0  0  0  0  0  0  0  0  0  0
  -30.4510  -25.7660   21.5200 N   0  0  0  0  0  0  0  0  0  0  0  0
  -29.9610  -27.9380   21.8580 O   0  0  0  0  0  0  0  0  0  0  0  0
  -30.5050  -25.0200   20.8370 H   0  0  0  0  0  0  0  0  0  0  0  0
  -29.7240  -27.0950   19.6040 C   0  0  0  0  0  2  0  0  0  0  0  0
  -29.2670  -28.4200   19.3160 O   0  0  0  0  0  0  0  0  0  0  0  0
  -24.3020  -31.8400   23.0840 C   0  0  0  0  0  0  0  0  0  0  0  0
  -27.9280  -28.6840   19.4830 C   0  0  0  0  0  0  0  0  0  0  0  0
  -23.4560  -30.2540   21.3830 C   0  0  0  0  0  3  0  0  0  0  0  0
  -25.1960  -29.3450   19.7580 C   0  0  0  0  0  0  0  0  0  0  0  0
  -25.7220  -31.3960   21.0890 C   0  0  0  0  0  2  0  0  0  0  0  0
  -26.1750  -30.1670   20.3290 C   0  0  0  0  0  0  0  0  0  0  0  0
  -27.5420  -29.8450   20.1870 C   0  0  0  0  0  3  0  0  0  0  0  0
  -26.9280  -27.8620   18.9170 C   0  0  0  0  0  3  0  0  0  0  0  0
  -25.5670  -28.1850   19.0540 C   0  0  0  0  0  3  0  0  0  0  0  0
  -23.7570  -29.7720   19.9380 C   0  0  0  0  0  2  0  0  0  0  0  0
  -24.5110  -31.1770   21.9120 N   0  0  0  0  0  0  0  0  0  0  0  0
  -23.2350  -31.7260   23.7000 O   0  0  0  0  0  0  0  0  0  0  0  0
  -23.2240  -29.0160   22.2790 C   0  0  0  0  0  0  0  0  0  0  0  0
  -22.1030  -28.3150   22.0520 N   0  0  0  0  0  0  0  0  0  0  0  0
  -24.0520  -28.6900   23.1340 O   0  0  0  0  0  0  0  0  0  0  0  0
  -21.4680  -28.6580   21.3440 H   0  0  0  0  0  0  0  0  0  0  0  0
  -19.5550  -25.7610   22.1870 C   0  0  0  0  0  0  0  0  0  0  0  0
  -21.6960  -27.0960   22.7480 C   0  0  0  0  0  3  0  0  0  0  0  0
  -22.4750  -25.8680   22.2240 C   0  0  0  0  0  2  0  0  0  0  0  0
  -21.7480  -25.1290   21.0960 C   0  0  0  0  0  2  0  0  0  0  0  0
  -20.3770  -24.6410   21.5710 C   0  0  0  0  0  2  0  0  0  0  0  0
  -20.1730  -26.9190   22.7260 C   0  0  0  0  0  0  0  0  0  0  0  0
  -19.3600  -27.9460   23.2530 C   0  0  0  0  0  3  0  0  0  0  0  0
  -17.9580  -27.8280   23.2500 C   0  0  0  0  0  3  0  0  0  0  0  0
  -17.3510  -26.6710   22.7300 C   0  0  0  0  0  3  0  0  0  0  0  0
  -18.1500  -25.6390   22.2040 C   0  0  0  0  0  3  0  0  0  0  0  0
  -25.3830  -32.7920   23.6880 C   0  0  0  0  0  3  0  0  0  0  0  0
  -24.7200  -34.0610   24.0140 N   0  0  0  0  0  0  0  0  0  0  0  0
  -24.7470  -35.1530   23.2380 C   0  0  0  0  0  0  0  0  0  0  0  0
  -25.4030  -35.2190   22.1950 O   0  0  0  0  0  0  0  0  0  0  0  0
  -24.1210  -34.0630   24.8250 H   0  0  0  0  0  0  0  0  0  0  0  0
  -22.5800  -36.3870   22.9260 C   0  0  0  0  0  1  0  0  0  0  0  0
  -23.9120  -36.3650   23.6910 C   0  0  0  0  0  3  0  0  0  0  0  0
  -25.7560  -37.8210   24.4040 C   0  0  0  0  0  1  0  0  0  0  0  0
  -24.6080  -37.6580   23.5160 N   0  0  0  0  0  0  0  0  0  0  0  0
  -23.9710  -38.4340   23.6740 H   0  0  0  0  0  0  0  0  0  0  0  0
  -26.0990  -32.1920   24.9610 C   0  0  1  0  0  0  0  0  0  0  0  0
  -25.1210  -31.6190   26.0110 C   0  0  0  0  0  1  0  0  0  0  0  0
  -27.0750  -31.0620   24.5590 C   0  0  0  0  0  1  0  0  0  0  0  0
  -26.9480  -33.2840   25.6540 C   0  0  0  0  0  1  0  0  0  0  0  0
  1  3  2  0
  2  1  1  0
  2 53  1  0
  4  2  1  0
  5  1  1  0
  6  5  1  0
  7  6  1  0
  8  7  1  0
  9 11  1  0
  9  8  1  0
 10 11  1  0
 10 14  1  0
 11 13  1  0
 12 10  2  0
 14 23  1  0
 15 23  1  0
 15 21  1  0
 17 18  1  0
 17 16  1  0
 19 18  1  0
 19 28  1  0
 19 20  1  0
 21 16  1  0
 21 20  1  0
 22 15  2  0
 24 23  1  0
 25 26  2  0
 26 45  1  0
 27 26  1  0
 27 30  1  0
 28 25  1  0
 28 29  1  0
 29 27  2  0
 30 31  1  0
 31 32  2  0
 33 32  1  0
 34 33  2  0
 35 34  1  0
 35 30  2  0
 36 33  1  0
 36 37  1  0
 37 42  1  0
 38 37  2  0
 38 39  1  0
 39 40  2  0
 40 41  1  0
 40 44  1  0
 42 43  1  0
 42 41  2  0
 45 46  1  0
 46 49  1  0
 46 48  1  0
 47 45  2  0
 50 25  1  0
 51 50  1  0
 52 50  1  0
 54 53  1  0
 55 56  1  0
 55 57  2  0
 56 54  1  0
 58 56  1  0
 59 55  1  0
 60 62  1  0
 60 59  1  0
 61 72  2  0
 62 67  1  0
 63 71  1  0
 63 73  1  0
 64 70  1  0
 64 66  1  0
 65 71  1  0
 66 65  1  0
 67 66  2  0
 68 69  1  0
 68 62  2  0
 69 64  2  0
 70 63  1  0
 71 61  1  0
 73 75  2  0
 74 73  1  0
 76 74  1  0
 77 86  2  0
 77 82  1  0
 78 74  1  0
 79 78  1  0
 80 81  1  0
 80 79  1  0
 81 77  1  0
 82 78  1  0
 82 83  2  0
 84 83  1  0
 85 84  2  0
 86 85  1  0
 87 61  1  0
 87 88  1  0
 87 97  1  0
 88 91  1  0
 89 93  1  0
 89 88  1  0
 90 89  2  0
 93 92  1  0
 95 96  1  0
 95 93  1  0
 95 94  1  0
 97100  1  1
 97 98  1  0
 99 97  1  0
M  ISO  4  15 100  23 100  59 101  60 101
M  END
>  <TORSDO>  (67) 
F 27

>  <SCORE>  (67) 
2.073

>  <name>  (67) 
74

>  <ligand_id>  (67) 
74

>  <original_smiles>  (67) 
[H]c1c([H])c([H])c2c(c1[H])C([H])([H])C([H])([H])C([H])([H])C2([H])N([H])C(=O)C1([H])N(C(=O)C([H])(N([H])C(=O)C([H])(N([H])C([H])([H])[H])C([H])([H])[H])C(C([H])([H])[H])(C([H])([H])[H])C([H])([H])[H])C([H])([H])c2c([H])c(OC([H])([H])C(=O)N([H])C([H])([H])C([H])([H])N([H])C(=O)C([H])([H])C([H])([H])C([H])([H])C([H])([H])C([H])([H])N([H])C(=O)C([H])([H])N([H])C(=O)N3C([H])([H])C([H])([H])C([H])([H])C([H])(n4nc(-c5c([H])c([H])c(Oc6c([H])c([H])c(F)c([H])c6F)c([H])c5[H])c(C(=O)N([H])[H])c4N([H])[H])C3([H])[H])c([H])c([H])c2C1([H])[H]

>  <smiles>  (67) 
[H]c1c([H])c([H])c2c(c1[H])C([H])([H])C([H])([H])C([H])([H])C2([H])N([H])C(=O)C1([H])N(C(=O)C([H])(N([H])C(=O)C([H])(N([H])C([H])([H])[H])C([H])([H])[H])C(C([H])([H])[H])(C([H])([H])[H])C([H])([H])[H])C([H])([H])c2c([H])c(OC([H])([H])C(=O)N([H])C([H])([H])C([H])([H])N([H])C(=O)C([H])([H])C([H])([H])C([H])([H])C([H])([H])C([H])([H])N([H])C(=O)C([H])([H])N([H])C(=O)N3C([H])([H])C([H])([H])C([H])([H])C([H])(n4nc(-c5c([H])c([H])c(Oc6c([H])c([H])c(F)c([H])c6F)c([H])c5[H])c(C(=O)N([H])[H])c4N([H])[H])C3([H])[H])c([H])c([H])c2C1([H])[H]

$$$$
75:0:0
     RDKit          3D

 99106  0  0  1  0  0  0  0  0999 V2000
  -29.5040  -23.2480   18.1310 C   0  0  0  0  0  2  0  0  0  0  0  0
  -30.9130  -23.5750   17.5820 C   0  0  0  0  0  2  0  0  0  0  0  0
  -31.2440  -25.0800   17.5890 C   0  0  0  0  0  2  0  0  0  0  0  0
  -31.1750  -25.6620   18.9450 N   0  0  0  0  0  4  0  0  0  0  0  0
  -31.9900  -25.3930   19.4760 H   0  0  0  0  0  0  0  0  0  0  0  0
  -30.3630  -25.2700   19.3940 H   0  0  0  0  0  0  0  0  0  0  0  0
  -31.0140  -27.1330   18.9660 C   0  0  0  0  0  2  0  0  0  0  0  0
  -30.6410  -27.6760   20.3610 C   0  0  0  0  0  2  0  0  0  0  0  0
  -29.4930  -26.9100   21.0470 C   0  0  0  0  0  2  0  0  0  0  0  0
  -28.4270  -26.6560   20.1320 O   0  0  0  0  0  0  0  0  0  0  0  0
  -24.6180  -31.8550   23.2250 C   0  0  0  0  0  0  0  0  0  0  0  0
  -27.2950  -27.4380   20.1750 C   0  0  0  0  0  0  0  0  0  0  0  0
  -23.4130  -30.4420   21.5850 C   0  0  0  0  0  3  0  0  0  0  0  0
  -24.8770  -28.9050   20.1690 C   0  0  0  0  0  0  0  0  0  0  0  0
  -25.9310  -30.8180   21.3860 C   0  0  0  0  0  2  0  0  0  0  0  0
  -26.0240  -29.4460   20.7600 C   0  0  0  0  0  0  0  0  0  0  0  0
  -27.2350  -28.7220   20.7670 C   0  0  0  0  0  3  0  0  0  0  0  0
  -26.1330  -26.9120   19.5730 C   0  0  0  0  0  3  0  0  0  0  0  0
  -24.9230  -27.6310   19.5730 C   0  0  0  0  0  3  0  0  0  0  0  0
  -23.6250  -29.7550   20.2080 C   0  0  0  0  0  2  0  0  0  0  0  0
  -24.6710  -31.0510   22.1250 N   0  0  0  0  0  0  0  0  0  0  0  0
  -23.5380  -32.1310   23.7630 O   0  0  0  0  0  0  0  0  0  0  0  0
  -22.7630  -29.4240   22.5490 C   0  0  0  0  0  0  0  0  0  0  0  0
  -21.4370  -29.2500   22.4270 N   0  0  0  0  0  0  0  0  0  0  0  0
  -23.4460  -28.7970   23.3630 O   0  0  0  0  0  0  0  0  0  0  0  0
  -20.9490  -29.8110   21.7430 H   0  0  0  0  0  0  0  0  0  0  0  0
  -18.0590  -28.0900   22.9430 C   0  0  0  0  0  0  0  0  0  0  0  0
  -20.6190  -28.3180   23.2010 C   0  0  0  0  0  3  0  0  0  0  0  0
  -20.7030  -26.8890   22.6160 C   0  0  0  0  0  2  0  0  0  0  0  0
  -19.5920  -26.5840   21.6060 C   0  0  0  0  0  2  0  0  0  0  0  0
  -18.2170  -26.7420   22.2600 C   0  0  0  0  0  2  0  0  0  0  0  0
  -19.1870  -28.8370   23.3700 C   0  0  0  0  0  0  0  0  0  0  0  0
  -18.9890  -30.1010   23.9650 C   0  0  0  0  0  3  0  0  0  0  0  0
  -17.6920  -30.6210   24.1350 C   0  0  0  0  0  3  0  0  0  0  0  0
  -16.5760  -29.8690   23.7250 C   0  0  0  0  0  3  0  0  0  0  0  0
  -16.7600  -28.6060   23.1370 C   0  0  0  0  0  3  0  0  0  0  0  0
  -25.9070  -32.4840   23.8420 C   0  0  0  0  0  3  0  0  0  0  0  0
  -25.6000  -33.8780   24.1810 N   0  0  0  0  0  0  0  0  0  0  0  0
  -25.9300  -34.9340   23.4240 C   0  0  0  0  0  0  0  0  0  0  0  0
  -26.6000  -34.8370   22.3920 O   0  0  0  0  0  0  0  0  0  0  0  0
  -25.0070  -34.0310   24.9830 H   0  0  0  0  0  0  0  0  0  0  0  0
  -24.1970  -36.7190   23.0780 C   0  0  0  0  0  1  0  0  0  0  0  0
  -25.4390  -36.3190   23.8880 C   0  0  0  0  0  3  0  0  0  0  0  0
  -27.5740  -37.2020   24.7210 C   0  0  0  0  0  1  0  0  0  0  0  0
  -26.4700  -37.3760   23.7790 N   0  0  0  0  0  0  0  0  0  0  0  0
  -26.0620  -38.2940   23.9360 H   0  0  0  0  0  0  0  0  0  0  0  0
  -26.4360  -31.7030   25.1080 C   0  0  1  0  0  0  0  0  0  0  0  0
  -25.3510  -31.4520   26.1810 C   0  0  0  0  0  1  0  0  0  0  0  0
  -27.0180  -30.3310   24.6920 C   0  0  0  0  0  1  0  0  0  0  0  0
  -27.5860  -32.4950   25.7750 C   0  0  0  0  0  1  0  0  0  0  0  0
  -29.0160  -21.8100   17.8530 C   0  0  0  0  0  2  0  0  0  0  0  0
  -30.5070  -20.3580   19.2320 C   0  0  0  0  0  0  0  0  0  0  0  0
  -30.0410  -20.7920   18.0580 N   0  0  0  0  0  0  0  0  0  0  0  0
  -30.1490  -20.8320   20.3120 O   0  0  0  0  0  0  0  0  0  0  0  0
  -30.3900  -20.3250   17.2300 H   0  0  0  0  0  0  0  0  0  0  0  0
  -31.5490  -19.2330   19.1730 C   0  0  0  0  0  2  0  0  0  0  0  0
  -30.5200  -17.4660   20.5780 C   0  0  0  0  0  0  0  0  0  0  0  0
  -31.4970  -18.3430   20.3290 N   0  0  0  0  0  0  0  0  0  0  0  0
  -29.5210  -17.3550   19.8610 O   0  0  0  0  0  0  0  0  0  0  0  0
  -32.2740  -18.3840   20.9730 H   0  0  0  0  0  0  0  0  0  0  0  0
  -30.6960  -16.5560   21.8000 C   0  0  0  0  0  2  0  0  0  0  0  0
  -30.7230  -14.3740   20.6130 C   0  0  0  0  0  0  0  0  0  0  0  0
  -30.3580  -12.3070   19.3240 C   0  0  0  0  0  2  0  0  0  0  0  0
  -29.4210  -12.5690   18.1310 C   0  0  0  0  0  2  0  0  0  0  0  0
  -27.9480  -12.4330   18.5550 C   0  0  0  0  0  2  0  0  0  0  0  0
  -27.6220  -13.2400   19.8380 C   0  0  0  0  0  3  0  0  0  0  0  0
  -28.6630  -12.9560   20.9430 C   0  0  0  0  0  2  0  0  0  0  0  0
  -30.0040  -13.2430   20.3990 N   0  0  0  0  0  0  0  0  0  0  0  0
  -31.7630  -14.6450   20.0040 O   0  0  0  0  0  0  0  0  0  0  0  0
  -30.2130  -15.2030   21.5310 N   0  0  0  0  0  0  0  0  0  0  0  0
  -29.3530  -14.9210   21.9740 H   0  0  0  0  0  0  0  0  0  0  0  0
  -25.2140  -13.8630   20.5110 C   0  0  0  0  0  0  0  0  0  0  0  0
  -24.1410  -13.0970   20.8780 C   0  0  0  0  0  0  0  0  0  0  0  0
  -24.5990  -11.7430   20.8620 C   0  0  0  0  0  0  0  0  0  0  0  0
  -26.2610  -12.9770   20.3010 N   0  0  0  0  0  0  0  0  0  0  0  0
  -25.8900  -11.6980   20.5640 N   0  0  0  0  0  0  0  0  0  0  0  0
  -23.8690  -10.4840   21.0580 C   0  0  0  0  0  0  0  0  0  0  0  0
  -24.3060   -9.5120   21.9830 C   0  0  0  0  0  3  0  0  0  0  0  0
  -23.5760   -8.3170   22.1660 C   0  0  0  0  0  3  0  0  0  0  0  0
  -22.3950   -8.0870   21.4220 C   0  0  0  0  0  0  0  0  0  0  0  0
  -21.9750   -9.0490   20.4850 C   0  0  0  0  0  3  0  0  0  0  0  0
  -22.7060  -10.2340   20.3020 C   0  0  0  0  0  3  0  0  0  0  0  0
  -21.6370   -6.9450   21.5140 O   0  0  0  0  0  0  0  0  0  0  0  0
  -21.6170   -6.1840   22.6550 C   0  0  0  0  0  0  0  0  0  0  0  0
  -21.2410   -6.7240   23.9050 C   0  0  0  0  0  3  0  0  0  0  0  0
  -21.1680   -5.8890   25.0380 C   0  0  0  0  0  3  0  0  0  0  0  0
  -21.4600   -4.5160   24.9230 C   0  0  0  0  0  0  0  0  0  0  0  0
  -21.8300   -3.9760   23.6790 C   0  0  0  0  0  3  0  0  0  0  0  0
  -21.9050   -4.8090   22.5480 C   0  0  0  0  0  0  0  0  0  0  0  0
  -22.2400   -4.2780   21.3460 F   0  0  0  0  0  0  0  0  0  0  0  0
  -21.3830   -3.7130   26.0100 F   0  0  0  0  0  0  0  0  0  0  0  0
  -22.7420  -13.5790   21.1360 C   0  0  0  0  0  0  0  0  0  0  0  0
  -22.0070  -12.8890   22.0010 N   0  0  0  0  0  0  0  0  0  0  0  0
  -22.3100  -14.6020   20.6060 O   0  0  0  0  0  0  0  0  0  0  0  0
  -22.3670  -12.0590   22.4470 H   0  0  0  0  0  0  0  0  0  0  0  0
  -21.0680  -13.1940   22.2150 H   0  0  0  0  0  0  0  0  0  0  0  0
  -25.3860  -15.2310   20.3240 N   0  0  0  0  0  0  0  0  0  0  0  0
  -24.6230  -15.8930   20.4200 H   0  0  0  0  0  0  0  0  0  0  0  0
  -26.2480  -15.6640   20.0140 H   0  0  0  0  0  0  0  0  0  0  0  0
  2  3  1  0
  2  1  1  0
  3  4  1  0
  4  7  1  0
  4  6  1  0
  4  5  1  0
  7  8  1  0
  8  9  1  0
 10 12  1  0
 10  9  1  0
 11 22  2  0
 12 17  1  0
 13 21  1  0
 13 23  1  0
 14 20  1  0
 14 16  1  0
 15 21  1  0
 16 17  2  0
 16 15  1  0
 18 19  1  0
 18 12  2  0
 19 14  2  0
 20 13  1  0
 21 11  1  0
 23 25  2  0
 24 23  1  0
 26 24  1  0
 27 36  2  0
 27 32  1  0
 28 24  1  0
 28 32  1  0
 29 28  1  0
 30 31  1  0
 30 29  1  0
 31 27  1  0
 32 33  2  0
 33 34  1  0
 35 34  2  0
 36 35  1  0
 37 11  1  0
 37 38  1  0
 37 47  1  0
 38 41  1  0
 39 43  1  0
 39 38  1  0
 40 39  2  0
 43 42  1  0
 45 43  1  0
 45 46  1  0
 45 44  1  0
 47 50  1  1
 47 48  1  0
 49 47  1  0
 51 53  1  0
 51  1  1  0
 52 54  2  0
 53 52  1  0
 55 53  1  0
 56 52  1  0
 56 58  1  0
 57 61  1  0
 58 57  1  0
 58 60  1  0
 59 57  2  0
 62 70  1  0
 63 68  1  0
 64 65  1  0
 64 63  1  0
 66 65  1  0
 66 75  1  0
 66 67  1  0
 68 62  1  0
 68 67  1  0
 69 62  2  0
 70 61  1  0
 70 71  1  0
 72 73  2  0
 73 92  1  0
 74 73  1  0
 74 77  1  0
 75 72  1  0
 75 76  1  0
 76 74  2  0
 77 78  1  0
 78 79  2  0
 80 83  1  0
 80 79  1  0
 81 80  2  0
 82 81  1  0
 82 77  2  0
 83 84  1  0
 84 85  1  0
 85 86  2  0
 87 86  1  0
 87 91  1  0
 88 87  2  0
 89 84  2  0
 89 88  1  0
 90 89  1  0
 92 93  1  0
 93 96  1  0
 93 95  1  0
 94 92  2  0
 97 98  1  0
 97 72  1  0
 99 97  1  0
M  ISO  4   9 101  10 101  62 100  70 100
M  END
>  <TORSDO>  (68) 
F 27

>  <SCORE>  (68) 
-11.750

>  <name>  (68) 
75

>  <ligand_id>  (68) 
75

>  <original_smiles>  (68) 
[H]c1c([H])c([H])c2c(c1[H])C([H])([H])C([H])([H])C([H])([H])C2([H])N([H])C(=O)C1([H])N(C(=O)C([H])(N([H])C(=O)C([H])(N([H])C([H])([H])[H])C([H])([H])[H])C(C([H])([H])[H])(C([H])([H])[H])C([H])([H])[H])C([H])([H])c2c([H])c(OC([H])([H])C([H])([H])C([H])([H])[N+]([H])([H])C([H])([H])C([H])([H])C([H])([H])C([H])([H])N([H])C(=O)C([H])([H])N([H])C(=O)C([H])([H])N([H])C(=O)N3C([H])([H])C([H])([H])C([H])([H])C([H])(n4nc(-c5c([H])c([H])c(Oc6c([H])c([H])c(F)c([H])c6F)c([H])c5[H])c(C(=O)N([H])[H])c4N([H])[H])C3([H])[H])c([H])c([H])c2C1([H])[H]

>  <smiles>  (68) 
[H]c1c([H])c([H])c2c(c1[H])C([H])([H])C([H])([H])C([H])([H])C2([H])N([H])C(=O)C1([H])N(C(=O)C([H])(N([H])C(=O)C([H])(N([H])C([H])([H])[H])C([H])([H])[H])C(C([H])([H])[H])(C([H])([H])[H])C([H])([H])[H])C([H])([H])c2c([H])c(OC([H])([H])C([H])([H])C([H])([H])[N+]([H])([H])C([H])([H])C([H])([H])C([H])([H])C([H])([H])N([H])C(=O)C([H])([H])N([H])C(=O)C([H])([H])N([H])C(=O)N3C([H])([H])C([H])([H])C([H])([H])C([H])(n4nc(-c5c([H])c([H])c(Oc6c([H])c([H])c(F)c([H])c6F)c([H])c5[H])c(C(=O)N([H])[H])c4N([H])[H])C3([H])[H])c([H])c([H])c2C1([H])[H]

$$$$
77:0:0
     RDKit          3D

 97100  0  0  1  0  0  0  0  0999 V2000
  -21.5440  -25.7560   22.1540 C   0  0  0  0  0  2  0  0  0  0  0  0
  -20.1330  -27.0810   22.3480 C   0  0  0  0  0  0  0  0  0  0  0  0
  -19.1910  -28.1310   21.5130 N   0  0  0  0  0  2  0  0  0  0  0  0
  -19.9120  -27.2200   23.5510 O   0  0  0  0  0  0  0  0  0  0  0  0
  -18.6500  -28.7750   22.0680 H   0  0  0  0  0  0  0  0  0  0  0  0
  -18.1870  -27.8980   18.5480 C   0  0  0  0  0 15  0  0  0  0  0  0
  -19.1790  -26.6000   17.2030 C   0  0  0  0  0 15  0  0  0  0  0  0
  -20.9420  -25.6060   16.5100 C   0  0  0  0  0 15  0  0  0  0  0  0
  -22.8430  -25.4700   16.3730 O   0  0  0  0  0  1  0  0  0  0  0  0
  -24.3380  -27.9340   20.6460 C   0  0  0  0  0  0  0  0  0  0  0  0
  -24.0180  -25.8480   15.5290 C   0  0  0  0  0  3  0  0  0  0  0  0
  -22.5700  -27.6140   19.0290 C   0  0  0  0  0  3  0  0  0  0  0  0
  -23.1530  -27.9800   16.4910 C   0  0  0  0  0  3  0  0  0  0  0  0
  -24.9030  -28.2110   18.2330 C   0  0  0  0  0  2  0  0  0  0  0  0
  -24.4320  -27.6340   16.9220 C   0  0  0  0  0  3  0  0  0  0  0  0
  -25.0370  -26.5790   16.2260 C   0  0  0  0  0  2  0  0  0  0  0  0
  -23.4970  -26.5830   14.5040 C   0  0  0  0  0  2  0  0  0  0  0  0
  -22.7700  -27.6010   15.1540 C   0  0  0  0  0  2  0  0  0  0  0  0
  -22.2260  -28.3320   17.6420 C   0  0  0  0  0  2  0  0  0  0  0  0
  -23.9610  -27.9630   19.3510 N   0  0  0  0  0  0  0  0  0  0  0  0
  -23.5270  -27.7150   21.5600 O   0  0  0  0  0  0  0  0  0  0  0  0
  -22.5070  -26.0470   19.2380 C   0  0  0  0  0  0  0  0  0  0  0  0
  -21.3780  -25.4230   19.1980 N   0  0  0  0  0  0  0  0  0  0  0  0
  -23.4680  -25.3390   19.4670 O   0  0  0  0  0  0  0  0  0  0  0  0
  -20.5500  -25.9970   19.1630 H   0  0  0  0  0  0  0  0  0  0  0  0
  -18.4040  -23.7180   17.8040 C   0  0  0  0  0  0  0  0  0  0  0  0
  -21.1290  -24.0320   18.7930 C   0  0  0  0  0  3  0  0  0  0  0  0
  -21.0990  -23.4670   17.3240 C   0  0  0  0  0  2  0  0  0  0  0  0
  -19.8950  -23.4590   16.2510 C   0  0  0  0  0  2  0  0  0  0  0  0
  -18.5080  -23.0390   16.6000 C   0  0  0  0  0  2  0  0  0  0  0  0
  -19.8250  -24.0490   19.0270 C   0  0  0  0  0  0  0  0  0  0  0  0
  -19.3110  -24.6660   20.6020 C   0  0  0  0  0  3  0  0  0  0  0  0
  -17.7210  -24.9170   20.9150 C   0  0  0  0  0  3  0  0  0  0  0  0
  -16.5610  -24.6160   19.8700 C   0  0  0  0  0  3  0  0  0  0  0  0
  -16.8200  -24.0350   18.3800 C   0  0  0  0  0  3  0  0  0  0  0  0
  -25.8120  -28.1990   21.0160 C   0  0  0  0  0  3  0  0  0  0  0  0
  -25.7810  -29.2010   22.0810 N   0  0  0  0  0  0  0  0  0  0  0  0
  -26.0120  -30.5050   21.8880 C   0  0  0  0  0  0  0  0  0  0  0  0
  -26.3680  -30.9700   20.8020 O   0  0  0  0  0  0  0  0  0  0  0  0
  -25.4390  -28.9000   22.9820 H   0  0  0  0  0  0  0  0  0  0  0  0
  -24.4960  -32.1850   22.9840 C   0  0  0  0  0  1  0  0  0  0  0  0
  -25.8330  -31.4350   23.1010 C   0  0  0  0  0  3  0  0  0  0  0  0
  -28.2020  -31.7650   23.6430 C   0  0  0  0  0  1  0  0  0  0  0  0
  -26.9400  -32.3990   23.2620 N   0  0  0  0  0  0  0  0  0  0  0  0
  -26.7100  -33.0960   23.9640 H   0  0  0  0  0  0  0  0  0  0  0  0
  -26.5770  -26.8990   21.4660 C   0  0  1  0  0  0  0  0  0  0  0  0
  -25.8340  -26.0820   22.5470 C   0  0  0  0  0  1  0  0  0  0  0  0
  -26.8450  -25.9550   20.2700 C   0  0  0  0  0  1  0  0  0  0  0  0
  -27.9610  -27.3000   22.0180 C   0  0  0  0  0  1  0  0  0  0  0  0
  -23.6620  -23.6760   20.7450 C   0  0  0  0  0  0  0  0  0  0  0  0
  -22.2910  -24.3280   21.2450 N   0  0  0  0  0  0  0  0  0  0  0  0
  -24.5940  -24.4590   20.9330 O   0  0  0  0  0  0  0  0  0  0  0  0
  -21.5490  -23.6710   21.0430 H   0  0  0  0  0  0  0  0  0  0  0  0
  -24.3630  -22.0540   19.9590 C   0  0  0  0  0  2  0  0  0  0  0  0
  -26.4980  -19.7000   19.1190 C   0  0  0  0  0  0  0  0  0  0  0  0
  -25.9080  -21.1080   19.5940 N   0  0  0  0  0  0  0  0  0  0  0  0
  -25.5800  -18.8990   18.9470 O   0  0  0  0  0  0  0  0  0  0  0  0
  -26.6890  -21.7350   19.7500 H   0  0  0  0  0  0  0  0  0  0  0  0
  -28.1690  -18.8130   18.7160 C   0  0  0  0  0  2  0  0  0  0  0  0
  -30.5000  -16.4190   18.9760 C   0  0  0  0  0  0  0  0  0  0  0  0
  -31.5770  -13.9040   19.0110 C   0  0  0  0  0  2  0  0  0  0  0  0
  -30.8400  -12.8540   18.1070 C   0  0  0  0  0  2  0  0  0  0  0  0
  -29.4590  -12.4840   18.6820 C   0  0  0  0  0  2  0  0  0  0  0  0
  -28.7950  -13.7490   19.2600 C   0  0  0  0  0  3  0  0  0  0  0  0
  -29.6790  -14.4500   20.2840 C   0  0  0  0  0  2  0  0  0  0  0  0
  -30.6460  -15.0610   19.4390 N   0  0  0  0  0  0  0  0  0  0  0  0
  -31.6240  -16.6760   18.4450 O   0  0  0  0  0  0  0  0  0  0  0  0
  -29.1490  -17.2900   19.0670 N   0  0  0  0  0  0  0  0  0  0  0  0
  -28.4970  -16.6950   19.5610 H   0  0  0  0  0  0  0  0  0  0  0  0
  -26.7090  -14.5120   20.4210 C   0  0  0  0  0  0  0  0  0  0  0  0
  -25.6240  -13.8270   20.8720 C   0  0  0  0  0  0  0  0  0  0  0  0
  -25.8720  -12.4510   20.5730 C   0  0  0  0  0  0  0  0  0  0  0  0
  -27.5210  -13.5520   19.8580 N   0  0  0  0  0  0  0  0  0  0  0  0
  -27.0620  -12.2960   20.0230 N   0  0  0  0  0  0  0  0  0  0  0  0
  -25.0180  -11.2760   20.7080 C   0  0  0  0  0  0  0  0  0  0  0  0
  -25.3100  -10.2530   21.6340 C   0  0  0  0  0  3  0  0  0  0  0  0
  -24.4570   -9.1350   21.7470 C   0  0  0  0  0  3  0  0  0  0  0  0
  -23.3040   -9.0420   20.9320 C   0  0  0  0  0  0  0  0  0  0  0  0
  -23.0380  -10.0520   19.9910 C   0  0  0  0  0  3  0  0  0  0  0  0
  -23.8890  -11.1610   19.8760 C   0  0  0  0  0  3  0  0  0  0  0  0
  -22.4290   -7.9850   20.9560 O   0  0  0  0  0  0  0  0  0  0  0  0
  -21.9440   -7.4840   22.1350 C   0  0  0  0  0  0  0  0  0  0  0  0
  -21.3240   -8.3100   23.0990 C   0  0  0  0  0  3  0  0  0  0  0  0
  -20.7750   -7.7390   24.2640 C   0  0  0  0  0  3  0  0  0  0  0  0
  -20.8400   -6.3460   24.4640 C   0  0  0  0  0  0  0  0  0  0  0  0
  -21.4550   -5.5240   23.5040 C   0  0  0  0  0  3  0  0  0  0  0  0
  -22.0020   -6.0920   22.3410 C   0  0  0  0  0  0  0  0  0  0  0  0
  -22.5750   -5.2940   21.4080 F   0  0  0  0  0  0  0  0  0  0  0  0
  -20.3060   -5.7970   25.5800 F   0  0  0  0  0  0  0  0  0  0  0  0
  -24.3800  -14.4300   21.4420 C   0  0  0  0  0  0  0  0  0  0  0  0
  -23.7350  -13.7330   22.3690 N   0  0  0  0  0  0  0  0  0  0  0  0
  -23.9990  -15.5490   21.0970 O   0  0  0  0  0  0  0  0  0  0  0  0
  -24.0640  -12.8250   22.6640 H   0  0  0  0  0  0  0  0  0  0  0  0
  -22.9010  -14.1110   22.7940 H   0  0  0  0  0  0  0  0  0  0  0  0
  -27.0650  -15.8600   20.4110 N   0  0  0  0  0  0  0  0  0  0  0  0
  -26.4260  -16.5640   20.7640 H   0  0  0  0  0  0  0  0  0  0  0  0
  -27.7670  -16.2500   19.7960 H   0  0  0  0  0  0  0  0  0  0  0  0
  1  2  1  0
  2  4  2  0
  3  5  1  0
  3  2  1  0
 10 21  2  0
 11 16  1  0
 11  9  1  0
 12 22  1  0
 12 20  1  0
 13 18  1  0
 13 15  1  0
 13 19  1  0
 14 20  1  0
 15 16  1  0
 15 14  1  0
 17 18  1  0
 17 11  1  0
 19 12  1  0
 20 10  1  0
 22 24  2  0
 23 22  1  0
 25 23  1  0
 26 35  2  0
 26 31  1  0
 27 31  1  0
 27 23  1  0
 28 27  1  0
 29 30  1  0
 29 28  1  0
 30 26  1  0
 31 32  2  0
 32 33  1  0
 34 33  2  0
 35 34  1  0
 36 10  1  0
 36 46  1  0
 36 37  1  0
 37 40  1  0
 38 37  1  0
 38 42  1  0
 39 38  2  0
 42 41  1  0
 42 44  1  0
 44 43  1  0
 44 45  1  0
 46 49  1  1
 46 47  1  0
 48 46  1  0
 50 52  2  0
 50 51  1  0
 51  1  1  0
 53 51  1  0
 54 50  1  0
 55 56  1  0
 56 58  1  0
 56 54  1  0
 57 55  2  0
 59 68  1  0
 59 55  1  0
 60 68  1  0
 60 66  1  0
 61 66  1  0
 62 63  1  0
 62 61  1  0
 64 63  1  0
 64 73  1  0
 64 65  1  0
 66 65  1  0
 67 60  2  0
 68 69  1  0
 70 71  2  0
 71 90  1  0
 72 75  1  0
 72 71  1  0
 73 74  1  0
 73 70  1  0
 74 72  2  0
 75 76  1  0
 76 77  2  0
 78 81  1  0
 78 77  1  0
 79 78  2  0
 80 79  1  0
 80 75  2  0
 81 82  1  0
 82 87  2  0
 82 83  1  0
 83 84  2  0
 84 85  1  0
 85 89  1  0
 86 85  2  0
 87 86  1  0
 88 87  1  0
 90 91  1  0
 91 93  1  0
 91 94  1  0
 92 90  2  0
 95 70  1  0
 95 96  1  0
 97 95  1  0
M  ISO  4   8 101   9 101  60 100  68 100
M  END
>  <TORSDO>  (69) 
F 24

>  <SCORE>  (69) 
-4.061

>  <name>  (69) 
77

>  <ligand_id>  (69) 
77

>  <original_smiles>  (69) 
[H]c1c([H])c([H])c2c(c1[H])C([H])([H])C([H])([H])C([H])([H])C2([H])N([H])C(=O)C1([H])N(C(=O)C([H])(N([H])C(=O)C([H])(N([H])C([H])([H])[H])C([H])([H])[H])C(C([H])([H])[H])(C([H])([H])[H])C([H])([H])[H])C([H])([H])c2c([H])c(OC([H])([H])C([H])([H])C([H])([H])N([H])C(=O)C([H])([H])N([H])C(=O)C([H])([H])N([H])C(=O)C([H])([H])N([H])C(=O)N3C([H])([H])C([H])([H])C([H])([H])C([H])(n4nc(-c5c([H])c([H])c(Oc6c([H])c([H])c(F)c([H])c6F)c([H])c5[H])c(C(=O)N([H])[H])c4N([H])[H])C3([H])[H])c([H])c([H])c2C1([H])[H]

>  <smiles>  (69) 
[H]c1c([H])c([H])c2c(c1[H])C([H])([H])C([H])([H])C([H])([H])C2([H])N([H])C(=O)C1([H])N(C(=O)C([H])(N([H])C(=O)C([H])(N([H])C([H])([H])[H])C([H])([H])[H])C(C([H])([H])[H])(C([H])([H])[H])C([H])([H])[H])C([H])([H])c2c([H])c(OC([H])([H])C([H])([H])C([H])([H])N([H])C(=O)C([H])([H])N([H])C(=O)C([H])([H])N([H])C(=O)C([H])([H])N([H])C(=O)N3C([H])([H])C([H])([H])C([H])([H])C([H])(n4nc(-c5c([H])c([H])c(Oc6c([H])c([H])c(F)c([H])c6F)c([H])c5[H])c(C(=O)N([H])[H])c4N([H])[H])C3([H])[H])c([H])c([H])c2C1([H])[H]

$$$$
78:0:0
     RDKit          3D

110117  0  0  1  0  0  0  0  0999 V2000
  -22.3870  -28.9570   25.3140 C   0  0  0  0  0  2  0  0  0  0  0  0
  -22.0310  -30.5630   24.7480 C   0  0  0  0  0  0  0  0  0  0  0  0
  -21.4730  -31.3180   23.5880 N   0  0  0  0  0  0  0  0  0  0  0  0
  -22.2380  -31.3670   25.6540 O   0  0  0  0  0  0  0  0  0  0  0  0
  -21.5530  -32.2630   23.9400 H   0  0  0  0  0  0  0  0  0  0  0  0
  -20.7970  -31.5380   22.0820 C   0  0  0  0  0  2  0  0  0  0  0  0
  -21.5100  -31.8920   20.5290 C   0  0  0  0  0  2  0  0  0  0  0  0
  -21.7730  -31.2910   18.9550 C   0  0  0  0  0  2  0  0  0  0  0  0
  -23.2140  -31.2500   18.0020 C   0  0  0  0  0  2  0  0  0  0  0  0
  -24.1530  -29.9800   17.6770 N   0  0  0  0  0  4  0  0  0  0  0  0
  -23.9320  -29.7120   16.7280 H   0  0  0  0  0  0  0  0  0  0  0  0
  -23.8320  -29.2150   18.2520 H   0  0  0  0  0  0  0  0  0  0  0  0
  -25.7470  -29.9490   17.8020 C   0  0  0  0  0  2  0  0  0  0  0  0
  -26.7020  -28.5340   17.7440 C   0  0  0  0  0  2  0  0  0  0  0  0
  -27.7080  -27.8470   18.7500 O   0  0  0  0  0  0  0  0  0  0  0  0
  -24.8010  -31.9250   23.2370 C   0  0  0  0  0  0  0  0  0  0  0  0
  -27.1760  -27.5180   19.9330 C   0  0  0  0  0  3  0  0  0  0  0  0
  -23.6120  -30.3040   21.7750 C   0  0  0  0  0  3  0  0  0  0  0  0
  -24.9160  -28.8510   20.3470 C   0  0  0  0  0  0  0  0  0  0  0  0
  -26.0730  -30.7370   21.5260 C   0  0  0  0  0  2  0  0  0  0  0  0
  -26.0920  -29.3710   20.8900 C   0  0  0  0  0  0  0  0  0  0  0  0
  -27.2600  -28.6420   20.7620 C   0  0  0  0  0  3  0  0  0  0  0  0
  -25.9810  -26.8160   19.7110 C   0  0  0  0  0  2  0  0  0  0  0  0
  -24.8000  -27.5550   19.8160 C   0  0  0  0  0  3  0  0  0  0  0  0
  -23.8040  -29.7860   20.4060 C   0  0  0  0  0  2  0  0  0  0  0  0
  -24.8520  -30.9160   22.3210 N   0  0  0  0  0  0  0  0  0  0  0  0
  -23.7630  -32.4700   23.5940 O   0  0  0  0  0  0  0  0  0  0  0  0
  -22.8850  -29.1010   22.3530 C   0  0  0  0  0  0  0  0  0  0  0  0
  -21.5320  -28.9760   22.2530 N   0  0  0  0  0  0  0  0  0  0  0  0
  -23.6000  -28.2850   22.8360 O   0  0  0  0  0  0  0  0  0  0  0  0
  -21.1060  -29.7790   21.8240 H   0  0  0  0  0  0  0  0  0  0  0  0
  -17.9710  -28.1040   22.7330 C   0  0  0  0  0  0  0  0  0  0  0  0
  -20.5440  -28.1530   22.9730 C   0  0  0  0  0  3  0  0  0  0  0  0
  -20.5650  -26.7530   22.3870 C   0  0  0  0  0  2  0  0  0  0  0  0
  -19.4600  -26.5740   21.3730 C   0  0  0  0  0  2  0  0  0  0  0  0
  -18.1000  -26.7630   22.0470 C   0  0  0  0  0  2  0  0  0  0  0  0
  -19.1200  -28.7710   23.2160 C   0  0  0  0  0  0  0  0  0  0  0  0
  -18.8650  -29.9420   23.9840 C   0  0  0  0  0  3  0  0  0  0  0  0
  -17.5960  -30.5300   24.1080 C   0  0  0  0  0  3  0  0  0  0  0  0
  -16.4870  -29.8710   23.5670 C   0  0  0  0  0  3  0  0  0  0  0  0
  -16.6770  -28.6390   22.9240 C   0  0  0  0  0  3  0  0  0  0  0  0
  -26.0650  -32.5130   23.8770 C   0  0  0  0  0  3  0  0  0  0  0  0
  -26.5160  -31.6630   25.1140 C   0  0  1  0  0  0  0  0  0  0  0  0
  -25.3950  -31.3890   26.1450 C   0  0  0  0  0  1  0  0  0  0  0  0
  -27.0920  -30.3040   24.6530 C   0  0  0  0  0  1  0  0  0  0  0  0
  -27.6560  -32.4090   25.8300 C   0  0  0  0  0  1  0  0  0  0  0  0
  -25.7310  -33.8870   24.2820 N   0  0  0  0  0  0  0  0  0  0  0  0
  -25.9450  -34.9620   23.5200 C   0  0  0  0  0  0  0  0  0  0  0  0
  -26.5730  -34.9010   22.4600 O   0  0  0  0  0  0  0  0  0  0  0  0
  -25.1280  -33.9790   25.0860 H   0  0  0  0  0  0  0  0  0  0  0  0
  -24.1470  -36.7210   23.2560 C   0  0  0  0  0  1  0  0  0  0  0  0
  -25.4140  -36.3130   24.0310 C   0  0  0  0  0  3  0  0  0  0  0  0
  -27.5580  -37.1930   24.8510 C   0  0  0  0  0  1  0  0  0  0  0  0
  -26.4200  -37.3950   23.9550 N   0  0  0  0  0  0  0  0  0  0  0  0
  -26.0000  -38.2950   24.1750 H   0  0  0  0  0  0  0  0  0  0  0  0
  -23.6900  -27.9530   25.3590 N   0  0  0  0  0  0  0  0  0  0  0  0
  -24.0640  -27.9240   26.3070 H   0  0  0  0  0  0  0  0  0  0  0  0
  -24.8350  -25.5020   24.8260 C   0  0  0  0  0  0  0  0  0  0  0  0
  -23.8100  -26.4950   24.7240 N   0  0  0  0  0  0  0  0  0  0  0  0
  -25.6480  -25.5930   25.7480 O   0  0  0  0  0  0  0  0  0  0  0  0
  -23.2080  -26.3490   23.9260 H   0  0  0  0  0  0  0  0  0  0  0  0
  -25.0530  -24.2130   23.7870 C   0  0  0  0  0  2  0  0  0  0  0  0
  -26.6580  -22.0980   23.0300 C   0  0  0  0  0  0  0  0  0  0  0  0
  -25.9210  -22.8860   23.9560 N   0  0  0  0  0  0  0  0  0  0  0  0
  -26.8720  -22.5940   21.9190 O   0  0  0  0  0  0  0  0  0  0  0  0
  -25.7970  -22.4390   24.8540 H   0  0  0  0  0  0  0  0  0  0  0  0
  -27.2460  -20.5530   23.2690 C   0  0  0  0  0  2  0  0  0  0  0  0
  -28.3150  -18.1640   22.3670 C   0  0  0  0  0  0  0  0  0  0  0  0
  -28.2310  -19.5720   22.5070 N   0  0  0  0  0  0  0  0  0  0  0  0
  -27.4330  -17.4740   22.8810 O   0  0  0  0  0  0  0  0  0  0  0  0
  -29.0150  -20.0590   22.0890 H   0  0  0  0  0  0  0  0  0  0  0  0
  -29.5090  -17.3330   21.5840 C   0  0  0  0  0  2  0  0  0  0  0  0
  -30.3900  -14.8290   20.7480 C   0  0  0  0  0  0  0  0  0  0  0  0
  -30.4400  -12.5690   19.5500 C   0  0  0  0  0  2  0  0  0  0  0  0
  -29.5330  -12.5920   18.2930 C   0  0  0  0  0  2  0  0  0  0  0  0
  -28.0510  -12.3620   18.6590 C   0  0  0  0  0  2  0  0  0  0  0  0
  -27.6270  -13.2200   19.8760 C   0  0  0  0  0  3  0  0  0  0  0  0
  -28.6240  -13.0670   21.0380 C   0  0  0  0  0  2  0  0  0  0  0  0
  -29.9100  -13.5470   20.5450 N   0  0  0  0  0  0  0  0  0  0  0  0
  -31.5190  -15.0920   20.3010 O   0  0  0  0  0  0  0  0  0  0  0  0
  -29.5170  -15.7760   21.3550 N   0  0  0  0  0  0  0  0  0  0  0  0
  -28.6580  -15.3510   21.6730 H   0  0  0  0  0  0  0  0  0  0  0  0
  -25.2390  -13.8180   20.5640 C   0  0  0  0  0  0  0  0  0  0  0  0
  -24.1680  -13.0380   20.9170 C   0  0  0  0  0  0  0  0  0  0  0  0
  -24.6280  -11.6890   20.8690 C   0  0  0  0  0  0  0  0  0  0  0  0
  -26.2740  -12.9310   20.3230 N   0  0  0  0  0  0  0  0  0  0  0  0
  -25.9180  -11.6460   20.5680 N   0  0  0  0  0  0  0  0  0  0  0  0
  -23.8980  -10.4260   21.0400 C   0  0  0  0  0  0  0  0  0  0  0  0
  -24.3560   -9.4190   21.9180 C   0  0  0  0  0  3  0  0  0  0  0  0
  -23.6260   -8.2210   22.0760 C   0  0  0  0  0  3  0  0  0  0  0  0
  -22.4240   -8.0240   21.3550 C   0  0  0  0  0  0  0  0  0  0  0  0
  -21.9850   -9.0190   20.4650 C   0  0  0  0  0  3  0  0  0  0  0  0
  -22.7150  -10.2090   20.3070 C   0  0  0  0  0  3  0  0  0  0  0  0
  -21.6610   -6.8840   21.4250 O   0  0  0  0  0  0  0  0  0  0  0  0
  -21.6830   -6.0730   22.5300 C   0  0  0  0  0  0  0  0  0  0  0  0
  -21.4000   -6.5640   23.8230 C   0  0  0  0  0  3  0  0  0  0  0  0
  -21.3660   -5.6800   24.9190 C   0  0  0  0  0  3  0  0  0  0  0  0
  -21.6040   -4.3060   24.7240 C   0  0  0  0  0  0  0  0  0  0  0  0
  -21.8800   -3.8150   23.4360 C   0  0  0  0  0  3  0  0  0  0  0  0
  -21.9180   -4.6960   22.3410 C   0  0  0  0  0  0  0  0  0  0  0  0
  -22.1660   -4.2160   21.0980 F   0  0  0  0  0  0  0  0  0  0  0  0
  -21.5620   -3.4540   25.7740 F   0  0  0  0  0  0  0  0  0  0  0  0
  -22.7740  -13.5220   21.1850 C   0  0  0  0  0  0  0  0  0  0  0  0
  -22.0390  -12.8220   22.0460 N   0  0  0  0  0  0  0  0  0  0  0  0
  -22.3420  -14.5510   20.6700 O   0  0  0  0  0  0  0  0  0  0  0  0
  -22.3980  -11.9870   22.4820 H   0  0  0  0  0  0  0  0  0  0  0  0
  -21.1050  -13.1340   22.2730 H   0  0  0  0  0  0  0  0  0  0  0  0
  -25.4100  -15.1870   20.4160 N   0  0  0  0  0  0  0  0  0  0  0  0
  -24.6460  -15.8400   20.5410 H   0  0  0  0  0  0  0  0  0  0  0  0
  -26.2770  -15.6400   20.1550 H   0  0  0  0  0  0  0  0  0  0  0  0
  1 56  1  0
  2  1  1  0
  2  4  2  0
  3  5  1  0
  3  2  1  0
  6  3  1  0
  7  6  1  0
  8  7  1  0
  9  8  1  0
 10 13  1  0
 10  9  1  0
 10 12  1  0
 11 10  1  0
 14 13  1  0
 14 15  1  0
 16 27  2  0
 17 15  1  0
 17 22  1  0
 18 26  1  0
 18 28  1  0
 19 25  1  0
 19 21  1  0
 20 26  1  0
 21 20  1  0
 22 21  2  0
 23 24  1  0
 23 17  1  0
 24 19  2  0
 25 18  1  0
 26 16  1  0
 28 30  2  0
 29 28  1  0
 31 29  1  0
 32 41  2  0
 32 37  1  0
 33 29  1  0
 33 37  1  0
 34 33  1  0
 35 36  1  0
 35 34  1  0
 36 32  1  0
 37 38  2  0
 38 39  1  0
 40 39  2  0
 41 40  1  0
 42 16  1  0
 42 47  1  0
 42 43  1  0
 43 46  1  1
 43 44  1  0
 45 43  1  0
 47 50  1  0
 48 52  1  0
 48 47  1  0
 49 48  2  0
 52 51  1  0
 54 52  1  0
 54 55  1  0
 54 53  1  0
 56 57  1  0
 58 60  2  0
 59 58  1  0
 59 56  1  0
 61 59  1  0
 62 64  1  0
 62 58  1  0
 63 67  1  0
 63 64  1  0
 64 66  1  0
 65 63  2  0
 68 69  1  0
 68 70  2  0
 69 67  1  0
 71 69  1  0
 72 68  1  0
 73 81  1  0
 74 79  1  0
 75 76  1  0
 75 74  1  0
 77 76  1  0
 77 86  1  0
 77 78  1  0
 79 73  1  0
 79 78  1  0
 80 73  2  0
 81 72  1  0
 81 82  1  0
 83 84  2  0
 84103  1  0
 85 84  1  0
 85 88  1  0
 86 83  1  0
 86 87  1  0
 87 85  2  0
 88 89  1  0
 89 90  2  0
 91 94  1  0
 91 90  1  0
 92 91  2  0
 93 92  1  0
 93 88  2  0
 94 95  1  0
 95 96  1  0
 96 97  2  0
 98 97  1  0
 98102  1  0
 99 98  2  0
100 95  2  0
100 99  1  0
101100  1  0
103104  1  0
104107  1  0
104106  1  0
105103  2  0
108109  1  0
108 83  1  0
110108  1  0
M  ISO  4  14 101  15 101  73 100  81 100
M  END
>  <TORSDO>  (70) 
F 31

>  <SCORE>  (70) 
40.148

>  <name>  (70) 
78

>  <ligand_id>  (70) 
78

>  <original_smiles>  (70) 
[H]c1c([H])c([H])c2c(c1[H])C([H])([H])C([H])([H])C([H])([H])C2([H])N([H])C(=O)C1([H])N(C(=O)C([H])(N([H])C(=O)C([H])(N([H])C([H])([H])[H])C([H])([H])[H])C(C([H])([H])[H])(C([H])([H])[H])C([H])([H])[H])C([H])([H])c2c([H])c(OC([H])([H])C([H])([H])[N+]([H])([H])C([H])([H])C([H])([H])C([H])([H])C([H])([H])N([H])C(=O)C([H])([H])N([H])N([H])C(=O)C([H])([H])N([H])C(=O)C([H])([H])N([H])C(=O)C([H])([H])N([H])C(=O)N3C([H])([H])C([H])([H])C([H])([H])C([H])(n4nc(-c5c([H])c([H])c(Oc6c([H])c([H])c(F)c([H])c6F)c([H])c5[H])c(C(=O)N([H])[H])c4N([H])[H])C3([H])[H])c([H])c([H])c2C1([H])[H]

>  <smiles>  (70) 
[H]c1c([H])c([H])c2c(c1[H])C([H])([H])C([H])([H])C([H])([H])C2([H])N([H])C(=O)C1([H])N(C(=O)C([H])(N([H])C(=O)C([H])(N([H])C([H])([H])[H])C([H])([H])[H])C(C([H])([H])[H])(C([H])([H])[H])C([H])([H])[H])C([H])([H])c2c([H])c(OC([H])([H])C([H])([H])[N+]([H])([H])C([H])([H])C([H])([H])C([H])([H])C([H])([H])N([H])C(=O)C([H])([H])N([H])N([H])C(=O)C([H])([H])N([H])C(=O)C([H])([H])N([H])C(=O)C([H])([H])N([H])C(=O)N3C([H])([H])C([H])([H])C([H])([H])C([H])(n4nc(-c5c([H])c([H])c(Oc6c([H])c([H])c(F)c([H])c6F)c([H])c5[H])c(C(=O)N([H])[H])c4N([H])[H])C3([H])[H])c([H])c([H])c2C1([H])[H]

$$$$
79:0:0
     RDKit          3D

105112  0  0  1  0  0  0  0  0999 V2000
  -30.2470  -22.2940   18.5650 C   0  0  0  0  0  0  0  0  0  0  0  0
  -31.1940  -22.4140   17.6280 N   0  0  0  0  0  0  0  0  0  0  0  0
  -29.0910  -21.9480   18.3090 O   0  0  0  0  0  0  0  0  0  0  0  0
  -32.1270  -22.6490   17.9380 H   0  0  0  0  0  0  0  0  0  0  0  0
  -31.0040  -22.2380   16.1920 C   0  0  0  0  0  2  0  0  0  0  0  0
  -30.4640  -23.5170   15.5170 C   0  0  0  0  0  2  0  0  0  0  0  0
  -31.2020  -24.8060   15.9280 C   0  0  0  0  0  2  0  0  0  0  0  0
  -30.7810  -26.0220   15.0830 C   0  0  0  0  0  2  0  0  0  0  0  0
  -31.5090  -27.3360   15.4350 C   0  0  0  0  0  2  0  0  0  0  0  0
  -30.9110  -28.1120   16.6260 C   0  0  0  0  0  2  0  0  0  0  0  0
  -31.2850  -27.5190   17.9270 N   0  0  0  0  0  4  0  0  0  0  0  0
  -32.1700  -27.9200   18.2020 H   0  0  0  0  0  0  0  0  0  0  0  0
  -31.4420  -26.5310   17.8040 H   0  0  0  0  0  0  0  0  0  0  0  0
  -30.3120  -27.7270   19.0250 C   0  0  0  0  0  2  0  0  0  0  0  0
  -29.1250  -26.7480   18.9580 C   0  0  0  0  0  2  0  0  0  0  0  0
  -28.4320  -26.7710   20.2000 O   0  0  0  0  0  0  0  0  0  0  0  0
  -24.5820  -31.8960   23.2450 C   0  0  0  0  0  0  0  0  0  0  0  0
  -27.2620  -27.4820   20.1940 C   0  0  0  0  0  0  0  0  0  0  0  0
  -23.3840  -30.4760   21.6090 C   0  0  0  0  0  3  0  0  0  0  0  0
  -24.8500  -28.9330   20.2010 C   0  0  0  0  0  0  0  0  0  0  0  0
  -25.9020  -30.8540   21.4120 C   0  0  0  0  0  2  0  0  0  0  0  0
  -25.9990  -29.4780   20.7920 C   0  0  0  0  0  0  0  0  0  0  0  0
  -27.2060  -28.7510   20.7990 C   0  0  0  0  0  3  0  0  0  0  0  0
  -26.1020  -26.9320   19.6100 C   0  0  0  0  0  3  0  0  0  0  0  0
  -24.8930  -27.6550   19.6130 C   0  0  0  0  0  3  0  0  0  0  0  0
  -23.6000  -29.7840   20.2350 C   0  0  0  0  0  2  0  0  0  0  0  0
  -24.6400  -31.0910   22.1470 N   0  0  0  0  0  0  0  0  0  0  0  0
  -23.5000  -32.1680   23.7830 O   0  0  0  0  0  0  0  0  0  0  0  0
  -22.7370  -29.4590   22.5770 C   0  0  0  0  0  0  0  0  0  0  0  0
  -21.4130  -29.2780   22.4520 N   0  0  0  0  0  0  0  0  0  0  0  0
  -23.4210  -28.8350   23.3930 O   0  0  0  0  0  0  0  0  0  0  0  0
  -20.9220  -29.8350   21.7660 H   0  0  0  0  0  0  0  0  0  0  0  0
  -18.0370  -28.0980   22.9620 C   0  0  0  0  0  0  0  0  0  0  0  0
  -20.5960  -28.3480   23.2290 C   0  0  0  0  0  3  0  0  0  0  0  0
  -20.6910  -26.9140   22.6570 C   0  0  0  0  0  2  0  0  0  0  0  0
  -19.5870  -26.5920   21.6460 C   0  0  0  0  0  2  0  0  0  0  0  0
  -18.2070  -26.7450   22.2930 C   0  0  0  0  0  2  0  0  0  0  0  0
  -19.1590  -28.8570   23.3870 C   0  0  0  0  0  0  0  0  0  0  0  0
  -18.9480  -30.1250   23.9710 C   0  0  0  0  0  3  0  0  0  0  0  0
  -17.6460  -30.6330   24.1380 C   0  0  0  0  0  3  0  0  0  0  0  0
  -16.5390  -29.8700   23.7300 C   0  0  0  0  0  3  0  0  0  0  0  0
  -16.7350  -28.6060   23.1460 C   0  0  0  0  0  3  0  0  0  0  0  0
  -25.8670  -32.5340   23.8630 C   0  0  0  0  0  3  0  0  0  0  0  0
  -25.5530  -33.9300   24.1930 N   0  0  0  0  0  0  0  0  0  0  0  0
  -25.8780  -34.9820   23.4310 C   0  0  0  0  0  0  0  0  0  0  0  0
  -26.5480  -34.8830   22.3990 O   0  0  0  0  0  0  0  0  0  0  0  0
  -24.9560  -34.0800   24.9920 H   0  0  0  0  0  0  0  0  0  0  0  0
  -24.1360  -36.7600   23.0750 C   0  0  0  0  0  1  0  0  0  0  0  0
  -25.3810  -36.3670   23.8860 C   0  0  0  0  0  3  0  0  0  0  0  0
  -27.5150  -37.2630   24.7070 C   0  0  0  0  0  1  0  0  0  0  0  0
  -26.4060  -37.4270   23.7700 N   0  0  0  0  0  0  0  0  0  0  0  0
  -25.9940  -38.3430   23.9230 H   0  0  0  0  0  0  0  0  0  0  0  0
  -26.3970  -31.7620   25.1350 C   0  0  1  0  0  0  0  0  0  0  0  0
  -25.3130  -31.5160   26.2090 C   0  0  0  0  0  1  0  0  0  0  0  0
  -26.9870  -30.3890   24.7350 C   0  0  0  0  0  1  0  0  0  0  0  0
  -27.5450  -32.5630   25.7930 C   0  0  0  0  0  1  0  0  0  0  0  0
  -30.6490  -22.6440   20.0010 C   0  0  0  0  0  2  0  0  0  0  0  0
  -30.6880  -20.4630   21.1640 C   0  0  0  0  0  0  0  0  0  0  0  0
  -30.1370  -21.6590   20.9470 N   0  0  0  0  0  0  0  0  0  0  0  0
  -31.7380  -20.1120   20.6180 O   0  0  0  0  0  0  0  0  0  0  0  0
  -29.2620  -21.8740   21.4050 H   0  0  0  0  0  0  0  0  0  0  0  0
  -29.9550  -19.5430   22.1440 C   0  0  0  0  0  2  0  0  0  0  0  0
  -30.4400  -17.1820   21.5610 C   0  0  0  0  0  0  0  0  0  0  0  0
  -30.6400  -18.2650   22.3120 N   0  0  0  0  0  0  0  0  0  0  0  0
  -29.6000  -17.1410   20.6580 O   0  0  0  0  0  0  0  0  0  0  0  0
  -31.3760  -18.2340   23.0040 H   0  0  0  0  0  0  0  0  0  0  0  0
  -31.3100  -15.9660   21.8880 C   0  0  0  0  0  2  0  0  0  0  0  0
  -30.9040  -14.1570   20.2280 C   0  0  0  0  0  0  0  0  0  0  0  0
  -30.3630  -12.1720   18.8680 C   0  0  0  0  0  2  0  0  0  0  0  0
  -29.3510  -12.4780   17.7500 C   0  0  0  0  0  2  0  0  0  0  0  0
  -27.9070  -12.3710   18.2710 C   0  0  0  0  0  2  0  0  0  0  0  0
  -27.6900  -13.1730   19.5800 C   0  0  0  0  0  3  0  0  0  0  0  0
  -28.7920  -12.8430   20.6110 C   0  0  0  0  0  2  0  0  0  0  0  0
  -30.1110  -13.0840   19.9920 N   0  0  0  0  0  0  0  0  0  0  0  0
  -31.8210  -14.5140   19.4810 O   0  0  0  0  0  0  0  0  0  0  0  0
  -30.6900  -14.7360   21.4110 N   0  0  0  0  0  0  0  0  0  0  0  0
  -29.9450  -14.3550   21.9720 H   0  0  0  0  0  0  0  0  0  0  0  0
  -25.3550  -13.8600   20.4240 C   0  0  0  0  0  0  0  0  0  0  0  0
  -24.2820  -13.1210   20.8470 C   0  0  0  0  0  0  0  0  0  0  0  0
  -24.6920  -11.7540   20.7770 C   0  0  0  0  0  0  0  0  0  0  0  0
  -26.3540  -12.9450   20.1290 N   0  0  0  0  0  0  0  0  0  0  0  0
  -25.9600  -11.6730   20.3930 N   0  0  0  0  0  0  0  0  0  0  0  0
  -23.9350  -10.5160   20.9980 C   0  0  0  0  0  0  0  0  0  0  0  0
  -24.3890   -9.5210   21.8910 C   0  0  0  0  0  3  0  0  0  0  0  0
  -23.6350   -8.3470   22.1010 C   0  0  0  0  0  3  0  0  0  0  0  0
  -22.4100   -8.1590   21.4170 C   0  0  0  0  0  0  0  0  0  0  0  0
  -21.9740   -9.1420   20.5100 C   0  0  0  0  0  3  0  0  0  0  0  0
  -22.7280  -10.3080   20.3000 C   0  0  0  0  0  3  0  0  0  0  0  0
  -21.6240   -7.0390   21.5360 O   0  0  0  0  0  0  0  0  0  0  0  0
  -21.6210   -6.2810   22.6790 C   0  0  0  0  0  0  0  0  0  0  0  0
  -21.3160   -6.8350   23.9420 C   0  0  0  0  0  3  0  0  0  0  0  0
  -21.2560   -6.0050   25.0790 C   0  0  0  0  0  3  0  0  0  0  0  0
  -21.4930   -4.6230   24.9560 C   0  0  0  0  0  0  0  0  0  0  0  0
  -21.7940   -4.0690   23.7000 C   0  0  0  0  0  3  0  0  0  0  0  0
  -21.8540   -4.8950   22.5640 C   0  0  0  0  0  0  0  0  0  0  0  0
  -22.1230   -4.3520   21.3520 F   0  0  0  0  0  0  0  0  0  0  0  0
  -21.4300   -3.8240   26.0470 F   0  0  0  0  0  0  0  0  0  0  0  0
  -22.9200  -13.6410   21.2060 C   0  0  0  0  0  0  0  0  0  0  0  0
  -22.2260  -12.9670   22.1170 N   0  0  0  0  0  0  0  0  0  0  0  0
  -22.4830  -14.6810   20.7150 O   0  0  0  0  0  0  0  0  0  0  0  0
  -22.5920  -12.1250   22.5340 H   0  0  0  0  0  0  0  0  0  0  0  0
  -21.3150  -13.2990   22.3990 H   0  0  0  0  0  0  0  0  0  0  0  0
  -25.5580  -15.2260   20.2530 N   0  0  0  0  0  0  0  0  0  0  0  0
  -24.8300  -15.9110   20.4230 H   0  0  0  0  0  0  0  0  0  0  0  0
  -26.4190  -15.6400   19.9140 H   0  0  0  0  0  0  0  0  0  0  0  0
  1 57  1  0
  2  4  1  0
  2  1  1  0
  3  1  2  0
  5  2  1  0
  6  7  1  0
  6  5  1  0
  8  9  1  0
  8  7  1  0
  9 10  1  0
 10 11  1  0
 11 12  1  0
 11 14  1  0
 13 11  1  0
 15 14  1  0
 15 16  1  0
 17 28  2  0
 18 16  1  0
 18 23  1  0
 19 27  1  0
 19 29  1  0
 20 26  1  0
 20 22  1  0
 21 27  1  0
 22 23  2  0
 22 21  1  0
 24 25  1  0
 24 18  2  0
 25 20  2  0
 26 19  1  0
 27 17  1  0
 29 31  2  0
 30 29  1  0
 32 30  1  0
 33 42  2  0
 33 38  1  0
 34 30  1  0
 34 38  1  0
 35 34  1  0
 36 37  1  0
 36 35  1  0
 37 33  1  0
 38 39  2  0
 39 40  1  0
 41 40  2  0
 42 41  1  0
 43 17  1  0
 43 44  1  0
 43 53  1  0
 44 47  1  0
 45 49  1  0
 45 44  1  0
 46 45  2  0
 49 48  1  0
 51 49  1  0
 51 52  1  0
 51 50  1  0
 53 56  1  1
 53 54  1  0
 55 53  1  0
 57 59  1  0
 58 62  1  0
 59 58  1  0
 59 61  1  0
 60 58  2  0
 62 64  1  0
 63 67  1  0
 63 64  1  0
 64 66  1  0
 65 63  2  0
 68 76  1  0
 69 74  1  0
 70 71  1  0
 70 69  1  0
 72 71  1  0
 72 81  1  0
 72 73  1  0
 74 68  1  0
 74 73  1  0
 75 68  2  0
 76 67  1  0
 76 77  1  0
 78 79  2  0
 79 98  1  0
 80 79  1  0
 80 83  1  0
 81 82  1  0
 81 78  1  0
 82 80  2  0
 83 84  1  0
 84 85  2  0
 86 89  1  0
 86 85  1  0
 87 86  2  0
 88 87  1  0
 88 83  2  0
 89 90  1  0
 90 91  1  0
 91 92  2  0
 93 92  1  0
 93 97  1  0
 94 93  2  0
 95 90  2  0
 95 94  1  0
 96 95  1  0
 98 99  1  0
 99102  1  0
 99101  1  0
100 98  2  0
103104  1  0
103 78  1  0
105103  1  0
M  ISO  4  15 101  16 101  68 100  76 100
M  END
>  <TORSDO>  (71) 
F 30

>  <SCORE>  (71) 
-10.501

>  <name>  (71) 
79

>  <ligand_id>  (71) 
79

>  <original_smiles>  (71) 
[H]c1c([H])c([H])c2c(c1[H])C([H])([H])C([H])([H])C([H])([H])C2([H])N([H])C(=O)C1([H])N(C(=O)C([H])(N([H])C(=O)C([H])(N([H])C([H])([H])[H])C([H])([H])[H])C(C([H])([H])[H])(C([H])([H])[H])C([H])([H])[H])C([H])([H])c2c([H])c(OC([H])([H])C([H])([H])[N+]([H])([H])C([H])([H])C([H])([H])C([H])([H])C([H])([H])C([H])([H])C([H])([H])N([H])C(=O)C([H])([H])N([H])C(=O)C([H])([H])N([H])C(=O)C([H])([H])N([H])C(=O)N3C([H])([H])C([H])([H])C([H])([H])C([H])(n4nc(-c5c([H])c([H])c(Oc6c([H])c([H])c(F)c([H])c6F)c([H])c5[H])c(C(=O)N([H])[H])c4N([H])[H])C3([H])[H])c([H])c([H])c2C1([H])[H]

>  <smiles>  (71) 
[H]c1c([H])c([H])c2c(c1[H])C([H])([H])C([H])([H])C([H])([H])C2([H])N([H])C(=O)C1([H])N(C(=O)C([H])(N([H])C(=O)C([H])(N([H])C([H])([H])[H])C([H])([H])[H])C(C([H])([H])[H])(C([H])([H])[H])C([H])([H])[H])C([H])([H])c2c([H])c(OC([H])([H])C([H])([H])[N+]([H])([H])C([H])([H])C([H])([H])C([H])([H])C([H])([H])C([H])([H])C([H])([H])N([H])C(=O)C([H])([H])N([H])C(=O)C([H])([H])N([H])C(=O)C([H])([H])N([H])C(=O)N3C([H])([H])C([H])([H])C([H])([H])C([H])(n4nc(-c5c([H])c([H])c(Oc6c([H])c([H])c(F)c([H])c6F)c([H])c5[H])c(C(=O)N([H])[H])c4N([H])[H])C3([H])[H])c([H])c([H])c2C1([H])[H]

$$$$
80:0:0
     RDKit          3D

111118  0  0  1  0  0  0  0  0999 V2000
  -25.6280  -22.6710   17.5180 C   0  0  0  0  0  2  0  0  0  0  0  0
  -27.9580  -21.9160   17.0290 C   0  0  0  0  0  0  0  0  0  0  0  0
  -26.9660  -22.8130   16.9520 N   0  0  0  0  0  0  0  0  0  0  0  0
  -27.8170  -20.8090   17.5500 O   0  0  0  0  0  0  0  0  0  0  0  0
  -27.1680  -23.6900   16.4890 H   0  0  0  0  0  0  0  0  0  0  0  0
  -29.3090  -22.3260   16.4350 C   0  0  0  0  0  2  0  0  0  0  0  0
  -30.2370  -23.0470   17.4410 C   0  0  0  0  0  2  0  0  0  0  0  0
  -31.7020  -21.3670   18.5650 C   0  0  0  0  0  0  0  0  0  0  0  0
  -30.6610  -22.2070   18.5630 N   0  0  0  0  0  0  0  0  0  0  0  0
  -32.4420  -21.2190   17.5900 O   0  0  0  0  0  0  0  0  0  0  0  0
  -30.1110  -22.2580   19.4100 H   0  0  0  0  0  0  0  0  0  0  0  0
  -31.9460  -20.5880   19.8610 C   0  0  0  0  0  2  0  0  0  0  0  0
  -32.3460  -19.1190   19.6180 C   0  0  0  0  0  2  0  0  0  0  0  0
  -30.9390  -17.5780   20.9770 C   0  0  0  0  0  0  0  0  0  0  0  0
  -32.0630  -18.2780   20.7810 N   0  0  0  0  0  0  0  0  0  0  0  0
  -29.9790  -17.6260   20.2060 O   0  0  0  0  0  0  0  0  0  0  0  0
  -32.8030  -18.1700   21.4640 H   0  0  0  0  0  0  0  0  0  0  0  0
  -30.8810  -16.6740   22.2150 C   0  0  0  0  0  2  0  0  0  0  0  0
  -30.9450  -14.4800   21.0500 C   0  0  0  0  0  0  0  0  0  0  0  0
  -30.6480  -12.4210   19.7300 C   0  0  0  0  0  2  0  0  0  0  0  0
  -29.7870  -12.6980   18.4810 C   0  0  0  0  0  2  0  0  0  0  0  0
  -28.2880  -12.5770   18.8120 C   0  0  0  0  0  2  0  0  0  0  0  0
  -27.8880  -13.3730   20.0820 C   0  0  0  0  0  3  0  0  0  0  0  0
  -28.8600  -13.0700   21.2440 C   0  0  0  0  0  2  0  0  0  0  0  0
  -30.2320  -13.3550   20.7840 N   0  0  0  0  0  0  0  0  0  0  0  0
  -32.0430  -14.7210   20.5420 O   0  0  0  0  0  0  0  0  0  0  0  0
  -30.3620  -15.3440   21.8900 N   0  0  0  0  0  0  0  0  0  0  0  0
  -29.4530  -15.1000   22.2490 H   0  0  0  0  0  0  0  0  0  0  0  0
  -25.4670  -14.0120   20.6870 C   0  0  0  0  0  0  0  0  0  0  0  0
  -24.3560  -13.2510   20.9380 C   0  0  0  0  0  0  0  0  0  0  0  0
  -24.7790  -11.8910   20.8340 C   0  0  0  0  0  0  0  0  0  0  0  0
  -26.5000  -13.1140   20.4590 N   0  0  0  0  0  0  0  0  0  0  0  0
  -26.0840  -11.8300   20.5980 N   0  0  0  0  0  0  0  0  0  0  0  0
  -24.0080  -10.6430   20.8900 C   0  0  0  0  0  0  0  0  0  0  0  0
  -24.3690   -9.5870   21.7560 C   0  0  0  0  0  3  0  0  0  0  0  0
  -23.6010   -8.4050   21.8050 C   0  0  0  0  0  3  0  0  0  0  0  0
  -22.4550   -8.2690   20.9840 C   0  0  0  0  0  0  0  0  0  0  0  0
  -22.1120   -9.3120   20.1080 C   0  0  0  0  0  3  0  0  0  0  0  0
  -22.8810  -10.4880   20.0570 C   0  0  0  0  0  3  0  0  0  0  0  0
  -21.6640   -7.1460   20.9460 O   0  0  0  0  0  0  0  0  0  0  0  0
  -21.5480   -6.3090   22.0260 C   0  0  0  0  0  0  0  0  0  0  0  0
  -21.1070   -6.7730   23.2850 C   0  0  0  0  0  3  0  0  0  0  0  0
  -20.9370   -5.8650   24.3490 C   0  0  0  0  0  3  0  0  0  0  0  0
  -21.1960   -4.4960   24.1560 C   0  0  0  0  0  0  0  0  0  0  0  0
  -21.6300   -4.0310   22.9020 C   0  0  0  0  0  3  0  0  0  0  0  0
  -21.8030   -4.9350   21.8390 C   0  0  0  0  0  0  0  0  0  0  0  0
  -22.1990   -4.4790   20.6270 F   0  0  0  0  0  0  0  0  0  0  0  0
  -21.0250   -3.6220   25.1760 F   0  0  0  0  0  0  0  0  0  0  0  0
  -22.9600  -13.7540   21.1650 C   0  0  0  0  0  0  0  0  0  0  0  0
  -22.1650  -13.0250   21.9420 N   0  0  0  0  0  0  0  0  0  0  0  0
  -22.5800  -14.8250   20.6940 O   0  0  0  0  0  0  0  0  0  0  0  0
  -22.4830  -12.1570   22.3470 H   0  0  0  0  0  0  0  0  0  0  0  0
  -21.2250  -13.3400   22.1360 H   0  0  0  0  0  0  0  0  0  0  0  0
  -25.6820  -15.3840   20.6180 N   0  0  0  0  0  0  0  0  0  0  0  0
  -24.9290  -16.0560   20.7200 H   0  0  0  0  0  0  0  0  0  0  0  0
  -26.5670  -15.8160   20.3770 H   0  0  0  0  0  0  0  0  0  0  0  0
  -25.2370  -24.1030   19.5710 C   0  0  0  0  0  3  0  0  0  0  0  0
  -25.6410  -22.9500   19.0090 C   0  0  0  0  0  3  0  0  0  0  0  0
  -25.3050  -24.2700   21.0080 C   0  0  0  0  0  0  0  0  0  0  0  0
  -25.5700  -25.5370   21.3520 N   0  0  0  0  0  0  0  0  0  0  0  0
  -25.1830  -23.3690   21.8390 O   0  0  0  0  0  0  0  0  0  0  0  0
  -25.6140  -26.2290   20.6150 H   0  0  0  0  0  0  0  0  0  0  0  0
  -25.7690  -26.0030   22.7240 C   0  0  0  0  0  2  0  0  0  0  0  0
  -27.0400  -25.4360   23.4080 C   0  0  0  0  0  2  0  0  0  0  0  0
  -28.3050  -25.9410   22.8250 N   0  0  0  0  0  4  0  0  0  0  0  0
  -28.1790  -26.9140   22.6060 H   0  0  0  0  0  0  0  0  0  0  0  0
  -29.0030  -25.8800   23.5520 H   0  0  0  0  0  0  0  0  0  0  0  0
  -28.8320  -25.1990   21.6530 C   0  0  0  0  0  2  0  0  0  0  0  0
  -29.9230  -25.9770   20.8850 C   0  0  0  0  0  2  0  0  0  0  0  0
  -29.4320  -27.3140   20.3030 C   0  0  0  0  0  2  0  0  0  0  0  0
  -28.3650  -27.0330   19.4020 O   0  0  0  0  0  0  0  0  0  0  0  0
  -24.3720  -31.7180   23.0470 C   0  0  0  0  0  0  0  0  0  0  0  0
  -27.1890  -27.7320   19.5520 C   0  0  0  0  0  0  0  0  0  0  0  0
  -23.1970  -30.3770   21.3250 C   0  0  0  0  0  3  0  0  0  0  0  0
  -24.6980  -29.0470   19.7490 C   0  0  0  0  0  0  0  0  0  0  0  0
  -25.6870  -30.9090   21.0990 C   0  0  0  0  0  2  0  0  0  0  0  0
  -25.8340  -29.6030   20.3510 C   0  0  0  0  0  0  0  0  0  0  0  0
  -27.0810  -28.9520   20.2570 C   0  0  0  0  0  3  0  0  0  0  0  0
  -26.0420  -27.1900   18.9420 C   0  0  0  0  0  3  0  0  0  0  0  0
  -24.7930  -27.8330   19.0460 C   0  0  0  0  0  3  0  0  0  0  0  0
  -23.4050  -29.8180   19.8920 C   0  0  0  0  0  2  0  0  0  0  0  0
  -24.4340  -31.0140   21.8820 N   0  0  0  0  0  0  0  0  0  0  0  0
  -23.2970  -31.8830   23.6380 O   0  0  0  0  0  0  0  0  0  0  0  0
  -22.6370  -29.2480   22.2190 C   0  0  0  0  0  0  0  0  0  0  0  0
  -21.3280  -28.9780   22.0900 N   0  0  0  0  0  0  0  0  0  0  0  0
  -23.3760  -28.6190   22.9810 O   0  0  0  0  0  0  0  0  0  0  0  0
  -20.7920  -29.5390   21.4440 H   0  0  0  0  0  0  0  0  0  0  0  0
  -18.0690  -27.4710   22.4780 C   0  0  0  0  0  0  0  0  0  0  0  0
  -20.5900  -27.9330   22.7990 C   0  0  0  0  0  3  0  0  0  0  0  0
  -20.8250  -26.5490   22.1500 C   0  0  0  0  0  2  0  0  0  0  0  0
  -19.7650  -26.1860   21.1050 C   0  0  0  0  0  2  0  0  0  0  0  0
  -18.3680  -26.1790   21.7350 C   0  0  0  0  0  2  0  0  0  0  0  0
  -19.1120  -28.3020   22.9610 C   0  0  0  0  0  0  0  0  0  0  0  0
  -18.7800  -29.5090   23.6120 C   0  0  0  0  0  3  0  0  0  0  0  0
  -17.4350  -29.8880   23.7850 C   0  0  0  0  0  3  0  0  0  0  0  0
  -16.4060  -29.0530   23.3190 C   0  0  0  0  0  3  0  0  0  0  0  0
  -16.7230  -27.8470   22.6710 C   0  0  0  0  0  3  0  0  0  0  0  0
  -25.6430  -32.3700   23.6790 C   0  0  0  0  0  3  0  0  0  0  0  0
  -25.2960  -33.7460   24.0500 N   0  0  0  0  0  0  0  0  0  0  0  0
  -25.6150  -34.8310   23.3310 C   0  0  0  0  0  0  0  0  0  0  0  0
  -26.3050  -34.7790   22.3080 O   0  0  0  0  0  0  0  0  0  0  0  0
  -24.6920  -33.8580   24.8510 H   0  0  0  0  0  0  0  0  0  0  0  0
  -23.8530  -36.5900   22.9890 C   0  0  0  0  0  1  0  0  0  0  0  0
  -25.0810  -36.1890   23.8220 C   0  0  0  0  0  3  0  0  0  0  0  0
  -27.1730  -37.0890   24.7360 C   0  0  0  0  0  1  0  0  0  0  0  0
  -26.0910  -37.2710   23.7750 N   0  0  0  0  0  0  0  0  0  0  0  0
  -25.6570  -38.1720   23.9550 H   0  0  0  0  0  0  0  0  0  0  0  0
  -26.1970  -31.5800   24.9280 C   0  0  1  0  0  0  0  0  0  0  0  0
  -25.1230  -31.2750   25.9980 C   0  0  0  0  0  1  0  0  0  0  0  0
  -26.8230  -30.2350   24.4900 C   0  0  0  0  0  1  0  0  0  0  0  0
  -27.3290  -32.3910   25.6030 C   0  0  0  0  0  1  0  0  0  0  0  0
  1 58  1  0
  2  4  2  0
  3  2  1  0
  3  1  1  0
  5  3  1  0
  6  2  1  0
  6  7  1  0
  7  9  1  0
  8 12  1  0
  9  8  1  0
  9 11  1  0
 10  8  2  0
 13 12  1  0
 13 15  1  0
 14 18  1  0
 15 14  1  0
 15 17  1  0
 16 14  2  0
 19 27  1  0
 20 25  1  0
 21 22  1  0
 21 20  1  0
 23 22  1  0
 23 32  1  0
 23 24  1  0
 25 19  1  0
 25 24  1  0
 26 19  2  0
 27 18  1  0
 27 28  1  0
 29 30  2  0
 30 49  1  0
 31 34  1  0
 31 30  1  0
 32 33  1  0
 32 29  1  0
 33 31  2  0
 34 35  1  0
 35 36  2  0
 37 36  1  0
 38 37  2  0
 39 38  1  0
 39 34  2  0
 40 37  1  0
 40 41  1  0
 41 42  1  0
 42 43  2  0
 44 43  1  0
 44 48  1  0
 45 44  2  0
 46 41  2  0
 46 45  1  0
 47 46  1  0
 49 50  1  0
 50 53  1  0
 50 52  1  0
 51 49  2  0
 54 29  1  0
 54 55  1  0
 56 54  1  0
 57 59  1  0
 58 57  2  0
 59 60  1  0
 59 61  2  0
 60 63  1  0
 62 60  1  0
 63 64  1  0
 65 64  1  0
 65 67  1  0
 66 65  1  0
 68 65  1  0
 69 68  1  0
 70 69  1  0
 71 73  1  0
 71 70  1  0
 72 83  2  0
 73 78  1  0
 74 82  1  0
 74 84  1  0
 75 81  1  0
 75 77  1  0
 76 82  1  0
 77 76  1  0
 78 77  2  0
 79 80  1  0
 79 73  2  0
 80 75  2  0
 81 74  1  0
 82 72  1  0
 84 86  2  0
 85 84  1  0
 87 85  1  0
 88 97  2  0
 88 93  1  0
 89 85  1  0
 89 93  1  0
 90 89  1  0
 91 92  1  0
 91 90  1  0
 92 88  1  0
 93 94  2  0
 94 95  1  0
 96 95  2  0
 97 96  1  0
 98 72  1  0
 98 99  1  0
 98108  1  0
 99102  1  0
100104  1  0
100 99  1  0
101100  2  0
104103  1  0
106104  1  0
106107  1  0
106105  1  0
108111  1  1
108109  1  0
110108  1  0
M  ISO  4  19 100  27 100  70 101  71 101
M  END
>  <TORSDO>  (72) 
F 32

>  <SCORE>  (72) 
-8.892

>  <name>  (72) 
80

>  <ligand_id>  (72) 
80

>  <original_smiles>  (72) 
[H]C(C(=O)N([H])C([H])([H])C([H])([H])[N+]([H])([H])C([H])([H])C([H])([H])C([H])([H])Oc1c([H])c([H])c2c(c1[H])C([H])([H])N(C(=O)C([H])(N([H])C(=O)C([H])(N([H])C([H])([H])[H])C([H])([H])[H])C(C([H])([H])[H])(C([H])([H])[H])C([H])([H])[H])C([H])(C(=O)N([H])C1([H])c3c([H])c([H])c([H])c([H])c3C([H])([H])C([H])([H])C1([H])[H])C2([H])[H])=C([H])C([H])([H])N([H])C(=O)C([H])([H])C([H])([H])N([H])C(=O)C([H])([H])C([H])([H])N([H])C(=O)C([H])([H])N([H])C(=O)N1C([H])([H])C([H])([H])C([H])([H])C([H])(n2nc(-c3c([H])c([H])c(Oc4c([H])c([H])c(F)c([H])c4F)c([H])c3[H])c(C(=O)N([H])[H])c2N([H])[H])C1([H])[H]

>  <smiles>  (72) 
[H]C(C(=O)N([H])C([H])([H])C([H])([H])[N+]([H])([H])C([H])([H])C([H])([H])C([H])([H])Oc1c([H])c([H])c2c(c1[H])C([H])([H])N(C(=O)C([H])(N([H])C(=O)C([H])(N([H])C([H])([H])[H])C([H])([H])[H])C(C([H])([H])[H])(C([H])([H])[H])C([H])([H])[H])C([H])(C(=O)N([H])C1([H])c3c([H])c([H])c([H])c([H])c3C([H])([H])C([H])([H])C1([H])[H])C2([H])[H])=C([H])C([H])([H])N([H])C(=O)C([H])([H])C([H])([H])N([H])C(=O)C([H])([H])C([H])([H])N([H])C(=O)C([H])([H])N([H])C(=O)N1C([H])([H])C([H])([H])C([H])([H])C([H])(n2nc(-c3c([H])c([H])c(Oc4c([H])c([H])c(F)c([H])c4F)c([H])c3[H])c(C(=O)N([H])[H])c2N([H])[H])C1([H])[H]

$$$$
81:0:0
     RDKit          3D

103110  0  0  1  0  0  0  0  0999 V2000
  -31.7490  -19.5470   20.4820 C   0  0  0  0  0  3  0  0  0  0  0  0
  -30.7650  -17.3850   21.3310 C   0  0  0  0  0  0  0  0  0  0  0  0
  -31.7440  -18.2950   21.2440 N   0  0  0  0  0  0  0  0  0  0  0  0
  -29.6710  -17.5030   20.7760 O   0  0  0  0  0  0  0  0  0  0  0  0
  -32.5960  -18.0840   21.7460 H   0  0  0  0  0  0  0  0  0  0  0  0
  -31.0590  -16.1450   22.1780 C   0  0  0  0  0  2  0  0  0  0  0  0
  -30.6220  -14.3930   20.4740 C   0  0  0  0  0  0  0  0  0  0  0  0
  -30.2040  -12.3870   19.1060 C   0  0  0  0  0  2  0  0  0  0  0  0
  -29.2090  -12.6360   17.9610 C   0  0  0  0  0  2  0  0  0  0  0  0
  -27.7610  -12.4540   18.4490 C   0  0  0  0  0  2  0  0  0  0  0  0
  -27.4700  -13.2460   19.7490 C   0  0  0  0  0  3  0  0  0  0  0  0
  -28.5620  -12.9830   20.8080 C   0  0  0  0  0  2  0  0  0  0  0  0
  -29.8810  -13.2880   20.2190 N   0  0  0  0  0  0  0  0  0  0  0  0
  -31.5430  -14.7830   19.7500 O   0  0  0  0  0  0  0  0  0  0  0  0
  -30.3700  -14.9690   21.6550 N   0  0  0  0  0  0  0  0  0  0  0  0
  -29.6200  -14.5840   22.2070 H   0  0  0  0  0  0  0  0  0  0  0  0
  -25.0840  -13.8050   20.5500 C   0  0  0  0  0  0  0  0  0  0  0  0
  -24.0410  -13.0080   20.9390 C   0  0  0  0  0  0  0  0  0  0  0  0
  -24.5210  -11.6650   20.8620 C   0  0  0  0  0  0  0  0  0  0  0  0
  -26.1350  -12.9460   20.2660 N   0  0  0  0  0  0  0  0  0  0  0  0
  -25.7990  -11.6520   20.5070 N   0  0  0  0  0  0  0  0  0  0  0  0
  -23.8210  -10.3880   21.0510 C   0  0  0  0  0  0  0  0  0  0  0  0
  -24.2990   -9.4090   21.9510 C   0  0  0  0  0  3  0  0  0  0  0  0
  -23.5990   -8.1960   22.1280 C   0  0  0  0  0  3  0  0  0  0  0  0
  -22.4070   -7.9520   21.4040 C   0  0  0  0  0  0  0  0  0  0  0  0
  -21.9490   -8.9200   20.4930 C   0  0  0  0  0  3  0  0  0  0  0  0
  -22.6500  -10.1240   20.3140 C   0  0  0  0  0  3  0  0  0  0  0  0
  -21.6740   -6.7930   21.4920 O   0  0  0  0  0  0  0  0  0  0  0  0
  -21.6770   -6.0250   22.6290 C   0  0  0  0  0  0  0  0  0  0  0  0
  -21.2640   -6.5400   23.8770 C   0  0  0  0  0  3  0  0  0  0  0  0
  -21.2160   -5.6960   25.0060 C   0  0  0  0  0  3  0  0  0  0  0  0
  -21.5710   -4.3400   24.8870 C   0  0  0  0  0  0  0  0  0  0  0  0
  -21.9770   -3.8240   23.6440 C   0  0  0  0  0  3  0  0  0  0  0  0
  -22.0270   -4.6650   22.5170 C   0  0  0  0  0  0  0  0  0  0  0  0
  -22.3990   -4.1570   21.3170 F   0  0  0  0  0  0  0  0  0  0  0  0
  -21.5160   -3.5270   25.9680 F   0  0  0  0  0  0  0  0  0  0  0  0
  -22.6470  -13.4570   21.2730 C   0  0  0  0  0  0  0  0  0  0  0  0
  -21.9650  -12.7340   22.1550 N   0  0  0  0  0  0  0  0  0  0  0  0
  -22.1720  -14.4820   20.7880 O   0  0  0  0  0  0  0  0  0  0  0  0
  -22.3620  -11.9030   22.5680 H   0  0  0  0  0  0  0  0  0  0  0  0
  -21.0310  -13.0160   22.4200 H   0  0  0  0  0  0  0  0  0  0  0  0
  -25.2230  -15.1820   20.3980 N   0  0  0  0  0  0  0  0  0  0  0  0
  -24.4580  -15.8270   20.5570 H   0  0  0  0  0  0  0  0  0  0  0  0
  -26.0700  -15.6400   20.0830 H   0  0  0  0  0  0  0  0  0  0  0  0
  -31.7710  -19.3100   18.9540 C   0  0  0  0  0  2  0  0  0  0  0  0
  -32.9290  -18.4120   18.4800 C   0  0  0  0  0  2  0  0  0  0  0  0
  -32.9060  -18.1700   16.9610 C   0  0  0  0  0  2  0  0  0  0  0  0
  -34.0260  -17.2350   16.4660 C   0  0  0  0  0  2  0  0  0  0  0  0
  -35.3530  -17.8750   16.4950 N   0  0  0  0  0  4  0  0  0  0  0  0
  -35.3610  -18.7070   15.9340 H   0  0  0  0  0  0  0  0  0  0  0  0
  -36.0420  -17.2450   16.1230 H   0  0  0  0  0  0  0  0  0  0  0  0
  -35.6250  -18.1110   17.4320 H   0  0  0  0  0  0  0  0  0  0  0  0
  -30.6050  -20.4890   20.9110 C   0  0  0  0  0  2  0  0  0  0  0  0
  -30.6680  -20.9160   22.3950 C   0  0  0  0  0  2  0  0  0  0  0  0
  -29.4720  -21.7760   22.8450 C   0  0  0  0  0  2  0  0  0  0  0  0
  -29.7640  -23.9820   21.7170 C   0  0  0  0  0  0  0  0  0  0  0  0
  -29.1570  -22.7990   21.8580 N   0  0  0  0  0  0  0  0  0  0  0  0
  -30.5520  -24.4410   22.5460 O   0  0  0  0  0  0  0  0  0  0  0  0
  -28.4980  -22.5370   21.1370 H   0  0  0  0  0  0  0  0  0  0  0  0
  -29.4720  -24.7250   20.4180 C   0  0  0  0  0  2  0  0  0  0  0  0
  -29.3260  -26.2460   20.5900 C   0  0  0  0  0  2  0  0  0  0  0  0
  -28.8330  -26.8830   19.2870 C   0  0  0  0  0  2  0  0  0  0  0  0
  -27.4790  -26.4810   19.0790 O   0  0  0  0  0  0  0  0  0  0  0  0
  -24.5290  -31.6460   23.0890 C   0  0  0  0  0  0  0  0  0  0  0  0
  -26.4330  -27.3220   19.3870 C   0  0  0  0  0  0  0  0  0  0  0  0
  -23.0240  -30.4950   21.4930 C   0  0  0  0  0  3  0  0  0  0  0  0
  -24.1690  -28.9660   19.8040 C   0  0  0  0  0  0  0  0  0  0  0  0
  -25.5290  -30.6690   21.0340 C   0  0  0  0  0  2  0  0  0  0  0  0
  -25.4200  -29.3530   20.2990 C   0  0  0  0  0  0  0  0  0  0  0  0
  -26.5480  -28.5330   20.1100 C   0  0  0  0  0  3  0  0  0  0  0  0
  -25.1620  -26.9340   18.9140 C   0  0  0  0  0  3  0  0  0  0  0  0
  -24.0290  -27.7460   19.1200 C   0  0  0  0  0  3  0  0  0  0  0  0
  -23.0190  -29.9140   20.0520 C   0  0  0  0  0  2  0  0  0  0  0  0
  -24.3850  -30.9450   21.9290 N   0  0  0  0  0  0  0  0  0  0  0  0
  -23.5450  -31.9620   23.7700 O   0  0  0  0  0  0  0  0  0  0  0  0
  -22.3900  -29.4550   22.4430 C   0  0  0  0  0  0  0  0  0  0  0  0
  -21.0560  -29.3280   22.3800 N   0  0  0  0  0  0  0  0  0  0  0  0
  -23.0930  -28.7670   23.1880 O   0  0  0  0  0  0  0  0  0  0  0  0
  -20.5520  -29.9350   21.7480 H   0  0  0  0  0  0  0  0  0  0  0  0
  -17.6800  -28.1640   22.9160 C   0  0  0  0  0  0  0  0  0  0  0  0
  -20.2440  -28.3870   23.1500 C   0  0  0  0  0  3  0  0  0  0  0  0
  -20.3210  -26.9650   22.5500 C   0  0  0  0  0  2  0  0  0  0  0  0
  -19.1990  -26.6700   21.5490 C   0  0  0  0  0  2  0  0  0  0  0  0
  -17.8290  -26.8220   22.2180 C   0  0  0  0  0  2  0  0  0  0  0  0
  -18.8140  -28.9060   23.3380 C   0  0  0  0  0  0  0  0  0  0  0  0
  -18.6220  -30.1640   23.9490 C   0  0  0  0  0  3  0  0  0  0  0  0
  -17.3260  -30.6790   24.1430 C   0  0  0  0  0  3  0  0  0  0  0  0
  -16.2060  -29.9330   23.7380 C   0  0  0  0  0  3  0  0  0  0  0  0
  -16.3830  -28.6770   23.1300 C   0  0  0  0  0  3  0  0  0  0  0  0
  -25.9320  -32.1060   23.6010 C   0  0  0  0  0  3  0  0  0  0  0  0
  -26.5260  -31.1640   24.7200 C   0  0  1  0  0  0  0  0  0  0  0  0
  -25.5540  -30.9080   25.8940 C   0  0  0  0  0  1  0  0  0  0  0  0
  -26.9210  -29.7910   24.1240 C   0  0  0  0  0  1  0  0  0  0  0  0
  -27.8200  -31.7870   25.2960 C   0  0  0  0  0  1  0  0  0  0  0  0
  -25.7930  -33.4810   24.0950 N   0  0  0  0  0  0  0  0  0  0  0  0
  -26.1410  -34.5760   23.4050 C   0  0  0  0  0  0  0  0  0  0  0  0
  -26.6880  -34.5260   22.2990 O   0  0  0  0  0  0  0  0  0  0  0  0
  -25.3030  -33.6020   24.9700 H   0  0  0  0  0  0  0  0  0  0  0  0
  -24.5510  -36.5230   23.4200 C   0  0  0  0  0  1  0  0  0  0  0  0
  -25.8320  -35.9440   24.0410 C   0  0  0  0  0  3  0  0  0  0  0  0
  -28.1130  -36.5700   24.7000 C   0  0  0  0  0  1  0  0  0  0  0  0
  -26.9370  -36.9180   23.9070 N   0  0  0  0  0  0  0  0  0  0  0  0
  -26.6330  -37.8470   24.1820 H   0  0  0  0  0  0  0  0  0  0  0  0
  1 45  1  0
  1 53  1  0
  1  3  1  0
  2  6  1  0
  3  2  1  0
  3  5  1  0
  4  2  2  0
  7 15  1  0
  8 13  1  0
  9 10  1  0
  9  8  1  0
 11 10  1  0
 11 20  1  0
 11 12  1  0
 13  7  1  0
 13 12  1  0
 14  7  2  0
 15  6  1  0
 15 16  1  0
 17 18  2  0
 18 37  1  0
 19 18  1  0
 19 22  1  0
 20 21  1  0
 20 17  1  0
 21 19  2  0
 22 23  1  0
 23 24  2  0
 25 28  1  0
 25 24  1  0
 26 25  2  0
 27 26  1  0
 27 22  2  0
 28 29  1  0
 29 30  1  0
 30 31  2  0
 32 31  1  0
 32 36  1  0
 33 32  2  0
 34 29  2  0
 34 33  1  0
 35 34  1  0
 37 38  1  0
 38 41  1  0
 38 40  1  0
 39 37  2  0
 42 17  1  0
 42 43  1  0
 44 42  1  0
 46 45  1  0
 47 46  1  0
 48 49  1  0
 48 47  1  0
 49 52  1  0
 50 49  1  0
 51 49  1  0
 53 54  1  0
 54 55  1  0
 56 57  1  0
 56 58  2  0
 57 55  1  0
 59 57  1  0
 60 61  1  0
 60 56  1  0
 62 61  1  0
 63 62  1  0
 63 65  1  0
 64 75  2  0
 65 70  1  0
 66 74  1  0
 66 76  1  0
 67 73  1  0
 67 69  1  0
 68 74  1  0
 69 68  1  0
 70 69  2  0
 71 72  1  0
 71 65  2  0
 72 67  2  0
 73 66  1  0
 74 64  1  0
 76 78  2  0
 77 76  1  0
 79 77  1  0
 80 89  2  0
 80 85  1  0
 81 77  1  0
 81 85  1  0
 82 81  1  0
 83 84  1  0
 83 82  1  0
 84 80  1  0
 85 86  2  0
 86 87  1  0
 88 87  2  0
 89 88  1  0
 90 64  1  0
 90 95  1  0
 90 91  1  0
 91 94  1  1
 91 92  1  0
 93 91  1  0
 95 98  1  0
 96100  1  0
 96 95  1  0
 97 96  2  0
100 99  1  0
102100  1  0
102103  1  0
102101  1  0
M  ISO  4   7 100  15 100  62 101  63 101
M  END
>  <TORSDO>  (73) 
F 30

>  <SCORE>  (73) 
-10.288

>  <name>  (73) 
81

>  <ligand_id>  (73) 
81

>  <original_smiles>  (73) 
[H]c1c([H])c([H])c2c(c1[H])C([H])([H])C([H])([H])C([H])([H])C2([H])N([H])C(=O)C1([H])N(C(=O)C([H])(N([H])C(=O)C([H])(N([H])C([H])([H])[H])C([H])([H])[H])C(C([H])([H])[H])(C([H])([H])[H])C([H])([H])[H])C([H])([H])c2c([H])c(OC([H])([H])C([H])([H])C([H])([H])C(=O)N([H])C([H])([H])C([H])([H])C([H])([H])C([H])(N([H])C(=O)C([H])([H])N([H])C(=O)N3C([H])([H])C([H])([H])C([H])([H])C([H])(n4nc(-c5c([H])c([H])c(Oc6c([H])c([H])c(F)c([H])c6F)c([H])c5[H])c(C(=O)N([H])[H])c4N([H])[H])C3([H])[H])C([H])([H])C([H])([H])C([H])([H])C([H])([H])[N+]([H])([H])[H])c([H])c([H])c2C1([H])[H]

>  <smiles>  (73) 
[H]c1c([H])c([H])c2c(c1[H])C([H])([H])C([H])([H])C([H])([H])C2([H])N([H])C(=O)C1([H])N(C(=O)C([H])(N([H])C(=O)C([H])(N([H])C([H])([H])[H])C([H])([H])[H])C(C([H])([H])[H])(C([H])([H])[H])C([H])([H])[H])C([H])([H])c2c([H])c(OC([H])([H])C([H])([H])C([H])([H])C(=O)N([H])C([H])([H])C([H])([H])C([H])([H])C([H])(N([H])C(=O)C([H])([H])N([H])C(=O)N3C([H])([H])C([H])([H])C([H])([H])C([H])(n4nc(-c5c([H])c([H])c(Oc6c([H])c([H])c(F)c([H])c6F)c([H])c5[H])c(C(=O)N([H])[H])c4N([H])[H])C3([H])[H])C([H])([H])C([H])([H])C([H])([H])C([H])([H])[N+]([H])([H])[H])c([H])c([H])c2C1([H])[H]

$$$$
82:0:0
     RDKit          3D

105112  0  0  1  0  0  0  0  0999 V2000
  -29.5400  -22.7190   25.5960 C   0  0  0  0  0  0  0  0  0  0  0  0
  -28.5450  -23.1480   26.3810 N   0  0  0  0  0  0  0  0  0  0  0  0
  -30.5540  -23.3890   25.3850 O   0  0  0  0  0  0  0  0  0  0  0  0
  -27.7600  -22.5260   26.5230 H   0  0  0  0  0  0  0  0  0  0  0  0
  -28.4860  -24.4520   27.0400 C   0  0  0  0  0  2  0  0  0  0  0  0
  -27.6840  -25.4750   26.2160 C   0  0  0  0  0  2  0  0  0  0  0  0
  -26.6530  -24.8280   25.2690 C   0  0  0  0  0  2  0  0  0  0  0  0
  -25.6000  -25.8080   24.7200 C   0  0  0  0  0  2  0  0  0  0  0  0
  -26.1750  -27.1420   24.1980 C   0  0  0  0  0  2  0  0  0  0  0  0
  -24.6050  -28.9810   24.7810 C   0  0  0  0  0  0  0  0  0  0  0  0
  -25.7420  -28.2990   24.9770 N   0  0  0  0  0  0  0  0  0  0  0  0
  -23.8020  -28.6630   23.9050 O   0  0  0  0  0  0  0  0  0  0  0  0
  -26.3600  -28.6100   25.7160 H   0  0  0  0  0  0  0  0  0  0  0  0
  -24.3420  -30.1730   25.7140 C   0  0  0  0  0  2  0  0  0  0  0  0
  -24.2620  -31.5630   25.0390 C   0  0  0  0  0  2  0  0  0  0  0  0
  -23.4560  -31.5690   23.8540 O   0  0  0  0  0  0  0  0  0  0  0  0
  -22.3730  -26.5430   18.9760 C   0  0  0  0  0  0  0  0  0  0  0  0
  -23.9510  -30.9550   22.7270 C   0  0  0  0  0  0  0  0  0  0  0  0
  -24.6280  -27.5630   18.9810 C   0  0  0  0  0  3  0  0  0  0  0  0
  -24.8900  -29.6650   20.3960 C   0  0  0  0  0  0  0  0  0  0  0  0
  -22.5930  -28.8890   19.7840 C   0  0  0  0  0  2  0  0  0  0  0  0
  -23.5250  -29.6340   20.7140 C   0  0  0  0  0  0  0  0  0  0  0  0
  -23.0530  -30.2810   21.8730 C   0  0  0  0  0  3  0  0  0  0  0  0
  -25.3220  -30.9960   22.3850 C   0  0  0  0  0  3  0  0  0  0  0  0
  -25.7930  -30.3450   21.2310 C   0  0  0  0  0  3  0  0  0  0  0  0
  -25.3200  -28.9420   19.1410 C   0  0  0  0  0  2  0  0  0  0  0  0
  -23.1560  -27.6210   19.2630 N   0  0  0  0  0  0  0  0  0  0  0  0
  -22.8490  -25.5300   18.4450 O   0  0  0  0  0  0  0  0  0  0  0  0
  -25.3770  -26.5280   19.8510 C   0  0  0  0  0  0  0  0  0  0  0  0
  -26.5980  -26.1600   19.4240 N   0  0  0  0  0  0  0  0  0  0  0  0
  -24.8770  -26.0920   20.8900 O   0  0  0  0  0  0  0  0  0  0  0  0
  -26.9350  -26.5590   18.5580 H   0  0  0  0  0  0  0  0  0  0  0  0
  -29.9620  -24.8490   19.4060 C   0  0  0  0  0  0  0  0  0  0  0  0
  -27.5010  -25.2280   20.0980 C   0  0  0  0  0  3  0  0  0  0  0  0
  -28.0670  -25.8470   21.3970 C   0  0  0  0  0  2  0  0  0  0  0  0
  -29.4100  -26.5540   21.1920 C   0  0  0  0  0  2  0  0  0  0  0  0
  -30.4550  -25.5770   20.6450 C   0  0  0  0  0  2  0  0  0  0  0  0
  -28.5750  -24.6990   19.1400 C   0  0  0  0  0  0  0  0  0  0  0  0
  -28.1720  -24.0480   17.9560 C   0  0  0  0  0  3  0  0  0  0  0  0
  -29.1230  -23.5470   17.0480 C   0  0  0  0  0  3  0  0  0  0  0  0
  -30.4950  -23.6810   17.3250 C   0  0  0  0  0  3  0  0  0  0  0  0
  -30.9120  -24.3260   18.5040 C   0  0  0  0  0  3  0  0  0  0  0  0
  -20.8410  -26.5400   19.2740 C   0  0  0  0  0  3  0  0  0  0  0  0
  -20.1790  -25.8110   18.1850 N   0  0  0  0  0  0  0  0  0  0  0  0
  -19.6200  -26.3900   17.1110 C   0  0  0  0  0  0  0  0  0  0  0  0
  -19.5440  -27.6130   16.9740 O   0  0  0  0  0  0  0  0  0  0  0  0
  -20.2490  -24.8050   18.2060 H   0  0  0  0  0  0  0  0  0  0  0  0
  -20.0840  -25.3110   14.8870 C   0  0  0  0  0  1  0  0  0  0  0  0
  -19.0560  -25.4620   16.0170 C   0  0  0  0  0  3  0  0  0  0  0  0
  -16.6630  -25.8480   16.4100 C   0  0  0  0  0  1  0  0  0  0  0  0
  -17.7680  -25.9280   15.4600 N   0  0  0  0  0  0  0  0  0  0  0  0
  -17.5170  -25.3880   14.6360 H   0  0  0  0  0  0  0  0  0  0  0  0
  -20.4820  -25.9030   20.6730 C   0  0  1  0  0  0  0  0  0  0  0  0
  -21.1450  -24.5280   20.9200 C   0  0  0  0  0  1  0  0  0  0  0  0
  -20.9010  -26.8450   21.8260 C   0  0  0  0  0  1  0  0  0  0  0  0
  -18.9500  -25.7200   20.7860 C   0  0  0  0  0  1  0  0  0  0  0  0
  -29.3570  -21.3330   24.9570 C   0  0  0  0  0  2  0  0  0  0  0  0
  -31.1590  -21.2880   23.2460 C   0  0  0  0  0  0  0  0  0  0  0  0
  -30.5890  -20.8150   24.3600 N   0  0  0  0  0  0  0  0  0  0  0  0
  -30.6550  -22.1980   22.5810 O   0  0  0  0  0  0  0  0  0  0  0  0
  -31.0640  -20.0790   24.8650 H   0  0  0  0  0  0  0  0  0  0  0  0
  -32.4960  -20.6620   22.8240 C   0  0  0  0  0  2  0  0  0  0  0  0
  -32.5970  -20.6120   20.3320 C   0  0  0  0  0  0  0  0  0  0  0  0
  -32.9380  -21.1350   21.5140 N   0  0  0  0  0  0  0  0  0  0  0  0
  -31.9200  -19.5870   20.2190 O   0  0  0  0  0  0  0  0  0  0  0  0
  -33.4820  -21.9880   21.5100 H   0  0  0  0  0  0  0  0  0  0  0  0
  -33.0760  -21.3810   19.1030 C   0  0  0  0  0  2  0  0  0  0  0  0
  -33.6820  -19.4690   17.6310 C   0  0  0  0  0  0  0  0  0  0  0  0
  -34.9380  -18.2920   15.8770 C   0  0  0  0  0  2  0  0  0  0  0  0
  -36.1180  -19.1750   15.4190 C   0  0  0  0  0  2  0  0  0  0  0  0
  -35.6820  -20.1640   14.3190 C   0  0  0  0  0  2  0  0  0  0  0  0
  -34.3880  -20.9340   14.6920 C   0  0  0  0  0  3  0  0  0  0  0  0
  -33.3010  -19.9550   15.1890 C   0  0  0  0  0  2  0  0  0  0  0  0
  -33.8550  -19.1810   16.3160 N   0  0  0  0  0  0  0  0  0  0  0  0
  -34.2180  -18.8330   18.5460 O   0  0  0  0  0  0  0  0  0  0  0  0
  -33.0210  -20.6070   17.8640 N   0  0  0  0  0  0  0  0  0  0  0  0
  -32.5720  -21.0430   17.0740 H   0  0  0  0  0  0  0  0  0  0  0  0
  -33.6070  -23.1030   13.5410 C   0  0  0  0  0  0  0  0  0  0  0  0
  -33.2660  -23.3780   12.2430 C   0  0  0  0  0  0  0  0  0  0  0  0
  -33.3930  -22.1450   11.5340 C   0  0  0  0  0  0  0  0  0  0  0  0
  -33.9110  -21.7520   13.5780 N   0  0  0  0  0  0  0  0  0  0  0  0
  -33.7270  -21.1670   12.3670 N   0  0  0  0  0  0  0  0  0  0  0  0
  -33.2710  -21.8500   10.1020 C   0  0  0  0  0  0  0  0  0  0  0  0
  -32.3980  -20.8460    9.6270 C   0  0  0  0  0  3  0  0  0  0  0  0
  -32.2850  -20.5930    8.2430 C   0  0  0  0  0  3  0  0  0  0  0  0
  -33.0460  -21.3450    7.3170 C   0  0  0  0  0  0  0  0  0  0  0  0
  -33.9310  -22.3270    7.7980 C   0  0  0  0  0  3  0  0  0  0  0  0
  -34.0470  -22.5750    9.1770 C   0  0  0  0  0  3  0  0  0  0  0  0
  -33.0230  -21.1500    5.9590 O   0  0  0  0  0  0  0  0  0  0  0  0
  -31.9160  -20.6440    5.3220 C   0  0  0  0  0  0  0  0  0  0  0  0
  -30.6530  -21.2670    5.4170 C   0  0  0  0  0  3  0  0  0  0  0  0
  -29.5590  -20.7540    4.6920 C   0  0  0  0  0  3  0  0  0  0  0  0
  -29.7270  -19.6260    3.8670 C   0  0  0  0  0  0  0  0  0  0  0  0
  -30.9850  -19.0080    3.7690 C   0  0  0  0  0  3  0  0  0  0  0  0
  -32.0770  -19.5170    4.4930 C   0  0  0  0  0  0  0  0  0  0  0  0
  -33.2930  -18.9290    4.3770 F   0  0  0  0  0  0  0  0  0  0  0  0
  -28.6770  -19.1370    3.1650 F   0  0  0  0  0  0  0  0  0  0  0  0
  -32.9340  -24.7260   11.6700 C   0  0  0  0  0  0  0  0  0  0  0  0
  -32.0670  -24.7680   10.6640 N   0  0  0  0  0  0  0  0  0  0  0  0
  -33.4100  -25.7590   12.1440 O   0  0  0  0  0  0  0  0  0  0  0  0
  -31.6640  -23.9210   10.2910 H   0  0  0  0  0  0  0  0  0  0  0  0
  -31.8040  -25.6580   10.2650 H   0  0  0  0  0  0  0  0  0  0  0  0
  -33.7010  -23.8910   14.6850 N   0  0  0  0  0  0  0  0  0  0  0  0
  -33.5480  -24.8930   14.6700 H   0  0  0  0  0  0  0  0  0  0  0  0
  -34.0230  -23.5550   15.5840 H   0  0  0  0  0  0  0  0  0  0  0  0
  1  2  1  0
  2  4  1  0
  2  5  1  0
  3  1  2  0
  6  5  1  0
  7  6  1  0
  8  7  1  0
  9  8  1  0
  9 11  1  0
 10 11  1  0
 10 14  1  0
 11 13  1  0
 12 10  2  0
 15 14  1  0
 16 15  1  0
 17 27  1  0
 18 16  1  0
 19 26  1  0
 19 27  1  0
 19 29  1  0
 20 22  2  0
 20 25  1  0
 21 22  1  0
 22 23  1  0
 23 18  2  0
 24 18  1  0
 25 24  2  0
 26 20  1  0
 27 21  1  0
 28 17  2  0
 29 31  2  0
 30 29  1  0
 32 30  1  0
 33 37  1  0
 34 30  1  0
 34 35  1  0
 36 35  1  0
 37 36  1  0
 38 33  1  0
 38 34  1  0
 39 38  2  0
 40 41  2  0
 40 39  1  0
 41 42  1  0
 42 33  2  0
 43 17  1  0
 43 53  1  0
 44 47  1  0
 44 43  1  0
 45 44  1  0
 46 45  2  0
 49 48  1  0
 49 45  1  0
 51 49  1  0
 51 50  1  0
 52 51  1  0
 53 56  1  6
 53 54  1  0
 53 55  1  0
 57  1  1  0
 58 59  1  0
 59 61  1  0
 59 57  1  0
 60 58  2  0
 62 58  1  0
 63 64  1  0
 64 62  1  0
 65 63  2  0
 66 64  1  0
 67 63  1  0
 68 76  1  0
 68 75  2  0
 69 74  1  0
 70 69  1  0
 71 72  1  0
 71 70  1  0
 72 81  1  0
 72 73  1  0
 73 74  1  0
 74 68  1  0
 76 67  1  0
 77 76  1  0
 78 81  1  0
 78103  1  0
 79 78  2  0
 80 79  1  0
 80 82  2  0
 82 81  1  0
 83 80  1  0
 84 83  1  0
 85 84  2  0
 86 87  2  0
 86 85  1  0
 87 88  1  0
 88 83  2  0
 89 86  1  0
 90 91  1  0
 90 89  1  0
 92 91  2  0
 93 92  1  0
 94 93  2  0
 94 95  1  0
 95 90  2  0
 96 95  1  0
 97 93  1  0
 98100  2  0
 98 79  1  0
 99 98  1  0
101 99  1  0
102 99  1  0
103105  1  0
104103  1  0
M  ISO  4  15 101  16 101  68 100  76 100
M  END
>  <TORSDO>  (74) 
F 29

>  <SCORE>  (74) 
6.011

>  <name>  (74) 
82

>  <ligand_id>  (74) 
82

>  <original_smiles>  (74) 
[H]c1c([H])c([H])c2c(c1[H])C([H])([H])C([H])([H])C([H])([H])C2([H])N([H])C(=O)C1([H])N(C(=O)C([H])(N([H])C(=O)C([H])(N([H])C([H])([H])[H])C([H])([H])[H])C(C([H])([H])[H])(C([H])([H])[H])C([H])([H])[H])C([H])([H])c2c([H])c(OC([H])([H])C([H])([H])C(=O)N([H])C([H])([H])C([H])([H])C([H])([H])C([H])([H])C([H])([H])N([H])C(=O)C([H])([H])N([H])C(=O)C([H])([H])N([H])C(=O)C([H])([H])N([H])C(=O)N3C([H])([H])C([H])([H])C([H])([H])C([H])(n4nc(-c5c([H])c([H])c(Oc6c([H])c([H])c(F)c([H])c6F)c([H])c5[H])c(C(=O)N([H])[H])c4N([H])[H])C3([H])[H])c([H])c([H])c2C1([H])[H]

>  <smiles>  (74) 
[H]c1c([H])c([H])c2c(c1[H])C([H])([H])C([H])([H])C([H])([H])C2([H])N([H])C(=O)C1([H])N(C(=O)C([H])(N([H])C(=O)C([H])(N([H])C([H])([H])[H])C([H])([H])[H])C(C([H])([H])[H])(C([H])([H])[H])C([H])([H])[H])C([H])([H])c2c([H])c(OC([H])([H])C([H])([H])C(=O)N([H])C([H])([H])C([H])([H])C([H])([H])C([H])([H])C([H])([H])N([H])C(=O)C([H])([H])N([H])C(=O)C([H])([H])N([H])C(=O)C([H])([H])N([H])C(=O)N3C([H])([H])C([H])([H])C([H])([H])C([H])(n4nc(-c5c([H])c([H])c(Oc6c([H])c([H])c(F)c([H])c6F)c([H])c5[H])c(C(=O)N([H])[H])c4N([H])[H])C3([H])[H])c([H])c([H])c2C1([H])[H]

$$$$
84:0:0
     RDKit          3D

 99106  0  0  1  0  0  0  0  0999 V2000
  -24.5030  -23.3650   21.6060 C   0  0  0  0  0  0  0  0  0  0  0  0
  -25.1880  -23.0210   20.5060 N   0  0  0  0  0  0  0  0  0  0  0  0
  -23.3020  -23.1170   21.7300 O   0  0  0  0  0  0  0  0  0  0  0  0
  -26.1710  -23.2530   20.4800 H   0  0  0  0  0  0  0  0  0  0  0  0
  -25.2540  -24.0810   22.7400 C   0  0  0  0  0  2  0  0  0  0  0  0
  -26.7130  -25.2700   21.1180 C   0  0  0  0  0  0  0  0  0  0  0  0
  -26.5060  -24.7220   22.3230 N   0  0  0  0  0  0  0  0  0  0  0  0
  -25.8600  -25.2440   20.2310 O   0  0  0  0  0  0  0  0  0  0  0  0
  -27.2380  -24.7840   23.0170 H   0  0  0  0  0  0  0  0  0  0  0  0
  -28.0790  -25.9060   20.8510 C   0  0  0  0  0  2  0  0  0  0  0  0
  -28.1260  -26.8050   19.5940 C   0  0  0  0  0  2  0  0  0  0  0  0
  -28.3260  -28.1770   19.9300 O   0  0  0  0  0  0  0  0  0  0  0  0
  -25.8870  -31.6300   25.6170 C   0  0  0  0  0  0  0  0  0  0  0  0
  -27.2830  -28.9110   20.4490 C   0  0  0  0  0  0  0  0  0  0  0  0
  -24.2770  -31.3870   23.7510 C   0  0  0  0  0  3  0  0  0  0  0  0
  -25.2490  -30.5260   21.5590 C   0  0  0  0  0  0  0  0  0  0  0  0
  -26.7950  -31.4360   23.3060 C   0  0  0  0  0  2  0  0  0  0  0  0
  -26.5360  -30.5440   22.1090 C   0  0  0  0  0  0  0  0  0  0  0  0
  -27.5550  -29.7460   21.5530 C   0  0  0  0  0  3  0  0  0  0  0  0
  -25.9800  -28.8950   19.9050 C   0  0  0  0  0  3  0  0  0  0  0  0
  -24.9640  -29.6990   20.4560 C   0  0  0  0  0  3  0  0  0  0  0  0
  -24.2210  -31.4280   22.2000 C   0  0  0  0  0  2  0  0  0  0  0  0
  -25.6790  -31.4660   24.2800 N   0  0  0  0  0  0  0  0  0  0  0  0
  -24.9370  -31.7620   26.4020 O   0  0  0  0  0  0  0  0  0  0  0  0
  -23.5100  -30.1380   24.2380 C   0  0  0  0  0  0  0  0  0  0  0  0
  -22.2520  -29.9990   23.7900 N   0  0  0  0  0  0  0  0  0  0  0  0
  -24.0520  -29.3080   24.9720 O   0  0  0  0  0  0  0  0  0  0  0  0
  -21.8790  -30.7250   23.1960 H   0  0  0  0  0  0  0  0  0  0  0  0
  -19.1340  -28.4460   22.8300 C   0  0  0  0  0  0  0  0  0  0  0  0
  -21.3530  -28.8830   24.0810 C   0  0  0  0  0  3  0  0  0  0  0  0
  -21.8620  -27.5760   23.4310 C   0  0  0  0  0  2  0  0  0  0  0  0
  -21.2590  -27.3160   22.0450 C   0  0  0  0  0  2  0  0  0  0  0  0
  -19.7320  -27.2380   22.1290 C   0  0  0  0  0  2  0  0  0  0  0  0
  -19.9000  -29.2270   23.7350 C   0  0  0  0  0  0  0  0  0  0  0  0
  -19.3080  -30.3600   24.3330 C   0  0  0  0  0  3  0  0  0  0  0  0
  -17.9770  -30.7120   24.0460 C   0  0  0  0  0  3  0  0  0  0  0  0
  -17.2170  -29.9270   23.1630 C   0  0  0  0  0  3  0  0  0  0  0  0
  -17.7930  -28.7950   22.5600 C   0  0  0  0  0  3  0  0  0  0  0  0
  -27.3250  -31.6840   26.2220 C   0  0  0  0  0  3  0  0  0  0  0  0
  -27.6130  -30.5220   27.2490 C   0  0  1  0  0  0  0  0  0  0  0  0
  -26.4980  -30.3350   28.3040 C   0  0  0  0  0  1  0  0  0  0  0  0
  -27.7980  -29.1750   26.5130 C   0  0  0  0  0  1  0  0  0  0  0  0
  -28.9370  -30.8010   28.0000 C   0  0  0  0  0  1  0  0  0  0  0  0
  -27.4870  -32.9970   26.8610 N   0  0  0  0  0  0  0  0  0  0  0  0
  -28.1550  -34.0260   26.3220 C   0  0  0  0  0  0  0  0  0  0  0  0
  -28.7670  -33.9430   25.2540 O   0  0  0  0  0  0  0  0  0  0  0  0
  -26.9660  -33.1540   27.7110 H   0  0  0  0  0  0  0  0  0  0  0  0
  -27.1370  -36.3230   26.4340 C   0  0  0  0  0  1  0  0  0  0  0  0
  -28.1410  -35.3610   27.0910 C   0  0  0  0  0  3  0  0  0  0  0  0
  -30.4110  -35.2810   28.0230 C   0  0  0  0  0  1  0  0  0  0  0  0
  -29.4690  -36.0060   27.1740 N   0  0  0  0  0  0  0  0  0  0  0  0
  -29.3870  -36.9540   27.5300 H   0  0  0  0  0  0  0  0  0  0  0  0
  -24.6410  -22.2640   19.3780 C   0  0  0  0  0  2  0  0  0  0  0  0
  -25.6940  -21.5380   18.5260 C   0  0  0  0  0  0  0  0  0  0  0  0
  -26.8630  -21.2390   19.1040 N   0  0  0  0  0  0  0  0  0  0  0  0
  -25.4500  -21.2680   17.3500 O   0  0  0  0  0  0  0  0  0  0  0  0
  -26.9780  -21.5380   20.0650 H   0  0  0  0  0  0  0  0  0  0  0  0
  -28.0040  -20.6000   18.4570 C   0  0  0  0  0  2  0  0  0  0  0  0
  -28.6010  -19.4520   19.2970 C   0  0  0  0  0  2  0  0  0  0  0  0
  -29.2520  -18.3910   18.3950 C   0  0  0  0  0  2  0  0  0  0  0  0
  -30.1680  -17.3900   19.1160 C   0  0  0  0  0  2  0  0  0  0  0  0
  -31.4440  -15.3800   18.3850 C   0  0  0  0  0  0  0  0  0  0  0  0
  -31.4440  -12.9250   18.3810 C   0  0  0  0  0  2  0  0  0  0  0  0
  -30.3490  -12.4330   17.4120 C   0  0  0  0  0  2  0  0  0  0  0  0
  -28.9900  -12.3280   18.1310 C   0  0  0  0  0  2  0  0  0  0  0  0
  -28.6380  -13.6010   18.9500 C   0  0  0  0  0  3  0  0  0  0  0  0
  -29.8380  -14.0580   19.8100 C   0  0  0  0  0  2  0  0  0  0  0  0
  -30.9990  -14.2150   18.9220 N   0  0  0  0  0  0  0  0  0  0  0  0
  -32.4730  -15.4710   17.7150 O   0  0  0  0  0  0  0  0  0  0  0  0
  -30.5020  -16.3090   18.1950 N   0  0  0  0  0  0  0  0  0  0  0  0
  -30.6010  -16.6850   17.2630 H   0  0  0  0  0  0  0  0  0  0  0  0
  -26.7390  -14.3140   20.5380 C   0  0  0  0  0  0  0  0  0  0  0  0
  -25.6570  -13.6380   21.0320 C   0  0  0  0  0  0  0  0  0  0  0  0
  -25.7420  -12.3160   20.5010 C   0  0  0  0  0  0  0  0  0  0  0  0
  -27.4370  -13.4020   19.7610 N   0  0  0  0  0  0  0  0  0  0  0  0
  -26.8520  -12.1770   19.7860 N   0  0  0  0  0  0  0  0  0  0  0  0
  -24.8000  -11.1920   20.5820 C   0  0  0  0  0  0  0  0  0  0  0  0
  -25.1370   -9.9960   21.2550 C   0  0  0  0  0  3  0  0  0  0  0  0
  -24.2090   -8.9370   21.3360 C   0  0  0  0  0  3  0  0  0  0  0  0
  -22.9290   -9.0660   20.7490 C   0  0  0  0  0  0  0  0  0  0  0  0
  -22.6090  -10.2500   20.0610 C   0  0  0  0  0  3  0  0  0  0  0  0
  -23.5340  -11.3030   19.9750 C   0  0  0  0  0  3  0  0  0  0  0  0
  -21.9740   -8.0780   20.7560 O   0  0  0  0  0  0  0  0  0  0  0  0
  -21.7540   -7.2980   21.8620 C   0  0  0  0  0  0  0  0  0  0  0  0
  -21.3320   -7.8480   23.0910 C   0  0  0  0  0  3  0  0  0  0  0  0
  -21.0500   -7.0030   24.1820 C   0  0  0  0  0  3  0  0  0  0  0  0
  -21.1800   -5.6080   24.0450 C   0  0  0  0  0  0  0  0  0  0  0  0
  -21.5940   -5.0570   22.8180 C   0  0  0  0  0  3  0  0  0  0  0  0
  -21.8780   -5.9000   21.7300 C   0  0  0  0  0  0  0  0  0  0  0  0
  -22.2560   -5.3620   20.5450 F   0  0  0  0  0  0  0  0  0  0  0  0
  -20.9010   -4.7940   25.0900 F   0  0  0  0  0  0  0  0  0  0  0  0
  -24.5470  -14.2140   21.8640 C   0  0  0  0  0  0  0  0  0  0  0  0
  -23.9100  -13.3940   22.6900 N   0  0  0  0  0  0  0  0  0  0  0  0
  -24.2720  -15.4120   21.8220 O   0  0  0  0  0  0  0  0  0  0  0  0
  -24.1530  -12.4140   22.7440 H   0  0  0  0  0  0  0  0  0  0  0  0
  -23.1710  -13.7500   23.2790 H   0  0  0  0  0  0  0  0  0  0  0  0
  -27.1690  -15.6300   20.6610 N   0  0  0  0  0  0  0  0  0  0  0  0
  -26.6210  -16.3330   21.1440 H   0  0  0  0  0  0  0  0  0  0  0  0
  -27.9550  -16.0170   20.1550 H   0  0  0  0  0  0  0  0  0  0  0  0
  1  3  2  0
  1  5  1  0
  2  1  1  0
  4  2  1  0
  6  7  1  0
  7  5  1  0
  7  9  1  0
  8  6  2  0
 10  6  1  0
 11 12  1  0
 11 10  1  0
 12 14  1  0
 13 24  2  0
 14 19  1  0
 15 25  1  0
 15 23  1  0
 16 18  1  0
 16 22  1  0
 17 23  1  0
 18 17  1  0
 19 18  2  0
 20 14  2  0
 20 21  1  0
 21 16  2  0
 22 15  1  0
 23 13  1  0
 25 27  2  0
 26 25  1  0
 28 26  1  0
 29 34  1  0
 30 26  1  0
 31 30  1  0
 32 33  1  0
 32 31  1  0
 33 29  1  0
 34 30  1  0
 34 35  2  0
 36 35  1  0
 37 36  2  0
 38 29  2  0
 38 37  1  0
 39 13  1  0
 39 44  1  0
 39 40  1  0
 40 43  1  1
 40 41  1  0
 42 40  1  0
 44 47  1  0
 45 44  1  0
 45 49  1  0
 46 45  2  0
 49 48  1  0
 49 51  1  0
 51 52  1  0
 51 50  1  0
 53  2  1  0
 54 55  1  0
 54 53  1  0
 55 57  1  0
 56 54  2  0
 58 55  1  0
 58 59  1  0
 60 61  1  0
 60 59  1  0
 62 68  1  0
 63 68  1  0
 64 65  1  0
 64 63  1  0
 66 65  1  0
 66 75  1  0
 66 67  1  0
 68 67  1  0
 69 62  2  0
 70 62  1  0
 70 61  1  0
 71 70  1  0
 72 97  1  0
 72 73  2  0
 73 92  1  0
 74 77  1  0
 74 73  1  0
 75 76  1  0
 75 72  1  0
 76 74  2  0
 77 78  1  0
 78 79  2  0
 80 83  1  0
 80 79  1  0
 81 80  2  0
 82 81  1  0
 82 77  2  0
 83 84  1  0
 84 85  1  0
 85 86  2  0
 87 86  1  0
 87 91  1  0
 88 87  2  0
 89 84  2  0
 89 88  1  0
 90 89  1  0
 92 93  1  0
 93 95  1  0
 93 96  1  0
 94 92  2  0
 97 98  1  0
 99 97  1  0
M  ISO  4  11 101  12 101  62 100  70 100
M  END
>  <TORSDO>  (75) 
F 26

>  <SCORE>  (75) 
-5.366

>  <name>  (75) 
84

>  <ligand_id>  (75) 
84

>  <original_smiles>  (75) 
[H]c1c([H])c([H])c2c(c1[H])C([H])([H])C([H])([H])C([H])([H])C2([H])N([H])C(=O)C1([H])N(C(=O)C([H])(N([H])C(=O)C([H])(N([H])C([H])([H])[H])C([H])([H])[H])C(C([H])([H])[H])(C([H])([H])[H])C([H])([H])[H])C([H])([H])c2c([H])c(OC([H])([H])C([H])([H])C(=O)N([H])C([H])([H])C(=O)N([H])C([H])([H])C(=O)N([H])C([H])([H])C([H])([H])C([H])([H])C([H])([H])N([H])C(=O)N3C([H])([H])C([H])([H])C([H])([H])C([H])(n4nc(-c5c([H])c([H])c(Oc6c([H])c([H])c(F)c([H])c6F)c([H])c5[H])c(C(=O)N([H])[H])c4N([H])[H])C3([H])[H])c([H])c([H])c2C1([H])[H]

>  <smiles>  (75) 
[H]c1c([H])c([H])c2c(c1[H])C([H])([H])C([H])([H])C([H])([H])C2([H])N([H])C(=O)C1([H])N(C(=O)C([H])(N([H])C(=O)C([H])(N([H])C([H])([H])[H])C([H])([H])[H])C(C([H])([H])[H])(C([H])([H])[H])C([H])([H])[H])C([H])([H])c2c([H])c(OC([H])([H])C([H])([H])C(=O)N([H])C([H])([H])C(=O)N([H])C([H])([H])C(=O)N([H])C([H])([H])C([H])([H])C([H])([H])C([H])([H])N([H])C(=O)N3C([H])([H])C([H])([H])C([H])([H])C([H])(n4nc(-c5c([H])c([H])c(Oc6c([H])c([H])c(F)c([H])c6F)c([H])c5[H])c(C(=O)N([H])[H])c4N([H])[H])C3([H])[H])c([H])c([H])c2C1([H])[H]

$$$$
85:0:0
     RDKit          3D

 91 98  0  0  1  0  0  0  0  0999 V2000
  -28.4960  -21.8070   20.2590 C   0  0  0  0  0  0  0  0  0  0  0  0
  -28.5380  -22.9880   20.9140 N   0  0  0  0  0  0  0  0  0  0  0  0
  -28.1330  -21.7180   19.0830 O   0  0  0  0  0  0  0  0  0  0  0  0
  -28.9290  -22.9440   21.8470 H   0  0  0  0  0  0  0  0  0  0  0  0
  -28.8320  -20.5240   21.0750 C   0  0  0  0  0  2  0  0  0  0  0  0
  -29.2490  -18.0670   20.6440 C   0  0  0  0  0  0  0  0  0  0  0  0
  -29.4360  -19.3760   20.3520 N   0  0  0  0  0  0  0  0  0  0  0  0
  -28.4070  -17.6930   21.4640 O   0  0  0  0  0  0  0  0  0  0  0  0
  -30.1100  -19.6100   19.6370 H   0  0  0  0  0  0  0  0  0  0  0  0
  -30.1410  -17.0080   19.9510 C   0  0  0  0  0  2  0  0  0  0  0  0
  -30.6560  -14.5430   20.0410 C   0  0  0  0  0  0  0  0  0  0  0  0
  -30.3410  -12.3650   18.9340 C   0  0  0  0  0  2  0  0  0  0  0  0
  -29.3500  -12.5980   17.7740 C   0  0  0  0  0  2  0  0  0  0  0  0
  -27.8950  -12.4590   18.2670 C   0  0  0  0  0  2  0  0  0  0  0  0
  -27.6190  -13.2600   19.5680 C   0  0  0  0  0  3  0  0  0  0  0  0
  -28.7280  -13.0200   20.6180 C   0  0  0  0  0  2  0  0  0  0  0  0
  -30.0150  -13.3420   19.9860 N   0  0  0  0  0  0  0  0  0  0  0  0
  -31.7900  -14.7070   19.5830 O   0  0  0  0  0  0  0  0  0  0  0  0
  -29.8890  -15.6060   20.3700 N   0  0  0  0  0  0  0  0  0  0  0  0
  -28.9790  -15.4270   20.7710 H   0  0  0  0  0  0  0  0  0  0  0  0
  -25.2580  -13.8510   20.3980 C   0  0  0  0  0  0  0  0  0  0  0  0
  -24.2070  -13.0750   20.8070 C   0  0  0  0  0  0  0  0  0  0  0  0
  -24.6660  -11.7240   20.7350 C   0  0  0  0  0  0  0  0  0  0  0  0
  -26.2900  -12.9740   20.1060 N   0  0  0  0  0  0  0  0  0  0  0  0
  -25.9400  -11.6880   20.3650 N   0  0  0  0  0  0  0  0  0  0  0  0
  -23.9480  -10.4590   20.9420 C   0  0  0  0  0  0  0  0  0  0  0  0
  -24.3990   -9.4970   21.8720 C   0  0  0  0  0  3  0  0  0  0  0  0
  -23.6810   -8.2970   22.0670 C   0  0  0  0  0  3  0  0  0  0  0  0
  -22.4980   -8.0490   21.3290 C   0  0  0  0  0  0  0  0  0  0  0  0
  -22.0670   -9.0000   20.3880 C   0  0  0  0  0  3  0  0  0  0  0  0
  -22.7860  -10.1910   20.1930 C   0  0  0  0  0  3  0  0  0  0  0  0
  -21.7520   -6.9000   21.4320 O   0  0  0  0  0  0  0  0  0  0  0  0
  -21.6910   -6.1840   22.6000 C   0  0  0  0  0  0  0  0  0  0  0  0
  -21.2530   -6.7670   23.8090 C   0  0  0  0  0  3  0  0  0  0  0  0
  -21.1400   -5.9740   24.9700 C   0  0  0  0  0  3  0  0  0  0  0  0
  -21.4540   -4.6040   24.9240 C   0  0  0  0  0  0  0  0  0  0  0  0
  -21.8870   -4.0230   23.7190 C   0  0  0  0  0  3  0  0  0  0  0  0
  -22.0020   -4.8110   22.5610 C   0  0  0  0  0  0  0  0  0  0  0  0
  -22.3980   -4.2410   21.3970 F   0  0  0  0  0  0  0  0  0  0  0  0
  -21.3380   -3.8420   26.0360 F   0  0  0  0  0  0  0  0  0  0  0  0
  -22.8260  -13.5510   21.1500 C   0  0  0  0  0  0  0  0  0  0  0  0
  -22.1380  -12.8460   22.0430 N   0  0  0  0  0  0  0  0  0  0  0  0
  -22.3640  -14.5830   20.6640 O   0  0  0  0  0  0  0  0  0  0  0  0
  -22.5230  -12.0130   22.4610 H   0  0  0  0  0  0  0  0  0  0  0  0
  -21.2130  -13.1480   22.3150 H   0  0  0  0  0  0  0  0  0  0  0  0
  -25.4140  -15.2240   20.2320 N   0  0  0  0  0  0  0  0  0  0  0  0
  -24.6560  -15.8770   20.3890 H   0  0  0  0  0  0  0  0  0  0  0  0
  -26.2530  -15.6700   19.8860 H   0  0  0  0  0  0  0  0  0  0  0  0
  -27.8310  -24.2590   20.6120 C   0  0  0  0  0  2  0  0  0  0  0  0
  -28.5580  -25.3200   19.7270 C   0  0  0  0  0  2  0  0  0  0  0  0
  -28.4480  -26.6950   20.1850 O   0  0  0  0  0  0  0  0  0  0  0  0
  -24.6030  -31.8790   23.2260 C   0  0  0  0  0  0  0  0  0  0  0  0
  -27.2540  -27.4030   20.1490 C   0  0  0  0  0  0  0  0  0  0  0  0
  -23.3970  -30.4710   21.5870 C   0  0  0  0  0  3  0  0  0  0  0  0
  -24.8510  -28.9220   20.1670 C   0  0  0  0  0  0  0  0  0  0  0  0
  -25.9240  -30.8230   21.3880 C   0  0  0  0  0  2  0  0  0  0  0  0
  -26.0090  -29.4460   20.7540 C   0  0  0  0  0  0  0  0  0  0  0  0
  -27.2080  -28.6930   20.7410 C   0  0  0  0  0  3  0  0  0  0  0  0
  -26.0770  -26.9040   19.5490 C   0  0  0  0  0  3  0  0  0  0  0  0
  -24.8810  -27.6510   19.5650 C   0  0  0  0  0  3  0  0  0  0  0  0
  -23.6060  -29.7810   20.2110 C   0  0  0  0  0  2  0  0  0  0  0  0
  -24.6600  -31.0740   22.1250 N   0  0  0  0  0  0  0  0  0  0  0  0
  -23.5190  -32.1530   23.7650 O   0  0  0  0  0  0  0  0  0  0  0  0
  -22.7440  -29.4580   22.5530 C   0  0  0  0  0  0  0  0  0  0  0  0
  -21.4220  -29.2630   22.4170 N   0  0  0  0  0  0  0  0  0  0  0  0
  -23.4250  -28.8460   23.3800 O   0  0  0  0  0  0  0  0  0  0  0  0
  -20.9340  -29.8020   21.7150 H   0  0  0  0  0  0  0  0  0  0  0  0
  -18.0620  -28.0210   22.8780 C   0  0  0  0  0  0  0  0  0  0  0  0
  -20.6090  -28.3250   23.1890 C   0  0  0  0  0  3  0  0  0  0  0  0
  -20.7450  -26.8880   22.6360 C   0  0  0  0  0  2  0  0  0  0  0  0
  -19.6680  -26.5310   21.6080 C   0  0  0  0  0  2  0  0  0  0  0  0
  -18.2720  -26.6650   22.2250 C   0  0  0  0  0  2  0  0  0  0  0  0
  -19.1610  -28.8070   23.3160 C   0  0  0  0  0  0  0  0  0  0  0  0
  -18.9130  -30.0750   23.8850 C   0  0  0  0  0  3  0  0  0  0  0  0
  -17.5990  -30.5580   24.0230 C   0  0  0  0  0  3  0  0  0  0  0  0
  -16.5130  -29.7700   23.6020 C   0  0  0  0  0  3  0  0  0  0  0  0
  -16.7460  -28.5030   23.0350 C   0  0  0  0  0  3  0  0  0  0  0  0
  -25.8870  -32.5140   23.8440 C   0  0  0  0  0  3  0  0  0  0  0  0
  -25.5770  -33.9120   24.1720 N   0  0  0  0  0  0  0  0  0  0  0  0
  -25.9100  -34.9650   23.4130 C   0  0  0  0  0  0  0  0  0  0  0  0
  -26.5820  -34.8610   22.3830 O   0  0  0  0  0  0  0  0  0  0  0  0
  -24.9820  -34.0670   24.9730 H   0  0  0  0  0  0  0  0  0  0  0  0
  -24.1820  -36.7560   23.0520 C   0  0  0  0  0  1  0  0  0  0  0  0
  -25.4200  -36.3530   23.8680 C   0  0  0  0  0  3  0  0  0  0  0  0
  -27.5520  -37.2400   24.7040 C   0  0  0  0  0  1  0  0  0  0  0  0
  -26.4520  -37.4070   23.7570 N   0  0  0  0  0  0  0  0  0  0  0  0
  -26.0440  -38.3260   23.9030 H   0  0  0  0  0  0  0  0  0  0  0  0
  -26.4090  -31.7450   25.1190 C   0  0  1  0  0  0  0  0  0  0  0  0
  -25.3220  -31.5040   26.1930 C   0  0  0  0  0  1  0  0  0  0  0  0
  -26.9940  -30.3690   24.7240 C   0  0  0  0  0  1  0  0  0  0  0  0
  -27.5580  -32.5440   25.7780 C   0  0  0  0  0  1  0  0  0  0  0  0
  1  2  1  0
  1  5  1  0
  2  4  1  0
  3  1  2  0
  6  8  2  0
  7  6  1  0
  7  5  1  0
  9  7  1  0
 10 19  1  0
 10  6  1  0
 11 19  1  0
 12 17  1  0
 13 14  1  0
 13 12  1  0
 15 14  1  0
 15 24  1  0
 15 16  1  0
 17 11  1  0
 17 16  1  0
 18 11  2  0
 19 20  1  0
 21 22  2  0
 22 41  1  0
 23 22  1  0
 23 26  1  0
 24 25  1  0
 24 21  1  0
 25 23  2  0
 26 27  1  0
 27 28  2  0
 29 32  1  0
 29 28  1  0
 30 29  2  0
 31 30  1  0
 31 26  2  0
 32 33  1  0
 33 34  1  0
 34 35  2  0
 36 35  1  0
 36 40  1  0
 37 36  2  0
 38 33  2  0
 38 37  1  0
 39 38  1  0
 41 42  1  0
 42 45  1  0
 42 44  1  0
 43 41  2  0
 46 47  1  0
 46 21  1  0
 48 46  1  0
 49  2  1  0
 50 51  1  0
 50 49  1  0
 52 63  2  0
 53 51  1  0
 53 58  1  0
 54 62  1  0
 54 64  1  0
 55 61  1  0
 55 57  1  0
 56 62  1  0
 57 56  1  0
 58 57  2  0
 59 60  1  0
 59 53  2  0
 60 55  2  0
 61 54  1  0
 62 52  1  0
 64 66  2  0
 65 64  1  0
 67 65  1  0
 68 77  2  0
 68 73  1  0
 69 65  1  0
 69 73  1  0
 70 69  1  0
 71 72  1  0
 71 70  1  0
 72 68  1  0
 73 74  2  0
 74 75  1  0
 76 75  2  0
 77 76  1  0
 78 52  1  0
 78 79  1  0
 78 88  1  0
 79 82  1  0
 80 84  1  0
 80 79  1  0
 81 80  2  0
 84 83  1  0
 86 84  1  0
 86 87  1  0
 86 85  1  0
 88 91  1  1
 88 89  1  0
 90 88  1  0
M  ISO  4  11 100  19 100  50 101  51 101
M  END
>  <TORSDO>  (76) 
F 21

>  <SCORE>  (76) 
-12.796

>  <name>  (76) 
85

>  <ligand_id>  (76) 
85

>  <original_smiles>  (76) 
[H]c1c([H])c([H])c2c(c1[H])C([H])([H])C([H])([H])C([H])([H])C2([H])N([H])C(=O)C1([H])N(C(=O)C([H])(N([H])C(=O)C([H])(N([H])C([H])([H])[H])C([H])([H])[H])C(C([H])([H])[H])(C([H])([H])[H])C([H])([H])[H])C([H])([H])c2c([H])c(OC([H])([H])C([H])([H])N([H])C(=O)C([H])([H])N([H])C(=O)C([H])([H])N([H])C(=O)N3C([H])([H])C([H])([H])C([H])([H])C([H])(n4nc(-c5c([H])c([H])c(Oc6c([H])c([H])c(F)c([H])c6F)c([H])c5[H])c(C(=O)N([H])[H])c4N([H])[H])C3([H])[H])c([H])c([H])c2C1([H])[H]

>  <smiles>  (76) 
[H]c1c([H])c([H])c2c(c1[H])C([H])([H])C([H])([H])C([H])([H])C2([H])N([H])C(=O)C1([H])N(C(=O)C([H])(N([H])C(=O)C([H])(N([H])C([H])([H])[H])C([H])([H])[H])C(C([H])([H])[H])(C([H])([H])[H])C([H])([H])[H])C([H])([H])c2c([H])c(OC([H])([H])C([H])([H])N([H])C(=O)C([H])([H])N([H])C(=O)C([H])([H])N([H])C(=O)N3C([H])([H])C([H])([H])C([H])([H])C([H])(n4nc(-c5c([H])c([H])c(Oc6c([H])c([H])c(F)c([H])c6F)c([H])c5[H])c(C(=O)N([H])[H])c4N([H])[H])C3([H])[H])c([H])c([H])c2C1([H])[H]

$$$$
86:0:0
     RDKit          3D

107114  0  0  1  0  0  0  0  0999 V2000
  -26.3490  -20.7870   20.2460 C   0  0  0  0  0  2  0  0  0  0  0  0
  -26.8320  -22.1850   20.3080 N   0  0  0  0  0  4  0  0  0  0  0  0
  -26.0550  -22.8120   20.1730 H   0  0  0  0  0  0  0  0  0  0  0  0
  -27.4720  -22.3160   19.5450 H   0  0  0  0  0  0  0  0  0  0  0  0
  -27.5690  -22.5680   21.5310 C   0  0  0  0  0  2  0  0  0  0  0  0
  -28.9730  -23.1110   21.1830 C   0  0  0  0  0  2  0  0  0  0  0  0
  -30.2660  -21.0300   20.7550 C   0  0  0  0  0  0  0  0  0  0  0  0
  -29.7620  -22.2030   20.3430 N   0  0  0  0  0  0  0  0  0  0  0  0
  -30.0310  -20.5790   21.8760 O   0  0  0  0  0  0  0  0  0  0  0  0
  -30.0880  -22.5550   19.4510 H   0  0  0  0  0  0  0  0  0  0  0  0
  -31.1500  -20.2640   19.7580 C   0  0  0  0  0  2  0  0  0  0  0  0
  -31.0740  -17.8140   20.1990 C   0  0  0  0  0  0  0  0  0  0  0  0
  -31.6620  -19.0090   20.3040 N   0  0  0  0  0  0  0  0  0  0  0  0
  -30.0310  -17.6360   19.5640 O   0  0  0  0  0  0  0  0  0  0  0  0
  -32.5030  -19.0700   20.8600 H   0  0  0  0  0  0  0  0  0  0  0  0
  -31.7660  -16.6630   20.9330 C   0  0  0  0  0  2  0  0  0  0  0  0
  -31.3770  -14.5150   19.7350 C   0  0  0  0  0  0  0  0  0  0  0  0
  -30.9660  -12.2220   18.9230 C   0  0  0  0  0  2  0  0  0  0  0  0
  -29.9560  -12.1750   17.7630 C   0  0  0  0  0  2  0  0  0  0  0  0
  -28.5140  -12.1150   18.2970 C   0  0  0  0  0  2  0  0  0  0  0  0
  -28.2320  -13.2050   19.3610 C   0  0  0  0  0  3  0  0  0  0  0  0
  -29.3360  -13.2150   20.4410 C   0  0  0  0  0  2  0  0  0  0  0  0
  -30.6460  -13.3720   19.7790 N   0  0  0  0  0  0  0  0  0  0  0  0
  -32.2990  -14.7110   18.9360 O   0  0  0  0  0  0  0  0  0  0  0  0
  -31.1060  -15.3780   20.7180 N   0  0  0  0  0  0  0  0  0  0  0  0
  -30.3560  -15.1340   21.3480 H   0  0  0  0  0  0  0  0  0  0  0  0
  -25.9860  -14.0040   20.3370 C   0  0  0  0  0  0  0  0  0  0  0  0
  -24.8790  -13.3210   20.7610 C   0  0  0  0  0  0  0  0  0  0  0  0
  -25.1860  -11.9340   20.6020 C   0  0  0  0  0  0  0  0  0  0  0  0
  -26.9050  -13.0410   19.9510 N   0  0  0  0  0  0  0  0  0  0  0  0
  -26.4310  -11.7860   20.1650 N   0  0  0  0  0  0  0  0  0  0  0  0
  -24.3490  -10.7430   20.7880 C   0  0  0  0  0  0  0  0  0  0  0  0
  -24.7510   -9.6830   21.6310 C   0  0  0  0  0  3  0  0  0  0  0  0
  -23.9210   -8.5550   21.8060 C   0  0  0  0  0  3  0  0  0  0  0  0
  -22.6750   -8.4800   21.1400 C   0  0  0  0  0  0  0  0  0  0  0  0
  -22.2890   -9.5270   20.2860 C   0  0  0  0  0  3  0  0  0  0  0  0
  -23.1190  -10.6480   20.1070 C   0  0  0  0  0  3  0  0  0  0  0  0
  -21.8160   -7.4110   21.2300 O   0  0  0  0  0  0  0  0  0  0  0  0
  -21.7590   -6.6240   22.3530 C   0  0  0  0  0  0  0  0  0  0  0  0
  -21.4600   -7.1610   23.6240 C   0  0  0  0  0  3  0  0  0  0  0  0
  -21.3450   -6.3080   24.7400 C   0  0  0  0  0  3  0  0  0  0  0  0
  -21.5180   -4.9190   24.5850 C   0  0  0  0  0  0  0  0  0  0  0  0
  -21.8100   -4.3820   23.3190 C   0  0  0  0  0  3  0  0  0  0  0  0
  -21.9280   -5.2320   22.2060 C   0  0  0  0  0  0  0  0  0  0  0  0
  -22.1880   -4.7070   20.9840 F   0  0  0  0  0  0  0  0  0  0  0  0
  -21.4000   -4.0980   25.6540 F   0  0  0  0  0  0  0  0  0  0  0  0
  -23.5740  -13.9170   21.2030 C   0  0  0  0  0  0  0  0  0  0  0  0
  -22.8700  -13.2490   22.1120 N   0  0  0  0  0  0  0  0  0  0  0  0
  -23.1910  -15.0060   20.7780 O   0  0  0  0  0  0  0  0  0  0  0  0
  -23.1920  -12.3650   22.4750 H   0  0  0  0  0  0  0  0  0  0  0  0
  -21.9970  -13.6280   22.4480 H   0  0  0  0  0  0  0  0  0  0  0  0
  -26.2820  -15.3590   20.2310 N   0  0  0  0  0  0  0  0  0  0  0  0
  -25.6070  -16.0800   20.4610 H   0  0  0  0  0  0  0  0  0  0  0  0
  -27.1590  -15.7280   19.8830 H   0  0  0  0  0  0  0  0  0  0  0  0
  -26.5490  -20.1780   18.8420 C   0  0  0  0  0  2  0  0  0  0  0  0
  -28.3110  -21.2850   17.4430 C   0  0  0  0  0  0  0  0  0  0  0  0
  -27.9180  -20.3840   18.3530 N   0  0  0  0  0  0  0  0  0  0  0  0
  -27.5240  -22.0590   16.8970 O   0  0  0  0  0  0  0  0  0  0  0  0
  -28.6110  -19.7270   18.6890 H   0  0  0  0  0  0  0  0  0  0  0  0
  -29.8190  -21.3790   17.1630 C   0  0  0  0  0  2  0  0  0  0  0  0
  -30.2540  -22.3440   16.0270 C   0  0  0  0  0  2  0  0  0  0  0  0
  -29.6930  -23.7180   16.1000 N   0  0  0  0  0  4  0  0  0  0  0  0
  -30.0910  -24.2560   15.3440 H   0  0  0  0  0  0  0  0  0  0  0  0
  -28.7020  -23.6360   15.9110 H   0  0  0  0  0  0  0  0  0  0  0  0
  -29.8940  -24.4690   17.3670 C   0  0  0  0  0  2  0  0  0  0  0  0
  -28.5440  -24.9870   17.9000 C   0  0  0  0  0  2  0  0  0  0  0  0
  -28.6640  -25.8370   19.0400 O   0  0  0  0  0  0  0  0  0  0  0  0
  -25.6750  -30.4210   23.6210 C   0  0  0  0  0  0  0  0  0  0  0  0
  -27.5910  -26.6660   19.3170 C   0  0  0  0  0  0  0  0  0  0  0  0
  -24.2910  -29.7960   21.6690 C   0  0  0  0  0  3  0  0  0  0  0  0
  -25.4840  -28.4880   19.8390 C   0  0  0  0  0  0  0  0  0  0  0  0
  -26.8440  -29.7220   21.5360 C   0  0  0  0  0  2  0  0  0  0  0  0
  -26.6980  -28.6000   20.5310 C   0  0  0  0  0  0  0  0  0  0  0  0
  -27.7480  -27.6890   20.2790 C   0  0  0  0  0  3  0  0  0  0  0  0
  -26.3410  -26.5490   18.6560 C   0  0  0  0  0  3  0  0  0  0  0  0
  -25.2980  -27.4570   18.9060 C   0  0  0  0  0  3  0  0  0  0  0  0
  -24.4200  -29.5130   20.1480 C   0  0  0  0  0  2  0  0  0  0  0  0
  -25.6210  -29.9750   22.3350 N   0  0  0  0  0  0  0  0  0  0  0  0
  -24.6460  -30.7230   24.2380 O   0  0  0  0  0  0  0  0  0  0  0  0
  -23.4310  -28.6810   22.3070 C   0  0  0  0  0  0  0  0  0  0  0  0
  -22.1030  -28.7780   22.1330 N   0  0  0  0  0  0  0  0  0  0  0  0
  -23.9580  -27.7450   22.9140 O   0  0  0  0  0  0  0  0  0  0  0  0
  -21.7470  -29.5770   21.6260 H   0  0  0  0  0  0  0  0  0  0  0  0
  -18.5620  -28.0790   22.2220 C   0  0  0  0  0  0  0  0  0  0  0  0
  -21.1040  -27.8250   22.6130 C   0  0  0  0  0  3  0  0  0  0  0  0
  -21.0230  -26.5940   21.6820 C   0  0  0  0  0  2  0  0  0  0  0  0
  -19.9530  -26.7310   20.5940 C   0  0  0  0  0  2  0  0  0  0  0  0
  -18.5720  -26.9360   21.2220 C   0  0  0  0  0  2  0  0  0  0  0  0
  -19.7540  -28.5060   22.8650 C   0  0  0  0  0  0  0  0  0  0  0  0
  -19.6970  -29.5950   23.7600 C   0  0  0  0  0  3  0  0  0  0  0  0
  -18.4780  -30.2490   24.0210 C   0  0  0  0  0  3  0  0  0  0  0  0
  -17.2970  -29.8100   23.3970 C   0  0  0  0  0  3  0  0  0  0  0  0
  -17.3420  -28.7260   22.5020 C   0  0  0  0  0  3  0  0  0  0  0  0
  -27.0330  -30.5990   24.3710 C   0  0  0  0  0  3  0  0  0  0  0  0
  -26.9730  -31.8730   25.0980 N   0  0  0  0  0  0  0  0  0  0  0  0
  -27.5520  -33.0100   24.6920 C   0  0  0  0  0  0  0  0  0  0  0  0
  -28.2630  -33.0780   23.6850 O   0  0  0  0  0  0  0  0  0  0  0  0
  -26.3690  -31.9060   25.9060 H   0  0  0  0  0  0  0  0  0  0  0  0
  -26.2440  -35.1510   24.8510 C   0  0  0  0  0  1  0  0  0  0  0  0
  -27.3010  -34.2720   25.5380 C   0  0  0  0  0  3  0  0  0  0  0  0
  -29.4790  -34.3980   26.6650 C   0  0  0  0  0  1  0  0  0  0  0  0
  -28.5230  -35.0670   25.7850 N   0  0  0  0  0  0  0  0  0  0  0  0
  -28.2910  -35.9670   26.1940 H   0  0  0  0  0  0  0  0  0  0  0  0
  -27.3620  -29.4100   25.3530 C   0  0  1  0  0  0  0  0  0  0  0  0
  -26.2150  -29.0860   26.3370 C   0  0  0  0  0  1  0  0  0  0  0  0
  -27.6840  -28.1200   24.5630 C   0  0  0  0  0  1  0  0  0  0  0  0
  -28.6230  -29.7480   26.1850 C   0  0  0  0  0  1  0  0  0  0  0  0
  1  2  1  0
  2  5  1  0
  3  2  1  0
  4  2  1  0
  6  5  1  0
  7  9  2  0
  8  7  1  0
  8  6  1  0
 10  8  1  0
 11 13  1  0
 11  7  1  0
 12 13  1  0
 12 16  1  0
 13 15  1  0
 14 12  2  0
 17 23  1  0
 17 25  1  0
 18 23  1  0
 19 20  1  0
 19 18  1  0
 21 20  1  0
 21 30  1  0
 21 22  1  0
 23 22  1  0
 24 17  2  0
 25 16  1  0
 25 26  1  0
 27 28  2  0
 28 47  1  0
 29 28  1  0
 29 32  1  0
 30 31  1  0
 30 27  1  0
 31 29  2  0
 32 33  1  0
 33 34  2  0
 35 38  1  0
 35 34  1  0
 36 35  2  0
 37 36  1  0
 37 32  2  0
 38 39  1  0
 39 40  1  0
 40 41  2  0
 42 41  1  0
 42 46  1  0
 43 42  2  0
 44 39  2  0
 44 43  1  0
 45 44  1  0
 47 48  1  0
 48 51  1  0
 48 50  1  0
 49 47  2  0
 52 27  1  0
 52 53  1  0
 54 52  1  0
 55  1  1  0
 56 57  1  0
 57 59  1  0
 57 55  1  0
 58 56  2  0
 60 56  1  0
 61 62  1  0
 61 60  1  0
 62 65  1  0
 63 62  1  0
 64 62  1  0
 65 66  1  0
 66 67  1  0
 67 69  1  0
 68 79  2  0
 69 74  1  0
 70 80  1  0
 70 78  1  0
 71 77  1  0
 71 73  1  0
 72 78  1  0
 73 72  1  0
 74 73  2  0
 75 76  1  0
 75 69  2  0
 76 71  2  0
 77 70  1  0
 78 68  1  0
 80 82  2  0
 81 80  1  0
 83 81  1  0
 84 93  2  0
 84 89  1  0
 85 81  1  0
 85 89  1  0
 86 85  1  0
 87 88  1  0
 87 86  1  0
 88 84  1  0
 89 90  2  0
 90 91  1  0
 92 91  2  0
 93 92  1  0
 94 68  1  0
 94 95  1  0
 94104  1  0
 95 98  1  0
 96 95  1  0
 96100  1  0
 97 96  2  0
100 99  1  0
100102  1  0
102103  1  0
102101  1  0
104107  1  1
104105  1  0
106104  1  0
M  ISO  4  17 100  25 100  66 101  67 101
M  END
>  <TORSDO>  (77) 
F 30

>  <SCORE>  (77) 
-7.570

>  <name>  (77) 
86

>  <ligand_id>  (77) 
86

>  <original_smiles>  (77) 
[H]c1c([H])c([H])c2c(c1[H])C([H])([H])C([H])([H])C([H])([H])C2([H])N([H])C(=O)C1([H])N(C(=O)C([H])(N([H])C(=O)C([H])(N([H])C([H])([H])[H])C([H])([H])[H])C(C([H])([H])[H])(C([H])([H])[H])C([H])([H])[H])C([H])([H])c2c([H])c(OC([H])([H])C([H])([H])[N+]([H])([H])C([H])([H])C([H])([H])C(=O)N([H])C([H])([H])C([H])([H])[N+]([H])([H])C([H])([H])C([H])([H])N([H])C(=O)C([H])([H])N([H])C(=O)C([H])([H])N([H])C(=O)N3C([H])([H])C([H])([H])C([H])([H])C([H])(n4nc(-c5c([H])c([H])c(Oc6c([H])c([H])c(F)c([H])c6F)c([H])c5[H])c(C(=O)N([H])[H])c4N([H])[H])C3([H])[H])c([H])c([H])c2C1([H])[H]

>  <smiles>  (77) 
[H]c1c([H])c([H])c2c(c1[H])C([H])([H])C([H])([H])C([H])([H])C2([H])N([H])C(=O)C1([H])N(C(=O)C([H])(N([H])C(=O)C([H])(N([H])C([H])([H])[H])C([H])([H])[H])C(C([H])([H])[H])(C([H])([H])[H])C([H])([H])[H])C([H])([H])c2c([H])c(OC([H])([H])C([H])([H])[N+]([H])([H])C([H])([H])C([H])([H])C(=O)N([H])C([H])([H])C([H])([H])[N+]([H])([H])C([H])([H])C([H])([H])N([H])C(=O)C([H])([H])N([H])C(=O)C([H])([H])N([H])C(=O)N3C([H])([H])C([H])([H])C([H])([H])C([H])(n4nc(-c5c([H])c([H])c(Oc6c([H])c([H])c(F)c([H])c6F)c([H])c5[H])c(C(=O)N([H])[H])c4N([H])[H])C3([H])[H])c([H])c([H])c2C1([H])[H]

$$$$
87:0:0
     RDKit          3D

 94100  0  0  1  0  0  0  0  0999 V2000
  -23.4540  -27.5680   24.6960 C   0  0  0  0  0  0  0  0  0  0  0  0
  -24.7960  -27.2360   24.0430 N   0  0  0  0  0  0  0  0  0  0  0  0
  -23.1630  -26.7900   25.6040 O   0  0  0  0  0  0  0  0  0  0  0  0
  -25.0600  -28.0650   23.5100 H   0  0  0  0  0  0  0  0  0  0  0  0
  -22.0500  -28.8260   24.3460 C   0  0  0  0  0  2  0  0  0  0  0  0
  -21.2060  -29.4630   22.8170 O   0  0  0  0  0  0  0  0  0  0  0  0
  -20.9410  -29.0060   21.0400 C   0  0  0  0  0  1  0  0  0  0  0  0
  -22.0380  -27.8440   19.8770 C   0  0  0  0  0  1  0  0  0  0  0  0
  -23.7860  -27.0350   19.9190 C   0  0  0  0  0  2  0  0  0  0  0  0
  -25.4850  -27.3540   19.9230 O   0  0  0  0  0  0  0  0  0  0  0  0
  -24.8060  -31.8130   23.2740 C   0  0  0  0  0  0  0  0  0  0  0  0
  -26.3180  -28.0740   19.0700 C   0  0  0  0  0  3  0  0  0  0  0  0
  -23.6270  -30.2620   21.7870 C   0  0  0  0  0  3  0  0  0  0  0  0
  -24.4740  -29.8940   19.4610 C   0  0  0  0  0  3  0  0  0  0  0  0
  -25.8140  -31.2320   21.0670 C   0  0  0  0  0  2  0  0  0  0  0  0
  -25.7220  -30.1330   20.0320 C   0  0  0  0  0  3  0  0  0  0  0  0
  -26.7640  -29.2560   19.7120 C   0  0  0  0  0  2  0  0  0  0  0  0
  -25.4590  -28.2070   18.0130 C   0  0  0  0  0  2  0  0  0  0  0  0
  -24.3730  -29.0550   18.3190 C   0  0  0  0  0  2  0  0  0  0  0  0
  -23.3570  -30.4990   20.2460 C   0  0  0  0  0  2  0  0  0  0  0  0
  -24.7610  -31.1340   22.1020 N   0  0  0  0  0  0  0  0  0  0  0  0
  -23.8720  -31.8200   24.0910 O   0  0  0  0  0  0  0  0  0  0  0  0
  -23.9280  -28.7020   22.3310 C   0  0  0  0  0  3  0  0  0  0  0  0
  -23.0970  -27.4180   22.3520 N   0  0  0  0  0  0  0  0  0  0  0  0
  -24.9220  -28.6300   22.9910 O   0  0  0  0  0  0  0  0  0  0  0  0
  -23.7600  -26.6690   22.4910 H   0  0  0  0  0  0  0  0  0  0  0  0
  -18.9460  -26.1380   22.4000 C   0  0  0  0  0  0  0  0  0  0  0  0
  -21.5760  -26.7170   22.7430 C   0  0  0  0  0  3  0  0  0  0  0  0
  -21.7900  -25.3360   22.2350 C   0  0  0  0  0  2  0  0  0  0  0  0
  -20.7700  -24.9230   21.2120 C   0  0  0  0  0  2  0  0  0  0  0  0
  -19.4200  -24.8080   21.8830 C   0  0  0  0  0  2  0  0  0  0  0  0
  -19.9010  -27.1310   22.7970 C   0  0  0  0  0  0  0  0  0  0  0  0
  -19.2070  -28.3210   23.2900 C   0  0  0  0  0  3  0  0  0  0  0  0
  -17.7970  -28.5130   23.3020 C   0  0  0  0  0  3  0  0  0  0  0  0
  -16.9440  -27.4840   22.8970 C   0  0  0  0  0  3  0  0  0  0  0  0
  -17.5340  -26.2940   22.4630 C   0  0  0  0  0  3  0  0  0  0  0  0
  -26.0830  -32.6080   23.6240 C   0  0  0  0  0  3  0  0  0  0  0  0
  -26.9390  -31.8850   24.7300 C   0  0  1  0  0  0  0  0  0  0  0  0
  -26.1340  -31.4950   25.9890 C   0  0  0  0  0  1  0  0  0  0  0  0
  -27.6120  -30.5990   24.1940 C   0  0  0  0  0  1  0  0  0  0  0  0
  -28.0920  -32.8150   25.1590 C   0  0  0  0  0  1  0  0  0  0  0  0
  -25.6630  -33.9440   24.0590 N   0  0  0  0  0  0  0  0  0  0  0  0
  -25.8350  -35.0610   23.3400 C   0  0  0  0  0  0  0  0  0  0  0  0
  -26.4230  -35.0750   22.2550 O   0  0  0  0  0  0  0  0  0  0  0  0
  -25.1230  -33.9970   24.9090 H   0  0  0  0  0  0  0  0  0  0  0  0
  -23.9840  -36.7600   23.1920 C   0  0  0  0  0  1  0  0  0  0  0  0
  -25.2760  -36.3700   23.9260 C   0  0  0  0  0  3  0  0  0  0  0  0
  -27.3900  -37.3100   24.7510 C   0  0  0  0  0  1  0  0  0  0  0  0
  -26.2380  -37.4930   23.8720 N   0  0  0  0  0  0  0  0  0  0  0  0
  -25.7850  -38.3690   24.1180 H   0  0  0  0  0  0  0  0  0  0  0  0
  -26.0070  -26.0330   23.9190 C   0  0  0  0  0  3  0  0  0  0  0  0
  -27.6010  -25.8290   22.9900 C   0  0  0  0  0  3  0  0  0  0  0  0
  -28.8240  -24.4640   22.6770 C   0  0  0  0  0  3  0  0  0  0  0  0
  -30.3920  -24.2080   21.7120 C   0  0  0  0  0  2  0  0  0  0  0  0
  -31.5030  -22.7950   21.2350 C   0  0  0  0  0  3  0  0  0  0  0  0
  -33.0140  -22.5460   20.1840 C   0  0  0  0  0  3  0  0  0  0  0  0
  -35.0610  -20.7790   18.7260 C   0  0  0  0  0  0  0  0  0  0  0  0
  -36.0490  -18.8670   17.1770 C   0  0  0  0  0  2  0  0  0  0  0  0
  -35.0370  -18.2960   16.1360 C   0  0  0  0  0  2  0  0  0  0  0  0
  -34.0550  -17.3100   16.7950 C   0  0  0  0  0  2  0  0  0  0  0  0
  -33.5660  -17.8520   18.1590 C   0  0  0  0  0  3  0  0  0  0  0  0
  -34.7250  -18.2880   19.0650 C   0  0  0  0  0  2  0  0  0  0  0  0
  -35.3220  -19.4230   18.3930 N   0  0  0  0  0  0  0  0  0  0  0  0
  -35.8320  -21.5390   18.0980 O   0  0  0  0  0  0  0  0  0  0  0  0
  -33.9200  -21.2010   19.6340 N   0  0  0  0  0  0  0  0  0  0  0  0
  -33.5100  -20.3590   20.0100 H   0  0  0  0  0  0  0  0  0  0  0  0
  -31.5080  -17.2180   19.4920 C   0  0  0  0  0  0  0  0  0  0  0  0
  -31.0690  -16.0250   19.9860 C   0  0  0  0  0  0  0  0  0  0  0  0
  -32.0640  -15.0600   19.6380 C   0  0  0  0  0  0  0  0  0  0  0  0
  -32.7060  -16.9370   18.8670 N   0  0  0  0  0  0  0  0  0  0  0  0
  -33.0780  -15.6430   19.0160 N   0  0  0  0  0  0  0  0  0  0  0  0
  -32.0800  -13.6050   19.8020 C   0  0  0  0  0  0  0  0  0  0  0  0
  -32.7120  -12.9910   20.9070 C   0  0  0  0  0  3  0  0  0  0  0  0
  -32.6960  -11.5870   21.0470 C   0  0  0  0  0  3  0  0  0  0  0  0
  -32.0420  -10.7850   20.0810 C   0  0  0  0  0  0  0  0  0  0  0  0
  -31.4370  -11.4010   18.9730 C   0  0  0  0  0  3  0  0  0  0  0  0
  -31.4580  -12.7980   18.8300 C   0  0  0  0  0  3  0  0  0  0  0  0
  -31.9960   -9.4130   20.1230 O   0  0  0  0  0  0  0  0  0  0  0  0
  -31.4040   -8.7450   21.1630 C   0  0  0  0  0  0  0  0  0  0  0  0
  -30.1140   -9.0820   21.6280 C   0  0  0  0  0  3  0  0  0  0  0  0
  -29.5150   -8.3230   22.6530 C   0  0  0  0  0  3  0  0  0  0  0  0
  -30.1990   -7.2240   23.2080 C   0  0  0  0  0  0  0  0  0  0  0  0
  -31.4820   -6.8850   22.7430 C   0  0  0  0  0  3  0  0  0  0  0  0
  -32.0810   -7.6420   21.7220 C   0  0  0  0  0  0  0  0  0  0  0  0
  -33.3080   -7.2990   21.2620 F   0  0  0  0  0  0  0  0  0  0  0  0
  -29.6210   -6.4910   24.1880 F   0  0  0  0  0  0  0  0  0  0  0  0
  -29.7500  -15.7760   20.6560 C   0  0  0  0  0  0  0  0  0  0  0  0
  -29.6800  -14.7640   21.5110 N   0  0  0  0  0  0  0  0  0  0  0  0
  -28.7870  -16.5140   20.4570 O   0  0  0  0  0  0  0  0  0  0  0  0
  -30.4780  -14.1710   21.6870 H   0  0  0  0  0  0  0  0  0  0  0  0
  -28.8140  -14.5780   21.9980 H   0  0  0  0  0  0  0  0  0  0  0  0
  -30.9850  -18.5100   19.4980 N   0  0  0  0  0  0  0  0  0  0  0  0
  -30.0690  -18.7130   19.8840 H   0  0  0  0  0  0  0  0  0  0  0  0
  -31.3760  -19.2890   18.9830 H   0  0  0  0  0  0  0  0  0  0  0  0
  1  3  2  0
  2  1  1  0
  5  1  1  0
  6  5  1  0
  7  6  1  0
  8  9  1  0
  9 10  1  0
 11 22  2  0
 12 17  1  0
 12 10  1  0
 13 21  1  0
 13 23  1  0
 14 19  1  0
 14 16  1  0
 14 20  1  0
 15 21  1  0
 16 17  1  0
 16 15  1  0
 18 19  1  0
 18 12  1  0
 20 13  1  0
 21 11  1  0
 23 24  1  0
 23 25  1  0
 24 26  1  0
 25  4  1  0
 27 36  2  0
 27 32  1  0
 28 24  1  0
 28 32  1  0
 29 28  1  0
 30 31  1  0
 30 29  1  0
 31 27  1  0
 32 33  2  0
 33 34  1  0
 35 34  2  0
 36 35  1  0
 37 11  1  0
 37 42  1  0
 37 38  1  0
 38 41  1  1
 38 39  1  0
 40 38  1  0
 42 45  1  0
 43 47  1  0
 43 42  1  0
 44 43  2  0
 47 46  1  0
 49 47  1  0
 49 50  1  0
 49 48  1  0
 51  2  2  0
 52 51  1  0
 53 52  2  0
 54 53  1  0
 55 54  1  0
 56 55  2  0
 57 65  1  0
 58 63  1  0
 59 60  1  0
 59 58  1  0
 61 60  1  0
 61 70  1  0
 61 62  1  0
 63 57  1  0
 63 62  1  0
 64 57  2  0
 65 66  1  0
 65 56  1  0
 67 92  1  0
 67 68  2  0
 68 87  1  0
 69 72  1  0
 69 68  1  0
 70 71  1  0
 70 67  1  0
 71 69  2  0
 72 73  1  0
 73 74  2  0
 75 78  1  0
 75 74  1  0
 76 75  2  0
 77 76  1  0
 77 72  2  0
 78 79  1  0
 79 80  2  0
 79 84  1  0
 80 81  1  0
 81 82  2  0
 82 86  1  0
 83 82  1  0
 84 83  2  0
 85 84  1  0
 87 88  1  0
 88 90  1  0
 88 91  1  0
 89 87  2  0
 92 93  1  0
 94 92  1  0
M  ISO  4   9 101  10 101  57 100  65 100
M  END
>  <TORSDO>  (78) 
F 27

>  <SCORE>  (78) 
-8.932

>  <name>  (78) 
87

>  <ligand_id>  (78) 
87

>  <original_smiles>  (78) 
[H]c1c([H])c([H])c2c(c1[H])C([H])([H])C([H])([H])C([H])([H])C2([H])N([H])C(=O)C1([H])N(C(=O)C([H])(N([H])C(=O)C([H])(N([H])C([H])([H])[H])C([H])([H])[H])C(C([H])([H])[H])(C([H])([H])[H])C([H])([H])[H])C([H])([H])c2c([H])c(OC([H])([H])C([H])([H])C([H])([H])OC([H])([H])C(=O)N([H])C([H])([H])C([H])([H])C([H])([H])C([H])([H])C([H])([H])C([H])([H])N([H])C(=O)N3C([H])([H])C([H])([H])C([H])([H])C([H])(n4nc(-c5c([H])c([H])c(Oc6c([H])c([H])c(F)c([H])c6F)c([H])c5[H])c(C(=O)N([H])[H])c4N([H])[H])C3([H])[H])c([H])c([H])c2C1([H])[H]

>  <smiles>  (78) 
[H]c1c([H])c([H])c2c(c1[H])C([H])([H])C([H])([H])C([H])([H])C2([H])N([H])C(=O)C1([H])N(C(=O)C([H])(N([H])C(=O)C([H])(N([H])C([H])([H])[H])C([H])([H])[H])C(C([H])([H])[H])(C([H])([H])[H])C([H])([H])[H])C([H])([H])c2c([H])c(OC([H])([H])C([H])([H])C([H])([H])OC([H])([H])C(=O)N([H])C([H])([H])C([H])([H])C([H])([H])C([H])([H])C([H])([H])C([H])([H])N([H])C(=O)N3C([H])([H])C([H])([H])C([H])([H])C([H])(n4nc(-c5c([H])c([H])c(Oc6c([H])c([H])c(F)c([H])c6F)c([H])c5[H])c(C(=O)N([H])[H])c4N([H])[H])C3([H])[H])c([H])c([H])c2C1([H])[H]

$$$$
88:0:0
     RDKit          3D

107113  0  0  1  0  0  0  0  0999 V2000
  -22.6710  -18.0360   18.7840 C   0  0  0  0  0  2  0  0  0  0  0  0
  -23.7300  -19.0950   19.1560 C   0  0  0  0  0  0  0  0  0  0  0  0
  -24.9890  -18.9190   18.7320 N   0  0  0  0  0  0  0  0  0  0  0  0
  -23.3910  -20.0890   19.7980 O   0  0  0  0  0  0  0  0  0  0  0  0
  -25.1840  -18.0510   18.2560 H   0  0  0  0  0  0  0  0  0  0  0  0
  -26.1300  -19.8360   18.9100 C   0  0  0  0  0  2  0  0  0  0  0  0
  -26.3780  -20.7060   17.6490 C   0  0  0  0  0  2  0  0  0  0  0  0
  -27.8380  -21.1800   17.3410 C   0  0  0  0  0  2  0  0  0  0  0  0
  -27.7300  -22.5330   16.7310 N   0  0  0  0  0  4  0  0  0  0  0  0
  -27.1910  -23.0730   17.3930 H   0  0  0  0  0  0  0  0  0  0  0  0
  -27.1560  -22.4200   15.9090 H   0  0  0  0  0  0  0  0  0  0  0  0
  -28.8970  -23.4080   16.3340 C   0  0  0  0  0  2  0  0  0  0  0  0
  -28.3060  -24.8410   16.0440 C   0  0  0  0  0  2  0  0  0  0  0  0
  -28.8280  -26.1720   16.4180 O   0  0  0  0  0  0  0  0  0  0  0  0
  -24.9000  -28.0250   22.0820 C   0  0  0  0  0  0  0  0  0  0  0  0
  -27.8470  -27.0500   16.8990 C   0  0  0  0  0  0  0  0  0  0  0  0
  -23.9050  -28.3720   19.8520 C   0  0  0  0  0  3  0  0  0  0  0  0
  -25.5230  -28.3330   17.8960 C   0  0  0  0  0  0  0  0  0  0  0  0
  -26.4440  -28.5350   20.1900 C   0  0  0  0  0  2  0  0  0  0  0  0
  -26.6050  -28.0910   18.7540 C   0  0  0  0  0  0  0  0  0  0  0  0
  -27.7750  -27.4390   18.2620 C   0  0  0  0  0  3  0  0  0  0  0  0
  -26.8050  -27.4980   16.0380 C   0  0  0  0  0  3  0  0  0  0  0  0
  -25.6270  -28.0550   16.5330 C   0  0  0  0  0  3  0  0  0  0  0  0
  -24.2720  -28.9520   18.4670 C   0  0  0  0  0  2  0  0  0  0  0  0
  -25.0950  -28.2780   20.7600 N   0  0  0  0  0  0  0  0  0  0  0  0
  -23.7590  -27.8930   22.5520 O   0  0  0  0  0  0  0  0  0  0  0  0
  -23.1720  -27.0220   19.6680 C   0  0  0  0  0  0  0  0  0  0  0  0
  -21.9600  -27.0690   19.0890 N   0  0  0  0  0  0  0  0  0  0  0  0
  -23.7010  -25.9660   20.0240 O   0  0  0  0  0  0  0  0  0  0  0  0
  -21.6130  -27.9760   18.8180 H   0  0  0  0  0  0  0  0  0  0  0  0
  -18.9610  -26.0590   17.3320 C   0  0  0  0  0  0  0  0  0  0  0  0
  -21.0910  -25.9280   18.7910 C   0  0  0  0  0  3  0  0  0  0  0  0
  -21.6920  -25.0550   17.6620 C   0  0  0  0  0  2  0  0  0  0  0  0
  -21.1670  -25.4310   16.2730 C   0  0  0  0  0  2  0  0  0  0  0  0
  -19.6440  -25.3020   16.2110 C   0  0  0  0  0  2  0  0  0  0  0  0
  -19.6430  -26.3670   18.5380 C   0  0  0  0  0  0  0  0  0  0  0  0
  -18.9640  -27.1020   19.5340 C   0  0  0  0  0  3  0  0  0  0  0  0
  -17.6300  -27.5130   19.3450 C   0  0  0  0  0  3  0  0  0  0  0  0
  -16.9560  -27.1860   18.1560 C   0  0  0  0  0  3  0  0  0  0  0  0
  -17.6220  -26.4620   17.1540 C   0  0  0  0  0  3  0  0  0  0  0  0
  -26.0960  -27.9140   23.0700 C   0  0  0  0  0  3  0  0  0  0  0  0
  -25.6960  -28.5460   24.3340 N   0  0  0  0  0  0  0  0  0  0  0  0
  -26.1520  -29.7260   24.7710 C   0  0  0  0  0  0  0  0  0  0  0  0
  -27.0210  -30.3700   24.1740 O   0  0  0  0  0  0  0  0  0  0  0  0
  -24.9570  -28.0970   24.8540 H   0  0  0  0  0  0  0  0  0  0  0  0
  -24.5760  -31.4280   25.7420 C   0  0  0  0  0  1  0  0  0  0  0  0
  -25.5510  -30.2880   26.0760 C   0  0  0  0  0  3  0  0  0  0  0  0
  -27.3730  -29.6880   27.6110 C   0  0  0  0  0  1  0  0  0  0  0  0
  -26.5700  -30.7650   27.0390 N   0  0  0  0  0  0  0  0  0  0  0  0
  -26.1370  -31.2790   27.8020 H   0  0  0  0  0  0  0  0  0  0  0  0
  -26.5530  -26.4240   23.3160 C   0  0  1  0  0  0  0  0  0  0  0  0
  -25.3970  -25.4770   23.7220 C   0  0  0  0  0  1  0  0  0  0  0  0
  -27.2130  -25.8330   22.0480 C   0  0  0  0  0  1  0  0  0  0  0  0
  -27.6320  -26.3800   24.4290 C   0  0  0  0  0  1  0  0  0  0  0  0
  -22.4390  -15.5930   18.3900 C   0  0  0  0  0  0  0  0  0  0  0  0
  -23.1950  -16.6950   18.4980 N   0  0  0  0  0  0  0  0  0  0  0  0
  -21.2240  -15.5870   18.5860 O   0  0  0  0  0  0  0  0  0  0  0  0
  -24.1700  -16.6080   18.2600 H   0  0  0  0  0  0  0  0  0  0  0  0
  -23.1370  -14.3060   17.9420 C   0  0  0  0  0  2  0  0  0  0  0  0
  -24.4140  -12.4300   18.9540 C   0  0  0  0  0  0  0  0  0  0  0  0
  -23.9390  -13.6860   18.9830 N   0  0  0  0  0  0  0  0  0  0  0  0
  -24.0570  -11.6150   18.0920 O   0  0  0  0  0  0  0  0  0  0  0  0
  -24.1610  -14.2380   19.8100 H   0  0  0  0  0  0  0  0  0  0  0  0
  -25.6340  -12.1060   19.9060 C   0  0  0  0  0  2  0  0  0  0  0  0
  -27.2750  -14.4750   19.2520 C   0  0  0  0  0  0  0  0  0  0  0  0
  -26.4450  -13.3320   19.2220 N   0  0  0  0  0  0  0  0  0  0  0  0
  -27.1790  -15.0970   18.1980 O   0  0  0  0  0  0  0  0  0  0  0  0
  -26.0420  -13.3650   18.2980 H   0  0  0  0  0  0  0  0  0  0  0  0
  -28.3730  -15.2130   20.2650 C   0  0  0  0  0  2  0  0  0  0  0  0
  -30.5340  -14.0560   21.4530 C   0  0  0  0  0  0  0  0  0  0  0  0
  -30.9560  -11.7630   20.6830 C   0  0  0  0  0  2  0  0  0  0  0  0
  -30.0000  -11.6420   19.4720 C   0  0  0  0  0  2  0  0  0  0  0  0
  -28.6000  -11.2690   19.9700 C   0  0  0  0  0  2  0  0  0  0  0  0
  -28.2880  -12.1860   21.1840 C   0  0  0  0  0  3  0  0  0  0  0  0
  -29.2340  -12.1800   22.3090 C   0  0  0  0  0  2  0  0  0  0  0  0
  -30.3800  -12.7240   21.6380 N   0  0  0  0  0  0  0  0  0  0  0  0
  -31.6640  -14.4990   21.2430 O   0  0  0  0  0  0  0  0  0  0  0  0
  -29.3570  -14.8140   21.4040 N   0  0  0  0  0  0  0  0  0  0  0  0
  -29.5440  -15.6620   21.9220 H   0  0  0  0  0  0  0  0  0  0  0  0
  -25.6080  -13.4500   22.0910 C   0  0  0  0  0  2  0  0  0  0  0  0
  -24.1530  -12.5250   21.9380 C   0  0  0  0  0  3  0  0  0  0  0  0
  -24.5590  -10.8240   21.4680 C   0  0  0  0  0  3  0  0  0  0  0  0
  -27.0390  -12.2190   21.6900 N   0  0  0  0  0  2  0  0  0  0  0  0
  -26.2730  -10.6340   21.3280 N   0  0  0  0  0  2  0  0  0  0  0  0
  -23.8990   -9.6060   21.7480 C   0  0  0  0  0  0  0  0  0  0  0  0
  -24.3340   -8.7180   22.7640 C   0  0  0  0  0  3  0  0  0  0  0  0
  -23.6620   -7.4880   22.9130 C   0  0  0  0  0  3  0  0  0  0  0  0
  -22.5740   -7.1930   22.0550 C   0  0  0  0  0  0  0  0  0  0  0  0
  -22.1720   -8.1070   21.0700 C   0  0  0  0  0  3  0  0  0  0  0  0
  -22.8280   -9.3250   20.9210 C   0  0  0  0  0  3  0  0  0  0  0  0
  -21.8800   -6.0230   22.0480 O   0  0  0  0  0  0  0  0  0  0  0  0
  -21.7350   -5.2680   23.1740 C   0  0  0  0  0  0  0  0  0  0  0  0
  -21.1030   -5.7670   24.3340 C   0  0  0  0  0  3  0  0  0  0  0  0
  -20.9020   -4.9130   25.4330 C   0  0  0  0  0  3  0  0  0  0  0  0
  -21.3170   -3.5690   25.3740 C   0  0  0  0  0  0  0  0  0  0  0  0
  -21.9490   -3.0790   24.2190 C   0  0  0  0  0  3  0  0  0  0  0  0
  -22.1580   -3.9290   23.1190 C   0  0  0  0  0  0  0  0  0  0  0  0
  -22.7450   -3.4530   21.9950 F   0  0  0  0  0  0  0  0  0  0  0  0
  -21.1100   -2.7490   26.4310 F   0  0  0  0  0  0  0  0  0  0  0  0
  -22.7880  -12.9400   22.2890 C   0  0  0  0  0  0  0  0  0  0  0  0
  -22.1370  -12.1320   23.1060 N   0  0  0  0  0  0  0  0  0  0  0  0
  -22.3370  -13.9870   21.8560 O   0  0  0  0  0  0  0  0  0  0  0  0
  -22.6580  -11.4190   23.5920 H   0  0  0  0  0  0  0  0  0  0  0  0
  -21.2060  -12.3680   23.4140 H   0  0  0  0  0  0  0  0  0  0  0  0
  -25.7800  -14.8030   22.1900 N   0  0  0  0  0  0  0  0  0  0  0  0
  -25.0320  -15.3980   22.5320 H   0  0  0  0  0  0  0  0  0  0  0  0
  -26.6900  -15.1450   22.4800 H   0  0  0  0  0  0  0  0  0  0  0  0
  1  2  1  0
  2  4  2  0
  3  6  1  0
  3  2  1  0
  5  3  1  0
  7  6  1  0
  8  7  1  0
  9  8  1  0
  9 10  1  0
 11  9  1  0
 12  9  1  0
 13 12  1  0
 13 14  1  0
 14 16  1  0
 15 26  2  0
 16 21  1  0
 17 27  1  0
 17 25  1  0
 18 24  1  0
 18 20  1  0
 19 25  1  0
 20 19  1  0
 21 20  2  0
 22 23  1  0
 22 16  2  0
 23 18  2  0
 24 17  1  0
 25 15  1  0
 27 29  2  0
 28 27  1  0
 30 28  1  0
 31 36  1  0
 32 28  1  0
 33 32  1  0
 34 33  1  0
 35 34  1  0
 35 31  1  0
 36 32  1  0
 36 37  2  0
 38 37  1  0
 39 38  2  0
 40 31  2  0
 40 39  1  0
 41 15  1  0
 41 51  1  0
 41 42  1  0
 42 43  1  0
 42 45  1  0
 43 47  1  0
 44 43  2  0
 47 46  1  0
 47 49  1  0
 49 48  1  0
 49 50  1  0
 51 52  1  1
 51 54  1  0
 53 51  1  0
 55 56  1  0
 55 57  2  0
 56  1  1  0
 58 56  1  0
 59 55  1  0
 59 61  1  0
 60 61  1  0
 60 64  1  0
 61 63  1  0
 62 60  2  0
 65 69  1  0
 66 65  1  0
 66 64  1  0
 67 65  2  0
 68 66  1  0
 69 78  1  0
 70 76  1  0
 71 76  1  0
 72 73  1  0
 72 71  1  0
 73 74  1  0
 74 83  1  0
 74 75  1  0
 76 75  1  0
 77 70  2  0
 78 70  1  0
 78 79  1  0
 80105  1  0
 81 80  1  0
 81100  1  0
 82 84  1  0
 82 85  1  0
 82 81  1  0
 84 83  1  0
 85 86  1  0
 86 87  2  0
 88 87  1  0
 89 88  2  0
 90 89  1  0
 90 85  2  0
 91 88  1  0
 91 92  1  0
 92 93  1  0
 93 94  2  0
 95 94  1  0
 95 99  1  0
 96 95  2  0
 97 92  2  0
 97 96  1  0
 98 97  1  0
100101  1  0
101104  1  0
101103  1  0
102100  2  0
105107  1  0
105106  1  0
M  ISO  4  13 101  14 101  70 100  78 100
M  END
>  <TORSDO>  (79) 
F 29

>  <SCORE>  (79) 
20.778

>  <name>  (79) 
88

>  <ligand_id>  (79) 
88

>  <original_smiles>  (79) 
[H]c1c([H])c([H])c2c(c1[H])C([H])([H])C([H])([H])C([H])([H])C2([H])N([H])C(=O)C1([H])N(C(=O)C([H])(N([H])C(=O)C([H])(N([H])C([H])([H])[H])C([H])([H])[H])C(C([H])([H])[H])(C([H])([H])[H])C([H])([H])[H])C([H])([H])c2c([H])c(OC([H])([H])C([H])([H])[N+]([H])([H])C([H])([H])C([H])([H])C([H])([H])N([H])C(=O)C([H])([H])N([H])C(=O)C([H])([H])N([H])C(=O)C([H])([H])N([H])C(=O)C([H])([H])N([H])C(=O)N3C([H])([H])C([H])([H])C([H])([H])C([H])(n4nc(-c5c([H])c([H])c(Oc6c([H])c([H])c(F)c([H])c6F)c([H])c5[H])c(C(=O)N([H])[H])c4N([H])[H])C3([H])[H])c([H])c([H])c2C1([H])[H]

>  <smiles>  (79) 
[H]c1c([H])c([H])c2c(c1[H])C([H])([H])C([H])([H])C([H])([H])C2([H])N([H])C(=O)C1([H])N(C(=O)C([H])(N([H])C(=O)C([H])(N([H])C([H])([H])[H])C([H])([H])[H])C(C([H])([H])[H])(C([H])([H])[H])C([H])([H])[H])C([H])([H])c2c([H])c(OC([H])([H])C([H])([H])[N+]([H])([H])C([H])([H])C([H])([H])C([H])([H])N([H])C(=O)C([H])([H])N([H])C(=O)C([H])([H])N([H])C(=O)C([H])([H])N([H])C(=O)C([H])([H])N([H])C(=O)N3C([H])([H])C([H])([H])C([H])([H])C([H])(n4nc(-c5c([H])c([H])c(Oc6c([H])c([H])c(F)c([H])c6F)c([H])c5[H])c(C(=O)N([H])[H])c4N([H])[H])C3([H])[H])c([H])c([H])c2C1([H])[H]

$$$$
89:0:0
     RDKit          3D

105112  0  0  1  0  0  0  0  0999 V2000
  -34.0720  -23.6780   20.2650 C   0  0  0  0  0  0  0  0  0  0  0  0
  -34.3720  -24.9450   19.9600 N   0  0  0  0  0  0  0  0  0  0  0  0
  -34.8870  -22.9160   20.7910 O   0  0  0  0  0  0  0  0  0  0  0  0
  -33.6530  -25.5010   19.5120 H   0  0  0  0  0  0  0  0  0  0  0  0
  -35.6830  -25.5730   20.1510 C   0  0  0  0  0  2  0  0  0  0  0  0
  -35.9130  -26.1260   21.5760 C   0  0  0  0  0  2  0  0  0  0  0  0
  -35.0600  -27.3530   21.9070 C   0  0  0  0  0  0  0  0  0  0  0  0
  -34.0750  -27.1870   22.7990 N   0  0  0  0  0  0  0  0  0  0  0  0
  -35.3010  -28.4370   21.3710 O   0  0  0  0  0  0  0  0  0  0  0  0
  -33.9560  -26.2610   23.1930 H   0  0  0  0  0  0  0  0  0  0  0  0
  -33.1720  -28.2300   23.2750 C   0  0  0  0  0  2  0  0  0  0  0  0
  -32.0530  -28.5480   22.2670 C   0  0  0  0  0  2  0  0  0  0  0  0
  -31.1580  -27.3430   21.9250 C   0  0  0  0  0  2  0  0  0  0  0  0
  -30.0770  -27.7090   20.8980 C   0  0  0  0  0  2  0  0  0  0  0  0
  -29.0580  -26.5780   20.6720 C   0  0  0  0  0  2  0  0  0  0  0  0
  -28.2890  -26.7540   19.4820 O   0  0  0  0  0  0  0  0  0  0  0  0
  -24.4840  -31.6160   23.0280 C   0  0  0  0  0  0  0  0  0  0  0  0
  -27.1150  -27.4520   19.6180 C   0  0  0  0  0  0  0  0  0  0  0  0
  -23.2380  -30.2620   21.3720 C   0  0  0  0  0  3  0  0  0  0  0  0
  -24.6660  -28.8400   19.8090 C   0  0  0  0  0  0  0  0  0  0  0  0
  -25.7310  -30.7220   21.0700 C   0  0  0  0  0  2  0  0  0  0  0  0
  -25.8260  -29.3860   20.3690 C   0  0  0  0  0  0  0  0  0  0  0  0
  -27.0530  -28.7000   20.2730 C   0  0  0  0  0  3  0  0  0  0  0  0
  -25.9440  -26.9160   19.0480 C   0  0  0  0  0  3  0  0  0  0  0  0
  -24.7160  -27.6000   19.1470 C   0  0  0  0  0  3  0  0  0  0  0  0
  -23.3980  -29.6510   19.9530 C   0  0  0  0  0  2  0  0  0  0  0  0
  -24.5050  -30.8790   21.8830 N   0  0  0  0  0  0  0  0  0  0  0  0
  -23.4240  -31.8280   23.6330 O   0  0  0  0  0  0  0  0  0  0  0  0
  -22.6640  -29.1760   22.3080 C   0  0  0  0  0  0  0  0  0  0  0  0
  -21.3470  -28.9350   22.2050 N   0  0  0  0  0  0  0  0  0  0  0  0
  -23.3970  -28.5540   23.0810 O   0  0  0  0  0  0  0  0  0  0  0  0
  -20.8140  -29.4930   21.5520 H   0  0  0  0  0  0  0  0  0  0  0  0
  -18.0600  -27.5120   22.6680 C   0  0  0  0  0  0  0  0  0  0  0  0
  -20.5950  -27.9320   22.9550 C   0  0  0  0  0  3  0  0  0  0  0  0
  -20.7930  -26.5210   22.3520 C   0  0  0  0  0  2  0  0  0  0  0  0
  -19.7170  -26.1450   21.3280 C   0  0  0  0  0  2  0  0  0  0  0  0
  -18.3280  -26.1890   21.9700 C   0  0  0  0  0  2  0  0  0  0  0  0
  -19.1250  -28.3380   23.1160 C   0  0  0  0  0  0  0  0  0  0  0  0
  -18.8230  -29.5750   23.7270 C   0  0  0  0  0  3  0  0  0  0  0  0
  -17.4890  -29.9880   23.8930 C   0  0  0  0  0  3  0  0  0  0  0  0
  -16.4380  -29.1600   23.4630 C   0  0  0  0  0  3  0  0  0  0  0  0
  -16.7240  -27.9240   22.8560 C   0  0  0  0  0  3  0  0  0  0  0  0
  -25.7830  -32.2500   23.6210 C   0  0  0  0  0  3  0  0  0  0  0  0
  -25.4610  -33.6260   24.0180 N   0  0  0  0  0  0  0  0  0  0  0  0
  -25.7740  -34.7160   23.3060 C   0  0  0  0  0  0  0  0  0  0  0  0
  -26.4380  -34.6690   22.2660 O   0  0  0  0  0  0  0  0  0  0  0  0
  -24.8710  -33.7350   24.8310 H   0  0  0  0  0  0  0  0  0  0  0  0
  -24.0240  -36.5000   23.0400 C   0  0  0  0  0  1  0  0  0  0  0  0
  -25.2720  -36.0750   23.8290 C   0  0  0  0  0  3  0  0  0  0  0  0
  -27.4050  -36.9390   24.6830 C   0  0  0  0  0  1  0  0  0  0  0  0
  -26.2910  -37.1440   23.7610 N   0  0  0  0  0  0  0  0  0  0  0  0
  -25.8780  -38.0510   23.9610 H   0  0  0  0  0  0  0  0  0  0  0  0
  -26.3750  -31.4380   24.8370 C   0  0  1  0  0  0  0  0  0  0  0  0
  -25.3370  -31.1350   25.9440 C   0  0  0  0  0  1  0  0  0  0  0  0
  -26.9630  -30.0910   24.3560 C   0  0  0  0  0  1  0  0  0  0  0  0
  -27.5430  -32.2260   25.4750 C   0  0  0  0  0  1  0  0  0  0  0  0
  -32.6570  -23.1930   19.9270 C   0  0  0  0  0  2  0  0  0  0  0  0
  -32.1880  -20.7560   20.1850 C   0  0  0  0  0  0  0  0  0  0  0  0
  -32.6990  -21.7910   19.5140 N   0  0  0  0  0  0  0  0  0  0  0  0
  -31.4780  -20.9010   21.1820 O   0  0  0  0  0  0  0  0  0  0  0  0
  -33.2930  -21.5850   18.7230 H   0  0  0  0  0  0  0  0  0  0  0  0
  -32.5300  -19.3560   19.6550 C   0  0  0  0  0  2  0  0  0  0  0  0
  -31.4120  -17.4840   20.8820 C   0  0  0  0  0  0  0  0  0  0  0  0
  -31.4460  -18.4180   19.9270 N   0  0  0  0  0  0  0  0  0  0  0  0
  -32.3770  -17.2070   21.5970 O   0  0  0  0  0  0  0  0  0  0  0  0
  -30.5900  -18.5790   19.4140 H   0  0  0  0  0  0  0  0  0  0  0  0
  -30.0540  -16.8040   21.1000 C   0  0  0  0  0  2  0  0  0  0  0  0
  -30.5770  -14.4970   20.1710 C   0  0  0  0  0  0  0  0  0  0  0  0
  -30.2140  -12.4120   18.9020 C   0  0  0  0  0  2  0  0  0  0  0  0
  -29.2140  -12.6700   17.7560 C   0  0  0  0  0  2  0  0  0  0  0  0
  -27.7610  -12.5190   18.2460 C   0  0  0  0  0  2  0  0  0  0  0  0
  -27.4880  -13.3150   19.5470 C   0  0  0  0  0  3  0  0  0  0  0  0
  -28.5810  -13.0170   20.6000 C   0  0  0  0  0  2  0  0  0  0  0  0
  -29.8980  -13.3310   20.0050 N   0  0  0  0  0  0  0  0  0  0  0  0
  -31.5850  -14.7890   19.5170 O   0  0  0  0  0  0  0  0  0  0  0  0
  -29.9990  -15.3390   21.0390 N   0  0  0  0  0  0  0  0  0  0  0  0
  -29.2390  -14.9310   21.5590 H   0  0  0  0  0  0  0  0  0  0  0  0
  -25.1100  -13.9270   20.3320 C   0  0  0  0  0  0  0  0  0  0  0  0
  -24.0560  -13.1560   20.7450 C   0  0  0  0  0  0  0  0  0  0  0  0
  -24.5190  -11.8050   20.7040 C   0  0  0  0  0  0  0  0  0  0  0  0
  -26.1480  -13.0460   20.0660 N   0  0  0  0  0  0  0  0  0  0  0  0
  -25.7970  -11.7650   20.3450 N   0  0  0  0  0  0  0  0  0  0  0  0
  -23.8050  -10.5410   20.9310 C   0  0  0  0  0  0  0  0  0  0  0  0
  -24.2830   -9.5760   21.8450 C   0  0  0  0  0  3  0  0  0  0  0  0
  -23.5720   -8.3750   22.0570 C   0  0  0  0  0  3  0  0  0  0  0  0
  -22.3680   -8.1300   21.3540 C   0  0  0  0  0  0  0  0  0  0  0  0
  -21.9080   -9.0840   20.4290 C   0  0  0  0  0  3  0  0  0  0  0  0
  -22.6200  -10.2760   20.2160 C   0  0  0  0  0  3  0  0  0  0  0  0
  -21.6260   -6.9810   21.4760 O   0  0  0  0  0  0  0  0  0  0  0  0
  -21.6390   -6.2340   22.6250 C   0  0  0  0  0  0  0  0  0  0  0  0
  -21.2940   -6.7870   23.8780 C   0  0  0  0  0  3  0  0  0  0  0  0
  -21.2500   -5.9680   25.0220 C   0  0  0  0  0  3  0  0  0  0  0  0
  -21.5440   -4.5950   24.9190 C   0  0  0  0  0  0  0  0  0  0  0  0
  -21.8820   -4.0410   23.6720 C   0  0  0  0  0  3  0  0  0  0  0  0
  -21.9260   -4.8570   22.5280 C   0  0  0  0  0  0  0  0  0  0  0  0
  -22.2330   -4.3150   21.3250 F   0  0  0  0  0  0  0  0  0  0  0  0
  -21.4950   -3.8040   26.0160 F   0  0  0  0  0  0  0  0  0  0  0  0
  -22.6690  -13.6330   21.0680 C   0  0  0  0  0  0  0  0  0  0  0  0
  -21.9730  -12.9420   21.9630 N   0  0  0  0  0  0  0  0  0  0  0  0
  -22.2090  -14.6540   20.5570 O   0  0  0  0  0  0  0  0  0  0  0  0
  -22.3580  -12.1210   22.4040 H   0  0  0  0  0  0  0  0  0  0  0  0
  -21.0430  -13.2450   22.2170 H   0  0  0  0  0  0  0  0  0  0  0  0
  -25.2710  -15.2950   20.1430 N   0  0  0  0  0  0  0  0  0  0  0  0
  -24.5140  -15.9580   20.2660 H   0  0  0  0  0  0  0  0  0  0  0  0
  -26.1150  -15.7200   19.7820 H   0  0  0  0  0  0  0  0  0  0  0  0
  1  3  2  0
  2  5  1  0
  2  1  1  0
  4  2  1  0
  5  6  1  0
  6  7  1  0
  7  8  1  0
  8 10  1  0
  8 11  1  0
  9  7  2  0
 12 11  1  0
 13 12  1  0
 14 13  1  0
 15 14  1  0
 16 18  1  0
 16 15  1  0
 17 28  2  0
 18 23  1  0
 19 27  1  0
 19 29  1  0
 20 26  1  0
 20 22  1  0
 21 27  1  0
 22 21  1  0
 23 22  2  0
 24 25  1  0
 24 18  2  0
 25 20  2  0
 26 19  1  0
 27 17  1  0
 29 31  2  0
 30 29  1  0
 32 30  1  0
 33 42  2  0
 33 38  1  0
 34 30  1  0
 34 38  1  0
 35 34  1  0
 36 37  1  0
 36 35  1  0
 37 33  1  0
 38 39  2  0
 39 40  1  0
 41 40  2  0
 42 41  1  0
 43 17  1  0
 43 44  1  0
 43 53  1  0
 44 47  1  0
 45 49  1  0
 45 44  1  0
 46 45  2  0
 49 48  1  0
 51 49  1  0
 51 52  1  0
 51 50  1  0
 53 56  1  1
 53 54  1  0
 55 53  1  0
 57  1  1  0
 58 60  2  0
 59 57  1  0
 59 58  1  0
 61 59  1  0
 62 64  1  0
 62 58  1  0
 63 67  1  0
 63 65  2  0
 64 63  1  0
 66 64  1  0
 68 76  1  0
 69 74  1  0
 70 71  1  0
 70 69  1  0
 72 71  1  0
 72 81  1  0
 72 73  1  0
 74 68  1  0
 74 73  1  0
 75 68  2  0
 76 67  1  0
 76 77  1  0
 78 79  2  0
 79 98  1  0
 80 79  1  0
 80 83  1  0
 81 78  1  0
 81 82  1  0
 82 80  2  0
 83 84  1  0
 84 85  2  0
 86 89  1  0
 86 85  1  0
 87 86  2  0
 88 87  1  0
 88 83  2  0
 89 90  1  0
 90 91  1  0
 91 92  2  0
 93 92  1  0
 93 97  1  0
 94 93  2  0
 95 90  2  0
 95 94  1  0
 96 95  1  0
 98 99  1  0
 99102  1  0
 99101  1  0
100 98  2  0
103104  1  0
103 78  1  0
105103  1  0
M  ISO  4  15 101  16 101  68 100  76 100
M  END
>  <TORSDO>  (80) 
F 29

>  <SCORE>  (80) 
-10.167

>  <name>  (80) 
89

>  <ligand_id>  (80) 
89

>  <original_smiles>  (80) 
[H]c1c([H])c([H])c2c(c1[H])C([H])([H])C([H])([H])C([H])([H])C2([H])N([H])C(=O)C1([H])N(C(=O)C([H])(N([H])C(=O)C([H])(N([H])C([H])([H])[H])C([H])([H])[H])C(C([H])([H])[H])(C([H])([H])[H])C([H])([H])[H])C([H])([H])c2c([H])c(OC([H])([H])C([H])([H])C([H])([H])C([H])([H])C([H])([H])N([H])C(=O)C([H])([H])C([H])([H])N([H])C(=O)C([H])([H])N([H])C(=O)C([H])([H])N([H])C(=O)C([H])([H])N([H])C(=O)N3C([H])([H])C([H])([H])C([H])([H])C([H])(n4nc(-c5c([H])c([H])c(Oc6c([H])c([H])c(F)c([H])c6F)c([H])c5[H])c(C(=O)N([H])[H])c4N([H])[H])C3([H])[H])c([H])c([H])c2C1([H])[H]

>  <smiles>  (80) 
[H]c1c([H])c([H])c2c(c1[H])C([H])([H])C([H])([H])C([H])([H])C2([H])N([H])C(=O)C1([H])N(C(=O)C([H])(N([H])C(=O)C([H])(N([H])C([H])([H])[H])C([H])([H])[H])C(C([H])([H])[H])(C([H])([H])[H])C([H])([H])[H])C([H])([H])c2c([H])c(OC([H])([H])C([H])([H])C([H])([H])C([H])([H])C([H])([H])N([H])C(=O)C([H])([H])C([H])([H])N([H])C(=O)C([H])([H])N([H])C(=O)C([H])([H])N([H])C(=O)C([H])([H])N([H])C(=O)N3C([H])([H])C([H])([H])C([H])([H])C([H])(n4nc(-c5c([H])c([H])c(Oc6c([H])c([H])c(F)c([H])c6F)c([H])c5[H])c(C(=O)N([H])[H])c4N([H])[H])C3([H])[H])c([H])c([H])c2C1([H])[H]

$$$$
90:0:0
     RDKit          3D

104111  0  0  1  0  0  0  0  0999 V2000
  -24.2570  -21.0910   18.8470 C   0  0  0  0  0  0  0  0  0  0  0  0
  -23.8250  -22.3510   18.9990 N   0  0  0  0  0  0  0  0  0  0  0  0
  -23.7310  -20.1780   19.4810 O   0  0  0  0  0  0  0  0  0  0  0  0
  -23.0470  -22.4790   19.6350 H   0  0  0  0  0  0  0  0  0  0  0  0
  -25.4150  -20.7600   17.8930 C   0  0  0  0  0  2  0  0  0  0  0  0
  -27.6800  -19.7770   18.1610 C   0  0  0  0  0  0  0  0  0  0  0  0
  -26.5830  -20.3490   18.6640 N   0  0  0  0  0  0  0  0  0  0  0  0
  -27.7940  -19.4950   16.9660 O   0  0  0  0  0  0  0  0  0  0  0  0
  -26.5350  -20.5160   19.6590 H   0  0  0  0  0  0  0  0  0  0  0  0
  -28.8370  -19.5200   19.1290 C   0  0  0  0  0  2  0  0  0  0  0  0
  -30.3160  -17.5620   19.5150 C   0  0  0  0  0  0  0  0  0  0  0  0
  -29.6090  -18.3550   18.7060 N   0  0  0  0  0  0  0  0  0  0  0  0
  -30.4210  -17.7760   20.7240 O   0  0  0  0  0  0  0  0  0  0  0  0
  -29.5220  -18.1130   17.7270 H   0  0  0  0  0  0  0  0  0  0  0  0
  -31.0010  -16.3380   18.9050 C   0  0  0  0  0  2  0  0  0  0  0  0
  -31.6710  -14.1640   19.9120 C   0  0  0  0  0  0  0  0  0  0  0  0
  -31.6060  -11.7370   20.3580 C   0  0  0  0  0  2  0  0  0  0  0  0
  -30.8280  -11.0390   19.2230 C   0  0  0  0  0  2  0  0  0  0  0  0
  -29.3100  -11.0540   19.5090 C   0  0  0  0  0  2  0  0  0  0  0  0
  -28.7850  -12.4610   19.9030 C   0  0  0  0  0  3  0  0  0  0  0  0
  -29.6820  -13.0720   21.0050 C   0  0  0  0  0  2  0  0  0  0  0  0
  -31.0710  -13.0990   20.5060 N   0  0  0  0  0  0  0  0  0  0  0  0
  -32.7700  -14.1150   19.3490 O   0  0  0  0  0  0  0  0  0  0  0  0
  -30.9300  -15.2730   19.8980 N   0  0  0  0  0  0  0  0  0  0  0  0
  -30.0750  -15.2630   20.4380 H   0  0  0  0  0  0  0  0  0  0  0  0
  -26.4770  -13.4560   20.4800 C   0  0  0  0  0  0  0  0  0  0  0  0
  -25.2840  -12.8670   20.8160 C   0  0  0  0  0  0  0  0  0  0  0  0
  -25.5330  -11.4610   20.8290 C   0  0  0  0  0  0  0  0  0  0  0  0
  -27.3830  -12.4180   20.3140 N   0  0  0  0  0  0  0  0  0  0  0  0
  -26.8130  -11.2180   20.5810 N   0  0  0  0  0  0  0  0  0  0  0  0
  -24.6190  -10.3260   21.0080 C   0  0  0  0  0  0  0  0  0  0  0  0
  -24.9270   -9.2610   21.8810 C   0  0  0  0  0  3  0  0  0  0  0  0
  -24.0220   -8.1890   22.0540 C   0  0  0  0  0  3  0  0  0  0  0  0
  -22.7970   -8.1760   21.3490 C   0  0  0  0  0  0  0  0  0  0  0  0
  -22.5040   -9.2300   20.4630 C   0  0  0  0  0  3  0  0  0  0  0  0
  -23.4080  -10.2920   20.2890 C   0  0  0  0  0  3  0  0  0  0  0  0
  -21.8700   -7.1630   21.4280 O   0  0  0  0  0  0  0  0  0  0  0  0
  -21.8000   -6.3340   22.5210 C   0  0  0  0  0  0  0  0  0  0  0  0
  -21.5050   -6.8270   23.8110 C   0  0  0  0  0  3  0  0  0  0  0  0
  -21.3690   -5.9340   24.8910 C   0  0  0  0  0  3  0  0  0  0  0  0
  -21.5190   -4.5480   24.6840 C   0  0  0  0  0  0  0  0  0  0  0  0
  -21.8060   -4.0580   23.4000 C   0  0  0  0  0  3  0  0  0  0  0  0
  -21.9420   -4.9480   22.3210 C   0  0  0  0  0  0  0  0  0  0  0  0
  -22.1960   -4.4650   21.0790 F   0  0  0  0  0  0  0  0  0  0  0  0
  -21.3850   -3.6900   25.7220 F   0  0  0  0  0  0  0  0  0  0  0  0
  -23.9670  -13.5560   21.0210 C   0  0  0  0  0  0  0  0  0  0  0  0
  -23.1510  -13.0600   21.9460 N   0  0  0  0  0  0  0  0  0  0  0  0
  -23.6700  -14.5700   20.3930 O   0  0  0  0  0  0  0  0  0  0  0  0
  -23.4050  -12.2370   22.4730 H   0  0  0  0  0  0  0  0  0  0  0  0
  -22.2710  -13.5230   22.1300 H   0  0  0  0  0  0  0  0  0  0  0  0
  -26.8610  -14.7780   20.2900 N   0  0  0  0  0  0  0  0  0  0  0  0
  -26.2070  -15.5500   20.3530 H   0  0  0  0  0  0  0  0  0  0  0  0
  -27.7890  -15.0600   20.0030 H   0  0  0  0  0  0  0  0  0  0  0  0
  -24.4080  -23.5730   18.4500 C   0  0  0  0  0  2  0  0  0  0  0  0
  -25.7850  -23.8730   19.0830 C   0  0  0  0  0  2  0  0  0  0  0  0
  -28.1050  -23.7640   18.2170 C   0  0  0  0  0  0  0  0  0  0  0  0
  -26.8080  -24.0760   18.0650 N   0  0  0  0  0  0  0  0  0  0  0  0
  -28.5490  -23.2060   19.2260 O   0  0  0  0  0  0  0  0  0  0  0  0
  -26.5370  -24.5370   17.2070 H   0  0  0  0  0  0  0  0  0  0  0  0
  -29.0210  -24.1680   17.0190 C   0  0  0  0  0  0  0  0  0  0  0  0
  -30.1550  -23.6900   16.8830 O   0  0  0  0  0  0  0  0  0  0  0  0
  -28.4690  -25.1790   16.0060 C   0  0  0  0  0  2  0  0  0  0  0  0
  -29.2900  -26.4860   15.9150 C   0  0  0  0  0  2  0  0  0  0  0  0
  -28.5330  -27.5670   15.3570 O   0  0  0  0  0  0  0  0  0  0  0  0
  -25.4840  -27.9470   21.7620 C   0  0  0  0  0  0  0  0  0  0  0  0
  -27.4110  -27.8750   16.0820 C   0  0  0  0  0  0  0  0  0  0  0  0
  -23.9520  -28.0780   19.8220 C   0  0  0  0  0  3  0  0  0  0  0  0
  -25.0690  -28.4160   17.5530 C   0  0  0  0  0  0  0  0  0  0  0  0
  -26.3710  -28.8850   19.6360 C   0  0  0  0  0  2  0  0  0  0  0  0
  -26.3230  -28.4980   18.1740 C   0  0  0  0  0  0  0  0  0  0  0  0
  -27.4980  -28.2230   17.4460 C   0  0  0  0  0  3  0  0  0  0  0  0
  -26.1480  -27.8310   15.4580 C   0  0  0  0  0  3  0  0  0  0  0  0
  -24.9740  -28.0780   16.1930 C   0  0  0  0  0  3  0  0  0  0  0  0
  -23.8580  -28.7130   18.4080 C   0  0  0  0  0  2  0  0  0  0  0  0
  -25.3000  -28.2700   20.4510 N   0  0  0  0  0  0  0  0  0  0  0  0
  -24.5450  -27.5340   22.4570 O   0  0  0  0  0  0  0  0  0  0  0  0
  -23.5320  -26.5950   19.7210 C   0  0  0  0  0  0  0  0  0  0  0  0
  -22.2140  -26.3550   19.6340 N   0  0  0  0  0  0  0  0  0  0  0  0
  -24.3780  -25.6970   19.6990 O   0  0  0  0  0  0  0  0  0  0  0  0
  -21.5840  -27.1450   19.6720 H   0  0  0  0  0  0  0  0  0  0  0  0
  -19.0350  -24.6700   19.3560 C   0  0  0  0  0  0  0  0  0  0  0  0
  -21.5870  -25.0420   19.4920 C   0  0  0  0  0  3  0  0  0  0  0  0
  -21.6340  -24.5550   18.0250 C   0  0  0  0  0  2  0  0  0  0  0  0
  -20.3800  -24.9220   17.2270 C   0  0  0  0  0  2  0  0  0  0  0  0
  -19.1320  -24.3190   17.8810 C   0  0  0  0  0  2  0  0  0  0  0  0
  -20.1850  -25.0220   20.1090 C   0  0  0  0  0  0  0  0  0  0  0  0
  -20.0360  -25.3750   21.4660 C   0  0  0  0  0  3  0  0  0  0  0  0
  -18.7680  -25.3740   22.0740 C   0  0  0  0  0  3  0  0  0  0  0  0
  -17.6330  -25.0040   21.3310 C   0  0  0  0  0  3  0  0  0  0  0  0
  -17.7680  -24.6480   19.9770 C   0  0  0  0  0  3  0  0  0  0  0  0
  -26.8740  -28.0990   22.4550 C   0  0  0  0  0  3  0  0  0  0  0  0
  -26.6710  -28.8890   23.6770 N   0  0  0  0  0  0  0  0  0  0  0  0
  -27.0800  -30.1540   23.8390 C   0  0  0  0  0  0  0  0  0  0  0  0
  -27.7430  -30.7590   22.9920 O   0  0  0  0  0  0  0  0  0  0  0  0
  -26.0900  -28.4750   24.3900 H   0  0  0  0  0  0  0  0  0  0  0  0
  -25.5860  -31.8890   24.8780 C   0  0  0  0  0  1  0  0  0  0  0  0
  -26.6950  -30.8610   25.1540 C   0  0  0  0  0  3  0  0  0  0  0  0
  -28.8120  -30.5850   26.3660 C   0  0  0  0  0  1  0  0  0  0  0  0
  -27.8350  -31.5240   25.8210 N   0  0  0  0  0  0  0  0  0  0  0  0
  -27.5110  -32.1210   26.5780 H   0  0  0  0  0  0  0  0  0  0  0  0
  -27.5580  -26.7170   22.7920 C   0  0  1  0  0  0  0  0  0  0  0  0
  -26.6340  -25.7370   23.5510 C   0  0  0  0  0  1  0  0  0  0  0  0
  -28.0340  -26.0140   21.4980 C   0  0  0  0  0  1  0  0  0  0  0  0
  -28.8170  -26.9510   23.6600 C   0  0  0  0  0  1  0  0  0  0  0  0
  1  2  1  0
  1  3  2  0
  2  4  1  0
  5  7  1  0
  5  1  1  0
  6  7  1  0
  6 10  1  0
  7  9  1  0
  8  6  2  0
 11 13  2  0
 12 10  1  0
 12 11  1  0
 14 12  1  0
 15 11  1  0
 15 24  1  0
 16 22  1  0
 17 22  1  0
 18 19  1  0
 18 17  1  0
 20 19  1  0
 20 29  1  0
 20 21  1  0
 22 21  1  0
 23 16  2  0
 24 16  1  0
 24 25  1  0
 26 27  2  0
 27 28  1  0
 27 46  1  0
 28 31  1  0
 29 26  1  0
 29 30  1  0
 30 28  2  0
 31 32  1  0
 32 33  2  0
 34 37  1  0
 34 33  1  0
 35 34  2  0
 36 35  1  0
 36 31  2  0
 37 38  1  0
 38 39  1  0
 39 40  2  0
 41 40  1  0
 41 45  1  0
 42 41  2  0
 43 38  2  0
 43 42  1  0
 44 43  1  0
 46 47  1  0
 47 50  1  0
 47 49  1  0
 48 46  2  0
 51 52  1  0
 51 26  1  0
 53 51  1  0
 54  2  1  0
 54 55  1  0
 56 58  2  0
 57 56  1  0
 57 55  1  0
 59 57  1  0
 60 56  1  0
 61 60  2  0
 62 60  1  0
 63 62  1  0
 64 63  1  0
 64 66  1  0
 65 76  2  0
 66 71  1  0
 67 77  1  0
 67 75  1  0
 68 70  1  0
 68 74  1  0
 69 75  1  0
 70 69  1  0
 71 70  2  0
 72 66  2  0
 72 73  1  0
 73 68  2  0
 74 67  1  0
 75 65  1  0
 78 80  1  0
 78 77  1  0
 79 77  2  0
 81 90  2  0
 81 86  1  0
 82 78  1  0
 82 86  1  0
 83 82  1  0
 84 85  1  0
 84 83  1  0
 85 81  1  0
 86 87  2  0
 87 88  1  0
 89 88  2  0
 90 89  1  0
 91 65  1  0
 91101  1  0
 91 92  1  0
 92 93  1  0
 92 95  1  0
 93 97  1  0
 94 93  2  0
 97 96  1  0
 97 99  1  0
 99 98  1  0
 99100  1  0
101102  1  1
101104  1  0
103101  1  0
M  ISO  4  16 100  24 100  63 101  64 101
M  END
>  <TORSDO>  (81) 
F 27

>  <SCORE>  (81) 
-6.850

>  <name>  (81) 
90

>  <ligand_id>  (81) 
90

>  <original_smiles>  (81) 
[H]c1c([H])c([H])c2c(c1[H])C([H])([H])C([H])([H])C([H])([H])C2([H])N([H])C(=O)C1([H])N(C(=O)C([H])(N([H])C(=O)C([H])(N([H])C([H])([H])[H])C([H])([H])[H])C(C([H])([H])[H])(C([H])([H])[H])C([H])([H])[H])C([H])([H])c2c([H])c(OC([H])([H])C([H])([H])C(=O)C(=O)N([H])C([H])([H])C([H])([H])N([H])C(=O)C([H])([H])N([H])C(=O)C([H])([H])N([H])C(=O)C([H])([H])N([H])C(=O)N3C([H])([H])C([H])([H])C([H])([H])C([H])(n4nc(-c5c([H])c([H])c(Oc6c([H])c([H])c(F)c([H])c6F)c([H])c5[H])c(C(=O)N([H])[H])c4N([H])[H])C3([H])[H])c([H])c([H])c2C1([H])[H]

>  <smiles>  (81) 
[H]c1c([H])c([H])c2c(c1[H])C([H])([H])C([H])([H])C([H])([H])C2([H])N([H])C(=O)C1([H])N(C(=O)C([H])(N([H])C(=O)C([H])(N([H])C([H])([H])[H])C([H])([H])[H])C(C([H])([H])[H])(C([H])([H])[H])C([H])([H])[H])C([H])([H])c2c([H])c(OC([H])([H])C([H])([H])C(=O)C(=O)N([H])C([H])([H])C([H])([H])N([H])C(=O)C([H])([H])N([H])C(=O)C([H])([H])N([H])C(=O)C([H])([H])N([H])C(=O)N3C([H])([H])C([H])([H])C([H])([H])C([H])(n4nc(-c5c([H])c([H])c(Oc6c([H])c([H])c(F)c([H])c6F)c([H])c5[H])c(C(=O)N([H])[H])c4N([H])[H])C3([H])[H])c([H])c([H])c2C1([H])[H]

$$$$
91:0:0
     RDKit          3D

104111  0  0  1  0  0  0  0  0999 V2000
  -31.2580  -24.9470   27.3280 C   0  0  0  0  0  2  0  0  0  0  0  0
  -30.1300  -23.9530   26.9860 C   0  0  0  0  0  2  0  0  0  0  0  0
  -30.3980  -23.1130   25.7290 C   0  0  0  0  0  2  0  0  0  0  0  0
  -29.3070  -22.0630   25.4620 C   0  0  0  0  0  2  0  0  0  0  0  0
  -30.0730  -20.1690   24.0290 C   0  0  0  0  0  0  0  0  0  0  0  0
  -29.5700  -21.3970   24.1910 N   0  0  0  0  0  0  0  0  0  0  0  0
  -30.2980  -19.4100   24.9760 O   0  0  0  0  0  0  0  0  0  0  0  0
  -29.3990  -21.9340   23.3510 H   0  0  0  0  0  0  0  0  0  0  0  0
  -30.3880  -19.7510   22.5870 C   0  0  0  0  0  2  0  0  0  0  0  0
  -30.4370  -17.2960   22.1950 C   0  0  0  0  0  0  0  0  0  0  0  0
  -31.0260  -18.4370   22.5520 N   0  0  0  0  0  0  0  0  0  0  0  0
  -29.3140  -17.2500   21.6870 O   0  0  0  0  0  0  0  0  0  0  0  0
  -31.9340  -18.3730   22.9890 H   0  0  0  0  0  0  0  0  0  0  0  0
  -31.2300  -16.0190   22.4730 C   0  0  0  0  0  2  0  0  0  0  0  0
  -30.8080  -14.3000   20.7360 C   0  0  0  0  0  0  0  0  0  0  0  0
  -30.4190  -12.2890   19.3740 C   0  0  0  0  0  2  0  0  0  0  0  0
  -29.4830  -12.5410   18.1810 C   0  0  0  0  0  2  0  0  0  0  0  0
  -28.0120  -12.3780   18.6020 C   0  0  0  0  0  2  0  0  0  0  0  0
  -27.6710  -13.2000   19.8730 C   0  0  0  0  0  3  0  0  0  0  0  0
  -28.7060  -12.9430   20.9880 C   0  0  0  0  0  2  0  0  0  0  0  0
  -30.0580  -13.2080   20.4590 N   0  0  0  0  0  0  0  0  0  0  0  0
  -31.7480  -14.6850   20.0320 O   0  0  0  0  0  0  0  0  0  0  0  0
  -30.5580  -14.8450   21.9270 N   0  0  0  0  0  0  0  0  0  0  0  0
  -29.7940  -14.4600   22.4630 H   0  0  0  0  0  0  0  0  0  0  0  0
  -25.2640  -13.8160   20.5670 C   0  0  0  0  0  0  0  0  0  0  0  0
  -24.1880  -13.0450   20.9150 C   0  0  0  0  0  0  0  0  0  0  0  0
  -24.6400  -11.6900   20.8700 C   0  0  0  0  0  0  0  0  0  0  0  0
  -26.3080  -12.9320   20.3330 N   0  0  0  0  0  0  0  0  0  0  0  0
  -25.9330  -11.6490   20.5690 N   0  0  0  0  0  0  0  0  0  0  0  0
  -23.9040  -10.4300   21.0370 C   0  0  0  0  0  0  0  0  0  0  0  0
  -24.3600   -9.4230   21.9160 C   0  0  0  0  0  3  0  0  0  0  0  0
  -23.6290   -8.2260   22.0730 C   0  0  0  0  0  3  0  0  0  0  0  0
  -22.4270   -8.0280   21.3530 C   0  0  0  0  0  0  0  0  0  0  0  0
  -21.9900   -9.0240   20.4620 C   0  0  0  0  0  3  0  0  0  0  0  0
  -22.7210  -10.2130   20.3010 C   0  0  0  0  0  3  0  0  0  0  0  0
  -21.6640   -6.8870   21.4240 O   0  0  0  0  0  0  0  0  0  0  0  0
  -21.6860   -6.0720   22.5280 C   0  0  0  0  0  0  0  0  0  0  0  0
  -21.4010   -6.5630   23.8210 C   0  0  0  0  0  3  0  0  0  0  0  0
  -21.3660   -5.6780   24.9180 C   0  0  0  0  0  3  0  0  0  0  0  0
  -21.6040   -4.3040   24.7230 C   0  0  0  0  0  0  0  0  0  0  0  0
  -21.8820   -3.8130   23.4350 C   0  0  0  0  0  3  0  0  0  0  0  0
  -21.9200   -4.6950   22.3410 C   0  0  0  0  0  0  0  0  0  0  0  0
  -22.1680   -4.2140   21.0990 F   0  0  0  0  0  0  0  0  0  0  0  0
  -21.5630   -3.4520   25.7740 F   0  0  0  0  0  0  0  0  0  0  0  0
  -22.7900  -13.5250   21.1850 C   0  0  0  0  0  0  0  0  0  0  0  0
  -22.0510  -12.8240   22.0380 N   0  0  0  0  0  0  0  0  0  0  0  0
  -22.3580  -14.5570   20.6700 O   0  0  0  0  0  0  0  0  0  0  0  0
  -22.4110  -11.9920   22.4810 H   0  0  0  0  0  0  0  0  0  0  0  0
  -21.1090  -13.1230   22.2480 H   0  0  0  0  0  0  0  0  0  0  0  0
  -25.4400  -15.1870   20.4130 N   0  0  0  0  0  0  0  0  0  0  0  0
  -24.6840  -15.8520   20.5320 H   0  0  0  0  0  0  0  0  0  0  0  0
  -26.3120  -15.6250   20.1390 H   0  0  0  0  0  0  0  0  0  0  0  0
  -31.3900  -26.1430   26.3560 C   0  0  0  0  0  2  0  0  0  0  0  0
  -32.4300  -25.9510   25.3160 N   0  0  0  0  0  4  0  0  0  0  0  0
  -33.3130  -25.8330   25.7860 H   0  0  0  0  0  0  0  0  0  0  0  0
  -32.2740  -25.1140   24.7790 H   0  0  0  0  0  0  0  0  0  0  0  0
  -32.5880  -27.0850   24.3770 C   0  0  0  0  0  2  0  0  0  0  0  0
  -32.0800  -26.7870   22.9600 C   0  0  0  0  0  0  0  0  0  0  0  0
  -30.9170  -26.1330   22.8150 N   0  0  0  0  0  0  0  0  0  0  0  0
  -32.7450  -27.1540   21.9900 O   0  0  0  0  0  0  0  0  0  0  0  0
  -30.3660  -25.9300   23.6360 H   0  0  0  0  0  0  0  0  0  0  0  0
  -30.2540  -25.8750   21.5340 C   0  0  0  0  0  2  0  0  0  0  0  0
  -29.3320  -27.0490   21.1780 C   0  0  0  0  0  2  0  0  0  0  0  0
  -28.4130  -26.7360   20.1250 O   0  0  0  0  0  0  0  0  0  0  0  0
  -24.6030  -31.8730   23.2130 C   0  0  0  0  0  0  0  0  0  0  0  0
  -27.2630  -27.4970   20.1080 C   0  0  0  0  0  0  0  0  0  0  0  0
  -23.3900  -30.4920   21.5500 C   0  0  0  0  0  3  0  0  0  0  0  0
  -24.8420  -28.9580   20.1160 C   0  0  0  0  0  0  0  0  0  0  0  0
  -25.9070  -30.8640   21.3490 C   0  0  0  0  0  2  0  0  0  0  0  0
  -25.9900  -29.5010   20.7020 C   0  0  0  0  0  0  0  0  0  0  0  0
  -27.1970  -28.7840   20.6910 C   0  0  0  0  0  3  0  0  0  0  0  0
  -26.1040  -26.9630   19.5060 C   0  0  0  0  0  3  0  0  0  0  0  0
  -24.8900  -27.6840   19.5160 C   0  0  0  0  0  3  0  0  0  0  0  0
  -23.5980  -29.8160   20.1660 C   0  0  0  0  0  2  0  0  0  0  0  0
  -24.6510  -31.0900   22.0980 N   0  0  0  0  0  0  0  0  0  0  0  0
  -23.5250  -32.1430   23.7600 O   0  0  0  0  0  0  0  0  0  0  0  0
  -22.7360  -29.4680   22.5050 C   0  0  0  0  0  0  0  0  0  0  0  0
  -21.4100  -29.3030   22.3780 N   0  0  0  0  0  0  0  0  0  0  0  0
  -23.4160  -28.8230   23.3090 O   0  0  0  0  0  0  0  0  0  0  0  0
  -20.9250  -29.8740   21.7000 H   0  0  0  0  0  0  0  0  0  0  0  0
  -18.0260  -28.1400   22.8470 C   0  0  0  0  0  0  0  0  0  0  0  0
  -20.5840  -28.3670   23.1360 C   0  0  0  0  0  3  0  0  0  0  0  0
  -20.6770  -26.9410   22.5440 C   0  0  0  0  0  2  0  0  0  0  0  0
  -19.5770  -26.6400   21.5220 C   0  0  0  0  0  2  0  0  0  0  0  0
  -18.1930  -26.7940   22.1620 C   0  0  0  0  0  2  0  0  0  0  0  0
  -19.1500  -28.8840   23.2910 C   0  0  0  0  0  0  0  0  0  0  0  0
  -18.9440  -30.1450   23.8930 C   0  0  0  0  0  3  0  0  0  0  0  0
  -17.6440  -30.6600   24.0560 C   0  0  0  0  0  3  0  0  0  0  0  0
  -16.5330  -29.9110   23.6320 C   0  0  0  0  0  3  0  0  0  0  0  0
  -16.7250  -28.6540   23.0320 C   0  0  0  0  0  3  0  0  0  0  0  0
  -25.8960  -32.4860   23.8410 C   0  0  0  0  0  3  0  0  0  0  0  0
  -25.5860  -33.8660   24.2350 N   0  0  0  0  0  0  0  0  0  0  0  0
  -25.9060  -34.9500   23.5150 C   0  0  0  0  0  0  0  0  0  0  0  0
  -26.5620  -34.8920   22.4710 O   0  0  0  0  0  0  0  0  0  0  0  0
  -24.9950  -33.9870   25.0440 H   0  0  0  0  0  0  0  0  0  0  0  0
  -24.1510  -36.7320   23.2630 C   0  0  0  0  0  1  0  0  0  0  0  0
  -25.4140  -36.3130   24.0340 C   0  0  0  0  0  3  0  0  0  0  0  0
  -27.5610  -37.1810   24.8460 C   0  0  0  0  0  1  0  0  0  0  0  0
  -26.4330  -37.3790   23.9400 N   0  0  0  0  0  0  0  0  0  0  0  0
  -26.0260  -38.2890   24.1410 H   0  0  0  0  0  0  0  0  0  0  0  0
  -26.4420  -31.6610   25.0700 C   0  0  1  0  0  0  0  0  0  0  0  0
  -25.3690  -31.3710   26.1440 C   0  0  0  0  0  1  0  0  0  0  0  0
  -27.0200  -30.3040   24.6020 C   0  0  0  0  0  1  0  0  0  0  0  0
  -27.6030  -32.4280   25.7470 C   0  0  0  0  0  1  0  0  0  0  0  0
  2  1  1  0
  3  2  1  0
  4  3  1  0
  5  6  1  0
  5  7  2  0
  6  4  1  0
  8  6  1  0
  9  5  1  0
 10 14  1  0
 10 11  1  0
 11  9  1  0
 11 13  1  0
 12 10  2  0
 15 23  1  0
 16 21  1  0
 17 18  1  0
 17 16  1  0
 19 18  1  0
 19 28  1  0
 19 20  1  0
 21 15  1  0
 21 20  1  0
 22 15  2  0
 23 24  1  0
 23 14  1  0
 25 26  2  0
 26 45  1  0
 27 26  1  0
 27 30  1  0
 28 25  1  0
 28 29  1  0
 29 27  2  0
 30 31  1  0
 31 32  2  0
 33 36  1  0
 33 32  1  0
 34 33  2  0
 35 34  1  0
 35 30  2  0
 36 37  1  0
 37 38  1  0
 38 39  2  0
 40 39  1  0
 40 44  1  0
 41 40  2  0
 42 37  2  0
 42 41  1  0
 43 42  1  0
 45 46  1  0
 46 49  1  0
 46 48  1  0
 47 45  2  0
 50 51  1  0
 50 25  1  0
 52 50  1  0
 53  1  1  0
 54 55  1  0
 54 53  1  0
 56 54  1  0
 57 54  1  0
 58 57  1  0
 59 58  1  0
 59 61  1  0
 60 58  2  0
 62 59  1  0
 63 62  1  0
 64 63  1  0
 65 76  2  0
 66 64  1  0
 66 71  1  0
 67 75  1  0
 67 77  1  0
 68 74  1  0
 68 70  1  0
 69 75  1  0
 70 69  1  0
 71 70  2  0
 72 73  1  0
 72 66  2  0
 73 68  2  0
 74 67  1  0
 75 65  1  0
 77 79  2  0
 78 77  1  0
 80 78  1  0
 81 90  2  0
 81 86  1  0
 82 78  1  0
 82 86  1  0
 83 82  1  0
 84 85  1  0
 84 83  1  0
 85 81  1  0
 86 87  2  0
 87 88  1  0
 89 88  2  0
 90 89  1  0
 91 65  1  0
 91 92  1  0
 91101  1  0
 92 95  1  0
 93 97  1  0
 93 92  1  0
 94 93  2  0
 97 96  1  0
 99 97  1  0
 99100  1  0
 99 98  1  0
101104  1  1
101102  1  0
103101  1  0
M  ISO  4  15 100  23 100  63 101  64 101
M  END
>  <TORSDO>  (82) 
F 29

>  <SCORE>  (82) 
18.507

>  <name>  (82) 
91

>  <ligand_id>  (82) 
91

>  <original_smiles>  (82) 
[H]c1c([H])c([H])c2c(c1[H])C([H])([H])C([H])([H])C([H])([H])C2([H])N([H])C(=O)C1([H])N(C(=O)C([H])(N([H])C(=O)C([H])(N([H])C([H])([H])[H])C([H])([H])[H])C(C([H])([H])[H])(C([H])([H])[H])C([H])([H])[H])C([H])([H])c2c([H])c(OC([H])([H])C([H])([H])N([H])C(=O)C([H])([H])[N+]([H])([H])C([H])([H])C([H])([H])C([H])([H])C([H])([H])C([H])([H])N([H])C(=O)C([H])([H])N([H])C(=O)C([H])([H])N([H])C(=O)N3C([H])([H])C([H])([H])C([H])([H])C([H])(n4nc(-c5c([H])c([H])c(Oc6c([H])c([H])c(F)c([H])c6F)c([H])c5[H])c(C(=O)N([H])[H])c4N([H])[H])C3([H])[H])c([H])c([H])c2C1([H])[H]

>  <smiles>  (82) 
[H]c1c([H])c([H])c2c(c1[H])C([H])([H])C([H])([H])C([H])([H])C2([H])N([H])C(=O)C1([H])N(C(=O)C([H])(N([H])C(=O)C([H])(N([H])C([H])([H])[H])C([H])([H])[H])C(C([H])([H])[H])(C([H])([H])[H])C([H])([H])[H])C([H])([H])c2c([H])c(OC([H])([H])C([H])([H])N([H])C(=O)C([H])([H])[N+]([H])([H])C([H])([H])C([H])([H])C([H])([H])C([H])([H])C([H])([H])N([H])C(=O)C([H])([H])N([H])C(=O)C([H])([H])N([H])C(=O)N3C([H])([H])C([H])([H])C([H])([H])C([H])(n4nc(-c5c([H])c([H])c(Oc6c([H])c([H])c(F)c([H])c6F)c([H])c5[H])c(C(=O)N([H])[H])c4N([H])[H])C3([H])[H])c([H])c([H])c2C1([H])[H]

$$$$
92:0:0
     RDKit          3D

104107  0  0  1  0  0  0  0  0999 V2000
  -26.1400  -17.7900   22.9050 C   0  0  0  0  0  2  0  0  0  0  0  0
  -27.2580  -18.5200   22.0920 C   0  0  0  0  0  2  0  0  0  0  0  0
  -28.5680  -20.6460   21.9440 C   0  0  0  0  0  0  0  0  0  0  0  0
  -27.6230  -19.8870   22.5490 N   0  0  0  0  0  0  0  0  0  0  0  0
  -29.1630  -20.2310   20.9450 O   0  0  0  0  0  0  0  0  0  0  0  0
  -27.1190  -20.2680   23.3410 H   0  0  0  0  0  0  0  0  0  0  0  0
  -28.9360  -22.0610   22.4800 C   0  0  0  0  0  2  0  0  0  0  0  0
  -30.0490  -24.1380   21.5380 C   0  0  0  0  0  0  0  0  0  0  0  0
  -29.6830  -22.8390   21.4650 N   0  0  0  0  0  0  0  0  0  0  0  0
  -29.7550  -24.8250   22.5190 O   0  0  0  0  0  0  0  0  0  0  0  0
  -29.9030  -22.3130   20.6280 H   0  0  0  0  0  0  0  0  0  0  0  0
  -30.8860  -24.7460   20.3690 C   0  0  0  0  0  2  0  0  0  0  0  0
  -31.1590  -26.1760   20.4920 O   0  0  0  0  0  0  0  0  0  0  0  0
  -26.8470  -29.8510   24.7530 C   0  0  0  0  0  0  0  0  0  0  0  0
  -30.0880  -27.0510   20.5430 C   0  0  0  0  0  0  0  0  0  0  0  0
  -26.0630  -29.5420   22.4270 C   0  0  0  0  0  3  0  0  0  0  0  0
  -27.8090  -28.7080   20.7660 C   0  0  0  0  0  0  0  0  0  0  0  0
  -28.5610  -29.6580   22.9470 C   0  0  0  0  0  2  0  0  0  0  0  0
  -28.7890  -28.7330   21.7690 C   0  0  0  0  0  0  0  0  0  0  0  0
  -29.9370  -27.9130   21.6560 C   0  0  0  0  0  3  0  0  0  0  0  0
  -29.1200  -27.0900   19.5180 C   0  0  0  0  0  3  0  0  0  0  0  0
  -27.9820  -27.9060   19.6290 C   0  0  0  0  0  3  0  0  0  0  0  0
  -26.5920  -29.5780   20.9670 C   0  0  0  0  0  2  0  0  0  0  0  0
  -27.1620  -29.6660   23.4390 N   0  0  0  0  0  0  0  0  0  0  0  0
  -25.6700  -29.9580   25.1220 O   0  0  0  0  0  0  0  0  0  0  0  0
  -25.2030  -28.2700   22.6130 C   0  0  0  0  0  0  0  0  0  0  0  0
  -23.9710  -28.2990   22.0830 N   0  0  0  0  0  0  0  0  0  0  0  0
  -25.6580  -27.2800   23.1950 O   0  0  0  0  0  0  0  0  0  0  0  0
  -23.6710  -29.1510   21.6300 H   0  0  0  0  0  0  0  0  0  0  0  0
  -20.6590  -27.3360   21.0120 C   0  0  0  0  0  0  0  0  0  0  0  0
  -22.9990  -27.2060   22.1040 C   0  0  0  0  0  3  0  0  0  0  0  0
  -23.3300  -26.1500   21.0240 C   0  0  0  0  0  2  0  0  0  0  0  0
  -22.6040  -26.3930   19.6970 C   0  0  0  0  0  2  0  0  0  0  0  0
  -21.0880  -26.3850   19.9070 C   0  0  0  0  0  2  0  0  0  0  0  0
  -21.5610  -27.7330   22.0340 C   0  0  0  0  0  0  0  0  0  0  0  0
  -21.1230  -28.6450   23.0200 C   0  0  0  0  0  3  0  0  0  0  0  0
  -19.8120  -29.1550   22.9970 C   0  0  0  0  0  3  0  0  0  0  0  0
  -18.9180  -28.7470   21.9900 C   0  0  0  0  0  3  0  0  0  0  0  0
  -19.3410  -27.8370   21.0050 C   0  0  0  0  0  3  0  0  0  0  0  0
  -27.9490  -29.9640   25.8530 C   0  0  0  0  0  3  0  0  0  0  0  0
  -28.1800  -28.6180   26.6400 C   0  0  1  0  0  0  0  0  0  0  0  0
  -26.8810  -27.9980   27.2060 C   0  0  0  0  0  1  0  0  0  0  0  0
  -28.8450  -27.5660   25.7210 C   0  0  0  0  0  1  0  0  0  0  0  0
  -29.1460  -28.8570   27.8230 C   0  0  0  0  0  1  0  0  0  0  0  0
  -27.5520  -31.0420   26.7690 N   0  0  0  0  0  0  0  0  0  0  0  0
  -28.0760  -32.2770   26.7660 C   0  0  0  0  0  0  0  0  0  0  0  0
  -29.0050  -32.6060   26.0260 O   0  0  0  0  0  0  0  0  0  0  0  0
  -26.7530  -30.8610   27.3570 H   0  0  0  0  0  0  0  0  0  0  0  0
  -26.5210  -34.2470   26.9680 C   0  0  0  0  0  1  0  0  0  0  0  0
  -27.4680  -33.3100   27.7340 C   0  0  0  0  0  3  0  0  0  0  0  0
  -29.2540  -33.3380   29.4210 C   0  0  0  0  0  1  0  0  0  0  0  0
  -28.4840  -34.1110   28.4510 N   0  0  0  0  0  0  0  0  0  0  0  0
  -28.0500  -34.8910   28.9380 H   0  0  0  0  0  0  0  0  0  0  0  0
  -25.6350  -16.4610   22.2430 C   0  0  0  0  0  2  0  0  0  0  0  0
  -25.0160  -15.3940   23.2080 C   0  0  0  0  0  2  0  0  0  0  0  0
  -23.7130  -14.6770   22.6930 C   0  0  0  0  0  3  0  0  0  0  0  0
  -23.5020  -13.1410   22.9820 C   0  0  0  0  0  3  0  0  0  0  0  0
  -22.1010  -12.5500   22.5300 C   0  0  0  0  0  2  0  0  0  0  0  0
  -21.8410  -10.9840   22.5930 C   0  0  0  0  0  2  0  0  0  0  0  0
  -22.2960  -10.0550   21.4110 C   0  0  0  0  0  0  0  0  0  0  0  0
  -23.2130   -9.0910   21.7540 N   0  0  0  0  0  2  0  0  0  0  0  0
  -21.8790  -10.2560   20.2720 O   0  0  0  0  0  0  0  0  0  0  0  0
  -23.2320   -9.1030   22.7660 H   0  0  0  0  0  0  0  0  0  0  0  0
  -25.2980   -7.0590   21.1610 C   0  0  0  0  0  1  0  0  0  0  0  0
  -27.1120   -7.1250   21.4680 C   0  0  0  0  0  2  0  0  0  0  0  0
  -28.3460   -7.7400   22.6310 C   0  0  0  0  0  2  0  0  0  0  0  0
  -31.0900   -9.5120   22.5550 C   0  0  2  0  0  0  0  0  0  0  0  0
  -32.0750   -8.2450   22.3970 C   0  0  0  0  0  1  0  0  0  0  0  0
  -31.7070   -8.4410   20.5380 C   0  0  0  0  0  1  0  0  0  0  0  0
  -30.3770   -9.5280   20.0540 C   0  0  0  0  0  2  0  0  0  0  0  0
  -29.6630  -10.7350   21.1670 C   0  0  0  0  0  2  0  0  0  0  0  0
  -30.0430  -10.5550   23.0170 C   0  0  0  0  0  1  0  0  0  0  0  0
  -31.2080   -9.3300   23.5090 N   0  0  0  0  0  1  0  0  0  0  0  0
  -32.1020  -10.4250   22.1280 O   0  0  0  0  0  1  0  0  0  0  0  0
  -29.8070   -8.4140   22.2410 N   0  0  0  0  0  2  0  0  0  0  0  0
  -29.8770   -8.3080   21.2370 H   0  0  0  0  0  0  0  0  0  0  0  0
  -27.4970  -11.8680   20.4790 C   0  0  0  0  0  0  0  0  0  0  0  0
  -26.1970  -11.5070   20.6140 C   0  0  0  0  0  0  0  0  0  0  0  0
  -26.2520  -10.3440   21.3770 C   0  0  0  0  0  0  0  0  0  0  0  0
  -28.2410  -10.8710   21.0300 N   0  0  0  0  0  0  0  0  0  0  0  0
  -27.4570   -9.9950   21.6060 N   0  0  0  0  0  0  0  0  0  0  0  0
  -25.2910   -9.4410   21.7360 C   0  0  0  0  0  0  0  0  0  0  0  0
  -24.9320   -8.8880   23.4130 C   0  0  0  0  0  3  0  0  0  0  0  0
  -23.7280   -7.5760   23.6160 C   0  0  0  0  0  3  0  0  0  0  0  0
  -22.9480   -6.9000   22.1800 C   0  0  0  0  0  0  0  0  0  0  0  0
  -23.3470   -7.4480   20.6080 C   0  0  0  0  0  3  0  0  0  0  0  0
  -24.4960   -8.7000   20.3680 C   0  0  0  0  0  3  0  0  0  0  0  0
  -21.7840   -6.1980   22.1710 O   0  0  0  0  0  0  0  0  0  0  0  0
  -20.9890   -6.1970   23.2680 C   0  0  0  0  0  0  0  0  0  0  0  0
  -20.3410   -7.3440   23.7790 C   0  0  0  0  0  3  0  0  0  0  0  0
  -19.5130   -7.2180   24.9120 C   0  0  0  0  0  3  0  0  0  0  0  0
  -19.3440   -5.9570   25.5190 C   0  0  0  0  0  0  0  0  0  0  0  0
  -19.9770   -4.8210   24.9890 C   0  0  0  0  0  3  0  0  0  0  0  0
  -20.7930   -4.9450   23.8570 C   0  0  0  0  0  0  0  0  0  0  0  0
  -21.3950   -3.8600   23.3180 F   0  0  0  0  0  0  0  0  0  0  0  0
  -18.5670   -5.8320   26.6170 F   0  0  0  0  0  0  0  0  0  0  0  0
  -25.0110  -12.1520   20.0070 C   0  0  0  0  0  0  0  0  0  0  0  0
  -23.8380  -11.7920   20.4510 N   0  0  0  0  0  0  0  0  0  0  0  0
  -25.1210  -13.0000   19.1360 O   0  0  0  0  0  0  0  0  0  0  0  0
  -23.7670  -11.0250   21.1020 H   0  0  0  0  0  0  0  0  0  0  0  0
  -22.9990  -12.2100   20.0780 H   0  0  0  0  0  0  0  0  0  0  0  0
  -28.1320  -12.9510   19.9240 N   0  0  0  0  0  0  0  0  0  0  0  0
  -27.6180  -13.6990   19.4780 H   0  0  0  0  0  0  0  0  0  0  0  0
  -29.1380  -13.0290   19.8270 H   0  0  0  0  0  0  0  0  0  0  0  0
  2  4  1  0
  2  1  1  0
  3  7  1  0
  3  4  1  0
  4  6  1  0
  5  3  2  0
  8 10  2  0
  9  8  1  0
  9  7  1  0
 11  9  1  0
 12 13  1  0
 12  8  1  0
 13 15  1  0
 14 25  2  0
 15 20  1  0
 16 26  1  0
 16 24  1  0
 17 23  1  0
 17 19  1  0
 18 24  1  0
 19 18  1  0
 20 19  2  0
 21 22  1  0
 21 15  2  0
 22 17  2  0
 23 16  1  0
 24 14  1  0
 26 28  2  0
 27 26  1  0
 29 27  1  0
 30 35  1  0
 31 27  1  0
 32 31  1  0
 33 34  1  0
 33 32  1  0
 34 30  1  0
 35 31  1  0
 35 36  2  0
 37 36  1  0
 38 37  2  0
 39 30  2  0
 39 38  1  0
 40 14  1  0
 40 41  1  0
 40 45  1  0
 41 42  1  1
 41 44  1  0
 43 41  1  0
 45 48  1  0
 46 45  1  0
 46 50  1  0
 47 46  2  0
 50 49  1  0
 50 52  1  0
 52 53  1  0
 52 51  1  0
 54  1  1  0
 54 55  1  0
 56 57  2  0
 56 55  1  0
 58 59  1  0
 58 57  1  0
 60 61  1  0
 60 59  1  0
 61 63  1  0
 62 60  2  0
 64 65  1  0
 65 66  1  0
 67 72  1  6
 67 73  1  0
 68 67  1  0
 70 69  1  0
 70 71  1  0
 74 67  1  0
 75 66  1  0
 76 75  1  0
 77 78  2  0
 77 80  1  0
 78 79  1  0
 79 81  2  0
 79 82  1  0
 80 71  1  0
 80 81  1  0
 82 83  1  0
 83 84  2  0
 85 84  1  0
 86 85  2  0
 87 86  1  0
 87 82  2  0
 88 85  1  0
 88 89  1  0
 89 90  2  0
 89 94  1  0
 90 91  1  0
 91 92  2  0
 92 96  1  0
 93 92  1  0
 94 93  2  0
 95 94  1  0
 97 98  1  0
 97 78  1  0
 98100  1  0
 99 97  2  0
101 98  1  0
102 77  1  0
103102  1  0
104102  1  0
M  ISO  4  12 101  13 101  67 100  75 100
M  END
>  <TORSDO>  (83) 
F 31

>  <SCORE>  (83) 
22.851

>  <name>  (83) 
92

>  <ligand_id>  (83) 
92

>  <original_smiles>  (83) 
[H]c1c([H])c([H])c2c(c1[H])C([H])([H])C([H])([H])C([H])([H])C2([H])N([H])C(=O)C1([H])N(C(=O)C([H])(N([H])C(=O)C([H])(N([H])C([H])([H])[H])C([H])([H])[H])C(C([H])([H])[H])(C([H])([H])[H])C([H])([H])[H])C([H])([H])c2c([H])c(OC([H])([H])C(=O)N([H])C([H])([H])C(=O)N([H])C([H])([H])C([H])([H])C([H])([H])C([H])([H])C([H])([H])C([H])([H])C([H])([H])C([H])([H])C(=O)N([H])C([H])([H])C([H])([H])C([H])([H])N([H])C(=O)N3C([H])([H])C([H])([H])C([H])([H])C([H])(n4nc(-c5c([H])c([H])c(Oc6c([H])c([H])c(F)c([H])c6F)c([H])c5[H])c(C(=O)N([H])[H])c4N([H])[H])C3([H])[H])c([H])c([H])c2C1([H])[H]

>  <smiles>  (83) 
[H]c1c([H])c([H])c2c(c1[H])C([H])([H])C([H])([H])C([H])([H])C2([H])N([H])C(=O)C1([H])N(C(=O)C([H])(N([H])C(=O)C([H])(N([H])C([H])([H])[H])C([H])([H])[H])C(C([H])([H])[H])(C([H])([H])[H])C([H])([H])[H])C([H])([H])c2c([H])c(OC([H])([H])C(=O)N([H])C([H])([H])C(=O)N([H])C([H])([H])C([H])([H])C([H])([H])C([H])([H])C([H])([H])C([H])([H])C([H])([H])C([H])([H])C(=O)N([H])C([H])([H])C([H])([H])C([H])([H])N([H])C(=O)N3C([H])([H])C([H])([H])C([H])([H])C([H])(n4nc(-c5c([H])c([H])c(Oc6c([H])c([H])c(F)c([H])c6F)c([H])c5[H])c(C(=O)N([H])[H])c4N([H])[H])C3([H])[H])c([H])c([H])c2C1([H])[H]

$$$$
93:0:0
     RDKit          3D

117124  0  0  1  0  0  0  0  0999 V2000
  -25.1350  -22.3140   23.2510 C   0  0  0  0  0  2  0  0  0  0  0  0
  -25.8120  -22.6010   21.9020 C   0  0  0  0  0  2  0  0  0  0  0  0
  -25.4660  -21.5640   20.8190 C   0  0  0  0  0  2  0  0  0  0  0  0
  -25.7110  -22.1010   19.4630 N   0  0  0  0  0  4  0  0  0  0  0  0
  -26.5980  -22.5750   19.4700 H   0  0  0  0  0  0  0  0  0  0  0  0
  -25.0020  -22.7820   19.2390 H   0  0  0  0  0  0  0  0  0  0  0  0
  -25.7560  -21.0760   18.3970 C   0  0  0  0  0  2  0  0  0  0  0  0
  -26.2690  -21.6650   17.0650 C   0  0  0  0  0  2  0  0  0  0  0  0
  -26.3460  -20.6490   15.9030 C   0  0  0  0  0  2  0  0  0  0  0  0
  -28.2660  -19.3880   16.8930 C   0  0  0  0  0  0  0  0  0  0  0  0
  -27.1030  -19.4380   16.2310 N   0  0  0  0  0  0  0  0  0  0  0  0
  -28.8790  -20.3940   17.2520 O   0  0  0  0  0  0  0  0  0  0  0  0
  -26.6900  -18.5580   15.9460 H   0  0  0  0  0  0  0  0  0  0  0  0
  -28.8040  -18.0130   17.2820 C   0  0  0  0  0  2  0  0  0  0  0  0
  -28.5210  -17.6890   18.7650 C   0  0  0  0  0  2  0  0  0  0  0  0
  -29.5540  -18.2080   19.6980 N   0  0  0  0  0  4  0  0  0  0  0  0
  -29.4230  -19.2040   19.8110 H   0  0  0  0  0  0  0  0  0  0  0  0
  -30.4580  -18.0730   19.2710 H   0  0  0  0  0  0  0  0  0  0  0  0
  -29.5430  -17.5460   21.0210 C   0  0  0  0  0  2  0  0  0  0  0  0
  -30.9520  -17.4050   21.6310 C   0  0  0  0  0  2  0  0  0  0  0  0
  -31.1280  -16.1620   22.5400 C   0  0  0  0  0  2  0  0  0  0  0  0
  -31.2920  -14.3350   20.8490 C   0  0  0  0  0  0  0  0  0  0  0  0
  -30.8170  -13.0910   18.7810 C   0  0  0  0  0  2  0  0  0  0  0  0
  -29.9200  -13.9500   17.8670 C   0  0  0  0  0  2  0  0  0  0  0  0
  -28.4320  -13.7370   18.2080 C   0  0  0  0  0  2  0  0  0  0  0  0
  -28.1440  -13.8710   19.7260 C   0  0  0  0  0  3  0  0  0  0  0  0
  -29.1510  -13.0350   20.5510 C   0  0  0  0  0  2  0  0  0  0  0  0
  -30.5160  -13.4500   20.1730 N   0  0  0  0  0  0  0  0  0  0  0  0
  -32.4030  -14.7060   20.4580 O   0  0  0  0  0  0  0  0  0  0  0  0
  -30.6960  -14.9180   21.8950 N   0  0  0  0  0  0  0  0  0  0  0  0
  -29.8170  -14.5210   22.1920 H   0  0  0  0  0  0  0  0  0  0  0  0
  -25.6240  -14.3210   20.0140 C   0  0  0  0  0  0  0  0  0  0  0  0
  -24.5810  -13.4920   20.3320 C   0  0  0  0  0  0  0  0  0  0  0  0
  -25.1530  -12.2010   20.5380 C   0  0  0  0  0  0  0  0  0  0  0  0
  -26.7620  -13.5270   20.0460 N   0  0  0  0  0  0  0  0  0  0  0  0
  -26.4720  -12.2540   20.4130 N   0  0  0  0  0  0  0  0  0  0  0  0
  -24.5170  -10.9020   20.7930 C   0  0  0  0  0  0  0  0  0  0  0  0
  -24.8720  -10.1140   21.9090 C   0  0  0  0  0  3  0  0  0  0  0  0
  -24.2360   -8.8750   22.1400 C   0  0  0  0  0  3  0  0  0  0  0  0
  -23.2320   -8.4170   21.2540 C   0  0  0  0  0  0  0  0  0  0  0  0
  -22.9000   -9.1970   20.1330 C   0  0  0  0  0  3  0  0  0  0  0  0
  -23.5370  -10.4260   19.9000 C   0  0  0  0  0  3  0  0  0  0  0  0
  -22.5780   -7.2160   21.3860 O   0  0  0  0  0  0  0  0  0  0  0  0
  -22.1990   -6.7340   22.6120 C   0  0  0  0  0  0  0  0  0  0  0  0
  -21.4680   -7.5230   23.5290 C   0  0  0  0  0  3  0  0  0  0  0  0
  -21.0370   -6.9650   24.7490 C   0  0  0  0  0  3  0  0  0  0  0  0
  -21.3260   -5.6210   25.0520 C   0  0  0  0  0  0  0  0  0  0  0  0
  -22.0490   -4.8340   24.1390 C   0  0  0  0  0  3  0  0  0  0  0  0
  -22.4810   -5.3890   22.9220 C   0  0  0  0  0  0  0  0  0  0  0  0
  -23.1590   -4.6200   22.0350 F   0  0  0  0  0  0  0  0  0  0  0  0
  -20.9060   -5.0840   26.2210 F   0  0  0  0  0  0  0  0  0  0  0  0
  -23.1250  -13.8570   20.3550 C   0  0  0  0  0  0  0  0  0  0  0  0
  -22.3500  -13.2290   21.2350 N   0  0  0  0  0  0  0  0  0  0  0  0
  -22.6730  -14.7370   19.6240 O   0  0  0  0  0  0  0  0  0  0  0  0
  -22.7220  -12.5240   21.8520 H   0  0  0  0  0  0  0  0  0  0  0  0
  -21.3690  -13.4640   21.2930 H   0  0  0  0  0  0  0  0  0  0  0  0
  -25.6980  -15.6710   19.6870 N   0  0  0  0  0  0  0  0  0  0  0  0
  -24.8730  -16.2570   19.6340 H   0  0  0  0  0  0  0  0  0  0  0  0
  -26.5560  -16.1760   19.5290 H   0  0  0  0  0  0  0  0  0  0  0  0
  -25.4320  -23.4090   24.2860 C   0  0  0  0  0  2  0  0  0  0  0  0
  -24.1860  -24.2170   24.6720 C   0  0  0  0  0  2  0  0  0  0  0  0
  -24.3410  -24.8920   26.0510 C   0  0  0  0  0  2  0  0  0  0  0  0
  -23.4350  -26.1250   26.2640 C   0  0  0  0  0  2  0  0  0  0  0  0
  -24.1220  -27.4190   25.8190 C   0  0  0  0  0  0  0  0  0  0  0  0
  -25.3750  -27.6220   26.2510 N   0  0  0  0  0  0  0  0  0  0  0  0
  -23.5340  -28.2050   25.0730 O   0  0  0  0  0  0  0  0  0  0  0  0
  -25.7710  -26.9440   26.8860 H   0  0  0  0  0  0  0  0  0  0  0  0
  -26.2520  -28.6980   25.7930 C   0  0  0  0  0  2  0  0  0  0  0  0
  -26.8260  -27.5310   23.5940 C   0  0  0  0  0  3  0  0  0  0  0  0
  -26.4970  -28.6370   24.2960 C   0  0  0  0  0  3  0  0  0  0  0  0
  -26.9940  -27.6140   22.1530 C   0  0  0  0  0  0  0  0  0  0  0  0
  -27.7070  -26.5940   21.6580 N   0  0  0  0  0  0  0  0  0  0  0  0
  -26.5240  -28.5010   21.4360 O   0  0  0  0  0  0  0  0  0  0  0  0
  -28.0970  -25.9330   22.3140 H   0  0  0  0  0  0  0  0  0  0  0  0
  -27.9910  -26.3880   20.2340 C   0  0  0  0  0  2  0  0  0  0  0  0
  -28.8930  -27.4900   19.6460 C   0  0  0  0  0  2  0  0  0  0  0  0
  -28.3210  -28.0340   18.4500 O   0  0  0  0  0  0  0  0  0  0  0  0
  -24.4390  -31.8840   22.9420 C   0  0  0  0  0  0  0  0  0  0  0  0
  -27.0970  -28.6000   18.6960 C   0  0  0  0  0  0  0  0  0  0  0  0
  -23.1690  -30.6080   21.2400 C   0  0  0  0  0  3  0  0  0  0  0  0
  -24.5550  -29.6300   19.3310 C   0  0  0  0  0  0  0  0  0  0  0  0
  -25.5350  -31.4380   20.7520 C   0  0  0  0  0  2  0  0  0  0  0  0
  -25.7050  -30.2380   19.8480 C   0  0  0  0  0  0  0  0  0  0  0  0
  -26.9800  -29.7270   19.5350 C   0  0  0  0  0  3  0  0  0  0  0  0
  -25.9400  -28.0150   18.1480 C   0  0  0  0  0  3  0  0  0  0  0  0
  -24.6670  -28.5190   18.4750 C   0  0  0  0  0  3  0  0  0  0  0  0
  -23.2230  -30.2230   19.7340 C   0  0  0  0  0  2  0  0  0  0  0  0
  -24.4090  -31.3120   21.7050 N   0  0  0  0  0  0  0  0  0  0  0  0
  -23.4400  -31.8730   23.6740 O   0  0  0  0  0  0  0  0  0  0  0  0
  -22.8460  -29.3400   22.0590 C   0  0  0  0  0  0  0  0  0  0  0  0
  -21.6010  -28.8520   21.9330 N   0  0  0  0  0  0  0  0  0  0  0  0
  -23.7040  -28.8040   22.7640 O   0  0  0  0  0  0  0  0  0  0  0  0
  -20.9600  -29.3430   21.3270 H   0  0  0  0  0  0  0  0  0  0  0  0
  -18.6970  -26.7250   22.2030 C   0  0  0  0  0  0  0  0  0  0  0  0
  -21.0780  -27.6530   22.5880 C   0  0  0  0  0  3  0  0  0  0  0  0
  -21.5760  -26.3700   21.8880 C   0  0  0  0  0  2  0  0  0  0  0  0
  -20.6150  -25.8690   20.8040 C   0  0  0  0  0  2  0  0  0  0  0  0
  -19.2540  -25.5480   21.4210 C   0  0  0  0  0  2  0  0  0  0  0  0
  -19.5540  -27.7200   22.7450 C   0  0  0  0  0  0  0  0  0  0  0  0
  -18.9860  -28.8010   23.4500 C   0  0  0  0  0  3  0  0  0  0  0  0
  -17.5920  -28.9010   23.6140 C   0  0  0  0  0  3  0  0  0  0  0  0
  -16.7460  -27.9140   23.0790 C   0  0  0  0  0  3  0  0  0  0  0  0
  -17.3000  -26.8240   22.3830 C   0  0  0  0  0  3  0  0  0  0  0  0
  -25.7150  -32.6030   23.4860 C   0  0  0  0  0  3  0  0  0  0  0  0
  -25.3430  -33.9840   23.8140 N   0  0  0  0  0  0  0  0  0  0  0  0
  -25.6260  -35.0470   23.0520 C   0  0  0  0  0  0  0  0  0  0  0  0
  -26.3020  -34.9730   22.0230 O   0  0  0  0  0  0  0  0  0  0  0  0
  -24.7510  -34.1110   24.6200 H   0  0  0  0  0  0  0  0  0  0  0  0
  -23.8210  -36.7550   22.6750 C   0  0  0  0  0  1  0  0  0  0  0  0
  -25.0700  -36.4110   23.5030 C   0  0  0  0  0  3  0  0  0  0  0  0
  -27.1770  -37.3670   24.3250 C   0  0  0  0  0  1  0  0  0  0  0  0
  -26.0540  -37.5090   23.4020 N   0  0  0  0  0  0  0  0  0  0  0  0
  -25.6120  -38.4080   23.5780 H   0  0  0  0  0  0  0  0  0  0  0  0
  -26.3490  -31.8830   24.7390 C   0  0  1  0  0  0  0  0  0  0  0  0
  -25.3230  -31.5510   25.8480 C   0  0  0  0  0  1  0  0  0  0  0  0
  -27.0390  -30.5650   24.3150 C   0  0  0  0  0  1  0  0  0  0  0  0
  -27.4520  -32.7760   25.3590 C   0  0  0  0  0  1  0  0  0  0  0  0
  1 60  1  0
  2  1  1  0
  3  2  1  0
  4  5  1  0
  4  3  1  0
  6  4  1  0
  7  4  1  0
  8  7  1  0
  9 11  1  0
  9  8  1  0
 10 12  2  0
 10 14  1  0
 11 10  1  0
 13 11  1  0
 14 15  1  0
 15 16  1  0
 16 17  1  0
 16 19  1  0
 18 16  1  0
 19 20  1  0
 20 21  1  0
 22 30  1  0
 23 28  1  0
 24 25  1  0
 24 23  1  0
 26 25  1  0
 26 35  1  0
 26 27  1  0
 28 27  1  0
 28 22  1  0
 29 22  2  0
 30 31  1  0
 30 21  1  0
 32 35  1  0
 32 33  2  0
 33 52  1  0
 33 34  1  0
 34 37  1  0
 35 36  1  0
 36 34  2  0
 37 38  1  0
 38 39  2  0
 40 43  1  0
 40 39  1  0
 41 40  2  0
 42 41  1  0
 42 37  2  0
 43 44  1  0
 44 49  2  0
 44 45  1  0
 45 46  2  0
 46 47  1  0
 47 51  1  0
 48 47  2  0
 49 48  1  0
 50 49  1  0
 52 53  1  0
 53 56  1  0
 53 55  1  0
 54 52  2  0
 57 32  1  0
 58 57  1  0
 59 57  1  0
 60 61  1  0
 61 62  1  0
 62 63  1  0
 64 65  1  0
 64 63  1  0
 65 67  1  0
 66 64  2  0
 68 65  1  0
 69 70  2  0
 70 68  1  0
 71 69  1  0
 72 71  1  0
 72 74  1  0
 73 71  2  0
 75 72  1  0
 76 75  1  0
 77 79  1  0
 77 76  1  0
 78 89  2  0
 79 84  1  0
 80 88  1  0
 80 90  1  0
 81 87  1  0
 81 83  1  0
 82 88  1  0
 83 82  1  0
 84 83  2  0
 85 86  1  0
 85 79  2  0
 86 81  2  0
 87 80  1  0
 88 78  1  0
 90 92  2  0
 91 90  1  0
 93 91  1  0
 94103  2  0
 94 99  1  0
 95 91  1  0
 95 99  1  0
 96 95  1  0
 97 98  1  0
 97 96  1  0
 98 94  1  0
 99100  2  0
100101  1  0
102101  2  0
103102  1  0
104 78  1  0
104105  1  0
104114  1  0
105108  1  0
106110  1  0
106105  1  0
107106  2  0
110109  1  0
112110  1  0
112113  1  0
112111  1  0
114117  1  1
114115  1  0
116114  1  0
M  ISO  4  22 100  30 100  76 101  77 101
M  END
>  <TORSDO>  (84) 
F 39

>  <SCORE>  (84) 
8.188

>  <name>  (84) 
93

>  <ligand_id>  (84) 
93

>  <original_smiles>  (84) 
[H]C(C(=O)N([H])C([H])([H])C([H])([H])Oc1c([H])c([H])c2c(c1[H])C([H])([H])N(C(=O)C([H])(N([H])C(=O)C([H])(N([H])C([H])([H])[H])C([H])([H])[H])C(C([H])([H])[H])(C([H])([H])[H])C([H])([H])[H])C([H])(C(=O)N([H])C1([H])c3c([H])c([H])c([H])c([H])c3C([H])([H])C([H])([H])C1([H])[H])C2([H])[H])=C([H])C([H])([H])N([H])C(=O)C([H])([H])C([H])([H])C([H])([H])C([H])([H])C([H])([H])C([H])([H])C([H])([H])[N+]([H])([H])C([H])([H])C([H])([H])C([H])([H])N([H])C(=O)C([H])([H])C([H])([H])[N+]([H])([H])C([H])([H])C([H])([H])C([H])([H])N([H])C(=O)N1C([H])([H])C([H])([H])C([H])([H])C([H])(n2nc(-c3c([H])c([H])c(Oc4c([H])c([H])c(F)c([H])c4F)c([H])c3[H])c(C(=O)N([H])[H])c2N([H])[H])C1([H])[H]

>  <smiles>  (84) 
[H]C(C(=O)N([H])C([H])([H])C([H])([H])Oc1c([H])c([H])c2c(c1[H])C([H])([H])N(C(=O)C([H])(N([H])C(=O)C([H])(N([H])C([H])([H])[H])C([H])([H])[H])C(C([H])([H])[H])(C([H])([H])[H])C([H])([H])[H])C([H])(C(=O)N([H])C1([H])c3c([H])c([H])c([H])c([H])c3C([H])([H])C([H])([H])C1([H])[H])C2([H])[H])=C([H])C([H])([H])N([H])C(=O)C([H])([H])C([H])([H])C([H])([H])C([H])([H])C([H])([H])C([H])([H])C([H])([H])[N+]([H])([H])C([H])([H])C([H])([H])C([H])([H])N([H])C(=O)C([H])([H])C([H])([H])[N+]([H])([H])C([H])([H])C([H])([H])C([H])([H])N([H])C(=O)N1C([H])([H])C([H])([H])C([H])([H])C([H])(n2nc(-c3c([H])c([H])c(Oc4c([H])c([H])c(F)c([H])c4F)c([H])c3[H])c(C(=O)N([H])[H])c2N([H])[H])C1([H])[H]

$$$$
94:0:0
     RDKit          3D

 99105  0  0  1  0  0  0  0  0999 V2000
  -24.4220  -25.2500   23.8660 C   0  0  0  0  0  0  0  0  0  0  0  0
  -23.7200  -26.3630   24.6040 N   0  0  0  0  0  0  0  0  0  0  0  0
  -23.5700  -24.4060   23.6080 O   0  0  0  0  0  0  0  0  0  0  0  0
  -22.8070  -25.9320   24.6430 H   0  0  0  0  0  0  0  0  0  0  0  0
  -25.9420  -24.6560   23.2010 C   0  0  0  0  0  3  0  0  0  0  0  0
  -26.2120  -23.3640   21.9240 C   0  0  0  0  0  3  0  0  0  0  0  0
  -27.7150  -21.6190   20.0670 C   0  0  0  0  0  0  0  0  0  0  0  0
  -27.4890  -22.7940   20.9630 N   0  0  0  0  0  0  0  0  0  0  0  0
  -26.8020  -20.7950   20.1520 O   0  0  0  0  0  0  0  0  0  0  0  0
  -28.2550  -23.4570   20.9110 H   0  0  0  0  0  0  0  0  0  0  0  0
  -28.9550  -21.1390   18.8720 C   0  0  0  0  0  2  0  0  0  0  0  0
  -29.8120  -19.7070   18.0870 C   0  0  0  0  0  2  0  0  0  0  0  0
  -31.4860  -18.3570   15.9650 C   0  0  0  0  0  0  0  0  0  0  0  0
  -32.8840  -17.8410   13.7930 C   0  0  0  0  0  2  0  0  0  0  0  0
  -33.6970  -19.0550   13.2540 C   0  0  0  0  0  2  0  0  0  0  0  0
  -32.7930  -20.0440   12.4930 C   0  0  0  0  0  2  0  0  0  0  0  0
  -31.4570  -20.2670   13.2410 C   0  0  0  0  0  3  0  0  0  0  0  0
  -30.7790  -18.9420   13.6100 C   0  0  0  0  0  2  0  0  0  0  0  0
  -31.6750  -18.3240   14.5660 N   0  0  0  0  0  0  0  0  0  0  0  0
  -32.2420  -17.5560   16.5540 O   0  0  0  0  0  0  0  0  0  0  0  0
  -30.5540  -19.3400   16.6160 N   0  0  0  0  0  0  0  0  0  0  0  0
  -30.1600  -19.9180   15.8880 H   0  0  0  0  0  0  0  0  0  0  0  0
  -29.8480  -22.2160   13.0060 C   0  0  0  0  0  0  0  0  0  0  0  0
  -29.1430  -22.6960   11.9380 C   0  0  0  0  0  0  0  0  0  0  0  0
  -29.4430  -21.8290   10.8430 C   0  0  0  0  0  0  0  0  0  0  0  0
  -30.5360  -21.1190   12.5260 N   0  0  0  0  0  0  0  0  0  0  0  0
  -30.2380  -20.8430   11.2350 N   0  0  0  0  0  0  0  0  0  0  0  0
  -29.0700  -21.9160    9.4280 C   0  0  0  0  0  0  0  0  0  0  0  0
  -28.5320  -20.8100    8.7360 C   0  0  0  0  0  3  0  0  0  0  0  0
  -28.1650  -20.9270    7.3770 C   0  0  0  0  0  3  0  0  0  0  0  0
  -28.3330  -22.1600    6.7020 C   0  0  0  0  0  0  0  0  0  0  0  0
  -28.8930  -23.2500    7.3910 C   0  0  0  0  0  3  0  0  0  0  0  0
  -29.2620  -23.1310    8.7410 C   0  0  0  0  0  3  0  0  0  0  0  0
  -28.0270  -22.3600    5.3800 O   0  0  0  0  0  0  0  0  0  0  0  0
  -27.1160  -21.5720    4.7240 C   0  0  0  0  0  0  0  0  0  0  0  0
  -25.7990  -21.3990    5.2050 C   0  0  0  0  0  3  0  0  0  0  0  0
  -24.8750  -20.6370    4.4630 C   0  0  0  0  0  3  0  0  0  0  0  0
  -25.2600  -20.0570    3.2400 C   0  0  0  0  0  0  0  0  0  0  0  0
  -26.5680  -20.2340    2.7570 C   0  0  0  0  0  3  0  0  0  0  0  0
  -27.4920  -20.9920    3.4970 C   0  0  0  0  0  0  0  0  0  0  0  0
  -28.7460  -21.1770    3.0180 F   0  0  0  0  0  0  0  0  0  0  0  0
  -24.3690  -19.3330    2.5230 F   0  0  0  0  0  0  0  0  0  0  0  0
  -28.3210  -23.9490   11.9120 C   0  0  0  0  0  0  0  0  0  0  0  0
  -27.2750  -23.9750   11.0940 N   0  0  0  0  0  0  0  0  0  0  0  0
  -28.5760  -24.8950   12.6560 O   0  0  0  0  0  0  0  0  0  0  0  0
  -27.0580  -23.1890   10.4980 H   0  0  0  0  0  0  0  0  0  0  0  0
  -26.6810  -24.7910   11.0640 H   0  0  0  0  0  0  0  0  0  0  0  0
  -29.9830  -22.6300   14.3290 N   0  0  0  0  0  0  0  0  0  0  0  0
  -29.5470  -23.4830   14.6640 H   0  0  0  0  0  0  0  0  0  0  0  0
  -30.6770  -22.2670   14.9700 H   0  0  0  0  0  0  0  0  0  0  0  0
  -23.4040  -27.8220   25.4660 C   0  0  0  0  0  2  0  0  0  0  0  0
  -23.4290  -29.6580   25.2520 C   0  0  0  0  0  0  0  0  0  0  0  0
  -24.4770  -30.7060   24.7330 N   0  0  0  0  0  0  0  0  0  0  0  0
  -22.3660  -30.1460   25.6390 O   0  0  0  0  0  0  0  0  0  0  0  0
  -24.0670  -31.6250   24.8320 H   0  0  0  0  0  0  0  0  0  0  0  0
  -26.1540  -30.8750   24.0170 C   0  0  0  0  0  1  0  0  0  0  0  0
  -27.9410  -30.1890   24.5560 C   0  0  0  0  0  1  0  0  0  0  0  0
  -28.7970  -29.3540   26.0710 C   0  0  0  0  0  2  0  0  0  0  0  0
  -29.0520  -29.4390   27.7810 O   0  0  0  0  0  0  0  0  0  0  0  0
  -24.5440  -27.3230   30.3230 C   0  0  0  0  0  0  0  0  0  0  0  0
  -29.1460  -30.4970   28.6830 C   0  0  0  0  0  3  0  0  0  0  0  0
  -25.3680  -28.3380   28.2470 C   0  0  0  0  0  3  0  0  0  0  0  0
  -26.5660  -30.5130   28.2960 C   0  0  0  0  0  3  0  0  0  0  0  0
  -26.0110  -29.3390   30.4220 C   0  0  0  0  0  2  0  0  0  0  0  0
  -27.0050  -30.0720   29.5430 C   0  0  0  0  0  3  0  0  0  0  0  0
  -28.3680  -30.2040   29.8300 C   0  0  0  0  0  2  0  0  0  0  0  0
  -28.7310  -31.5130   27.8650 C   0  0  0  0  0  2  0  0  0  0  0  0
  -27.3710  -31.3870   27.5220 C   0  0  0  0  0  2  0  0  0  0  0  0
  -25.2980  -29.8700   27.8790 C   0  0  0  0  0  2  0  0  0  0  0  0
  -25.2910  -28.2720   29.7020 N   0  0  0  0  0  0  0  0  0  0  0  0
  -23.8010  -26.5380   29.7190 O   0  0  0  0  0  0  0  0  0  0  0  0
  -26.6430  -27.3770   27.6910 C   0  0  0  0  0  0  0  0  0  0  0  0
  -27.3880  -27.2850   26.3790 N   0  0  0  0  0  0  0  0  0  0  0  0
  -26.9320  -26.4760   28.4220 O   0  0  0  0  0  0  0  0  0  0  0  0
  -28.0960  -26.5950   26.6030 H   0  0  0  0  0  0  0  0  0  0  0  0
  -27.2230  -28.3390   22.1910 C   0  0  0  0  0  0  0  0  0  0  0  0
  -27.3940  -27.2880   24.6910 C   0  0  0  0  0  3  0  0  0  0  0  0
  -28.8650  -27.3610   24.4370 C   0  0  0  0  0  2  0  0  0  0  0  0
  -29.2710  -28.5460   23.5920 C   0  0  0  0  0  2  0  0  0  0  0  0
  -28.7280  -28.3630   22.1960 C   0  0  0  0  0  2  0  0  0  0  0  0
  -26.5040  -27.8710   23.3380 C   0  0  0  0  0  0  0  0  0  0  0  0
  -25.0740  -27.8570   23.0250 C   0  0  0  0  0  3  0  0  0  0  0  0
  -24.4490  -28.3540   21.8600 C   0  0  0  0  0  3  0  0  0  0  0  0
  -25.2320  -28.8100   20.8070 C   0  0  0  0  0  3  0  0  0  0  0  0
  -26.6190  -28.7730   20.9780 C   0  0  0  0  0  3  0  0  0  0  0  0
  -24.6140  -27.2000   31.8570 C   0  0  0  0  0  3  0  0  0  0  0  0
  -25.7760  -26.2460   32.3180 C   0  0  1  0  0  0  0  0  0  0  0  0
  -25.7320  -24.8440   31.6690 C   0  0  0  0  0  1  0  0  0  0  0  0
  -27.1670  -26.8550   32.0280 C   0  0  0  0  0  1  0  0  0  0  0  0
  -25.6990  -26.0720   33.8470 C   0  0  0  0  0  1  0  0  0  0  0  0
  -23.3090  -26.7100   32.3150 N   0  0  0  0  0  0  0  0  0  0  0  0
  -22.3870  -27.4730   32.9100 C   0  0  0  0  0  0  0  0  0  0  0  0
  -22.5830  -28.6580   33.1910 O   0  0  0  0  0  0  0  0  0  0  0  0
  -23.0660  -25.7610   32.0710 H   0  0  0  0  0  0  0  0  0  0  0  0
  -19.9720  -27.2340   32.2480 C   0  0  0  0  0  1  0  0  0  0  0  0
  -21.0440  -26.8090   33.2630 C   0  0  0  0  0  3  0  0  0  0  0  0
  -21.4220  -26.5140   35.6710 C   0  0  0  0  0  1  0  0  0  0  0  0
  -20.5850  -27.1150   34.6350 N   0  0  0  0  0  0  0  0  0  0  0  0
  -19.6300  -26.7970   34.7750 H   0  0  0  0  0  0  0  0  0  0  0  0
  1  2  1  0
  2  4  1  0
  2 51  1  0
  3  1  2  0
  5  1  1  0
  6  5  2  0
  7  9  2  0
  7  8  1  0
  8  6  1  0
 10  8  1  0
 11  7  1  0
 12 11  1  0
 13 20  2  0
 13 21  1  0
 14 19  1  0
 15 14  1  0
 16 15  1  0
 17 16  1  0
 17 18  1  0
 18 19  1  0
 19 13  1  0
 21 12  1  0
 22 21  1  0
 23 48  1  0
 24 23  2  0
 25 27  2  0
 25 24  1  0
 26 23  1  0
 26 17  1  0
 27 26  1  0
 28 25  1  0
 29 28  2  0
 30 29  1  0
 31 30  2  0
 31 32  1  0
 32 33  2  0
 33 28  1  0
 34 31  1  0
 35 36  1  0
 35 34  1  0
 37 36  2  0
 38 37  1  0
 39 38  2  0
 39 40  1  0
 40 35  2  0
 41 40  1  0
 42 38  1  0
 43 24  1  0
 43 45  2  0
 44 43  1  0
 46 44  1  0
 47 44  1  0
 48 49  1  0
 48 50  1  0
 52 51  1  0
 52 54  2  0
 53 55  1  0
 53 52  1  0
 56 53  1  0
 57 58  1  0
 58 59  1  0
 61 59  1  0
 61 66  1  0
 62 72  1  0
 62 70  1  0
 63 68  1  0
 63 65  1  0
 65 66  1  0
 65 64  1  0
 67 61  1  0
 68 67  1  0
 69 62  1  0
 69 63  1  0
 70 60  1  0
 70 64  1  0
 71 60  2  0
 72 74  2  0
 73 75  1  0
 73 72  1  0
 76 80  1  0
 76 81  1  0
 77 73  1  0
 78 77  1  0
 79 78  1  0
 80 79  1  0
 81 77  1  0
 82 81  2  0
 83 82  1  0
 84 85  1  0
 84 83  2  0
 85 76  2  0
 86 60  1  0
 86 91  1  0
 86 87  1  0
 87 90  1  1
 88 87  1  0
 89 87  1  0
 91 92  1  0
 92 93  2  0
 92 96  1  0
 94 91  1  0
 96 95  1  0
 96 98  1  0
 98 99  1  0
 98 97  1  0
M  ISO  4  13 100  21 100  58 101  59 101
M  END
>  <TORSDO>  (85) 
F 26

>  <SCORE>  (85) 
-2.312

>  <name>  (85) 
94

>  <ligand_id>  (85) 
94

>  <original_smiles>  (85) 
[H]c1c([H])c([H])c2c(c1[H])C([H])([H])C([H])([H])C([H])([H])C2([H])N([H])C(=O)C1([H])N(C(=O)C([H])(N([H])C(=O)C([H])(N([H])C([H])([H])[H])C([H])([H])[H])C(C([H])([H])[H])(C([H])([H])[H])C([H])([H])[H])C([H])([H])c2c([H])c(OC([H])([H])C([H])([H])C([H])([H])N([H])C(=O)C([H])([H])N([H])C(=O)C([H])([H])C([H])([H])N([H])C(=O)C([H])([H])C([H])([H])N([H])C(=O)N3C([H])([H])C([H])([H])C([H])([H])C([H])(n4nc(-c5c([H])c([H])c(Oc6c([H])c([H])c(F)c([H])c6F)c([H])c5[H])c(C(=O)N([H])[H])c4N([H])[H])C3([H])[H])c([H])c([H])c2C1([H])[H]

>  <smiles>  (85) 
[H]c1c([H])c([H])c2c(c1[H])C([H])([H])C([H])([H])C([H])([H])C2([H])N([H])C(=O)C1([H])N(C(=O)C([H])(N([H])C(=O)C([H])(N([H])C([H])([H])[H])C([H])([H])[H])C(C([H])([H])[H])(C([H])([H])[H])C([H])([H])[H])C([H])([H])c2c([H])c(OC([H])([H])C([H])([H])C([H])([H])N([H])C(=O)C([H])([H])N([H])C(=O)C([H])([H])C([H])([H])N([H])C(=O)C([H])([H])C([H])([H])N([H])C(=O)N3C([H])([H])C([H])([H])C([H])([H])C([H])(n4nc(-c5c([H])c([H])c(Oc6c([H])c([H])c(F)c([H])c6F)c([H])c5[H])c(C(=O)N([H])[H])c4N([H])[H])C3([H])[H])c([H])c([H])c2C1([H])[H]

$$$$
95:0:0
     RDKit          3D

104111  0  0  1  0  0  0  0  0999 V2000
  -28.2950  -18.9650   16.2950 C   0  0  0  0  0  0  0  0  0  0  0  0
  -28.8810  -20.0260   15.7420 N   0  0  0  0  0  0  0  0  0  0  0  0
  -28.6220  -17.8030   16.0460 O   0  0  0  0  0  0  0  0  0  0  0  0
  -28.5190  -20.9370   15.9960 H   0  0  0  0  0  0  0  0  0  0  0  0
  -27.2830  -19.2720   17.3890 C   0  0  0  0  0  2  0  0  0  0  0  0
  -27.6300  -19.5890   19.8360 C   0  0  0  0  0  0  0  0  0  0  0  0
  -28.0860  -19.4640   18.5910 N   0  0  0  0  0  0  0  0  0  0  0  0
  -26.4290  -19.6670   20.0850 O   0  0  0  0  0  0  0  0  0  0  0  0
  -29.0860  -19.4230   18.4650 H   0  0  0  0  0  0  0  0  0  0  0  0
  -28.6630  -19.5850   20.9720 C   0  0  0  0  0  2  0  0  0  0  0  0
  -29.8300  -17.4120   20.6670 C   0  0  0  0  0  0  0  0  0  0  0  0
  -29.8490  -18.7510   20.7180 N   0  0  0  0  0  0  0  0  0  0  0  0
  -28.7770  -16.7670   20.7100 O   0  0  0  0  0  0  0  0  0  0  0  0
  -30.7460  -19.2160   20.6970 H   0  0  0  0  0  0  0  0  0  0  0  0
  -31.1700  -16.6720   20.5880 C   0  0  0  0  0  2  0  0  0  0  0  0
  -31.4330  -14.2760   19.9470 C   0  0  0  0  0  0  0  0  0  0  0  0
  -30.9330  -12.1630   18.7860 C   0  0  0  0  0  2  0  0  0  0  0  0
  -29.9330  -12.4340   17.6400 C   0  0  0  0  0  2  0  0  0  0  0  0
  -28.4790  -12.3820   18.1440 C   0  0  0  0  0  2  0  0  0  0  0  0
  -28.2610  -13.2570   19.4050 C   0  0  0  0  0  3  0  0  0  0  0  0
  -29.3480  -12.9530   20.4610 C   0  0  0  0  0  2  0  0  0  0  0  0
  -30.6740  -13.1530   19.8430 N   0  0  0  0  0  0  0  0  0  0  0  0
  -32.4900  -14.4450   19.3330 O   0  0  0  0  0  0  0  0  0  0  0  0
  -30.9000  -15.2420   20.6950 N   0  0  0  0  0  0  0  0  0  0  0  0
  -30.0080  -15.0380   21.1190 H   0  0  0  0  0  0  0  0  0  0  0  0
  -25.9550  -14.0420   20.2470 C   0  0  0  0  0  0  0  0  0  0  0  0
  -24.8450  -13.3490   20.6470 C   0  0  0  0  0  0  0  0  0  0  0  0
  -25.1970  -11.9680   20.5800 C   0  0  0  0  0  0  0  0  0  0  0  0
  -26.9170  -13.0880   19.9560 N   0  0  0  0  0  0  0  0  0  0  0  0
  -26.4660  -11.8330   20.2140 N   0  0  0  0  0  0  0  0  0  0  0  0
  -24.3830  -10.7620   20.7930 C   0  0  0  0  0  0  0  0  0  0  0  0
  -24.7350   -9.7920   21.7560 C   0  0  0  0  0  3  0  0  0  0  0  0
  -23.9330   -8.6470   21.9510 C   0  0  0  0  0  3  0  0  0  0  0  0
  -22.7530   -8.4680   21.1900 C   0  0  0  0  0  0  0  0  0  0  0  0
  -22.4240   -9.4220   20.2100 C   0  0  0  0  0  3  0  0  0  0  0  0
  -23.2280  -10.5580   20.0130 C   0  0  0  0  0  3  0  0  0  0  0  0
  -21.9160   -7.3870   21.2960 O   0  0  0  0  0  0  0  0  0  0  0  0
  -21.7260   -6.7430   22.4920 C   0  0  0  0  0  0  0  0  0  0  0  0
  -21.2280   -7.4170   23.6280 C   0  0  0  0  0  3  0  0  0  0  0  0
  -20.9750   -6.6990   24.8150 C   0  0  0  0  0  3  0  0  0  0  0  0
  -21.2180   -5.3120   24.8670 C   0  0  0  0  0  0  0  0  0  0  0  0
  -21.7160   -4.6450   23.7340 C   0  0  0  0  0  3  0  0  0  0  0  0
  -21.9620   -5.3570   22.5480 C   0  0  0  0  0  0  0  0  0  0  0  0
  -22.4180   -4.7050   21.4510 F   0  0  0  0  0  0  0  0  0  0  0  0
  -20.9720   -4.6170   26.0030 F   0  0  0  0  0  0  0  0  0  0  0  0
  -23.5050  -13.9260   20.9990 C   0  0  0  0  0  0  0  0  0  0  0  0
  -22.7720  -13.2850   21.9030 N   0  0  0  0  0  0  0  0  0  0  0  0
  -23.1170  -14.9860   20.5130 O   0  0  0  0  0  0  0  0  0  0  0  0
  -23.1010  -12.4300   22.3290 H   0  0  0  0  0  0  0  0  0  0  0  0
  -21.8730  -13.6550   22.1740 H   0  0  0  0  0  0  0  0  0  0  0  0
  -26.2260  -15.4020   20.1120 N   0  0  0  0  0  0  0  0  0  0  0  0
  -25.5530  -16.0810   20.4460 H   0  0  0  0  0  0  0  0  0  0  0  0
  -27.1720  -15.7810   20.0770 H   0  0  0  0  0  0  0  0  0  0  0  0
  -30.1800  -19.9980   15.0850 C   0  0  0  0  0  2  0  0  0  0  0  0
  -31.2350  -20.4480   16.0950 C   0  0  0  0  0  0  0  0  0  0  0  0
  -31.1320  -21.7110   16.5270 N   0  0  0  0  0  0  0  0  0  0  0  0
  -32.0870  -19.6630   16.5060 O   0  0  0  0  0  0  0  0  0  0  0  0
  -30.3870  -22.2660   16.1320 H   0  0  0  0  0  0  0  0  0  0  0  0
  -32.0450  -22.3990   17.4340 C   0  0  0  0  0  2  0  0  0  0  0  0
  -31.3660  -22.8200   18.7500 C   0  0  0  0  0  2  0  0  0  0  0  0
  -30.0410  -23.5970   18.5660 C   0  0  0  0  0  2  0  0  0  0  0  0
  -29.8670  -24.7830   19.5350 C   0  0  0  0  0  2  0  0  0  0  0  0
  -28.5030  -25.4730   19.3890 C   0  0  0  0  0  2  0  0  0  0  0  0
  -28.4770  -26.7220   20.0940 O   0  0  0  0  0  0  0  0  0  0  0  0
  -24.6740  -31.7870   23.3630 C   0  0  0  0  0  0  0  0  0  0  0  0
  -27.3010  -27.4500   20.1010 C   0  0  0  0  0  0  0  0  0  0  0  0
  -23.4740  -30.4780   21.6430 C   0  0  0  0  0  3  0  0  0  0  0  0
  -24.9260  -28.9900   20.1740 C   0  0  0  0  0  0  0  0  0  0  0  0
  -26.0100  -30.8040   21.5000 C   0  0  0  0  0  2  0  0  0  0  0  0
  -26.0840  -29.4620   20.8020 C   0  0  0  0  0  0  0  0  0  0  0  0
  -27.2720  -28.6950   20.7700 C   0  0  0  0  0  3  0  0  0  0  0  0
  -26.1180  -26.9970   19.4660 C   0  0  0  0  0  3  0  0  0  0  0  0
  -24.9360  -27.7530   19.5120 C   0  0  0  0  0  3  0  0  0  0  0  0
  -23.6970  -29.8660   20.2380 C   0  0  0  0  0  2  0  0  0  0  0  0
  -24.7360  -31.0350   22.2270 N   0  0  0  0  0  0  0  0  0  0  0  0
  -23.5860  -32.0500   23.8950 O   0  0  0  0  0  0  0  0  0  0  0  0
  -22.7930  -29.4210   22.5430 C   0  0  0  0  0  0  0  0  0  0  0  0
  -21.4630  -29.2910   22.4100 N   0  0  0  0  0  0  0  0  0  0  0  0
  -23.4580  -28.7280   23.3160 O   0  0  0  0  0  0  0  0  0  0  0  0
  -20.9910  -29.9010   21.7590 H   0  0  0  0  0  0  0  0  0  0  0  0
  -18.0540  -28.1830   22.8600 C   0  0  0  0  0  0  0  0  0  0  0  0
  -20.6200  -28.3350   23.1270 C   0  0  0  0  0  3  0  0  0  0  0  0
  -20.6700  -26.9390   22.4650 C   0  0  0  0  0  2  0  0  0  0  0  0
  -19.5540  -26.7170   21.4400 C   0  0  0  0  0  2  0  0  0  0  0  0
  -18.1800  -26.8700   22.1010 C   0  0  0  0  0  2  0  0  0  0  0  0
  -19.2010  -28.8770   23.3260 C   0  0  0  0  0  0  0  0  0  0  0  0
  -19.0310  -30.1080   23.9960 C   0  0  0  0  0  3  0  0  0  0  0  0
  -17.7470  -30.6470   24.1970 C   0  0  0  0  0  3  0  0  0  0  0  0
  -16.6130  -29.9480   23.7480 C   0  0  0  0  0  3  0  0  0  0  0  0
  -16.7670  -28.7170   23.0850 C   0  0  0  0  0  3  0  0  0  0  0  0
  -25.9570  -32.3720   24.0320 C   0  0  0  0  0  3  0  0  0  0  0  0
  -25.6680  -33.7650   24.3980 N   0  0  0  0  0  0  0  0  0  0  0  0
  -26.0230  -34.8320   23.6700 C   0  0  0  0  0  0  0  0  0  0  0  0
  -26.7010  -34.7470   22.6420 O   0  0  0  0  0  0  0  0  0  0  0  0
  -25.0770  -33.9070   25.2040 H   0  0  0  0  0  0  0  0  0  0  0  0
  -24.3250  -36.6580   23.3470 C   0  0  0  0  0  1  0  0  0  0  0  0
  -25.5520  -36.2150   24.1600 C   0  0  0  0  0  3  0  0  0  0  0  0
  -27.6890  -37.0450   25.0400 C   0  0  0  0  0  1  0  0  0  0  0  0
  -26.6030  -37.2530   24.0860 N   0  0  0  0  0  0  0  0  0  0  0  0
  -26.2100  -38.1770   24.2490 H   0  0  0  0  0  0  0  0  0  0  0  0
  -26.4330  -31.5490   25.2910 C   0  0  1  0  0  0  0  0  0  0  0  0
  -25.3170  -31.3060   26.3320 C   0  0  0  0  0  1  0  0  0  0  0  0
  -26.9860  -30.1690   24.8620 C   0  0  0  0  0  1  0  0  0  0  0  0
  -27.5940  -32.2910   25.9930 C   0  0  0  0  0  1  0  0  0  0  0  0
  1  5  1  0
  2  4  1  0
  2  1  1  0
  3  1  2  0
  5  7  1  0
  6  8  2  0
  6 10  1  0
  7  6  1  0
  9  7  1  0
 11 13  2  0
 11 12  1  0
 12 10  1  0
 14 12  1  0
 15 11  1  0
 15 24  1  0
 16 24  1  0
 17 22  1  0
 18 19  1  0
 18 17  1  0
 20 19  1  0
 20 29  1  0
 20 21  1  0
 22 16  1  0
 22 21  1  0
 23 16  2  0
 24 25  1  0
 26 27  2  0
 27 46  1  0
 28 27  1  0
 28 31  1  0
 29 30  1  0
 29 26  1  0
 30 28  2  0
 31 32  1  0
 32 33  2  0
 34 37  1  0
 34 33  1  0
 35 34  2  0
 36 35  1  0
 36 31  2  0
 37 38  1  0
 38 43  2  0
 38 39  1  0
 39 40  2  0
 40 41  1  0
 41 45  1  0
 42 41  2  0
 43 42  1  0
 44 43  1  0
 46 47  1  0
 47 50  1  0
 47 49  1  0
 48 46  2  0
 51 26  1  0
 51 52  1  0
 53 51  1  0
 54  2  1  0
 54 55  1  0
 55 57  2  0
 55 56  1  0
 56 59  1  0
 58 56  1  0
 59 60  1  0
 61 60  1  0
 61 62  1  0
 63 62  1  0
 63 64  1  0
 64 66  1  0
 65 76  2  0
 66 71  1  0
 67 75  1  0
 67 77  1  0
 68 74  1  0
 68 70  1  0
 69 75  1  0
 70 69  1  0
 71 70  2  0
 72 73  1  0
 72 66  2  0
 73 68  2  0
 74 67  1  0
 75 65  1  0
 77 79  2  0
 78 77  1  0
 80 78  1  0
 81 90  2  0
 81 86  1  0
 82 78  1  0
 82 86  1  0
 83 82  1  0
 84 85  1  0
 84 83  1  0
 85 81  1  0
 86 87  2  0
 87 88  1  0
 89 88  2  0
 90 89  1  0
 91 65  1  0
 91 92  1  0
 91101  1  0
 92 95  1  0
 93 97  1  0
 93 92  1  0
 94 93  2  0
 97 96  1  0
 99 97  1  0
 99100  1  0
 99 98  1  0
101104  1  1
101102  1  0
103101  1  0
M  ISO  4  16 100  24 100  63 101  64 101
M  END
>  <TORSDO>  (86) 
F 28

>  <SCORE>  (86) 
-9.283

>  <name>  (86) 
95

>  <ligand_id>  (86) 
95

>  <original_smiles>  (86) 
[H]c1c([H])c([H])c2c(c1[H])C([H])([H])C([H])([H])C([H])([H])C2([H])N([H])C(=O)C1([H])N(C(=O)C([H])(N([H])C(=O)C([H])(N([H])C([H])([H])[H])C([H])([H])[H])C(C([H])([H])[H])(C([H])([H])[H])C([H])([H])[H])C([H])([H])c2c([H])c(OC([H])([H])C([H])([H])C([H])([H])C([H])([H])C([H])([H])N([H])C(=O)C([H])([H])N([H])C(=O)C([H])([H])N([H])C(=O)C([H])([H])N([H])C(=O)C([H])([H])N([H])C(=O)N3C([H])([H])C([H])([H])C([H])([H])C([H])(n4nc(-c5c([H])c([H])c(Oc6c([H])c([H])c(F)c([H])c6F)c([H])c5[H])c(C(=O)N([H])[H])c4N([H])[H])C3([H])[H])c([H])c([H])c2C1([H])[H]

>  <smiles>  (86) 
[H]c1c([H])c([H])c2c(c1[H])C([H])([H])C([H])([H])C([H])([H])C2([H])N([H])C(=O)C1([H])N(C(=O)C([H])(N([H])C(=O)C([H])(N([H])C([H])([H])[H])C([H])([H])[H])C(C([H])([H])[H])(C([H])([H])[H])C([H])([H])[H])C([H])([H])c2c([H])c(OC([H])([H])C([H])([H])C([H])([H])C([H])([H])C([H])([H])N([H])C(=O)C([H])([H])N([H])C(=O)C([H])([H])N([H])C(=O)C([H])([H])N([H])C(=O)C([H])([H])N([H])C(=O)N3C([H])([H])C([H])([H])C([H])([H])C([H])(n4nc(-c5c([H])c([H])c(Oc6c([H])c([H])c(F)c([H])c6F)c([H])c5[H])c(C(=O)N([H])[H])c4N([H])[H])C3([H])[H])c([H])c([H])c2C1([H])[H]

$$$$
96:0:0
     RDKit          3D

105112  0  0  1  0  0  0  0  0999 V2000
  -28.6540  -11.0590   23.6430 C   0  0  0  0  0  0  0  0  0  0  0  0
  -28.1990  -12.2860   23.0920 N   0  0  0  0  0  0  0  0  0  0  0  0
  -29.6540  -11.1380   24.3560 O   0  0  0  0  0  0  0  0  0  0  0  0
  -27.4260  -12.1030   22.4570 H   0  0  0  0  0  0  0  0  0  0  0  0
  -28.7780  -13.7480   22.9130 C   0  0  0  0  0  2  0  0  0  0  0  0
  -28.6280  -14.6720   21.5450 C   0  0  0  0  0  0  0  0  0  0  0  0
  -29.6320  -15.4320   20.8870 N   0  0  0  0  0  0  0  0  0  0  0  0
  -27.4820  -14.7480   21.1020 O   0  0  0  0  0  0  0  0  0  0  0  0
  -30.5120  -15.4700   21.3820 H   0  0  0  0  0  0  0  0  0  0  0  0
  -29.6880  -16.0330   19.4290 C   0  0  0  0  0  2  0  0  0  0  0  0
  -30.5010  -17.4150   18.9330 C   0  0  0  0  0  3  0  0  0  0  0  0
  -31.1680  -17.6440   17.4040 C   0  0  0  0  0  3  0  0  0  0  0  0
  -31.6860  -19.0930   16.7380 C   0  0  0  0  0  3  0  0  0  0  0  0
  -32.7850  -19.2820   15.4830 C   0  0  0  0  0  3  0  0  0  0  0  0
  -33.0430  -20.7150   14.6590 C   0  0  0  0  0  2  0  0  0  0  0  0
  -34.2710  -21.1860   13.8430 O   0  0  0  0  0  0  0  0  0  0  0  0
  -31.9520  -25.5300    8.5090 C   0  0  0  0  0  0  0  0  0  0  0  0
  -34.1210  -21.4340   12.4540 C   0  0  0  0  0  0  0  0  0  0  0  0
  -31.9990  -23.1020    8.0780 C   0  0  0  0  0  3  0  0  0  0  0  0
  -33.4230  -21.6960    9.6810 C   0  0  0  0  0  0  0  0  0  0  0  0
  -33.7380  -24.1660    9.6400 C   0  0  0  0  0  2  0  0  0  0  0  0
  -33.8050  -22.8370   10.4000 C   0  0  0  0  0  0  0  0  0  0  0  0
  -34.1800  -22.7100   11.7810 C   0  0  0  0  0  3  0  0  0  0  0  0
  -33.8310  -20.3170   11.6520 C   0  0  0  0  0  3  0  0  0  0  0  0
  -33.4720  -20.4360   10.2970 C   0  0  0  0  0  3  0  0  0  0  0  0
  -32.9350  -21.8770    8.2540 C   0  0  0  0  0  2  0  0  0  0  0  0
  -32.5410  -24.3220    8.7590 N   0  0  0  0  0  0  0  0  0  0  0  0
  -31.0000  -25.6360    7.7210 O   0  0  0  0  0  0  0  0  0  0  0  0
  -30.5710  -22.7250    8.5460 C   0  0  0  0  0  0  0  0  0  0  0  0
  -29.8120  -22.0230    7.6890 N   0  0  0  0  0  0  0  0  0  0  0  0
  -30.1750  -23.0480    9.6700 O   0  0  0  0  0  0  0  0  0  0  0  0
  -30.2010  -21.8030    6.7820 H   0  0  0  0  0  0  0  0  0  0  0  0
  -27.0260  -20.2290    6.2280 C   0  0  0  0  0  0  0  0  0  0  0  0
  -28.4570  -21.5300    7.9470 C   0  0  0  0  0  3  0  0  0  0  0  0
  -28.4870  -20.2150    8.7600 C   0  0  0  0  0  2  0  0  0  0  0  0
  -28.4650  -18.9610    7.8800 C   0  0  0  0  0  2  0  0  0  0  0  0
  -27.2040  -18.9390    7.0100 C   0  0  0  0  0  2  0  0  0  0  0  0
  -27.6270  -21.4430    6.6590 C   0  0  0  0  0  0  0  0  0  0  0  0
  -27.4560  -22.6060    5.8780 C   0  0  0  0  0  3  0  0  0  0  0  0
  -26.7040  -22.5710    4.6890 C   0  0  0  0  0  3  0  0  0  0  0  0
  -26.1010  -21.3720    4.2740 C   0  0  0  0  0  3  0  0  0  0  0  0
  -26.2580  -20.2060    5.0450 C   0  0  0  0  0  3  0  0  0  0  0  0
  -32.4620  -26.8400    9.1840 C   0  0  0  0  0  3  0  0  0  0  0  0
  -32.5970  -27.8620    8.1350 N   0  0  0  0  0  0  0  0  0  0  0  0
  -33.7530  -28.2030    7.5490 C   0  0  0  0  0  0  0  0  0  0  0  0
  -34.8390  -27.7310    7.8900 O   0  0  0  0  0  0  0  0  0  0  0  0
  -31.7400  -28.2490    7.7660 H   0  0  0  0  0  0  0  0  0  0  0  0
  -33.8180  -28.5090    5.0520 C   0  0  0  0  0  1  0  0  0  0  0  0
  -33.6940  -29.2320    6.4020 C   0  0  0  0  0  3  0  0  0  0  0  0
  -34.5130  -31.2050    7.6130 C   0  0  0  0  0  1  0  0  0  0  0  0
  -34.7300  -30.2840    6.5020 N   0  0  0  0  0  0  0  0  0  0  0  0
  -34.7750  -30.8270    5.6430 H   0  0  0  0  0  0  0  0  0  0  0  0
  -31.5100  -27.3560   10.3350 C   0  0  1  0  0  0  0  0  0  0  0  0
  -30.0420  -27.5480    9.8890 C   0  0  0  0  0  1  0  0  0  0  0  0
  -31.5140  -26.3740   11.5290 C   0  0  0  0  0  1  0  0  0  0  0  0
  -32.0290  -28.7070   10.8780 C   0  0  0  0  0  1  0  0  0  0  0  0
  -28.0570   -9.4910   23.4460 C   0  0  0  0  0  2  0  0  0  0  0  0
  -27.3280   -7.7640   21.3430 C   0  0  0  0  0  0  0  0  0  0  0  0
  -28.1410   -8.5460   22.1880 N   0  0  0  0  0  0  0  0  0  0  0  0
  -26.5040   -7.0250   21.8790 O   0  0  0  0  0  0  0  0  0  0  0  0
  -28.8880   -8.9120   21.6170 H   0  0  0  0  0  0  0  0  0  0  0  0
  -27.3320   -7.7610   19.6600 C   0  0  0  0  0  2  0  0  0  0  0  0
  -28.1350   -9.2440   17.5040 C   0  0  0  0  0  0  0  0  0  0  0  0
  -27.3460   -8.9850   18.6490 N   0  0  0  0  0  0  0  0  0  0  0  0
  -28.5700   -8.2770   16.8790 O   0  0  0  0  0  0  0  0  0  0  0  0
  -26.9270   -9.8110   19.0510 H   0  0  0  0  0  0  0  0  0  0  0  0
  -28.6280  -10.7430   16.9800 C   0  0  0  0  0  2  0  0  0  0  0  0
  -30.6370  -12.4780   18.1670 C   0  0  0  0  0  0  0  0  0  0  0  0
  -31.0190  -11.2790   20.0770 C   0  0  0  0  0  2  0  0  0  0  0  0
  -30.1770  -10.1100   19.7020 C   0  0  0  0  0  2  0  0  0  0  0  0
  -28.7850  -10.5690   20.1270 C   0  0  0  0  0  2  0  0  0  0  0  0
  -27.9800  -11.8670   19.6280 C   0  0  0  0  0  3  0  0  0  0  0  0
  -29.0710  -12.8920   19.9700 C   0  0  0  0  0  2  0  0  0  0  0  0
  -30.3330  -12.3950   19.4440 N   0  0  0  0  0  0  0  0  0  0  0  0
  -31.7490  -12.9630   17.9230 O   0  0  0  0  0  0  0  0  0  0  0  0
  -29.9620  -11.5890   17.2680 N   0  0  0  0  0  0  0  0  0  0  0  0
  -30.5320  -11.5350   16.4370 H   0  0  0  0  0  0  0  0  0  0  0  0
  -25.6180  -13.1300   19.8850 C   0  0  0  0  0  0  0  0  0  0  0  0
  -24.4050  -12.7000   20.3930 C   0  0  0  0  0  0  0  0  0  0  0  0
  -24.5540  -11.3320   20.6860 C   0  0  0  0  0  0  0  0  0  0  0  0
  -26.5150  -12.0660   19.9620 N   0  0  0  0  0  0  0  0  0  0  0  0
  -25.7830  -11.0490   20.3940 N   0  0  0  0  0  0  0  0  0  0  0  0
  -23.6340  -10.2660   21.1360 C   0  0  0  0  0  0  0  0  0  0  0  0
  -23.8640   -9.4940   22.2970 C   0  0  0  0  0  3  0  0  0  0  0  0
  -23.0110   -8.4290   22.6550 C   0  0  0  0  0  3  0  0  0  0  0  0
  -21.8290   -8.1980   21.9120 C   0  0  0  0  0  0  0  0  0  0  0  0
  -21.5720   -8.9960   20.7800 C   0  0  0  0  0  3  0  0  0  0  0  0
  -22.4730  -10.0020   20.3850 C   0  0  0  0  0  3  0  0  0  0  0  0
  -20.9050   -7.2240   22.2080 O   0  0  0  0  0  0  0  0  0  0  0  0
  -21.0460   -6.3920   23.2930 C   0  0  0  0  0  0  0  0  0  0  0  0
  -20.9380   -6.8610   24.6210 C   0  0  0  0  0  3  0  0  0  0  0  0
  -21.0200   -5.9560   25.6990 C   0  0  0  0  0  3  0  0  0  0  0  0
  -21.1990   -4.5820   25.4520 C   0  0  0  0  0  0  0  0  0  0  0  0
  -21.2970   -4.1120   24.1310 C   0  0  0  0  0  3  0  0  0  0  0  0
  -21.2160   -5.0130   23.0560 C   0  0  0  0  0  0  0  0  0  0  0  0
  -21.2860   -4.5510   21.7840 F   0  0  0  0  0  0  0  0  0  0  0  0
  -21.2730   -3.7090   26.4840 F   0  0  0  0  0  0  0  0  0  0  0  0
  -23.1210  -13.4510   20.5230 C   0  0  0  0  0  0  0  0  0  0  0  0
  -22.3440  -13.1580   21.5600 N   0  0  0  0  0  0  0  0  0  0  0  0
  -22.8120  -14.3170   19.7090 O   0  0  0  0  0  0  0  0  0  0  0  0
  -22.6010  -12.4450   22.2260 H   0  0  0  0  0  0  0  0  0  0  0  0
  -21.4670  -13.6440   21.6840 H   0  0  0  0  0  0  0  0  0  0  0  0
  -26.0280  -14.3340   19.3430 N   0  0  0  0  0  0  0  0  0  0  0  0
  -25.3660  -15.0970   19.2590 H   0  0  0  0  0  0  0  0  0  0  0  0
  -26.9090  -14.5140   18.8870 H   0  0  0  0  0  0  0  0  0  0  0  0
  1  3  2  0
  2  1  1  0
  4  2  1  0
  5  2  1  0
  6  5  1  0
  7  9  1  0
  7  6  1  0
  8  6  2  0
 10  7  1  0
 11 10  1  0
 12 11  2  0
 13 12  1  0
 14 13  2  0
 15 14  1  0
 16 15  1  0
 17 27  1  0
 18 16  1  0
 19 26  1  0
 19 29  1  0
 19 27  1  0
 20 25  2  0
 20 22  1  0
 21 22  1  0
 22 23  2  0
 23 18  1  0
 24 18  2  0
 25 24  1  0
 26 20  1  0
 27 21  1  0
 28 17  2  0
 29 31  2  0
 30 29  1  0
 32 30  1  0
 33 38  1  0
 33 37  1  0
 34 30  1  0
 34 35  1  0
 36 35  1  0
 37 36  1  0
 38 34  1  0
 39 38  2  0
 40 39  1  0
 41 40  2  0
 41 42  1  0
 42 33  2  0
 43 17  1  0
 43 53  1  0
 44 43  1  0
 45 46  2  0
 45 44  1  0
 47 44  1  0
 49 48  1  0
 49 51  1  0
 49 45  1  0
 51 50  1  0
 52 51  1  0
 53 56  1  1
 53 55  1  0
 54 53  1  0
 57  1  1  0
 58 60  2  0
 58 59  1  0
 59 57  1  0
 61 59  1  0
 62 58  1  0
 63 64  1  0
 64 66  1  0
 64 62  1  0
 65 63  2  0
 67 76  1  0
 67 63  1  0
 68 74  1  0
 70 69  1  0
 70 71  1  0
 72 81  1  0
 72 73  1  0
 72 71  1  0
 74 73  1  0
 74 69  1  0
 75 68  2  0
 76 68  1  0
 77 76  1  0
 78 81  1  0
 78 79  2  0
 79 98  1  0
 79 80  1  0
 80 83  1  0
 81 82  1  0
 82 80  2  0
 83 84  1  0
 84 85  2  0
 86 89  1  0
 86 85  1  0
 87 86  2  0
 88 87  1  0
 88 83  2  0
 89 90  1  0
 90 91  1  0
 91 92  2  0
 93 92  1  0
 93 97  1  0
 94 93  2  0
 95 90  2  0
 95 94  1  0
 96 95  1  0
 98 99  1  0
 99102  1  0
 99101  1  0
100 98  2  0
103 78  1  0
104103  1  0
105103  1  0
M  ISO  4  15 101  16 101  68 100  76 100
M  END
>  <TORSDO>  (87) 
F 29

>  <SCORE>  (87) 
3.938

>  <name>  (87) 
96

>  <ligand_id>  (87) 
96

>  <original_smiles>  (87) 
[H]c1c([H])c([H])c2c(c1[H])C([H])([H])C([H])([H])C([H])([H])C2([H])N([H])C(=O)C1([H])N(C(=O)C([H])(N([H])C(=O)C([H])(N([H])C([H])([H])[H])C([H])([H])[H])C(C([H])([H])[H])(C([H])([H])[H])C([H])([H])[H])C([H])([H])c2c([H])c(OC([H])([H])C([H])([H])C([H])([H])C([H])([H])C([H])([H])C([H])([H])N([H])C(=O)C([H])([H])N([H])C(=O)C([H])([H])N([H])C(=O)C([H])([H])N([H])C(=O)C([H])([H])N([H])C(=O)N3C([H])([H])C([H])([H])C([H])([H])C([H])(n4nc(-c5c([H])c([H])c(Oc6c([H])c([H])c(F)c([H])c6F)c([H])c5[H])c(C(=O)N([H])[H])c4N([H])[H])C3([H])[H])c([H])c([H])c2C1([H])[H]

>  <smiles>  (87) 
[H]c1c([H])c([H])c2c(c1[H])C([H])([H])C([H])([H])C([H])([H])C2([H])N([H])C(=O)C1([H])N(C(=O)C([H])(N([H])C(=O)C([H])(N([H])C([H])([H])[H])C([H])([H])[H])C(C([H])([H])[H])(C([H])([H])[H])C([H])([H])[H])C([H])([H])c2c([H])c(OC([H])([H])C([H])([H])C([H])([H])C([H])([H])C([H])([H])C([H])([H])N([H])C(=O)C([H])([H])N([H])C(=O)C([H])([H])N([H])C(=O)C([H])([H])N([H])C(=O)C([H])([H])N([H])C(=O)N3C([H])([H])C([H])([H])C([H])([H])C([H])(n4nc(-c5c([H])c([H])c(Oc6c([H])c([H])c(F)c([H])c6F)c([H])c5[H])c(C(=O)N([H])[H])c4N([H])[H])C3([H])[H])c([H])c([H])c2C1([H])[H]

$$$$
97:0:0
     RDKit          3D

104111  0  0  1  0  0  0  0  0999 V2000
  -30.5010  -24.0780   17.7610 C   0  0  0  0  0  0  0  0  0  0  0  0
  -30.1780  -25.3770   17.6930 N   0  0  0  0  0  0  0  0  0  0  0  0
  -31.3920  -23.5770   17.0690 O   0  0  0  0  0  0  0  0  0  0  0  0
  -29.3790  -25.6820   18.2360 H   0  0  0  0  0  0  0  0  0  0  0  0
  -29.6980  -23.2030   18.7280 C   0  0  0  0  0  2  0  0  0  0  0  0
  -30.1550  -20.8510   19.4180 C   0  0  0  0  0  0  0  0  0  0  0  0
  -30.0000  -21.7950   18.4900 N   0  0  0  0  0  0  0  0  0  0  0  0
  -29.9970  -21.0700   20.6220 O   0  0  0  0  0  0  0  0  0  0  0  0
  -30.2260  -21.5580   17.5310 H   0  0  0  0  0  0  0  0  0  0  0  0
  -30.5490  -19.4620   18.9050 C   0  0  0  0  0  2  0  0  0  0  0  0
  -30.0530  -17.4870   20.3400 C   0  0  0  0  0  0  0  0  0  0  0  0
  -30.8090  -18.5330   20.0040 N   0  0  0  0  0  0  0  0  0  0  0  0
  -29.0350  -17.1690   19.7220 O   0  0  0  0  0  0  0  0  0  0  0  0
  -31.5830  -18.7690   20.6090 H   0  0  0  0  0  0  0  0  0  0  0  0
  -30.5050  -16.6700   21.5580 C   0  0  0  0  0  2  0  0  0  0  0  0
  -30.7020  -14.4000   20.5680 C   0  0  0  0  0  0  0  0  0  0  0  0
  -30.3760  -12.3100   19.2980 C   0  0  0  0  0  2  0  0  0  0  0  0
  -29.4330  -12.5470   18.1040 C   0  0  0  0  0  2  0  0  0  0  0  0
  -27.9600  -12.3980   18.5270 C   0  0  0  0  0  2  0  0  0  0  0  0
  -27.6240  -13.2190   19.8010 C   0  0  0  0  0  3  0  0  0  0  0  0
  -28.6680  -12.9470   20.9080 C   0  0  0  0  0  2  0  0  0  0  0  0
  -30.0080  -13.2490   20.3690 N   0  0  0  0  0  0  0  0  0  0  0  0
  -31.7500  -14.6740   19.9760 O   0  0  0  0  0  0  0  0  0  0  0  0
  -30.1380  -15.2600   21.4270 N   0  0  0  0  0  0  0  0  0  0  0  0
  -29.2840  -14.9660   21.8760 H   0  0  0  0  0  0  0  0  0  0  0  0
  -25.2170  -13.8320   20.4840 C   0  0  0  0  0  0  0  0  0  0  0  0
  -24.1480  -13.0600   20.8530 C   0  0  0  0  0  0  0  0  0  0  0  0
  -24.6120  -11.7090   20.8390 C   0  0  0  0  0  0  0  0  0  0  0  0
  -26.2660  -12.9500   20.2680 N   0  0  0  0  0  0  0  0  0  0  0  0
  -25.9020  -11.6700   20.5400 N   0  0  0  0  0  0  0  0  0  0  0  0
  -23.8910  -10.4460   21.0380 C   0  0  0  0  0  0  0  0  0  0  0  0
  -24.3320   -9.4840   21.9710 C   0  0  0  0  0  3  0  0  0  0  0  0
  -23.6130   -8.2840   22.1570 C   0  0  0  0  0  3  0  0  0  0  0  0
  -22.4380   -8.0380   21.4080 C   0  0  0  0  0  0  0  0  0  0  0  0
  -22.0170   -8.9890   20.4630 C   0  0  0  0  0  3  0  0  0  0  0  0
  -22.7360  -10.1800   20.2760 C   0  0  0  0  0  3  0  0  0  0  0  0
  -21.6890   -6.8900   21.5030 O   0  0  0  0  0  0  0  0  0  0  0  0
  -21.6610   -6.1420   22.6510 C   0  0  0  0  0  0  0  0  0  0  0  0
  -21.2540   -6.6890   23.8870 C   0  0  0  0  0  3  0  0  0  0  0  0
  -21.1740   -5.8670   25.0280 C   0  0  0  0  0  3  0  0  0  0  0  0
  -21.4870   -4.4980   24.9330 C   0  0  0  0  0  0  0  0  0  0  0  0
  -21.8860   -3.9500   23.7030 C   0  0  0  0  0  3  0  0  0  0  0  0
  -21.9690   -4.7700   22.5640 C   0  0  0  0  0  0  0  0  0  0  0  0
  -22.3340   -4.2320   21.3750 F   0  0  0  0  0  0  0  0  0  0  0  0
  -21.4020   -3.7050   26.0290 F   0  0  0  0  0  0  0  0  0  0  0  0
  -22.7460  -13.5340   21.1100 C   0  0  0  0  0  0  0  0  0  0  0  0
  -22.0140  -12.8450   21.9790 N   0  0  0  0  0  0  0  0  0  0  0  0
  -22.3060  -14.5510   20.5730 O   0  0  0  0  0  0  0  0  0  0  0  0
  -22.3840  -12.0260   22.4400 H   0  0  0  0  0  0  0  0  0  0  0  0
  -21.0730  -13.1460   22.1900 H   0  0  0  0  0  0  0  0  0  0  0  0
  -25.3760  -15.2010   20.2960 N   0  0  0  0  0  0  0  0  0  0  0  0
  -24.6090  -15.8550   20.4080 H   0  0  0  0  0  0  0  0  0  0  0  0
  -26.2250  -15.6420   19.9600 H   0  0  0  0  0  0  0  0  0  0  0  0
  -30.6820  -26.3060   16.6800 C   0  0  0  0  0  2  0  0  0  0  0  0
  -32.1800  -26.6600   16.8300 C   0  0  0  0  0  2  0  0  0  0  0  0
  -32.4980  -27.6670   17.9550 C   0  0  0  0  0  2  0  0  0  0  0  0
  -33.2530  -27.0830   19.1730 C   0  0  0  0  0  2  0  0  0  0  0  0
  -32.6180  -27.4910   20.5100 C   0  0  0  0  0  2  0  0  0  0  0  0
  -31.3720  -26.7290   20.7070 N   0  0  0  0  0  4  0  0  0  0  0  0
  -31.6060  -25.8220   21.0800 H   0  0  0  0  0  0  0  0  0  0  0  0
  -30.9630  -26.5970   19.7960 H   0  0  0  0  0  0  0  0  0  0  0  0
  -30.3560  -27.3740   21.5590 C   0  0  0  0  0  2  0  0  0  0  0  0
  -29.0470  -26.5700   21.5190 C   0  0  0  0  0  2  0  0  0  0  0  0
  -28.4420  -26.6560   20.2180 O   0  0  0  0  0  0  0  0  0  0  0  0
  -24.5960  -31.8220   23.1870 C   0  0  0  0  0  0  0  0  0  0  0  0
  -27.2950  -27.4160   20.1680 C   0  0  0  0  0  0  0  0  0  0  0  0
  -23.4050  -30.4140   21.5340 C   0  0  0  0  0  3  0  0  0  0  0  0
  -24.8790  -28.8790   20.1230 C   0  0  0  0  0  0  0  0  0  0  0  0
  -25.9220  -30.7980   21.3480 C   0  0  0  0  0  2  0  0  0  0  0  0
  -26.0200  -29.4260   20.7210 C   0  0  0  0  0  0  0  0  0  0  0  0
  -27.2260  -28.7030   20.7430 C   0  0  0  0  0  3  0  0  0  0  0  0
  -26.1480  -26.8810   19.5470 C   0  0  0  0  0  3  0  0  0  0  0  0
  -24.9360  -27.6040   19.5290 C   0  0  0  0  0  3  0  0  0  0  0  0
  -23.6250  -29.7230   20.1580 C   0  0  0  0  0  2  0  0  0  0  0  0
  -24.6580  -31.0250   22.0820 N   0  0  0  0  0  0  0  0  0  0  0  0
  -23.5100  -32.0910   23.7210 O   0  0  0  0  0  0  0  0  0  0  0  0
  -22.7510  -29.3940   22.4930 C   0  0  0  0  0  0  0  0  0  0  0  0
  -21.4240  -29.2300   22.3740 N   0  0  0  0  0  0  0  0  0  0  0  0
  -23.4330  -28.7540   23.2970 O   0  0  0  0  0  0  0  0  0  0  0  0
  -20.9360  -29.8010   21.6970 H   0  0  0  0  0  0  0  0  0  0  0  0
  -18.0330  -28.1070   22.9020 C   0  0  0  0  0  0  0  0  0  0  0  0
  -20.5990  -28.2970   23.1410 C   0  0  0  0  0  3  0  0  0  0  0  0
  -20.6590  -26.8760   22.5380 C   0  0  0  0  0  2  0  0  0  0  0  0
  -19.5340  -26.5980   21.5340 C   0  0  0  0  0  2  0  0  0  0  0  0
  -18.1660  -26.7670   22.2010 C   0  0  0  0  0  2  0  0  0  0  0  0
  -19.1760  -28.8340   23.3280 C   0  0  0  0  0  0  0  0  0  0  0  0
  -18.9970  -30.0930   23.9420 C   0  0  0  0  0  3  0  0  0  0  0  0
  -17.7080  -30.6230   24.1360 C   0  0  0  0  0  3  0  0  0  0  0  0
  -16.5790  -29.8920   23.7250 C   0  0  0  0  0  3  0  0  0  0  0  0
  -16.7440  -28.6360   23.1150 C   0  0  0  0  0  3  0  0  0  0  0  0
  -25.8780  -32.4540   23.8160 C   0  0  0  0  0  3  0  0  0  0  0  0
  -25.5600  -33.8450   24.1590 N   0  0  0  0  0  0  0  0  0  0  0  0
  -25.8910  -34.9060   23.4090 C   0  0  0  0  0  0  0  0  0  0  0  0
  -26.5660  -34.8150   22.3800 O   0  0  0  0  0  0  0  0  0  0  0  0
  -24.9600  -33.9900   24.9580 H   0  0  0  0  0  0  0  0  0  0  0  0
  -24.1560  -36.6930   23.0620 C   0  0  0  0  0  1  0  0  0  0  0  0
  -25.3930  -36.2880   23.8770 C   0  0  0  0  0  3  0  0  0  0  0  0
  -27.5200  -37.1740   24.7280 C   0  0  0  0  0  1  0  0  0  0  0  0
  -26.4220  -37.3450   23.7800 N   0  0  0  0  0  0  0  0  0  0  0  0
  -26.0100  -38.2620   23.9340 H   0  0  0  0  0  0  0  0  0  0  0  0
  -26.4030  -31.6720   25.0830 C   0  0  1  0  0  0  0  0  0  0  0  0
  -25.3160  -31.4200   26.1510 C   0  0  0  0  0  1  0  0  0  0  0  0
  -26.9930  -30.3030   24.6730 C   0  0  0  0  0  1  0  0  0  0  0  0
  -27.5510  -32.4680   25.7480 C   0  0  0  0  0  1  0  0  0  0  0  0
  1  5  1  0
  2  1  1  0
  2  4  1  0
  3  1  2  0
  6  8  2  0
  7  5  1  0
  7  6  1  0
  9  7  1  0
 10  6  1  0
 10 12  1  0
 11 15  1  0
 12 11  1  0
 12 14  1  0
 13 11  2  0
 16 24  1  0
 17 22  1  0
 18 19  1  0
 18 17  1  0
 20 19  1  0
 20 29  1  0
 20 21  1  0
 22 16  1  0
 22 21  1  0
 23 16  2  0
 24 15  1  0
 24 25  1  0
 26 27  2  0
 27 46  1  0
 28 27  1  0
 28 31  1  0
 29 26  1  0
 29 30  1  0
 30 28  2  0
 31 32  1  0
 32 33  2  0
 34 37  1  0
 34 33  1  0
 35 34  2  0
 36 35  1  0
 36 31  2  0
 37 38  1  0
 38 39  1  0
 39 40  2  0
 41 40  1  0
 41 45  1  0
 42 41  2  0
 43 38  2  0
 43 42  1  0
 44 43  1  0
 46 47  1  0
 47 50  1  0
 47 49  1  0
 48 46  2  0
 51 52  1  0
 51 26  1  0
 53 51  1  0
 54 55  1  0
 54  2  1  0
 55 56  1  0
 56 57  1  0
 57 58  1  0
 58 59  1  0
 59 60  1  0
 59 62  1  0
 61 59  1  0
 63 62  1  0
 64 63  1  0
 65 76  2  0
 66 64  1  0
 66 71  1  0
 67 75  1  0
 67 77  1  0
 68 74  1  0
 68 70  1  0
 69 75  1  0
 70 71  2  0
 70 69  1  0
 72 66  2  0
 73 72  1  0
 73 68  2  0
 74 67  1  0
 75 65  1  0
 77 79  2  0
 78 77  1  0
 80 78  1  0
 81 90  2  0
 81 86  1  0
 82 78  1  0
 82 86  1  0
 83 82  1  0
 84 85  1  0
 84 83  1  0
 85 81  1  0
 86 87  2  0
 87 88  1  0
 89 88  2  0
 90 89  1  0
 91 65  1  0
 91 92  1  0
 91101  1  0
 92 95  1  0
 93 97  1  0
 93 92  1  0
 94 93  2  0
 97 96  1  0
 99 97  1  0
 99100  1  0
 99 98  1  0
101104  1  1
101102  1  0
103101  1  0
M  ISO  4  16 100  24 100  63 101  64 101
M  END
>  <TORSDO>  (88) 
F 29

>  <SCORE>  (88) 
-11.313

>  <name>  (88) 
97

>  <ligand_id>  (88) 
97

>  <original_smiles>  (88) 
[H]c1c([H])c([H])c2c(c1[H])C([H])([H])C([H])([H])C([H])([H])C2([H])N([H])C(=O)C1([H])N(C(=O)C([H])(N([H])C(=O)C([H])(N([H])C([H])([H])[H])C([H])([H])[H])C(C([H])([H])[H])(C([H])([H])[H])C([H])([H])[H])C([H])([H])c2c([H])c(OC([H])([H])C([H])([H])[N+]([H])([H])C([H])([H])C([H])([H])C([H])([H])C([H])([H])C([H])([H])N([H])C(=O)C([H])([H])N([H])C(=O)C([H])([H])N([H])C(=O)C([H])([H])N([H])C(=O)N3C([H])([H])C([H])([H])C([H])([H])C([H])(n4nc(-c5c([H])c([H])c(Oc6c([H])c([H])c(F)c([H])c6F)c([H])c5[H])c(C(=O)N([H])[H])c4N([H])[H])C3([H])[H])c([H])c([H])c2C1([H])[H]

>  <smiles>  (88) 
[H]c1c([H])c([H])c2c(c1[H])C([H])([H])C([H])([H])C([H])([H])C2([H])N([H])C(=O)C1([H])N(C(=O)C([H])(N([H])C(=O)C([H])(N([H])C([H])([H])[H])C([H])([H])[H])C(C([H])([H])[H])(C([H])([H])[H])C([H])([H])[H])C([H])([H])c2c([H])c(OC([H])([H])C([H])([H])[N+]([H])([H])C([H])([H])C([H])([H])C([H])([H])C([H])([H])C([H])([H])N([H])C(=O)C([H])([H])N([H])C(=O)C([H])([H])N([H])C(=O)C([H])([H])N([H])C(=O)N3C([H])([H])C([H])([H])C([H])([H])C([H])(n4nc(-c5c([H])c([H])c(Oc6c([H])c([H])c(F)c([H])c6F)c([H])c5[H])c(C(=O)N([H])[H])c4N([H])[H])C3([H])[H])c([H])c([H])c2C1([H])[H]

$$$$
98:0:0
     RDKit          3D

106113  0  0  1  0  0  0  0  0999 V2000
  -22.6170  -28.1000   25.3410 C   0  0  0  0  0  2  0  0  0  0  0  0
  -22.0190  -29.7500   25.0900 C   0  0  0  0  0  0  0  0  0  0  0  0
  -21.4910  -30.6230   23.9890 N   0  0  0  0  0  0  0  0  0  0  0  0
  -22.0470  -30.3710   26.1500 O   0  0  0  0  0  0  0  0  0  0  0  0
  -21.4450  -31.5410   24.4120 H   0  0  0  0  0  0  0  0  0  0  0  0
  -20.9150  -30.8100   22.3880 C   0  0  0  0  0  3  0  0  0  0  0  0
  -21.0930  -29.9480   20.7620 C   0  0  0  0  0  3  0  0  0  0  0  0
  -22.9660  -27.5380   20.0020 C   0  0  0  0  0  0  0  0  0  0  0  0
  -21.9080  -28.5970   20.0820 N   0  0  0  0  0  0  0  0  0  0  0  0
  -22.7500  -26.8030   19.0400 O   0  0  0  0  0  0  0  0  0  0  0  0
  -21.3620  -28.3870   19.2520 H   0  0  0  0  0  0  0  0  0  0  0  0
  -24.4060  -27.0110   20.8610 C   0  0  0  0  0  2  0  0  0  0  0  0
  -25.9540  -26.7050   20.4140 O   0  0  0  0  0  0  0  0  0  0  0  0
  -24.8560  -32.0220   23.3980 C   0  0  0  0  0  0  0  0  0  0  0  0
  -26.7810  -27.6400   19.8950 C   0  0  0  0  0  3  0  0  0  0  0  0
  -23.6900  -30.6740   21.6610 C   0  0  0  0  0  3  0  0  0  0  0  0
  -25.0660  -29.6890   19.8000 C   0  0  0  0  0  3  0  0  0  0  0  0
  -26.1830  -31.0060   21.5750 C   0  0  0  0  0  2  0  0  0  0  0  0
  -26.1320  -29.7950   20.6750 C   0  0  0  0  0  0  0  0  0  0  0  0
  -27.0660  -28.7570   20.7090 C   0  0  0  0  0  3  0  0  0  0  0  0
  -26.0880  -27.7820   18.7190 C   0  0  0  0  0  3  0  0  0  0  0  0
  -25.1060  -28.7760   18.7270 C   0  0  0  0  0  3  0  0  0  0  0  0
  -23.9360  -30.5910   20.1120 C   0  0  0  0  0  2  0  0  0  0  0  0
  -24.9080  -31.2810   22.2570 N   0  0  0  0  0  0  0  0  0  0  0  0
  -23.7900  -32.3480   23.9310 O   0  0  0  0  0  0  0  0  0  0  0  0
  -23.3000  -29.3430   22.5280 C   0  0  0  0  0  0  0  0  0  0  0  0
  -22.0680  -28.5790   22.5590 N   0  0  0  0  0  0  0  0  0  0  0  0
  -24.1620  -29.0570   23.3170 O   0  0  0  0  0  0  0  0  0  0  0  0
  -21.8300  -28.5980   21.5660 H   0  0  0  0  0  0  0  0  0  0  0  0
  -18.0130  -28.4930   22.7820 C   0  0  0  0  0  0  0  0  0  0  0  0
  -20.6450  -28.1790   23.1940 C   0  0  0  0  0  3  0  0  0  0  0  0
  -20.4310  -26.8660   22.4620 C   0  0  0  0  0  2  0  0  0  0  0  0
  -19.3810  -26.9170   21.3700 C   0  0  0  0  0  2  0  0  0  0  0  0
  -18.0230  -27.2210   21.9710 C   0  0  0  0  0  2  0  0  0  0  0  0
  -19.2080  -28.9840   23.3860 C   0  0  0  0  0  0  0  0  0  0  0  0
  -18.9200  -30.0810   24.2890 C   0  0  0  0  0  3  0  0  0  0  0  0
  -17.7120  -30.7990   24.3500 C   0  0  0  0  0  3  0  0  0  0  0  0
  -16.5980  -30.2970   23.6860 C   0  0  0  0  0  3  0  0  0  0  0  0
  -16.7480  -29.1130   22.9510 C   0  0  0  0  0  3  0  0  0  0  0  0
  -26.1660  -32.5230   24.0590 C   0  0  0  0  0  3  0  0  0  0  0  0
  -25.9130  -33.8870   24.5370 N   0  0  0  0  0  0  0  0  0  0  0  0
  -26.2290  -34.9950   23.8550 C   0  0  0  0  0  0  0  0  0  0  0  0
  -26.8430  -34.9680   22.7850 O   0  0  0  0  0  0  0  0  0  0  0  0
  -25.3730  -33.9790   25.3840 H   0  0  0  0  0  0  0  0  0  0  0  0
  -24.5560  -36.8660   23.7450 C   0  0  0  0  0  1  0  0  0  0  0  0
  -25.8090  -36.3450   24.4650 C   0  0  0  0  0  3  0  0  0  0  0  0
  -28.0100  -37.0490   25.2840 C   0  0  0  0  0  1  0  0  0  0  0  0
  -26.8790  -37.3630   24.4160 N   0  0  0  0  0  0  0  0  0  0  0  0
  -26.5230  -38.2770   24.6820 H   0  0  0  0  0  0  0  0  0  0  0  0
  -26.6570  -31.5920   25.2330 C   0  0  1  0  0  0  0  0  0  0  0  0
  -25.5760  -31.2940   26.2970 C   0  0  0  0  0  1  0  0  0  0  0  0
  -27.1740  -30.2270   24.7180 C   0  0  0  0  0  1  0  0  0  0  0  0
  -27.8550  -32.2620   25.9390 C   0  0  0  0  0  1  0  0  0  0  0  0
  -23.6420  -25.5720   24.3180 C   0  0  0  0  0  0  0  0  0  0  0  0
  -23.5340  -26.9850   24.5670 N   0  0  0  0  0  0  0  0  0  0  0  0
  -22.6920  -24.8640   24.6520 O   0  0  0  0  0  0  0  0  0  0  0  0
  -24.2830  -27.5100   24.1230 H   0  0  0  0  0  0  0  0  0  0  0  0
  -24.9710  -24.7520   23.6570 C   0  0  0  0  0  2  0  0  0  0  0  0
  -26.2540  -22.4740   22.6360 C   0  0  0  0  0  0  0  0  0  0  0  0
  -25.1240  -23.2420   23.1020 N   0  0  0  0  0  0  0  0  0  0  0  0
  -27.3550  -23.0200   22.7060 O   0  0  0  0  0  0  0  0  0  0  0  0
  -24.2420  -22.7470   23.0600 H   0  0  0  0  0  0  0  0  0  0  0  0
  -26.2910  -20.9120   21.9900 C   0  0  0  0  0  2  0  0  0  0  0  0
  -27.7030  -18.7140   20.9500 C   0  0  0  0  0  0  0  0  0  0  0  0
  -27.5570  -20.0560   21.4610 N   0  0  0  0  0  0  0  0  0  0  0  0
  -26.6770  -18.0400   20.8920 O   0  0  0  0  0  0  0  0  0  0  0  0
  -28.4180  -20.5860   21.4970 H   0  0  0  0  0  0  0  0  0  0  0  0
  -29.0880  -17.9170   20.3910 C   0  0  0  0  0  2  0  0  0  0  0  0
  -30.1660  -15.4510   19.3500 C   0  0  0  0  0  0  0  0  0  0  0  0
  -30.2810  -13.1690   18.1320 C   0  0  0  0  0  2  0  0  0  0  0  0
  -29.2270  -13.0690   16.9950 C   0  0  0  0  0  2  0  0  0  0  0  0
  -27.8270  -12.7410   17.5540 C   0  0  0  0  0  2  0  0  0  0  0  0
  -27.5030  -13.5920   18.8050 C   0  0  0  0  0  3  0  0  0  0  0  0
  -28.6380  -13.5210   19.8380 C   0  0  0  0  0  2  0  0  0  0  0  0
  -29.7920  -14.1190   19.1860 N   0  0  0  0  0  0  0  0  0  0  0  0
  -31.2550  -15.7660   18.8320 O   0  0  0  0  0  0  0  0  0  0  0  0
  -29.2320  -16.3590   19.9960 N   0  0  0  0  0  0  0  0  0  0  0  0
  -28.4090  -15.8590   20.2980 H   0  0  0  0  0  0  0  0  0  0  0  0
  -25.2170  -14.0760   19.8230 C   0  0  0  0  0  0  0  0  0  0  0  0
  -24.2360  -13.2530   20.2960 C   0  0  0  0  0  0  0  0  0  0  0  0
  -24.7370  -11.9220   20.1560 C   0  0  0  0  0  0  0  0  0  0  0  0
  -26.2410  -13.2390   19.4190 N   0  0  0  0  0  0  0  0  0  0  0  0
  -25.9740  -11.9380   19.6820 N   0  0  0  0  0  0  0  0  0  0  0  0
  -24.0850  -10.6290   20.3850 C   0  0  0  0  0  0  0  0  0  0  0  0
  -24.6910   -9.6260   21.1730 C   0  0  0  0  0  3  0  0  0  0  0  0
  -24.0340   -8.3970   21.3920 C   0  0  0  0  0  3  0  0  0  0  0  0
  -22.7590   -8.1650   20.8240 C   0  0  0  0  0  0  0  0  0  0  0  0
  -22.1720   -9.1590   20.0210 C   0  0  0  0  0  3  0  0  0  0  0  0
  -22.8300  -10.3790   19.8000 C   0  0  0  0  0  3  0  0  0  0  0  0
  -22.0570   -6.9920   20.9610 O   0  0  0  0  0  0  0  0  0  0  0  0
  -22.2460   -6.1610   22.0350 C   0  0  0  0  0  0  0  0  0  0  0  0
  -22.1100   -6.6200   23.3640 C   0  0  0  0  0  3  0  0  0  0  0  0
  -22.2470   -5.7160   24.4370 C   0  0  0  0  0  3  0  0  0  0  0  0
  -22.5090   -4.3570   24.1850 C   0  0  0  0  0  0  0  0  0  0  0  0
  -22.6380   -3.8970   22.8630 C   0  0  0  0  0  3  0  0  0  0  0  0
  -22.5060   -4.7980   21.7900 C   0  0  0  0  0  0  0  0  0  0  0  0
  -22.6120   -4.3470   20.5170 F   0  0  0  0  0  0  0  0  0  0  0  0
  -22.6310   -3.4870   25.2150 F   0  0  0  0  0  0  0  0  0  0  0  0
  -22.8730  -13.6710   20.7610 C   0  0  0  0  0  0  0  0  0  0  0  0
  -22.2840  -12.9230   21.6860 N   0  0  0  0  0  0  0  0  0  0  0  0
  -22.3430  -14.6970   20.3370 O   0  0  0  0  0  0  0  0  0  0  0  0
  -22.7300  -12.0930   22.0510 H   0  0  0  0  0  0  0  0  0  0  0  0
  -21.3750  -13.1860   22.0400 H   0  0  0  0  0  0  0  0  0  0  0  0
  -25.3190  -15.4570   19.6830 N   0  0  0  0  0  0  0  0  0  0  0  0
  -24.5840  -16.0850   19.9870 H   0  0  0  0  0  0  0  0  0  0  0  0
  -26.1230  -15.9520   19.3210 H   0  0  0  0  0  0  0  0  0  0  0  0
  2  1  1  0
  2  4  2  0
  3  5  1  0
  3  2  1  0
  6  3  1  0
  7  6  2  0
  8  9  1  0
  8 12  1  0
  9  7  1  0
 10  8  2  0
 11  9  1  0
 13 12  1  0
 14 25  2  0
 15 13  1  0
 15 20  1  0
 16 24  1  0
 16 26  1  0
 17 22  1  0
 17 23  1  0
 17 19  1  0
 18 24  1  0
 19 20  2  0
 19 18  1  0
 21 22  2  0
 21 15  1  0
 23 16  1  0
 24 14  1  0
 26 27  1  0
 26 28  2  0
 29 27  1  0
 30 39  2  0
 30 35  1  0
 31 27  1  0
 31 35  1  0
 32 31  1  0
 33 34  1  0
 33 32  1  0
 34 30  1  0
 35 36  2  0
 36 37  1  0
 38 37  2  0
 39 38  1  0
 40 14  1  0
 40 41  1  0
 40 50  1  0
 41 44  1  0
 42 46  1  0
 42 41  1  0
 43 42  2  0
 46 45  1  0
 48 46  1  0
 48 49  1  0
 48 47  1  0
 50 53  1  1
 50 51  1  0
 52 50  1  0
 54 55  1  0
 54 56  2  0
 55  1  1  0
 57 55  1  0
 58 54  1  0
 59 61  2  0
 59 60  1  0
 60 58  1  0
 62 60  1  0
 63 59  1  0
 64 65  1  0
 65 67  1  0
 65 63  1  0
 66 64  2  0
 68 64  1  0
 69 77  1  0
 70 75  1  0
 71 72  1  0
 71 70  1  0
 73 72  1  0
 73 82  1  0
 73 74  1  0
 75 69  1  0
 75 74  1  0
 76 69  2  0
 77 78  1  0
 77 68  1  0
 79 80  2  0
 80 99  1  0
 81 80  1  0
 81 84  1  0
 82 83  1  0
 82 79  1  0
 83 81  2  0
 84 85  1  0
 85 86  2  0
 87 90  1  0
 87 86  1  0
 88 87  2  0
 89 88  1  0
 89 84  2  0
 90 91  1  0
 91 92  1  0
 92 93  2  0
 94 93  1  0
 94 98  1  0
 95 94  2  0
 96 91  2  0
 96 95  1  0
 97 96  1  0
 99100  1  0
100103  1  0
100102  1  0
101 99  2  0
104 79  1  0
104105  1  0
106104  1  0
M  ISO  4  12 101  13 101  69 100  77 100
M  END
>  <TORSDO>  (89) 
F 27

>  <SCORE>  (89) 
14.827

>  <name>  (89) 
98

>  <ligand_id>  (89) 
98

>  <original_smiles>  (89) 
[H]c1c([H])c([H])c2c(c1[H])C([H])([H])C([H])([H])C([H])([H])C2([H])N([H])C(=O)C1([H])N(C(=O)C([H])(N([H])C(=O)C([H])(N([H])C([H])([H])[H])C([H])([H])[H])C(C([H])([H])[H])(C([H])([H])[H])C([H])([H])[H])C([H])([H])c2c([H])c(OC([H])([H])C(=O)N([H])C([H])([H])C([H])([H])N([H])C(=O)C([H])([H])N([H])C(=O)C([H])([H])N([H])C(=O)C([H])([H])N([H])C(=O)C([H])([H])N([H])C(=O)N3C([H])([H])C([H])([H])C([H])([H])C([H])(n4nc(-c5c([H])c([H])c(Oc6c([H])c([H])c(F)c([H])c6F)c([H])c5[H])c(C(=O)N([H])[H])c4N([H])[H])C3([H])[H])c([H])c([H])c2C1([H])[H]

>  <smiles>  (89) 
[H]c1c([H])c([H])c2c(c1[H])C([H])([H])C([H])([H])C([H])([H])C2([H])N([H])C(=O)C1([H])N(C(=O)C([H])(N([H])C(=O)C([H])(N([H])C([H])([H])[H])C([H])([H])[H])C(C([H])([H])[H])(C([H])([H])[H])C([H])([H])[H])C([H])([H])c2c([H])c(OC([H])([H])C(=O)N([H])C([H])([H])C([H])([H])N([H])C(=O)C([H])([H])N([H])C(=O)C([H])([H])N([H])C(=O)C([H])([H])N([H])C(=O)C([H])([H])N([H])C(=O)N3C([H])([H])C([H])([H])C([H])([H])C([H])(n4nc(-c5c([H])c([H])c(Oc6c([H])c([H])c(F)c([H])c6F)c([H])c5[H])c(C(=O)N([H])[H])c4N([H])[H])C3([H])[H])c([H])c([H])c2C1([H])[H]

$$$$
99:0:0
     RDKit          3D

 99106  0  0  1  0  0  0  0  0999 V2000
  -31.6630  -17.9290   22.7510 C   0  0  0  0  0  0  0  0  0  0  0  0
  -31.4220  -17.0720   23.7520 N   0  0  0  0  0  0  0  0  0  0  0  0
  -32.7180  -17.9340   22.1140 O   0  0  0  0  0  0  0  0  0  0  0  0
  -30.5410  -17.1790   24.2340 H   0  0  0  0  0  0  0  0  0  0  0  0
  -30.5030  -18.8580   22.3780 C   0  0  0  0  0  2  0  0  0  0  0  0
  -30.9530  -20.1770   22.0690 O   0  0  0  0  0  0  0  0  0  0  0  0
  -29.8250  -20.9870   21.7560 C   0  0  0  0  0  2  0  0  0  0  0  0
  -30.1930  -22.2780   21.0110 C   0  0  0  0  0  2  0  0  0  0  0  0
  -28.9120  -23.0810   20.7190 C   0  0  0  0  0  2  0  0  0  0  0  0
  -29.0840  -24.3560   19.8710 C   0  0  0  0  0  2  0  0  0  0  0  0
  -27.7300  -25.0760   19.7040 C   0  0  0  0  0  2  0  0  0  0  0  0
  -27.8510  -26.3890   19.1450 O   0  0  0  0  0  0  0  0  0  0  0  0
  -24.8570  -31.5220   23.0620 C   0  0  0  0  0  0  0  0  0  0  0  0
  -26.7470  -27.1930   19.3390 C   0  0  0  0  0  0  0  0  0  0  0  0
  -23.3470  -30.3370   21.5000 C   0  0  0  0  0  3  0  0  0  0  0  0
  -24.4870  -28.8330   19.7870 C   0  0  0  0  0  0  0  0  0  0  0  0
  -25.8460  -30.5530   20.9900 C   0  0  0  0  0  2  0  0  0  0  0  0
  -25.7480  -29.2380   20.2440 C   0  0  0  0  0  0  0  0  0  0  0  0
  -26.8810  -28.4280   20.0120 C   0  0  0  0  0  3  0  0  0  0  0  0
  -25.4700  -26.8060   18.8730 C   0  0  0  0  0  3  0  0  0  0  0  0
  -24.3410  -27.6150   19.1010 C   0  0  0  0  0  3  0  0  0  0  0  0
  -23.3260  -29.7600   20.0590 C   0  0  0  0  0  2  0  0  0  0  0  0
  -24.7090  -30.8110   21.9080 N   0  0  0  0  0  0  0  0  0  0  0  0
  -23.8800  -31.8160   23.7640 O   0  0  0  0  0  0  0  0  0  0  0  0
  -22.7520  -29.2860   22.4660 C   0  0  0  0  0  0  0  0  0  0  0  0
  -21.4190  -29.1330   22.4370 N   0  0  0  0  0  0  0  0  0  0  0  0
  -23.4860  -28.6120   23.1960 O   0  0  0  0  0  0  0  0  0  0  0  0
  -20.8880  -29.7260   21.8150 H   0  0  0  0  0  0  0  0  0  0  0  0
  -18.0730  -27.9400   23.1100 C   0  0  0  0  0  0  0  0  0  0  0  0
  -20.6430  -28.1790   23.2310 C   0  0  0  0  0  3  0  0  0  0  0  0
  -20.7040  -26.7660   22.6090 C   0  0  0  0  0  2  0  0  0  0  0  0
  -19.5390  -26.4770   21.6550 C   0  0  0  0  0  2  0  0  0  0  0  0
  -18.2000  -26.6110   22.3860 C   0  0  0  0  0  2  0  0  0  0  0  0
  -19.2210  -28.6840   23.4930 C   0  0  0  0  0  0  0  0  0  0  0  0
  -19.0490  -29.9300   24.1320 C   0  0  0  0  0  3  0  0  0  0  0  0
  -17.7600  -30.4350   24.3910 C   0  0  0  0  0  3  0  0  0  0  0  0
  -16.6260  -29.6870   24.0270 C   0  0  0  0  0  3  0  0  0  0  0  0
  -16.7850  -28.4410   23.3910 C   0  0  0  0  0  3  0  0  0  0  0  0
  -26.2590  -32.0140   23.5450 C   0  0  0  0  0  3  0  0  0  0  0  0
  -26.1020  -33.3890   24.0330 N   0  0  0  0  0  0  0  0  0  0  0  0
  -26.4320  -34.4860   23.3370 C   0  0  0  0  0  0  0  0  0  0  0  0
  -26.9760  -34.4390   22.2310 O   0  0  0  0  0  0  0  0  0  0  0  0
  -25.6150  -33.5060   24.9100 H   0  0  0  0  0  0  0  0  0  0  0  0
  -24.8290  -36.4220   23.3280 C   0  0  0  0  0  1  0  0  0  0  0  0
  -26.1030  -35.8520   23.9690 C   0  0  0  0  0  3  0  0  0  0  0  0
  -28.3750  -36.4880   24.6480 C   0  0  0  0  0  1  0  0  0  0  0  0
  -27.2030  -36.8350   23.8490 N   0  0  0  0  0  0  0  0  0  0  0  0
  -26.8890  -37.7600   24.1290 H   0  0  0  0  0  0  0  0  0  0  0  0
  -26.8930  -31.0930   24.6590 C   0  0  1  0  0  0  0  0  0  0  0  0
  -25.9290  -30.7750   25.8250 C   0  0  0  0  0  1  0  0  0  0  0  0
  -27.3580  -29.7480   24.0550 C   0  0  0  0  0  1  0  0  0  0  0  0
  -28.1510  -31.7740   25.2470 C   0  0  0  0  0  1  0  0  0  0  0  0
  -32.1320  -15.8160   23.9720 C   0  0  0  0  0  2  0  0  0  0  0  0
  -31.9530  -14.8560   22.7810 C   0  0  0  0  0  0  0  0  0  0  0  0
  -32.5940  -13.6830   22.8370 N   0  0  0  0  0  0  0  0  0  0  0  0
  -31.2550  -15.1760   21.8120 O   0  0  0  0  0  0  0  0  0  0  0  0
  -33.1100  -13.4660   23.6810 H   0  0  0  0  0  0  0  0  0  0  0  0
  -32.7120  -12.7570   21.7130 C   0  0  0  0  0  2  0  0  0  0  0  0
  -34.0710  -12.9080   21.0060 C   0  0  0  0  0  2  0  0  0  0  0  0
  -34.2190  -14.1170   20.0550 C   0  0  0  0  0  2  0  0  0  0  0  0
  -33.2390  -14.1820   18.8720 C   0  0  0  0  0  2  0  0  0  0  0  0
  -30.8500  -14.3780   18.3470 C   0  0  0  0  0  0  0  0  0  0  0  0
  -30.0540  -12.2400   17.5690 C   0  0  0  0  0  2  0  0  0  0  0  0
  -28.8230  -12.2190   16.6640 C   0  0  0  0  0  2  0  0  0  0  0  0
  -27.5510  -12.1420   17.5140 C   0  0  0  0  0  2  0  0  0  0  0  0
  -27.4960  -13.2440   18.6020 C   0  0  0  0  0  3  0  0  0  0  0  0
  -28.8200  -13.3270   19.4110 C   0  0  0  0  0  2  0  0  0  0  0  0
  -29.9630  -13.3780   18.4880 N   0  0  0  0  0  0  0  0  0  0  0  0
  -31.1260  -14.9220   17.2760 O   0  0  0  0  0  0  0  0  0  0  0  0
  -31.8200  -14.2160   19.2580 N   0  0  0  0  0  0  0  0  0  0  0  0
  -31.5670  -13.6460   20.0520 H   0  0  0  0  0  0  0  0  0  0  0  0
  -25.4890  -13.9860   20.0320 C   0  0  0  0  0  0  0  0  0  0  0  0
  -24.4990  -13.2750   20.6610 C   0  0  0  0  0  0  0  0  0  0  0  0
  -24.7790  -11.9000   20.4120 C   0  0  0  0  0  0  0  0  0  0  0  0
  -26.3230  -13.0420   19.4560 N   0  0  0  0  0  0  0  0  0  0  0  0
  -25.9120  -11.7770   19.7280 N   0  0  0  0  0  0  0  0  0  0  0  0
  -24.0000  -10.6930   20.7330 C   0  0  0  0  0  0  0  0  0  0  0  0
  -24.4500   -9.7630   21.6950 C   0  0  0  0  0  3  0  0  0  0  0  0
  -23.6760   -8.6240   22.0080 C   0  0  0  0  0  3  0  0  0  0  0  0
  -22.4370   -8.4050   21.3580 C   0  0  0  0  0  0  0  0  0  0  0  0
  -22.0070   -9.3210   20.3820 C   0  0  0  0  0  3  0  0  0  0  0  0
  -22.7800  -10.4510   20.0680 C   0  0  0  0  0  3  0  0  0  0  0  0
  -21.6340   -7.3130   21.5790 O   0  0  0  0  0  0  0  0  0  0  0  0
  -21.4350   -6.8090   22.8390 C   0  0  0  0  0  0  0  0  0  0  0  0
  -20.9060   -7.5980   23.8850 C   0  0  0  0  0  3  0  0  0  0  0  0
  -20.6500   -7.0170   25.1450 C   0  0  0  0  0  3  0  0  0  0  0  0
  -20.9170   -5.6540   25.3620 C   0  0  0  0  0  0  0  0  0  0  0  0
  -21.4390   -4.8650   24.3200 C   0  0  0  0  0  3  0  0  0  0  0  0
  -21.6940   -5.4410   23.0640 C   0  0  0  0  0  0  0  0  0  0  0  0
  -22.1750   -4.6700   22.0580 F   0  0  0  0  0  0  0  0  0  0  0  0
  -20.6670   -5.0970   26.5700 F   0  0  0  0  0  0  0  0  0  0  0  0
  -23.3010  -13.8430   21.3680 C   0  0  0  0  0  0  0  0  0  0  0  0
  -22.8170  -13.1610   22.4010 N   0  0  0  0  0  0  0  0  0  0  0  0
  -22.8170  -14.9240   21.0350 O   0  0  0  0  0  0  0  0  0  0  0  0
  -23.2130  -12.2730   22.6750 H   0  0  0  0  0  0  0  0  0  0  0  0
  -22.0330  -13.5290   22.9200 H   0  0  0  0  0  0  0  0  0  0  0  0
  -25.7390  -15.3430   19.8840 N   0  0  0  0  0  0  0  0  0  0  0  0
  -25.1330  -16.0610   20.2670 H   0  0  0  0  0  0  0  0  0  0  0  0
  -26.5120  -15.7200   19.3520 H   0  0  0  0  0  0  0  0  0  0  0  0
  1  2  1  0
  2 53  1  0
  2  4  1  0
  3  1  2  0
  5  1  1  0
  6  5  1  0
  7  6  1  0
  8  7  1  0
  9  8  1  0
 10  9  1  0
 11 10  1  0
 12 14  1  0
 12 11  1  0
 13 24  2  0
 14 19  1  0
 15 23  1  0
 15 25  1  0
 16 22  1  0
 16 18  1  0
 17 23  1  0
 18 17  1  0
 19 18  2  0
 20 21  1  0
 20 14  2  0
 21 16  2  0
 22 15  1  0
 23 13  1  0
 25 27  2  0
 26 25  1  0
 28 26  1  0
 29 38  2  0
 29 34  1  0
 30 26  1  0
 30 34  1  0
 31 30  1  0
 32 33  1  0
 32 31  1  0
 33 29  1  0
 34 35  2  0
 35 36  1  0
 37 36  2  0
 38 37  1  0
 39 13  1  0
 39 40  1  0
 39 49  1  0
 40 43  1  0
 41 45  1  0
 41 40  1  0
 42 41  2  0
 45 44  1  0
 47 45  1  0
 47 48  1  0
 47 46  1  0
 49 52  1  1
 49 50  1  0
 51 49  1  0
 54 55  1  0
 54 53  1  0
 55 57  1  0
 56 54  2  0
 58 55  1  0
 59 58  1  0
 60 59  1  0
 61 70  1  0
 61 60  1  0
 62 68  1  0
 62 70  1  0
 63 68  1  0
 64 65  1  0
 64 63  1  0
 66 65  1  0
 66 67  1  0
 66 75  1  0
 68 67  1  0
 69 62  2  0
 70 71  1  0
 72 73  2  0
 73 92  1  0
 74 73  1  0
 74 77  1  0
 75 76  1  0
 75 72  1  0
 76 74  2  0
 77 78  1  0
 78 79  2  0
 80 83  1  0
 80 79  1  0
 81 80  2  0
 82 81  1  0
 82 77  2  0
 83 84  1  0
 84 89  2  0
 84 85  1  0
 85 86  2  0
 86 87  1  0
 87 91  1  0
 88 87  2  0
 89 88  1  0
 90 89  1  0
 92 93  1  0
 93 95  1  0
 93 96  1  0
 94 92  2  0
 97 72  1  0
 97 98  1  0
 99 97  1  0
M  ISO  4  11 101  12 101  62 100  70 100
M  END
>  <TORSDO>  (90) 
F 29

>  <SCORE>  (90) 
2.870

>  <name>  (90) 
99

>  <ligand_id>  (90) 
99

>  <original_smiles>  (90) 
[H]c1c([H])c([H])c2c(c1[H])C([H])([H])C([H])([H])C([H])([H])C2([H])N([H])C(=O)C1([H])N(C(=O)C([H])(N([H])C(=O)C([H])(N([H])C([H])([H])[H])C([H])([H])[H])C(C([H])([H])[H])(C([H])([H])[H])C([H])([H])[H])C([H])([H])c2c([H])c(OC([H])([H])C([H])([H])C([H])([H])C([H])([H])C([H])([H])OC([H])([H])C(=O)N([H])C([H])([H])C(=O)N([H])C([H])([H])C([H])([H])C([H])([H])C([H])([H])N([H])C(=O)N3C([H])([H])C([H])([H])C([H])([H])C([H])(n4nc(-c5c([H])c([H])c(Oc6c([H])c([H])c(F)c([H])c6F)c([H])c5[H])c(C(=O)N([H])[H])c4N([H])[H])C3([H])[H])c([H])c([H])c2C1([H])[H]

>  <smiles>  (90) 
[H]c1c([H])c([H])c2c(c1[H])C([H])([H])C([H])([H])C([H])([H])C2([H])N([H])C(=O)C1([H])N(C(=O)C([H])(N([H])C(=O)C([H])(N([H])C([H])([H])[H])C([H])([H])[H])C(C([H])([H])[H])(C([H])([H])[H])C([H])([H])[H])C([H])([H])c2c([H])c(OC([H])([H])C([H])([H])C([H])([H])C([H])([H])C([H])([H])OC([H])([H])C(=O)N([H])C([H])([H])C(=O)N([H])C([H])([H])C([H])([H])C([H])([H])C([H])([H])N([H])C(=O)N3C([H])([H])C([H])([H])C([H])([H])C([H])(n4nc(-c5c([H])c([H])c(Oc6c([H])c([H])c(F)c([H])c6F)c([H])c5[H])c(C(=O)N([H])[H])c4N([H])[H])C3([H])[H])c([H])c([H])c2C1([H])[H]

$$$$
