0:0:0
     RDKit          3D

103110  0  0  1  0  0  0  0  0999 V2000
  -31.9440  -20.2570   19.9120 C   0  0  0  0  0  2  0  0  0  0  0  0
  -32.9850  -21.2230   19.4660 N   0  0  0  0  0  4  0  0  0  0  0  0
  -32.5960  -22.1430   19.6040 H   0  0  0  0  0  0  0  0  0  0  0  0
  -33.7920  -21.1750   20.0680 H   0  0  0  0  0  0  0  0  0  0  0  0
  -33.3940  -21.1460   18.0340 C   0  0  0  0  0  2  0  0  0  0  0  0
  -34.6290  -20.2510   17.7240 C   0  0  0  0  0  2  0  0  0  0  0  0
  -34.4630  -18.7130   17.8440 C   0  0  0  0  0  2  0  0  0  0  0  0
  -34.0530  -18.0390   16.5870 N   0  0  0  0  0  4  0  0  0  0  0  0
  -33.4370  -18.6090   16.0340 H   0  0  0  0  0  0  0  0  0  0  0  0
  -34.8890  -17.8960   16.0460 H   0  0  0  0  0  0  0  0  0  0  0  0
  -33.4380  -16.7040   16.7570 C   0  0  0  0  0  2  0  0  0  0  0  0
  -31.7120  -16.6950   18.6210 C   0  0  0  0  0  3  0  0  0  0  0  0
  -32.0180  -16.7600   17.3150 C   0  0  0  0  0  3  0  0  0  0  0  0
  -30.2990  -16.6470   19.2010 C   0  0  0  0  0  2  0  0  0  0  0  0
  -30.7930  -14.5480   20.5370 C   0  0  0  0  0  0  0  0  0  0  0  0
  -30.4780  -12.3550   19.5840 C   0  0  0  0  0  2  0  0  0  0  0  0
  -29.6100  -12.5820   18.3250 C   0  0  0  0  0  2  0  0  0  0  0  0
  -28.1210  -12.4500   18.6940 C   0  0  0  0  0  2  0  0  0  0  0  0
  -27.7270  -13.3300   19.9070 C   0  0  0  0  0  3  0  0  0  0  0  0
  -28.7370  -13.2090   21.0750 C   0  0  0  0  0  2  0  0  0  0  0  0
  -30.0980  -13.3920   20.5460 N   0  0  0  0  0  0  0  0  0  0  0  0
  -32.0170  -14.6000   20.4240 O   0  0  0  0  0  0  0  0  0  0  0  0
  -30.0270  -15.5920   20.2030 N   0  0  0  0  0  0  0  0  0  0  0  0
  -29.0500  -15.3900   20.3490 H   0  0  0  0  0  0  0  0  0  0  0  0
  -25.3070  -13.9550   20.5100 C   0  0  0  0  0  0  0  0  0  0  0  0
  -24.2240  -13.1870   20.8560 C   0  0  0  0  0  0  0  0  0  0  0  0
  -24.6850  -11.8370   20.8700 C   0  0  0  0  0  0  0  0  0  0  0  0
  -26.3580  -13.0660   20.3400 N   0  0  0  0  0  0  0  0  0  0  0  0
  -25.9870  -11.7900   20.6210 N   0  0  0  0  0  0  0  0  0  0  0  0
  -23.9500  -10.5800   21.0500 C   0  0  0  0  0  0  0  0  0  0  0  0
  -24.3640   -9.6160   21.9950 C   0  0  0  0  0  3  0  0  0  0  0  0
  -23.6340   -8.4220   22.1650 C   0  0  0  0  0  3  0  0  0  0  0  0
  -22.4750   -8.1820   21.3920 C   0  0  0  0  0  0  0  0  0  0  0  0
  -22.0820   -9.1320   20.4350 C   0  0  0  0  0  3  0  0  0  0  0  0
  -22.8120  -10.3200   20.2640 C   0  0  0  0  0  3  0  0  0  0  0  0
  -21.7220   -7.0370   21.4640 O   0  0  0  0  0  0  0  0  0  0  0  0
  -21.6710   -6.2860   22.6080 C   0  0  0  0  0  0  0  0  0  0  0  0
  -21.2650   -6.8370   23.8440 C   0  0  0  0  0  3  0  0  0  0  0  0
  -21.1640   -6.0120   24.9800 C   0  0  0  0  0  3  0  0  0  0  0  0
  -21.4470   -4.6360   24.8810 C   0  0  0  0  0  0  0  0  0  0  0  0
  -21.8380   -4.0860   23.6480 C   0  0  0  0  0  3  0  0  0  0  0  0
  -21.9480   -4.9080   22.5150 C   0  0  0  0  0  0  0  0  0  0  0  0
  -22.3060   -4.3680   21.3250 F   0  0  0  0  0  0  0  0  0  0  0  0
  -21.3350   -3.8430   25.9710 F   0  0  0  0  0  0  0  0  0  0  0  0
  -22.8190  -13.6730   21.0560 C   0  0  0  0  0  0  0  0  0  0  0  0
  -22.0550  -12.9950   21.9030 N   0  0  0  0  0  0  0  0  0  0  0  0
  -22.4050  -14.6890   20.5010 O   0  0  0  0  0  0  0  0  0  0  0  0
  -22.4010  -12.1670   22.3660 H   0  0  0  0  0  0  0  0  0  0  0  0
  -21.1130  -13.3040   22.0870 H   0  0  0  0  0  0  0  0  0  0  0  0
  -25.4750  -15.3220   20.3140 N   0  0  0  0  0  0  0  0  0  0  0  0
  -24.6890  -15.9610   20.3810 H   0  0  0  0  0  0  0  0  0  0  0  0
  -26.3170  -15.7730   19.9810 H   0  0  0  0  0  0  0  0  0  0  0  0
  -31.2730  -18.8030   21.9020 C   0  0  0  0  0  1  0  0  0  0  0  0
  -31.8080  -20.1700   21.4600 C   0  0  0  0  0  3  0  0  0  0  0  0
  -30.8930  -21.1670   22.0260 N   0  0  0  0  0  0  0  0  0  0  0  0
  -29.9260  -20.8990   21.8430 H   0  0  0  0  0  0  0  0  0  0  0  0
  -31.1010  -22.5540   21.6620 C   0  0  0  0  0  2  0  0  0  0  0  0
  -30.0400  -23.4510   22.3030 C   0  0  0  0  0  2  0  0  0  0  0  0
  -29.9560  -24.6620   21.5080 N   0  0  0  0  0  0  0  0  0  0  0  0
  -29.5660  -24.4390   20.5910 H   0  0  0  0  0  0  0  0  0  0  0  0
  -29.1620  -25.7330   22.0840 C   0  0  0  0  0  2  0  0  0  0  0  0
  -29.2240  -26.9280   21.1380 C   0  0  0  0  0  2  0  0  0  0  0  0
  -28.2450  -26.7350   20.1080 O   0  0  0  0  0  0  0  0  0  0  0  0
  -24.4940  -31.9070   23.2180 C   0  0  0  0  0  0  0  0  0  0  0  0
  -27.0870  -27.4780   20.1610 C   0  0  0  0  0  0  0  0  0  0  0  0
  -23.2470  -30.5090   21.5910 C   0  0  0  0  0  3  0  0  0  0  0  0
  -24.6690  -28.9430   20.1710 C   0  0  0  0  0  0  0  0  0  0  0  0
  -25.7580  -30.8690   21.3460 C   0  0  0  0  0  2  0  0  0  0  0  0
  -25.8250  -29.4930   20.7290 C   0  0  0  0  0  0  0  0  0  0  0  0
  -27.0310  -28.7770   20.7180 C   0  0  0  0  0  3  0  0  0  0  0  0
  -25.9140  -26.9300   19.6000 C   0  0  0  0  0  3  0  0  0  0  0  0
  -24.7040  -27.6560   19.6030 C   0  0  0  0  0  3  0  0  0  0  0  0
  -23.4280  -29.8040   20.2170 C   0  0  0  0  0  2  0  0  0  0  0  0
  -24.5180  -31.1080   22.1130 N   0  0  0  0  0  0  0  0  0  0  0  0
  -23.4270  -32.1940   23.7720 O   0  0  0  0  0  0  0  0  0  0  0  0
  -22.5960  -29.5050   22.5660 C   0  0  0  0  0  0  0  0  0  0  0  0
  -21.2690  -29.3510   22.4550 N   0  0  0  0  0  0  0  0  0  0  0  0
  -23.2810  -28.8650   23.3690 O   0  0  0  0  0  0  0  0  0  0  0  0
  -20.7810  -29.9170   21.7770 H   0  0  0  0  0  0  0  0  0  0  0  0
  -17.8790  -28.2310   22.9760 C   0  0  0  0  0  0  0  0  0  0  0  0
  -20.4410  -28.4320   23.2370 C   0  0  0  0  0  3  0  0  0  0  0  0
  -20.5130  -26.9970   22.6650 C   0  0  0  0  0  2  0  0  0  0  0  0
  -19.3990  -26.6960   21.6570 C   0  0  0  0  0  2  0  0  0  0  0  0
  -18.0220  -26.8750   22.3060 C   0  0  0  0  0  2  0  0  0  0  0  0
  -19.0160  -28.9690   23.3980 C   0  0  0  0  0  0  0  0  0  0  0  0
  -18.8300  -30.2410   23.9810 C   0  0  0  0  0  3  0  0  0  0  0  0
  -17.5400  -30.7760   24.1480 C   0  0  0  0  0  3  0  0  0  0  0  0
  -16.4150  -30.0320   23.7480 C   0  0  0  0  0  3  0  0  0  0  0  0
  -16.5860  -28.7620   23.1680 C   0  0  0  0  0  3  0  0  0  0  0  0
  -25.8010  -32.5170   23.8210 C   0  0  0  0  0  3  0  0  0  0  0  0
  -25.5190  -33.9140   24.1710 N   0  0  0  0  0  0  0  0  0  0  0  0
  -25.8590  -34.9670   23.4170 C   0  0  0  0  0  0  0  0  0  0  0  0
  -26.5130  -34.8650   22.3760 O   0  0  0  0  0  0  0  0  0  0  0  0
  -24.9460  -34.0700   24.9870 H   0  0  0  0  0  0  0  0  0  0  0  0
  -24.1450  -36.7760   23.0970 C   0  0  0  0  0  1  0  0  0  0  0  0
  -25.3930  -36.3570   23.8900 C   0  0  0  0  0  3  0  0  0  0  0  0
  -27.5510  -37.2020   24.6970 C   0  0  0  0  0  1  0  0  0  0  0  0
  -26.4370  -37.4000   23.7740 N   0  0  0  0  0  0  0  0  0  0  0  0
  -26.0450  -38.3220   23.9450 H   0  0  0  0  0  0  0  0  0  0  0  0
  -26.3390  -31.7200   25.0720 C   0  0  1  0  0  0  0  0  0  0  0  0
  -25.2670  -31.4790   26.1590 C   0  0  0  0  0  1  0  0  0  0  0  0
  -26.8980  -30.3460   24.6360 C   0  0  0  0  0  1  0  0  0  0  0  0
  -27.5110  -32.4940   25.7200 C   0  0  0  0  0  1  0  0  0  0  0  0
  1 54  1  0
  2  3  1  0
  2  1  1  0
  2  4  1  0
  5  2  1  0
  6  7  1  0
  6  5  1  0
  8 11  1  0
  8  7  1  0
  9  8  1  0
 10  8  1  0
 11 13  1  0
 12 14  1  0
 13 12  2  0
 14 23  1  0
 15 21  1  0
 16 21  1  0
 17 18  1  0
 17 16  1  0
 19 18  1  0
 19 28  1  0
 19 20  1  0
 21 20  1  0
 22 15  2  0
 23 24  1  0
 23 15  1  0
 25 26  2  0
 26 27  1  0
 26 45  1  0
 27 30  1  0
 28 25  1  0
 28 29  1  0
 29 27  2  0
 30 31  1  0
 31 32  2  0
 33 36  1  0
 33 32  1  0
 34 33  2  0
 35 34  1  0
 35 30  2  0
 36 37  1  0
 37 38  1  0
 38 39  2  0
 40 39  1  0
 40 44  1  0
 41 40  2  0
 42 37  2  0
 42 41  1  0
 43 42  1  0
 45 46  1  0
 46 49  1  0
 46 48  1  0
 47 45  2  0
 50 51  1  0
 50 25  1  0
 52 50  1  0
 54 53  1  0
 54 55  1  0
 56 55  1  0
 57 55  1  0
 57 58  1  0
 59 61  1  0
 59 58  1  0
 60 59  1  0
 62 61  1  0
 63 65  1  0
 63 62  1  0
 64 75  2  0
 65 70  1  0
 66 74  1  0
 66 76  1  0
 67 73  1  0
 67 69  1  0
 68 74  1  0
 69 68  1  0
 70 69  2  0
 71 72  1  0
 71 65  2  0
 72 67  2  0
 73 66  1  0
 74 64  1  0
 76 78  2  0
 77 76  1  0
 79 77  1  0
 80 89  2  0
 80 85  1  0
 81 77  1  0
 81 85  1  0
 82 81  1  0
 83 84  1  0
 83 82  1  0
 84 80  1  0
 85 86  2  0
 86 87  1  0
 88 87  2  0
 89 88  1  0
 90 64  1  0
 90 91  1  0
 90100  1  0
 91 94  1  0
 92 96  1  0
 92 91  1  0
 93 92  2  0
 96 95  1  0
 98 96  1  0
 98 99  1  0
 98 97  1  0
100103  1  1
100101  1  0
102100  1  0
M  ISO  4  15 100  23 100  62 101  63 101
M  END
>  <TORSDO>  (1) 
F 31

>  <SCORE>  (1) 
-10.777

>  <name>  (1) 
0

>  <ligand_id>  (1) 
0

>  <original_smiles>  (1) 
[H]C(=C([H])C([H])([H])[N+]([H])([H])C([H])([H])C([H])([H])C([H])([H])[N+]([H])([H])C([H])([H])C([H])(N([H])C([H])([H])C([H])([H])N([H])C([H])([H])C([H])([H])Oc1c([H])c([H])c2c(c1[H])C([H])([H])N(C(=O)C([H])(N([H])C(=O)C([H])(N([H])C([H])([H])[H])C([H])([H])[H])C(C([H])([H])[H])(C([H])([H])[H])C([H])([H])[H])C([H])(C(=O)N([H])C1([H])c3c([H])c([H])c([H])c([H])c3C([H])([H])C([H])([H])C1([H])[H])C2([H])[H])C([H])([H])[H])C([H])([H])N([H])C(=O)N1C([H])([H])C([H])([H])C([H])([H])C([H])(n2nc(-c3c([H])c([H])c(Oc4c([H])c([H])c(F)c([H])c4F)c([H])c3[H])c(C(=O)N([H])[H])c2N([H])[H])C1([H])[H]

>  <smiles>  (1) 
[H]C(=C([H])C([H])([H])[N+]([H])([H])C([H])([H])C([H])([H])C([H])([H])[N+]([H])([H])C([H])([H])C([H])(N([H])C([H])([H])C([H])([H])N([H])C([H])([H])C([H])([H])Oc1c([H])c([H])c2c(c1[H])C([H])([H])N(C(=O)C([H])(N([H])C(=O)C([H])(N([H])C([H])([H])[H])C([H])([H])[H])C(C([H])([H])[H])(C([H])([H])[H])C([H])([H])[H])C([H])(C(=O)N([H])C1([H])c3c([H])c([H])c([H])c([H])c3C([H])([H])C([H])([H])C1([H])[H])C2([H])[H])C([H])([H])[H])C([H])([H])N([H])C(=O)N1C([H])([H])C([H])([H])C([H])([H])C([H])(n2nc(-c3c([H])c([H])c(Oc4c([H])c([H])c(F)c([H])c4F)c([H])c3[H])c(C(=O)N([H])[H])c2N([H])[H])C1([H])[H]

$$$$
1:0:0
     RDKit          3D

121128  0  0  1  0  0  0  0  0999 V2000
  -23.5450  -14.8190   25.2470 N   0  0  0  0  0  0  0  0  0  0  0  0
  -23.9650  -14.2630   25.9880 H   0  0  0  0  0  0  0  0  0  0  0  0
  -23.5040  -16.2100   25.7000 C   0  0  0  0  0  2  0  0  0  0  0  0
  -21.5510  -17.7810   25.7580 C   0  0  0  0  0  0  0  0  0  0  0  0
  -22.1930  -16.6670   26.1360 N   0  0  0  0  0  0  0  0  0  0  0  0
  -22.0770  -18.6780   25.1010 O   0  0  0  0  0  0  0  0  0  0  0  0
  -21.6820  -16.0310   26.7310 H   0  0  0  0  0  0  0  0  0  0  0  0
  -19.2500  -18.3770   25.3720 C   0  0  0  0  0  3  0  0  0  0  0  0
  -20.1530  -17.7220   26.1270 C   0  0  0  0  0  3  0  0  0  0  0  0
  -17.8320  -18.3210   25.6780 C   0  0  0  0  0  0  0  0  0  0  0  0
  -15.7750  -18.8800   24.5070 C   0  0  0  0  0  0  0  0  0  0  0  0
  -17.1090  -18.7630   24.6310 N   0  0  0  0  0  0  0  0  0  0  0  0
  -17.3680  -17.9120   26.7470 O   0  0  0  0  0  0  0  0  0  0  0  0
  -14.9500  -18.6890   25.4040 O   0  0  0  0  0  0  0  0  0  0  0  0
  -17.6410  -19.0280   23.8180 H   0  0  0  0  0  0  0  0  0  0  0  0
  -15.2500  -19.2960   23.1330 C   0  0  0  0  0  2  0  0  0  0  0  0
  -14.2740  -20.3920   23.3130 N   0  0  0  0  0  4  0  0  0  0  0  0
  -14.7800  -21.2610   23.3760 H   0  0  0  0  0  0  0  0  0  0  0  0
  -13.8610  -20.2160   24.2210 H   0  0  0  0  0  0  0  0  0  0  0  0
  -13.2310  -20.4800   22.2610 C   0  0  0  0  0  2  0  0  0  0  0  0
  -12.3330  -21.7260   22.4030 C   0  0  0  0  0  2  0  0  0  0  0  0
  -11.0750  -21.5160   21.7590 O   0  0  0  0  0  0  0  0  0  0  0  0
   -8.2530  -21.2110   28.2800 C   0  0  0  0  0  0  0  0  0  0  0  0
  -10.1140  -20.9870   22.5810 C   0  0  0  0  0  0  0  0  0  0  0  0
   -7.4850  -19.4810   26.6840 C   0  0  0  0  0  3  0  0  0  0  0  0
   -8.1400  -19.8580   24.2460 C   0  0  0  0  0  0  0  0  0  0  0  0
   -8.2600  -21.7700   25.8550 C   0  0  0  0  0  2  0  0  0  0  0  0
   -8.7250  -21.0850   24.5870 C   0  0  0  0  0  0  0  0  0  0  0  0
   -9.7130  -21.6550   23.7580 C   0  0  0  0  0  3  0  0  0  0  0  0
   -9.5070  -19.7600   22.2360 C   0  0  0  0  0  3  0  0  0  0  0  0
   -8.5290  -19.1890   23.0700 C   0  0  0  0  0  3  0  0  0  0  0  0
   -7.0910  -19.3140   25.1900 C   0  0  0  0  0  2  0  0  0  0  0  0
   -8.0340  -20.8420   26.9850 N   0  0  0  0  0  0  0  0  0  0  0  0
   -7.9550  -20.4590   29.2170 O   0  0  0  0  0  0  0  0  0  0  0  0
   -8.4410  -18.3300   27.0760 C   0  0  0  0  0  0  0  0  0  0  0  0
   -7.8670  -17.1470   27.3480 N   0  0  0  0  0  0  0  0  0  0  0  0
   -9.6620  -18.4990   27.0880 O   0  0  0  0  0  0  0  0  0  0  0  0
   -6.8600  -17.0930   27.3080 H   0  0  0  0  0  0  0  0  0  0  0  0
   -7.3800  -13.6930   28.2800 C   0  0  0  0  0  0  0  0  0  0  0  0
   -8.5670  -15.9150   27.7040 C   0  0  0  0  0  3  0  0  0  0  0  0
   -9.0930  -15.1910   26.4420 C   0  0  0  0  0  2  0  0  0  0  0  0
   -8.1140  -14.1450   25.9000 C   0  0  0  0  0  2  0  0  0  0  0  0
   -7.8240  -13.0800   26.9620 C   0  0  0  0  0  2  0  0  0  0  0  0
   -7.7150  -15.0290   28.6220 C   0  0  0  0  0  0  0  0  0  0  0  0
   -7.2470  -15.5620   29.8430 C   0  0  0  0  0  3  0  0  0  0  0  0
   -6.4660  -14.7820   30.7150 C   0  0  0  0  0  3  0  0  0  0  0  0
   -6.1500  -13.4540   30.3800 C   0  0  0  0  0  3  0  0  0  0  0  0
   -6.6090  -12.9120   29.1650 C   0  0  0  0  0  3  0  0  0  0  0  0
   -8.8550  -22.6040   28.6420 C   0  0  0  0  0  3  0  0  0  0  0  0
   -8.2190  -23.0480   29.8870 N   0  0  0  0  0  0  0  0  0  0  0  0
   -7.1850  -23.9010   29.9500 C   0  0  0  0  0  0  0  0  0  0  0  0
   -6.7140  -24.4570   28.9530 O   0  0  0  0  0  0  0  0  0  0  0  0
   -8.5130  -22.5860   30.7340 H   0  0  0  0  0  0  0  0  0  0  0  0
   -5.3290  -23.3180   31.5430 C   0  0  0  0  0  1  0  0  0  0  0  0
   -6.5830  -24.1830   31.3390 C   0  0  0  0  0  3  0  0  0  0  0  0
   -7.4160  -26.4720   31.6490 C   0  0  0  0  0  1  0  0  0  0  0  0
   -6.2440  -25.6060   31.5540 N   0  0  0  0  0  0  0  0  0  0  0  0
   -5.6990  -25.7200   32.4050 H   0  0  0  0  0  0  0  0  0  0  0  0
  -10.4260  -22.5800   28.7940 C   0  0  1  0  0  0  0  0  0  0  0  0
  -10.9440  -21.4650   29.7310 C   0  0  0  0  0  1  0  0  0  0  0  0
  -11.1050  -22.3930   27.4170 C   0  0  0  0  0  1  0  0  0  0  0  0
  -10.9190  -23.9370   29.3500 C   0  0  0  0  0  1  0  0  0  0  0  0
  -24.3560  -14.5980   24.0450 C   0  0  0  0  0  2  0  0  0  0  0  0
  -23.5610  -14.4900   22.7220 C   0  0  0  0  0  2  0  0  0  0  0  0
  -22.8060  -13.2270   22.5580 N   0  0  0  0  0  4  0  0  0  0  0  0
  -22.4860  -13.2130   21.6010 H   0  0  0  0  0  0  0  0  0  0  0  0
  -23.4020  -12.4080   22.6420 H   0  0  0  0  0  0  0  0  0  0  0  0
  -21.5890  -13.0660   23.3800 C   0  0  0  0  0  2  0  0  0  0  0  0
  -20.9330  -11.7330   23.0420 C   0  0  0  0  0  2  0  0  0  0  0  0
  -21.1980  -11.5630   21.6520 O   0  0  0  0  0  0  0  0  0  0  0  0
  -20.4990  -10.5000   21.0290 C   0  0  0  0  0  2  0  0  0  0  0  0
  -21.4890   -9.3330   20.9230 C   0  0  0  0  0  2  0  0  0  0  0  0
  -20.8920   -8.1100   20.2230 C   0  0  0  0  0  2  0  0  0  0  0  0
  -21.5860   -6.8050   20.6440 C   0  0  0  0  0  2  0  0  0  0  0  0
  -21.0810   -5.5860   19.8550 C   0  0  0  0  0  2  0  0  0  0  0  0
  -21.5480   -4.2460   20.4450 C   0  0  0  0  0  2  0  0  0  0  0  0
  -22.8050   -4.4220   21.0800 O   0  0  0  0  0  0  0  0  0  0  0  0
  -22.9460   -3.6490   22.2650 C   0  0  0  0  0  2  0  0  0  0  0  0
  -23.3900   -4.5640   23.4220 C   0  0  0  0  0  2  0  0  0  0  0  0
  -22.3800   -5.6780   23.7650 C   0  0  0  0  0  2  0  0  0  0  0  0
  -21.2350   -5.2110   24.6770 C   0  0  0  0  0  2  0  0  0  0  0  0
  -20.3170   -6.3510   25.1410 C   0  0  0  0  0  2  0  0  0  0  0  0
  -20.0610   -6.3250   26.6580 C   0  0  0  0  0  2  0  0  0  0  0  0
  -17.6200   -5.8100   26.9910 C   0  0  0  0  0  0  0  0  0  0  0  0
  -15.9940   -4.8540   28.5680 C   0  0  0  0  0  2  0  0  0  0  0  0
  -14.5150   -5.0690   28.2230 C   0  0  0  0  0  2  0  0  0  0  0  0
  -14.0260   -6.4150   28.7830 C   0  0  0  0  0  2  0  0  0  0  0  0
  -14.9530   -7.5900   28.3790 C   0  0  0  0  0  3  0  0  0  0  0  0
  -16.4350   -7.2630   28.6680 C   0  0  0  0  0  2  0  0  0  0  0  0
  -16.7770   -5.9760   28.0370 N   0  0  0  0  0  0  0  0  0  0  0  0
  -17.5700   -4.8450   26.2260 O   0  0  0  0  0  0  0  0  0  0  0  0
  -18.6840   -6.6250   27.0630 N   0  0  0  0  0  0  0  0  0  0  0  0
  -18.5930   -7.3540   27.7540 H   0  0  0  0  0  0  0  0  0  0  0  0
  -15.1310  -10.0860   28.9900 C   0  0  0  0  0  0  0  0  0  0  0  0
  -14.3100  -10.9160   29.7020 C   0  0  0  0  0  0  0  0  0  0  0  0
  -13.2190  -10.1060   30.1410 C   0  0  0  0  0  0  0  0  0  0  0  0
  -14.5400   -8.8340   29.0270 N   0  0  0  0  0  0  0  0  0  0  0  0
  -13.4070   -8.8450   29.7740 N   0  0  0  0  0  0  0  0  0  0  0  0
  -11.9840  -10.4710   30.8450 C   0  0  0  0  0  0  0  0  0  0  0  0
  -11.6910   -9.9650   32.1310 C   0  0  0  0  0  3  0  0  0  0  0  0
  -10.5060  -10.3460   32.7980 C   0  0  0  0  0  3  0  0  0  0  0  0
   -9.6030  -11.2460   32.1810 C   0  0  0  0  0  0  0  0  0  0  0  0
   -9.8900  -11.7300   30.8930 C   0  0  0  0  0  3  0  0  0  0  0  0
  -11.0660  -11.3440   30.2280 C   0  0  0  0  0  3  0  0  0  0  0  0
   -8.4150  -11.6510   32.7400 O   0  0  0  0  0  0  0  0  0  0  0  0
   -8.2920  -11.8680   34.0880 C   0  0  0  0  0  0  0  0  0  0  0  0
   -9.1630  -12.7360   34.7860 C   0  0  0  0  0  3  0  0  0  0  0  0
   -8.9590  -12.9840   36.1570 C   0  0  0  0  0  3  0  0  0  0  0  0
   -7.8830  -12.3770   36.8320 C   0  0  0  0  0  0  0  0  0  0  0  0
   -7.0120  -11.5170   36.1370 C   0  0  0  0  0  3  0  0  0  0  0  0
   -7.2170  -11.2650   34.7700 C   0  0  0  0  0  0  0  0  0  0  0  0
   -6.3650  -10.4510   34.1010 F   0  0  0  0  0  0  0  0  0  0  0  0
   -7.6800  -12.6210   38.1470 F   0  0  0  0  0  0  0  0  0  0  0  0
  -14.4750  -12.3970   29.8800 C   0  0  0  0  0  0  0  0  0  0  0  0
  -14.0860  -12.9210   31.0370 N   0  0  0  0  0  0  0  0  0  0  0  0
  -15.0170  -13.0820   29.0150 O   0  0  0  0  0  0  0  0  0  0  0  0
  -13.6630  -12.3550   31.7570 H   0  0  0  0  0  0  0  0  0  0  0  0
  -14.2100  -13.9090   31.2020 H   0  0  0  0  0  0  0  0  0  0  0  0
  -16.3320  -10.2990   28.3200 N   0  0  0  0  0  0  0  0  0  0  0  0
  -16.3590  -11.2240   27.9000 H   0  0  0  0  0  0  0  0  0  0  0  0
  -16.5270   -9.6020   27.6080 H   0  0  0  0  0  0  0  0  0  0  0  0
  1  3  1  0
  1  2  1  0
  3  5  1  0
  4  9  1  0
  4  5  1  0
  5  7  1  0
  6  4  2  0
  8 10  1  0
  8  9  2  0
 10 13  2  0
 11 12  1  0
 11 14  2  0
 12 10  1  0
 15 12  1  0
 16 17  1  0
 16 11  1  0
 17 18  1  0
 17 19  1  0
 20 21  1  0
 20 17  1  0
 22 21  1  0
 22 24  1  0
 23 34  2  0
 24 29  1  0
 25 33  1  0
 25 35  1  0
 26 28  1  0
 26 32  1  0
 27 33  1  0
 28 27  1  0
 29 28  2  0
 30 24  2  0
 30 31  1  0
 31 26  2  0
 32 25  1  0
 33 23  1  0
 35 37  2  0
 35 36  1  0
 38 36  1  0
 39 44  2  0
 39 48  1  0
 40 36  1  0
 40 44  1  0
 41 40  1  0
 42 41  1  0
 42 43  1  0
 43 39  1  0
 44 45  1  0
 45 46  2  0
 47 46  1  0
 48 47  2  0
 49 23  1  0
 49 59  1  0
 49 50  1  0
 50 51  1  0
 50 53  1  0
 51 55  1  0
 52 51  2  0
 55 54  1  0
 55 57  1  0
 57 56  1  0
 57 58  1  0
 59 62  1  1
 59 60  1  0
 61 59  1  0
 63  1  1  0
 64 63  1  0
 65 67  1  0
 65 64  1  0
 65 68  1  0
 66 65  1  0
 69 68  1  0
 70 69  1  0
 71 70  1  0
 72 71  1  0
 73 74  1  0
 73 72  1  0
 75 76  1  0
 75 74  1  0
 76 77  1  0
 77 78  1  0
 78 79  1  0
 79 80  1  0
 80 81  1  0
 81 82  1  0
 82 83  1  0
 83 92  1  0
 84 92  1  0
 84 90  1  0
 86 85  1  0
 86 87  1  0
 88 89  1  0
 88 87  1  0
 88 97  1  0
 90 85  1  0
 90 89  1  0
 91 84  2  0
 92 93  1  0
 94 97  1  0
 94 95  2  0
 95114  1  0
 95 96  1  0
 96 99  1  0
 97 98  1  0
 98 96  2  0
 99100  1  0
100101  2  0
102105  1  0
102101  1  0
103102  2  0
104 99  2  0
104103  1  0
105106  1  0
106111  2  0
106107  1  0
107108  2  0
108109  1  0
109113  1  0
110109  2  0
111110  1  0
112111  1  0
114115  1  0
115118  1  0
115117  1  0
116114  2  0
119 94  1  0
120119  1  0
121119  1  0
M  ISO  4  21 101  22 101  84 100  92 100
M  END
>  <TORSDO>  (2) 
F 43

>  <SCORE>  (2) 
39.830

>  <name>  (2) 
1

>  <ligand_id>  (2) 
1

>  <original_smiles>  (2) 
[H]C(C(=O)N([H])C(=O)C([H])([H])[N+]([H])([H])C([H])([H])C([H])([H])Oc1c([H])c([H])c2c(c1[H])C([H])([H])N(C(=O)C([H])(N([H])C(=O)C([H])(N([H])C([H])([H])[H])C([H])([H])[H])C(C([H])([H])[H])(C([H])([H])[H])C([H])([H])[H])C([H])(C(=O)N([H])C1([H])c3c([H])c([H])c([H])c([H])c3C([H])([H])C([H])([H])C1([H])[H])C2([H])[H])=C([H])C(=O)N([H])C([H])([H])N([H])C([H])([H])C([H])([H])[N+]([H])([H])C([H])([H])C([H])([H])OC([H])([H])C([H])([H])C([H])([H])C([H])([H])C([H])([H])C([H])([H])OC([H])([H])C([H])([H])C([H])([H])C([H])([H])C([H])([H])C([H])([H])N([H])C(=O)N1C([H])([H])C([H])([H])C([H])([H])C([H])(n2nc(-c3c([H])c([H])c(Oc4c([H])c([H])c(F)c([H])c4F)c([H])c3[H])c(C(=O)N([H])[H])c2N([H])[H])C1([H])[H]

>  <smiles>  (2) 
[H]C(C(=O)N([H])C(=O)C([H])([H])[N+]([H])([H])C([H])([H])C([H])([H])Oc1c([H])c([H])c2c(c1[H])C([H])([H])N(C(=O)C([H])(N([H])C(=O)C([H])(N([H])C([H])([H])[H])C([H])([H])[H])C(C([H])([H])[H])(C([H])([H])[H])C([H])([H])[H])C([H])(C(=O)N([H])C1([H])c3c([H])c([H])c([H])c([H])c3C([H])([H])C([H])([H])C1([H])[H])C2([H])[H])=C([H])C(=O)N([H])C([H])([H])N([H])C([H])([H])C([H])([H])[N+]([H])([H])C([H])([H])C([H])([H])OC([H])([H])C([H])([H])C([H])([H])C([H])([H])C([H])([H])C([H])([H])OC([H])([H])C([H])([H])C([H])([H])C([H])([H])C([H])([H])C([H])([H])N([H])C(=O)N1C([H])([H])C([H])([H])C([H])([H])C([H])(n2nc(-c3c([H])c([H])c(Oc4c([H])c([H])c(F)c([H])c4F)c([H])c3[H])c(C(=O)N([H])[H])c2N([H])[H])C1([H])[H]

$$$$
2:0:0
     RDKit          3D

 89 97  0  0  1  0  0  0  0  0999 V2000
  -29.4770  -17.8320   20.2420 C   0  0  0  0  0  0  0  0  0  0  0  0
  -28.1990  -18.7940   20.2500 C   0  0  0  0  0  0  0  0  0  0  0  0
  -28.2040  -20.3470   19.7340 C   0  0  0  0  0  2  0  0  0  0  0  0
  -30.3450  -20.5400   20.7610 C   0  0  0  0  0  2  0  0  0  0  0  0
  -30.6170  -18.9590   20.2160 C   0  0  0  0  0  3  0  0  0  0  0  0
  -31.2880  -18.9780   18.8280 C   0  0  0  0  0  1  0  0  0  0  0  0
  -29.4470  -16.4210   20.2560 N   0  0  0  0  0  0  0  0  0  0  0  0
  -29.0350  -21.3530   20.5320 N   0  0  1  0  0  4  0  0  0  0  0  0
  -27.1160  -18.3320   20.6260 O   0  0  0  0  0  0  0  0  0  0  0  0
  -28.5980  -21.3470   21.4430 H   0  0  0  0  0  0  0  0  0  0  0  0
  -30.4000  -15.2420   20.1280 C   0  0  0  0  0  0  0  0  0  0  0  0
  -30.4360  -12.7760   19.3490 C   0  0  0  0  0  2  0  0  0  0  0  0
  -29.5070  -12.5790   18.1220 C   0  0  0  0  0  2  0  0  0  0  0  0
  -28.0520  -12.3240   18.5630 C   0  0  0  0  0  2  0  0  0  0  0  0
  -27.6060  -13.3060   19.6760 C   0  0  0  0  0  3  0  0  0  0  0  0
  -28.6570  -13.4450   20.7940 C   0  0  0  0  0  2  0  0  0  0  0  0
  -29.9060  -13.9140   20.1740 N   0  0  0  0  0  0  0  0  0  0  0  0
  -31.6010  -15.3060   19.8480 O   0  0  0  0  0  0  0  0  0  0  0  0
  -25.2450  -13.8800   20.4590 C   0  0  0  0  0  0  0  0  0  0  0  0
  -24.1820  -13.1080   20.8370 C   0  0  0  0  0  0  0  0  0  0  0  0
  -24.6410  -11.7540   20.7940 C   0  0  0  0  0  0  0  0  0  0  0  0
  -26.2800  -12.9990   20.1960 N   0  0  0  0  0  0  0  0  0  0  0  0
  -25.9270  -11.7140   20.4650 N   0  0  0  0  0  0  0  0  0  0  0  0
  -23.9080  -10.4960   20.9890 C   0  0  0  0  0  0  0  0  0  0  0  0
  -24.3340   -9.5280   21.9260 C   0  0  0  0  0  3  0  0  0  0  0  0
  -23.5990   -8.3360   22.1080 C   0  0  0  0  0  3  0  0  0  0  0  0
  -22.4260   -8.1030   21.3540 C   0  0  0  0  0  0  0  0  0  0  0  0
  -22.0180   -9.0590   20.4070 C   0  0  0  0  0  3  0  0  0  0  0  0
  -22.7530  -10.2420   20.2220 C   0  0  0  0  0  3  0  0  0  0  0  0
  -21.6640   -6.9640   21.4450 O   0  0  0  0  0  0  0  0  0  0  0  0
  -21.5920   -6.2360   22.6060 C   0  0  0  0  0  0  0  0  0  0  0  0
  -21.1090   -6.7960   23.8090 C   0  0  0  0  0  3  0  0  0  0  0  0
  -20.9870   -5.9940   24.9610 C   0  0  0  0  0  3  0  0  0  0  0  0
  -21.3390   -4.6310   24.9110 C   0  0  0  0  0  0  0  0  0  0  0  0
  -21.8150   -4.0700   23.7130 C   0  0  0  0  0  3  0  0  0  0  0  0
  -21.9380   -4.8700   22.5640 C   0  0  0  0  0  0  0  0  0  0  0  0
  -22.3770   -4.3180   21.4070 F   0  0  0  0  0  0  0  0  0  0  0  0
  -21.2150   -3.8590   26.0160 F   0  0  0  0  0  0  0  0  0  0  0  0
  -22.7920  -13.5920   21.1260 C   0  0  0  0  0  0  0  0  0  0  0  0
  -22.0780  -12.9110   22.0160 N   0  0  0  0  0  0  0  0  0  0  0  0
  -22.3470  -14.6100   20.5980 O   0  0  0  0  0  0  0  0  0  0  0  0
  -22.4500  -12.0880   22.4650 H   0  0  0  0  0  0  0  0  0  0  0  0
  -21.1450  -13.2190   22.2520 H   0  0  0  0  0  0  0  0  0  0  0  0
  -25.4170  -15.2500   20.2940 N   0  0  0  0  0  0  0  0  0  0  0  0
  -24.6750  -15.9190   20.4650 H   0  0  0  0  0  0  0  0  0  0  0  0
  -26.3000  -15.6910   20.0620 H   0  0  0  0  0  0  0  0  0  0  0  0
  -29.1380  -22.9770   20.1700 C   0  0  0  0  0  3  0  0  0  0  0  0
  -28.0760  -24.3650   20.4820 C   0  0  0  0  0  3  0  0  0  0  0  0
  -28.2880  -25.9820   20.3490 O   0  0  0  0  0  0  0  0  0  0  0  0
  -24.6250  -31.8720   23.2720 C   0  0  0  0  0  0  0  0  0  0  0  0
  -27.2440  -27.0320   20.3110 C   0  0  0  0  0  0  0  0  0  0  0  0
  -23.4540  -30.4630   21.6290 C   0  0  0  0  0  3  0  0  0  0  0  0
  -24.9250  -28.8640   20.2330 C   0  0  0  0  0  0  0  0  0  0  0  0
  -26.0170  -30.7000   21.5020 C   0  0  0  0  0  2  0  0  0  0  0  0
  -26.1040  -29.2910   20.8570 C   0  0  0  0  0  0  0  0  0  0  0  0
  -27.2600  -28.3970   20.8690 C   0  0  0  0  0  3  0  0  0  0  0  0
  -26.0340  -26.7430   19.6410 C   0  0  0  0  0  3  0  0  0  0  0  0
  -24.9120  -27.6090   19.6050 C   0  0  0  0  0  3  0  0  0  0  0  0
  -23.6990  -29.7730   20.2590 C   0  0  0  0  0  2  0  0  0  0  0  0
  -24.7200  -31.0380   22.1880 N   0  0  0  0  0  0  0  0  0  0  0  0
  -23.5290  -32.1580   23.7820 O   0  0  0  0  0  0  0  0  0  0  0  0
  -22.7590  -29.4660   22.5930 C   0  0  0  0  0  0  0  0  0  0  0  0
  -21.4320  -29.2880   22.4520 N   0  0  0  0  0  0  0  0  0  0  0  0
  -23.4200  -28.8510   23.4330 O   0  0  0  0  0  0  0  0  0  0  0  0
  -20.9520  -29.8350   21.7500 H   0  0  0  0  0  0  0  0  0  0  0  0
  -18.0490  -28.0770   22.9420 C   0  0  0  0  0  0  0  0  0  0  0  0
  -20.6070  -28.3490   23.2190 C   0  0  0  0  0  3  0  0  0  0  0  0
  -20.7150  -26.9170   22.6460 C   0  0  0  0  0  2  0  0  0  0  0  0
  -19.6180  -26.5910   21.6260 C   0  0  0  0  0  2  0  0  0  0  0  0
  -18.2330  -26.7300   22.2640 C   0  0  0  0  0  2  0  0  0  0  0  0
  -19.1630  -28.8440   23.3760 C   0  0  0  0  0  0  0  0  0  0  0  0
  -18.9350  -30.1030   23.9730 C   0  0  0  0  0  3  0  0  0  0  0  0
  -17.6260  -30.5970   24.1370 C   0  0  0  0  0  3  0  0  0  0  0  0
  -16.5270  -29.8270   23.7180 C   0  0  0  0  0  3  0  0  0  0  0  0
  -16.7390  -28.5690   23.1270 C   0  0  0  0  0  3  0  0  0  0  0  0
  -25.8870  -32.5250   23.9130 C   0  0  0  0  0  3  0  0  0  0  0  0
  -25.5710  -33.9340   24.2040 N   0  0  0  0  0  0  0  0  0  0  0  0
  -25.9110  -34.9720   23.4290 C   0  0  0  0  0  0  0  0  0  0  0  0
  -26.5870  -34.8440   22.4040 O   0  0  0  0  0  0  0  0  0  0  0  0
  -24.9700  -34.1070   24.9970 H   0  0  0  0  0  0  0  0  0  0  0  0
  -24.1880  -36.7660   23.0350 C   0  0  0  0  0  1  0  0  0  0  0  0
  -25.4280  -36.3730   23.8550 C   0  0  0  0  0  3  0  0  0  0  0  0
  -27.5590  -37.2810   24.6740 C   0  0  0  0  0  1  0  0  0  0  0  0
  -26.4630  -37.4220   23.7190 N   0  0  0  0  0  0  0  0  0  0  0  0
  -26.0570  -38.3460   23.8360 H   0  0  0  0  0  0  0  0  0  0  0  0
  -26.3610  -31.7910   25.2290 C   0  0  1  0  0  0  0  0  0  0  0  0
  -25.2360  -31.5930   26.2730 C   0  0  0  0  0  1  0  0  0  0  0  0
  -26.9480  -30.3980   24.9040 C   0  0  0  0  0  1  0  0  0  0  0  0
  -27.4970  -32.6000   25.9000 C   0  0  0  0  0  1  0  0  0  0  0  0
  1  2  1  0
  1  7  2  0
  2  9  2  0
  3  2  1  0
  3  8  1  0
  5  6  1  0
  5  1  1  0
  5  4  1  0
  8  4  1  0
  8 10  1  1
 11 17  1  0
 11  7  1  0
 12 17  1  0
 13 14  1  0
 13 12  1  0
 15 14  1  0
 15 22  1  0
 15 16  1  0
 17 16  1  0
 18 11  2  0
 19 20  2  0
 20 39  1  0
 21 20  1  0
 21 24  1  0
 22 19  1  0
 22 23  1  0
 23 21  2  0
 24 25  1  0
 25 26  2  0
 27 30  1  0
 27 26  1  0
 28 27  2  0
 29 28  1  0
 29 24  2  0
 30 31  1  0
 31 32  1  0
 32 33  2  0
 34 33  1  0
 34 38  1  0
 35 34  2  0
 36 31  2  0
 36 35  1  0
 37 36  1  0
 39 40  1  0
 40 43  1  0
 40 42  1  0
 41 39  2  0
 44 19  1  0
 44 45  1  0
 46 44  1  0
 47 48  2  0
 47  8  1  0
 49 48  1  0
 50 61  2  0
 51 49  1  0
 51 56  1  0
 52 60  1  0
 52 62  1  0
 53 59  1  0
 53 55  1  0
 54 60  1  0
 55 56  2  0
 55 54  1  0
 57 51  2  0
 58 57  1  0
 58 53  2  0
 59 52  1  0
 60 50  1  0
 62 64  2  0
 63 62  1  0
 65 63  1  0
 66 75  2  0
 66 71  1  0
 67 63  1  0
 67 71  1  0
 68 67  1  0
 69 70  1  0
 69 68  1  0
 70 66  1  0
 71 72  2  0
 72 73  1  0
 74 73  2  0
 75 74  1  0
 76 50  1  0
 76 77  1  0
 76 86  1  0
 77 80  1  0
 78 82  1  0
 78 77  1  0
 79 78  2  0
 82 81  1  0
 84 85  1  0
 84 82  1  0
 84 83  1  0
 86 89  1  1
 86 87  1  0
 88 86  1  0
M  ISO  4   7 100  11 100  48 101  49 101
M  END
>  <TORSDO>  (3) 
F 18

>  <SCORE>  (3) 
-15.540

>  <name>  (3) 
2

>  <ligand_id>  (3) 
2

>  <original_smiles>  (3) 
[H]c1c([H])c([H])c2c(c1[H])C([H])([H])C([H])([H])C([H])([H])C2([H])N([H])C(=O)C1([H])N(C(=O)C([H])(N([H])C(=O)C([H])(N([H])C([H])([H])[H])C([H])([H])[H])C(C([H])([H])[H])(C([H])([H])[H])C([H])([H])[H])C([H])([H])c2c([H])c(OC([H])([H])C([H])([H])[N+]3([H])C([H])([H])C(=O)C(=NC(=O)N4C([H])([H])C([H])([H])C([H])([H])C([H])(n5nc(-c6c([H])c([H])c(Oc7c([H])c([H])c(F)c([H])c7F)c([H])c6[H])c(C(=O)N([H])[H])c5N([H])[H])C4([H])[H])C([H])(C([H])([H])[H])C3([H])[H])c([H])c([H])c2C1([H])[H]

>  <smiles>  (3) 
[H]c1c([H])c([H])c2c(c1[H])C([H])([H])C([H])([H])C([H])([H])C2([H])N([H])C(=O)C1([H])N(C(=O)C([H])(N([H])C(=O)C([H])(N([H])C([H])([H])[H])C([H])([H])[H])C(C([H])([H])[H])(C([H])([H])[H])C([H])([H])[H])C([H])([H])c2c([H])c(OC([H])([H])C([H])([H])[N+]3([H])C([H])([H])C(=O)C(=NC(=O)N4C([H])([H])C([H])([H])C([H])([H])C([H])(n5nc(-c6c([H])c([H])c(Oc7c([H])c([H])c(F)c([H])c7F)c([H])c6[H])c(C(=O)N([H])[H])c5N([H])[H])C4([H])[H])C([H])(C([H])([H])[H])C3([H])[H])c([H])c([H])c2C1([H])[H]

$$$$
3:0:0
     RDKit          3D

105112  0  0  1  0  0  0  0  0999 V2000
  -28.0890  -29.9160   12.7930 C   0  0  0  0  0  2  0  0  0  0  0  0
  -28.7300  -29.9810   14.1960 C   0  0  0  0  0  2  0  0  0  0  0  0
  -30.9990  -29.1130   14.7260 C   0  0  0  0  0  0  0  0  0  0  0  0
  -29.6910  -28.9140   14.4900 N   0  0  0  0  0  0  0  0  0  0  0  0
  -31.5660  -30.1770   14.4770 O   0  0  0  0  0  0  0  0  0  0  0  0
  -29.3020  -28.0250   14.7810 H   0  0  0  0  0  0  0  0  0  0  0  0
  -31.8070  -27.9600   15.3220 C   0  0  0  0  0  2  0  0  0  0  0  0
  -32.5210  -27.2250   14.2520 N   0  0  0  0  0  4  0  0  0  0  0  0
  -32.9950  -27.9200   13.6920 H   0  0  0  0  0  0  0  0  0  0  0  0
  -31.8140  -26.8160   13.6600 H   0  0  0  0  0  0  0  0  0  0  0  0
  -33.4810  -26.1860   14.7020 C   0  0  0  0  0  2  0  0  0  0  0  0
  -32.9320  -24.7460   14.5540 C   0  0  0  0  0  2  0  0  0  0  0  0
  -31.8560  -24.6660   13.6070 O   0  0  0  0  0  0  0  0  0  0  0  0
  -28.9820  -22.5670    7.4780 C   0  0  0  0  0  0  0  0  0  0  0  0
  -32.0090  -23.8610   12.5000 C   0  0  0  0  0  0  0  0  0  0  0  0
  -30.9290  -21.2510    8.2480 C   0  0  0  0  0  3  0  0  0  0  0  0
  -32.2410  -22.2510   10.1890 C   0  0  0  0  0  0  0  0  0  0  0  0
  -30.6820  -23.7150    8.8920 C   0  0  0  0  0  2  0  0  0  0  0  0
  -31.4260  -23.3890   10.1700 C   0  0  0  0  0  0  0  0  0  0  0  0
  -31.3140  -24.2010   11.3190 C   0  0  0  0  0  3  0  0  0  0  0  0
  -32.8430  -22.7190   12.4970 C   0  0  0  0  0  3  0  0  0  0  0  0
  -32.9520  -21.9100   11.3500 C   0  0  0  0  0  3  0  0  0  0  0  0
  -32.3160  -21.4390    8.9170 C   0  0  0  0  0  2  0  0  0  0  0  0
  -30.1360  -22.5230    8.2020 N   0  0  0  0  0  0  0  0  0  0  0  0
  -28.6010  -21.5900    6.8190 O   0  0  0  0  0  0  0  0  0  0  0  0
  -30.1910  -20.0940    8.9570 C   0  0  0  0  0  0  0  0  0  0  0  0
  -29.5730  -19.2030    8.1660 N   0  0  0  0  0  0  0  0  0  0  0  0
  -30.2020  -19.9990   10.1880 O   0  0  0  0  0  0  0  0  0  0  0  0
  -29.6060  -19.3540    7.1670 H   0  0  0  0  0  0  0  0  0  0  0  0
  -26.6740  -17.1540    7.5070 C   0  0  0  0  0  0  0  0  0  0  0  0
  -28.8460  -18.0160    8.6120 C   0  0  0  0  0  3  0  0  0  0  0  0
  -29.5050  -16.7260    8.0790 C   0  0  0  0  0  2  0  0  0  0  0  0
  -28.9130  -16.2540    6.7490 C   0  0  0  0  0  2  0  0  0  0  0  0
  -27.4140  -15.9760    6.8950 C   0  0  0  0  0  2  0  0  0  0  0  0
  -27.3490  -18.1220    8.2980 C   0  0  0  0  0  0  0  0  0  0  0  0
  -26.6220  -19.2180    8.8090 C   0  0  0  0  0  3  0  0  0  0  0  0
  -25.2470  -19.3560    8.5440 C   0  0  0  0  0  3  0  0  0  0  0  0
  -24.5790  -18.3860    7.7770 C   0  0  0  0  0  3  0  0  0  0  0  0
  -25.2910  -17.2870    7.2640 C   0  0  0  0  0  3  0  0  0  0  0  0
  -28.1020  -23.8540    7.4200 C   0  0  0  0  0  3  0  0  0  0  0  0
  -26.7490  -23.7190    8.2180 C   0  0  1  0  0  0  0  0  0  0  0  0
  -25.6330  -22.9920    7.4310 C   0  0  0  0  0  1  0  0  0  0  0  0
  -26.9740  -22.9450    9.5380 C   0  0  0  0  0  1  0  0  0  0  0  0
  -26.2320  -25.1220    8.6120 C   0  0  0  0  0  1  0  0  0  0  0  0
  -27.8460  -24.1490    6.0040 N   0  0  0  0  0  0  0  0  0  0  0  0
  -28.6030  -24.9560    5.2480 C   0  0  0  0  0  0  0  0  0  0  0  0
  -29.5620  -25.5910    5.6980 O   0  0  0  0  0  0  0  0  0  0  0  0
  -27.1150  -23.6170    5.5550 H   0  0  0  0  0  0  0  0  0  0  0  0
  -29.1390  -24.1390    2.9310 C   0  0  0  0  0  1  0  0  0  0  0  0
  -28.2420  -25.0750    3.7550 C   0  0  0  0  0  3  0  0  0  0  0  0
  -27.2090  -27.2960    3.5910 C   0  0  0  0  0  1  0  0  0  0  0  0
  -28.3490  -26.4560    3.2330 N   0  0  0  0  0  0  0  0  0  0  0  0
  -28.4370  -26.4530    2.2200 H   0  0  0  0  0  0  0  0  0  0  0  0
  -28.0180  -28.5200   12.1410 C   0  0  0  0  0  2  0  0  0  0  0  0
  -27.4150  -27.4280   13.0360 C   0  0  0  0  0  2  0  0  0  0  0  0
  -26.1190  -26.9610   12.5170 N   0  0  0  0  0  4  0  0  0  0  0  0
  -26.3030  -26.3660   11.7220 H   0  0  0  0  0  0  0  0  0  0  0  0
  -25.6090  -27.7660   12.1970 H   0  0  0  0  0  0  0  0  0  0  0  0
  -25.2970  -26.2220   13.4990 C   0  0  0  0  0  2  0  0  0  0  0  0
  -24.1730  -27.1100   14.0680 C   0  0  0  0  0  2  0  0  0  0  0  0
  -22.7650  -26.5190   13.8670 C   0  0  0  0  0  2  0  0  0  0  0  0
  -22.5230  -25.3620   14.7570 N   0  0  0  0  0  4  0  0  0  0  0  0
  -22.0280  -24.6480   14.2470 H   0  0  0  0  0  0  0  0  0  0  0  0
  -23.4110  -24.9790   15.0380 H   0  0  0  0  0  0  0  0  0  0  0  0
  -21.7560  -25.6800   15.9830 C   0  0  0  0  0  2  0  0  0  0  0  0
  -22.5550  -26.6560   16.9070 C   0  0  0  0  0  2  0  0  0  0  0  0
  -22.2820  -27.5410   18.1710 C   0  0  0  0  0  2  0  0  0  0  0  0
  -20.7050  -26.7820   19.9500 C   0  0  0  0  0  0  0  0  0  0  0  0
  -19.6150  -26.6560   22.1530 C   0  0  0  0  0  2  0  0  0  0  0  0
  -19.7700  -28.0050   22.8870 C   0  0  0  0  0  2  0  0  0  0  0  0
  -21.1040  -28.0710   23.6520 C   0  0  0  0  0  2  0  0  0  0  0  0
  -22.3150  -27.6600   22.7760 C   0  0  0  0  0  3  0  0  0  0  0  0
  -22.0200  -26.3270   22.0520 C   0  0  0  0  0  2  0  0  0  0  0  0
  -20.7740  -26.4770   21.2710 N   0  0  0  0  0  0  0  0  0  0  0  0
  -19.6740  -27.1380   19.3730 O   0  0  0  0  0  0  0  0  0  0  0  0
  -21.8850  -26.7260   19.3250 N   0  0  0  0  0  0  0  0  0  0  0  0
  -22.6260  -26.2860   19.8480 H   0  0  0  0  0  0  0  0  0  0  0  0
  -24.8660  -27.7580   23.1630 C   0  0  0  0  0  0  0  0  0  0  0  0
  -25.6210  -27.6450   24.2990 C   0  0  0  0  0  0  0  0  0  0  0  0
  -24.6990  -27.4360   25.3670 C   0  0  0  0  0  0  0  0  0  0  0  0
  -23.5470  -27.5920   23.5650 N   0  0  0  0  0  0  0  0  0  0  0  0
  -23.4610  -27.3560   24.8990 N   0  0  0  0  0  0  0  0  0  0  0  0
  -24.9140  -27.3640   26.8170 C   0  0  0  0  0  0  0  0  0  0  0  0
  -25.5860  -26.2720   27.4100 C   0  0  0  0  0  3  0  0  0  0  0  0
  -25.7920  -26.2340   28.8050 C   0  0  0  0  0  3  0  0  0  0  0  0
  -25.3290  -27.2940   29.6210 C   0  0  0  0  0  0  0  0  0  0  0  0
  -24.6370  -28.3650   29.0260 C   0  0  0  0  0  3  0  0  0  0  0  0
  -24.4280  -28.4000   27.6380 C   0  0  0  0  0  3  0  0  0  0  0  0
  -25.4630  -27.3310   30.9880 O   0  0  0  0  0  0  0  0  0  0  0  0
  -26.4350  -28.0840   31.5960 C   0  0  0  0  0  0  0  0  0  0  0  0
  -26.1430  -29.3250   32.2030 C   0  0  0  0  0  3  0  0  0  0  0  0
  -27.1560  -30.0330   32.8800 C   0  0  0  0  0  3  0  0  0  0  0  0
  -28.4560  -29.5010   32.9560 C   0  0  0  0  0  0  0  0  0  0  0  0
  -28.7480  -28.2640   32.3560 C   0  0  0  0  0  3  0  0  0  0  0  0
  -27.7390  -27.5570   31.6790 C   0  0  0  0  0  0  0  0  0  0  0  0
  -28.0200  -26.3550   31.1210 F   0  0  0  0  0  0  0  0  0  0  0  0
  -29.4280  -30.1780   33.6140 F   0  0  0  0  0  0  0  0  0  0  0  0
  -27.1100  -27.8220   24.4040 C   0  0  0  0  0  0  0  0  0  0  0  0
  -27.8310  -26.7590   24.7520 N   0  0  0  0  0  0  0  0  0  0  0  0
  -27.6490  -28.8920   24.1290 O   0  0  0  0  0  0  0  0  0  0  0  0
  -27.3930  -25.8710   24.9430 H   0  0  0  0  0  0  0  0  0  0  0  0
  -28.8360  -26.8380   24.8150 H   0  0  0  0  0  0  0  0  0  0  0  0
  -25.1800  -28.0080   21.8310 N   0  0  0  0  0  0  0  0  0  0  0  0
  -26.1160  -28.3110   21.5820 H   0  0  0  0  0  0  0  0  0  0  0  0
  -24.4750  -28.3490   21.1900 H   0  0  0  0  0  0  0  0  0  0  0  0
  1  2  1  0
  2  4  1  0
  3  7  1  0
  4  3  1  0
  4  6  1  0
  5  3  2  0
  8 11  1  0
  8  7  1  0
  9  8  1  0
 10  8  1  0
 12 11  1  0
 13 12  1  0
 14 24  1  0
 15 13  1  0
 16 23  1  0
 16 26  1  0
 17 22  1  0
 18 19  1  0
 19 17  2  0
 19 20  1  0
 20 15  2  0
 21 15  1  0
 22 21  2  0
 23 17  1  0
 24 16  1  0
 24 18  1  0
 25 14  2  0
 26 28  2  0
 27 26  1  0
 29 27  1  0
 30 35  1  0
 31 27  1  0
 32 31  1  0
 33 34  1  0
 33 32  1  0
 34 30  1  0
 35 31  1  0
 35 36  2  0
 37 36  1  0
 38 37  2  0
 39 30  2  0
 39 38  1  0
 40 14  1  0
 40 41  1  0
 41 44  1  1
 41 43  1  0
 42 41  1  0
 45 40  1  0
 46 47  2  0
 46 45  1  0
 48 45  1  0
 50 49  1  0
 50 46  1  0
 52 51  1  0
 52 50  1  0
 53 52  1  0
 54  1  1  0
 54 55  1  0
 56 55  1  0
 56 59  1  0
 57 56  1  0
 58 56  1  0
 59 60  1  0
 61 60  1  0
 61 62  1  0
 62 64  1  0
 62 65  1  0
 63 62  1  0
 65 66  1  0
 66 67  1  0
 67 76  1  0
 68 74  1  0
 69 70  1  0
 70 71  1  0
 72 73  1  0
 72 81  1  0
 72 71  1  0
 74 73  1  0
 74 69  1  0
 75 68  2  0
 76 77  1  0
 76 68  1  0
 78 81  1  0
 78 79  2  0
 79 98  1  0
 79 80  1  0
 80 83  1  0
 81 82  1  0
 82 80  2  0
 83 84  2  0
 83 88  1  0
 84 85  1  0
 85 86  2  0
 86 89  1  0
 87 86  1  0
 88 87  2  0
 89 90  1  0
 90 95  2  0
 90 91  1  0
 91 92  2  0
 92 93  1  0
 93 97  1  0
 94 93  2  0
 95 94  1  0
 96 95  1  0
 98 99  1  0
 99102  1  0
 99101  1  0
100 98  2  0
103 78  1  0
104103  1  0
105103  1  0
M  ISO  4  12 101  13 101  68 100  76 100
M  END
>  <TORSDO>  (4) 
F 32

>  <SCORE>  (4) 
-4.746

>  <name>  (4) 
3

>  <ligand_id>  (4) 
3

>  <original_smiles>  (4) 
[H]c1c([H])c([H])c2c(c1[H])C([H])([H])C([H])([H])C([H])([H])C2([H])N([H])C(=O)C1([H])N(C(=O)C([H])(N([H])C(=O)C([H])(N([H])C([H])([H])[H])C([H])([H])[H])C(C([H])([H])[H])(C([H])([H])[H])C([H])([H])[H])C([H])([H])c2c([H])c(OC([H])([H])C([H])([H])[N+]([H])([H])C([H])([H])C(=O)N([H])C([H])([H])C([H])([H])C([H])([H])C([H])([H])[N+]([H])([H])C([H])([H])C([H])([H])C([H])([H])[N+]([H])([H])C([H])([H])C([H])([H])C([H])([H])N([H])C(=O)N3C([H])([H])C([H])([H])C([H])([H])C([H])(n4nc(-c5c([H])c([H])c(Oc6c([H])c([H])c(F)c([H])c6F)c([H])c5[H])c(C(=O)N([H])[H])c4N([H])[H])C3([H])[H])c([H])c([H])c2C1([H])[H]

>  <smiles>  (4) 
[H]c1c([H])c([H])c2c(c1[H])C([H])([H])C([H])([H])C([H])([H])C2([H])N([H])C(=O)C1([H])N(C(=O)C([H])(N([H])C(=O)C([H])(N([H])C([H])([H])[H])C([H])([H])[H])C(C([H])([H])[H])(C([H])([H])[H])C([H])([H])[H])C([H])([H])c2c([H])c(OC([H])([H])C([H])([H])[N+]([H])([H])C([H])([H])C(=O)N([H])C([H])([H])C([H])([H])C([H])([H])C([H])([H])[N+]([H])([H])C([H])([H])C([H])([H])C([H])([H])[N+]([H])([H])C([H])([H])C([H])([H])C([H])([H])N([H])C(=O)N3C([H])([H])C([H])([H])C([H])([H])C([H])(n4nc(-c5c([H])c([H])c(Oc6c([H])c([H])c(F)c([H])c6F)c([H])c5[H])c(C(=O)N([H])[H])c4N([H])[H])C3([H])[H])c([H])c([H])c2C1([H])[H]

$$$$
4:0:0
     RDKit          3D

 97104  0  0  1  0  0  0  0  0999 V2000
  -30.1550  -21.9480   23.3690 C   0  0  0  0  0  0  0  0  0  0  0  0
  -29.0770  -22.0900   22.5980 N   0  0  0  0  0  0  0  0  0  0  0  0
  -30.7840  -22.9080   23.8170 O   0  0  0  0  0  0  0  0  0  0  0  0
  -28.6150  -21.2510   22.2690 H   0  0  0  0  0  0  0  0  0  0  0  0
  -31.7070  -20.1240   23.0670 C   0  0  0  0  0  3  0  0  0  0  0  0
  -30.5150  -20.5570   23.5170 C   0  0  0  0  0  3  0  0  0  0  0  0
  -32.0180  -18.7200   23.1390 C   0  0  0  0  0  0  0  0  0  0  0  0
  -32.6140  -18.3190   22.0130 N   0  0  0  0  0  0  0  0  0  0  0  0
  -31.7190  -17.9620   24.0640 O   0  0  0  0  0  0  0  0  0  0  0  0
  -32.8360  -19.0350   21.3330 H   0  0  0  0  0  0  0  0  0  0  0  0
  -32.8400  -16.9340   21.6180 C   0  0  0  0  0  2  0  0  0  0  0  0
  -31.5230  -16.1940   21.3140 C   0  0  0  0  0  2  0  0  0  0  0  0
  -30.9250  -16.4820   19.9200 C   0  0  0  0  0  2  0  0  0  0  0  0
  -30.1160  -14.6420   18.4310 C   0  0  0  0  0  0  0  0  0  0  0  0
  -29.9060  -12.3000   17.6850 C   0  0  0  0  0  2  0  0  0  0  0  0
  -28.6970  -12.0220   16.7800 C   0  0  0  0  0  2  0  0  0  0  0  0
  -27.4420  -11.7360   17.6230 C   0  0  0  0  0  2  0  0  0  0  0  0
  -27.2010  -12.8120   18.7120 C   0  0  0  0  0  3  0  0  0  0  0  0
  -28.4860  -13.0670   19.5230 C   0  0  0  0  0  2  0  0  0  0  0  0
  -29.5760  -13.4110   18.5880 N   0  0  0  0  0  0  0  0  0  0  0  0
  -30.7700  -14.9920   17.4440 O   0  0  0  0  0  0  0  0  0  0  0  0
  -30.0580  -15.3730   19.5480 N   0  0  0  0  0  0  0  0  0  0  0  0
  -29.4960  -14.9740   20.2850 H   0  0  0  0  0  0  0  0  0  0  0  0
  -25.2560  -13.2620   20.3400 C   0  0  0  0  0  0  0  0  0  0  0  0
  -24.3280  -12.4300   20.9080 C   0  0  0  0  0  0  0  0  0  0  0  0
  -24.6430  -11.1160   20.4460 C   0  0  0  0  0  0  0  0  0  0  0  0
  -26.0830  -12.4480   19.5800 N   0  0  0  0  0  0  0  0  0  0  0  0
  -25.7350  -11.1410   19.6930 N   0  0  0  0  0  0  0  0  0  0  0  0
  -23.9350   -9.8430   20.6310 C   0  0  0  0  0  0  0  0  0  0  0  0
  -24.3960   -8.8660   21.5420 C   0  0  0  0  0  3  0  0  0  0  0  0
  -23.6890   -7.6580   21.7150 C   0  0  0  0  0  3  0  0  0  0  0  0
  -22.5050   -7.4160   20.9760 C   0  0  0  0  0  0  0  0  0  0  0  0
  -22.0630   -8.3810   20.0550 C   0  0  0  0  0  3  0  0  0  0  0  0
  -22.7720   -9.5820   19.8810 C   0  0  0  0  0  3  0  0  0  0  0  0
  -21.7670   -6.2600   21.0600 O   0  0  0  0  0  0  0  0  0  0  0  0
  -21.5090   -5.6570   22.2640 C   0  0  0  0  0  0  0  0  0  0  0  0
  -20.7880   -6.3110   23.2880 C   0  0  0  0  0  3  0  0  0  0  0  0
  -20.4850   -5.6290   24.4830 C   0  0  0  0  0  3  0  0  0  0  0  0
  -20.8910   -4.2910   24.6530 C   0  0  0  0  0  0  0  0  0  0  0  0
  -21.6030   -3.6360   23.6330 C   0  0  0  0  0  3  0  0  0  0  0  0
  -21.9080   -4.3160   22.4410 C   0  0  0  0  0  0  0  0  0  0  0  0
  -22.5760   -3.6730   21.4530 F   0  0  0  0  0  0  0  0  0  0  0  0
  -20.5930   -3.6330   25.7970 F   0  0  0  0  0  0  0  0  0  0  0  0
  -23.1570  -12.8410   21.7530 C   0  0  0  0  0  0  0  0  0  0  0  0
  -22.7250  -11.9760   22.6650 N   0  0  0  0  0  0  0  0  0  0  0  0
  -22.6460  -13.9540   21.6410 O   0  0  0  0  0  0  0  0  0  0  0  0
  -23.1570  -11.0700   22.7700 H   0  0  0  0  0  0  0  0  0  0  0  0
  -21.9530  -12.2240   23.2670 H   0  0  0  0  0  0  0  0  0  0  0  0
  -25.4550  -14.6390   20.3910 N   0  0  0  0  0  0  0  0  0  0  0  0
  -24.8340  -15.2600   20.8970 H   0  0  0  0  0  0  0  0  0  0  0  0
  -26.1810  -15.1310   19.8830 H   0  0  0  0  0  0  0  0  0  0  0  0
  -28.6560  -23.3590   22.0260 C   0  0  0  0  0  2  0  0  0  0  0  0
  -27.6330  -23.1540   20.8950 C   0  0  0  0  0  2  0  0  0  0  0  0
  -27.9860  -23.9430   19.7660 O   0  0  0  0  0  0  0  0  0  0  0  0
  -27.7290  -25.3300   19.9350 C   0  0  0  0  0  2  0  0  0  0  0  0
  -28.3030  -26.1030   18.7330 C   0  0  0  0  0  2  0  0  0  0  0  0
  -28.3030  -27.5090   18.9770 O   0  0  0  0  0  0  0  0  0  0  0  0
  -24.6680  -31.8160   23.2890 C   0  0  0  0  0  0  0  0  0  0  0  0
  -27.1020  -28.1480   19.1960 C   0  0  0  0  0  0  0  0  0  0  0  0
  -23.3490  -30.7450   21.4920 C   0  0  0  0  0  3  0  0  0  0  0  0
  -24.6980  -29.5480   19.6930 C   0  0  0  0  0  0  0  0  0  0  0  0
  -25.8490  -31.1890   21.1880 C   0  0  0  0  0  2  0  0  0  0  0  0
  -25.8910  -29.9760   20.2840 C   0  0  0  0  0  0  0  0  0  0  0  0
  -27.0940  -29.2840   20.0330 C   0  0  0  0  0  3  0  0  0  0  0  0
  -25.8830  -27.7270   18.6070 C   0  0  0  0  0  3  0  0  0  0  0  0
  -24.6860  -28.4220   18.8530 C   0  0  0  0  0  3  0  0  0  0  0  0
  -23.4580  -30.3560   19.9930 C   0  0  0  0  0  2  0  0  0  0  0  0
  -24.6440  -31.2520   22.0490 N   0  0  0  0  0  0  0  0  0  0  0  0
  -23.6290  -31.9540   23.9500 O   0  0  0  0  0  0  0  0  0  0  0  0
  -22.7790  -29.5400   22.2730 C   0  0  0  0  0  0  0  0  0  0  0  0
  -21.4820  -29.2550   22.0700 N   0  0  0  0  0  0  0  0  0  0  0  0
  -23.4980  -28.8710   23.0180 O   0  0  0  0  0  0  0  0  0  0  0  0
  -20.9560  -29.8570   21.4510 H   0  0  0  0  0  0  0  0  0  0  0  0
  -18.2760  -27.5930   22.1320 C   0  0  0  0  0  0  0  0  0  0  0  0
  -20.7430  -28.1460   22.6700 C   0  0  0  0  0  3  0  0  0  0  0  0
  -21.0880  -26.8080   21.9760 C   0  0  0  0  0  2  0  0  0  0  0  0
  -20.1270  -26.4530   20.8370 C   0  0  0  0  0  2  0  0  0  0  0  0
  -18.6910  -26.3540   21.3570 C   0  0  0  0  0  2  0  0  0  0  0  0
  -19.2410  -28.4420   22.7360 C   0  0  0  0  0  0  0  0  0  0  0  0
  -18.8030  -29.6000   23.4160 C   0  0  0  0  0  3  0  0  0  0  0  0
  -17.4330  -29.9110   23.5000 C   0  0  0  0  0  3  0  0  0  0  0  0
  -16.4830  -29.0600   22.9110 C   0  0  0  0  0  3  0  0  0  0  0  0
  -16.9040  -27.9020   22.2350 C   0  0  0  0  0  3  0  0  0  0  0  0
  -25.9940  -32.3360   23.9250 C   0  0  0  0  0  3  0  0  0  0  0  0
  -26.4370  -31.5180   25.1990 C   0  0  1  0  0  0  0  0  0  0  0  0
  -25.3060  -31.3200   26.2340 C   0  0  0  0  0  1  0  0  0  0  0  0
  -26.9580  -30.1180   24.7980 C   0  0  0  0  0  1  0  0  0  0  0  0
  -27.6080  -32.2400   25.9060 C   0  0  0  0  0  1  0  0  0  0  0  0
  -25.7980  -33.7530   24.2590 N   0  0  0  0  0  0  0  0  0  0  0  0
  -26.2630  -34.7780   23.5330 C   0  0  0  0  0  0  0  0  0  0  0  0
  -26.9750  -34.6240   22.5370 O   0  0  0  0  0  0  0  0  0  0  0  0
  -25.1770  -33.9530   25.0310 H   0  0  0  0  0  0  0  0  0  0  0  0
  -24.7440  -36.7340   23.0920 C   0  0  0  0  0  1  0  0  0  0  0  0
  -25.8760  -36.2000   23.9840 C   0  0  0  0  0  3  0  0  0  0  0  0
  -28.0190  -36.8580   24.9840 C   0  0  0  0  0  1  0  0  0  0  0  0
  -27.0090  -37.1500   23.9690 N   0  0  0  0  0  0  0  0  0  0  0  0
  -26.6820  -38.1020   24.1120 H   0  0  0  0  0  0  0  0  0  0  0  0
  1  6  1  0
  1  3  2  0
  2  1  1  0
  4  2  1  0
  5  7  1  0
  5  6  2  0
  7  9  2  0
  8  7  1  0
 10  8  1  0
 11  8  1  0
 12 11  1  0
 13 12  1  0
 14 20  1  0
 14 22  1  0
 15 20  1  0
 16 17  1  0
 16 15  1  0
 18 17  1  0
 18 19  1  0
 18 27  1  0
 20 19  1  0
 21 14  2  0
 22 13  1  0
 22 23  1  0
 24 49  1  0
 24 25  2  0
 25 44  1  0
 26 29  1  0
 26 25  1  0
 27 28  1  0
 27 24  1  0
 28 26  2  0
 29 30  1  0
 30 31  2  0
 32 35  1  0
 32 31  1  0
 33 32  2  0
 34 33  1  0
 34 29  2  0
 35 36  1  0
 36 41  2  0
 36 37  1  0
 37 38  2  0
 38 39  1  0
 39 43  1  0
 40 39  2  0
 41 40  1  0
 42 41  1  0
 44 45  1  0
 45 47  1  0
 45 48  1  0
 46 44  2  0
 49 50  1  0
 51 49  1  0
 52  2  1  0
 53 52  1  0
 54 55  1  0
 54 53  1  0
 56 57  1  0
 56 55  1  0
 57 59  1  0
 58 69  2  0
 59 64  1  0
 60 68  1  0
 60 70  1  0
 61 67  1  0
 61 63  1  0
 62 68  1  0
 63 62  1  0
 64 63  2  0
 65 66  1  0
 65 59  2  0
 66 61  2  0
 67 60  1  0
 68 58  1  0
 70 72  2  0
 71 70  1  0
 73 71  1  0
 74 83  2  0
 74 79  1  0
 75 71  1  0
 75 79  1  0
 76 75  1  0
 77 78  1  0
 77 76  1  0
 78 74  1  0
 79 80  2  0
 80 81  1  0
 82 81  2  0
 83 82  1  0
 84 58  1  0
 84 89  1  0
 84 85  1  0
 85 88  1  1
 85 86  1  0
 87 85  1  0
 89 92  1  0
 90 94  1  0
 90 89  1  0
 91 90  2  0
 94 93  1  0
 96 94  1  0
 96 97  1  0
 96 95  1  0
M  ISO  4  14 100  22 100  56 101  57 101
M  END
>  <TORSDO>  (5) 
F 26

>  <SCORE>  (5) 
-0.795

>  <name>  (5) 
4

>  <ligand_id>  (5) 
4

>  <original_smiles>  (5) 
[H]C(C(=O)N([H])C([H])([H])C([H])([H])OC([H])([H])C([H])([H])Oc1c([H])c([H])c2c(c1[H])C([H])([H])N(C(=O)C([H])(N([H])C(=O)C([H])(N([H])C([H])([H])[H])C([H])([H])[H])C(C([H])([H])[H])(C([H])([H])[H])C([H])([H])[H])C([H])(C(=O)N([H])C1([H])c3c([H])c([H])c([H])c([H])c3C([H])([H])C([H])([H])C1([H])[H])C2([H])[H])=C([H])C(=O)N([H])C([H])([H])C([H])([H])C([H])([H])N([H])C(=O)N1C([H])([H])C([H])([H])C([H])([H])C([H])(n2nc(-c3c([H])c([H])c(Oc4c([H])c([H])c(F)c([H])c4F)c([H])c3[H])c(C(=O)N([H])[H])c2N([H])[H])C1([H])[H]

>  <smiles>  (5) 
[H]C(C(=O)N([H])C([H])([H])C([H])([H])OC([H])([H])C([H])([H])Oc1c([H])c([H])c2c(c1[H])C([H])([H])N(C(=O)C([H])(N([H])C(=O)C([H])(N([H])C([H])([H])[H])C([H])([H])[H])C(C([H])([H])[H])(C([H])([H])[H])C([H])([H])[H])C([H])(C(=O)N([H])C1([H])c3c([H])c([H])c([H])c([H])c3C([H])([H])C([H])([H])C1([H])[H])C2([H])[H])=C([H])C(=O)N([H])C([H])([H])C([H])([H])C([H])([H])N([H])C(=O)N1C([H])([H])C([H])([H])C([H])([H])C([H])(n2nc(-c3c([H])c([H])c(Oc4c([H])c([H])c(F)c([H])c4F)c([H])c3[H])c(C(=O)N([H])[H])c2N([H])[H])C1([H])[H]

$$$$
5:0:0
     RDKit          3D

102109  0  0  1  0  0  0  0  0999 V2000
  -26.2160  -23.6880   21.1550 C   0  0  0  0  0  3  0  0  0  0  0  0
  -26.9660  -24.1910   20.1530 C   0  0  0  0  0  0  0  0  0  0  0  0
  -28.4250  -24.2040   20.0870 C   0  0  0  0  0  0  0  0  0  0  0  0
  -29.0840  -23.9620   21.2320 N   0  0  0  0  0  0  0  0  0  0  0  0
  -29.0310  -24.3560   19.0230 O   0  0  0  0  0  0  0  0  0  0  0  0
  -28.5780  -23.8960   22.1040 H   0  0  0  0  0  0  0  0  0  0  0  0
  -30.4970  -23.5730   21.2340 C   0  0  0  0  0  2  0  0  0  0  0  0
  -30.9810  -23.0350   22.5900 C   0  0  0  0  0  2  0  0  0  0  0  0
  -31.5460  -21.7540   22.3490 O   0  0  0  0  0  0  0  0  0  0  0  0
  -31.7800  -20.9740   23.5120 C   0  0  0  0  0  2  0  0  0  0  0  0
  -31.5130  -19.5030   23.1590 C   0  0  0  0  0  2  0  0  0  0  0  0
  -32.1810  -19.0570   21.8370 C   0  0  0  0  0  2  0  0  0  0  0  0
  -31.3930  -17.9790   21.0740 C   0  0  0  0  0  2  0  0  0  0  0  0
  -29.9890  -18.4630   20.6400 C   0  0  0  0  0  2  0  0  0  0  0  0
  -29.4710  -17.8110   19.3510 C   0  0  0  0  0  2  0  0  0  0  0  0
  -29.7300  -15.3590   19.0650 C   0  0  0  0  0  0  0  0  0  0  0  0
  -30.1050  -12.9360   19.2950 C   0  0  0  0  0  2  0  0  0  0  0  0
  -29.3030  -12.1320   18.2630 C   0  0  0  0  0  2  0  0  0  0  0  0
  -27.9060  -11.8070   18.8150 C   0  0  0  0  0  2  0  0  0  0  0  0
  -27.1720  -13.0720   19.3300 C   0  0  0  0  0  3  0  0  0  0  0  0
  -28.0820  -13.8860   20.2820 C   0  0  0  0  0  2  0  0  0  0  0  0
  -29.3620  -14.1670   19.5980 N   0  0  0  0  0  0  0  0  0  0  0  0
  -30.6420  -15.4930   18.2440 O   0  0  0  0  0  0  0  0  0  0  0  0
  -29.1100  -16.4160   19.5890 N   0  0  0  0  0  0  0  0  0  0  0  0
  -28.3920  -16.2250   20.2690 H   0  0  0  0  0  0  0  0  0  0  0  0
  -24.8890  -13.5670   20.4170 C   0  0  0  0  0  0  0  0  0  0  0  0
  -23.8900  -12.7400   20.8590 C   0  0  0  0  0  0  0  0  0  0  0  0
  -24.3550  -11.4070   20.6400 C   0  0  0  0  0  0  0  0  0  0  0  0
  -25.8990  -12.7310   19.9610 N   0  0  0  0  0  0  0  0  0  0  0  0
  -25.5890  -11.4230   20.1500 N   0  0  0  0  0  0  0  0  0  0  0  0
  -23.6770  -10.1170   20.8180 C   0  0  0  0  0  0  0  0  0  0  0  0
  -24.1570   -9.1520   21.7320 C   0  0  0  0  0  3  0  0  0  0  0  0
  -23.4780   -7.9250   21.8980 C   0  0  0  0  0  3  0  0  0  0  0  0
  -22.3090   -7.6540   21.1490 C   0  0  0  0  0  0  0  0  0  0  0  0
  -21.8480   -8.6080   20.2250 C   0  0  0  0  0  3  0  0  0  0  0  0
  -22.5250   -9.8280   20.0600 C   0  0  0  0  0  3  0  0  0  0  0  0
  -21.6020   -6.4780   21.2220 O   0  0  0  0  0  0  0  0  0  0  0  0
  -21.4300   -5.8140   22.4090 C   0  0  0  0  0  0  0  0  0  0  0  0
  -20.8040   -6.4190   23.5200 C   0  0  0  0  0  3  0  0  0  0  0  0
  -20.5850   -5.6770   24.6980 C   0  0  0  0  0  3  0  0  0  0  0  0
  -20.9840   -4.3280   24.7620 C   0  0  0  0  0  0  0  0  0  0  0  0
  -21.6030   -3.7220   23.6540 C   0  0  0  0  0  3  0  0  0  0  0  0
  -21.8220   -4.4620   22.4810 C   0  0  0  0  0  0  0  0  0  0  0  0
  -22.4000   -3.8680   21.4090 F   0  0  0  0  0  0  0  0  0  0  0  0
  -20.7680   -3.6110   25.8880 F   0  0  0  0  0  0  0  0  0  0  0  0
  -22.5400  -13.1600   21.3670 C   0  0  0  0  0  0  0  0  0  0  0  0
  -21.9570  -12.3880   22.2780 N   0  0  0  0  0  0  0  0  0  0  0  0
  -22.0180  -14.2090   20.9960 O   0  0  0  0  0  0  0  0  0  0  0  0
  -22.3900  -11.5350   22.6020 H   0  0  0  0  0  0  0  0  0  0  0  0
  -21.0600  -12.6560   22.6600 H   0  0  0  0  0  0  0  0  0  0  0  0
  -25.0190  -14.9500   20.3400 N   0  0  0  0  0  0  0  0  0  0  0  0
  -25.8240  -15.4270   19.9540 H   0  0  0  0  0  0  0  0  0  0  0  0
  -24.2770  -15.5820   20.6250 H   0  0  0  0  0  0  0  0  0  0  0  0
  -26.2320  -24.7580   19.0060 N   0  0  0  0  0  4  0  0  0  0  0  0
  -26.6290  -24.3630   18.1710 H   0  0  0  0  0  0  0  0  0  0  0  0
  -25.2780  -24.4420   19.0750 H   0  0  0  0  0  0  0  0  0  0  0  0
  -26.2540  -26.2350   18.9220 C   0  0  0  0  0  2  0  0  0  0  0  0
  -25.7740  -26.7440   17.5450 C   0  0  0  0  0  2  0  0  0  0  0  0
  -25.8370  -28.1700   17.4840 O   0  0  0  0  0  0  0  0  0  0  0  0
  -25.9210  -30.7190   24.0970 C   0  0  0  0  0  0  0  0  0  0  0  0
  -25.1420  -28.9050   18.4210 C   0  0  0  0  0  0  0  0  0  0  0  0
  -23.7640  -30.9190   22.9060 C   0  0  0  0  0  3  0  0  0  0  0  0
  -23.8280  -30.4200   20.4110 C   0  0  0  0  0  0  0  0  0  0  0  0
  -25.9730  -30.8830   21.6110 C   0  0  0  0  0  2  0  0  0  0  0  0
  -25.2160  -30.2450   20.4650 C   0  0  0  0  0  0  0  0  0  0  0  0
  -25.8750  -29.4980   19.4690 C   0  0  0  0  0  3  0  0  0  0  0  0
  -23.7370  -29.0890   18.3810 C   0  0  0  0  0  3  0  0  0  0  0  0
  -23.0830  -29.8450   19.3710 C   0  0  0  0  0  3  0  0  0  0  0  0
  -23.2010  -31.2550   21.4990 C   0  0  0  0  0  2  0  0  0  0  0  0
  -25.2600  -30.8110   22.9090 N   0  0  0  0  0  0  0  0  0  0  0  0
  -25.3120  -30.7670   25.1750 O   0  0  0  0  0  0  0  0  0  0  0  0
  -23.0530  -29.6520   23.4350 C   0  0  0  0  0  0  0  0  0  0  0  0
  -21.7240  -29.5980   23.2570 N   0  0  0  0  0  0  0  0  0  0  0  0
  -23.6940  -28.7390   23.9630 O   0  0  0  0  0  0  0  0  0  0  0  0
  -21.2750  -30.3900   22.8200 H   0  0  0  0  0  0  0  0  0  0  0  0
  -18.5290  -28.0420   22.5930 C   0  0  0  0  0  0  0  0  0  0  0  0
  -20.8470  -28.4930   23.6430 C   0  0  0  0  0  3  0  0  0  0  0  0
  -21.2920  -27.1710   22.9750 C   0  0  0  0  0  2  0  0  0  0  0  0
  -20.5750  -26.8910   21.6500 C   0  0  0  0  0  2  0  0  0  0  0  0
  -19.0600  -26.8190   21.8640 C   0  0  0  0  0  2  0  0  0  0  0  0
  -19.3700  -28.8360   23.4160 C   0  0  0  0  0  0  0  0  0  0  0  0
  -18.8340  -29.9790   24.0440 C   0  0  0  0  0  3  0  0  0  0  0  0
  -17.4830  -30.3340   23.8620 C   0  0  0  0  0  3  0  0  0  0  0  0
  -16.6510  -29.5370   23.0580 C   0  0  0  0  0  3  0  0  0  0  0  0
  -17.1700  -28.3910   22.4300 C   0  0  0  0  0  3  0  0  0  0  0  0
  -27.4720  -30.5750   24.1620 C   0  0  0  0  0  3  0  0  0  0  0  0
  -27.9640  -31.5260   25.1670 N   0  0  0  0  0  0  0  0  0  0  0  0
  -28.6630  -32.6340   24.8830 C   0  0  0  0  0  0  0  0  0  0  0  0
  -29.0270  -32.9220   23.7390 O   0  0  0  0  0  0  0  0  0  0  0  0
  -27.6530  -31.3870   26.1170 H   0  0  0  0  0  0  0  0  0  0  0  0
  -28.1350  -34.8310   25.9890 C   0  0  0  0  0  1  0  0  0  0  0  0
  -29.0120  -33.5720   26.0540 C   0  0  0  0  0  3  0  0  0  0  0  0
  -31.3330  -32.8500   26.4180 C   0  0  0  0  0  1  0  0  0  0  0  0
  -30.4410  -33.9590   26.0880 N   0  0  0  0  0  0  0  0  0  0  0  0
  -30.5960  -34.7050   26.7630 H   0  0  0  0  0  0  0  0  0  0  0  0
  -27.9450  -29.1080   24.5010 C   0  0  1  0  0  0  0  0  0  0  0  0
  -27.2720  -28.5110   25.7590 C   0  0  0  0  0  1  0  0  0  0  0  0
  -27.6560  -28.1590   23.3160 C   0  0  0  0  0  1  0  0  0  0  0  0
  -29.4780  -29.0900   24.7130 C   0  0  0  0  0  1  0  0  0  0  0  0
  -24.8480  -23.6930   21.0560 O   0  0  0  0  0  0  0  0  0  0  0  0
  -22.6530  -23.8660   21.9630 C   0  0  0  0  0  1  0  0  0  0  0  0
  -24.1480  -23.8760   22.2770 C   0  0  0  0  0  2  0  0  0  0  0  0
  2  1  2  0
  3  2  1  0
  3  4  1  0
  4  7  1  0
  4  6  1  0
  5  3  2  0
  7  8  1  0
  9  8  1  0
  9 10  1  0
 11 10  1  0
 12 11  1  0
 13 12  1  0
 14 13  1  0
 15 24  1  0
 15 14  1  0
 16 24  1  0
 16 22  1  0
 17 22  1  0
 18 19  1  0
 18 17  1  0
 20 19  1  0
 20 29  1  0
 20 21  1  0
 22 21  1  0
 23 16  2  0
 24 25  1  0
 26 27  2  0
 27 46  1  0
 28 31  1  0
 28 27  1  0
 29 30  1  0
 29 26  1  0
 30 28  2  0
 31 32  1  0
 32 33  2  0
 34 37  1  0
 34 33  1  0
 35 34  2  0
 36 35  1  0
 36 31  2  0
 37 38  1  0
 38 43  2  0
 38 39  1  0
 39 40  2  0
 40 41  1  0
 41 45  1  0
 42 41  2  0
 43 42  1  0
 44 43  1  0
 46 47  1  0
 47 49  1  0
 47 50  1  0
 48 46  2  0
 51 26  1  0
 51 53  1  0
 52 51  1  0
 54 56  1  0
 54  2  1  0
 55 54  1  0
 57 54  1  0
 58 57  1  0
 59 58  1  0
 59 61  1  0
 60 71  2  0
 61 66  1  0
 62 70  1  0
 62 72  1  0
 63 65  1  0
 63 69  1  0
 64 70  1  0
 65 64  1  0
 66 65  2  0
 67 61  2  0
 67 68  1  0
 68 63  2  0
 69 62  1  0
 70 60  1  0
 72 74  2  0
 73 72  1  0
 75 73  1  0
 76 81  1  0
 77 73  1  0
 78 77  1  0
 79 80  1  0
 79 78  1  0
 80 76  1  0
 81 77  1  0
 81 82  2  0
 83 82  1  0
 84 83  2  0
 85 76  2  0
 85 84  1  0
 86 60  1  0
 86 96  1  0
 86 87  1  0
 87 90  1  0
 88 87  1  0
 88 92  1  0
 89 88  2  0
 92 91  1  0
 92 94  1  0
 94 93  1  0
 94 95  1  0
 96 99  1  1
 96 97  1  0
 98 96  1  0
100  1  1  0
100102  1  0
101102  1  0
M  ISO  4  16 100  24 100  58 101  59 101
M  END
>  <TORSDO>  (6) 
F 31

>  <SCORE>  (6) 
-7.442

>  <name>  (6) 
5

>  <ligand_id>  (6) 
5

>  <original_smiles>  (6) 
[H]C(OC([H])([H])C([H])([H])[H])=C(C(=O)N([H])C([H])([H])C([H])([H])OC([H])([H])C([H])([H])C([H])([H])C([H])([H])C([H])([H])C([H])([H])N([H])C(=O)N1C([H])([H])C([H])([H])C([H])([H])C([H])(n2nc(-c3c([H])c([H])c(Oc4c([H])c([H])c(F)c([H])c4F)c([H])c3[H])c(C(=O)N([H])[H])c2N([H])[H])C1([H])[H])[N+]([H])([H])C([H])([H])C([H])([H])Oc1c([H])c([H])c2c(c1[H])C([H])([H])N(C(=O)C([H])(N([H])C(=O)C([H])(N([H])C([H])([H])[H])C([H])([H])[H])C(C([H])([H])[H])(C([H])([H])[H])C([H])([H])[H])C([H])(C(=O)N([H])C1([H])c3c([H])c([H])c([H])c([H])c3C([H])([H])C([H])([H])C1([H])[H])C2([H])[H]

>  <smiles>  (6) 
[H]C(OC([H])([H])C([H])([H])[H])=C(C(=O)N([H])C([H])([H])C([H])([H])OC([H])([H])C([H])([H])C([H])([H])C([H])([H])C([H])([H])C([H])([H])N([H])C(=O)N1C([H])([H])C([H])([H])C([H])([H])C([H])(n2nc(-c3c([H])c([H])c(Oc4c([H])c([H])c(F)c([H])c4F)c([H])c3[H])c(C(=O)N([H])[H])c2N([H])[H])C1([H])[H])[N+]([H])([H])C([H])([H])C([H])([H])Oc1c([H])c([H])c2c(c1[H])C([H])([H])N(C(=O)C([H])(N([H])C(=O)C([H])(N([H])C([H])([H])[H])C([H])([H])[H])C(C([H])([H])[H])(C([H])([H])[H])C([H])([H])[H])C([H])(C(=O)N([H])C1([H])c3c([H])c([H])c([H])c([H])c3C([H])([H])C([H])([H])C1([H])[H])C2([H])[H]

$$$$
6:0:0
     RDKit          3D

 97104  0  0  1  0  0  0  0  0999 V2000
  -29.3140  -23.9880   14.0880 N   0  0  0  0  0  4  0  0  0  0  0  0
  -29.9340  -24.4690   14.7250 H   0  0  0  0  0  0  0  0  0  0  0  0
  -29.1030  -24.6140   13.3280 H   0  0  0  0  0  0  0  0  0  0  0  0
  -29.9960  -22.7740   13.5860 C   0  0  0  0  0  2  0  0  0  0  0  0
  -31.1570  -22.3720   14.5090 C   0  0  0  0  0  2  0  0  0  0  0  0
  -30.6960  -21.5430   15.5710 O   0  0  0  0  0  0  0  0  0  0  0  0
  -31.7090  -21.3320   16.5480 C   0  0  0  0  0  2  0  0  0  0  0  0
  -31.6490  -19.8970   17.0850 C   0  0  0  0  0  2  0  0  0  0  0  0
  -30.4210  -19.5870   17.9690 C   0  0  0  0  0  2  0  0  0  0  0  0
  -30.7750  -19.1030   19.3970 C   0  0  0  0  0  2  0  0  0  0  0  0
  -30.0400  -17.8140   19.7960 C   0  0  0  0  0  2  0  0  0  0  0  0
  -30.5550  -17.1840   21.1110 C   0  0  0  0  0  2  0  0  0  0  0  0
  -30.9570  -14.8140   20.4880 C   0  0  0  0  0  0  0  0  0  0  0  0
  -30.6430  -12.7590   19.1770 C   0  0  0  0  0  2  0  0  0  0  0  0
  -29.7140  -13.0860   17.9910 C   0  0  0  0  0  2  0  0  0  0  0  0
  -28.2300  -12.9560   18.4020 C   0  0  0  0  0  2  0  0  0  0  0  0
  -27.9040  -13.6900   19.7320 C   0  0  0  0  0  3  0  0  0  0  0  0
  -28.9470  -13.3340   20.8140 C   0  0  0  0  0  2  0  0  0  0  0  0
  -30.2840  -13.6560   20.2830 N   0  0  0  0  0  0  0  0  0  0  0  0
  -32.0580  -15.0610   19.9830 O   0  0  0  0  0  0  0  0  0  0  0  0
  -30.2600  -15.7520   21.1440 N   0  0  0  0  0  0  0  0  0  0  0  0
  -29.3790  -15.4630   21.5410 H   0  0  0  0  0  0  0  0  0  0  0  0
  -25.4890  -14.2890   20.3990 C   0  0  0  0  0  0  0  0  0  0  0  0
  -24.4190  -13.5110   20.7520 C   0  0  0  0  0  0  0  0  0  0  0  0
  -24.8850  -12.1610   20.7210 C   0  0  0  0  0  0  0  0  0  0  0  0
  -26.5410  -13.4120   20.1820 N   0  0  0  0  0  0  0  0  0  0  0  0
  -26.1790  -12.1270   20.4270 N   0  0  0  0  0  0  0  0  0  0  0  0
  -24.1640  -10.8970   20.9010 C   0  0  0  0  0  0  0  0  0  0  0  0
  -24.5560   -9.9540   21.8760 C   0  0  0  0  0  3  0  0  0  0  0  0
  -23.8370   -8.7510   22.0410 C   0  0  0  0  0  3  0  0  0  0  0  0
  -22.7090   -8.4820   21.2290 C   0  0  0  0  0  0  0  0  0  0  0  0
  -22.3370   -9.4120   20.2430 C   0  0  0  0  0  3  0  0  0  0  0  0
  -23.0580  -10.6070   20.0770 C   0  0  0  0  0  3  0  0  0  0  0  0
  -21.9670   -7.3290   21.2990 O   0  0  0  0  0  0  0  0  0  0  0  0
  -21.8210   -6.6360   22.4740 C   0  0  0  0  0  0  0  0  0  0  0  0
  -21.2280   -7.2190   23.6140 C   0  0  0  0  0  3  0  0  0  0  0  0
  -21.0360   -6.4500   24.7790 C   0  0  0  0  0  3  0  0  0  0  0  0
  -21.4270   -5.0970   24.8040 C   0  0  0  0  0  0  0  0  0  0  0  0
  -22.0110   -4.5130   23.6660 C   0  0  0  0  0  3  0  0  0  0  0  0
  -22.2050   -5.2800   22.5040 C   0  0  0  0  0  0  0  0  0  0  0  0
  -22.7500   -4.7060   21.4040 F   0  0  0  0  0  0  0  0  0  0  0  0
  -21.2340   -4.3560   25.9190 F   0  0  0  0  0  0  0  0  0  0  0  0
  -23.0170  -13.9810   21.0100 C   0  0  0  0  0  0  0  0  0  0  0  0
  -22.2790  -13.2750   21.8600 N   0  0  0  0  0  0  0  0  0  0  0  0
  -22.5810  -15.0100   20.4920 O   0  0  0  0  0  0  0  0  0  0  0  0
  -22.6440  -12.4450   22.3020 H   0  0  0  0  0  0  0  0  0  0  0  0
  -21.3350  -13.5690   22.0680 H   0  0  0  0  0  0  0  0  0  0  0  0
  -25.6500  -15.6620   20.2280 N   0  0  0  0  0  0  0  0  0  0  0  0
  -24.8780  -16.3140   20.3280 H   0  0  0  0  0  0  0  0  0  0  0  0
  -26.5080  -16.1070   19.9280 H   0  0  0  0  0  0  0  0  0  0  0  0
  -28.0950  -23.7850   14.8850 C   0  0  0  0  0  2  0  0  0  0  0  0
  -27.9940  -24.9330   15.8970 C   0  0  0  0  0  2  0  0  0  0  0  0
  -29.2800  -25.7580   17.6700 C   0  0  0  0  0  3  0  0  0  0  0  0
  -29.1080  -24.8230   16.8270 N   0  0  0  0  0  0  0  0  0  0  0  0
  -30.3460  -25.6800   18.7480 C   0  0  0  0  0  2  0  0  0  0  0  0
  -29.8450  -26.0160   20.1640 C   0  0  0  0  0  2  0  0  0  0  0  0
  -29.6100  -27.4140   20.3160 O   0  0  0  0  0  0  0  0  0  0  0  0
  -24.9430  -31.7360   23.4300 C   0  0  0  0  0  0  0  0  0  0  0  0
  -28.3220  -27.8960   20.2940 C   0  0  0  0  0  0  0  0  0  0  0  0
  -24.0190  -30.2600   21.6750 C   0  0  0  0  0  3  0  0  0  0  0  0
  -25.7330  -29.0210   20.2630 C   0  0  0  0  0  0  0  0  0  0  0  0
  -26.4620  -31.0030   21.5950 C   0  0  0  0  0  2  0  0  0  0  0  0
  -26.7770  -29.6890   20.9130 C   0  0  0  0  0  0  0  0  0  0  0  0
  -28.0760  -29.1390   20.9180 C   0  0  0  0  0  3  0  0  0  0  0  0
  -27.2480  -27.2220   19.6670 C   0  0  0  0  0  3  0  0  0  0  0  0
  -25.9600  -27.7850   19.6410 C   0  0  0  0  0  3  0  0  0  0  0  0
  -24.3770  -29.6830   20.2800 C   0  0  0  0  0  2  0  0  0  0  0  0
  -25.1580  -31.0080   22.2980 N   0  0  0  0  0  0  0  0  0  0  0  0
  -23.8130  -31.8230   23.9310 O   0  0  0  0  0  0  0  0  0  0  0  0
  -23.4830  -29.1080   22.5570 C   0  0  0  0  0  0  0  0  0  0  0  0
  -22.2430  -28.6740   22.2850 N   0  0  0  0  0  0  0  0  0  0  0  0
  -24.1870  -28.6050   23.4380 O   0  0  0  0  0  0  0  0  0  0  0  0
  -21.7250  -29.1440   21.5550 H   0  0  0  0  0  0  0  0  0  0  0  0
  -19.1700  -26.7800   22.3370 C   0  0  0  0  0  0  0  0  0  0  0  0
  -21.5480  -27.5760   22.9560 C   0  0  0  0  0  3  0  0  0  0  0  0
  -22.0350  -26.2060   22.4330 C   0  0  0  0  0  2  0  0  0  0  0  0
  -21.1840  -25.6600   21.2820 C   0  0  0  0  0  2  0  0  0  0  0  0
  -19.7250  -25.5030   21.7260 C   0  0  0  0  0  2  0  0  0  0  0  0
  -20.0280  -27.7610   22.8990 C   0  0  0  0  0  0  0  0  0  0  0  0
  -19.4670  -28.9470   23.4190 C   0  0  0  0  0  3  0  0  0  0  0  0
  -18.0770  -29.1610   23.3860 C   0  0  0  0  0  3  0  0  0  0  0  0
  -17.2290  -28.1780   22.8460 C   0  0  0  0  0  3  0  0  0  0  0  0
  -17.7740  -26.9880   22.3280 C   0  0  0  0  0  3  0  0  0  0  0  0
  -26.0970  -32.5130   24.1390 C   0  0  0  0  0  3  0  0  0  0  0  0
  -25.6290  -33.8860   24.3730 N   0  0  0  0  0  0  0  0  0  0  0  0
  -25.9260  -34.9320   23.5890 C   0  0  0  0  0  0  0  0  0  0  0  0
  -26.6940  -34.8500   22.6260 O   0  0  0  0  0  0  0  0  0  0  0  0
  -24.9580  -34.0180   25.1170 H   0  0  0  0  0  0  0  0  0  0  0  0
  -24.0740  -36.5240   22.9990 C   0  0  0  0  0  1  0  0  0  0  0  0
  -25.2720  -36.2830   23.9310 C   0  0  0  0  0  3  0  0  0  0  0  0
  -27.2280  -37.4150   24.8910 C   0  0  0  0  0  1  0  0  0  0  0  0
  -26.2060  -37.4280   23.8480 N   0  0  0  0  0  0  0  0  0  0  0  0
  -25.7010  -38.3080   23.9080 H   0  0  0  0  0  0  0  0  0  0  0  0
  -26.5650  -31.8410   25.4860 C   0  0  1  0  0  0  0  0  0  0  0  0
  -25.4030  -31.5200   26.4550 C   0  0  0  0  0  1  0  0  0  0  0  0
  -27.3220  -30.5250   25.2000 C   0  0  0  0  0  1  0  0  0  0  0  0
  -27.5630  -32.7710   26.2190 C   0  0  0  0  0  1  0  0  0  0  0  0
  1  2  1  0
  1 51  1  0
  3  1  1  0
  4  1  1  0
  4  5  1  0
  5  6  1  0
  6  7  1  0
  7  8  1  0
  8  9  1  0
  9 10  1  0
 10 11  1  0
 11 12  1  0
 12 21  1  0
 13 21  1  0
 14 19  1  0
 15 16  1  0
 15 14  1  0
 17 16  1  0
 17 26  1  0
 17 18  1  0
 19 13  1  0
 19 18  1  0
 20 13  2  0
 21 22  1  0
 23 24  2  0
 24 43  1  0
 25 24  1  0
 25 28  1  0
 26 23  1  0
 26 27  1  0
 27 25  2  0
 28 29  1  0
 29 30  2  0
 31 34  1  0
 31 30  1  0
 32 31  2  0
 33 32  1  0
 33 28  2  0
 34 35  1  0
 35 40  2  0
 35 36  1  0
 36 37  2  0
 37 38  1  0
 38 42  1  0
 39 38  2  0
 40 39  1  0
 41 40  1  0
 43 44  1  0
 44 47  1  0
 44 46  1  0
 45 43  2  0
 48 49  1  0
 48 23  1  0
 50 48  1  0
 51 52  1  0
 52 54  1  0
 53 55  1  0
 54 53  2  0
 55 56  1  0
 56 57  1  0
 58 69  2  0
 59 57  1  0
 59 64  1  0
 60 68  1  0
 60 70  1  0
 61 67  1  0
 61 63  1  0
 62 68  1  0
 63 64  2  0
 63 62  1  0
 65 59  2  0
 66 65  1  0
 66 61  2  0
 67 60  1  0
 68 58  1  0
 70 72  2  0
 71 70  1  0
 73 71  1  0
 74 79  1  0
 75 71  1  0
 76 75  1  0
 77 78  1  0
 77 76  1  0
 78 74  1  0
 79 75  1  0
 79 80  2  0
 81 80  1  0
 82 81  2  0
 83 74  2  0
 83 82  1  0
 84 58  1  0
 84 85  1  0
 84 94  1  0
 85 88  1  0
 86 90  1  0
 86 85  1  0
 87 86  2  0
 90 89  1  0
 92 93  1  0
 92 90  1  0
 92 91  1  0
 94 97  1  1
 94 95  1  0
 96 94  1  0
M  ISO  4  13 100  21 100  56 101  57 101
M  END
>  <TORSDO>  (7) 
F 30

>  <SCORE>  (7) 
-8.041

>  <name>  (7) 
6

>  <ligand_id>  (7) 
6

>  <original_smiles>  (7) 
[H]C(=NC([H])([H])C([H])([H])[N+]([H])([H])C([H])([H])C([H])([H])OC([H])([H])C([H])([H])C([H])([H])C([H])([H])C([H])([H])C([H])([H])N([H])C(=O)N1C([H])([H])C([H])([H])C([H])([H])C([H])(n2nc(-c3c([H])c([H])c(Oc4c([H])c([H])c(F)c([H])c4F)c([H])c3[H])c(C(=O)N([H])[H])c2N([H])[H])C1([H])[H])C([H])([H])C([H])([H])Oc1c([H])c([H])c2c(c1[H])C([H])([H])N(C(=O)C([H])(N([H])C(=O)C([H])(N([H])C([H])([H])[H])C([H])([H])[H])C(C([H])([H])[H])(C([H])([H])[H])C([H])([H])[H])C([H])(C(=O)N([H])C1([H])c3c([H])c([H])c([H])c([H])c3C([H])([H])C([H])([H])C1([H])[H])C2([H])[H]

>  <smiles>  (7) 
[H]C(=NC([H])([H])C([H])([H])[N+]([H])([H])C([H])([H])C([H])([H])OC([H])([H])C([H])([H])C([H])([H])C([H])([H])C([H])([H])C([H])([H])N([H])C(=O)N1C([H])([H])C([H])([H])C([H])([H])C([H])(n2nc(-c3c([H])c([H])c(Oc4c([H])c([H])c(F)c([H])c4F)c([H])c3[H])c(C(=O)N([H])[H])c2N([H])[H])C1([H])[H])C([H])([H])C([H])([H])Oc1c([H])c([H])c2c(c1[H])C([H])([H])N(C(=O)C([H])(N([H])C(=O)C([H])(N([H])C([H])([H])[H])C([H])([H])[H])C(C([H])([H])[H])(C([H])([H])[H])C([H])([H])[H])C([H])(C(=O)N([H])C1([H])c3c([H])c([H])c([H])c([H])c3C([H])([H])C([H])([H])C1([H])[H])C2([H])[H]

$$$$
8:0:0
     RDKit          3D

111119  0  0  1  0  0  0  0  0999 V2000
  -31.1020  -22.0530   20.2920 C   0  0  0  0  0  0  0  0  0  0  0  0
  -31.5590  -20.9880   19.6040 N   0  0  0  0  0  0  0  0  0  0  0  0
  -30.9240  -21.9900   21.5110 O   0  0  0  0  0  0  0  0  0  0  0  0
  -31.6150  -21.0920   18.5970 H   0  0  0  0  0  0  0  0  0  0  0  0
  -31.2560  -23.3980   18.0560 C   0  0  0  0  0  0  0  0  0  0  0  0
  -28.2050  -23.1980   17.9350 C   0  0  0  0  0  2  0  0  0  0  0  0
  -29.2660  -22.2810   17.3060 C   0  0  0  0  0  2  0  0  0  0  0  0
  -28.3580  -23.3780   19.4540 C   0  0  0  0  0  2  0  0  0  0  0  0
  -30.8760  -23.4110   19.5530 C   0  0  0  0  0  3  0  0  0  0  0  0
  -30.5390  -22.9500   17.0930 N   0  0  0  0  0  0  0  0  0  0  0  0
  -29.5880  -24.1370   19.8140 N   0  0  2  0  0  4  0  0  0  0  0  0
  -29.6170  -24.9080   19.1630 H   0  0  0  0  0  0  0  0  0  0  0  0
  -32.9370  -24.4920   16.5730 C   0  0  0  0  0  2  0  0  0  0  0  0
  -32.5990  -23.9400   17.7510 C   0  0  0  0  0  3  0  0  0  0  0  0
  -29.5490  -24.8040   21.1550 C   0  0  0  0  0  2  0  0  0  0  0  0
  -28.4500  -25.8680   21.3170 C   0  0  0  0  0  2  0  0  0  0  0  0
  -28.4500  -26.7740   20.2140 O   0  0  0  0  0  0  0  0  0  0  0  0
  -24.5730  -31.8930   23.2470 C   0  0  0  0  0  0  0  0  0  0  0  0
  -27.2970  -27.5140   20.1830 C   0  0  0  0  0  0  0  0  0  0  0  0
  -23.3940  -30.4830   21.5880 C   0  0  0  0  0  3  0  0  0  0  0  0
  -24.8810  -28.9620   20.1800 C   0  0  0  0  0  0  0  0  0  0  0  0
  -25.9180  -30.8730   21.4180 C   0  0  0  0  0  2  0  0  0  0  0  0
  -26.0240  -29.5080   20.7750 C   0  0  0  0  0  0  0  0  0  0  0  0
  -27.2400  -28.7900   20.7770 C   0  0  0  0  0  3  0  0  0  0  0  0
  -26.1450  -26.9710   19.5780 C   0  0  0  0  0  3  0  0  0  0  0  0
  -24.9330  -27.6900   19.5800 C   0  0  0  0  0  3  0  0  0  0  0  0
  -23.6220  -29.7980   20.2130 C   0  0  0  0  0  2  0  0  0  0  0  0
  -24.6450  -31.0980   22.1420 N   0  0  0  0  0  0  0  0  0  0  0  0
  -23.4860  -32.1530   23.7790 O   0  0  0  0  0  0  0  0  0  0  0  0
  -22.7460  -29.4560   22.5420 C   0  0  0  0  0  0  0  0  0  0  0  0
  -21.4200  -29.2700   22.4140 N   0  0  0  0  0  0  0  0  0  0  0  0
  -23.4320  -28.8230   23.3500 O   0  0  0  0  0  0  0  0  0  0  0  0
  -20.9280  -29.8350   21.7360 H   0  0  0  0  0  0  0  0  0  0  0  0
  -18.0440  -28.1010   22.9180 C   0  0  0  0  0  0  0  0  0  0  0  0
  -20.6050  -28.3290   23.1770 C   0  0  0  0  0  3  0  0  0  0  0  0
  -20.6890  -26.9050   22.5770 C   0  0  0  0  0  2  0  0  0  0  0  0
  -19.5780  -26.6090   21.5640 C   0  0  0  0  0  2  0  0  0  0  0  0
  -18.2020  -26.7610   22.2190 C   0  0  0  0  0  2  0  0  0  0  0  0
  -19.1730  -28.8440   23.3520 C   0  0  0  0  0  0  0  0  0  0  0  0
  -18.9700  -30.1030   23.9610 C   0  0  0  0  0  3  0  0  0  0  0  0
  -17.6720  -30.6130   24.1420 C   0  0  0  0  0  3  0  0  0  0  0  0
  -16.5570  -29.8650   23.7250 C   0  0  0  0  0  3  0  0  0  0  0  0
  -16.7450  -28.6110   23.1170 C   0  0  0  0  0  3  0  0  0  0  0  0
  -25.8500  -32.5310   23.8790 C   0  0  0  0  0  3  0  0  0  0  0  0
  -25.5340  -33.9290   24.1950 N   0  0  0  0  0  0  0  0  0  0  0  0
  -25.8800  -34.9750   23.4330 C   0  0  0  0  0  0  0  0  0  0  0  0
  -26.5670  -34.8650   22.4140 O   0  0  0  0  0  0  0  0  0  0  0  0
  -24.9270  -34.0860   24.9850 H   0  0  0  0  0  0  0  0  0  0  0  0
  -24.1630  -36.7670   23.0210 C   0  0  0  0  0  1  0  0  0  0  0  0
  -25.3810  -36.3660   23.8690 C   0  0  0  0  0  3  0  0  0  0  0  0
  -27.4950  -37.2590   24.7480 C   0  0  0  0  0  1  0  0  0  0  0  0
  -26.4180  -37.4180   23.7760 N   0  0  0  0  0  0  0  0  0  0  0  0
  -26.0050  -38.3390   23.9050 H   0  0  0  0  0  0  0  0  0  0  0  0
  -26.3550  -31.7700   25.1650 C   0  0  1  0  0  0  0  0  0  0  0  0
  -25.2520  -31.5340   26.2230 C   0  0  0  0  0  1  0  0  0  0  0  0
  -26.9500  -30.3930   24.7870 C   0  0  0  0  0  1  0  0  0  0  0  0
  -27.4970  -32.5710   25.8340 C   0  0  0  0  0  1  0  0  0  0  0  0
  -32.1140  -19.7420   20.1440 C   0  0  0  0  0  3  0  0  0  0  0  0
  -30.8280  -17.7490   21.0980 C   0  0  0  0  0  3  0  0  0  0  0  0
  -31.0660  -18.6410   20.1180 C   0  0  0  0  0  3  0  0  0  0  0  0
  -29.7050  -16.7230   21.0250 C   0  0  0  0  0  2  0  0  0  0  0  0
  -30.6530  -14.4660   20.5230 C   0  0  0  0  0  0  0  0  0  0  0  0
  -30.3480  -12.3720   19.2540 C   0  0  0  0  0  2  0  0  0  0  0  0
  -29.3950  -12.6440   18.0710 C   0  0  0  0  0  2  0  0  0  0  0  0
  -27.9190  -12.5020   18.4930 C   0  0  0  0  0  2  0  0  0  0  0  0
  -27.6010  -13.2800   19.7980 C   0  0  0  0  0  3  0  0  0  0  0  0
  -28.6540  -12.9700   20.8880 C   0  0  0  0  0  2  0  0  0  0  0  0
  -29.9950  -13.2880   20.3510 N   0  0  0  0  0  0  0  0  0  0  0  0
  -31.6810  -14.7710   19.9100 O   0  0  0  0  0  0  0  0  0  0  0  0
  -30.0340  -15.3290   21.3440 N   0  0  0  0  0  0  0  0  0  0  0  0
  -29.3570  -14.8790   21.9450 H   0  0  0  0  0  0  0  0  0  0  0  0
  -25.1910  -13.8920   20.4800 C   0  0  0  0  0  0  0  0  0  0  0  0
  -24.1210  -13.1210   20.8480 C   0  0  0  0  0  0  0  0  0  0  0  0
  -24.5810  -11.7700   20.8210 C   0  0  0  0  0  0  0  0  0  0  0  0
  -26.2380  -13.0100   20.2600 N   0  0  0  0  0  0  0  0  0  0  0  0
  -25.8720  -11.7280   20.5200 N   0  0  0  0  0  0  0  0  0  0  0  0
  -23.8560  -10.5090   21.0130 C   0  0  0  0  0  0  0  0  0  0  0  0
  -24.2850   -9.5480   21.9560 C   0  0  0  0  0  3  0  0  0  0  0  0
  -23.5620   -8.3480   22.1360 C   0  0  0  0  0  3  0  0  0  0  0  0
  -22.3970   -8.1020   21.3710 C   0  0  0  0  0  0  0  0  0  0  0  0
  -21.9890   -9.0500   20.4180 C   0  0  0  0  0  3  0  0  0  0  0  0
  -22.7100  -10.2400   20.2370 C   0  0  0  0  0  3  0  0  0  0  0  0
  -21.6430   -6.9550   21.4620 O   0  0  0  0  0  0  0  0  0  0  0  0
  -21.5830   -6.2210   22.6190 C   0  0  0  0  0  0  0  0  0  0  0  0
  -21.1200   -6.7760   23.8310 C   0  0  0  0  0  3  0  0  0  0  0  0
  -21.0140   -5.9660   24.9810 C   0  0  0  0  0  3  0  0  0  0  0  0
  -21.3530   -4.6020   24.9160 C   0  0  0  0  0  0  0  0  0  0  0  0
  -21.8040   -4.0450   23.7070 C   0  0  0  0  0  3  0  0  0  0  0  0
  -21.9160   -4.8510   22.5610 C   0  0  0  0  0  0  0  0  0  0  0  0
  -22.3320   -4.3040   21.3950 F   0  0  0  0  0  0  0  0  0  0  0  0
  -21.2410   -3.8230   26.0170 F   0  0  0  0  0  0  0  0  0  0  0  0
  -22.7220  -13.5970   21.1190 C   0  0  0  0  0  0  0  0  0  0  0  0
  -21.9920  -12.8970   21.9800 N   0  0  0  0  0  0  0  0  0  0  0  0
  -22.2850  -14.6220   20.5990 O   0  0  0  0  0  0  0  0  0  0  0  0
  -22.3620  -12.0690   22.4230 H   0  0  0  0  0  0  0  0  0  0  0  0
  -21.0520  -13.1930   22.2020 H   0  0  0  0  0  0  0  0  0  0  0  0
  -25.3590  -15.2620   20.2970 N   0  0  0  0  0  0  0  0  0  0  0  0
  -24.5930  -15.9220   20.3890 H   0  0  0  0  0  0  0  0  0  0  0  0
  -26.2160  -15.6880   19.9660 H   0  0  0  0  0  0  0  0  0  0  0  0
  -33.3670  -19.3230   19.3340 C   0  0  0  0  0  2  0  0  0  0  0  0
  -34.2980  -20.4860   18.9270 C   0  0  0  0  0  2  0  0  0  0  0  0
  -35.6020  -20.0290   18.2520 C   0  0  0  0  0  2  0  0  0  0  0  0
  -36.9930  -22.1300   18.0220 C   0  0  0  0  0  0  0  0  0  0  0  0
  -37.4670  -23.0570   17.1980 N   0  0  0  0  0  4  0  0  0  0  0  0
  -37.2620  -22.2090   19.3230 N   0  0  0  0  0  0  0  0  0  0  0  0
  -36.2460  -21.1360   17.5230 N   0  0  0  0  0  0  0  0  0  0  0  0
  -38.0340  -23.8320   17.5130 H   0  0  0  0  0  0  0  0  0  0  0  0
  -37.2800  -23.0170   16.2050 H   0  0  0  0  0  0  0  0  0  0  0  0
  -37.8090  -22.9620   19.7160 H   0  0  0  0  0  0  0  0  0  0  0  0
  -36.9350  -21.5030   19.9630 H   0  0  0  0  0  0  0  0  0  0  0  0
  -36.0470  -21.1490   16.5320 H   0  0  0  0  0  0  0  0  0  0  0  0
  1  3  2  0
  2 58  1  0
  2  1  1  0
  4  2  1  0
  5  9  1  0
  6  8  1  0
  7  6  1  0
  8 11  1  0
  9 11  1  0
  9  1  1  0
 10  7  1  0
 10  5  2  0
 11 15  1  0
 11 12  1  6
 13 14  2  0
 14  5  1  0
 15 16  1  0
 17 16  1  0
 18 29  2  0
 19 17  1  0
 19 24  1  0
 20 28  1  0
 20 30  1  0
 21 27  1  0
 21 23  1  0
 22 28  1  0
 23 24  2  0
 23 22  1  0
 25 26  1  0
 25 19  2  0
 26 21  2  0
 27 20  1  0
 28 18  1  0
 30 32  2  0
 31 30  1  0
 33 31  1  0
 34 43  2  0
 34 39  1  0
 35 31  1  0
 35 39  1  0
 36 35  1  0
 37 38  1  0
 37 36  1  0
 38 34  1  0
 39 40  2  0
 40 41  1  0
 42 41  2  0
 43 42  1  0
 44 18  1  0
 44 45  1  0
 44 54  1  0
 45 48  1  0
 46 50  1  0
 46 45  1  0
 47 46  2  0
 50 49  1  0
 52 50  1  0
 52 53  1  0
 52 51  1  0
 54 57  1  1
 54 55  1  0
 56 54  1  0
 58100  1  0
 60 58  1  0
 60 59  2  0
 61 59  1  0
 61 70  1  0
 62 70  1  0
 63 68  1  0
 64 65  1  0
 64 63  1  0
 66 65  1  0
 66 75  1  0
 66 67  1  0
 68 62  1  0
 68 67  1  0
 69 62  2  0
 70 71  1  0
 72 73  2  0
 73 92  1  0
 74 73  1  0
 74 77  1  0
 75 72  1  0
 75 76  1  0
 76 74  2  0
 77 78  1  0
 78 79  2  0
 80 83  1  0
 80 79  1  0
 81 80  2  0
 82 81  1  0
 82 77  2  0
 83 84  1  0
 84 85  1  0
 85 86  2  0
 87 86  1  0
 87 91  1  0
 88 87  2  0
 89 84  2  0
 89 88  1  0
 90 89  1  0
 92 93  1  0
 93 96  1  0
 93 95  1  0
 94 92  2  0
 97 98  1  0
 97 72  1  0
 99 97  1  0
101100  1  0
102101  1  0
103105  1  0
104107  1  0
104103  2  0
105109  1  0
105110  1  0
106103  1  0
106102  1  0
108104  1  0
111106  1  0
M  ISO  4  16 101  17 101  62 100  70 100
M  END
>  <TORSDO>  (8) 
F 27

>  <SCORE>  (8) 
-11.932

>  <name>  (8) 
8

>  <ligand_id>  (8) 
8

>  <original_smiles>  (8) 
[H]C([H])=C([H])C1=NC([H])([H])C([H])([H])C([H])([H])[N+]([H])(C([H])([H])C([H])([H])Oc2c([H])c([H])c3c(c2[H])C([H])([H])N(C(=O)C([H])(N([H])C(=O)C([H])(N([H])C([H])([H])[H])C([H])([H])[H])C(C([H])([H])[H])(C([H])([H])[H])C([H])([H])[H])C([H])(C(=O)N([H])C2([H])c4c([H])c([H])c([H])c([H])c4C([H])([H])C([H])([H])C2([H])[H])C3([H])[H])C1([H])C(=O)N([H])C([H])(C([H])=C([H])C([H])([H])N([H])C(=O)N1C([H])([H])C([H])([H])C([H])([H])C([H])(n2nc(-c3c([H])c([H])c(Oc4c([H])c([H])c(F)c([H])c4F)c([H])c3[H])c(C(=O)N([H])[H])c2N([H])[H])C1([H])[H])C([H])([H])C([H])([H])C([H])([H])N([H])C(N([H])[H])=[N+]([H])[H]

>  <smiles>  (8) 
[H]C([H])=C([H])C1=NC([H])([H])C([H])([H])C([H])([H])[N+]([H])(C([H])([H])C([H])([H])Oc2c([H])c([H])c3c(c2[H])C([H])([H])N(C(=O)C([H])(N([H])C(=O)C([H])(N([H])C([H])([H])[H])C([H])([H])[H])C(C([H])([H])[H])(C([H])([H])[H])C([H])([H])[H])C([H])(C(=O)N([H])C2([H])c4c([H])c([H])c([H])c([H])c4C([H])([H])C([H])([H])C2([H])[H])C3([H])[H])C1([H])C(=O)N([H])C([H])(C([H])=C([H])C([H])([H])N([H])C(=O)N1C([H])([H])C([H])([H])C([H])([H])C([H])(n2nc(-c3c([H])c([H])c(Oc4c([H])c([H])c(F)c([H])c4F)c([H])c3[H])c(C(=O)N([H])[H])c2N([H])[H])C1([H])[H])C([H])([H])C([H])([H])C([H])([H])N([H])C(N([H])[H])=[N+]([H])[H]

$$$$
9:0:0
     RDKit          3D

 97104  0  0  1  0  0  0  0  0999 V2000
  -29.4640  -21.6400   16.6690 C   0  0  0  0  0  0  0  0  0  0  0  0
  -28.1660  -21.8480   16.9180 N   0  0  0  0  0  0  0  0  0  0  0  0
  -29.8540  -20.8370   15.8200 O   0  0  0  0  0  0  0  0  0  0  0  0
  -27.9490  -22.5700   17.5890 H   0  0  0  0  0  0  0  0  0  0  0  0
  -30.3530  -22.4310   17.5070 C   0  0  0  0  0  3  0  0  0  0  0  0
  -29.9970  -22.8870   18.7270 C   0  0  0  0  0  3  0  0  0  0  0  0
  -30.8930  -23.6960   19.6400 C   0  0  0  0  0  2  0  0  0  0  0  0
  -30.5190  -25.1860   19.6970 C   0  0  0  0  0  2  0  0  0  0  0  0
  -29.0190  -25.4800   19.8550 C   0  0  0  0  0  2  0  0  0  0  0  0
  -28.8920  -26.8720   20.1160 O   0  0  0  0  0  0  0  0  0  0  0  0
  -24.6720  -31.6880   23.1550 C   0  0  0  0  0  0  0  0  0  0  0  0
  -27.6440  -27.4510   20.0990 C   0  0  0  0  0  0  0  0  0  0  0  0
  -23.5860  -30.2360   21.4720 C   0  0  0  0  0  3  0  0  0  0  0  0
  -25.1570  -28.7930   20.0760 C   0  0  0  0  0  0  0  0  0  0  0  0
  -26.0870  -30.7440   21.3340 C   0  0  0  0  0  2  0  0  0  0  0  0
  -26.2660  -29.3860   20.6890 C   0  0  0  0  0  0  0  0  0  0  0  0
  -27.5090  -28.7230   20.6960 C   0  0  0  0  0  3  0  0  0  0  0  0
  -26.5100  -26.8540   19.4990 C   0  0  0  0  0  3  0  0  0  0  0  0
  -25.2710  -27.5230   19.4840 C   0  0  0  0  0  3  0  0  0  0  0  0
  -23.8660  -29.5790   20.0940 C   0  0  0  0  0  2  0  0  0  0  0  0
  -24.7980  -30.9040   22.0470 N   0  0  0  0  0  0  0  0  0  0  0  0
  -23.5650  -31.8970   23.6680 O   0  0  0  0  0  0  0  0  0  0  0  0
  -22.9710  -29.1710   22.4070 C   0  0  0  0  0  0  0  0  0  0  0  0
  -21.6640  -28.9160   22.2390 N   0  0  0  0  0  0  0  0  0  0  0  0
  -23.6680  -28.5770   23.2340 O   0  0  0  0  0  0  0  0  0  0  0  0
  -21.1630  -29.4530   21.5450 H   0  0  0  0  0  0  0  0  0  0  0  0
  -18.3510  -27.5310   22.6220 C   0  0  0  0  0  0  0  0  0  0  0  0
  -20.8800  -27.9280   22.9780 C   0  0  0  0  0  3  0  0  0  0  0  0
  -21.0800  -26.5100   22.3950 C   0  0  0  0  0  2  0  0  0  0  0  0
  -20.0310  -26.1360   21.3430 C   0  0  0  0  0  2  0  0  0  0  0  0
  -18.6240  -26.1990   21.9460 C   0  0  0  0  0  2  0  0  0  0  0  0
  -19.4110  -28.3510   23.0920 C   0  0  0  0  0  0  0  0  0  0  0  0
  -19.1050  -29.5960   23.6810 C   0  0  0  0  0  3  0  0  0  0  0  0
  -17.7700  -30.0240   23.8090 C   0  0  0  0  0  3  0  0  0  0  0  0
  -16.7230  -29.2020   23.3560 C   0  0  0  0  0  3  0  0  0  0  0  0
  -17.0150  -27.9590   22.7670 C   0  0  0  0  0  3  0  0  0  0  0  0
  -25.9070  -32.3800   23.8140 C   0  0  0  0  0  3  0  0  0  0  0  0
  -25.5170  -33.7550   24.1480 N   0  0  0  0  0  0  0  0  0  0  0  0
  -25.8100  -34.8310   23.4060 C   0  0  0  0  0  0  0  0  0  0  0  0
  -26.5100  -34.7730   22.3910 O   0  0  0  0  0  0  0  0  0  0  0  0
  -24.8940  -33.8710   24.9340 H   0  0  0  0  0  0  0  0  0  0  0  0
  -23.9950  -36.5280   23.0200 C   0  0  0  0  0  1  0  0  0  0  0  0
  -25.2350  -36.1840   23.8610 C   0  0  0  0  0  3  0  0  0  0  0  0
  -27.2940  -37.1760   24.7570 C   0  0  0  0  0  1  0  0  0  0  0  0
  -26.2110  -37.2930   23.7850 N   0  0  0  0  0  0  0  0  0  0  0  0
  -25.7500  -38.1880   23.9300 H   0  0  0  0  0  0  0  0  0  0  0  0
  -26.4370  -31.6210   25.0910 C   0  0  1  0  0  0  0  0  0  0  0  0
  -25.3360  -31.3110   26.1310 C   0  0  0  0  0  1  0  0  0  0  0  0
  -27.1030  -30.2840   24.6910 C   0  0  0  0  0  1  0  0  0  0  0  0
  -27.5280  -32.4680   25.7900 C   0  0  0  0  0  1  0  0  0  0  0  0
  -27.0610  -20.9840   16.5210 C   0  0  0  0  0  2  0  0  0  0  0  0
  -26.3710  -20.4570   17.7850 C   0  0  0  0  0  2  0  0  0  0  0  0
  -27.2590  -19.5710   18.4570 O   0  0  0  0  0  0  0  0  0  0  0  0
  -26.9090  -19.3650   19.8170 C   0  0  0  0  0  2  0  0  0  0  0  0
  -27.5720  -18.0830   20.3370 C   0  0  0  0  0  2  0  0  0  0  0  0
  -29.1100  -18.1210   20.3410 C   0  0  0  0  0  2  0  0  0  0  0  0
  -29.7040  -16.8400   20.9480 C   0  0  0  0  0  2  0  0  0  0  0  0
  -31.2350  -16.7460   20.8180 C   0  0  0  0  0  2  0  0  0  0  0  0
  -31.8450  -15.5240   21.5370 C   0  0  0  0  0  2  0  0  0  0  0  0
  -31.5020  -13.4380   20.2000 C   0  0  0  0  0  0  0  0  0  0  0  0
  -30.7910  -11.4720   18.8900 C   0  0  0  0  0  2  0  0  0  0  0  0
  -29.8320  -11.8850   17.7580 C   0  0  0  0  0  2  0  0  0  0  0  0
  -28.3780  -11.9390   18.2650 C   0  0  0  0  0  2  0  0  0  0  0  0
  -28.2360  -12.7540   19.5770 C   0  0  0  0  0  3  0  0  0  0  0  0
  -29.2880  -12.3000   20.6130 C   0  0  0  0  0  2  0  0  0  0  0  0
  -30.6270  -12.4190   20.0010 N   0  0  0  0  0  0  0  0  0  0  0  0
  -32.5260  -13.6020   19.5290 O   0  0  0  0  0  0  0  0  0  0  0  0
  -31.1700  -14.2770   21.1890 N   0  0  0  0  0  0  0  0  0  0  0  0
  -30.3370  -14.0440   21.7080 H   0  0  0  0  0  0  0  0  0  0  0  0
  -25.9800  -13.6810   20.4070 C   0  0  0  0  0  0  0  0  0  0  0  0
  -24.8310  -13.0590   20.8170 C   0  0  0  0  0  0  0  0  0  0  0  0
  -25.0940  -11.6580   20.7430 C   0  0  0  0  0  0  0  0  0  0  0  0
  -26.8780  -12.6670   20.1140 N   0  0  0  0  0  0  0  0  0  0  0  0
  -26.3480  -11.4430   20.3690 N   0  0  0  0  0  0  0  0  0  0  0  0
  -24.2050  -10.5070   20.9510 C   0  0  0  0  0  0  0  0  0  0  0  0
  -24.5340   -9.4760   21.8600 C   0  0  0  0  0  3  0  0  0  0  0  0
  -23.6550   -8.3880   22.0550 C   0  0  0  0  0  3  0  0  0  0  0  0
  -22.4350   -8.3250   21.3430 C   0  0  0  0  0  0  0  0  0  0  0  0
  -22.1230   -9.3410   20.4240 C   0  0  0  0  0  3  0  0  0  0  0  0
  -23.0000  -10.4210   20.2260 C   0  0  0  0  0  3  0  0  0  0  0  0
  -21.5330   -7.2940   21.4500 O   0  0  0  0  0  0  0  0  0  0  0  0
  -21.4120   -6.5590   22.6030 C   0  0  0  0  0  0  0  0  0  0  0  0
  -21.0930   -7.1610   23.8390 C   0  0  0  0  0  3  0  0  0  0  0  0
  -20.9100   -6.3600   24.9850 C   0  0  0  0  0  3  0  0  0  0  0  0
  -21.0360   -4.9600   24.8950 C   0  0  0  0  0  0  0  0  0  0  0  0
  -21.3490   -4.3590   23.6630 C   0  0  0  0  0  3  0  0  0  0  0  0
  -21.5330   -5.1570   22.5190 C   0  0  0  0  0  0  0  0  0  0  0  0
  -21.8130   -4.5720   21.3300 F   0  0  0  0  0  0  0  0  0  0  0  0
  -20.8530   -4.1910   25.9930 F   0  0  0  0  0  0  0  0  0  0  0  0
  -23.5300  -13.7230   21.1680 C   0  0  0  0  0  0  0  0  0  0  0  0
  -22.7590  -13.1240   22.0700 N   0  0  0  0  0  0  0  0  0  0  0  0
  -23.2110  -14.8060   20.6800 O   0  0  0  0  0  0  0  0  0  0  0  0
  -23.0300  -12.2450   22.4870 H   0  0  0  0  0  0  0  0  0  0  0  0
  -21.8870  -13.5490   22.3470 H   0  0  0  0  0  0  0  0  0  0  0  0
  -26.3290  -15.0170   20.2460 N   0  0  0  0  0  0  0  0  0  0  0  0
  -25.6710  -15.7700   20.4110 H   0  0  0  0  0  0  0  0  0  0  0  0
  -27.2270  -15.3370   19.9110 H   0  0  0  0  0  0  0  0  0  0  0  0
  1  2  1  0
  1  5  1  0
  2  4  1  0
  3  1  2  0
  5  6  2  0
  6  7  1  0
  7  8  1  0
  8  9  1  0
  9 10  1  0
 11 22  2  0
 12 10  1  0
 12 17  1  0
 13 21  1  0
 13 23  1  0
 14 20  1  0
 14 16  1  0
 15 21  1  0
 16 17  2  0
 16 15  1  0
 18 12  2  0
 19 18  1  0
 19 14  2  0
 20 13  1  0
 21 11  1  0
 23 25  2  0
 24 23  1  0
 26 24  1  0
 27 36  2  0
 27 32  1  0
 28 24  1  0
 28 32  1  0
 29 28  1  0
 30 31  1  0
 30 29  1  0
 31 27  1  0
 32 33  2  0
 33 34  1  0
 35 34  2  0
 36 35  1  0
 37 11  1  0
 37 38  1  0
 37 47  1  0
 38 41  1  0
 39 43  1  0
 39 38  1  0
 40 39  2  0
 43 42  1  0
 45 43  1  0
 45 46  1  0
 45 44  1  0
 47 50  1  1
 47 48  1  0
 49 47  1  0
 51  2  1  0
 51 52  1  0
 52 53  1  0
 53 54  1  0
 54 55  1  0
 55 56  1  0
 56 57  1  0
 58 57  1  0
 58 59  1  0
 60 68  1  0
 61 66  1  0
 62 63  1  0
 62 61  1  0
 64 63  1  0
 64 73  1  0
 64 65  1  0
 66 60  1  0
 66 65  1  0
 67 60  2  0
 68 59  1  0
 68 69  1  0
 70 71  2  0
 71 90  1  0
 72 71  1  0
 72 75  1  0
 73 74  1  0
 73 70  1  0
 74 72  2  0
 75 76  1  0
 76 77  2  0
 78 81  1  0
 78 77  1  0
 79 78  2  0
 80 79  1  0
 80 75  2  0
 81 82  1  0
 82 83  1  0
 83 84  2  0
 85 84  1  0
 85 89  1  0
 86 85  2  0
 87 82  2  0
 87 86  1  0
 88 87  1  0
 90 91  1  0
 91 94  1  0
 91 93  1  0
 92 90  2  0
 95 70  1  0
 95 96  1  0
 97 95  1  0
M  ISO  4   9 101  10 101  60 100  68 100
M  END
>  <TORSDO>  (9) 
F 29

>  <SCORE>  (9) 
-8.805

>  <name>  (9) 
9

>  <ligand_id>  (9) 
9

>  <original_smiles>  (9) 
[H]C(C(=O)N([H])C([H])([H])C([H])([H])OC([H])([H])C([H])([H])C([H])([H])C([H])([H])C([H])([H])C([H])([H])N([H])C(=O)N1C([H])([H])C([H])([H])C([H])([H])C([H])(n2nc(-c3c([H])c([H])c(Oc4c([H])c([H])c(F)c([H])c4F)c([H])c3[H])c(C(=O)N([H])[H])c2N([H])[H])C1([H])[H])=C([H])C([H])([H])C([H])([H])C([H])([H])Oc1c([H])c([H])c2c(c1[H])C([H])([H])N(C(=O)C([H])(N([H])C(=O)C([H])(N([H])C([H])([H])[H])C([H])([H])[H])C(C([H])([H])[H])(C([H])([H])[H])C([H])([H])[H])C([H])(C(=O)N([H])C1([H])c3c([H])c([H])c([H])c([H])c3C([H])([H])C([H])([H])C1([H])[H])C2([H])[H]

>  <smiles>  (9) 
[H]C(C(=O)N([H])C([H])([H])C([H])([H])OC([H])([H])C([H])([H])C([H])([H])C([H])([H])C([H])([H])C([H])([H])N([H])C(=O)N1C([H])([H])C([H])([H])C([H])([H])C([H])(n2nc(-c3c([H])c([H])c(Oc4c([H])c([H])c(F)c([H])c4F)c([H])c3[H])c(C(=O)N([H])[H])c2N([H])[H])C1([H])[H])=C([H])C([H])([H])C([H])([H])C([H])([H])Oc1c([H])c([H])c2c(c1[H])C([H])([H])N(C(=O)C([H])(N([H])C(=O)C([H])(N([H])C([H])([H])[H])C([H])([H])[H])C(C([H])([H])[H])(C([H])([H])[H])C([H])([H])[H])C([H])(C(=O)N([H])C1([H])c3c([H])c([H])c([H])c([H])c3C([H])([H])C([H])([H])C1([H])[H])C2([H])[H]

$$$$
10:0:0
     RDKit          3D

100107  0  0  1  0  0  0  0  0999 V2000
  -21.1790  -29.6550   21.2060 C   0  0  0  0  0  2  0  0  0  0  0  0
  -21.9230  -28.9650   19.9160 O   0  0  0  0  0  0  0  0  0  0  0  0
  -22.1850  -27.6250   19.0030 C   0  0  0  0  0  2  0  0  0  0  0  0
  -22.6940  -25.9140   19.0840 C   0  0  0  0  0  2  0  0  0  0  0  0
  -24.0490  -24.9680   18.4880 C   0  0  0  0  0  2  0  0  0  0  0  0
  -24.8900  -23.8190   19.2850 N   0  0  0  0  0  4  0  0  0  0  0  0
  -25.4690  -24.3080   19.9530 H   0  0  0  0  0  0  0  0  0  0  0  0
  -24.2200  -23.3210   19.8450 H   0  0  0  0  0  0  0  0  0  0  0  0
  -25.8550  -22.6790   18.6360 C   0  0  0  0  0  3  0  0  0  0  0  0
  -26.6060  -21.3160   19.4310 C   0  0  0  0  0  3  0  0  0  0  0  0
  -27.5750  -20.0340   18.7520 C   0  0  0  0  0  2  0  0  0  0  0  0
  -28.0520  -18.4910   19.4020 C   0  0  0  0  0  3  0  0  0  0  0  0
  -29.2660  -17.3720   18.8420 C   0  0  0  0  0  3  0  0  0  0  0  0
  -30.6540  -14.8650   19.2540 C   0  0  0  0  0  0  0  0  0  0  0  0
  -30.8080  -12.3910   18.6400 C   0  0  0  0  0  2  0  0  0  0  0  0
  -29.7740  -12.1500   17.5090 C   0  0  0  0  0  2  0  0  0  0  0  0
  -28.3580  -11.9610   18.0900 C   0  0  0  0  0  2  0  0  0  0  0  0
  -28.0310  -13.0110   19.1800 C   0  0  0  0  0  3  0  0  0  0  0  0
  -29.1530  -13.1090   20.2230 C   0  0  0  0  0  2  0  0  0  0  0  0
  -30.3180  -13.5320   19.4700 N   0  0  0  0  0  0  0  0  0  0  0  0
  -31.8020  -15.0540   18.8150 O   0  0  0  0  0  0  0  0  0  0  0  0
  -29.6050  -15.8750   19.3700 N   0  0  0  0  0  0  0  0  0  0  0  0
  -28.8050  -15.4710   19.8340 H   0  0  0  0  0  0  0  0  0  0  0  0
  -25.8350  -13.7440   20.2420 C   0  0  0  0  0  0  0  0  0  0  0  0
  -24.7770  -13.0380   20.7180 C   0  0  0  0  0  0  0  0  0  0  0  0
  -25.1240  -11.6560   20.5720 C   0  0  0  0  0  0  0  0  0  0  0  0
  -26.7540  -12.8010   19.8190 N   0  0  0  0  0  0  0  0  0  0  0  0
  -26.3520  -11.5370   20.0910 N   0  0  0  0  0  0  0  0  0  0  0  0
  -24.3390  -10.4470   20.7990 C   0  0  0  0  0  0  0  0  0  0  0  0
  -24.7150   -9.4920   21.7700 C   0  0  0  0  0  3  0  0  0  0  0  0
  -23.9300   -8.3390   21.9770 C   0  0  0  0  0  3  0  0  0  0  0  0
  -22.7540   -8.1340   21.2150 C   0  0  0  0  0  0  0  0  0  0  0  0
  -22.4010   -9.0750   20.2320 C   0  0  0  0  0  3  0  0  0  0  0  0
  -23.1850  -10.2190   20.0220 C   0  0  0  0  0  3  0  0  0  0  0  0
  -21.9420   -7.0340   21.3350 O   0  0  0  0  0  0  0  0  0  0  0  0
  -21.7130   -6.4360   22.5480 C   0  0  0  0  0  0  0  0  0  0  0  0
  -21.1400   -7.1390   23.6280 C   0  0  0  0  0  3  0  0  0  0  0  0
  -20.8570   -6.4670   24.8340 C   0  0  0  0  0  3  0  0  0  0  0  0
  -21.1370   -5.0940   24.9570 C   0  0  0  0  0  0  0  0  0  0  0  0
  -21.7020   -4.3900   23.8810 C   0  0  0  0  0  3  0  0  0  0  0  0
  -21.9870   -5.0590   22.6780 C   0  0  0  0  0  0  0  0  0  0  0  0
  -22.5130   -4.3720   21.6350 F   0  0  0  0  0  0  0  0  0  0  0  0
  -20.8570   -4.4470   26.1140 F   0  0  0  0  0  0  0  0  0  0  0  0
  -23.4640  -13.5980   21.1830 C   0  0  0  0  0  0  0  0  0  0  0  0
  -22.8120  -12.9320   22.1200 N   0  0  0  0  0  0  0  0  0  0  0  0
  -23.0390  -14.6680   20.7420 O   0  0  0  0  0  0  0  0  0  0  0  0
  -23.1740  -12.0640   22.4970 H   0  0  0  0  0  0  0  0  0  0  0  0
  -21.9340  -13.2860   22.4720 H   0  0  0  0  0  0  0  0  0  0  0  0
  -26.0850  -15.1130   20.0990 N   0  0  0  0  0  0  0  0  0  0  0  0
  -25.3680  -15.7900   20.3320 H   0  0  0  0  0  0  0  0  0  0  0  0
  -26.8240  -15.5070   19.5360 H   0  0  0  0  0  0  0  0  0  0  0  0
  -21.7790  -29.9900   22.9080 C   0  0  0  0  0  2  0  0  0  0  0  0
  -22.2120  -28.9870   24.2040 N   0  0  0  0  0  4  0  0  0  0  0  0
  -21.8120  -29.4580   25.0080 H   0  0  0  0  0  0  0  0  0  0  0  0
  -21.5970  -28.2030   24.0440 H   0  0  0  0  0  0  0  0  0  0  0  0
  -23.5780  -28.3300   24.8980 C   0  0  0  0  0  2  0  0  0  0  0  0
  -24.3640  -26.7580   25.0240 C   0  0  0  0  0  2  0  0  0  0  0  0
  -25.9450  -25.9950   24.6560 C   0  0  0  0  0  2  0  0  0  0  0  0
  -27.6130  -26.4140   24.3860 C   0  0  0  0  0  2  0  0  0  0  0  0
  -28.8330  -25.9300   23.4660 O   0  0  0  0  0  0  0  0  0  0  0  0
  -25.2060  -30.7290   23.1090 C   0  0  0  0  0  0  0  0  0  0  0  0
  -28.9380  -26.5290   22.2450 C   0  0  0  0  0  3  0  0  0  0  0  0
  -24.9840  -28.8080   21.3610 C   0  0  0  0  0  3  0  0  0  0  0  0
  -27.1030  -27.7580   20.6990 C   0  0  0  0  0  0  0  0  0  0  0  0
  -27.2170  -29.8070   22.1120 C   0  0  0  0  0  2  0  0  0  0  0  0
  -27.7880  -28.4880   21.6660 C   0  0  0  0  0  0  0  0  0  0  0  0
  -28.8730  -27.9180   22.3170 C   0  0  0  0  0  2  0  0  0  0  0  0
  -28.4330  -25.8160   21.1420 C   0  0  0  0  0  3  0  0  0  0  0  0
  -27.4640  -26.4530   20.3580 C   0  0  0  0  0  3  0  0  0  0  0  0
  -25.9060  -28.4370   20.1780 C   0  0  0  0  0  2  0  0  0  0  0  0
  -25.7530  -29.7510   22.3060 N   0  0  0  0  0  0  0  0  0  0  0  0
  -23.9970  -30.9610   23.1200 O   0  0  0  0  0  0  0  0  0  0  0  0
  -24.4530  -27.4110   22.0150 C   0  0  0  0  0  0  0  0  0  0  0  0
  -23.2120  -26.7590   21.9730 N   0  0  0  0  0  0  0  0  0  0  0  0
  -25.2800  -26.8290   22.5700 O   0  0  0  0  0  0  0  0  0  0  0  0
  -22.9800  -26.8300   20.9850 H   0  0  0  0  0  0  0  0  0  0  0  0
  -19.5630  -25.8210   21.6470 C   0  0  0  0  0  0  0  0  0  0  0  0
  -21.9630  -26.2670   22.7290 C   0  0  0  0  0  3  0  0  0  0  0  0
  -22.0490  -24.7780   22.5450 C   0  0  0  0  0  2  0  0  0  0  0  0
  -21.5380  -24.3880   21.1530 C   0  0  0  0  0  2  0  0  0  0  0  0
  -20.0310  -24.4460   21.1940 C   0  0  0  0  0  2  0  0  0  0  0  0
  -20.4420  -26.7210   22.3460 C   0  0  0  0  0  0  0  0  0  0  0  0
  -19.7890  -27.9360   22.7640 C   0  0  0  0  0  3  0  0  0  0  0  0
  -18.4880  -28.3140   22.3630 C   0  0  0  0  0  3  0  0  0  0  0  0
  -17.6820  -27.4020   21.6830 C   0  0  0  0  0  3  0  0  0  0  0  0
  -18.2120  -26.1470   21.3640 C   0  0  0  0  0  3  0  0  0  0  0  0
  -26.0380  -31.5760   24.1420 C   0  0  0  0  0  3  0  0  0  0  0  0
  -25.4640  -32.9240   24.1440 N   0  0  0  0  0  0  0  0  0  0  0  0
  -25.9810  -33.9510   23.4620 C   0  0  0  0  0  0  0  0  0  0  0  0
  -27.0310  -33.8660   22.8190 O   0  0  0  0  0  0  0  0  0  0  0  0
  -24.5280  -33.0240   24.5040 H   0  0  0  0  0  0  0  0  0  0  0  0
  -24.3940  -35.4290   22.1880 C   0  0  0  0  0  1  0  0  0  0  0  0
  -25.2040  -35.2790   23.4870 C   0  0  0  0  0  3  0  0  0  0  0  0
  -26.6740  -36.4940   25.0170 C   0  0  0  0  0  1  0  0  0  0  0  0
  -26.0740  -36.4560   23.6850 N   0  0  0  0  0  0  0  0  0  0  0  0
  -25.5640  -37.3220   23.5310 H   0  0  0  0  0  0  0  0  0  0  0  0
  -26.0960  -31.0290   25.6290 C   0  0  1  0  0  0  0  0  0  0  0  0
  -24.7230  -30.8190   26.3280 C   0  0  0  0  0  1  0  0  0  0  0  0
  -26.8600  -29.7070   25.6740 C   0  0  0  0  0  1  0  0  0  0  0  0
  -26.9230  -31.9910   26.5060 C   0  0  0  0  0  1  0  0  0  0  0  0
  1 52  1  0
  2  1  1  0
  3  4  1  0
  3  2  1  0
  5  4  1  0
  5  6  1  0
  6  8  1  0
  6  7  1  0
  9  6  1  0
  9 10  2  0
 11 12  1  0
 11 10  1  0
 13 22  1  0
 13 12  2  0
 14 22  1  0
 14 20  1  0
 15 20  1  0
 16 17  1  0
 16 15  1  0
 18 17  1  0
 18 27  1  0
 18 19  1  0
 20 19  1  0
 21 14  2  0
 22 23  1  0
 24 25  2  0
 25 44  1  0
 26 25  1  0
 26 29  1  0
 27 28  1  0
 27 24  1  0
 28 26  2  0
 29 30  1  0
 30 31  2  0
 32 35  1  0
 32 31  1  0
 33 32  2  0
 34 33  1  0
 34 29  2  0
 35 36  1  0
 36 41  2  0
 36 37  1  0
 37 38  2  0
 38 39  1  0
 39 43  1  0
 40 39  2  0
 41 40  1  0
 42 41  1  0
 44 45  1  0
 45 48  1  0
 45 47  1  0
 46 44  2  0
 49 24  1  0
 49 50  1  0
 51 49  1  0
 52 53  1  0
 53 56  1  0
 53 54  1  0
 55 53  1  0
 56 57  1  0
 58 57  1  0
 59 58  1  0
 60 59  1  0
 61 72  2  0
 62 67  1  0
 62 60  1  0
 63 73  1  0
 63 71  1  0
 64 66  2  0
 65 71  1  0
 66 65  1  0
 66 67  1  0
 68 62  1  0
 69 64  1  0
 69 68  2  0
 70 64  1  0
 70 63  1  0
 71 61  1  0
 73 75  2  0
 74 73  1  0
 76 74  1  0
 77 82  1  0
 78 74  1  0
 79 78  1  0
 80 81  1  0
 80 79  1  0
 81 77  1  0
 82 78  1  0
 82 83  2  0
 84 83  1  0
 85 84  2  0
 86 77  2  0
 86 85  1  0
 87 61  1  0
 87 88  1  0
 87 97  1  0
 88 91  1  0
 89 93  1  0
 89 88  1  0
 90 89  2  0
 93 92  1  0
 93 95  1  0
 95 94  1  0
 96 95  1  0
 97 99  1  6
 97 98  1  0
 97100  1  0
M  ISO  4  14 100  22 100  59 101  60 101
M  END
>  <TORSDO>  (10) 
F 32

>  <SCORE>  (10) 
-9.216

>  <name>  (10) 
10

>  <ligand_id>  (10) 
10

>  <original_smiles>  (10) 
[H]c1c([H])c([H])c2c(c1[H])C([H])([H])C([H])([H])C([H])([H])C2([H])N([H])C(=O)C1([H])N(C(=O)C([H])(N([H])C(=O)C([H])(N([H])C([H])([H])[H])C([H])([H])[H])C(C([H])([H])[H])(C([H])([H])[H])C([H])([H])[H])C([H])([H])c2c([H])c(OC([H])([H])C([H])([H])C([H])([H])C([H])([H])[N+]([H])([H])C([H])([H])C([H])([H])OC([H])([H])C([H])([H])C([H])([H])[N+]([H])([H])C([H])([H])C([H])([H])C([H])([H])C([H])([H])C([H])([H])N([H])C(=O)N3C([H])([H])C([H])([H])C([H])([H])C([H])(n4nc(-c5c([H])c([H])c(Oc6c([H])c([H])c(F)c([H])c6F)c([H])c5[H])c(C(=O)N([H])[H])c4N([H])[H])C3([H])[H])c([H])c([H])c2C1([H])[H]

>  <smiles>  (10) 
[H]c1c([H])c([H])c2c(c1[H])C([H])([H])C([H])([H])C([H])([H])C2([H])N([H])C(=O)C1([H])N(C(=O)C([H])(N([H])C(=O)C([H])(N([H])C([H])([H])[H])C([H])([H])[H])C(C([H])([H])[H])(C([H])([H])[H])C([H])([H])[H])C([H])([H])c2c([H])c(OC([H])([H])C([H])([H])C([H])([H])C([H])([H])[N+]([H])([H])C([H])([H])C([H])([H])OC([H])([H])C([H])([H])C([H])([H])[N+]([H])([H])C([H])([H])C([H])([H])C([H])([H])C([H])([H])C([H])([H])N([H])C(=O)N3C([H])([H])C([H])([H])C([H])([H])C([H])(n4nc(-c5c([H])c([H])c(Oc6c([H])c([H])c(F)c([H])c6F)c([H])c5[H])c(C(=O)N([H])[H])c4N([H])[H])C3([H])[H])c([H])c([H])c2C1([H])[H]

$$$$
11:0:0
     RDKit          3D

101108  0  0  1  0  0  0  0  0999 V2000
  -29.4580  -20.1140   22.2460 C   0  0  0  0  0  2  0  0  0  0  0  0
  -29.4130  -21.2150   21.1810 C   0  0  0  0  0  0  0  0  0  0  0  0
  -30.4210  -22.0950   21.1550 N   0  0  0  0  0  0  0  0  0  0  0  0
  -28.4890  -21.2430   20.3680 O   0  0  0  0  0  0  0  0  0  0  0  0
  -31.1320  -22.0290   21.8740 H   0  0  0  0  0  0  0  0  0  0  0  0
  -30.6270  -23.1130   20.1250 C   0  0  0  0  0  2  0  0  0  0  0  0
  -30.9580  -24.4920   20.7280 C   0  0  0  0  0  2  0  0  0  0  0  0
  -29.9210  -25.0540   21.5380 O   0  0  0  0  0  0  0  0  0  0  0  0
  -28.7600  -25.5590   20.8680 C   0  0  0  0  0  2  0  0  0  0  0  0
  -28.9810  -26.8240   20.0080 C   0  0  0  0  0  2  0  0  0  0  0  0
  -27.9100  -26.9290   19.0630 O   0  0  0  0  0  0  0  0  0  0  0  0
  -24.5580  -31.6580   23.2680 C   0  0  0  0  0  0  0  0  0  0  0  0
  -26.7920  -27.6710   19.3770 C   0  0  0  0  0  0  0  0  0  0  0  0
  -23.1600  -30.5320   21.5580 C   0  0  0  0  0  3  0  0  0  0  0  0
  -24.4350  -29.1720   19.8140 C   0  0  0  0  0  0  0  0  0  0  0  0
  -25.6650  -30.8650   21.1890 C   0  0  0  0  0  2  0  0  0  0  0  0
  -25.6490  -29.5940   20.3700 C   0  0  0  0  0  0  0  0  0  0  0  0
  -26.8270  -28.8500   20.1560 C   0  0  0  0  0  3  0  0  0  0  0  0
  -25.5640  -27.2630   18.8170 C   0  0  0  0  0  3  0  0  0  0  0  0
  -24.3820  -28.0010   19.0370 C   0  0  0  0  0  3  0  0  0  0  0  0
  -23.2280  -30.0410   20.0820 C   0  0  0  0  0  2  0  0  0  0  0  0
  -24.4820  -31.0300   22.0610 N   0  0  0  0  0  0  0  0  0  0  0  0
  -23.5390  -31.8730   23.9390 O   0  0  0  0  0  0  0  0  0  0  0  0
  -22.5640  -29.4010   22.4280 C   0  0  0  0  0  0  0  0  0  0  0  0
  -21.2430  -29.1860   22.3080 N   0  0  0  0  0  0  0  0  0  0  0  0
  -23.2870  -28.7270   23.1650 O   0  0  0  0  0  0  0  0  0  0  0  0
  -20.7230  -29.7970   21.6930 H   0  0  0  0  0  0  0  0  0  0  0  0
  -17.9570  -27.7140   22.6040 C   0  0  0  0  0  0  0  0  0  0  0  0
  -20.4760  -28.1500   22.9950 C   0  0  0  0  0  3  0  0  0  0  0  0
  -20.7080  -26.7630   22.3550 C   0  0  0  0  0  2  0  0  0  0  0  0
  -19.6740  -26.4100   21.2800 C   0  0  0  0  0  2  0  0  0  0  0  0
  -18.2620  -26.4190   21.8710 C   0  0  0  0  0  2  0  0  0  0  0  0
  -18.9970  -28.5320   23.1200 C   0  0  0  0  0  0  0  0  0  0  0  0
  -18.6590  -29.7410   23.7660 C   0  0  0  0  0  3  0  0  0  0  0  0
  -17.3130  -30.1330   23.9020 C   0  0  0  0  0  3  0  0  0  0  0  0
  -16.2880  -29.3130   23.4020 C   0  0  0  0  0  3  0  0  0  0  0  0
  -16.6090  -28.1050   22.7600 C   0  0  0  0  0  3  0  0  0  0  0  0
  -25.9180  -32.1640   23.8500 C   0  0  0  0  0  3  0  0  0  0  0  0
  -25.7020  -33.5240   24.3580 N   0  0  0  0  0  0  0  0  0  0  0  0
  -26.0560  -34.6450   23.7140 C   0  0  0  0  0  0  0  0  0  0  0  0
  -26.6760  -34.6340   22.6470 O   0  0  0  0  0  0  0  0  0  0  0  0
  -25.1530  -33.6100   25.2010 H   0  0  0  0  0  0  0  0  0  0  0  0
  -24.4290  -36.5600   23.6490 C   0  0  0  0  0  1  0  0  0  0  0  0
  -25.6660  -35.9880   24.3580 C   0  0  0  0  0  3  0  0  0  0  0  0
  -27.8700  -36.6390   25.2220 C   0  0  0  0  0  1  0  0  0  0  0  0
  -26.7580  -36.9870   24.3400 N   0  0  0  0  0  0  0  0  0  0  0  0
  -26.4110  -37.9010   24.6150 H   0  0  0  0  0  0  0  0  0  0  0  0
  -26.4970  -31.2280   24.9810 C   0  0  1  0  0  0  0  0  0  0  0  0
  -25.4820  -30.9090   26.1020 C   0  0  0  0  0  1  0  0  0  0  0  0
  -26.9890  -29.8900   24.3870 C   0  0  0  0  0  1  0  0  0  0  0  0
  -27.7300  -31.8930   25.6360 C   0  0  0  0  0  1  0  0  0  0  0  0
  -29.3980  -18.6830   21.6350 C   0  0  0  0  0  2  0  0  0  0  0  0
  -30.7250  -17.9100   21.6640 C   0  0  0  0  0  0  0  0  0  0  0  0
  -31.5790  -18.1640   22.5220 O   0  0  0  0  0  0  0  0  0  0  0  0
  -30.9400  -16.8150   20.6280 C   0  0  0  0  0  0  0  0  0  0  0  0
  -30.8740  -15.5730   21.0050 N   0  0  0  0  0  0  0  0  0  0  0  0
  -31.3210  -14.5390   20.1920 C   0  0  0  0  0  0  0  0  0  0  0  0
  -30.8040  -12.3780   19.1020 C   0  0  0  0  0  2  0  0  0  0  0  0
  -29.8570  -12.5730   17.9040 C   0  0  0  0  0  2  0  0  0  0  0  0
  -28.3890  -12.5080   18.3630 C   0  0  0  0  0  2  0  0  0  0  0  0
  -28.1100  -13.4050   19.5990 C   0  0  0  0  0  3  0  0  0  0  0  0
  -29.1910  -13.2340   20.6920 C   0  0  0  0  0  2  0  0  0  0  0  0
  -30.5140  -13.4410   20.0810 N   0  0  0  0  0  0  0  0  0  0  0  0
  -32.3850  -14.5850   19.5770 O   0  0  0  0  0  0  0  0  0  0  0  0
  -25.7660  -14.1080   20.3980 C   0  0  0  0  0  0  0  0  0  0  0  0
  -24.6720  -13.3800   20.7920 C   0  0  0  0  0  0  0  0  0  0  0  0
  -25.0680  -12.0120   20.7310 C   0  0  0  0  0  0  0  0  0  0  0  0
  -26.7600  -13.1840   20.1250 N   0  0  0  0  0  0  0  0  0  0  0  0
  -26.3450  -11.9150   20.3850 N   0  0  0  0  0  0  0  0  0  0  0  0
  -24.2870  -10.7820   20.9280 C   0  0  0  0  0  0  0  0  0  0  0  0
  -24.6800   -9.8020   21.8660 C   0  0  0  0  0  3  0  0  0  0  0  0
  -23.9030   -8.6380   22.0530 C   0  0  0  0  0  3  0  0  0  0  0  0
  -22.7160   -8.4470   21.3050 C   0  0  0  0  0  0  0  0  0  0  0  0
  -22.3420   -9.4150   20.3570 C   0  0  0  0  0  3  0  0  0  0  0  0
  -23.1190  -10.5700   20.1670 C   0  0  0  0  0  3  0  0  0  0  0  0
  -21.9130   -7.3360   21.4000 O   0  0  0  0  0  0  0  0  0  0  0  0
  -21.7990   -6.6290   22.5710 C   0  0  0  0  0  0  0  0  0  0  0  0
  -21.3250   -7.2270   23.7590 C   0  0  0  0  0  3  0  0  0  0  0  0
  -21.1560   -6.4470   24.9210 C   0  0  0  0  0  3  0  0  0  0  0  0
  -21.4500   -5.0700   24.8940 C   0  0  0  0  0  0  0  0  0  0  0  0
  -21.9150   -4.4720   23.7090 C   0  0  0  0  0  3  0  0  0  0  0  0
  -22.0880   -5.2500   22.5510 C   0  0  0  0  0  0  0  0  0  0  0  0
  -22.5150   -4.6650   21.4050 F   0  0  0  0  0  0  0  0  0  0  0  0
  -21.2820   -4.3170   26.0050 F   0  0  0  0  0  0  0  0  0  0  0  0
  -23.3080  -13.9210   21.1100 C   0  0  0  0  0  0  0  0  0  0  0  0
  -22.5810  -13.2580   22.0040 N   0  0  0  0  0  0  0  0  0  0  0  0
  -22.8980  -14.9640   20.6050 O   0  0  0  0  0  0  0  0  0  0  0  0
  -22.9300  -12.4180   22.4390 H   0  0  0  0  0  0  0  0  0  0  0  0
  -21.6640  -13.6020   22.2560 H   0  0  0  0  0  0  0  0  0  0  0  0
  -25.9850  -15.4720   20.2360 N   0  0  0  0  0  0  0  0  0  0  0  0
  -25.2450  -16.1510   20.3730 H   0  0  0  0  0  0  0  0  0  0  0  0
  -26.8480  -15.8820   19.9000 H   0  0  0  0  0  0  0  0  0  0  0  0
  -31.2320  -17.3440   19.1810 C   0  0  0  0  0  2  0  0  0  0  0  0
  -31.6930  -18.8190   18.9790 C   0  0  0  0  0  2  0  0  0  0  0  0
  -33.0650  -19.2190   19.5690 C   0  0  0  0  0  2  0  0  0  0  0  0
  -34.9170  -19.5480   17.8860 C   0  0  0  0  0  2  0  0  0  0  0  0
  -35.4330  -21.6880   16.7120 C   0  0  0  0  0  1  0  0  0  0  0  0
  -34.1890  -18.7830   18.7230 N   0  0  0  0  0  0  0  0  0  0  0  0
  -34.6630  -20.8480   17.6430 N   0  0  0  0  0  0  0  0  0  0  0  0
  -34.4410  -17.8060   18.7950 H   0  0  0  0  0  0  0  0  0  0  0  0
  -33.8650  -21.2930   18.0700 H   0  0  0  0  0  0  0  0  0  0  0  0
  2  1  1  0
  3  2  1  0
  3  5  1  0
  4  2  2  0
  6  7  1  0
  6  3  1  0
  7  8  1  0
  9  8  1  0
 10  9  1  0
 11 13  1  0
 11 10  1  0
 12 23  2  0
 13 18  1  0
 14 22  1  0
 14 24  1  0
 15 21  1  0
 15 17  1  0
 16 22  1  0
 17 16  1  0
 18 17  2  0
 19 20  1  0
 19 13  2  0
 20 15  2  0
 21 14  1  0
 22 12  1  0
 24 26  2  0
 25 24  1  0
 27 25  1  0
 28 37  2  0
 28 33  1  0
 29 25  1  0
 29 33  1  0
 30 29  1  0
 31 32  1  0
 31 30  1  0
 32 28  1  0
 33 34  2  0
 34 35  1  0
 36 35  2  0
 37 36  1  0
 38 12  1  0
 38 39  1  0
 38 48  1  0
 39 42  1  0
 40 39  1  0
 40 44  1  0
 41 40  2  0
 44 43  1  0
 46 44  1  0
 46 47  1  0
 46 45  1  0
 48 51  1  1
 48 49  1  0
 50 48  1  0
 52 53  1  0
 52  1  1  0
 53 54  2  0
 55 56  2  0
 55 53  1  0
 57 56  1  0
 58 63  1  0
 59 60  1  0
 59 58  1  0
 61 60  1  0
 61 68  1  0
 61 62  1  0
 63 57  1  0
 63 62  1  0
 64 57  2  0
 65 66  2  0
 66 85  1  0
 67 66  1  0
 67 70  1  0
 68 69  1  0
 68 65  1  0
 69 67  2  0
 70 71  1  0
 71 72  2  0
 73 76  1  0
 73 72  1  0
 74 73  2  0
 75 74  1  0
 75 70  2  0
 76 77  1  0
 77 78  1  0
 78 79  2  0
 80 79  1  0
 80 84  1  0
 81 80  2  0
 82 77  2  0
 82 81  1  0
 83 82  1  0
 85 86  1  0
 86 89  1  0
 86 88  1  0
 87 85  2  0
 90 91  1  0
 90 65  1  0
 92 90  1  0
 93 55  1  0
 94 93  1  0
 94 95  1  0
 96 98  1  0
 97 99  1  0
 98100  1  0
 98 95  1  0
 99 96  1  0
 99101  1  0
M  ISO  4  10 101  11 101  56 100  57 100
M  END
>  <TORSDO>  (11) 
F 29

>  <SCORE>  (11) 
-9.162

>  <name>  (11) 
11

>  <ligand_id>  (11) 
11

>  <original_smiles>  (11) 
[H]C(N([H])C([H])([H])C([H])([H])C([H])([H])C(=NC(=O)N1C([H])([H])C([H])([H])C([H])([H])C([H])(n2nc(-c3c([H])c([H])c(Oc4c([H])c([H])c(F)c([H])c4F)c([H])c3[H])c(C(=O)N([H])[H])c2N([H])[H])C1([H])[H])C(=O)C([H])([H])C([H])([H])C(=O)N([H])C([H])([H])C([H])([H])OC([H])([H])C([H])([H])Oc1c([H])c([H])c2c(c1[H])C([H])([H])N(C(=O)C([H])(N([H])C(=O)C([H])(N([H])C([H])([H])[H])C([H])([H])[H])C(C([H])([H])[H])(C([H])([H])[H])C([H])([H])[H])C([H])(C(=O)N([H])C1([H])c3c([H])c([H])c([H])c([H])c3C([H])([H])C([H])([H])C1([H])[H])C2([H])[H])=[N+]([H])C([H])([H])[H]

>  <smiles>  (11) 
[H]C(N([H])C([H])([H])C([H])([H])C([H])([H])C(=NC(=O)N1C([H])([H])C([H])([H])C([H])([H])C([H])(n2nc(-c3c([H])c([H])c(Oc4c([H])c([H])c(F)c([H])c4F)c([H])c3[H])c(C(=O)N([H])[H])c2N([H])[H])C1([H])[H])C(=O)C([H])([H])C([H])([H])C(=O)N([H])C([H])([H])C([H])([H])OC([H])([H])C([H])([H])Oc1c([H])c([H])c2c(c1[H])C([H])([H])N(C(=O)C([H])(N([H])C(=O)C([H])(N([H])C([H])([H])[H])C([H])([H])[H])C(C([H])([H])[H])(C([H])([H])[H])C([H])([H])[H])C([H])(C(=O)N([H])C1([H])c3c([H])c([H])c([H])c([H])c3C([H])([H])C([H])([H])C1([H])[H])C2([H])[H])=[N+]([H])C([H])([H])[H]

$$$$
12:0:0
     RDKit          3D

102109  0  0  1  0  0  0  0  0999 V2000
  -29.2650  -23.6920   15.3310 C   0  0  0  0  0  0  0  0  0  0  0  0
  -28.5170  -24.7970   15.2780 N   0  0  0  0  0  0  0  0  0  0  0  0
  -29.2000  -22.8000   14.4830 O   0  0  0  0  0  0  0  0  0  0  0  0
  -28.6640  -25.4990   15.9880 H   0  0  0  0  0  0  0  0  0  0  0  0
  -30.7770  -22.5450   16.8440 C   0  0  0  0  0  3  0  0  0  0  0  0
  -30.0910  -23.6650   16.5210 C   0  0  0  0  0  3  0  0  0  0  0  0
  -31.5840  -22.4060   18.0440 C   0  0  0  0  0  0  0  0  0  0  0  0
  -31.2020  -23.1920   19.0600 N   0  0  0  0  0  0  0  0  0  0  0  0
  -32.5220  -21.6180   18.1510 O   0  0  0  0  0  0  0  0  0  0  0  0
  -30.4120  -23.8030   18.9100 H   0  0  0  0  0  0  0  0  0  0  0  0
  -31.7920  -23.1770   20.3920 C   0  0  0  0  0  2  0  0  0  0  0  0
  -31.0840  -24.1780   21.3170 C   0  0  0  0  0  2  0  0  0  0  0  0
  -31.2530  -25.5100   20.8330 O   0  0  0  0  0  0  0  0  0  0  0  0
  -27.2420  -30.1680   24.3990 C   0  0  0  0  0  0  0  0  0  0  0  0
  -30.1110  -26.2740   20.8510 C   0  0  0  0  0  0  0  0  0  0  0  0
  -26.2200  -29.2140   22.3540 C   0  0  0  0  0  3  0  0  0  0  0  0
  -27.7940  -27.8850   20.8490 C   0  0  0  0  0  0  0  0  0  0  0  0
  -28.7570  -29.4360   22.5610 C   0  0  0  0  0  2  0  0  0  0  0  0
  -28.8760  -28.2110   21.6790 C   0  0  0  0  0  0  0  0  0  0  0  0
  -30.0390  -27.4130   21.6790 C   0  0  0  0  0  3  0  0  0  0  0  0
  -29.0190  -25.9550   20.0170 C   0  0  0  0  0  3  0  0  0  0  0  0
  -27.8600  -26.7540   20.0130 C   0  0  0  0  0  3  0  0  0  0  0  0
  -26.5940  -28.8030   20.9030 C   0  0  0  0  0  2  0  0  0  0  0  0
  -27.4160  -29.6080   23.1690 N   0  0  0  0  0  0  0  0  0  0  0  0
  -26.1090  -30.4030   24.8410 O   0  0  0  0  0  0  0  0  0  0  0  0
  -25.3970  -28.0730   22.9920 C   0  0  0  0  0  0  0  0  0  0  0  0
  -24.1370  -27.9250   22.5460 N   0  0  0  0  0  0  0  0  0  0  0  0
  -25.8970  -27.3320   23.8420 O   0  0  0  0  0  0  0  0  0  0  0  0
  -23.7990  -28.5850   21.8610 H   0  0  0  0  0  0  0  0  0  0  0  0
  -20.8380  -26.5820   21.9530 C   0  0  0  0  0  0  0  0  0  0  0  0
  -23.1930  -26.8930   22.9690 C   0  0  0  0  0  3  0  0  0  0  0  0
  -23.5370  -25.5270   22.3310 C   0  0  0  0  0  2  0  0  0  0  0  0
  -22.7880  -25.2680   21.0190 C   0  0  0  0  0  2  0  0  0  0  0  0
  -21.2750  -25.3090   21.2490 C   0  0  0  0  0  2  0  0  0  0  0  0
  -21.7410  -27.3330   22.7480 C   0  0  0  0  0  0  0  0  0  0  0  0
  -21.2940  -28.5290   23.3520 C   0  0  0  0  0  3  0  0  0  0  0  0
  -19.9700  -28.9710   23.1740 C   0  0  0  0  0  3  0  0  0  0  0  0
  -19.0750  -28.2170   22.3940 C   0  0  0  0  0  3  0  0  0  0  0  0
  -19.5080  -27.0230   21.7910 C   0  0  0  0  0  3  0  0  0  0  0  0
  -28.4540  -30.5650   25.3000 C   0  0  0  0  0  3  0  0  0  0  0  0
  -28.2090  -31.9240   25.8000 N   0  0  0  0  0  0  0  0  0  0  0  0
  -28.7350  -33.0360   25.2660 C   0  0  0  0  0  0  0  0  0  0  0  0
  -29.5430  -33.0130   24.3340 O   0  0  0  0  0  0  0  0  0  0  0  0
  -27.5200  -32.0220   26.5310 H   0  0  0  0  0  0  0  0  0  0  0  0
  -27.2250  -35.0200   24.9490 C   0  0  0  0  0  1  0  0  0  0  0  0
  -28.2900  -34.3840   25.8590 C   0  0  0  0  0  3  0  0  0  0  0  0
  -30.3280  -34.9270   27.1140 C   0  0  0  0  0  1  0  0  0  0  0  0
  -29.4060  -35.3350   26.0580 N   0  0  0  0  0  0  0  0  0  0  0  0
  -29.0550  -36.2620   26.2820 H   0  0  0  0  0  0  0  0  0  0  0  0
  -28.6930  -29.5670   26.4980 C   0  0  1  0  0  0  0  0  0  0  0  0
  -27.4300  -29.3020   27.3480 C   0  0  0  0  0  1  0  0  0  0  0  0
  -29.2090  -28.2050   25.9740 C   0  0  0  0  0  1  0  0  0  0  0  0
  -29.7880  -30.1260   27.4360 C   0  0  0  0  0  1  0  0  0  0  0  0
  -27.3540  -24.9820   14.4150 C   0  0  0  0  0  2  0  0  0  0  0  0
  -26.0640  -25.1160   15.2440 C   0  0  0  0  0  2  0  0  0  0  0  0
  -25.8830  -24.0160   16.1390 O   0  0  0  0  0  0  0  0  0  0  0  0
  -26.1100  -24.3420   17.5070 C   0  0  0  0  0  2  0  0  0  0  0  0
  -26.0400  -23.0810   18.3810 C   0  0  0  0  0  2  0  0  0  0  0  0
  -27.1290  -22.0320   18.0850 C   0  0  0  0  0  2  0  0  0  0  0  0
  -27.1080  -20.8850   19.1110 C   0  0  0  0  0  2  0  0  0  0  0  0
  -28.2490  -20.0450   18.9700 O   0  0  0  0  0  0  0  0  0  0  0  0
  -28.2910  -18.9980   19.9410 C   0  0  0  0  0  2  0  0  0  0  0  0
  -29.7360  -18.4910   20.0860 C   0  0  0  0  0  2  0  0  0  0  0  0
  -30.0160  -17.6250   21.3380 C   0  0  0  0  0  2  0  0  0  0  0  0
  -30.4620  -15.2680   20.6270 C   0  0  0  0  0  0  0  0  0  0  0  0
  -30.3660  -13.0800   19.5050 C   0  0  0  0  0  2  0  0  0  0  0  0
  -29.4600  -13.2180   18.2650 C   0  0  0  0  0  2  0  0  0  0  0  0
  -27.9820  -12.9800   18.6400 C   0  0  0  0  0  2  0  0  0  0  0  0
  -27.5400  -13.7920   19.8890 C   0  0  0  0  0  3  0  0  0  0  0  0
  -28.5690  -13.6510   21.0320 C   0  0  0  0  0  2  0  0  0  0  0  0
  -29.8870  -14.0430   20.5040 N   0  0  0  0  0  0  0  0  0  0  0  0
  -31.5690  -15.5520   20.1630 O   0  0  0  0  0  0  0  0  0  0  0  0
  -29.6810  -16.2060   21.1790 N   0  0  0  0  0  0  0  0  0  0  0  0
  -28.7840  -15.8970   21.5210 H   0  0  0  0  0  0  0  0  0  0  0  0
  -25.0850  -14.2190   20.5420 C   0  0  0  0  0  0  0  0  0  0  0  0
  -24.0630  -13.3670   20.8660 C   0  0  0  0  0  0  0  0  0  0  0  0
  -24.6200  -12.0510   20.8290 C   0  0  0  0  0  0  0  0  0  0  0  0
  -26.1950  -13.4170   20.3240 N   0  0  0  0  0  0  0  0  0  0  0  0
  -25.9160  -12.1090   20.5510 N   0  0  0  0  0  0  0  0  0  0  0  0
  -23.9810  -10.7380   20.9870 C   0  0  0  0  0  0  0  0  0  0  0  0
  -24.4340   -9.8030   21.9440 C   0  0  0  0  0  3  0  0  0  0  0  0
  -23.7930   -8.5540   22.0860 C   0  0  0  0  0  3  0  0  0  0  0  0
  -22.6850   -8.2300   21.2690 C   0  0  0  0  0  0  0  0  0  0  0  0
  -22.2500   -9.1550   20.3030 C   0  0  0  0  0  3  0  0  0  0  0  0
  -22.8920  -10.3960   20.1590 C   0  0  0  0  0  3  0  0  0  0  0  0
  -22.0130   -7.0320   21.3160 O   0  0  0  0  0  0  0  0  0  0  0  0
  -21.8500   -6.3480   22.4930 C   0  0  0  0  0  0  0  0  0  0  0  0
  -21.2280   -6.9380   23.6150 C   0  0  0  0  0  3  0  0  0  0  0  0
  -21.0130   -6.1780   24.7810 C   0  0  0  0  0  3  0  0  0  0  0  0
  -21.4120   -4.8270   24.8250 C   0  0  0  0  0  0  0  0  0  0  0  0
  -22.0250   -4.2370   23.7060 C   0  0  0  0  0  3  0  0  0  0  0  0
  -22.2410   -4.9950   22.5420 C   0  0  0  0  0  0  0  0  0  0  0  0
  -22.8130   -4.4150   21.4600 F   0  0  0  0  0  0  0  0  0  0  0  0
  -21.1980   -4.0950   25.9430 F   0  0  0  0  0  0  0  0  0  0  0  0
  -22.6290  -13.7420   21.1130 C   0  0  0  0  0  0  0  0  0  0  0  0
  -21.9300  -12.9820   21.9490 N   0  0  0  0  0  0  0  0  0  0  0  0
  -22.1330  -14.7470   20.6040 O   0  0  0  0  0  0  0  0  0  0  0  0
  -22.3370  -12.1640   22.3760 H   0  0  0  0  0  0  0  0  0  0  0  0
  -20.9750  -13.2290   22.1660 H   0  0  0  0  0  0  0  0  0  0  0  0
  -25.1630  -15.6010   20.4020 N   0  0  0  0  0  0  0  0  0  0  0  0
  -24.3660  -16.2050   20.5670 H   0  0  0  0  0  0  0  0  0  0  0  0
  -26.0140  -16.1090   20.1980 H   0  0  0  0  0  0  0  0  0  0  0  0
  1  6  1  0
  2  1  1  0
  2  4  1  0
  3  1  2  0
  5  7  1  0
  6  5  2  0
  7  9  2  0
  7  8  1  0
  8 11  1  0
 10  8  1  0
 11 12  1  0
 13 15  1  0
 13 12  1  0
 14 25  2  0
 15 20  1  0
 16 26  1  0
 16 24  1  0
 17 23  1  0
 17 19  1  0
 18 24  1  0
 19 18  1  0
 20 19  2  0
 21 15  2  0
 22 21  1  0
 22 17  2  0
 23 16  1  0
 24 14  1  0
 26 28  2  0
 27 26  1  0
 29 27  1  0
 30 35  1  0
 31 27  1  0
 32 31  1  0
 33 34  1  0
 33 32  1  0
 34 30  1  0
 35 31  1  0
 35 36  2  0
 37 36  1  0
 38 37  2  0
 39 30  2  0
 39 38  1  0
 40 14  1  0
 40 41  1  0
 40 50  1  0
 41 44  1  0
 42 41  1  0
 42 46  1  0
 43 42  2  0
 46 45  1  0
 46 48  1  0
 48 49  1  0
 48 47  1  0
 50 51  1  1
 50 53  1  0
 52 50  1  0
 54 55  1  0
 54  2  1  0
 55 56  1  0
 56 57  1  0
 57 58  1  0
 59 58  1  0
 59 60  1  0
 61 60  1  0
 61 62  1  0
 62 63  1  0
 63 64  1  0
 65 73  1  0
 66 71  1  0
 67 68  1  0
 67 66  1  0
 69 68  1  0
 69 78  1  0
 69 70  1  0
 71 65  1  0
 71 70  1  0
 72 65  2  0
 73 64  1  0
 73 74  1  0
 75 76  2  0
 76 95  1  0
 77 76  1  0
 77 80  1  0
 78 75  1  0
 78 79  1  0
 79 77  2  0
 80 81  1  0
 81 82  2  0
 83 86  1  0
 83 82  1  0
 84 83  2  0
 85 84  1  0
 85 80  2  0
 86 87  1  0
 87 92  2  0
 87 88  1  0
 88 89  2  0
 89 90  1  0
 90 94  1  0
 91 90  2  0
 92 91  1  0
 93 92  1  0
 95 96  1  0
 96 99  1  0
 96 98  1  0
 97 95  2  0
100 75  1  0
100101  1  0
102100  1  0
M  ISO  4  12 101  13 101  65 100  73 100
M  END
>  <TORSDO>  (12) 
F 31

>  <SCORE>  (12) 
-7.319

>  <name>  (12) 
12

>  <ligand_id>  (12) 
12

>  <original_smiles>  (12) 
[H]C(C(=O)N([H])C([H])([H])C([H])([H])Oc1c([H])c([H])c2c(c1[H])C([H])([H])N(C(=O)C([H])(N([H])C(=O)C([H])(N([H])C([H])([H])[H])C([H])([H])[H])C(C([H])([H])[H])(C([H])([H])[H])C([H])([H])[H])C([H])(C(=O)N([H])C1([H])c3c([H])c([H])c([H])c([H])c3C([H])([H])C([H])([H])C1([H])[H])C2([H])[H])=C([H])C(=O)N([H])C([H])([H])C([H])([H])OC([H])([H])C([H])([H])C([H])([H])C([H])([H])OC([H])([H])C([H])([H])C([H])([H])N([H])C(=O)N1C([H])([H])C([H])([H])C([H])([H])C([H])(n2nc(-c3c([H])c([H])c(Oc4c([H])c([H])c(F)c([H])c4F)c([H])c3[H])c(C(=O)N([H])[H])c2N([H])[H])C1([H])[H]

>  <smiles>  (12) 
[H]C(C(=O)N([H])C([H])([H])C([H])([H])Oc1c([H])c([H])c2c(c1[H])C([H])([H])N(C(=O)C([H])(N([H])C(=O)C([H])(N([H])C([H])([H])[H])C([H])([H])[H])C(C([H])([H])[H])(C([H])([H])[H])C([H])([H])[H])C([H])(C(=O)N([H])C1([H])c3c([H])c([H])c([H])c([H])c3C([H])([H])C([H])([H])C1([H])[H])C2([H])[H])=C([H])C(=O)N([H])C([H])([H])C([H])([H])OC([H])([H])C([H])([H])C([H])([H])C([H])([H])OC([H])([H])C([H])([H])C([H])([H])N([H])C(=O)N1C([H])([H])C([H])([H])C([H])([H])C([H])(n2nc(-c3c([H])c([H])c(Oc4c([H])c([H])c(F)c([H])c4F)c([H])c3[H])c(C(=O)N([H])[H])c2N([H])[H])C1([H])[H]

$$$$
13:0:0
     RDKit          3D

104111  0  0  1  0  0  0  0  0999 V2000
  -24.0510  -27.4680   14.8710 C   0  0  0  0  0  0  0  0  0  0  0  0
  -25.2600  -27.9080   14.5230 N   0  0  0  0  0  0  0  0  0  0  0  0
  -22.9960  -28.0330   14.5730 O   0  0  0  0  0  0  0  0  0  0  0  0
  -26.0300  -27.3170   14.7980 H   0  0  0  0  0  0  0  0  0  0  0  0
  -23.2340  -25.3420   15.8140 C   0  0  0  0  0  3  0  0  0  0  0  0
  -24.2100  -26.2590   15.6520 C   0  0  0  0  0  3  0  0  0  0  0  0
  -24.6130  -23.5410   16.8070 C   0  0  0  0  0  3  0  0  0  0  0  0
  -23.4160  -24.1130   16.5720 C   0  0  0  0  0  3  0  0  0  0  0  0
  -24.8030  -22.3090   17.5410 C   0  0  0  0  0  3  0  0  0  0  0  0
  -26.0360  -21.8580   17.8170 C   0  0  0  0  0  3  0  0  0  0  0  0
  -26.2990  -20.6080   18.5010 C   0  0  0  0  0  3  0  0  0  0  0  0
  -27.5270  -20.2650   18.9290 C   0  0  0  0  0  3  0  0  0  0  0  0
  -27.8710  -18.9720   19.6440 C   0  0  0  0  0  2  0  0  0  0  0  0
  -29.1770  -18.5280   19.2840 O   0  0  0  0  0  0  0  0  0  0  0  0
  -29.6080  -17.4180   20.0640 C   0  0  0  0  0  2  0  0  0  0  0  0
  -31.1190  -17.2060   19.8720 C   0  0  0  0  0  2  0  0  0  0  0  0
  -31.7220  -16.1530   20.8270 C   0  0  0  0  0  2  0  0  0  0  0  0
  -31.5400  -13.8250   19.9540 C   0  0  0  0  0  0  0  0  0  0  0  0
  -30.9760  -11.6420   18.9640 C   0  0  0  0  0  2  0  0  0  0  0  0
  -30.0050  -11.8200   17.7800 C   0  0  0  0  0  2  0  0  0  0  0  0
  -28.5440  -11.8740   18.2680 C   0  0  0  0  0  2  0  0  0  0  0  0
  -28.3400  -12.8580   19.4510 C   0  0  0  0  0  3  0  0  0  0  0  0
  -29.4060  -12.6200   20.5440 C   0  0  0  0  0  2  0  0  0  0  0  0
  -30.7380  -12.7330   19.9190 N   0  0  0  0  0  0  0  0  0  0  0  0
  -32.5920  -13.9170   19.3150 O   0  0  0  0  0  0  0  0  0  0  0  0
  -31.0860  -14.8420   20.6970 N   0  0  0  0  0  0  0  0  0  0  0  0
  -30.2220  -14.6870   21.1980 H   0  0  0  0  0  0  0  0  0  0  0  0
  -26.0860  -13.7820   20.2930 C   0  0  0  0  0  0  0  0  0  0  0  0
  -24.9370  -13.1600   20.6980 C   0  0  0  0  0  0  0  0  0  0  0  0
  -25.1970  -11.7570   20.6110 C   0  0  0  0  0  0  0  0  0  0  0  0
  -26.9830  -12.7680   19.9890 N   0  0  0  0  0  0  0  0  0  0  0  0
  -26.4510  -11.5420   20.2330 N   0  0  0  0  0  0  0  0  0  0  0  0
  -24.3060  -10.6050   20.8050 C   0  0  0  0  0  0  0  0  0  0  0  0
  -24.5950   -9.6020   21.7580 C   0  0  0  0  0  3  0  0  0  0  0  0
  -23.7150   -8.5130   21.9400 C   0  0  0  0  0  3  0  0  0  0  0  0
  -22.5310   -8.4220   21.1710 C   0  0  0  0  0  0  0  0  0  0  0  0
  -22.2600   -9.4100   20.2090 C   0  0  0  0  0  3  0  0  0  0  0  0
  -23.1390  -10.4900   20.0250 C   0  0  0  0  0  3  0  0  0  0  0  0
  -21.6310   -7.3880   21.2610 O   0  0  0  0  0  0  0  0  0  0  0  0
  -21.4160   -6.7230   22.4420 C   0  0  0  0  0  0  0  0  0  0  0  0
  -20.9680   -7.3920   23.6020 C   0  0  0  0  0  3  0  0  0  0  0  0
  -20.6910   -6.6590   24.7740 C   0  0  0  0  0  3  0  0  0  0  0  0
  -20.8530   -5.2600   24.7860 C   0  0  0  0  0  0  0  0  0  0  0  0
  -21.2930   -4.5930   23.6300 C   0  0  0  0  0  3  0  0  0  0  0  0
  -21.5690   -5.3220   22.4600 C   0  0  0  0  0  0  0  0  0  0  0  0
  -21.9730   -4.6710   21.3430 F   0  0  0  0  0  0  0  0  0  0  0  0
  -20.5800   -4.5560   25.9090 F   0  0  0  0  0  0  0  0  0  0  0  0
  -23.6370  -13.8210   21.0550 C   0  0  0  0  0  0  0  0  0  0  0  0
  -22.8630  -13.2130   21.9460 N   0  0  0  0  0  0  0  0  0  0  0  0
  -23.3230  -14.9110   20.5780 O   0  0  0  0  0  0  0  0  0  0  0  0
  -23.1290  -12.3300   22.3550 H   0  0  0  0  0  0  0  0  0  0  0  0
  -21.9900  -13.6390   22.2240 H   0  0  0  0  0  0  0  0  0  0  0  0
  -26.4380  -15.1200   20.1400 N   0  0  0  0  0  0  0  0  0  0  0  0
  -25.7740  -15.8690   20.2960 H   0  0  0  0  0  0  0  0  0  0  0  0
  -27.3160  -15.4360   19.7480 H   0  0  0  0  0  0  0  0  0  0  0  0
  -25.6500  -29.1410   13.8660 C   0  0  0  0  0  2  0  0  0  0  0  0
  -27.1290  -29.0600   13.4290 C   0  0  0  0  0  2  0  0  0  0  0  0
  -28.0230  -28.7560   14.5060 O   0  0  0  0  0  0  0  0  0  0  0  0
  -28.2310  -27.3650   14.7670 C   0  0  0  0  0  2  0  0  0  0  0  0
  -29.3980  -27.1470   15.7340 C   0  0  0  0  0  2  0  0  0  0  0  0
  -29.0320  -27.5250   17.0530 O   0  0  0  0  0  0  0  0  0  0  0  0
  -30.0010  -27.1150   18.0100 C   0  0  0  0  0  2  0  0  0  0  0  0
  -29.5460  -27.4960   19.4210 C   0  0  0  0  0  2  0  0  0  0  0  0
  -28.4110  -26.6950   19.7910 O   0  0  0  0  0  0  0  0  0  0  0  0
  -24.4030  -31.6300   23.0010 C   0  0  0  0  0  0  0  0  0  0  0  0
  -27.2180  -27.3690   19.8580 C   0  0  0  0  0  0  0  0  0  0  0  0
  -23.2510  -30.2450   21.2980 C   0  0  0  0  0  3  0  0  0  0  0  0
  -24.7640  -28.7630   19.8720 C   0  0  0  0  0  0  0  0  0  0  0  0
  -25.7630  -30.6700   21.1540 C   0  0  0  0  0  2  0  0  0  0  0  0
  -25.8860  -29.3160   20.4970 C   0  0  0  0  0  0  0  0  0  0  0  0
  -27.1030  -28.6150   20.5150 C   0  0  0  0  0  3  0  0  0  0  0  0
  -26.0750  -26.8030   19.2550 C   0  0  0  0  0  3  0  0  0  0  0  0
  -24.8490  -27.5000   19.2540 C   0  0  0  0  0  3  0  0  0  0  0  0
  -23.4960  -29.5850   19.9080 C   0  0  0  0  0  2  0  0  0  0  0  0
  -24.4860  -30.8620   21.8790 N   0  0  0  0  0  0  0  0  0  0  0  0
  -23.3110  -31.8660   23.5290 O   0  0  0  0  0  0  0  0  0  0  0  0
  -22.6010  -29.1960   22.2240 C   0  0  0  0  0  0  0  0  0  0  0  0
  -21.2690  -29.0580   22.1300 N   0  0  0  0  0  0  0  0  0  0  0  0
  -23.2900  -28.5080   22.9800 O   0  0  0  0  0  0  0  0  0  0  0  0
  -20.7730  -29.6650   21.4900 H   0  0  0  0  0  0  0  0  0  0  0  0
  -17.8690  -28.0180   22.7400 C   0  0  0  0  0  0  0  0  0  0  0  0
  -20.4490  -28.1020   22.8710 C   0  0  0  0  0  3  0  0  0  0  0  0
  -20.4280  -26.7240   22.1720 C   0  0  0  0  0  2  0  0  0  0  0  0
  -19.2500  -26.5550   21.2060 C   0  0  0  0  0  2  0  0  0  0  0  0
  -17.9200  -26.7240   21.9470 C   0  0  0  0  0  2  0  0  0  0  0  0
  -19.0550  -28.6720   23.1620 C   0  0  0  0  0  0  0  0  0  0  0  0
  -18.9510  -29.8930   23.8640 C   0  0  0  0  0  3  0  0  0  0  0  0
  -17.6920  -30.4540   24.1480 C   0  0  0  0  0  3  0  0  0  0  0  0
  -16.5200  -29.7920   23.7470 C   0  0  0  0  0  3  0  0  0  0  0  0
  -16.6080  -28.5770   23.0450 C   0  0  0  0  0  3  0  0  0  0  0  0
  -25.6680  -32.2650   23.6610 C   0  0  0  0  0  3  0  0  0  0  0  0
  -25.3260  -33.6440   24.0310 N   0  0  0  0  0  0  0  0  0  0  0  0
  -25.6580  -34.7270   23.3160 C   0  0  0  0  0  0  0  0  0  0  0  0
  -26.3540  -34.6700   22.2990 O   0  0  0  0  0  0  0  0  0  0  0  0
  -24.7060  -33.7580   24.8200 H   0  0  0  0  0  0  0  0  0  0  0  0
  -23.9030  -36.4970   22.9810 C   0  0  0  0  0  1  0  0  0  0  0  0
  -25.1340  -36.0910   23.8090 C   0  0  0  0  0  3  0  0  0  0  0  0
  -27.2310  -36.9850   24.7200 C   0  0  0  0  0  1  0  0  0  0  0  0
  -26.1490  -37.1670   23.7550 N   0  0  0  0  0  0  0  0  0  0  0  0
  -25.7240  -38.0750   23.9250 H   0  0  0  0  0  0  0  0  0  0  0  0
  -26.1860  -31.4620   24.9140 C   0  0  1  0  0  0  0  0  0  0  0  0
  -25.0880  -31.1710   25.9630 C   0  0  0  0  0  1  0  0  0  0  0  0
  -26.7930  -30.1080   24.4770 C   0  0  0  0  0  1  0  0  0  0  0  0
  -27.3230  -32.2490   25.6070 C   0  0  0  0  0  1  0  0  0  0  0  0
  1  6  1  0
  2  4  1  0
  2  1  1  0
  3  1  2  0
  5  8  1  0
  6  5  2  0
  7  9  1  0
  8  7  2  0
  9 10  2  0
 10 11  1  0
 11 12  2  0
 12 13  1  0
 14 13  1  0
 14 15  1  0
 16 15  1  0
 16 17  1  0
 18 26  1  0
 19 24  1  0
 20 21  1  0
 20 19  1  0
 22 21  1  0
 22 31  1  0
 22 23  1  0
 24 18  1  0
 24 23  1  0
 25 18  2  0
 26 17  1  0
 26 27  1  0
 28 29  2  0
 29 48  1  0
 30 29  1  0
 30 33  1  0
 31 32  1  0
 31 28  1  0
 32 30  2  0
 33 34  1  0
 34 35  2  0
 36 39  1  0
 36 35  1  0
 37 36  2  0
 38 37  1  0
 38 33  2  0
 39 40  1  0
 40 45  2  0
 40 41  1  0
 41 42  2  0
 42 43  1  0
 43 47  1  0
 44 43  2  0
 45 44  1  0
 46 45  1  0
 48 49  1  0
 49 52  1  0
 49 51  1  0
 50 48  2  0
 53 28  1  0
 53 54  1  0
 55 53  1  0
 56  2  1  0
 57 56  1  0
 57 58  1  0
 58 59  1  0
 59 60  1  0
 60 61  1  0
 61 62  1  0
 62 63  1  0
 63 64  1  0
 64 66  1  0
 65 76  2  0
 66 71  1  0
 67 75  1  0
 67 77  1  0
 68 74  1  0
 68 70  1  0
 69 75  1  0
 70 71  2  0
 70 69  1  0
 72 66  2  0
 73 72  1  0
 73 68  2  0
 74 67  1  0
 75 65  1  0
 77 79  2  0
 78 77  1  0
 80 78  1  0
 81 90  2  0
 81 86  1  0
 82 78  1  0
 82 86  1  0
 83 82  1  0
 84 85  1  0
 84 83  1  0
 85 81  1  0
 86 87  2  0
 87 88  1  0
 89 88  2  0
 90 89  1  0
 91 65  1  0
 91 92  1  0
 91101  1  0
 92 95  1  0
 93 97  1  0
 93 92  1  0
 94 93  2  0
 97 96  1  0
 99 97  1  0
 99100  1  0
 99 98  1  0
101104  1  1
101102  1  0
103101  1  0
M  ISO  4  18 100  26 100  63 101  64 101
M  END
>  <TORSDO>  (13) 
F 33

>  <SCORE>  (13) 
-8.984

>  <name>  (13) 
13

>  <ligand_id>  (13) 
13

>  <original_smiles>  (13) 
[H]C(C(=O)N([H])C([H])([H])C([H])([H])OC([H])([H])C([H])([H])OC([H])([H])C([H])([H])Oc1c([H])c([H])c2c(c1[H])C([H])([H])N(C(=O)C([H])(N([H])C(=O)C([H])(N([H])C([H])([H])[H])C([H])([H])[H])C(C([H])([H])[H])(C([H])([H])[H])C([H])([H])[H])C([H])(C(=O)N([H])C1([H])c3c([H])c([H])c([H])c([H])c3C([H])([H])C([H])([H])C1([H])[H])C2([H])[H])=C([H])C([H])=C([H])C([H])=C([H])C([H])=C([H])C([H])([H])OC([H])([H])C([H])([H])C([H])([H])N([H])C(=O)N1C([H])([H])C([H])([H])C([H])([H])C([H])(n2nc(-c3c([H])c([H])c(Oc4c([H])c([H])c(F)c([H])c4F)c([H])c3[H])c(C(=O)N([H])[H])c2N([H])[H])C1([H])[H]

>  <smiles>  (13) 
[H]C(C(=O)N([H])C([H])([H])C([H])([H])OC([H])([H])C([H])([H])OC([H])([H])C([H])([H])Oc1c([H])c([H])c2c(c1[H])C([H])([H])N(C(=O)C([H])(N([H])C(=O)C([H])(N([H])C([H])([H])[H])C([H])([H])[H])C(C([H])([H])[H])(C([H])([H])[H])C([H])([H])[H])C([H])(C(=O)N([H])C1([H])c3c([H])c([H])c([H])c([H])c3C([H])([H])C([H])([H])C1([H])[H])C2([H])[H])=C([H])C([H])=C([H])C([H])=C([H])C([H])=C([H])C([H])([H])OC([H])([H])C([H])([H])C([H])([H])N([H])C(=O)N1C([H])([H])C([H])([H])C([H])([H])C([H])(n2nc(-c3c([H])c([H])c(Oc4c([H])c([H])c(F)c([H])c4F)c([H])c3[H])c(C(=O)N([H])[H])c2N([H])[H])C1([H])[H]

$$$$
14:0:0
     RDKit          3D

107114  0  0  1  0  0  0  0  0999 V2000
  -25.7450  -27.3250   15.7300 C   0  0  0  0  0  0  0  0  0  0  0  0
  -26.1990  -28.5270   16.1020 N   0  0  0  0  0  0  0  0  0  0  0  0
  -26.2900  -26.6440   14.8620 O   0  0  0  0  0  0  0  0  0  0  0  0
  -25.7050  -28.9680   16.8640 H   0  0  0  0  0  0  0  0  0  0  0  0
  -24.0890  -25.7840   16.7970 C   0  0  0  0  0  3  0  0  0  0  0  0
  -24.5020  -27.0130   16.4180 C   0  0  0  0  0  3  0  0  0  0  0  0
  -24.7950  -24.5230   16.6390 C   0  0  0  0  0  3  0  0  0  0  0  0
  -24.4740  -23.4310   17.3500 C   0  0  0  0  0  3  0  0  0  0  0  0
  -25.1830  -22.1040   17.2300 C   0  0  0  0  0  2  0  0  0  0  0  0
  -25.8890  -21.7910   18.4640 N   0  0  0  0  0  0  0  0  0  0  0  0
  -26.3850  -22.6200   18.7820 H   0  0  0  0  0  0  0  0  0  0  0  0
  -26.8580  -20.7250   18.2300 C   0  0  0  0  0  2  0  0  0  0  0  0
  -27.4750  -20.2520   19.5620 C   0  0  0  0  0  2  0  0  0  0  0  0
  -28.5670  -19.2900   19.3230 N   0  0  0  0  0  4  0  0  0  0  0  0
  -28.3010  -18.7080   18.5440 H   0  0  0  0  0  0  0  0  0  0  0  0
  -29.3920  -19.8030   19.0550 H   0  0  0  0  0  0  0  0  0  0  0  0
  -28.8720  -18.4100   20.4700 C   0  0  0  0  0  2  0  0  0  0  0  0
  -29.9820  -17.4040   20.1110 C   0  0  0  0  0  2  0  0  0  0  0  0
  -30.6770  -15.1160   20.5650 C   0  0  0  0  0  0  0  0  0  0  0  0
  -30.4990  -12.9790   19.4000 C   0  0  0  0  0  2  0  0  0  0  0  0
  -29.5940  -13.2090   18.1700 C   0  0  0  0  0  2  0  0  0  0  0  0
  -28.1110  -13.0080   18.5480 C   0  0  0  0  0  2  0  0  0  0  0  0
  -27.7020  -13.7950   19.8210 C   0  0  0  0  0  3  0  0  0  0  0  0
  -28.7280  -13.5770   20.9600 C   0  0  0  0  0  2  0  0  0  0  0  0
  -30.0660  -13.9130   20.4460 N   0  0  0  0  0  0  0  0  0  0  0  0
  -31.8270  -15.3420   20.1810 O   0  0  0  0  0  0  0  0  0  0  0  0
  -29.8340  -16.1270   20.8100 N   0  0  0  0  0  0  0  0  0  0  0  0
  -28.9160  -15.8750   21.1410 H   0  0  0  0  0  0  0  0  0  0  0  0
  -25.2520  -14.2940   20.4430 C   0  0  0  0  0  0  0  0  0  0  0  0
  -24.2100  -13.4750   20.7730 C   0  0  0  0  0  0  0  0  0  0  0  0
  -24.7330  -12.1460   20.7580 C   0  0  0  0  0  0  0  0  0  0  0  0
  -26.3440  -13.4630   20.2480 N   0  0  0  0  0  0  0  0  0  0  0  0
  -26.0320  -12.1650   20.4960 N   0  0  0  0  0  0  0  0  0  0  0  0
  -24.0590  -10.8530   20.9230 C   0  0  0  0  0  0  0  0  0  0  0  0
  -24.4360   -9.9530   21.9450 C   0  0  0  0  0  3  0  0  0  0  0  0
  -23.7650   -8.7200   22.0970 C   0  0  0  0  0  3  0  0  0  0  0  0
  -22.7040   -8.3780   21.2240 C   0  0  0  0  0  0  0  0  0  0  0  0
  -22.3470   -9.2680   20.1960 C   0  0  0  0  0  3  0  0  0  0  0  0
  -23.0190  -10.4930   20.0430 C   0  0  0  0  0  3  0  0  0  0  0  0
  -22.0120   -7.1910   21.2770 O   0  0  0  0  0  0  0  0  0  0  0  0
  -21.8010   -6.5340   22.4630 C   0  0  0  0  0  0  0  0  0  0  0  0
  -21.0680   -7.1180   23.5190 C   0  0  0  0  0  3  0  0  0  0  0  0
  -20.8140   -6.3790   24.6910 C   0  0  0  0  0  3  0  0  0  0  0  0
  -21.2870   -5.0580   24.8100 C   0  0  0  0  0  0  0  0  0  0  0  0
  -22.0170   -4.4770   23.7570 C   0  0  0  0  0  3  0  0  0  0  0  0
  -22.2710   -5.2120   22.5870 C   0  0  0  0  0  0  0  0  0  0  0  0
  -22.9530   -4.6380   21.5680 F   0  0  0  0  0  0  0  0  0  0  0  0
  -21.0410   -4.3460   25.9340 F   0  0  0  0  0  0  0  0  0  0  0  0
  -22.7810  -13.8840   20.9970 C   0  0  0  0  0  0  0  0  0  0  0  0
  -22.0580  -13.1450   21.8280 N   0  0  0  0  0  0  0  0  0  0  0  0
  -22.3150  -14.8950   20.4710 O   0  0  0  0  0  0  0  0  0  0  0  0
  -22.4470  -12.3290   22.2770 H   0  0  0  0  0  0  0  0  0  0  0  0
  -21.1010  -13.4000   22.0280 H   0  0  0  0  0  0  0  0  0  0  0  0
  -25.3630  -15.6740   20.2690 N   0  0  0  0  0  0  0  0  0  0  0  0
  -24.5580  -16.2890   20.3170 H   0  0  0  0  0  0  0  0  0  0  0  0
  -26.1840  -16.1280   19.8970 H   0  0  0  0  0  0  0  0  0  0  0  0
  -27.1730  -29.3760   15.4190 C   0  0  0  0  0  2  0  0  0  0  0  0
  -28.5690  -28.7590   15.2330 C   0  0  0  0  0  2  0  0  0  0  0  0
  -29.2590  -28.6020   16.4710 O   0  0  0  0  0  0  0  0  0  0  0  0
  -30.6330  -28.2690   16.2550 C   0  0  0  0  0  2  0  0  0  0  0  0
  -31.4050  -28.4020   17.5730 C   0  0  0  0  0  2  0  0  0  0  0  0
  -30.9000  -27.4160   18.5510 N   0  0  0  0  0  4  0  0  0  0  0  0
  -31.0890  -26.4780   18.2300 H   0  0  0  0  0  0  0  0  0  0  0  0
  -29.8930  -27.5340   18.6080 H   0  0  0  0  0  0  0  0  0  0  0  0
  -31.4120  -27.5690   19.9290 C   0  0  0  0  0  2  0  0  0  0  0  0
  -30.3980  -27.0510   20.9660 C   0  0  0  0  0  2  0  0  0  0  0  0
  -29.1870  -26.5870   20.3620 O   0  0  0  0  0  0  0  0  0  0  0  0
  -25.3060  -31.5410   23.7440 C   0  0  0  0  0  0  0  0  0  0  0  0
  -28.0350  -27.3380   20.4770 C   0  0  0  0  0  0  0  0  0  0  0  0
  -24.1260  -30.2410   21.9940 C   0  0  0  0  0  3  0  0  0  0  0  0
  -25.6150  -28.7940   20.5170 C   0  0  0  0  0  0  0  0  0  0  0  0
  -26.6370  -30.6500   21.8400 C   0  0  0  0  0  2  0  0  0  0  0  0
  -26.7490  -29.3060   21.1530 C   0  0  0  0  0  0  0  0  0  0  0  0
  -27.9560  -28.5810   21.1510 C   0  0  0  0  0  3  0  0  0  0  0  0
  -26.8820  -26.8320   19.8530 C   0  0  0  0  0  3  0  0  0  0  0  0
  -25.6660  -27.5460   19.8780 C   0  0  0  0  0  3  0  0  0  0  0  0
  -24.3690  -29.6460   20.5770 C   0  0  0  0  0  2  0  0  0  0  0  0
  -25.3760  -30.8180   22.5910 N   0  0  0  0  0  0  0  0  0  0  0  0
  -24.2190  -31.7760   24.2870 O   0  0  0  0  0  0  0  0  0  0  0  0
  -23.4600  -29.1680   22.8820 C   0  0  0  0  0  0  0  0  0  0  0  0
  -22.1760  -28.8830   22.6170 N   0  0  0  0  0  0  0  0  0  0  0  0
  -24.1010  -28.5920   23.7650 O   0  0  0  0  0  0  0  0  0  0  0  0
  -21.7120  -29.4080   21.8880 H   0  0  0  0  0  0  0  0  0  0  0  0
  -18.9060  -27.3590   22.6920 C   0  0  0  0  0  0  0  0  0  0  0  0
  -21.3630  -27.8770   23.2970 C   0  0  0  0  0  3  0  0  0  0  0  0
  -21.6880  -26.4550   22.7850 C   0  0  0  0  0  2  0  0  0  0  0  0
  -20.7710  -26.0030   21.6440 C   0  0  0  0  0  2  0  0  0  0  0  0
  -19.3080  -26.0190   22.0970 C   0  0  0  0  0  2  0  0  0  0  0  0
  -19.8750  -28.2340   23.2480 C   0  0  0  0  0  0  0  0  0  0  0  0
  -19.4570  -29.4780   23.7680 C   0  0  0  0  0  3  0  0  0  0  0  0
  -18.1030  -29.8520   23.7420 C   0  0  0  0  0  3  0  0  0  0  0  0
  -17.1420  -28.9740   23.2090 C   0  0  0  0  0  3  0  0  0  0  0  0
  -17.5450  -27.7310   22.6870 C   0  0  0  0  0  3  0  0  0  0  0  0
  -26.5840  -32.1330   24.4160 C   0  0  0  0  0  3  0  0  0  0  0  0
  -26.2840  -33.5180   24.7970 N   0  0  0  0  0  0  0  0  0  0  0  0
  -26.6570  -34.6000   24.0970 C   0  0  0  0  0  0  0  0  0  0  0  0
  -27.3620  -34.5410   23.0850 O   0  0  0  0  0  0  0  0  0  0  0  0
  -25.6670  -33.6410   25.5860 H   0  0  0  0  0  0  0  0  0  0  0  0
  -24.9930  -36.4420   23.7370 C   0  0  0  0  0  1  0  0  0  0  0  0
  -26.1660  -35.9650   24.6060 C   0  0  0  0  0  3  0  0  0  0  0  0
  -28.2430  -36.7650   25.6460 C   0  0  0  0  0  1  0  0  0  0  0  0
  -27.2200  -37.0020   24.6290 N   0  0  0  0  0  0  0  0  0  0  0  0
  -26.8180  -37.9220   24.7900 H   0  0  0  0  0  0  0  0  0  0  0  0
  -27.0780  -31.3000   25.6600 C   0  0  1  0  0  0  0  0  0  0  0  0
  -25.9610  -30.9990   26.6850 C   0  0  0  0  0  1  0  0  0  0  0  0
  -27.6710  -29.9480   25.1940 C   0  0  0  0  0  1  0  0  0  0  0  0
  -28.2070  -32.0610   26.3920 C   0  0  0  0  0  1  0  0  0  0  0  0
  1  2  1  0
  1  6  1  0
  2  4  1  0
  3  1  2  0
  6  5  2  0
  7  5  1  0
  7  8  2  0
  9  8  1  0
  9 10  1  0
 10 11  1  0
 12 10  1  0
 12 13  1  0
 14 13  1  0
 14 17  1  0
 15 14  1  0
 16 14  1  0
 18 17  1  0
 18 27  1  0
 19 27  1  0
 20 25  1  0
 21 22  1  0
 21 20  1  0
 23 22  1  0
 23 32  1  0
 23 24  1  0
 25 19  1  0
 25 24  1  0
 26 19  2  0
 27 28  1  0
 29 30  2  0
 30 49  1  0
 31 30  1  0
 31 34  1  0
 32 29  1  0
 32 33  1  0
 33 31  2  0
 34 35  1  0
 35 36  2  0
 37 40  1  0
 37 36  1  0
 38 37  2  0
 39 38  1  0
 39 34  2  0
 40 41  1  0
 41 46  2  0
 41 42  1  0
 42 43  2  0
 43 44  1  0
 44 48  1  0
 45 44  2  0
 46 45  1  0
 47 46  1  0
 49 50  1  0
 50 53  1  0
 50 52  1  0
 51 49  2  0
 54 55  1  0
 54 29  1  0
 56 54  1  0
 57  2  1  0
 58 57  1  0
 58 59  1  0
 60 59  1  0
 60 61  1  0
 61 62  1  0
 62 64  1  0
 62 65  1  0
 63 62  1  0
 65 66  1  0
 67 69  1  0
 67 66  1  0
 68 79  2  0
 69 74  1  0
 70 78  1  0
 70 80  1  0
 71 77  1  0
 71 73  1  0
 72 78  1  0
 73 72  1  0
 74 73  2  0
 75 76  1  0
 75 69  2  0
 76 71  2  0
 77 70  1  0
 78 68  1  0
 80 82  2  0
 81 80  1  0
 83 81  1  0
 84 89  1  0
 85 81  1  0
 86 85  1  0
 87 88  1  0
 87 86  1  0
 88 84  1  0
 89 85  1  0
 89 90  2  0
 91 90  1  0
 92 91  2  0
 93 84  2  0
 93 92  1  0
 94 68  1  0
 94 95  1  0
 94104  1  0
 95 98  1  0
 96100  1  0
 96 95  1  0
 97 96  2  0
100 99  1  0
100102  1  0
102103  1  0
102101  1  0
104107  1  1
104105  1  0
106104  1  0
M  ISO  4  19 100  27 100  66 101  67 101
M  END
>  <TORSDO>  (14) 
F 33

>  <SCORE>  (14) 
-9.222

>  <name>  (14) 
14

>  <ligand_id>  (14) 
14

>  <original_smiles>  (14) 
[H]C(C(=O)N([H])C([H])([H])C([H])([H])OC([H])([H])C([H])([H])[N+]([H])([H])C([H])([H])C([H])([H])Oc1c([H])c([H])c2c(c1[H])C([H])([H])N(C(=O)C([H])(N([H])C(=O)C([H])(N([H])C([H])([H])[H])C([H])([H])[H])C(C([H])([H])[H])(C([H])([H])[H])C([H])([H])[H])C([H])(C(=O)N([H])C1([H])c3c([H])c([H])c([H])c([H])c3C([H])([H])C([H])([H])C1([H])[H])C2([H])[H])=C([H])C([H])=C([H])C([H])([H])N([H])C([H])([H])C([H])([H])[N+]([H])([H])C([H])([H])C([H])([H])N([H])C(=O)N1C([H])([H])C([H])([H])C([H])([H])C([H])(n2nc(-c3c([H])c([H])c(Oc4c([H])c([H])c(F)c([H])c4F)c([H])c3[H])c(C(=O)N([H])[H])c2N([H])[H])C1([H])[H]

>  <smiles>  (14) 
[H]C(C(=O)N([H])C([H])([H])C([H])([H])OC([H])([H])C([H])([H])[N+]([H])([H])C([H])([H])C([H])([H])Oc1c([H])c([H])c2c(c1[H])C([H])([H])N(C(=O)C([H])(N([H])C(=O)C([H])(N([H])C([H])([H])[H])C([H])([H])[H])C(C([H])([H])[H])(C([H])([H])[H])C([H])([H])[H])C([H])(C(=O)N([H])C1([H])c3c([H])c([H])c([H])c([H])c3C([H])([H])C([H])([H])C1([H])[H])C2([H])[H])=C([H])C([H])=C([H])C([H])([H])N([H])C([H])([H])C([H])([H])[N+]([H])([H])C([H])([H])C([H])([H])N([H])C(=O)N1C([H])([H])C([H])([H])C([H])([H])C([H])(n2nc(-c3c([H])c([H])c(Oc4c([H])c([H])c(F)c([H])c4F)c([H])c3[H])c(C(=O)N([H])[H])c2N([H])[H])C1([H])[H]

$$$$
15:0:0
     RDKit          3D

 99106  0  0  1  0  0  0  0  0999 V2000
  -28.3550  -23.0570   16.8060 C   0  0  0  0  0  0  0  0  0  0  0  0
  -27.4530  -22.5220   17.6330 N   0  0  0  0  0  0  0  0  0  0  0  0
  -28.6970  -22.5160   15.7510 O   0  0  0  0  0  0  0  0  0  0  0  0
  -27.2410  -23.0230   18.4840 H   0  0  0  0  0  0  0  0  0  0  0  0
  -29.8230  -24.9840   16.6330 C   0  0  0  0  0  3  0  0  0  0  0  0
  -28.8560  -24.3220   17.3070 C   0  0  0  0  0  3  0  0  0  0  0  0
  -30.3820  -26.2600   17.0520 C   0  0  0  0  0  0  0  0  0  0  0  0
  -30.0490  -26.6300   18.2920 N   0  0  0  0  0  0  0  0  0  0  0  0
  -31.1050  -26.9560   16.3380 O   0  0  0  0  0  0  0  0  0  0  0  0
  -29.4660  -26.0050   18.8300 H   0  0  0  0  0  0  0  0  0  0  0  0
  -30.4280  -27.8720   18.9570 C   0  0  0  0  0  2  0  0  0  0  0  0
  -30.3280  -27.6880   20.4800 C   0  0  0  0  0  2  0  0  0  0  0  0
  -29.1280  -26.9890   20.8060 O   0  0  0  0  0  0  0  0  0  0  0  0
  -24.7140  -31.9390   23.4520 C   0  0  0  0  0  0  0  0  0  0  0  0
  -27.9390  -27.6740   20.7260 C   0  0  0  0  0  0  0  0  0  0  0  0
  -23.7520  -30.4080   21.7610 C   0  0  0  0  0  3  0  0  0  0  0  0
  -25.4300  -28.9510   20.5080 C   0  0  0  0  0  0  0  0  0  0  0  0
  -26.2460  -30.9650   21.7500 C   0  0  0  0  0  2  0  0  0  0  0  0
  -26.4880  -29.5910   21.1650 C   0  0  0  0  0  0  0  0  0  0  0  0
  -27.7440  -28.9600   21.2770 C   0  0  0  0  0  3  0  0  0  0  0  0
  -26.8590  -27.0290   20.0900 C   0  0  0  0  0  3  0  0  0  0  0  0
  -25.6070  -27.6640   19.9690 C   0  0  0  0  0  3  0  0  0  0  0  0
  -24.1230  -29.7070   20.4250 C   0  0  0  0  0  2  0  0  0  0  0  0
  -24.9160  -31.1210   22.3810 N   0  0  0  0  0  0  0  0  0  0  0  0
  -23.5770  -32.1410   23.8970 O   0  0  0  0  0  0  0  0  0  0  0  0
  -23.1000  -29.3660   22.6980 C   0  0  0  0  0  0  0  0  0  0  0  0
  -21.8150  -29.0680   22.4570 N   0  0  0  0  0  0  0  0  0  0  0  0
  -23.7540  -28.8270   23.5960 O   0  0  0  0  0  0  0  0  0  0  0  0
  -21.3480  -29.5580   21.7070 H   0  0  0  0  0  0  0  0  0  0  0  0
  -18.5060  -27.6410   22.7110 C   0  0  0  0  0  0  0  0  0  0  0  0
  -21.0060  -28.0890   23.1840 C   0  0  0  0  0  3  0  0  0  0  0  0
  -21.2580  -26.6580   22.6560 C   0  0  0  0  0  2  0  0  0  0  0  0
  -20.2710  -26.2360   21.5640 C   0  0  0  0  0  2  0  0  0  0  0  0
  -18.8330  -26.2930   22.0900 C   0  0  0  0  0  2  0  0  0  0  0  0
  -19.5280  -28.4900   23.2100 C   0  0  0  0  0  0  0  0  0  0  0  0
  -19.1730  -29.7480   23.7450 C   0  0  0  0  0  3  0  0  0  0  0  0
  -17.8280  -30.1580   23.7880 C   0  0  0  0  0  3  0  0  0  0  0  0
  -16.8180  -29.3050   23.3070 C   0  0  0  0  0  3  0  0  0  0  0  0
  -17.1580  -28.0500   22.7750 C   0  0  0  0  0  3  0  0  0  0  0  0
  -25.8970  -32.6790   24.1520 C   0  0  0  0  0  3  0  0  0  0  0  0
  -25.4900  -34.0750   24.3520 N   0  0  0  0  0  0  0  0  0  0  0  0
  -25.8600  -35.0950   23.5650 C   0  0  0  0  0  0  0  0  0  0  0  0
  -26.6480  -34.9640   22.6250 O   0  0  0  0  0  0  0  0  0  0  0  0
  -24.7990  -34.2460   25.0670 H   0  0  0  0  0  0  0  0  0  0  0  0
  -24.1070  -36.7680   22.8930 C   0  0  0  0  0  1  0  0  0  0  0  0
  -25.2580  -36.4800   23.8710 C   0  0  0  0  0  3  0  0  0  0  0  0
  -27.2250  -37.5320   24.8960 C   0  0  0  0  0  1  0  0  0  0  0  0
  -26.2480  -37.5770   23.8110 N   0  0  0  0  0  0  0  0  0  0  0  0
  -25.7850  -38.4820   23.8380 H   0  0  0  0  0  0  0  0  0  0  0  0
  -26.3210  -32.0180   25.5210 C   0  0  1  0  0  0  0  0  0  0  0  0
  -25.1370  -31.7650   26.4820 C   0  0  0  0  0  1  0  0  0  0  0  0
  -27.0280  -30.6640   25.2740 C   0  0  0  0  0  1  0  0  0  0  0  0
  -27.3400  -32.9260   26.2480 C   0  0  0  0  0  1  0  0  0  0  0  0
  -26.7810  -21.2390   17.4460 C   0  0  0  0  0  2  0  0  0  0  0  0
  -26.8060  -20.4270   18.7470 C   0  0  0  0  0  2  0  0  0  0  0  0
  -28.1550  -20.1100   19.0630 O   0  0  0  0  0  0  0  0  0  0  0  0
  -28.2640  -19.1490   20.1010 C   0  0  0  0  0  2  0  0  0  0  0  0
  -29.7460  -18.8170   20.2970 C   0  0  0  0  0  2  0  0  0  0  0  0
  -29.9590  -17.6040   21.2140 C   0  0  0  0  0  2  0  0  0  0  0  0
  -31.4430  -17.2220   21.3460 C   0  0  0  0  0  2  0  0  0  0  0  0
  -31.6820  -15.9000   22.1030 C   0  0  0  0  0  2  0  0  0  0  0  0
  -31.2530  -14.1480   20.3760 C   0  0  0  0  0  0  0  0  0  0  0  0
  -30.6310  -12.3330   18.8260 C   0  0  0  0  0  2  0  0  0  0  0  0
  -29.6660  -12.8250   17.7330 C   0  0  0  0  0  2  0  0  0  0  0  0
  -28.2070  -12.7420   18.2190 C   0  0  0  0  0  2  0  0  0  0  0  0
  -28.0090  -13.4000   19.6100 C   0  0  0  0  0  3  0  0  0  0  0  0
  -29.0730  -12.8980   20.6110 C   0  0  0  0  0  2  0  0  0  0  0  0
  -30.4110  -13.1380   20.0360 N   0  0  0  0  0  0  0  0  0  0  0  0
  -32.2520  -14.4540   19.7150 O   0  0  0  0  0  0  0  0  0  0  0  0
  -30.9520  -14.7760   21.5180 N   0  0  0  0  0  0  0  0  0  0  0  0
  -30.1450  -14.4370   22.0210 H   0  0  0  0  0  0  0  0  0  0  0  0
  -25.6670  -14.1070   20.4200 C   0  0  0  0  0  0  0  0  0  0  0  0
  -24.5650  -13.3780   20.7810 C   0  0  0  0  0  0  0  0  0  0  0  0
  -24.9450  -12.0060   20.6630 C   0  0  0  0  0  0  0  0  0  0  0  0
  -26.6520  -13.1820   20.1120 N   0  0  0  0  0  0  0  0  0  0  0  0
  -26.2200  -11.9100   20.3110 N   0  0  0  0  0  0  0  0  0  0  0  0
  -24.1510  -10.7790   20.8090 C   0  0  0  0  0  0  0  0  0  0  0  0
  -24.4930   -9.7860   21.7540 C   0  0  0  0  0  3  0  0  0  0  0  0
  -23.7050   -8.6230   21.8870 C   0  0  0  0  0  3  0  0  0  0  0  0
  -22.5590   -8.4450   21.0760 C   0  0  0  0  0  0  0  0  0  0  0  0
  -22.2370   -9.4250   20.1210 C   0  0  0  0  0  3  0  0  0  0  0  0
  -23.0250  -10.5810   19.9860 C   0  0  0  0  0  3  0  0  0  0  0  0
  -21.7500   -7.3360   21.1180 O   0  0  0  0  0  0  0  0  0  0  0  0
  -21.5460   -6.6370   22.2810 C   0  0  0  0  0  0  0  0  0  0  0  0
  -20.9440   -7.2300   23.4110 C   0  0  0  0  0  3  0  0  0  0  0  0
  -20.6910   -6.4560   24.5610 C   0  0  0  0  0  3  0  0  0  0  0  0
  -21.0290   -5.0900   24.5810 C   0  0  0  0  0  0  0  0  0  0  0  0
  -21.6240   -4.4960   23.4530 C   0  0  0  0  0  3  0  0  0  0  0  0
  -21.8790   -5.2680   22.3050 C   0  0  0  0  0  0  0  0  0  0  0  0
  -22.4330   -4.6850   21.2140 F   0  0  0  0  0  0  0  0  0  0  0  0
  -20.7800   -4.3440   25.6820 F   0  0  0  0  0  0  0  0  0  0  0  0
  -23.2070  -13.9180   21.1260 C   0  0  0  0  0  0  0  0  0  0  0  0
  -22.4680  -13.2200   21.9810 N   0  0  0  0  0  0  0  0  0  0  0  0
  -22.8120  -14.9930   20.6740 O   0  0  0  0  0  0  0  0  0  0  0  0
  -22.8000  -12.3490   22.3680 H   0  0  0  0  0  0  0  0  0  0  0  0
  -21.5570  -13.5610   22.2530 H   0  0  0  0  0  0  0  0  0  0  0  0
  -25.9080  -15.4740   20.3120 N   0  0  0  0  0  0  0  0  0  0  0  0
  -25.1890  -16.1670   20.4830 H   0  0  0  0  0  0  0  0  0  0  0  0
  -26.7830  -15.8760   20.0010 H   0  0  0  0  0  0  0  0  0  0  0  0
  1  6  1  0
  1  2  1  0
  2  4  1  0
  3  1  2  0
  5  7  1  0
  5  6  2  0
  7  8  1  0
  8 10  1  0
  8 11  1  0
  9  7  2  0
 11 12  1  0
 12 13  1  0
 14 25  2  0
 15 13  1  0
 15 20  1  0
 16 24  1  0
 16 26  1  0
 17 19  1  0
 18 24  1  0
 19 20  2  0
 19 18  1  0
 21 15  2  0
 22 21  1  0
 22 17  2  0
 23 17  1  0
 23 16  1  0
 24 14  1  0
 26 28  2  0
 27 26  1  0
 29 27  1  0
 30 39  2  0
 30 35  1  0
 31 27  1  0
 31 35  1  0
 32 31  1  0
 33 34  1  0
 33 32  1  0
 34 30  1  0
 35 36  2  0
 36 37  1  0
 38 37  2  0
 39 38  1  0
 40 14  1  0
 40 41  1  0
 40 50  1  0
 41 44  1  0
 42 46  1  0
 42 41  1  0
 43 42  2  0
 46 45  1  0
 48 49  1  0
 48 46  1  0
 48 47  1  0
 50 53  1  1
 50 51  1  0
 52 50  1  0
 54  2  1  0
 54 55  1  0
 55 56  1  0
 56 57  1  0
 57 58  1  0
 58 59  1  0
 59 60  1  0
 60 61  1  0
 62 70  1  0
 63 68  1  0
 64 65  1  0
 64 63  1  0
 66 65  1  0
 66 75  1  0
 66 67  1  0
 68 62  1  0
 68 67  1  0
 69 62  2  0
 70 71  1  0
 70 61  1  0
 72 73  2  0
 73 92  1  0
 74 73  1  0
 74 77  1  0
 75 76  1  0
 75 72  1  0
 76 74  2  0
 77 78  1  0
 78 79  2  0
 80 83  1  0
 80 79  1  0
 81 80  2  0
 82 81  1  0
 82 77  2  0
 83 84  1  0
 84 89  2  0
 84 85  1  0
 85 86  2  0
 86 87  1  0
 87 91  1  0
 88 87  2  0
 89 88  1  0
 90 89  1  0
 92 93  1  0
 93 96  1  0
 93 95  1  0
 94 92  2  0
 97 72  1  0
 97 98  1  0
 99 97  1  0
M  ISO  4  12 101  13 101  62 100  70 100
M  END
>  <TORSDO>  (15) 
F 28

>  <SCORE>  (15) 
-8.882

>  <name>  (15) 
15

>  <ligand_id>  (15) 
15

>  <original_smiles>  (15) 
[H]C(C(=O)N([H])C([H])([H])C([H])([H])Oc1c([H])c([H])c2c(c1[H])C([H])([H])N(C(=O)C([H])(N([H])C(=O)C([H])(N([H])C([H])([H])[H])C([H])([H])[H])C(C([H])([H])[H])(C([H])([H])[H])C([H])([H])[H])C([H])(C(=O)N([H])C1([H])c3c([H])c([H])c([H])c([H])c3C([H])([H])C([H])([H])C1([H])[H])C2([H])[H])=C([H])C(=O)N([H])C([H])([H])C([H])([H])OC([H])([H])C([H])([H])C([H])([H])C([H])([H])C([H])([H])N([H])C(=O)N1C([H])([H])C([H])([H])C([H])([H])C([H])(n2nc(-c3c([H])c([H])c(Oc4c([H])c([H])c(F)c([H])c4F)c([H])c3[H])c(C(=O)N([H])[H])c2N([H])[H])C1([H])[H]

>  <smiles>  (15) 
[H]C(C(=O)N([H])C([H])([H])C([H])([H])Oc1c([H])c([H])c2c(c1[H])C([H])([H])N(C(=O)C([H])(N([H])C(=O)C([H])(N([H])C([H])([H])[H])C([H])([H])[H])C(C([H])([H])[H])(C([H])([H])[H])C([H])([H])[H])C([H])(C(=O)N([H])C1([H])c3c([H])c([H])c([H])c([H])c3C([H])([H])C([H])([H])C1([H])[H])C2([H])[H])=C([H])C(=O)N([H])C([H])([H])C([H])([H])OC([H])([H])C([H])([H])C([H])([H])C([H])([H])C([H])([H])N([H])C(=O)N1C([H])([H])C([H])([H])C([H])([H])C([H])(n2nc(-c3c([H])c([H])c(Oc4c([H])c([H])c(F)c([H])c4F)c([H])c3[H])c(C(=O)N([H])[H])c2N([H])[H])C1([H])[H]

$$$$
16:0:0
     RDKit          3D

103110  0  0  1  0  0  0  0  0999 V2000
  -20.0610  -20.6900   22.3810 C   0  0  0  0  0  2  0  0  0  0  0  0
  -21.1570  -19.8590   22.0050 O   0  0  0  0  0  0  0  0  0  0  0  0
  -21.7080  -20.2730   20.7590 C   0  0  0  0  0  2  0  0  0  0  0  0
  -22.9080  -19.4000   20.3440 C   0  0  0  0  0  2  0  0  0  0  0  0
  -23.7120  -20.0600   19.1990 C   0  0  0  0  0  2  0  0  0  0  0  0
  -25.1370  -19.6430   19.1320 N   0  0  0  0  0  4  0  0  0  0  0  0
  -25.5620  -19.8580   20.0180 H   0  0  0  0  0  0  0  0  0  0  0  0
  -25.1990  -18.6470   19.0080 H   0  0  0  0  0  0  0  0  0  0  0  0
  -25.9070  -20.3210   18.0560 C   0  0  0  0  0  2  0  0  0  0  0  0
  -27.3760  -20.5990   18.4520 C   0  0  0  0  0  2  0  0  0  0  0  0
  -28.1710  -21.4100   17.3990 C   0  0  0  0  0  2  0  0  0  0  0  0
  -28.4680  -22.7220   17.8800 O   0  0  0  0  0  0  0  0  0  0  0  0
  -23.3660  -27.1710   20.0270 C   0  0  0  0  0  0  0  0  0  0  0  0
  -27.6560  -23.7780   17.5180 C   0  0  0  0  0  0  0  0  0  0  0  0
  -23.8900  -27.2430   17.6110 C   0  0  0  0  0  3  0  0  0  0  0  0
  -25.9940  -25.9870   16.9030 C   0  0  0  0  0  0  0  0  0  0  0  0
  -25.6680  -26.5490   19.3140 C   0  0  0  0  0  2  0  0  0  0  0  0
  -26.2760  -25.6720   18.2370 C   0  0  0  0  0  0  0  0  0  0  0  0
  -27.1000  -24.5700   18.5480 C   0  0  0  0  0  3  0  0  0  0  0  0
  -27.3670  -24.1160   16.1740 C   0  0  0  0  0  3  0  0  0  0  0  0
  -26.5390  -25.2080   15.8660 C   0  0  0  0  0  3  0  0  0  0  0  0
  -25.1070  -27.1830   16.6490 C   0  0  0  0  0  2  0  0  0  0  0  0
  -24.2760  -26.9640   19.0320 N   0  0  0  0  0  0  0  0  0  0  0  0
  -22.2380  -27.6150   19.7780 O   0  0  0  0  0  0  0  0  0  0  0  0
  -22.7930  -26.2950   17.0770 C   0  0  0  0  0  0  0  0  0  0  0  0
  -22.3800  -26.5040   15.8170 N   0  0  0  0  0  0  0  0  0  0  0  0
  -22.3550  -25.3760   17.7770 O   0  0  0  0  0  0  0  0  0  0  0  0
  -22.7570  -27.3050   15.3230 H   0  0  0  0  0  0  0  0  0  0  0  0
  -21.0260  -25.8140   12.5380 C   0  0  0  0  0  0  0  0  0  0  0  0
  -21.3950  -25.6990   15.0920 C   0  0  0  0  0  3  0  0  0  0  0  0
  -21.9110  -24.2600   14.8440 C   0  0  0  0  0  2  0  0  0  0  0  0
  -22.6050  -24.0790   13.4900 C   0  0  0  0  0  2  0  0  0  0  0  0
  -21.6560  -24.4450   12.3480 C   0  0  0  0  0  2  0  0  0  0  0  0
  -20.9140  -26.4100   13.8230 C   0  0  0  0  0  0  0  0  0  0  0  0
  -20.3610  -27.7050   13.9300 C   0  0  0  0  0  3  0  0  0  0  0  0
  -19.9320  -28.4020   12.7850 C   0  0  0  0  0  3  0  0  0  0  0  0
  -20.0300  -27.8030   11.5180 C   0  0  0  0  0  3  0  0  0  0  0  0
  -20.5690  -26.5100   11.3990 C   0  0  0  0  0  3  0  0  0  0  0  0
  -23.7130  -26.8770   21.5240 C   0  0  0  0  0  3  0  0  0  0  0  0
  -23.1770  -27.9810   22.3270 N   0  0  0  0  0  0  0  0  0  0  0  0
  -23.9080  -29.0020   22.7970 C   0  0  0  0  0  0  0  0  0  0  0  0
  -25.1320  -29.0630   22.6700 O   0  0  0  0  0  0  0  0  0  0  0  0
  -22.1770  -28.0060   22.4530 H   0  0  0  0  0  0  0  0  0  0  0  0
  -23.0060  -31.3360   22.5900 C   0  0  0  0  0  1  0  0  0  0  0  0
  -23.1650  -30.1320   23.5330 C   0  0  0  0  0  3  0  0  0  0  0  0
  -23.8060  -29.5410   25.8290 C   0  0  0  0  0  1  0  0  0  0  0  0
  -23.8320  -30.5610   24.7830 N   0  0  0  0  0  0  0  0  0  0  0  0
  -23.4030  -31.4060   25.1520 H   0  0  0  0  0  0  0  0  0  0  0  0
  -23.1380  -25.4980   22.0340 C   0  0  1  0  0  0  0  0  0  0  0  0
  -21.6320  -25.3030   21.7350 C   0  0  0  0  0  1  0  0  0  0  0  0
  -23.9100  -24.3200   21.3980 C   0  0  0  0  0  1  0  0  0  0  0  0
  -23.3390  -25.3810   23.5640 C   0  0  0  0  0  1  0  0  0  0  0  0
  -19.7230  -20.5010   23.8670 C   0  0  0  0  0  2  0  0  0  0  0  0
  -18.3070  -20.4340   24.0310 O   0  0  0  0  0  0  0  0  0  0  0  0
  -17.7070  -19.2080   23.6140 C   0  0  0  0  0  2  0  0  0  0  0  0
  -16.4270  -19.4490   22.7850 C   0  0  0  0  0  2  0  0  0  0  0  0
  -15.2010  -19.7360   23.6750 C   0  0  0  0  0  2  0  0  0  0  0  0
  -13.9100  -19.8150   22.9420 N   0  0  0  0  0  4  0  0  0  0  0  0
  -13.9730  -20.5480   22.2520 H   0  0  0  0  0  0  0  0  0  0  0  0
  -13.7480  -18.9460   22.4550 H   0  0  0  0  0  0  0  0  0  0  0  0
  -12.7810  -20.1190   23.8560 C   0  0  0  0  0  2  0  0  0  0  0  0
  -11.3760  -19.6750   23.3780 C   0  0  0  0  0  2  0  0  0  0  0  0
  -10.2880  -20.4730   24.1410 C   0  0  0  0  0  2  0  0  0  0  0  0
   -9.0040  -19.7250   24.5930 C   0  0  0  0  0  2  0  0  0  0  0  0
   -8.8550  -19.6810   26.1330 C   0  0  0  0  0  2  0  0  0  0  0  0
   -6.7280  -18.9790   27.4020 C   0  0  0  0  0  0  0  0  0  0  0  0
   -5.6720  -20.0410   29.3870 C   0  0  0  0  0  2  0  0  0  0  0  0
   -5.0600  -21.4240   29.0700 C   0  0  0  0  0  2  0  0  0  0  0  0
   -6.1250  -22.5420   29.1080 C   0  0  0  0  0  2  0  0  0  0  0  0
   -7.4110  -22.1630   28.3330 C   0  0  0  0  0  3  0  0  0  0  0  0
   -7.8860  -20.7710   28.7980 C   0  0  0  0  0  2  0  0  0  0  0  0
   -6.8220  -19.8060   28.4880 N   0  0  0  0  0  0  0  0  0  0  0  0
   -5.7060  -18.3170   27.1840 O   0  0  0  0  0  0  0  0  0  0  0  0
   -7.8290  -18.7460   26.6400 N   0  0  0  0  0  0  0  0  0  0  0  0
   -7.7300  -17.9130   26.0770 H   0  0  0  0  0  0  0  0  0  0  0  0
   -9.2770  -23.7550   27.5420 C   0  0  0  0  0  0  0  0  0  0  0  0
  -10.0400  -24.6680   28.2190 C   0  0  0  0  0  0  0  0  0  0  0  0
   -9.6310  -24.5940   29.5830 C   0  0  0  0  0  0  0  0  0  0  0  0
   -8.4560  -23.1680   28.4940 N   0  0  0  0  0  0  0  0  0  0  0  0
   -8.7110  -23.6500   29.7360 N   0  0  0  0  0  0  0  0  0  0  0  0
  -10.0100  -25.4040   30.7460 C   0  0  0  0  0  0  0  0  0  0  0  0
  -10.3830  -24.8060   31.9700 C   0  0  0  0  0  3  0  0  0  0  0  0
  -10.7600  -25.6040   33.0700 C   0  0  0  0  0  3  0  0  0  0  0  0
  -10.7690  -27.0150   32.9560 C   0  0  0  0  0  0  0  0  0  0  0  0
  -10.3780  -27.6050   31.7420 C   0  0  0  0  0  3  0  0  0  0  0  0
   -9.9980  -26.8090   30.6470 C   0  0  0  0  0  3  0  0  0  0  0  0
  -11.0990  -27.8720   33.9770 O   0  0  0  0  0  0  0  0  0  0  0  0
  -11.8610  -27.4630   35.0430 C   0  0  0  0  0  0  0  0  0  0  0  0
  -13.1420  -26.8910   34.8700 C   0  0  0  0  0  3  0  0  0  0  0  0
  -13.9130  -26.5470   35.9980 C   0  0  0  0  0  3  0  0  0  0  0  0
  -13.4160  -26.7870   37.2940 C   0  0  0  0  0  0  0  0  0  0  0  0
  -12.1440  -27.3560   37.4640 C   0  0  0  0  0  3  0  0  0  0  0  0
  -11.3680  -27.6980   36.3410 C   0  0  0  0  0  0  0  0  0  0  0  0
  -10.1520  -28.2700   36.5130 F   0  0  0  0  0  0  0  0  0  0  0  0
  -14.1640  -26.4620   38.3750 F   0  0  0  0  0  0  0  0  0  0  0  0
  -11.0250  -25.6290   27.6150 C   0  0  0  0  0  0  0  0  0  0  0  0
  -12.0740  -25.9800   28.3520 N   0  0  0  0  0  0  0  0  0  0  0  0
  -10.8960  -26.0370   26.4630 O   0  0  0  0  0  0  0  0  0  0  0  0
  -12.1940  -25.6220   29.2850 H   0  0  0  0  0  0  0  0  0  0  0  0
  -12.7690  -26.6060   27.9680 H   0  0  0  0  0  0  0  0  0  0  0  0
   -9.2110  -23.3930   26.2020 N   0  0  0  0  0  0  0  0  0  0  0  0
   -9.7780  -23.8760   25.5120 H   0  0  0  0  0  0  0  0  0  0  0  0
   -8.5640  -22.7280   25.8040 H   0  0  0  0  0  0  0  0  0  0  0  0
  1 53  1  0
  2  1  1  0
  3  2  1  0
  4  3  1  0
  5  4  1  0
  6  5  1  0
  6  7  1  0
  8  6  1  0
  9 10  1  0
  9  6  1  0
 11 12  1  0
 11 10  1  0
 14 12  1  0
 14 19  1  0
 15 25  1  0
 15 23  1  0
 16 18  1  0
 18 19  2  0
 18 17  1  0
 20 14  2  0
 21 20  1  0
 21 16  2  0
 22 16  1  0
 22 15  1  0
 23 17  1  0
 23 13  1  0
 24 13  2  0
 25 27  2  0
 26 25  1  0
 28 26  1  0
 29 34  1  0
 30 26  1  0
 31 30  1  0
 32 31  1  0
 33 29  1  0
 33 32  1  0
 34 35  2  0
 34 30  1  0
 36 35  1  0
 37 36  2  0
 38 37  1  0
 38 29  2  0
 39 13  1  0
 39 49  1  0
 39 40  1  0
 40 43  1  0
 40 41  1  0
 41 45  1  0
 42 41  2  0
 45 44  1  0
 45 47  1  0
 47 48  1  0
 47 46  1  0
 49 52  1  1
 50 49  1  0
 51 49  1  0
 53 54  1  0
 55 54  1  0
 56 55  1  0
 56 57  1  0
 58 57  1  0
 58 61  1  0
 59 58  1  0
 60 58  1  0
 62 61  1  0
 62 63  1  0
 63 64  1  0
 64 65  1  0
 65 74  1  0
 66 72  1  0
 68 69  1  0
 68 67  1  0
 70 79  1  0
 70 71  1  0
 70 69  1  0
 72 71  1  0
 72 67  1  0
 73 66  2  0
 74 66  1  0
 75 74  1  0
 76 77  2  0
 76 79  1  0
 77 78  1  0
 78 80  2  0
 78 81  1  0
 79 80  1  0
 81 82  1  0
 82 83  2  0
 84 83  1  0
 84 87  1  0
 85 84  2  0
 86 81  2  0
 86 85  1  0
 87 88  1  0
 88 93  1  0
 89 88  2  0
 89 90  1  0
 90 91  2  0
 91 92  1  0
 91 95  1  0
 93 94  1  0
 93 92  2  0
 96 77  1  0
 96 97  1  0
 97 99  1  0
 98 96  2  0
100 97  1  0
101 76  1  0
102101  1  0
103101  1  0
M  ISO  4  11 101  12 101  66 100  74 100
M  END
>  <TORSDO>  (16) 
F 35

>  <SCORE>  (16) 
12.074

>  <name>  (16) 
16

>  <ligand_id>  (16) 
16

>  <original_smiles>  (16) 
[H]c1c([H])c([H])c2c(c1[H])C([H])([H])C([H])([H])C([H])([H])C2([H])N([H])C(=O)C1([H])N(C(=O)C([H])(N([H])C(=O)C([H])(N([H])C([H])([H])[H])C([H])([H])[H])C(C([H])([H])[H])(C([H])([H])[H])C([H])([H])[H])C([H])([H])c2c([H])c(OC([H])([H])C([H])([H])C([H])([H])[N+]([H])([H])C([H])([H])C([H])([H])C([H])([H])OC([H])([H])C([H])([H])OC([H])([H])C([H])([H])C([H])([H])[N+]([H])([H])C([H])([H])C([H])([H])C([H])([H])C([H])([H])C([H])([H])N([H])C(=O)N3C([H])([H])C([H])([H])C([H])([H])C([H])(n4nc(-c5c([H])c([H])c(Oc6c([H])c([H])c(F)c([H])c6F)c([H])c5[H])c(C(=O)N([H])[H])c4N([H])[H])C3([H])[H])c([H])c([H])c2C1([H])[H]

>  <smiles>  (16) 
[H]c1c([H])c([H])c2c(c1[H])C([H])([H])C([H])([H])C([H])([H])C2([H])N([H])C(=O)C1([H])N(C(=O)C([H])(N([H])C(=O)C([H])(N([H])C([H])([H])[H])C([H])([H])[H])C(C([H])([H])[H])(C([H])([H])[H])C([H])([H])[H])C([H])([H])c2c([H])c(OC([H])([H])C([H])([H])C([H])([H])[N+]([H])([H])C([H])([H])C([H])([H])C([H])([H])OC([H])([H])C([H])([H])OC([H])([H])C([H])([H])C([H])([H])[N+]([H])([H])C([H])([H])C([H])([H])C([H])([H])C([H])([H])C([H])([H])N([H])C(=O)N3C([H])([H])C([H])([H])C([H])([H])C([H])(n4nc(-c5c([H])c([H])c(Oc6c([H])c([H])c(F)c([H])c6F)c([H])c5[H])c(C(=O)N([H])[H])c4N([H])[H])C3([H])[H])c([H])c([H])c2C1([H])[H]

$$$$
17:0:0
     RDKit          3D

104111  0  0  1  0  0  0  0  0999 V2000
  -22.5530  -21.1970   23.6360 C   0  0  0  0  0  2  0  0  0  0  0  0
  -21.9020  -23.3580   22.5640 C   0  0  0  0  0  0  0  0  0  0  0  0
  -22.3780  -22.1100   22.5030 N   0  0  0  0  0  0  0  0  0  0  0  0
  -21.8310  -23.9960   23.6150 O   0  0  0  0  0  0  0  0  0  0  0  0
  -22.5340  -21.7280   21.5780 H   0  0  0  0  0  0  0  0  0  0  0  0
  -20.4000  -24.7100   21.2040 C   0  0  0  0  0  3  0  0  0  0  0  0
  -21.3330  -23.7460   21.2880 C   0  0  0  0  0  3  0  0  0  0  0  0
  -19.7010  -24.9800   19.9670 C   0  0  0  0  0  3  0  0  0  0  0  0
  -18.8610  -26.0150   19.7940 C   0  0  0  0  0  3  0  0  0  0  0  0
  -18.1060  -26.1060   18.5610 C   0  0  0  0  0  0  0  0  0  0  0  0
  -18.1860  -27.3160   17.9990 N   0  0  0  0  0  0  0  0  0  0  0  0
  -17.4450  -25.1860   18.0770 O   0  0  0  0  0  0  0  0  0  0  0  0
  -18.7410  -28.0180   18.4690 H   0  0  0  0  0  0  0  0  0  0  0  0
  -17.4930  -27.7170   16.7750 C   0  0  0  0  0  2  0  0  0  0  0  0
  -17.8600  -26.8460   15.5560 C   0  0  0  0  0  2  0  0  0  0  0  0
  -19.8850  -25.8250   14.5750 C   0  0  0  0  0  0  0  0  0  0  0  0
  -22.0240  -26.1800   13.4250 C   0  0  0  0  0  2  0  0  0  0  0  0
  -22.8560  -24.9190   13.1650 C   0  0  0  0  0  2  0  0  0  0  0  0
  -23.7430  -24.6090   14.3790 C   0  0  0  0  0  2  0  0  0  0  0  0
  -22.9370  -24.5710   15.7020 C   0  0  0  0  0  3  0  0  0  0  0  0
  -22.0420  -25.8210   15.8560 C   0  0  0  0  0  2  0  0  0  0  0  0
  -21.2250  -25.9880   14.6400 N   0  0  0  0  0  0  0  0  0  0  0  0
  -19.2770  -25.4670   13.5610 O   0  0  0  0  0  0  0  0  0  0  0  0
  -19.2510  -26.4070   15.5970 N   0  0  0  0  0  0  0  0  0  0  0  0
  -19.8180  -26.7350   16.3640 H   0  0  0  0  0  0  0  0  0  0  0  0
  -23.7430  -23.4790   17.8910 C   0  0  0  0  0  0  0  0  0  0  0  0
  -24.8550  -23.6890   18.6620 C   0  0  0  0  0  0  0  0  0  0  0  0
  -25.5790  -24.7460   18.0300 C   0  0  0  0  0  0  0  0  0  0  0  0
  -23.8210  -24.3950   16.8530 N   0  0  0  0  0  0  0  0  0  0  0  0
  -24.9120  -25.1950   16.9740 N   0  0  0  0  0  0  0  0  0  0  0  0
  -26.8960  -25.3200   18.3380 C   0  0  0  0  0  0  0  0  0  0  0  0
  -27.0660  -26.7060   18.5490 C   0  0  0  0  0  3  0  0  0  0  0  0
  -28.3380  -27.2320   18.8610 C   0  0  0  0  0  3  0  0  0  0  0  0
  -29.4560  -26.3690   18.9680 C   0  0  0  0  0  0  0  0  0  0  0  0
  -29.2850  -24.9940   18.7340 C   0  0  0  0  0  3  0  0  0  0  0  0
  -28.0190  -24.4730   18.4190 C   0  0  0  0  0  3  0  0  0  0  0  0
  -30.7340  -26.7930   19.2420 O   0  0  0  0  0  0  0  0  0  0  0  0
  -30.9740  -27.9110   19.9990 C   0  0  0  0  0  0  0  0  0  0  0  0
  -30.4660  -28.0490   21.3080 C   0  0  0  0  0  3  0  0  0  0  0  0
  -30.7960  -29.1810   22.0780 C   0  0  0  0  0  3  0  0  0  0  0  0
  -31.6400  -30.1740   21.5440 C   0  0  0  0  0  0  0  0  0  0  0  0
  -32.1520  -30.0360   20.2420 C   0  0  0  0  0  3  0  0  0  0  0  0
  -31.8220  -28.9080   19.4730 C   0  0  0  0  0  0  0  0  0  0  0  0
  -32.3360  -28.7700   18.2270 F   0  0  0  0  0  0  0  0  0  0  0  0
  -31.9640  -31.2600   22.2850 F   0  0  0  0  0  0  0  0  0  0  0  0
  -25.2740  -22.8930   19.8630 C   0  0  0  0  0  0  0  0  0  0  0  0
  -25.9660  -23.5240   20.8060 N   0  0  0  0  0  0  0  0  0  0  0  0
  -24.9460  -21.7140   19.9960 O   0  0  0  0  0  0  0  0  0  0  0  0
  -26.2180  -24.4950   20.7060 H   0  0  0  0  0  0  0  0  0  0  0  0
  -26.2480  -23.0270   21.6380 H   0  0  0  0  0  0  0  0  0  0  0  0
  -22.6860  -22.5770   17.9760 N   0  0  0  0  0  0  0  0  0  0  0  0
  -22.6430  -21.8590   18.6900 H   0  0  0  0  0  0  0  0  0  0  0  0
  -21.9320  -22.5140   17.3020 H   0  0  0  0  0  0  0  0  0  0  0  0
  -21.1900  -20.6180   24.0770 C   0  0  0  0  0  2  0  0  0  0  0  0
  -20.0760  -21.5420   23.7590 N   0  0  0  0  0  4  0  0  0  0  0  0
  -20.3500  -22.0380   22.9280 H   0  0  0  0  0  0  0  0  0  0  0  0
  -19.9750  -22.2180   24.4990 H   0  0  0  0  0  0  0  0  0  0  0  0
  -18.7730  -20.9020   23.4790 C   0  0  0  0  0  2  0  0  0  0  0  0
  -17.8610  -21.8360   22.6460 C   0  0  0  0  0  2  0  0  0  0  0  0
  -17.1910  -21.1400   21.5480 N   0  0  0  0  0  0  0  0  0  0  0  0
  -17.8510  -20.5390   21.0610 H   0  0  0  0  0  0  0  0  0  0  0  0
  -16.0690  -20.3510   22.0430 C   0  0  0  0  0  2  0  0  0  0  0  0
  -15.6850  -19.2280   21.0550 C   0  0  0  0  0  2  0  0  0  0  0  0
  -14.5520  -18.5080   21.5400 O   0  0  0  0  0  0  0  0  0  0  0  0
  -10.7670  -17.3870   27.4310 C   0  0  0  0  0  0  0  0  0  0  0  0
  -14.5860  -18.0680   22.8450 C   0  0  0  0  0  0  0  0  0  0  0  0
  -13.2210  -17.2050   27.6900 C   0  0  0  0  0  3  0  0  0  0  0  0
  -14.5610  -17.1690   25.5230 C   0  0  0  0  0  0  0  0  0  0  0  0
  -12.1040  -16.7060   25.4440 C   0  0  0  0  0  2  0  0  0  0  0  0
  -13.3780  -17.1730   24.7740 C   0  0  0  0  0  0  0  0  0  0  0  0
  -13.3880  -17.6130   23.4330 C   0  0  0  0  0  3  0  0  0  0  0  0
  -15.7730  -18.0610   23.6150 C   0  0  0  0  0  3  0  0  0  0  0  0
  -15.7630  -17.6170   24.9500 C   0  0  0  0  0  3  0  0  0  0  0  0
  -14.4710  -16.6660   26.9450 C   0  0  0  0  0  2  0  0  0  0  0  0
  -11.9760  -17.1300   26.8570 N   0  0  0  0  0  0  0  0  0  0  0  0
  -10.6730  -17.6390   28.6400 O   0  0  0  0  0  0  0  0  0  0  0  0
  -13.5320  -18.6310   28.1990 C   0  0  0  0  0  0  0  0  0  0  0  0
  -14.0940  -18.7200   29.4150 N   0  0  0  0  0  0  0  0  0  0  0  0
  -13.2970  -19.6180   27.4980 O   0  0  0  0  0  0  0  0  0  0  0  0
  -14.2520  -17.8640   29.9280 H   0  0  0  0  0  0  0  0  0  0  0  0
  -15.3510  -20.0680   32.5220 C   0  0  0  0  0  0  0  0  0  0  0  0
  -14.5090  -19.9540   30.0810 C   0  0  0  0  0  3  0  0  0  0  0  0
  -15.9460  -20.3550   29.6740 C   0  0  0  0  0  2  0  0  0  0  0  0
  -17.0170  -19.8170   30.6300 C   0  0  0  0  0  2  0  0  0  0  0  0
  -16.7730  -20.3320   32.0520 C   0  0  0  0  0  2  0  0  0  0  0  0
  -14.2920  -19.8730   31.5970 C   0  0  0  0  0  0  0  0  0  0  0  0
  -12.9980  -19.5920   32.0870 C   0  0  0  0  0  3  0  0  0  0  0  0
  -12.7550  -19.5070   33.4710 C   0  0  0  0  0  3  0  0  0  0  0  0
  -13.8050  -19.7160   34.3830 C   0  0  0  0  0  3  0  0  0  0  0  0
  -15.0960  -20.0020   33.9080 C   0  0  0  0  0  3  0  0  0  0  0  0
   -9.4450  -17.3490   26.6030 C   0  0  0  0  0  3  0  0  0  0  0  0
   -8.4470  -16.6210   27.3980 N   0  0  0  0  0  0  0  0  0  0  0  0
   -8.1390  -15.3280   27.2320 C   0  0  0  0  0  0  0  0  0  0  0  0
   -8.6220  -14.6350   26.3320 O   0  0  0  0  0  0  0  0  0  0  0  0
   -8.0500  -17.1130   28.1860 H   0  0  0  0  0  0  0  0  0  0  0  0
   -7.8970  -13.9120   29.2950 C   0  0  0  0  0  1  0  0  0  0  0  0
   -7.1350  -14.7050   28.2210 C   0  0  0  0  0  3  0  0  0  0  0  0
   -5.2020  -14.5570   26.7140 C   0  0  0  0  0  1  0  0  0  0  0  0
   -6.1350  -13.8300   27.5710 N   0  0  0  0  0  0  0  0  0  0  0  0
   -5.5960  -13.3170   28.2650 H   0  0  0  0  0  0  0  0  0  0  0  0
   -8.9120  -18.7830   26.2150 C   0  0  1  0  0  0  0  0  0  0  0  0
   -8.8120  -19.7550   27.4150 C   0  0  0  0  0  1  0  0  0  0  0  0
   -9.8270  -19.4370   25.1530 C   0  0  0  0  0  1  0  0  0  0  0  0
   -7.5100  -18.6640   25.5740 C   0  0  0  0  0  1  0  0  0  0  0  0
  1 54  1  0
  2  4  2  0
  3  2  1  0
  3  1  1  0
  5  3  1  0
  6  7  2  0
  7  2  1  0
  8  6  1  0
  9  8  2  0
 10  9  1  0
 11 13  1  0
 11 10  1  0
 12 10  2  0
 14 11  1  0
 15 24  1  0
 15 14  1  0
 16 22  1  0
 16 24  1  0
 17 22  1  0
 18 17  1  0
 18 19  1  0
 20 19  1  0
 20 21  1  0
 20 29  1  0
 22 21  1  0
 23 16  2  0
 24 25  1  0
 26 51  1  0
 26 27  2  0
 27 46  1  0
 28 31  1  0
 28 27  1  0
 29 30  1  0
 29 26  1  0
 30 28  2  0
 31 36  2  0
 31 32  1  0
 32 33  2  0
 33 34  1  0
 34 37  1  0
 35 34  2  0
 36 35  1  0
 37 38  1  0
 38 39  1  0
 39 40  2  0
 41 40  1  0
 41 45  1  0
 42 41  2  0
 43 38  2  0
 43 42  1  0
 44 43  1  0
 46 48  2  0
 46 47  1  0
 47 50  1  0
 49 47  1  0
 51 52  1  0
 53 51  1  0
 55 54  1  0
 55 57  1  0
 56 55  1  0
 58 55  1  0
 59 58  1  0
 60 62  1  0
 60 59  1  0
 61 60  1  0
 63 64  1  0
 63 62  1  0
 64 66  1  0
 65 76  2  0
 66 71  2  0
 66 72  1  0
 67 77  1  0
 68 74  1  0
 69 75  1  0
 70 69  1  0
 70 68  2  0
 71 70  1  0
 72 73  2  0
 73 68  1  0
 74 67  1  0
 75 65  1  0
 75 67  1  0
 77 78  1  0
 78 80  1  0
 79 77  2  0
 81 90  1  0
 82 78  1  0
 82 86  1  0
 83 82  1  0
 83 84  1  0
 84 85  1  0
 85 81  1  0
 86 87  1  0
 86 81  2  0
 87 88  2  0
 88 89  1  0
 90 89  2  0
 91 92  1  0
 91 65  1  0
 92 95  1  0
 93 92  1  0
 93 97  1  0
 94 93  2  0
 97 96  1  0
 98 99  1  0
 99 97  1  0
 99100  1  0
101 91  1  0
101102  1  1
103101  1  0
104101  1  0
M  ISO  4  16 100  24 100  63 101  64 101
M  END
>  <TORSDO>  (17) 
F 29

>  <SCORE>  (17) 
15.582

>  <name>  (17) 
17

>  <ligand_id>  (17) 
17

>  <original_smiles>  (17) 
[H]C(C(=O)N([H])C([H])([H])C([H])([H])N([H])C(=O)N1C([H])([H])C([H])([H])C([H])([H])C([H])(n2nc(-c3c([H])c([H])c(Oc4c([H])c([H])c(F)c([H])c4F)c([H])c3[H])c(C(=O)N([H])[H])c2N([H])[H])C1([H])[H])=C([H])C([H])=C([H])C(=O)N([H])C([H])([H])C([H])([H])[N+]([H])([H])C([H])([H])C([H])([H])N([H])C([H])([H])C([H])([H])Oc1c([H])c([H])c2c(c1[H])C([H])([H])N(C(=O)C([H])(N([H])C(=O)C([H])(N([H])C([H])([H])[H])C([H])([H])[H])C(C([H])([H])[H])(C([H])([H])[H])C([H])([H])[H])C([H])(C(=O)N([H])C1([H])c3c([H])c([H])c([H])c([H])c3C([H])([H])C([H])([H])C1([H])[H])C2([H])[H]

>  <smiles>  (17) 
[H]C(C(=O)N([H])C([H])([H])C([H])([H])N([H])C(=O)N1C([H])([H])C([H])([H])C([H])([H])C([H])(n2nc(-c3c([H])c([H])c(Oc4c([H])c([H])c(F)c([H])c4F)c([H])c3[H])c(C(=O)N([H])[H])c2N([H])[H])C1([H])[H])=C([H])C([H])=C([H])C(=O)N([H])C([H])([H])C([H])([H])[N+]([H])([H])C([H])([H])C([H])([H])N([H])C([H])([H])C([H])([H])Oc1c([H])c([H])c2c(c1[H])C([H])([H])N(C(=O)C([H])(N([H])C(=O)C([H])(N([H])C([H])([H])[H])C([H])([H])[H])C(C([H])([H])[H])(C([H])([H])[H])C([H])([H])[H])C([H])(C(=O)N([H])C1([H])c3c([H])c([H])c([H])c([H])c3C([H])([H])C([H])([H])C1([H])[H])C2([H])[H]

$$$$
18:0:0
     RDKit          3D

115122  0  0  1  0  0  0  0  0999 V2000
  -17.9480  -19.8360   24.1280 C   0  0  0  0  0  0  0  0  0  0  0  0
  -16.7330  -19.3850   24.4500 N   0  0  0  0  0  0  0  0  0  0  0  0
  -18.9810  -19.4270   24.6580 O   0  0  0  0  0  0  0  0  0  0  0  0
  -15.9560  -19.8760   24.0350 H   0  0  0  0  0  0  0  0  0  0  0  0
  -18.1880  -22.0180   23.0190 C   0  0  0  0  0  3  0  0  0  0  0  0
  -17.8540  -20.7160   22.9780 C   0  0  0  0  0  3  0  0  0  0  0  0
  -18.2550  -24.1340   21.7350 C   0  0  0  0  0  3  0  0  0  0  0  0
  -18.2520  -22.7930   21.7960 C   0  0  0  0  0  3  0  0  0  0  0  0
  -18.5110  -24.8170   20.4860 C   0  0  0  0  0  3  0  0  0  0  0  0
  -18.6580  -26.1480   20.3760 C   0  0  0  0  0  3  0  0  0  0  0  0
  -19.0970  -26.7850   19.1490 C   0  0  0  0  0  3  0  0  0  0  0  0
  -20.1370  -26.3030   18.4390 C   0  0  0  0  0  3  0  0  0  0  0  0
  -20.6640  -26.9960   17.2810 C   0  0  0  0  0  0  0  0  0  0  0  0
  -21.9110  -26.5880   17.0220 N   0  0  0  0  0  0  0  0  0  0  0  0
  -20.1430  -27.9530   16.7090 O   0  0  0  0  0  0  0  0  0  0  0  0
  -22.1900  -25.7140   17.4500 H   0  0  0  0  0  0  0  0  0  0  0  0
  -23.0170  -27.5010   16.7330 C   0  0  0  0  0  2  0  0  0  0  0  0
  -24.0210  -27.4580   17.9130 C   0  0  0  0  0  2  0  0  0  0  0  0
  -24.4280  -28.7370   18.3950 O   0  0  0  0  0  0  0  0  0  0  0  0
  -26.4550  -31.8210   24.4800 C   0  0  0  0  0  0  0  0  0  0  0  0
  -24.0740  -29.0880   19.6820 C   0  0  0  0  0  0  0  0  0  0  0  0
  -24.2840  -30.6380   24.5520 C   0  0  0  0  0  3  0  0  0  0  0  0
  -23.3540  -29.8980   22.2950 C   0  0  0  0  0  0  0  0  0  0  0  0
  -25.1620  -31.6210   22.3610 C   0  0  0  0  0  2  0  0  0  0  0  0
  -24.4240  -30.5170   21.6370 C   0  0  0  0  0  0  0  0  0  0  0  0
  -24.7830  -30.1210   20.3300 C   0  0  0  0  0  3  0  0  0  0  0  0
  -23.0030  -28.4730   20.3690 C   0  0  0  0  0  3  0  0  0  0  0  0
  -22.6350  -28.8700   21.6650 C   0  0  0  0  0  3  0  0  0  0  0  0
  -23.0240  -30.3920   23.6830 C   0  0  0  0  0  2  0  0  0  0  0  0
  -25.3640  -31.3630   23.8070 N   0  0  0  0  0  0  0  0  0  0  0  0
  -26.5530  -31.6860   25.7090 O   0  0  0  0  0  0  0  0  0  0  0  0
  -24.7470  -29.2820   25.1350 C   0  0  0  0  0  0  0  0  0  0  0  0
  -24.6390  -29.1420   26.4660 N   0  0  0  0  0  0  0  0  0  0  0  0
  -25.1590  -28.3800   24.3990 O   0  0  0  0  0  0  0  0  0  0  0  0
  -24.3190  -29.9370   27.0020 H   0  0  0  0  0  0  0  0  0  0  0  0
  -25.5870  -27.9380   29.7390 C   0  0  0  0  0  0  0  0  0  0  0  0
  -24.9670  -27.9390   27.2310 C   0  0  0  0  0  3  0  0  0  0  0  0
  -23.6890  -27.1770   27.6470 C   0  0  0  0  0  2  0  0  0  0  0  0
  -23.1850  -27.5520   29.0430 C   0  0  0  0  0  2  0  0  0  0  0  0
  -24.2670  -27.2770   30.0930 C   0  0  0  0  0  2  0  0  0  0  0  0
  -25.9090  -28.2570   28.3940 C   0  0  0  0  0  0  0  0  0  0  0  0
  -27.1410  -28.8910   28.1180 C   0  0  0  0  0  3  0  0  0  0  0  0
  -28.0380  -29.2030   29.1560 C   0  0  0  0  0  3  0  0  0  0  0  0
  -27.7190  -28.8710   30.4840 C   0  0  0  0  0  3  0  0  0  0  0  0
  -26.5000  -28.2330   30.7720 C   0  0  0  0  0  3  0  0  0  0  0  0
  -27.6210  -32.5580   23.7450 C   0  0  0  0  0  3  0  0  0  0  0  0
  -27.7470  -33.8950   24.3440 N   0  0  0  0  0  0  0  0  0  0  0  0
  -27.4630  -35.0400   23.7080 C   0  0  0  0  0  0  0  0  0  0  0  0
  -27.1380  -35.0810   22.5180 O   0  0  0  0  0  0  0  0  0  0  0  0
  -27.9740  -33.9340   25.3270 H   0  0  0  0  0  0  0  0  0  0  0  0
  -26.1500  -36.9010   24.7660 C   0  0  0  0  0  1  0  0  0  0  0  0
  -27.5600  -36.3440   24.5190 C   0  0  0  0  0  3  0  0  0  0  0  0
  -29.8270  -37.0660   23.9030 C   0  0  0  0  0  1  0  0  0  0  0  0
  -28.4000  -37.3800   23.8740 N   0  0  0  0  0  0  0  0  0  0  0  0
  -28.2620  -38.2830   24.3210 H   0  0  0  0  0  0  0  0  0  0  0  0
  -28.9910  -31.7790   23.8190 C   0  0  1  0  0  0  0  0  0  0  0  0
  -29.5170  -31.5710   25.2580 C   0  0  0  0  0  1  0  0  0  0  0  0
  -28.8660  -30.3860   23.1570 C   0  0  0  0  0  1  0  0  0  0  0  0
  -30.0760  -32.5440   23.0260 C   0  0  0  0  0  1  0  0  0  0  0  0
  -16.4240  -18.0680   24.9840 C   0  0  0  0  0  2  0  0  0  0  0  0
  -15.2680  -17.4490   24.1680 C   0  0  0  0  0  2  0  0  0  0  0  0
  -14.2600  -16.8580   25.0410 N   0  0  0  0  0  0  0  0  0  0  0  0
  -14.3590  -17.2720   25.9640 H   0  0  0  0  0  0  0  0  0  0  0  0
  -12.9220  -17.1420   24.5170 C   0  0  0  0  0  2  0  0  0  0  0  0
  -11.8150  -16.3970   25.3010 C   0  0  0  0  0  2  0  0  0  0  0  0
  -11.2460  -17.2340   26.3830 N   0  0  0  0  0  4  0  0  0  0  0  0
  -11.7880  -17.0740   27.2170 H   0  0  0  0  0  0  0  0  0  0  0  0
  -11.3640  -18.1950   26.1090 H   0  0  0  0  0  0  0  0  0  0  0  0
   -9.8110  -16.9730   26.6510 C   0  0  0  0  0  2  0  0  0  0  0  0
   -9.4050  -17.0080   28.1470 C   0  0  0  0  0  2  0  0  0  0  0  0
   -9.6220  -18.3450   28.8990 C   0  0  0  0  0  2  0  0  0  0  0  0
   -8.4950  -18.6350   29.8210 N   0  0  0  0  0  4  0  0  0  0  0  0
   -7.8580  -19.2530   29.3390 H   0  0  0  0  0  0  0  0  0  0  0  0
   -7.9880  -17.7860   30.0110 H   0  0  0  0  0  0  0  0  0  0  0  0
   -8.8340  -19.2730   31.1160 C   0  0  0  0  0  2  0  0  0  0  0  0
   -9.0330  -18.2410   32.2480 C   0  0  0  0  0  2  0  0  0  0  0  0
   -8.7400  -18.7950   33.6710 C   0  0  0  0  0  2  0  0  0  0  0  0
   -7.8510  -17.1480   35.3370 C   0  0  0  0  0  0  0  0  0  0  0  0
   -5.9180  -15.6740   34.8760 C   0  0  0  0  0  2  0  0  0  0  0  0
   -6.0720  -14.2020   35.3030 C   0  0  0  0  0  2  0  0  0  0  0  0
   -6.7870  -13.3900   34.2120 C   0  0  0  0  0  2  0  0  0  0  0  0
   -8.1090  -14.0560   33.7720 C   0  0  0  0  0  3  0  0  0  0  0  0
   -7.8840  -15.5320   33.4240 C   0  0  0  0  0  2  0  0  0  0  0  0
   -7.2340  -16.2390   34.5420 N   0  0  0  0  0  0  0  0  0  0  0  0
   -7.4900  -17.3940   36.4910 O   0  0  0  0  0  0  0  0  0  0  0  0
   -8.8750  -17.8160   34.7660 N   0  0  0  0  0  0  0  0  0  0  0  0
   -9.5230  -18.1490   35.4640 H   0  0  0  0  0  0  0  0  0  0  0  0
   -9.8880  -12.5920   32.6160 C   0  0  0  0  0  0  0  0  0  0  0  0
   -9.9800  -12.1060   31.3370 C   0  0  0  0  0  0  0  0  0  0  0  0
   -8.8450  -12.6180   30.6380 C   0  0  0  0  0  0  0  0  0  0  0  0
   -8.7300  -13.3530   32.6490 N   0  0  0  0  0  0  0  0  0  0  0  0
   -8.1420  -13.4190   31.4270 N   0  0  0  0  0  0  0  0  0  0  0  0
   -8.3550  -12.3500   29.2790 C   0  0  0  0  0  0  0  0  0  0  0  0
   -8.2370  -13.3760   28.3160 C   0  0  0  0  0  3  0  0  0  0  0  0
   -7.7790  -13.0850   27.0120 C   0  0  0  0  0  3  0  0  0  0  0  0
   -7.4360  -11.7580   26.6630 C   0  0  0  0  0  0  0  0  0  0  0  0
   -7.5380  -10.7430   27.6320 C   0  0  0  0  0  3  0  0  0  0  0  0
   -7.9890  -11.0350   28.9300 C   0  0  0  0  0  3  0  0  0  0  0  0
   -6.9500  -11.3890   25.4310 O   0  0  0  0  0  0  0  0  0  0  0  0
   -7.3610  -12.0130   24.2820 C   0  0  0  0  0  0  0  0  0  0  0  0
   -8.7180  -12.0400   23.8930 C   0  0  0  0  0  3  0  0  0  0  0  0
   -9.0890  -12.6330   22.6700 C   0  0  0  0  0  3  0  0  0  0  0  0
   -8.1050  -13.1900   21.8320 C   0  0  0  0  0  0  0  0  0  0  0  0
   -6.7520  -13.1590   22.2130 C   0  0  0  0  0  3  0  0  0  0  0  0
   -6.3810  -12.5680   23.4330 C   0  0  0  0  0  0  0  0  0  0  0  0
   -5.0730  -12.5240   23.7900 F   0  0  0  0  0  0  0  0  0  0  0  0
   -8.4590  -13.7510   20.6520 F   0  0  0  0  0  0  0  0  0  0  0  0
  -11.0030  -11.1350   30.8230 C   0  0  0  0  0  0  0  0  0  0  0  0
  -11.4080  -11.2820   29.5660 N   0  0  0  0  0  0  0  0  0  0  0  0
  -11.4850  -10.2680   31.5480 O   0  0  0  0  0  0  0  0  0  0  0  0
  -11.0200  -12.0000   28.9750 H   0  0  0  0  0  0  0  0  0  0  0  0
  -12.1060  -10.6540   29.1930 H   0  0  0  0  0  0  0  0  0  0  0  0
  -10.6760  -12.4330   33.7510 N   0  0  0  0  0  0  0  0  0  0  0  0
  -11.4890  -11.8240   33.7660 H   0  0  0  0  0  0  0  0  0  0  0  0
  -10.4660  -12.8430   34.6550 H   0  0  0  0  0  0  0  0  0  0  0  0
  1  2  1  0
  1  3  2  0
  2 60  1  0
  4  2  1  0
  6  5  2  0
  6  1  1  0
  7  8  2  0
  8  5  1  0
  9  7  1  0
 10  9  2  0
 11 10  1  0
 12 11  2  0
 13 12  1  0
 14 13  1  0
 14 16  1  0
 15 13  2  0
 17 14  1  0
 17 18  1  0
 18 19  1  0
 19 21  1  0
 20 31  2  0
 21 26  2  0
 21 27  1  0
 22 32  1  0
 23 29  1  0
 24 30  1  0
 25 23  2  0
 25 24  1  0
 26 25  1  0
 27 28  2  0
 28 23  1  0
 29 22  1  0
 30 20  1  0
 30 22  1  0
 32 33  1  0
 33 35  1  0
 34 32  2  0
 36 40  1  0
 36 45  1  0
 37 33  1  0
 37 38  1  0
 37 41  1  0
 38 39  1  0
 39 40  1  0
 41 36  2  0
 42 41  1  0
 42 43  2  0
 43 44  1  0
 44 45  2  0
 46 56  1  0
 46 47  1  0
 46 20  1  0
 47 50  1  0
 48 47  1  0
 48 52  1  0
 49 48  2  0
 52 51  1  0
 54 53  1  0
 54 55  1  0
 54 52  1  0
 56 57  1  1
 58 56  1  0
 59 56  1  0
 61 60  1  0
 61 62  1  0
 62 63  1  0
 64 62  1  0
 64 65  1  0
 65 66  1  0
 66 69  1  0
 66 67  1  0
 68 66  1  0
 69 70  1  0
 70 71  1  0
 71 72  1  0
 72 74  1  0
 72 75  1  0
 73 72  1  0
 75 76  1  0
 76 77  1  0
 77 86  1  0
 78 85  2  0
 79 80  1  0
 81 80  1  0
 82 91  1  0
 82 81  1  0
 83 82  1  0
 83 84  1  0
 84 79  1  0
 84 78  1  0
 86 78  1  0
 86 87  1  0
 88 91  1  0
 88113  1  0
 89 88  2  0
 90 89  1  0
 90 92  2  0
 92 91  1  0
 93 90  1  0
 94 93  2  0
 95 94  1  0
 96 95  2  0
 96 97  1  0
 97 98  2  0
 98 93  1  0
 99 96  1  0
100 99  1  0
101100  1  0
102101  2  0
103104  2  0
103102  1  0
104105  1  0
105106  1  0
105100  2  0
107103  1  0
108 89  1  0
108110  2  0
109108  1  0
111109  1  0
112109  1  0
113114  1  0
113115  1  0
M  ISO  4  18 101  19 101  78 100  86 100
M  END
>  <TORSDO>  (18) 
F 36

>  <SCORE>  (18) 
-4.794

>  <name>  (18) 
18

>  <ligand_id>  (18) 
18

>  <original_smiles>  (18) 
[H]C(C(=O)N([H])C([H])([H])C([H])([H])Oc1c([H])c([H])c2c(c1[H])C([H])([H])N(C(=O)C([H])(N([H])C(=O)C([H])(N([H])C([H])([H])[H])C([H])([H])[H])C(C([H])([H])[H])(C([H])([H])[H])C([H])([H])[H])C([H])(C(=O)N([H])C1([H])c3c([H])c([H])c([H])c([H])c3C([H])([H])C([H])([H])C1([H])[H])C2([H])[H])=C([H])C([H])=C([H])C([H])=C([H])C([H])=C([H])C(=O)N([H])C([H])([H])C([H])([H])N([H])C([H])([H])C([H])([H])[N+]([H])([H])C([H])([H])C([H])([H])C([H])([H])[N+]([H])([H])C([H])([H])C([H])([H])C([H])([H])N([H])C(=O)N1C([H])([H])C([H])([H])C([H])([H])C([H])(n2nc(-c3c([H])c([H])c(Oc4c([H])c([H])c(F)c([H])c4F)c([H])c3[H])c(C(=O)N([H])[H])c2N([H])[H])C1([H])[H]

>  <smiles>  (18) 
[H]C(C(=O)N([H])C([H])([H])C([H])([H])Oc1c([H])c([H])c2c(c1[H])C([H])([H])N(C(=O)C([H])(N([H])C(=O)C([H])(N([H])C([H])([H])[H])C([H])([H])[H])C(C([H])([H])[H])(C([H])([H])[H])C([H])([H])[H])C([H])(C(=O)N([H])C1([H])c3c([H])c([H])c([H])c([H])c3C([H])([H])C([H])([H])C1([H])[H])C2([H])[H])=C([H])C([H])=C([H])C([H])=C([H])C([H])=C([H])C(=O)N([H])C([H])([H])C([H])([H])N([H])C([H])([H])C([H])([H])[N+]([H])([H])C([H])([H])C([H])([H])C([H])([H])[N+]([H])([H])C([H])([H])C([H])([H])C([H])([H])N([H])C(=O)N1C([H])([H])C([H])([H])C([H])([H])C([H])(n2nc(-c3c([H])c([H])c(Oc4c([H])c([H])c(F)c([H])c4F)c([H])c3[H])c(C(=O)N([H])[H])c2N([H])[H])C1([H])[H]

$$$$
19:0:0
     RDKit          3D

100107  0  0  1  0  0  0  0  0999 V2000
  -27.8930  -20.3060   19.3040 C   0  0  0  0  0  0  0  0  0  0  0  0
  -28.4140  -21.4670   19.3200 N   0  0  0  0  0  0  0  0  0  0  0  0
  -28.7850  -19.1950   18.9710 C   0  0  0  0  0  3  0  0  0  0  0  0
  -29.4580  -19.1040   17.8010 C   0  0  0  0  0  3  0  0  0  0  0  0
  -30.4580  -18.0810   17.5440 C   0  0  0  0  0  0  0  0  0  0  0  0
  -30.4170  -17.0670   18.4150 N   0  0  0  0  0  0  0  0  0  0  0  0
  -31.3320  -18.1670   16.6810 O   0  0  0  0  0  0  0  0  0  0  0  0
  -29.5910  -17.0250   18.9890 H   0  0  0  0  0  0  0  0  0  0  0  0
  -31.5500  -16.2870   18.8830 C   0  0  0  0  0  2  0  0  0  0  0  0
  -31.6480  -16.4610   20.4170 C   0  0  0  0  0  2  0  0  0  0  0  0
  -32.1270  -14.0940   20.8660 C   0  0  0  0  0  0  0  0  0  0  0  0
  -31.8980  -11.7180   20.3190 C   0  0  0  0  0  2  0  0  0  0  0  0
  -31.0400  -11.6000   19.0440 C   0  0  0  0  0  2  0  0  0  0  0  0
  -29.5390  -11.5650   19.3900 C   0  0  0  0  0  2  0  0  0  0  0  0
  -29.1190  -12.6860   20.3780 C   0  0  0  0  0  3  0  0  0  0  0  0
  -30.1020  -12.7690   21.5730 C   0  0  0  0  0  2  0  0  0  0  0  0
  -31.4660  -12.9240   21.0370 N   0  0  0  0  0  0  0  0  0  0  0  0
  -33.2550  -14.1820   20.3700 O   0  0  0  0  0  0  0  0  0  0  0  0
  -31.3940  -15.1890   21.0840 N   0  0  0  0  0  0  0  0  0  0  0  0
  -30.4920  -15.0500   21.5170 H   0  0  0  0  0  0  0  0  0  0  0  0
  -26.8090  -13.4670   21.2120 C   0  0  0  0  0  0  0  0  0  0  0  0
  -25.6500  -12.7870   21.4660 C   0  0  0  0  0  0  0  0  0  0  0  0
  -25.9340  -11.4120   21.1930 C   0  0  0  0  0  0  0  0  0  0  0  0
  -27.7370  -12.5130   20.8210 N   0  0  0  0  0  0  0  0  0  0  0  0
  -27.2100  -11.2630   20.8610 N   0  0  0  0  0  0  0  0  0  0  0  0
  -25.0500  -10.2400   21.1720 C   0  0  0  0  0  0  0  0  0  0  0  0
  -25.2400   -9.1590   22.0630 C   0  0  0  0  0  3  0  0  0  0  0  0
  -24.3680   -8.0500   22.0390 C   0  0  0  0  0  3  0  0  0  0  0  0
  -23.2960   -8.0110   21.1180 C   0  0  0  0  0  0  0  0  0  0  0  0
  -23.1230   -9.0800   20.2220 C   0  0  0  0  0  3  0  0  0  0  0  0
  -23.9930  -10.1810   20.2420 C   0  0  0  0  0  3  0  0  0  0  0  0
  -22.4160   -6.9610   21.0000 O   0  0  0  0  0  0  0  0  0  0  0  0
  -21.7270   -6.4760   22.0810 C   0  0  0  0  0  0  0  0  0  0  0  0
  -20.8780   -7.2980   22.8540 C   0  0  0  0  0  3  0  0  0  0  0  0
  -20.1370   -6.7460   23.9190 C   0  0  0  0  0  3  0  0  0  0  0  0
  -20.2370   -5.3710   24.2050 C   0  0  0  0  0  0  0  0  0  0  0  0
  -21.0740   -4.5490   23.4300 C   0  0  0  0  0  3  0  0  0  0  0  0
  -21.8140   -5.1000   22.3680 C   0  0  0  0  0  0  0  0  0  0  0  0
  -22.6040   -4.3020   21.6120 F   0  0  0  0  0  0  0  0  0  0  0  0
  -19.5220   -4.8330   25.2200 F   0  0  0  0  0  0  0  0  0  0  0  0
  -24.3240  -13.3830   21.8380 C   0  0  0  0  0  0  0  0  0  0  0  0
  -23.4610  -12.6040   22.4820 N   0  0  0  0  0  0  0  0  0  0  0  0
  -24.0640  -14.5630   21.6000 O   0  0  0  0  0  0  0  0  0  0  0  0
  -23.6760  -11.6360   22.6730 H   0  0  0  0  0  0  0  0  0  0  0  0
  -22.5700  -12.9770   22.7760 H   0  0  0  0  0  0  0  0  0  0  0  0
  -27.1510  -14.8140   21.2580 N   0  0  0  0  0  0  0  0  0  0  0  0
  -26.4550  -15.5330   21.4250 H   0  0  0  0  0  0  0  0  0  0  0  0
  -28.0230  -15.1800   20.9010 H   0  0  0  0  0  0  0  0  0  0  0  0
  -26.4620  -19.9310   19.6920 C   0  0  0  0  0  2  0  0  0  0  0  0
  -26.3020  -18.3980   19.7600 C   0  0  0  0  0  2  0  0  0  0  0  0
  -24.5180  -16.7150   19.8720 C   0  0  0  0  0  3  0  0  0  0  0  0
  -24.9390  -17.9360   19.5230 N   0  0  0  0  0  0  0  0  0  0  0  0
  -25.2340  -15.8840   20.4370 O   0  0  0  0  0  0  0  0  0  0  0  0
  -24.2770  -18.5580   19.0720 H   0  0  0  0  0  0  0  0  0  0  0  0
  -27.6640  -22.6540   19.6790 C   0  0  0  0  0  2  0  0  0  0  0  0
  -28.6130  -23.8630   19.6570 C   0  0  0  0  0  2  0  0  0  0  0  0
  -29.0750  -24.0720   18.3240 O   0  0  0  0  0  0  0  0  0  0  0  0
  -29.8130  -25.2740   18.1550 C   0  0  0  0  0  2  0  0  0  0  0  0
  -29.7790  -25.6700   16.6620 C   0  0  0  0  0  2  0  0  0  0  0  0
  -29.3190  -27.0110   16.4700 O   0  0  0  0  0  0  0  0  0  0  0  0
  -25.9180  -28.8740   22.4040 C   0  0  0  0  0  0  0  0  0  0  0  0
  -28.1020  -27.3280   17.0300 C   0  0  0  0  0  0  0  0  0  0  0  0
  -24.4790  -28.2100   20.5080 C   0  0  0  0  0  3  0  0  0  0  0  0
  -25.6450  -27.9830   18.2540 C   0  0  0  0  0  0  0  0  0  0  0  0
  -26.7950  -29.2230   20.1000 C   0  0  0  0  0  2  0  0  0  0  0  0
  -26.8490  -28.4230   18.8180 C   0  0  0  0  0  0  0  0  0  0  0  0
  -28.0790  -28.1120   18.2010 C   0  0  0  0  0  3  0  0  0  0  0  0
  -26.8800  -26.8950   16.4650 C   0  0  0  0  0  3  0  0  0  0  0  0
  -25.6540  -27.2210   17.0740 C   0  0  0  0  0  3  0  0  0  0  0  0
  -24.3710  -28.3730   18.9680 C   0  0  0  0  0  2  0  0  0  0  0  0
  -25.7620  -28.7580   21.0560 N   0  0  0  0  0  0  0  0  0  0  0  0
  -25.0030  -28.5740   23.1840 O   0  0  0  0  0  0  0  0  0  0  0  0
  -24.2430  -26.7260   20.8650 C   0  0  0  0  0  0  0  0  0  0  0  0
  -23.0360  -26.2220   20.5590 N   0  0  0  0  0  0  0  0  0  0  0  0
  -25.1400  -26.0490   21.3760 O   0  0  0  0  0  0  0  0  0  0  0  0
  -22.3590  -26.8460   20.1430 H   0  0  0  0  0  0  0  0  0  0  0  0
  -20.4140  -23.8510   19.8120 C   0  0  0  0  0  0  0  0  0  0  0  0
  -22.5980  -24.8440   20.7740 C   0  0  0  0  0  3  0  0  0  0  0  0
  -23.3370  -23.8750   19.8240 C   0  0  0  0  0  2  0  0  0  0  0  0
  -22.5770  -23.6090   18.5210 C   0  0  0  0  0  2  0  0  0  0  0  0
  -21.1970  -23.0130   18.8160 C   0  0  0  0  0  2  0  0  0  0  0  0
  -21.0700  -24.7240   20.7210 C   0  0  0  0  0  0  0  0  0  0  0  0
  -20.2930  -25.5070   21.6020 C   0  0  0  0  0  3  0  0  0  0  0  0
  -18.8870  -25.4260   21.5870 C   0  0  0  0  0  3  0  0  0  0  0  0
  -18.2430  -24.5480   20.6990 C   0  0  0  0  0  3  0  0  0  0  0  0
  -19.0060  -23.7610   19.8180 C   0  0  0  0  0  3  0  0  0  0  0  0
  -27.2440  -29.4140   23.0300 C   0  0  0  0  0  3  0  0  0  0  0  0
  -26.9010  -30.5830   23.8490 N   0  0  0  0  0  0  0  0  0  0  0  0
  -27.1260  -31.8540   23.4940 C   0  0  0  0  0  0  0  0  0  0  0  0
  -27.7200  -32.1650   22.4560 O   0  0  0  0  0  0  0  0  0  0  0  0
  -26.3700  -30.4070   24.6890 H   0  0  0  0  0  0  0  0  0  0  0  0
  -25.3470  -33.5970   23.8450 C   0  0  0  0  0  1  0  0  0  0  0  0
  -26.6140  -32.9580   24.4380 C   0  0  0  0  0  3  0  0  0  0  0  0
  -28.7300  -33.5360   25.5390 C   0  0  0  0  0  1  0  0  0  0  0  0
  -27.6170  -34.0060   24.7190 N   0  0  0  0  0  0  0  0  0  0  0  0
  -27.1890  -34.7980   25.1910 H   0  0  0  0  0  0  0  0  0  0  0  0
  -28.0110  -28.3350   23.8890 C   0  0  1  0  0  0  0  0  0  0  0  0
  -27.1320  -27.6500   24.9620 C   0  0  0  0  0  1  0  0  0  0  0  0
  -28.5900  -27.2240   22.9820 C   0  0  0  0  0  1  0  0  0  0  0  0
  -29.2150  -28.9940   24.6050 C   0  0  0  0  0  1  0  0  0  0  0  0
  1  2  2  0
  1 49  1  0
  2 55  1  0
  3  1  1  0
  4  3  2  0
  5  4  1  0
  5  6  1  0
  6  9  1  0
  6  8  1  0
  7  5  2  0
  9 10  1  0
 10 19  1  0
 11 17  1  0
 11 19  1  0
 12 17  1  0
 13 14  1  0
 13 12  1  0
 15 14  1  0
 15 24  1  0
 15 16  1  0
 17 16  1  0
 18 11  2  0
 19 20  1  0
 21 46  1  0
 21 22  2  0
 22 41  1  0
 23 22  1  0
 24 25  1  0
 24 21  1  0
 25 23  2  0
 26 23  1  0
 26 27  1  0
 28 27  2  0
 29 28  1  0
 30 31  1  0
 30 29  2  0
 31 26  2  0
 32 29  1  0
 32 33  1  0
 33 38  2  0
 33 34  1  0
 34 35  2  0
 35 36  1  0
 36 40  1  0
 37 36  2  0
 38 37  1  0
 39 38  1  0
 41 42  1  0
 42 44  1  0
 42 45  1  0
 43 41  2  0
 46 47  1  0
 48 46  1  0
 49 50  1  0
 51 53  2  0
 52 50  1  0
 52 51  1  0
 54 52  1  0
 56 55  1  0
 57 56  1  0
 58 57  1  0
 59 58  1  0
 60 59  1  0
 60 62  1  0
 61 72  2  0
 62 67  1  0
 63 73  1  0
 63 71  1  0
 64 66  1  0
 64 70  1  0
 65 71  1  0
 66 65  1  0
 67 66  2  0
 68 62  2  0
 68 69  1  0
 69 64  2  0
 70 63  1  0
 71 61  1  0
 73 75  2  0
 74 73  1  0
 76 74  1  0
 77 86  2  0
 77 82  1  0
 78 74  1  0
 79 78  1  0
 80 81  1  0
 80 79  1  0
 81 77  1  0
 82 78  1  0
 82 83  2  0
 84 83  1  0
 85 84  2  0
 86 85  1  0
 87 61  1  0
 87 88  1  0
 87 97  1  0
 88 91  1  0
 89 88  1  0
 89 93  1  0
 90 89  2  0
 93 92  1  0
 93 95  1  0
 95 96  1  0
 95 94  1  0
 97100  1  1
 97 98  1  0
 99 97  1  0
M  ISO  4  11 100  19 100  59 101  60 101
M  END
>  <TORSDO>  (19) 
F 28

>  <SCORE>  (19) 
-4.086

>  <name>  (19) 
19

>  <ligand_id>  (19) 
19

>  <original_smiles>  (19) 
[H]C(=O)N([H])C([H])([H])C([H])([H])C(=NC([H])([H])C([H])([H])OC([H])([H])C([H])([H])Oc1c([H])c([H])c2c(c1[H])C([H])([H])N(C(=O)C([H])(N([H])C(=O)C([H])(N([H])C([H])([H])[H])C([H])([H])[H])C(C([H])([H])[H])(C([H])([H])[H])C([H])([H])[H])C([H])(C(=O)N([H])C1([H])c3c([H])c([H])c([H])c([H])c3C([H])([H])C([H])([H])C1([H])[H])C2([H])[H])C([H])=C([H])C(=O)N([H])C([H])([H])C([H])([H])N([H])C(=O)N1C([H])([H])C([H])([H])C([H])([H])C([H])(n2nc(-c3c([H])c([H])c(Oc4c([H])c([H])c(F)c([H])c4F)c([H])c3[H])c(C(=O)N([H])[H])c2N([H])[H])C1([H])[H]

>  <smiles>  (19) 
[H]C(=O)N([H])C([H])([H])C([H])([H])C(=NC([H])([H])C([H])([H])OC([H])([H])C([H])([H])Oc1c([H])c([H])c2c(c1[H])C([H])([H])N(C(=O)C([H])(N([H])C(=O)C([H])(N([H])C([H])([H])[H])C([H])([H])[H])C(C([H])([H])[H])(C([H])([H])[H])C([H])([H])[H])C([H])(C(=O)N([H])C1([H])c3c([H])c([H])c([H])c([H])c3C([H])([H])C([H])([H])C1([H])[H])C2([H])[H])C([H])=C([H])C(=O)N([H])C([H])([H])C([H])([H])N([H])C(=O)N1C([H])([H])C([H])([H])C([H])([H])C([H])(n2nc(-c3c([H])c([H])c(Oc4c([H])c([H])c(F)c([H])c4F)c([H])c3[H])c(C(=O)N([H])[H])c2N([H])[H])C1([H])[H]

$$$$
20:0:0
     RDKit          3D

 96103  0  0  1  0  0  0  0  0999 V2000
  -31.5800  -21.3290   22.5130 C   0  0  0  0  0  3  0  0  0  0  0  0
  -30.5970  -20.4040   22.6230 C   0  0  0  0  0  3  0  0  0  0  0  0
  -31.5530  -22.5890   21.7810 C   0  0  0  0  0  0  0  0  0  0  0  0
  -30.7840  -22.5740   20.6860 N   0  0  0  0  0  0  0  0  0  0  0  0
  -32.2240  -23.5720   22.0950 O   0  0  0  0  0  0  0  0  0  0  0  0
  -30.3310  -21.7020   20.4750 H   0  0  0  0  0  0  0  0  0  0  0  0
  -30.6440  -23.6510   19.7020 C   0  0  0  0  0  2  0  0  0  0  0  0
  -29.9360  -24.9040   20.2670 C   0  0  0  0  0  2  0  0  0  0  0  0
  -29.5160  -25.8900   19.1630 C   0  0  0  0  0  2  0  0  0  0  0  0
  -29.1420  -27.1390   19.7530 O   0  0  0  0  0  0  0  0  0  0  0  0
  -24.5640  -31.4470   23.0320 C   0  0  0  0  0  0  0  0  0  0  0  0
  -27.8440  -27.6130   19.7470 C   0  0  0  0  0  0  0  0  0  0  0  0
  -23.5860  -30.0060   21.2750 C   0  0  0  0  0  3  0  0  0  0  0  0
  -25.2590  -28.7710   19.8000 C   0  0  0  0  0  0  0  0  0  0  0  0
  -26.0430  -30.7130   21.1640 C   0  0  0  0  0  2  0  0  0  0  0  0
  -26.3220  -29.4080   20.4470 C   0  0  0  0  0  0  0  0  0  0  0  0
  -27.6100  -28.8350   20.4200 C   0  0  0  0  0  3  0  0  0  0  0  0
  -26.7530  -26.9800   19.1030 C   0  0  0  0  0  3  0  0  0  0  0  0
  -25.4680  -27.5540   19.1310 C   0  0  0  0  0  3  0  0  0  0  0  0
  -23.9110  -29.4510   19.8620 C   0  0  0  0  0  2  0  0  0  0  0  0
  -24.7460  -30.7370   21.8830 N   0  0  0  0  0  0  0  0  0  0  0  0
  -23.4480  -31.5370   23.5590 O   0  0  0  0  0  0  0  0  0  0  0  0
  -23.0620  -28.8480   22.1520 C   0  0  0  0  0  0  0  0  0  0  0  0
  -21.7710  -28.5120   21.9910 N   0  0  0  0  0  0  0  0  0  0  0  0
  -23.8120  -28.2550   22.9320 O   0  0  0  0  0  0  0  0  0  0  0  0
  -21.2210  -29.0500   21.3370 H   0  0  0  0  0  0  0  0  0  0  0  0
  -18.5610  -26.8960   22.3540 C   0  0  0  0  0  0  0  0  0  0  0  0
  -21.0690  -27.4300   22.6800 C   0  0  0  0  0  3  0  0  0  0  0  0
  -21.3440  -26.0700   21.9980 C   0  0  0  0  0  2  0  0  0  0  0  0
  -20.2910  -25.6980   20.9480 C   0  0  0  0  0  2  0  0  0  0  0  0
  -18.9000  -25.6310   21.5830 C   0  0  0  0  0  2  0  0  0  0  0  0
  -19.5800  -27.7490   22.8550 C   0  0  0  0  0  0  0  0  0  0  0  0
  -19.2110  -28.9310   23.5340 C   0  0  0  0  0  3  0  0  0  0  0  0
  -17.8550  -29.2630   23.7160 C   0  0  0  0  0  3  0  0  0  0  0  0
  -16.8510  -28.4070   23.2320 C   0  0  0  0  0  3  0  0  0  0  0  0
  -17.2050  -27.2230   22.5590 C   0  0  0  0  0  3  0  0  0  0  0  0
  -25.7430  -32.1990   23.7260 C   0  0  0  0  0  3  0  0  0  0  0  0
  -26.2840  -31.4580   25.0090 C   0  0  1  0  0  0  0  0  0  0  0  0
  -25.1790  -31.0840   26.0240 C   0  0  0  0  0  1  0  0  0  0  0  0
  -27.0230  -30.1580   24.6140 C   0  0  0  0  0  1  0  0  0  0  0  0
  -27.3160  -32.3520   25.7370 C   0  0  0  0  0  1  0  0  0  0  0  0
  -25.2700  -33.5470   24.0640 N   0  0  0  0  0  0  0  0  0  0  0  0
  -25.5450  -34.6490   23.3520 C   0  0  0  0  0  0  0  0  0  0  0  0
  -26.2920  -34.6440   22.3690 O   0  0  0  0  0  0  0  0  0  0  0  0
  -24.6130  -33.6170   24.8270 H   0  0  0  0  0  0  0  0  0  0  0  0
  -23.6620  -36.2580   22.9140 C   0  0  0  0  0  1  0  0  0  0  0  0
  -24.8830  -35.9660   23.8020 C   0  0  0  0  0  3  0  0  0  0  0  0
  -26.8550  -37.0440   24.7920 C   0  0  0  0  0  1  0  0  0  0  0  0
  -25.8050  -37.1240   23.7800 N   0  0  0  0  0  0  0  0  0  0  0  0
  -25.2950  -37.9910   23.9200 H   0  0  0  0  0  0  0  0  0  0  0  0
  -29.1800  -20.3650   22.0580 C   0  0  0  0  0  2  0  0  0  0  0  0
  -28.8990  -19.1420   21.1440 C   0  0  0  0  0  2  0  0  0  0  0  0
  -29.7240  -19.1090   19.9130 N   0  0  0  0  0  4  0  0  0  0  0  0
  -30.3110  -19.9240   19.8640 H   0  0  0  0  0  0  0  0  0  0  0  0
  -29.0790  -19.1990   19.1430 H   0  0  0  0  0  0  0  0  0  0  0  0
  -30.5210  -17.8860   19.6380 C   0  0  0  0  0  2  0  0  0  0  0  0
  -31.7740  -17.7460   20.5250 C   0  0  0  0  0  2  0  0  0  0  0  0
  -32.6530  -16.5040   20.2940 C   0  0  0  0  0  2  0  0  0  0  0  0
  -32.5660  -14.0580   20.2490 C   0  0  0  0  0  0  0  0  0  0  0  0
  -32.0100  -11.7510   19.6070 C   0  0  0  0  0  2  0  0  0  0  0  0
  -31.0970  -11.7660   18.3640 C   0  0  0  0  0  2  0  0  0  0  0  0
  -29.6180  -11.9020   18.7720 C   0  0  0  0  0  2  0  0  0  0  0  0
  -29.3790  -13.0490   19.7890 C   0  0  0  0  0  3  0  0  0  0  0  0
  -30.3970  -12.9770   20.9500 C   0  0  0  0  0  2  0  0  0  0  0  0
  -31.7520  -12.9790   20.3720 N   0  0  0  0  0  0  0  0  0  0  0  0
  -33.6580  -14.0170   19.6720 O   0  0  0  0  0  0  0  0  0  0  0  0
  -32.0640  -15.2230   20.6830 N   0  0  0  0  0  0  0  0  0  0  0  0
  -31.1750  -15.2020   21.1570 H   0  0  0  0  0  0  0  0  0  0  0  0
  -27.1690  -14.1200   20.5700 C   0  0  0  0  0  0  0  0  0  0  0  0
  -25.9640  -13.5760   20.9260 C   0  0  0  0  0  0  0  0  0  0  0  0
  -26.1230  -12.1590   20.8160 C   0  0  0  0  0  0  0  0  0  0  0  0
  -28.0000  -13.0470   20.2780 N   0  0  0  0  0  0  0  0  0  0  0  0
  -27.3720  -11.8610   20.4790 N   0  0  0  0  0  0  0  0  0  0  0  0
  -25.1450  -11.0740   20.9590 C   0  0  0  0  0  0  0  0  0  0  0  0
  -25.3630   -9.9950   21.8440 C   0  0  0  0  0  3  0  0  0  0  0  0
  -24.4010   -8.9700   21.9770 C   0  0  0  0  0  3  0  0  0  0  0  0
  -23.2040   -9.0220   21.2240 C   0  0  0  0  0  0  0  0  0  0  0  0
  -23.0020  -10.0860   20.3270 C   0  0  0  0  0  3  0  0  0  0  0  0
  -23.9620  -11.1010   20.1920 C   0  0  0  0  0  3  0  0  0  0  0  0
  -22.2240   -8.0600   21.2700 O   0  0  0  0  0  0  0  0  0  0  0  0
  -21.9970   -7.3170   22.4010 C   0  0  0  0  0  0  0  0  0  0  0  0
  -21.6790   -7.9180   23.6380 C   0  0  0  0  0  3  0  0  0  0  0  0
  -21.3870   -7.1150   24.7580 C   0  0  0  0  0  3  0  0  0  0  0  0
  -21.4000   -5.7130   24.6410 C   0  0  0  0  0  0  0  0  0  0  0  0
  -21.7080   -5.1110   23.4080 C   0  0  0  0  0  3  0  0  0  0  0  0
  -22.0020   -5.9110   22.2900 C   0  0  0  0  0  0  0  0  0  0  0  0
  -22.2800   -5.3260   21.1010 F   0  0  0  0  0  0  0  0  0  0  0  0
  -21.1100   -4.9400   25.7140 F   0  0  0  0  0  0  0  0  0  0  0  0
  -24.7040  -14.3250   21.2520 C   0  0  0  0  0  0  0  0  0  0  0  0
  -23.8600  -13.7650   22.1090 N   0  0  0  0  0  0  0  0  0  0  0  0
  -24.4840  -15.4410   20.7810 O   0  0  0  0  0  0  0  0  0  0  0  0
  -24.0490  -12.8580   22.5120 H   0  0  0  0  0  0  0  0  0  0  0  0
  -23.0100  -14.2470   22.3660 H   0  0  0  0  0  0  0  0  0  0  0  0
  -27.6240  -15.4310   20.4500 N   0  0  0  0  0  0  0  0  0  0  0  0
  -26.9970  -16.2210   20.5530 H   0  0  0  0  0  0  0  0  0  0  0  0
  -28.5030  -15.6730   20.0120 H   0  0  0  0  0  0  0  0  0  0  0  0
  1  2  2  0
  3  5  2  0
  3  1  1  0
  4  3  1  0
  6  4  1  0
  7  8  1  0
  7  4  1  0
  9 10  1  0
  9  8  1  0
 11 22  2  0
 12 10  1  0
 12 17  1  0
 13 21  1  0
 13 23  1  0
 14 20  1  0
 14 16  1  0
 15 21  1  0
 16 15  1  0
 17 16  2  0
 18 19  1  0
 18 12  2  0
 19 14  2  0
 20 13  1  0
 21 11  1  0
 23 25  2  0
 24 23  1  0
 26 24  1  0
 27 36  2  0
 27 32  1  0
 28 24  1  0
 28 32  1  0
 29 28  1  0
 30 31  1  0
 30 29  1  0
 31 27  1  0
 32 33  2  0
 33 34  1  0
 35 34  2  0
 36 35  1  0
 37 11  1  0
 37 42  1  0
 37 38  1  0
 38 41  1  1
 38 39  1  0
 40 38  1  0
 42 45  1  0
 43 47  1  0
 43 42  1  0
 44 43  2  0
 47 46  1  0
 49 47  1  0
 49 50  1  0
 49 48  1  0
 51  2  1  0
 52 51  1  0
 53 52  1  0
 54 53  1  0
 55 53  1  0
 56 53  1  0
 56 57  1  0
 58 57  1  0
 58 67  1  0
 59 65  1  0
 59 67  1  0
 60 65  1  0
 61 62  1  0
 61 60  1  0
 63 62  1  0
 63 72  1  0
 63 64  1  0
 65 64  1  0
 66 59  2  0
 67 68  1  0
 69 70  2  0
 70 89  1  0
 71 70  1  0
 71 74  1  0
 72 73  1  0
 72 69  1  0
 73 71  2  0
 74 75  1  0
 75 76  2  0
 77 80  1  0
 77 76  1  0
 78 77  2  0
 79 78  1  0
 79 74  2  0
 80 81  1  0
 81 82  1  0
 82 83  2  0
 84 83  1  0
 84 88  1  0
 85 84  2  0
 86 81  2  0
 86 85  1  0
 87 86  1  0
 89 90  1  0
 90 93  1  0
 90 92  1  0
 91 89  2  0
 94 95  1  0
 94 69  1  0
 96 94  1  0
M  ISO  4   9 101  10 101  59 100  67 100
M  END
>  <TORSDO>  (20) 
F 26

>  <SCORE>  (20) 
-6.366

>  <name>  (20) 
20

>  <ligand_id>  (20) 
20

>  <original_smiles>  (20) 
[H]C(C(=O)N([H])C([H])([H])C([H])([H])C([H])([H])Oc1c([H])c([H])c2c(c1[H])C([H])([H])N(C(=O)C([H])(N([H])C(=O)C([H])(N([H])C([H])([H])[H])C([H])([H])[H])C(C([H])([H])[H])(C([H])([H])[H])C([H])([H])[H])C([H])(C(=O)N([H])C1([H])c3c([H])c([H])c([H])c([H])c3C([H])([H])C([H])([H])C1([H])[H])C2([H])[H])=C([H])C([H])([H])C([H])([H])[N+]([H])([H])C([H])([H])C([H])([H])C([H])([H])N([H])C(=O)N1C([H])([H])C([H])([H])C([H])([H])C([H])(n2nc(-c3c([H])c([H])c(Oc4c([H])c([H])c(F)c([H])c4F)c([H])c3[H])c(C(=O)N([H])[H])c2N([H])[H])C1([H])[H]

>  <smiles>  (20) 
[H]C(C(=O)N([H])C([H])([H])C([H])([H])C([H])([H])Oc1c([H])c([H])c2c(c1[H])C([H])([H])N(C(=O)C([H])(N([H])C(=O)C([H])(N([H])C([H])([H])[H])C([H])([H])[H])C(C([H])([H])[H])(C([H])([H])[H])C([H])([H])[H])C([H])(C(=O)N([H])C1([H])c3c([H])c([H])c([H])c([H])c3C([H])([H])C([H])([H])C1([H])[H])C2([H])[H])=C([H])C([H])([H])C([H])([H])[N+]([H])([H])C([H])([H])C([H])([H])C([H])([H])N([H])C(=O)N1C([H])([H])C([H])([H])C([H])([H])C([H])(n2nc(-c3c([H])c([H])c(Oc4c([H])c([H])c(F)c([H])c4F)c([H])c3[H])c(C(=O)N([H])[H])c2N([H])[H])C1([H])[H]

$$$$
21:0:0
     RDKit          3D

101108  0  0  1  0  0  0  0  0999 V2000
  -34.9210  -25.3500   16.7430 C   0  0  0  0  0  2  0  0  0  0  0  0
  -33.4220  -23.5670   17.6470 C   0  0  0  0  0  0  0  0  0  0  0  0
  -34.5490  -24.2870   17.6740 N   0  0  0  0  0  0  0  0  0  0  0  0
  -32.6040  -23.6390   16.7270 O   0  0  0  0  0  0  0  0  0  0  0  0
  -35.1770  -24.1280   18.4510 H   0  0  0  0  0  0  0  0  0  0  0  0
  -32.2300  -21.9410   19.0060 C   0  0  0  0  0  3  0  0  0  0  0  0
  -33.2830  -22.7660   18.8440 C   0  0  0  0  0  3  0  0  0  0  0  0
  -32.0790  -21.1440   20.2310 C   0  0  0  0  0  0  0  0  0  0  0  0
  -32.7300  -21.3650   21.2570 O   0  0  0  0  0  0  0  0  0  0  0  0
  -31.0560  -20.0060   20.2140 C   0  0  0  0  0  2  0  0  0  0  0  0
  -31.3960  -18.8660   21.1940 C   0  0  0  0  0  2  0  0  0  0  0  0
  -30.5330  -17.6160   20.9690 C   0  0  0  0  0  2  0  0  0  0  0  0
  -30.9330  -16.4540   21.8970 C   0  0  0  0  0  2  0  0  0  0  0  0
  -30.7450  -14.3830   20.5420 C   0  0  0  0  0  0  0  0  0  0  0  0
  -30.3520  -12.3190   19.2530 C   0  0  0  0  0  2  0  0  0  0  0  0
  -29.4190  -12.5840   18.0570 C   0  0  0  0  0  2  0  0  0  0  0  0
  -27.9460  -12.4550   18.4810 C   0  0  0  0  0  2  0  0  0  0  0  0
  -27.6210  -13.2670   19.7620 C   0  0  0  0  0  3  0  0  0  0  0  0
  -28.6630  -12.9910   20.8690 C   0  0  0  0  0  2  0  0  0  0  0  0
  -30.0060  -13.2650   20.3250 N   0  0  0  0  0  0  0  0  0  0  0  0
  -31.7750  -14.6460   19.9150 O   0  0  0  0  0  0  0  0  0  0  0  0
  -30.2920  -15.2020   21.5010 N   0  0  0  0  0  0  0  0  0  0  0  0
  -29.4520  -14.9250   21.9870 H   0  0  0  0  0  0  0  0  0  0  0  0
  -25.2120  -13.8910   20.4300 C   0  0  0  0  0  0  0  0  0  0  0  0
  -24.1380  -13.1250   20.7970 C   0  0  0  0  0  0  0  0  0  0  0  0
  -24.5960  -11.7710   20.7900 C   0  0  0  0  0  0  0  0  0  0  0  0
  -26.2600  -13.0040   20.2250 N   0  0  0  0  0  0  0  0  0  0  0  0
  -25.8900  -11.7260   20.4970 N   0  0  0  0  0  0  0  0  0  0  0  0
  -23.8660  -10.5130   20.9910 C   0  0  0  0  0  0  0  0  0  0  0  0
  -24.2900   -9.5570   21.9390 C   0  0  0  0  0  3  0  0  0  0  0  0
  -23.5600   -8.3630   22.1270 C   0  0  0  0  0  3  0  0  0  0  0  0
  -22.3930   -8.1170   21.3640 C   0  0  0  0  0  0  0  0  0  0  0  0
  -21.9890   -9.0640   20.4060 C   0  0  0  0  0  3  0  0  0  0  0  0
  -22.7190  -10.2480   20.2170 C   0  0  0  0  0  3  0  0  0  0  0  0
  -21.6360   -6.9750   21.4600 O   0  0  0  0  0  0  0  0  0  0  0  0
  -21.5860   -6.2400   22.6170 C   0  0  0  0  0  0  0  0  0  0  0  0
  -21.1700   -6.8070   23.8420 C   0  0  0  0  0  3  0  0  0  0  0  0
  -21.0640   -5.9990   24.9920 C   0  0  0  0  0  3  0  0  0  0  0  0
  -21.3650   -4.6260   24.9180 C   0  0  0  0  0  0  0  0  0  0  0  0
  -21.7720   -4.0570   23.6980 C   0  0  0  0  0  3  0  0  0  0  0  0
  -21.8790   -4.8630   22.5500 C   0  0  0  0  0  0  0  0  0  0  0  0
  -22.2510   -4.3070   21.3720 F   0  0  0  0  0  0  0  0  0  0  0  0
  -21.2560   -3.8470   26.0200 F   0  0  0  0  0  0  0  0  0  0  0  0
  -22.7390  -13.6070   21.0500 C   0  0  0  0  0  0  0  0  0  0  0  0
  -22.0000  -12.9230   21.9170 N   0  0  0  0  0  0  0  0  0  0  0  0
  -22.3080  -14.6270   20.5120 O   0  0  0  0  0  0  0  0  0  0  0  0
  -22.3620  -12.0980   22.3720 H   0  0  0  0  0  0  0  0  0  0  0  0
  -21.0620  -13.2280   22.1280 H   0  0  0  0  0  0  0  0  0  0  0  0
  -25.3820  -15.2590   20.2350 N   0  0  0  0  0  0  0  0  0  0  0  0
  -24.6160  -15.9180   20.3240 H   0  0  0  0  0  0  0  0  0  0  0  0
  -26.2450  -15.6910   19.9270 H   0  0  0  0  0  0  0  0  0  0  0  0
  -34.1020  -26.6400   16.9620 C   0  0  0  0  0  2  0  0  0  0  0  0
  -33.9680  -27.0690   18.4370 C   0  0  0  0  0  2  0  0  0  0  0  0
  -33.1410  -28.3540   18.6110 C   0  0  0  0  0  2  0  0  0  0  0  0
  -32.4640  -28.4660   19.9890 C   0  0  0  0  0  2  0  0  0  0  0  0
  -31.3130  -27.5410   20.1070 N   0  0  0  0  0  4  0  0  0  0  0  0
  -31.6400  -26.5880   20.0640 H   0  0  0  0  0  0  0  0  0  0  0  0
  -30.7040  -27.6890   19.3160 H   0  0  0  0  0  0  0  0  0  0  0  0
  -30.5100  -27.7220   21.3360 C   0  0  0  0  0  2  0  0  0  0  0  0
  -29.3110  -26.7530   21.3790 C   0  0  0  0  0  2  0  0  0  0  0  0
  -28.5310  -26.7890   20.1790 O   0  0  0  0  0  0  0  0  0  0  0  0
  -24.6370  -31.9130   23.2330 C   0  0  0  0  0  0  0  0  0  0  0  0
  -27.3640  -27.5170   20.2130 C   0  0  0  0  0  0  0  0  0  0  0  0
  -23.4480  -30.4800   21.5990 C   0  0  0  0  0  3  0  0  0  0  0  0
  -24.9270  -28.9490   20.1900 C   0  0  0  0  0  0  0  0  0  0  0  0
  -25.9590  -30.8820   21.3970 C   0  0  0  0  0  2  0  0  0  0  0  0
  -26.0660  -29.5050   20.7820 C   0  0  0  0  0  0  0  0  0  0  0  0
  -27.2800  -28.7980   20.8040 C   0  0  0  0  0  3  0  0  0  0  0  0
  -26.2150  -26.9680   19.6030 C   0  0  0  0  0  3  0  0  0  0  0  0
  -24.9940  -27.6730   19.5970 C   0  0  0  0  0  3  0  0  0  0  0  0
  -23.6680  -29.7860   20.2240 C   0  0  0  0  0  2  0  0  0  0  0  0
  -24.6990  -31.1060   22.1370 N   0  0  0  0  0  0  0  0  0  0  0  0
  -23.5550  -32.1750   23.7730 O   0  0  0  0  0  0  0  0  0  0  0  0
  -22.8090  -29.4600   22.5660 C   0  0  0  0  0  0  0  0  0  0  0  0
  -21.4860  -29.2710   22.4400 N   0  0  0  0  0  0  0  0  0  0  0  0
  -23.4980  -28.8430   23.3820 O   0  0  0  0  0  0  0  0  0  0  0  0
  -20.9930  -29.8200   21.7500 H   0  0  0  0  0  0  0  0  0  0  0  0
  -18.1160  -28.0840   22.9570 C   0  0  0  0  0  0  0  0  0  0  0  0
  -20.6750  -28.3350   23.2170 C   0  0  0  0  0  3  0  0  0  0  0  0
  -20.7710  -26.9040   22.6390 C   0  0  0  0  0  2  0  0  0  0  0  0
  -19.6650  -26.5860   21.6290 C   0  0  0  0  0  2  0  0  0  0  0  0
  -18.2860  -26.7350   22.2780 C   0  0  0  0  0  2  0  0  0  0  0  0
  -19.2380  -28.8430   23.3820 C   0  0  0  0  0  0  0  0  0  0  0  0
  -19.0260  -30.1070   23.9740 C   0  0  0  0  0  3  0  0  0  0  0  0
  -17.7250  -30.6150   24.1450 C   0  0  0  0  0  3  0  0  0  0  0  0
  -16.6170  -29.8530   23.7370 C   0  0  0  0  0  3  0  0  0  0  0  0
  -16.8130  -28.5900   23.1510 C   0  0  0  0  0  3  0  0  0  0  0  0
  -25.9190  -32.5600   23.8490 C   0  0  0  0  0  3  0  0  0  0  0  0
  -25.5960  -33.9550   24.1790 N   0  0  0  0  0  0  0  0  0  0  0  0
  -25.9210  -35.0090   23.4200 C   0  0  0  0  0  0  0  0  0  0  0  0
  -26.5970  -34.9120   22.3910 O   0  0  0  0  0  0  0  0  0  0  0  0
  -25.0000  -34.1040   24.9800 H   0  0  0  0  0  0  0  0  0  0  0  0
  -24.1750  -36.7780   23.0490 C   0  0  0  0  0  1  0  0  0  0  0  0
  -25.4150  -36.3920   23.8710 C   0  0  0  0  0  3  0  0  0  0  0  0
  -27.5360  -37.2970   24.7140 C   0  0  0  0  0  1  0  0  0  0  0  0
  -26.4370  -37.4580   23.7660 N   0  0  0  0  0  0  0  0  0  0  0  0
  -26.0210  -38.3750   23.9130 H   0  0  0  0  0  0  0  0  0  0  0  0
  -26.4540  -31.7940   25.1200 C   0  0  1  0  0  0  0  0  0  0  0  0
  -25.3710  -31.5400   26.1950 C   0  0  0  0  0  1  0  0  0  0  0  0
  -27.0510  -30.4240   24.7170 C   0  0  0  0  0  1  0  0  0  0  0  0
  -27.5960  -32.6010   25.7820 C   0  0  0  0  0  1  0  0  0  0  0  0
  1 52  1  0
  1  3  1  0
  2  3  1  0
  2  7  1  0
  3  5  1  0
  4  2  2  0
  6  8  1  0
  7  6  2  0
  8  9  2  0
 10  8  1  0
 10 11  1  0
 12 11  1  0
 12 13  1  0
 14 22  1  0
 15 20  1  0
 16 17  1  0
 16 15  1  0
 18 17  1  0
 18 27  1  0
 18 19  1  0
 20 14  1  0
 20 19  1  0
 21 14  2  0
 22 13  1  0
 22 23  1  0
 24 25  2  0
 25 44  1  0
 26 25  1  0
 26 29  1  0
 27 24  1  0
 27 28  1  0
 28 26  2  0
 29 30  1  0
 30 31  2  0
 32 35  1  0
 32 31  1  0
 33 32  2  0
 34 33  1  0
 34 29  2  0
 35 36  1  0
 36 37  1  0
 37 38  2  0
 39 38  1  0
 39 43  1  0
 40 39  2  0
 41 36  2  0
 41 40  1  0
 42 41  1  0
 44 45  1  0
 45 48  1  0
 45 47  1  0
 46 44  2  0
 49 50  1  0
 49 24  1  0
 51 49  1  0
 52 53  1  0
 53 54  1  0
 54 55  1  0
 55 56  1  0
 56 59  1  0
 57 56  1  0
 58 56  1  0
 59 60  1  0
 61 63  1  0
 61 60  1  0
 62 73  2  0
 63 68  1  0
 64 72  1  0
 64 74  1  0
 65 71  1  0
 65 67  1  0
 66 72  1  0
 67 68  2  0
 67 66  1  0
 69 63  2  0
 70 69  1  0
 70 65  2  0
 71 64  1  0
 72 62  1  0
 74 76  2  0
 75 74  1  0
 77 75  1  0
 78 87  2  0
 78 83  1  0
 79 75  1  0
 79 83  1  0
 80 79  1  0
 81 82  1  0
 81 80  1  0
 82 78  1  0
 83 84  2  0
 84 85  1  0
 86 85  2  0
 87 86  1  0
 88 62  1  0
 88 89  1  0
 88 98  1  0
 89 92  1  0
 90 94  1  0
 90 89  1  0
 91 90  2  0
 94 93  1  0
 96 94  1  0
 96 97  1  0
 96 95  1  0
 98101  1  1
 98 99  1  0
100 98  1  0
M  ISO  4  14 100  22 100  60 101  61 101
M  END
>  <TORSDO>  (21) 
F 30

>  <SCORE>  (21) 
-10.935

>  <name>  (21) 
21

>  <ligand_id>  (21) 
21

>  <original_smiles>  (21) 
[H]C(C(=O)N([H])C([H])([H])C([H])([H])C([H])([H])C([H])([H])C([H])([H])[N+]([H])([H])C([H])([H])C([H])([H])Oc1c([H])c([H])c2c(c1[H])C([H])([H])N(C(=O)C([H])(N([H])C(=O)C([H])(N([H])C([H])([H])[H])C([H])([H])[H])C(C([H])([H])[H])(C([H])([H])[H])C([H])([H])[H])C([H])(C(=O)N([H])C1([H])c3c([H])c([H])c([H])c([H])c3C([H])([H])C([H])([H])C1([H])[H])C2([H])[H])=C([H])C(=O)C([H])([H])C([H])([H])C([H])([H])C([H])([H])N([H])C(=O)N1C([H])([H])C([H])([H])C([H])([H])C([H])(n2nc(-c3c([H])c([H])c(Oc4c([H])c([H])c(F)c([H])c4F)c([H])c3[H])c(C(=O)N([H])[H])c2N([H])[H])C1([H])[H]

>  <smiles>  (21) 
[H]C(C(=O)N([H])C([H])([H])C([H])([H])C([H])([H])C([H])([H])C([H])([H])[N+]([H])([H])C([H])([H])C([H])([H])Oc1c([H])c([H])c2c(c1[H])C([H])([H])N(C(=O)C([H])(N([H])C(=O)C([H])(N([H])C([H])([H])[H])C([H])([H])[H])C(C([H])([H])[H])(C([H])([H])[H])C([H])([H])[H])C([H])(C(=O)N([H])C1([H])c3c([H])c([H])c([H])c([H])c3C([H])([H])C([H])([H])C1([H])[H])C2([H])[H])=C([H])C(=O)C([H])([H])C([H])([H])C([H])([H])C([H])([H])N([H])C(=O)N1C([H])([H])C([H])([H])C([H])([H])C([H])(n2nc(-c3c([H])c([H])c(Oc4c([H])c([H])c(F)c([H])c4F)c([H])c3[H])c(C(=O)N([H])[H])c2N([H])[H])C1([H])[H]

$$$$
22:0:0
     RDKit          3D

100107  0  0  1  0  0  0  0  0999 V2000
  -25.0600  -20.8610   18.6800 C   0  0  0  0  0  0  0  0  0  0  0  0
  -24.7570  -22.0290   19.2550 N   0  0  0  0  0  0  0  0  0  0  0  0
  -24.2460  -19.9380   18.7320 O   0  0  0  0  0  0  0  0  0  0  0  0
  -23.8600  -22.0280   19.7170 H   0  0  0  0  0  0  0  0  0  0  0  0
  -26.3420  -20.7690   18.0040 C   0  0  0  0  0  3  0  0  0  0  0  0
  -26.8590  -19.5530   17.7700 C   0  0  0  0  0  3  0  0  0  0  0  0
  -27.8600  -18.8890   15.6000 C   0  0  0  0  0  1  0  0  0  0  0  0
  -28.1550  -19.3050   17.0380 C   0  0  0  0  0  3  0  0  0  0  0  0
  -29.6960  -18.5030   18.8090 C   0  0  0  0  0  0  0  0  0  0  0  0
  -28.9100  -18.2710   17.7430 N   0  0  0  0  0  0  0  0  0  0  0  0
  -30.0460  -19.6360   19.1470 O   0  0  0  0  0  0  0  0  0  0  0  0
  -28.7120  -17.3130   17.4890 H   0  0  0  0  0  0  0  0  0  0  0  0
  -30.0380  -17.2890   19.5250 C   0  0  0  0  0  2  0  0  0  0  0  0
  -30.7860  -17.3610   20.6410 C   0  0  0  0  0  2  0  0  0  0  0  0
  -30.9170  -16.5980   21.9560 C   0  0  0  0  0  2  0  0  0  0  0  0
  -31.1720  -14.3580   20.9270 C   0  0  0  0  0  0  0  0  0  0  0  0
  -30.7480  -12.5370   19.3270 C   0  0  0  0  0  2  0  0  0  0  0  0
  -29.8350  -13.0580   18.1960 C   0  0  0  0  0  2  0  0  0  0  0  0
  -28.3470  -12.9750   18.5900 C   0  0  0  0  0  2  0  0  0  0  0  0
  -28.0580  -13.5150   20.0130 C   0  0  0  0  0  3  0  0  0  0  0  0
  -29.0760  -12.9720   21.0440 C   0  0  0  0  0  2  0  0  0  0  0  0
  -30.4300  -13.2840   20.5560 N   0  0  0  0  0  0  0  0  0  0  0  0
  -32.2610  -14.6420   20.4290 O   0  0  0  0  0  0  0  0  0  0  0  0
  -30.5550  -15.1950   21.7820 N   0  0  0  0  0  0  0  0  0  0  0  0
  -29.6890  -14.8840   22.1920 H   0  0  0  0  0  0  0  0  0  0  0  0
  -25.6560  -14.1430   20.6630 C   0  0  0  0  0  0  0  0  0  0  0  0
  -24.5570  -13.3790   20.9530 C   0  0  0  0  0  0  0  0  0  0  0  0
  -24.9840  -12.0180   20.8610 C   0  0  0  0  0  0  0  0  0  0  0  0
  -26.6850  -13.2480   20.4210 N   0  0  0  0  0  0  0  0  0  0  0  0
  -26.2810  -11.9650   20.5920 N   0  0  0  0  0  0  0  0  0  0  0  0
  -24.2270  -10.7700   20.9610 C   0  0  0  0  0  0  0  0  0  0  0  0
  -24.6360   -9.7240   21.8210 C   0  0  0  0  0  3  0  0  0  0  0  0
  -23.8770   -8.5390   21.9120 C   0  0  0  0  0  3  0  0  0  0  0  0
  -22.7030   -8.3850   21.1440 C   0  0  0  0  0  0  0  0  0  0  0  0
  -22.3130   -9.4190   20.2700 C   0  0  0  0  0  3  0  0  0  0  0  0
  -23.0710  -10.5970   20.1780 C   0  0  0  0  0  3  0  0  0  0  0  0
  -21.9180   -7.2620   21.1480 O   0  0  0  0  0  0  0  0  0  0  0  0
  -21.7050   -6.5350   22.2920 C   0  0  0  0  0  0  0  0  0  0  0  0
  -21.1850   -7.1300   23.4630 C   0  0  0  0  0  3  0  0  0  0  0  0
  -20.9190   -6.3360   24.5950 C   0  0  0  0  0  3  0  0  0  0  0  0
  -21.1610   -4.9480   24.5570 C   0  0  0  0  0  0  0  0  0  0  0  0
  -21.6740   -4.3560   23.3910 C   0  0  0  0  0  3  0  0  0  0  0  0
  -21.9430   -5.1480   22.2600 C   0  0  0  0  0  0  0  0  0  0  0  0
  -22.4180   -4.5680   21.1300 F   0  0  0  0  0  0  0  0  0  0  0  0
  -20.8990   -4.1830   25.6430 F   0  0  0  0  0  0  0  0  0  0  0  0
  -23.1690  -13.8710   21.2200 C   0  0  0  0  0  0  0  0  0  0  0  0
  -22.4000  -13.1510   22.0360 N   0  0  0  0  0  0  0  0  0  0  0  0
  -22.7650  -14.9350   20.7500 O   0  0  0  0  0  0  0  0  0  0  0  0
  -22.7370  -12.2880   22.4450 H   0  0  0  0  0  0  0  0  0  0  0  0
  -21.4600  -13.4620   22.2370 H   0  0  0  0  0  0  0  0  0  0  0  0
  -25.8560  -15.5180   20.5710 N   0  0  0  0  0  0  0  0  0  0  0  0
  -25.1120  -16.1850   20.7200 H   0  0  0  0  0  0  0  0  0  0  0  0
  -26.7530  -15.9590   20.4040 H   0  0  0  0  0  0  0  0  0  0  0  0
  -25.5470  -23.2400   19.4640 C   0  0  0  0  0  2  0  0  0  0  0  0
  -26.7360  -22.9560   20.3950 C   0  0  0  0  0  2  0  0  0  0  0  0
  -27.4500  -24.1490   20.6970 O   0  0  0  0  0  0  0  0  0  0  0  0
  -28.4230  -24.5020   19.7220 C   0  0  0  0  0  2  0  0  0  0  0  0
  -28.2620  -25.9720   19.3040 C   0  0  0  0  0  2  0  0  0  0  0  0
  -28.4790  -26.1760   17.7790 C   0  0  0  0  0  2  0  0  0  0  0  0
  -27.9790  -27.4390   17.3220 O   0  0  0  0  0  0  0  0  0  0  0  0
  -24.8150  -30.2250   23.0120 C   0  0  0  0  0  0  0  0  0  0  0  0
  -26.7830  -27.8650   17.8580 C   0  0  0  0  0  0  0  0  0  0  0  0
  -23.2990  -29.2840   21.3070 C   0  0  0  0  0  3  0  0  0  0  0  0
  -24.3730  -28.7050   19.0670 C   0  0  0  0  0  0  0  0  0  0  0  0
  -25.5740  -30.2380   20.6350 C   0  0  0  0  0  2  0  0  0  0  0  0
  -25.5940  -29.2340   19.5010 C   0  0  0  0  0  0  0  0  0  0  0  0
  -26.8030  -28.8210   18.8970 C   0  0  0  0  0  3  0  0  0  0  0  0
  -25.5400  -27.3540   17.4220 C   0  0  0  0  0  3  0  0  0  0  0  0
  -24.3390  -27.7640   18.0260 C   0  0  0  0  0  3  0  0  0  0  0  0
  -23.1270  -29.1960   19.7670 C   0  0  0  0  0  2  0  0  0  0  0  0
  -24.6010  -29.9050   21.7050 N   0  0  0  0  0  0  0  0  0  0  0  0
  -23.9380  -30.0430   23.8670 O   0  0  0  0  0  0  0  0  0  0  0  0
  -23.0900  -27.8710   21.8950 C   0  0  0  0  0  0  0  0  0  0  0  0
  -21.9590  -27.2380   21.5390 N   0  0  0  0  0  0  0  0  0  0  0  0
  -23.9390  -27.3550   22.6280 O   0  0  0  0  0  0  0  0  0  0  0  0
  -21.3080  -27.7310   20.9460 H   0  0  0  0  0  0  0  0  0  0  0  0
  -19.6660  -24.5430   20.8120 C   0  0  0  0  0  0  0  0  0  0  0  0
  -21.5640  -25.8890   21.9380 C   0  0  0  0  0  3  0  0  0  0  0  0
  -22.5220  -24.8280   21.3510 C   0  0  0  0  0  2  0  0  0  0  0  0
  -22.0460  -24.2560   20.0100 C   0  0  0  0  0  2  0  0  0  0  0  0
  -20.6680  -23.6070   20.1620 C   0  0  0  0  0  2  0  0  0  0  0  0
  -20.0840  -25.6250   21.6310 C   0  0  0  0  0  0  0  0  0  0  0  0
  -19.1090  -26.4880   22.1790 C   0  0  0  0  0  3  0  0  0  0  0  0
  -17.7400  -26.2820   21.9250 C   0  0  0  0  0  3  0  0  0  0  0  0
  -17.3290  -25.2000   21.1250 C   0  0  0  0  0  3  0  0  0  0  0  0
  -18.2910  -24.3320   20.5730 C   0  0  0  0  0  3  0  0  0  0  0  0
  -26.1590  -30.8510   23.4960 C   0  0  0  0  0  3  0  0  0  0  0  0
  -25.8590  -32.1830   24.0300 N   0  0  0  0  0  0  0  0  0  0  0  0
  -26.0990  -33.3340   23.3860 C   0  0  0  0  0  0  0  0  0  0  0  0
  -26.6790  -33.3870   22.2980 O   0  0  0  0  0  0  0  0  0  0  0  0
  -25.3470  -32.2110   24.8980 H   0  0  0  0  0  0  0  0  0  0  0  0
  -24.3470  -35.1360   23.3780 C   0  0  0  0  0  1  0  0  0  0  0  0
  -25.6280  -34.6340   24.0650 C   0  0  0  0  0  3  0  0  0  0  0  0
  -27.8010  -35.4160   24.9040 C   0  0  0  0  0  1  0  0  0  0  0  0
  -26.6470  -35.7090   24.0560 N   0  0  0  0  0  0  0  0  0  0  0  0
  -26.2430  -36.5930   24.3610 H   0  0  0  0  0  0  0  0  0  0  0  0
  -26.8940  -29.9690   24.5760 C   0  0  1  0  0  0  0  0  0  0  0  0
  -25.9870  -29.5210   25.7480 C   0  0  0  0  0  1  0  0  0  0  0  0
  -27.4840  -28.7030   23.9120 C   0  0  0  0  0  1  0  0  0  0  0  0
  -28.0810  -30.7650   25.1710 C   0  0  0  0  0  1  0  0  0  0  0  0
  1  3  2  0
  1  2  1  0
  2 54  1  0
  2  4  1  0
  5  1  1  0
  6  5  2  0
  8  7  1  0
  8 10  1  0
  8  6  1  0
  9 11  2  0
  9 13  1  0
 10  9  1  0
 12 10  1  0
 13 14  1  0
 14 15  1  0
 16 24  1  0
 17 22  1  0
 18 19  1  0
 18 17  1  0
 20 19  1  0
 20 29  1  0
 20 21  1  0
 22 16  1  0
 22 21  1  0
 23 16  2  0
 24 15  1  0
 24 25  1  0
 26 27  2  0
 27 46  1  0
 28 27  1  0
 28 31  1  0
 29 30  1  0
 29 26  1  0
 30 28  2  0
 31 32  1  0
 32 33  2  0
 34 37  1  0
 34 33  1  0
 35 34  2  0
 36 35  1  0
 36 31  2  0
 37 38  1  0
 38 39  1  0
 39 40  2  0
 41 40  1  0
 41 45  1  0
 42 41  2  0
 43 38  2  0
 43 42  1  0
 44 43  1  0
 46 47  1  0
 47 50  1  0
 47 49  1  0
 48 46  2  0
 51 26  1  0
 51 52  1  0
 53 51  1  0
 54 55  1  0
 55 56  1  0
 57 56  1  0
 58 57  1  0
 59 58  1  0
 60 59  1  0
 60 62  1  0
 61 72  2  0
 62 67  1  0
 63 71  1  0
 63 73  1  0
 64 66  1  0
 64 70  1  0
 65 71  1  0
 66 65  1  0
 67 66  2  0
 68 62  2  0
 68 69  1  0
 69 64  2  0
 70 63  1  0
 71 61  1  0
 73 75  2  0
 74 73  1  0
 76 74  1  0
 77 82  1  0
 78 74  1  0
 79 78  1  0
 80 81  1  0
 80 79  1  0
 81 77  1  0
 82 78  1  0
 82 83  2  0
 84 83  1  0
 85 84  2  0
 86 77  2  0
 86 85  1  0
 87 61  1  0
 87 88  1  0
 87 97  1  0
 88 91  1  0
 89 88  1  0
 89 93  1  0
 90 89  2  0
 93 92  1  0
 95 93  1  0
 95 96  1  0
 95 94  1  0
 97100  1  1
 97 98  1  0
 99 97  1  0
M  ISO  4  16 100  24 100  59 101  60 101
M  END
>  <TORSDO>  (22) 
F 27

>  <SCORE>  (22) 
-8.560

>  <name>  (22) 
22

>  <ligand_id>  (22) 
22

>  <original_smiles>  (22) 
[H]C(C(=O)N([H])C([H])(C([H])=C([H])C(=O)N([H])C([H])([H])C([H])([H])OC([H])([H])C([H])([H])C([H])([H])Oc1c([H])c([H])c2c(c1[H])C([H])([H])N(C(=O)C([H])(N([H])C(=O)C([H])(N([H])C([H])([H])[H])C([H])([H])[H])C(C([H])([H])[H])(C([H])([H])[H])C([H])([H])[H])C([H])(C(=O)N([H])C1([H])c3c([H])c([H])c([H])c([H])c3C([H])([H])C([H])([H])C1([H])[H])C2([H])[H])C([H])([H])[H])=C([H])C([H])([H])N([H])C(=O)N1C([H])([H])C([H])([H])C([H])([H])C([H])(n2nc(-c3c([H])c([H])c(Oc4c([H])c([H])c(F)c([H])c4F)c([H])c3[H])c(C(=O)N([H])[H])c2N([H])[H])C1([H])[H]

>  <smiles>  (22) 
[H]C(C(=O)N([H])C([H])(C([H])=C([H])C(=O)N([H])C([H])([H])C([H])([H])OC([H])([H])C([H])([H])C([H])([H])Oc1c([H])c([H])c2c(c1[H])C([H])([H])N(C(=O)C([H])(N([H])C(=O)C([H])(N([H])C([H])([H])[H])C([H])([H])[H])C(C([H])([H])[H])(C([H])([H])[H])C([H])([H])[H])C([H])(C(=O)N([H])C1([H])c3c([H])c([H])c([H])c([H])c3C([H])([H])C([H])([H])C1([H])[H])C2([H])[H])C([H])([H])[H])=C([H])C([H])([H])N([H])C(=O)N1C([H])([H])C([H])([H])C([H])([H])C([H])(n2nc(-c3c([H])c([H])c(Oc4c([H])c([H])c(F)c([H])c4F)c([H])c3[H])c(C(=O)N([H])[H])c2N([H])[H])C1([H])[H]

$$$$
23:0:0
     RDKit          3D

 99106  0  0  1  0  0  0  0  0999 V2000
  -34.6540  -24.9590   20.9670 N   0  0  0  0  0  4  0  0  0  0  0  0
  -33.8250  -25.1370   21.5120 H   0  0  0  0  0  0  0  0  0  0  0  0
  -35.4230  -24.8450   21.6080 H   0  0  0  0  0  0  0  0  0  0  0  0
  -34.4600  -23.7020   20.2040 C   0  0  0  0  0  2  0  0  0  0  0  0
  -33.4540  -22.7560   20.8930 C   0  0  0  0  0  2  0  0  0  0  0  0
  -33.2120  -21.4390   20.1220 C   0  0  0  0  0  2  0  0  0  0  0  0
  -32.0520  -20.6870   20.6540 N   0  0  0  0  0  4  0  0  0  0  0  0
  -32.1430  -20.5980   21.6530 H   0  0  0  0  0  0  0  0  0  0  0  0
  -31.2160  -21.2180   20.4650 H   0  0  0  0  0  0  0  0  0  0  0  0
  -31.8900  -19.3310   20.0890 C   0  0  0  0  0  2  0  0  0  0  0  0
  -30.5990  -18.6560   20.5960 C   0  0  0  0  0  2  0  0  0  0  0  0
  -30.4560  -17.1840   20.1700 C   0  0  0  0  0  2  0  0  0  0  0  0
  -31.2890  -16.2100   21.0230 C   0  0  0  0  0  2  0  0  0  0  0  0
  -31.2500  -13.9150   20.0310 C   0  0  0  0  0  0  0  0  0  0  0  0
  -30.8200  -11.6680   19.1030 C   0  0  0  0  0  2  0  0  0  0  0  0
  -29.8500  -11.7500   17.9090 C   0  0  0  0  0  2  0  0  0  0  0  0
  -28.3850  -11.7300   18.3890 C   0  0  0  0  0  2  0  0  0  0  0  0
  -28.1180  -12.7490   19.5280 C   0  0  0  0  0  3  0  0  0  0  0  0
  -29.1850  -12.6050   20.6340 C   0  0  0  0  0  2  0  0  0  0  0  0
  -30.5150  -12.7750   20.0190 N   0  0  0  0  0  0  0  0  0  0  0  0
  -32.2570  -14.0930   19.3370 O   0  0  0  0  0  0  0  0  0  0  0  0
  -30.7880  -14.8510   20.8690 N   0  0  0  0  0  0  0  0  0  0  0  0
  -29.9780  -14.5890   21.4140 H   0  0  0  0  0  0  0  0  0  0  0  0
  -25.8150  -13.5940   20.3150 C   0  0  0  0  0  0  0  0  0  0  0  0
  -24.6990  -12.9300   20.7460 C   0  0  0  0  0  0  0  0  0  0  0  0
  -25.0340  -11.5400   20.7230 C   0  0  0  0  0  0  0  0  0  0  0  0
  -26.7660  -12.6160   20.0640 N   0  0  0  0  0  0  0  0  0  0  0  0
  -26.2990  -11.3760   20.3610 N   0  0  0  0  0  0  0  0  0  0  0  0
  -24.2080  -10.3520   20.9720 C   0  0  0  0  0  0  0  0  0  0  0  0
  -24.5570   -9.4050   21.9610 C   0  0  0  0  0  3  0  0  0  0  0  0
  -23.7370   -8.2800   22.1930 C   0  0  0  0  0  3  0  0  0  0  0  0
  -22.5530   -8.0930   21.4380 C   0  0  0  0  0  0  0  0  0  0  0  0
  -22.2250   -9.0280   20.4410 C   0  0  0  0  0  3  0  0  0  0  0  0
  -23.0440  -10.1440   20.2070 C   0  0  0  0  0  3  0  0  0  0  0  0
  -21.7100   -7.0180   21.5760 O   0  0  0  0  0  0  0  0  0  0  0  0
  -21.5570   -6.3730   22.7770 C   0  0  0  0  0  0  0  0  0  0  0  0
  -21.0840   -7.0440   23.9260 C   0  0  0  0  0  3  0  0  0  0  0  0
  -20.8750   -6.3280   25.1220 C   0  0  0  0  0  3  0  0  0  0  0  0
  -21.1260   -4.9430   25.1680 C   0  0  0  0  0  0  0  0  0  0  0  0
  -21.5930   -4.2720   24.0230 C   0  0  0  0  0  3  0  0  0  0  0  0
  -21.8040   -4.9850   22.8300 C   0  0  0  0  0  0  0  0  0  0  0  0
  -22.2310   -4.3300   21.7220 F   0  0  0  0  0  0  0  0  0  0  0  0
  -20.9160   -4.2560   26.3150 F   0  0  0  0  0  0  0  0  0  0  0  0
  -23.3650  -13.5350   21.0710 C   0  0  0  0  0  0  0  0  0  0  0  0
  -22.6180  -12.9160   21.9780 N   0  0  0  0  0  0  0  0  0  0  0  0
  -22.9950  -14.5890   20.5550 O   0  0  0  0  0  0  0  0  0  0  0  0
  -22.9300  -12.0590   22.4140 H   0  0  0  0  0  0  0  0  0  0  0  0
  -21.7230  -13.3030   22.2400 H   0  0  0  0  0  0  0  0  0  0  0  0
  -26.1000  -14.9410   20.0990 N   0  0  0  0  0  0  0  0  0  0  0  0
  -25.4180  -15.6790   20.2290 H   0  0  0  0  0  0  0  0  0  0  0  0
  -26.9860  -15.2800   19.7470 H   0  0  0  0  0  0  0  0  0  0  0  0
  -34.8880  -26.1510   20.1250 C   0  0  0  0  0  2  0  0  0  0  0  0
  -35.0440  -27.4450   20.9540 C   0  0  0  0  0  2  0  0  0  0  0  0
  -34.1380  -28.5920   20.4670 C   0  0  0  0  0  2  0  0  0  0  0  0
  -31.8260  -28.2990   20.1340 C   0  0  0  0  0  3  0  0  0  0  0  0
  -32.7890  -28.3730   20.9630 N   0  0  0  0  0  0  0  0  0  0  0  0
  -30.4030  -28.0690   20.5980 C   0  0  0  0  0  2  0  0  0  0  0  0
  -29.6270  -27.0340   19.7580 C   0  0  0  0  0  2  0  0  0  0  0  0
  -28.4840  -26.4990   20.4330 O   0  0  0  0  0  0  0  0  0  0  0  0
  -24.5870  -31.7370   23.2930 C   0  0  0  0  0  0  0  0  0  0  0  0
  -27.3350  -27.2500   20.4080 C   0  0  0  0  0  0  0  0  0  0  0  0
  -23.4230  -30.2870   21.6510 C   0  0  0  0  0  3  0  0  0  0  0  0
  -24.9190  -28.7110   20.3170 C   0  0  0  0  0  0  0  0  0  0  0  0
  -25.9490  -30.6480   21.5190 C   0  0  0  0  0  2  0  0  0  0  0  0
  -26.0530  -29.2640   20.9240 C   0  0  0  0  0  0  0  0  0  0  0  0
  -27.2560  -28.5370   20.9830 C   0  0  0  0  0  3  0  0  0  0  0  0
  -26.1780  -26.6870   19.8250 C   0  0  0  0  0  3  0  0  0  0  0  0
  -24.9720  -27.4140   19.7720 C   0  0  0  0  0  3  0  0  0  0  0  0
  -23.6700  -29.5600   20.3020 C   0  0  0  0  0  2  0  0  0  0  0  0
  -24.6680  -30.9080   22.2110 N   0  0  0  0  0  0  0  0  0  0  0  0
  -23.4930  -32.0270   23.7940 O   0  0  0  0  0  0  0  0  0  0  0  0
  -22.7450  -29.2990   22.6250 C   0  0  0  0  0  0  0  0  0  0  0  0
  -21.4200  -29.1380   22.4790 N   0  0  0  0  0  0  0  0  0  0  0  0
  -23.4070  -28.6770   23.4610 O   0  0  0  0  0  0  0  0  0  0  0  0
  -20.9510  -29.6880   21.7740 H   0  0  0  0  0  0  0  0  0  0  0  0
  -18.0110  -28.0570   22.9750 C   0  0  0  0  0  0  0  0  0  0  0  0
  -20.5750  -28.2300   23.2530 C   0  0  0  0  0  3  0  0  0  0  0  0
  -20.6310  -26.7950   22.6830 C   0  0  0  0  0  2  0  0  0  0  0  0
  -19.5220  -26.5060   21.6680 C   0  0  0  0  0  2  0  0  0  0  0  0
  -18.1440  -26.6990   22.3070 C   0  0  0  0  0  2  0  0  0  0  0  0
  -19.1520  -28.7830   23.4060 C   0  0  0  0  0  0  0  0  0  0  0  0
  -18.9760  -30.0570   23.9890 C   0  0  0  0  0  3  0  0  0  0  0  0
  -17.6900  -30.6050   24.1470 C   0  0  0  0  0  3  0  0  0  0  0  0
  -16.5600  -29.8740   23.7360 C   0  0  0  0  0  3  0  0  0  0  0  0
  -16.7220  -28.6030   23.1570 C   0  0  0  0  0  3  0  0  0  0  0  0
  -25.8610  -32.3770   23.9300 C   0  0  0  0  0  3  0  0  0  0  0  0
  -25.5530  -33.7850   24.2130 N   0  0  0  0  0  0  0  0  0  0  0  0
  -25.9380  -34.8130   23.4450 C   0  0  0  0  0  0  0  0  0  0  0  0
  -26.6580  -34.6770   22.4510 O   0  0  0  0  0  0  0  0  0  0  0  0
  -24.9180  -33.9640   24.9770 H   0  0  0  0  0  0  0  0  0  0  0  0
  -24.2650  -36.6170   22.9430 C   0  0  0  0  0  1  0  0  0  0  0  0
  -25.4440  -36.2160   23.8440 C   0  0  0  0  0  3  0  0  0  0  0  0
  -27.5320  -37.0880   24.7950 C   0  0  0  0  0  1  0  0  0  0  0  0
  -26.4990  -37.2500   23.7750 N   0  0  0  0  0  0  0  0  0  0  0  0
  -26.0980  -38.1800   23.8750 H   0  0  0  0  0  0  0  0  0  0  0  0
  -26.3420  -31.6370   25.2380 C   0  0  1  0  0  0  0  0  0  0  0  0
  -25.2180  -31.4250   26.2790 C   0  0  0  0  0  1  0  0  0  0  0  0
  -26.9370  -30.2510   24.8900 C   0  0  0  0  0  1  0  0  0  0  0  0
  -27.4720  -32.4480   25.9150 C   0  0  0  0  0  1  0  0  0  0  0  0
  1  2  1  0
  1  3  1  0
  4  5  1  0
  4  1  1  0
  6  7  1  0
  6  5  1  0
  7  8  1  0
  9  7  1  0
 10 11  1  0
 10  7  1  0
 12 11  1  0
 12 13  1  0
 14 22  1  0
 15 20  1  0
 16 17  1  0
 16 15  1  0
 18 17  1  0
 18 27  1  0
 18 19  1  0
 20 14  1  0
 20 19  1  0
 21 14  2  0
 22 13  1  0
 22 23  1  0
 24 25  2  0
 25 44  1  0
 26 25  1  0
 26 29  1  0
 27 24  1  0
 27 28  1  0
 28 26  2  0
 29 30  1  0
 30 31  2  0
 32 35  1  0
 32 31  1  0
 33 32  2  0
 34 33  1  0
 34 29  2  0
 35 36  1  0
 36 41  2  0
 36 37  1  0
 37 38  2  0
 38 39  1  0
 39 43  1  0
 40 39  2  0
 41 40  1  0
 42 41  1  0
 44 45  1  0
 45 48  1  0
 45 47  1  0
 46 44  2  0
 49 50  1  0
 49 24  1  0
 51 49  1  0
 52 53  1  0
 52  1  1  0
 54 53  1  0
 54 56  1  0
 55 57  1  0
 55 56  2  0
 58 59  1  0
 58 57  1  0
 60 71  2  0
 61 59  1  0
 61 66  1  0
 62 70  1  0
 62 72  1  0
 63 65  1  0
 64 70  1  0
 65 66  2  0
 65 64  1  0
 67 61  2  0
 68 67  1  0
 68 63  2  0
 69 63  1  0
 69 62  1  0
 70 60  1  0
 72 74  2  0
 73 72  1  0
 75 73  1  0
 76 85  2  0
 76 81  1  0
 77 73  1  0
 77 81  1  0
 78 77  1  0
 79 80  1  0
 79 78  1  0
 80 76  1  0
 81 82  2  0
 82 83  1  0
 84 83  2  0
 85 84  1  0
 86 60  1  0
 86 87  1  0
 86 96  1  0
 87 90  1  0
 88 92  1  0
 88 87  1  0
 89 88  2  0
 92 91  1  0
 94 92  1  0
 94 95  1  0
 94 93  1  0
 96 99  1  1
 96 97  1  0
 98 96  1  0
M  ISO  4  14 100  22 100  58 101  59 101
M  END
>  <TORSDO>  (23) 
F 30

>  <SCORE>  (23) 
-9.658

>  <name>  (23) 
23

>  <ligand_id>  (23) 
23

>  <original_smiles>  (23) 
[H]C(=NC([H])([H])C([H])([H])C([H])([H])[N+]([H])([H])C([H])([H])C([H])([H])C([H])([H])[N+]([H])([H])C([H])([H])C([H])([H])C([H])([H])C([H])([H])N([H])C(=O)N1C([H])([H])C([H])([H])C([H])([H])C([H])(n2nc(-c3c([H])c([H])c(Oc4c([H])c([H])c(F)c([H])c4F)c([H])c3[H])c(C(=O)N([H])[H])c2N([H])[H])C1([H])[H])C([H])([H])C([H])([H])Oc1c([H])c([H])c2c(c1[H])C([H])([H])N(C(=O)C([H])(N([H])C(=O)C([H])(N([H])C([H])([H])[H])C([H])([H])[H])C(C([H])([H])[H])(C([H])([H])[H])C([H])([H])[H])C([H])(C(=O)N([H])C1([H])c3c([H])c([H])c([H])c([H])c3C([H])([H])C([H])([H])C1([H])[H])C2([H])[H]

>  <smiles>  (23) 
[H]C(=NC([H])([H])C([H])([H])C([H])([H])[N+]([H])([H])C([H])([H])C([H])([H])C([H])([H])[N+]([H])([H])C([H])([H])C([H])([H])C([H])([H])C([H])([H])N([H])C(=O)N1C([H])([H])C([H])([H])C([H])([H])C([H])(n2nc(-c3c([H])c([H])c(Oc4c([H])c([H])c(F)c([H])c4F)c([H])c3[H])c(C(=O)N([H])[H])c2N([H])[H])C1([H])[H])C([H])([H])C([H])([H])Oc1c([H])c([H])c2c(c1[H])C([H])([H])N(C(=O)C([H])(N([H])C(=O)C([H])(N([H])C([H])([H])[H])C([H])([H])[H])C(C([H])([H])[H])(C([H])([H])[H])C([H])([H])[H])C([H])(C(=O)N([H])C1([H])c3c([H])c([H])c([H])c([H])c3C([H])([H])C([H])([H])C1([H])[H])C2([H])[H]

$$$$
24:0:0
     RDKit          3D

 97 99  0  0  1  0  0  0  0  0999 V2000
  -20.4220  -27.6410   19.3820 C   0  0  0  0  0  2  0  0  0  0  0  0
  -19.8510  -27.5160   20.9970 C   0  0  0  0  0  2  0  0  0  0  0  0
  -20.6420  -26.0970   22.8420 N   0  0  0  0  0  4  0  0  0  0  0  0
  -19.9240  -25.3880   22.8620 H   0  0  0  0  0  0  0  0  0  0  0  0
  -20.4740  -26.5980   23.7020 H   0  0  0  0  0  0  0  0  0  0  0  0
  -22.2280  -25.0990   23.0320 C   0  0  0  0  0 15  0  0  0  0  0  0
  -24.0100  -24.6580   22.1710 C   0  0  0  0  0 15  0  0  0  0  0  0
  -25.6880  -23.5410   22.2980 C   0  0  0  0  0  1  0  0  0  0  0  0
  -27.2930  -23.1570   21.5310 O   0  0  0  0  0  0  0  0  0  0  0  0
  -28.6830  -21.9830   21.5030 C   0  0  0  0  0  1  0  0  0  0  0  0
  -30.4250  -21.5170   20.6050 C   0  0  0  0  0  1  0  0  0  0  0  0
  -32.9430  -19.5920   19.6010 C   0  0  0  0  0  0  0  0  0  0  0  0
  -34.1090  -17.6000   18.1590 C   0  0  0  0  0  2  0  0  0  0  0  0
  -33.2880  -17.2040   16.8860 C   0  0  0  0  0  2  0  0  0  0  0  0
  -32.0200  -16.4140   17.2650 C   0  0  0  0  0  2  0  0  0  0  0  0
  -31.3910  -17.0120   18.5410 C   0  0  0  0  0  3  0  0  0  0  0  0
  -32.3830  -17.1420   19.6910 C   0  0  0  0  0  2  0  0  0  0  0  0
  -33.2050  -18.2200   19.2460 N   0  0  0  0  0  0  0  0  0  0  0  0
  -33.9730  -20.2210   19.2220 O   0  0  0  0  0  0  0  0  0  0  0  0
  -31.5760  -20.1370   20.2310 N   0  0  0  0  0  0  0  0  0  0  0  0
  -31.0710  -19.2980   20.4830 H   0  0  0  0  0  0  0  0  0  0  0  0
  -29.0050  -16.8740   19.3080 C   0  0  0  0  0  0  0  0  0  0  0  0
  -28.2520  -15.8230   19.7360 C   0  0  0  0  0  0  0  0  0  0  0  0
  -29.1130  -14.6820   19.7230 C   0  0  0  0  0  0  0  0  0  0  0  0
  -30.2400  -16.3280   19.0300 N   0  0  0  0  0  0  0  0  0  0  0  0
  -30.3360  -15.0240   19.3580 N   0  0  0  0  0  0  0  0  0  0  0  0
  -28.8280  -13.2690   19.9620 C   0  0  0  0  0  0  0  0  0  0  0  0
  -29.7140  -12.4500   20.6940 C   0  0  0  0  0  3  0  0  0  0  0  0
  -29.4010  -11.0930   20.9210 C   0  0  0  0  0  3  0  0  0  0  0  0
  -28.1940  -10.5520   20.4180 C   0  0  0  0  0  0  0  0  0  0  0  0
  -27.3310  -11.3690   19.6680 C   0  0  0  0  0  3  0  0  0  0  0  0
  -27.6450  -12.7160   19.4370 C   0  0  0  0  0  3  0  0  0  0  0  0
  -27.8160   -9.2420   20.5700 O   0  0  0  0  0  0  0  0  0  0  0  0
  -28.4330   -8.4180   21.4770 C   0  0  0  0  0  0  0  0  0  0  0  0
  -28.6610   -8.8170   22.8120 C   0  0  0  0  0  3  0  0  0  0  0  0
  -29.2320   -7.9120   23.7280 C   0  0  0  0  0  3  0  0  0  0  0  0
  -29.5680   -6.6080   23.3150 C   0  0  0  0  0  0  0  0  0  0  0  0
  -29.3370   -6.2090   21.9860 C   0  0  0  0  0  3  0  0  0  0  0  0
  -28.7670   -7.1120   21.0710 C   0  0  0  0  0  0  0  0  0  0  0  0
  -28.5260   -6.7160   19.7980 F   0  0  0  0  0  0  0  0  0  0  0  0
  -30.1090   -5.7360   24.1960 F   0  0  0  0  0  0  0  0  0  0  0  0
  -26.7860  -15.8620   20.0330 C   0  0  0  0  0  0  0  0  0  0  0  0
  -26.3190  -14.9740   20.9010 N   0  0  0  0  0  0  0  0  0  0  0  0
  -26.0570  -16.7130   19.5270 O   0  0  0  0  0  0  0  0  0  0  0  0
  -26.9270  -14.2870   21.3230 H   0  0  0  0  0  0  0  0  0  0  0  0
  -25.3400  -14.9800   21.1520 H   0  0  0  0  0  0  0  0  0  0  0  0
  -28.7490  -18.2280   19.1020 N   0  0  0  0  0  0  0  0  0  0  0  0
  -27.8000  -18.5800   19.1700 H   0  0  0  0  0  0  0  0  0  0  0  0
  -29.3360  -18.8080   18.5180 H   0  0  0  0  0  0  0  0  0  0  0  0
  -21.7190  -27.0600   18.5210 C   0  0  0  0  0  2  0  0  0  0  0  0
  -22.8110  -25.8420   18.7120 C   0  0  0  0  0  2  0  0  0  0  0  0
  -23.9750  -25.9630   19.7060 N   0  0  0  0  0  4  0  0  0  0  0  0
  -23.6170  -25.7970   20.6350 H   0  0  0  0  0  0  0  0  0  0  0  0
  -24.2650  -26.9350   19.6810 H   0  0  0  0  0  0  0  0  0  0  0  0
  -25.2890  -25.1890   19.5330 C   0  0  0  0  0  2  0  0  0  0  0  0
  -26.5640  -25.6130   20.4610 C   0  0  0  0  0  2  0  0  0  0  0  0
  -27.5870  -26.6590   20.1260 O   0  0  0  0  0  0  0  0  0  0  0  0
  -24.5060  -32.1600   23.2790 C   0  0  0  0  0  0  0  0  0  0  0  0
  -26.9220  -27.8140   19.8970 C   0  0  0  0  0  0  0  0  0  0  0  0
  -23.2930  -30.8580   21.6060 C   0  0  0  0  0  3  0  0  0  0  0  0
  -24.6930  -29.4730   19.9740 C   0  0  0  0  0  0  0  0  0  0  0  0
  -25.8120  -31.1480   21.4200 C   0  0  0  0  0  2  0  0  0  0  0  0
  -25.8380  -29.8230   20.6970 C   0  0  0  0  0  0  0  0  0  0  0  0
  -26.9660  -28.9660   20.7120 C   0  0  0  0  0  3  0  0  0  0  0  0
  -25.9420  -27.7020   18.9180 C   0  0  0  0  0  3  0  0  0  0  0  0
  -24.7920  -28.4790   19.0000 C   0  0  0  0  0  3  0  0  0  0  0  0
  -23.4450  -30.3000   20.1650 C   0  0  0  0  0  2  0  0  0  0  0  0
  -24.5520  -31.4280   22.1360 N   0  0  0  0  0  0  0  0  0  0  0  0
  -23.4320  -32.4020   23.8500 O   0  0  0  0  0  0  0  0  0  0  0  0
  -22.8250  -29.7610   22.5600 C   0  0  0  0  0  0  0  0  0  0  0  0
  -21.5390  -29.6790   22.7880 N   0  0  0  0  0  0  0  0  0  0  0  0
  -23.6050  -28.9640   23.0810 O   0  0  0  0  0  0  0  0  0  0  0  0
  -20.9080  -30.3900   22.4450 H   0  0  0  0  0  0  0  0  0  0  0  0
  -17.9680  -27.8910   23.0870 C   0  0  0  0  0  0  0  0  0  0  0  0
  -21.0260  -28.4410   23.3230 C   0  0  0  0  0  2  0  0  0  0  0  0
  -21.6840  -26.9500   22.0150 C   0  0  0  0  0  1  0  0  0  0  0  0
  -19.9380  -25.6920   21.1510 C   0  0  0  0  0  2  0  0  0  0  0  0
  -18.0610  -26.3400   21.9490 C   0  0  0  0  0  1  0  0  0  0  0  0
  -19.2170  -28.7480   23.6550 C   0  0  0  0  0  0  0  0  0  0  0  0
  -18.9240  -30.0800   24.1240 C   0  0  0  0  0  3  0  0  0  0  0  0
  -17.6360  -30.6580   24.1400 C   0  0  0  0  0  3  0  0  0  0  0  0
  -16.5460  -29.9220   23.6590 C   0  0  0  0  0  3  0  0  0  0  0  0
  -16.7190  -28.6050   23.1470 C   0  0  0  0  0  3  0  0  0  0  0  0
  -25.8020  -32.7380   23.9020 C   0  0  0  0  0  3  0  0  0  0  0  0
  -26.2630  -31.9690   25.1990 C   0  0  1  0  0  0  0  0  0  0  0  0
  -25.1380  -31.7790   26.2420 C   0  0  0  0  0  1  0  0  0  0  0  0
  -26.8180  -30.5690   24.8490 C   0  0  0  0  0  1  0  0  0  0  0  0
  -27.4190  -32.7450   25.8690 C   0  0  0  0  0  1  0  0  0  0  0  0
  -25.5370  -34.1500   24.1900 N   0  0  0  0  0  0  0  0  0  0  0  0
  -25.8690  -35.1590   23.3750 C   0  0  0  0  0  0  0  0  0  0  0  0
  -26.5150  -34.9960   22.3360 O   0  0  0  0  0  0  0  0  0  0  0  0
  -24.9660  -34.3480   24.9980 H   0  0  0  0  0  0  0  0  0  0  0  0
  -24.1860  -36.9790   22.9610 C   0  0  0  0  0  1  0  0  0  0  0  0
  -25.4190  -36.5730   23.7840 C   0  0  0  0  0  3  0  0  0  0  0  0
  -27.5770  -37.4250   24.5840 C   0  0  0  0  0  1  0  0  0  0  0  0
  -26.4810  -37.5900   23.6340 N   0  0  0  0  0  0  0  0  0  0  0  0
  -26.1010  -38.5260   23.7480 H   0  0  0  0  0  0  0  0  0  0  0  0
  1  2  1  0
  2 77  1  0
  3  4  1  0
  3  5  1  0
  9  8  1  0
 10  9  1  0
 12 20  1  0
 13 18  1  0
 14 15  1  0
 14 13  1  0
 16 15  1  0
 16 25  1  0
 16 17  1  0
 18 12  1  0
 18 17  1  0
 19 12  2  0
 20 21  1  0
 20 11  1  0
 22 23  2  0
 23 42  1  0
 24 23  1  0
 24 27  1  0
 25 22  1  0
 25 26  1  0
 26 24  2  0
 27 28  1  0
 28 29  2  0
 30 33  1  0
 30 29  1  0
 31 30  2  0
 32 31  1  0
 32 27  2  0
 33 34  1  0
 34 35  1  0
 35 36  2  0
 37 36  1  0
 37 41  1  0
 38 37  2  0
 39 34  2  0
 39 38  1  0
 40 39  1  0
 42 43  1  0
 43 46  1  0
 43 45  1  0
 44 42  2  0
 47 48  1  0
 47 22  1  0
 49 47  1  0
 50 51  1  0
 50  1  1  0
 51 52  1  0
 52 53  1  0
 54 52  1  0
 55 52  1  0
 55 56  1  0
 57 56  1  0
 58 69  2  0
 59 57  1  0
 59 64  1  0
 60 68  1  0
 60 70  1  0
 61 67  1  0
 61 63  1  0
 62 68  1  0
 63 64  2  0
 63 62  1  0
 65 66  1  0
 65 59  2  0
 66 61  2  0
 67 60  1  0
 68 58  1  0
 70 71  1  0
 70 72  2  0
 71 75  1  0
 73 71  1  0
 74 83  2  0
 74 79  1  0
 75 79  1  0
 76  3  1  0
 77  3  1  0
 78 74  1  0
 79 80  2  0
 80 81  1  0
 82 81  2  0
 83 82  1  0
 84 58  1  0
 84 89  1  0
 84 85  1  0
 85 88  1  1
 85 86  1  0
 87 85  1  0
 89 92  1  0
 90 94  1  0
 90 89  1  0
 91 90  2  0
 94 93  1  0
 96 97  1  0
 96 94  1  0
 96 95  1  0
M  ISO  4  12 100  20 100  56 101  57 101
M  END
>  <TORSDO>  (24) 
F 29

>  <SCORE>  (24) 
-9.462

>  <name>  (24) 
24

>  <ligand_id>  (24) 
24

>  <original_smiles>  (24) 
[H]c1c([H])c([H])c2c(c1[H])C([H])([H])C([H])([H])C([H])([H])C2([H])N([H])C(=O)C1([H])N(C(=O)C([H])(N([H])C(=O)C([H])(N([H])C([H])([H])[H])C([H])([H])[H])C(C([H])([H])[H])(C([H])([H])[H])C([H])([H])[H])C([H])([H])c2c([H])c(OC([H])([H])C([H])([H])[N+]([H])([H])C([H])([H])C([H])([H])C([H])([H])C([H])([H])[N+]([H])([H])C([H])([H])C([H])([H])C([H])([H])OC([H])([H])C([H])([H])N([H])C(=O)N3C([H])([H])C([H])([H])C([H])([H])C([H])(n4nc(-c5c([H])c([H])c(Oc6c([H])c([H])c(F)c([H])c6F)c([H])c5[H])c(C(=O)N([H])[H])c4N([H])[H])C3([H])[H])c([H])c([H])c2C1([H])[H]

>  <smiles>  (24) 
[H]c1c([H])c([H])c2c(c1[H])C([H])([H])C([H])([H])C([H])([H])C2([H])N([H])C(=O)C1([H])N(C(=O)C([H])(N([H])C(=O)C([H])(N([H])C([H])([H])[H])C([H])([H])[H])C(C([H])([H])[H])(C([H])([H])[H])C([H])([H])[H])C([H])([H])c2c([H])c(OC([H])([H])C([H])([H])[N+]([H])([H])C([H])([H])C([H])([H])C([H])([H])C([H])([H])[N+]([H])([H])C([H])([H])C([H])([H])C([H])([H])OC([H])([H])C([H])([H])N([H])C(=O)N3C([H])([H])C([H])([H])C([H])([H])C([H])(n4nc(-c5c([H])c([H])c(Oc6c([H])c([H])c(F)c([H])c6F)c([H])c5[H])c(C(=O)N([H])[H])c4N([H])[H])C3([H])[H])c([H])c([H])c2C1([H])[H]

$$$$
25:0:0
     RDKit          3D

113120  0  0  1  0  0  0  0  0999 V2000
  -24.5680  -19.7180   25.6340 C   0  0  0  0  0  2  0  0  0  0  0  0
  -23.3510  -19.9930   24.7550 C   0  0  0  0  0  0  0  0  0  0  0  0
  -22.3250  -19.3380   24.9420 O   0  0  0  0  0  0  0  0  0  0  0  0
  -22.6510  -21.6710   23.2650 C   0  0  0  0  0  0  0  0  0  0  0  0
  -21.1740  -21.6230   23.6950 C   0  0  0  0  0  1  0  0  0  0  0  0
  -23.5930  -20.9820   23.8130 N   0  0  0  0  0  0  0  0  0  0  0  0
  -22.9340  -22.6340   22.1090 C   0  0  0  0  0  0  0  0  0  0  0  0
  -22.0330  -23.3110   21.5990 O   0  0  0  0  0  0  0  0  0  0  0  0
  -24.3180  -22.7190   21.6030 C   0  0  0  0  0  3  0  0  0  0  0  0
  -24.6090  -23.3680   20.4590 C   0  0  0  0  0  3  0  0  0  0  0  0
  -25.9670  -23.4270   19.9720 C   0  0  0  0  0  0  0  0  0  0  0  0
  -26.7810  -24.0870   20.8040 N   0  0  0  0  0  0  0  0  0  0  0  0
  -26.3430  -22.9490   18.9020 O   0  0  0  0  0  0  0  0  0  0  0  0
  -26.3780  -24.4500   21.6570 H   0  0  0  0  0  0  0  0  0  0  0  0
  -28.1940  -24.3710   20.5630 C   0  0  0  0  0  2  0  0  0  0  0  0
  -28.5930  -25.7850   21.0310 C   0  0  0  0  0  2  0  0  0  0  0  0
  -28.4040  -26.7610   20.0110 O   0  0  0  0  0  0  0  0  0  0  0  0
  -24.6110  -31.8720   23.2120 C   0  0  0  0  0  0  0  0  0  0  0  0
  -27.2330  -27.4700   20.0830 C   0  0  0  0  0  0  0  0  0  0  0  0
  -23.3980  -30.4950   21.5540 C   0  0  0  0  0  3  0  0  0  0  0  0
  -24.8430  -28.9590   20.1190 C   0  0  0  0  0  0  0  0  0  0  0  0
  -25.9220  -30.8440   21.3620 C   0  0  0  0  0  2  0  0  0  0  0  0
  -25.9980  -29.4760   20.7190 C   0  0  0  0  0  0  0  0  0  0  0  0
  -27.1960  -28.7320   20.7110 C   0  0  0  0  0  3  0  0  0  0  0  0
  -26.0730  -26.9690   19.4630 C   0  0  0  0  0  3  0  0  0  0  0  0
  -24.8710  -27.6980   19.4960 C   0  0  0  0  0  3  0  0  0  0  0  0
  -23.6020  -29.8220   20.1700 C   0  0  0  0  0  2  0  0  0  0  0  0
  -24.6630  -31.0850   22.1010 N   0  0  0  0  0  0  0  0  0  0  0  0
  -23.5320  -32.1470   23.7540 O   0  0  0  0  0  0  0  0  0  0  0  0
  -22.7410  -29.4700   22.5050 C   0  0  0  0  0  0  0  0  0  0  0  0
  -21.4150  -29.3060   22.3810 N   0  0  0  0  0  0  0  0  0  0  0  0
  -23.4220  -28.8240   23.3060 O   0  0  0  0  0  0  0  0  0  0  0  0
  -20.9290  -29.8810   21.7060 H   0  0  0  0  0  0  0  0  0  0  0  0
  -18.0320  -28.1360   22.8500 C   0  0  0  0  0  0  0  0  0  0  0  0
  -20.5910  -28.3670   23.1380 C   0  0  0  0  0  3  0  0  0  0  0  0
  -20.6870  -26.9420   22.5460 C   0  0  0  0  0  2  0  0  0  0  0  0
  -19.5870  -26.6400   21.5250 C   0  0  0  0  0  2  0  0  0  0  0  0
  -18.2020  -26.7910   22.1630 C   0  0  0  0  0  2  0  0  0  0  0  0
  -19.1560  -28.8820   23.2940 C   0  0  0  0  0  0  0  0  0  0  0  0
  -18.9480  -30.1430   23.8940 C   0  0  0  0  0  3  0  0  0  0  0  0
  -17.6490  -30.6580   24.0570 C   0  0  0  0  0  3  0  0  0  0  0  0
  -16.5390  -29.9080   23.6320 C   0  0  0  0  0  3  0  0  0  0  0  0
  -16.7310  -28.6490   23.0360 C   0  0  0  0  0  3  0  0  0  0  0  0
  -25.9020  -32.4860   23.8410 C   0  0  0  0  0  3  0  0  0  0  0  0
  -25.5900  -33.8660   24.2360 N   0  0  0  0  0  0  0  0  0  0  0  0
  -25.9020  -34.9500   23.5150 C   0  0  0  0  0  0  0  0  0  0  0  0
  -26.5580  -34.8940   22.4710 O   0  0  0  0  0  0  0  0  0  0  0  0
  -25.0070  -33.9820   25.0530 H   0  0  0  0  0  0  0  0  0  0  0  0
  -24.1500  -36.7330   23.2640 C   0  0  0  0  0  1  0  0  0  0  0  0
  -25.4110  -36.3140   24.0350 C   0  0  0  0  0  3  0  0  0  0  0  0
  -27.5590  -37.1820   24.8460 C   0  0  0  0  0  1  0  0  0  0  0  0
  -26.4300  -37.3810   23.9400 N   0  0  0  0  0  0  0  0  0  0  0  0
  -26.0220  -38.2910   24.1360 H   0  0  0  0  0  0  0  0  0  0  0  0
  -26.4450  -31.6610   25.0720 C   0  0  1  0  0  0  0  0  0  0  0  0
  -25.3720  -31.3710   26.1480 C   0  0  0  0  0  1  0  0  0  0  0  0
  -27.0280  -30.3080   24.6060 C   0  0  0  0  0  1  0  0  0  0  0  0
  -27.6050  -32.4310   25.7470 C   0  0  0  0  0  1  0  0  0  0  0  0
  -25.5060  -18.6550   25.0250 C   0  0  0  0  0  2  0  0  0  0  0  0
  -26.6370  -18.2600   25.9770 C   0  0  0  0  0  0  0  0  0  0  0  0
  -27.3860  -17.2030   25.6350 N   0  0  0  0  0  0  0  0  0  0  0  0
  -26.8290  -18.8850   27.0210 O   0  0  0  0  0  0  0  0  0  0  0  0
  -27.1600  -16.7290   24.7700 H   0  0  0  0  0  0  0  0  0  0  0  0
  -28.3840  -16.5840   26.5120 C   0  0  0  0  0  2  0  0  0  0  0  0
  -29.6980  -17.3910   26.6040 C   0  0  0  0  0  2  0  0  0  0  0  0
  -30.4610  -17.3240   25.3430 N   0  0  0  0  0  4  0  0  0  0  0  0
  -29.8670  -17.6060   24.5790 H   0  0  0  0  0  0  0  0  0  0  0  0
  -30.7330  -16.3640   25.1950 H   0  0  0  0  0  0  0  0  0  0  0  0
  -31.7210  -18.0970   25.3270 C   0  0  0  0  0  2  0  0  0  0  0  0
  -32.6800  -17.4930   24.3000 C   0  0  0  0  0  2  0  0  0  0  0  0
  -32.8670  -16.1290   24.6630 O   0  0  0  0  0  0  0  0  0  0  0  0
  -33.7830  -15.4530   23.8100 C   0  0  0  0  0  2  0  0  0  0  0  0
  -34.0500  -14.0340   24.3400 C   0  0  0  0  0  2  0  0  0  0  0  0
  -32.8670  -13.2540   24.4920 O   0  0  0  0  0  0  0  0  0  0  0  0
  -32.1790  -12.9350   23.2910 C   0  0  0  0  0  2  0  0  0  0  0  0
  -30.8780  -13.7600   23.2090 C   0  0  0  0  0  2  0  0  0  0  0  0
  -30.8610  -14.2370   20.7700 C   0  0  0  0  0  0  0  0  0  0  0  0
  -30.4090  -12.2750   19.3640 C   0  0  0  0  0  2  0  0  0  0  0  0
  -29.4740  -12.5420   18.1750 C   0  0  0  0  0  2  0  0  0  0  0  0
  -28.0050  -12.3770   18.5990 C   0  0  0  0  0  2  0  0  0  0  0  0
  -27.6650  -13.2050   19.8610 C   0  0  0  0  0  3  0  0  0  0  0  0
  -28.7010  -12.9720   20.9800 C   0  0  0  0  0  2  0  0  0  0  0  0
  -30.0670  -13.1850   20.4620 N   0  0  0  0  0  0  0  0  0  0  0  0
  -31.6970  -14.7220   20.0060 O   0  0  0  0  0  0  0  0  0  0  0  0
  -30.8280  -14.6500   22.0430 N   0  0  0  0  0  0  0  0  0  0  0  0
  -31.3080  -15.5250   22.1710 H   0  0  0  0  0  0  0  0  0  0  0  0
  -25.2610  -13.8170   20.5660 C   0  0  0  0  0  0  0  0  0  0  0  0
  -24.1850  -13.0440   20.9150 C   0  0  0  0  0  0  0  0  0  0  0  0
  -24.6390  -11.6920   20.8710 C   0  0  0  0  0  0  0  0  0  0  0  0
  -26.3040  -12.9340   20.3280 N   0  0  0  0  0  0  0  0  0  0  0  0
  -25.9310  -11.6500   20.5700 N   0  0  0  0  0  0  0  0  0  0  0  0
  -23.9050  -10.4300   21.0390 C   0  0  0  0  0  0  0  0  0  0  0  0
  -24.3600   -9.4230   21.9170 C   0  0  0  0  0  3  0  0  0  0  0  0
  -23.6280   -8.2260   22.0750 C   0  0  0  0  0  3  0  0  0  0  0  0
  -22.4270   -8.0280   21.3550 C   0  0  0  0  0  0  0  0  0  0  0  0
  -21.9890   -9.0250   20.4650 C   0  0  0  0  0  3  0  0  0  0  0  0
  -22.7210  -10.2140   20.3050 C   0  0  0  0  0  3  0  0  0  0  0  0
  -21.6640   -6.8870   21.4240 O   0  0  0  0  0  0  0  0  0  0  0  0
  -21.6840   -6.0730   22.5280 C   0  0  0  0  0  0  0  0  0  0  0  0
  -21.4010   -6.5640   23.8210 C   0  0  0  0  0  3  0  0  0  0  0  0
  -21.3660   -5.6790   24.9180 C   0  0  0  0  0  3  0  0  0  0  0  0
  -21.6040   -4.3050   24.7230 C   0  0  0  0  0  0  0  0  0  0  0  0
  -21.8820   -3.8140   23.4350 C   0  0  0  0  0  3  0  0  0  0  0  0
  -21.9190   -4.6960   22.3410 C   0  0  0  0  0  0  0  0  0  0  0  0
  -22.1660   -4.2140   21.0980 F   0  0  0  0  0  0  0  0  0  0  0  0
  -21.5640   -3.4540   25.7740 F   0  0  0  0  0  0  0  0  0  0  0  0
  -22.7870  -13.5270   21.1820 C   0  0  0  0  0  0  0  0  0  0  0  0
  -22.0490  -12.8260   22.0370 N   0  0  0  0  0  0  0  0  0  0  0  0
  -22.3560  -14.5560   20.6670 O   0  0  0  0  0  0  0  0  0  0  0  0
  -22.4070  -11.9910   22.4780 H   0  0  0  0  0  0  0  0  0  0  0  0
  -21.1110  -13.1300   22.2560 H   0  0  0  0  0  0  0  0  0  0  0  0
  -25.4330  -15.1890   20.4100 N   0  0  0  0  0  0  0  0  0  0  0  0
  -24.6690  -15.8470   20.5210 H   0  0  0  0  0  0  0  0  0  0  0  0
  -26.2930  -15.6280   20.1050 H   0  0  0  0  0  0  0  0  0  0  0  0
  2  3  2  0
  2  1  1  0
  4  5  1  0
  4  6  2  0
  6  2  1  0
  7  4  1  0
  8  7  2  0
  9  7  1  0
 10  9  2  0
 11 10  1  0
 11 12  1  0
 12 14  1  0
 13 11  2  0
 15 12  1  0
 15 16  1  0
 17 19  1  0
 17 16  1  0
 18 29  2  0
 19 24  1  0
 20 28  1  0
 20 30  1  0
 21 27  1  0
 21 23  1  0
 22 28  1  0
 23 22  1  0
 24 23  2  0
 25 26  1  0
 25 19  2  0
 26 21  2  0
 27 20  1  0
 28 18  1  0
 30 32  2  0
 31 30  1  0
 33 31  1  0
 34 43  2  0
 34 39  1  0
 35 31  1  0
 35 39  1  0
 36 35  1  0
 37 38  1  0
 37 36  1  0
 38 34  1  0
 39 40  2  0
 40 41  1  0
 42 41  2  0
 43 42  1  0
 44 18  1  0
 44 45  1  0
 44 54  1  0
 45 48  1  0
 46 50  1  0
 46 45  1  0
 47 46  2  0
 50 49  1  0
 52 50  1  0
 52 53  1  0
 52 51  1  0
 54 57  1  1
 54 55  1  0
 56 54  1  0
 58  1  1  0
 58 59  1  0
 59 61  2  0
 60 59  1  0
 60 63  1  0
 62 60  1  0
 63 64  1  0
 65 64  1  0
 66 65  1  0
 67 65  1  0
 68 65  1  0
 69 70  1  0
 69 68  1  0
 71 72  1  0
 71 70  1  0
 72 73  1  0
 74 73  1  0
 75 74  1  0
 76 84  1  0
 77 82  1  0
 78 79  1  0
 78 77  1  0
 80 79  1  0
 80 89  1  0
 80 81  1  0
 82 76  1  0
 82 81  1  0
 83 76  2  0
 84 85  1  0
 84 75  1  0
 86 87  2  0
 87106  1  0
 88 87  1  0
 88 91  1  0
 89 86  1  0
 89 90  1  0
 90 88  2  0
 91 92  1  0
 92 93  2  0
 94 97  1  0
 94 93  1  0
 95 94  2  0
 96 95  1  0
 96 91  2  0
 97 98  1  0
 98 99  1  0
 99100  2  0
101100  1  0
101105  1  0
102101  2  0
103 98  2  0
103102  1  0
104103  1  0
106107  1  0
107110  1  0
107109  1  0
108106  2  0
111112  1  0
111 86  1  0
113111  1  0
M  ISO  4  16 101  17 101  76 100  84 100
M  END
>  <TORSDO>  (25) 
F 36

>  <SCORE>  (25) 
67.026

>  <name>  (25) 
25

>  <ligand_id>  (25) 
25

>  <original_smiles>  (25) 
[H]C(C(=O)C(=NC(=O)C([H])([H])C([H])([H])C(=O)N([H])C([H])([H])C([H])([H])[N+]([H])([H])C([H])([H])C([H])([H])OC([H])([H])C([H])([H])OC([H])([H])C([H])([H])N([H])C(=O)N1C([H])([H])C([H])([H])C([H])([H])C([H])(n2nc(-c3c([H])c([H])c(Oc4c([H])c([H])c(F)c([H])c4F)c([H])c3[H])c(C(=O)N([H])[H])c2N([H])[H])C1([H])[H])C([H])([H])[H])=C([H])C(=O)N([H])C([H])([H])C([H])([H])Oc1c([H])c([H])c2c(c1[H])C([H])([H])N(C(=O)C([H])(N([H])C(=O)C([H])(N([H])C([H])([H])[H])C([H])([H])[H])C(C([H])([H])[H])(C([H])([H])[H])C([H])([H])[H])C([H])(C(=O)N([H])C1([H])c3c([H])c([H])c([H])c([H])c3C([H])([H])C([H])([H])C1([H])[H])C2([H])[H]

>  <smiles>  (25) 
[H]C(C(=O)C(=NC(=O)C([H])([H])C([H])([H])C(=O)N([H])C([H])([H])C([H])([H])[N+]([H])([H])C([H])([H])C([H])([H])OC([H])([H])C([H])([H])OC([H])([H])C([H])([H])N([H])C(=O)N1C([H])([H])C([H])([H])C([H])([H])C([H])(n2nc(-c3c([H])c([H])c(Oc4c([H])c([H])c(F)c([H])c4F)c([H])c3[H])c(C(=O)N([H])[H])c2N([H])[H])C1([H])[H])C([H])([H])[H])=C([H])C(=O)N([H])C([H])([H])C([H])([H])Oc1c([H])c([H])c2c(c1[H])C([H])([H])N(C(=O)C([H])(N([H])C(=O)C([H])(N([H])C([H])([H])[H])C([H])([H])[H])C(C([H])([H])[H])(C([H])([H])[H])C([H])([H])[H])C([H])(C(=O)N([H])C1([H])c3c([H])c([H])c([H])c([H])c3C([H])([H])C([H])([H])C1([H])[H])C2([H])[H]

$$$$
26:0:0
     RDKit          3D

 93100  0  0  1  0  0  0  0  0999 V2000
  -26.2720  -21.5610   19.5510 C   0  0  0  0  0  2  0  0  0  0  0  0
  -27.2470  -21.0080   20.5150 N   0  0  0  0  0  4  0  0  0  0  0  0
  -26.7590  -20.4600   21.2040 H   0  0  0  0  0  0  0  0  0  0  0  0
  -27.6060  -21.8420   20.9690 H   0  0  0  0  0  0  0  0  0  0  0  0
  -28.3730  -20.2150   19.9580 C   0  0  0  0  0  2  0  0  0  0  0  0
  -28.0000  -18.7260   19.8350 C   0  0  0  0  0  2  0  0  0  0  0  0
  -29.1240  -17.8610   19.6790 O   0  0  0  0  0  0  0  0  0  0  0  0
  -29.9940  -17.7440   20.8090 C   0  0  0  0  0  2  0  0  0  0  0  0
  -30.1770  -16.2500   21.1540 C   0  0  0  0  0  2  0  0  0  0  0  0
  -31.2140  -14.4120   19.8140 C   0  0  0  0  0  0  0  0  0  0  0  0
  -30.8510  -12.1390   18.9440 C   0  0  0  0  0  2  0  0  0  0  0  0
  -29.8380  -12.2080   17.7810 C   0  0  0  0  0  2  0  0  0  0  0  0
  -28.3860  -12.1580   18.3030 C   0  0  0  0  0  2  0  0  0  0  0  0
  -28.1330  -13.1490   19.4730 C   0  0  0  0  0  3  0  0  0  0  0  0
  -29.2460  -13.0200   20.5380 C   0  0  0  0  0  2  0  0  0  0  0  0
  -30.5370  -13.2370   19.8680 N   0  0  0  0  0  0  0  0  0  0  0  0
  -32.3280  -14.5330   19.3010 O   0  0  0  0  0  0  0  0  0  0  0  0
  -30.4400  -15.4970   19.9260 N   0  0  0  0  0  0  0  0  0  0  0  0
  -30.5980  -16.1480   19.1700 H   0  0  0  0  0  0  0  0  0  0  0  0
  -25.8580  -13.9190   20.4050 C   0  0  0  0  0  0  0  0  0  0  0  0
  -24.7590  -13.2190   20.8210 C   0  0  0  0  0  0  0  0  0  0  0  0
  -25.0970  -11.8380   20.6830 C   0  0  0  0  0  0  0  0  0  0  0  0
  -26.8030  -12.9690   20.0490 N   0  0  0  0  0  0  0  0  0  0  0  0
  -26.3510  -11.7090   20.2700 N   0  0  0  0  0  0  0  0  0  0  0  0
  -24.2830  -10.6310   20.8690 C   0  0  0  0  0  0  0  0  0  0  0  0
  -24.6630   -9.6180   21.7780 C   0  0  0  0  0  3  0  0  0  0  0  0
  -23.8550   -8.4760   21.9570 C   0  0  0  0  0  3  0  0  0  0  0  0
  -22.6520   -8.3370   21.2250 C   0  0  0  0  0  0  0  0  0  0  0  0
  -22.2910   -9.3370   20.3060 C   0  0  0  0  0  3  0  0  0  0  0  0
  -23.0980  -10.4710   20.1260 C   0  0  0  0  0  3  0  0  0  0  0  0
  -21.8200   -7.2460   21.3070 O   0  0  0  0  0  0  0  0  0  0  0  0
  -21.6650   -6.5470   22.4750 C   0  0  0  0  0  0  0  0  0  0  0  0
  -21.2210   -7.1680   23.6620 C   0  0  0  0  0  3  0  0  0  0  0  0
  -21.0090   -6.3970   24.8230 C   0  0  0  0  0  3  0  0  0  0  0  0
  -21.2360   -5.0070   24.7950 C   0  0  0  0  0  0  0  0  0  0  0  0
  -21.6760   -4.3880   23.6140 C   0  0  0  0  0  3  0  0  0  0  0  0
  -21.8860   -5.1550   22.4540 C   0  0  0  0  0  0  0  0  0  0  0  0
  -22.2880   -4.5490   21.3120 F   0  0  0  0  0  0  0  0  0  0  0  0
  -21.0260   -4.2660   25.9090 F   0  0  0  0  0  0  0  0  0  0  0  0
  -23.4320  -13.7910   21.2330 C   0  0  0  0  0  0  0  0  0  0  0  0
  -22.7300  -13.1220   22.1410 N   0  0  0  0  0  0  0  0  0  0  0  0
  -23.0330  -14.8650   20.7840 O   0  0  0  0  0  0  0  0  0  0  0  0
  -23.0680  -12.2500   22.5190 H   0  0  0  0  0  0  0  0  0  0  0  0
  -21.8470  -13.4930   22.4610 H   0  0  0  0  0  0  0  0  0  0  0  0
  -26.1290  -15.2810   20.2810 N   0  0  0  0  0  0  0  0  0  0  0  0
  -25.4260  -15.9840   20.4800 H   0  0  0  0  0  0  0  0  0  0  0  0
  -26.9900  -15.6600   19.9090 H   0  0  0  0  0  0  0  0  0  0  0  0
  -26.8430  -22.8430   18.9280 C   0  0  0  0  0  2  0  0  0  0  0  0
  -27.2500  -23.7490   19.9980 N   0  0  0  0  0  0  0  0  0  0  0  0
  -26.4800  -24.3770   20.2190 H   0  0  0  0  0  0  0  0  0  0  0  0
  -28.3940  -24.5370   19.5540 C   0  0  0  0  0  2  0  0  0  0  0  0
  -28.6410  -25.7230   20.4970 C   0  0  0  0  0  2  0  0  0  0  0  0
  -28.5330  -26.9460   19.7850 O   0  0  0  0  0  0  0  0  0  0  0  0
  -24.6790  -31.7790   23.2760 C   0  0  0  0  0  0  0  0  0  0  0  0
  -27.3290  -27.5950   19.8870 C   0  0  0  0  0  0  0  0  0  0  0  0
  -23.4650  -30.4760   21.5610 C   0  0  0  0  0  3  0  0  0  0  0  0
  -24.9130  -29.0360   20.0320 C   0  0  0  0  0  0  0  0  0  0  0  0
  -25.9800  -30.8710   21.3570 C   0  0  0  0  0  2  0  0  0  0  0  0
  -26.0690  -29.5430   20.6390 C   0  0  0  0  0  0  0  0  0  0  0  0
  -27.2820  -28.8300   20.5640 C   0  0  0  0  0  3  0  0  0  0  0  0
  -26.1610  -27.0840   19.2830 C   0  0  0  0  0  3  0  0  0  0  0  0
  -24.9500  -27.8010   19.3560 C   0  0  0  0  0  3  0  0  0  0  0  0
  -23.6630  -29.8790   20.1410 C   0  0  0  0  0  2  0  0  0  0  0  0
  -24.7270  -31.0520   22.1260 N   0  0  0  0  0  0  0  0  0  0  0  0
  -23.6020  -32.0120   23.8450 O   0  0  0  0  0  0  0  0  0  0  0  0
  -22.8310  -29.3940   22.4630 C   0  0  0  0  0  0  0  0  0  0  0  0
  -21.5070  -29.2150   22.3340 N   0  0  0  0  0  0  0  0  0  0  0  0
  -23.5250  -28.7190   23.2280 O   0  0  0  0  0  0  0  0  0  0  0  0
  -21.0100  -29.8120   21.6860 H   0  0  0  0  0  0  0  0  0  0  0  0
  -18.1440  -27.9710   22.7690 C   0  0  0  0  0  0  0  0  0  0  0  0
  -20.7000  -28.2240   23.0440 C   0  0  0  0  0  3  0  0  0  0  0  0
  -20.8110  -26.8350   22.3760 C   0  0  0  0  0  2  0  0  0  0  0  0
  -19.7000  -26.5630   21.3530 C   0  0  0  0  0  2  0  0  0  0  0  0
  -18.3270  -26.6600   22.0230 C   0  0  0  0  0  2  0  0  0  0  0  0
  -19.2600  -28.7110   23.2380 C   0  0  0  0  0  0  0  0  0  0  0  0
  -19.0410  -29.9360   23.9060 C   0  0  0  0  0  3  0  0  0  0  0  0
  -17.7350  -30.4190   24.1040 C   0  0  0  0  0  3  0  0  0  0  0  0
  -16.6310  -29.6720   23.6540 C   0  0  0  0  0  3  0  0  0  0  0  0
  -16.8360  -28.4490   22.9920 C   0  0  0  0  0  3  0  0  0  0  0  0
  -25.9690  -32.3740   23.9230 C   0  0  0  0  0  3  0  0  0  0  0  0
  -26.4820  -31.5500   25.1670 C   0  0  1  0  0  0  0  0  0  0  0  0
  -25.3870  -31.2770   26.2250 C   0  0  0  0  0  1  0  0  0  0  0  0
  -27.0530  -30.1860   24.7160 C   0  0  0  0  0  1  0  0  0  0  0  0
  -27.6420  -32.3060   25.8590 C   0  0  0  0  0  1  0  0  0  0  0  0
  -25.6760  -33.7610   24.3060 N   0  0  0  0  0  0  0  0  0  0  0  0
  -26.0190  -34.8350   23.5830 C   0  0  0  0  0  0  0  0  0  0  0  0
  -26.6900  -34.7630   22.5480 O   0  0  0  0  0  0  0  0  0  0  0  0
  -25.0840  -33.8930   25.1140 H   0  0  0  0  0  0  0  0  0  0  0  0
  -24.3150  -36.6580   23.2770 C   0  0  0  0  0  1  0  0  0  0  0  0
  -25.5420  -36.2100   24.0870 C   0  0  0  0  0  3  0  0  0  0  0  0
  -27.6750  -37.0440   24.9750 C   0  0  0  0  0  1  0  0  0  0  0  0
  -26.5870  -37.2550   24.0230 N   0  0  0  0  0  0  0  0  0  0  0  0
  -26.1900  -38.1750   24.1960 H   0  0  0  0  0  0  0  0  0  0  0  0
  1  2  1  0
  2  4  1  0
  2  3  1  0
  5  2  1  0
  6  5  1  0
  7  6  1  0
  7  8  1  0
  8  9  1  0
 10 16  1  0
 10 18  1  0
 11 16  1  0
 12 13  1  0
 12 11  1  0
 14 13  1  0
 14 23  1  0
 14 15  1  0
 16 15  1  0
 17 10  2  0
 18  9  1  0
 19 18  1  0
 20 21  2  0
 21 40  1  0
 22 21  1  0
 22 25  1  0
 23 24  1  0
 23 20  1  0
 24 22  2  0
 25 26  1  0
 26 27  2  0
 28 31  1  0
 28 27  1  0
 29 28  2  0
 30 29  1  0
 30 25  2  0
 31 32  1  0
 32 33  1  0
 33 34  2  0
 35 34  1  0
 35 39  1  0
 36 35  2  0
 37 32  2  0
 37 36  1  0
 38 37  1  0
 40 41  1  0
 41 44  1  0
 41 43  1  0
 42 40  2  0
 45 20  1  0
 45 46  1  0
 47 45  1  0
 48  1  1  0
 48 49  1  0
 49 50  1  0
 51 49  1  0
 51 52  1  0
 53 55  1  0
 53 52  1  0
 54 65  2  0
 55 60  1  0
 56 64  1  0
 56 66  1  0
 57 63  1  0
 57 59  1  0
 58 64  1  0
 59 58  1  0
 60 59  2  0
 61 62  1  0
 61 55  2  0
 62 57  2  0
 63 56  1  0
 64 54  1  0
 66 68  2  0
 67 66  1  0
 69 67  1  0
 70 79  2  0
 70 75  1  0
 71 67  1  0
 71 75  1  0
 72 71  1  0
 73 74  1  0
 73 72  1  0
 74 70  1  0
 75 76  2  0
 76 77  1  0
 78 77  2  0
 79 78  1  0
 80 54  1  0
 80 85  1  0
 80 81  1  0
 81 84  1  1
 81 82  1  0
 83 81  1  0
 85 88  1  0
 86 90  1  0
 86 85  1  0
 87 86  2  0
 90 89  1  0
 92 90  1  0
 92 93  1  0
 92 91  1  0
M  ISO  4  10 100  18 100  52 101  53 101
M  END
>  <TORSDO>  (26) 
F 26

>  <SCORE>  (26) 
-10.878

>  <name>  (26) 
26

>  <ligand_id>  (26) 
26

>  <original_smiles>  (26) 
[H]c1c([H])c([H])c2c(c1[H])C([H])([H])C([H])([H])C([H])([H])C2([H])N([H])C(=O)C1([H])N(C(=O)C([H])(N([H])C(=O)C([H])(N([H])C([H])([H])[H])C([H])([H])[H])C(C([H])([H])[H])(C([H])([H])[H])C([H])([H])[H])C([H])([H])c2c([H])c(OC([H])([H])C([H])([H])N([H])C([H])([H])C([H])([H])[N+]([H])([H])C([H])([H])C([H])([H])OC([H])([H])C([H])([H])N([H])C(=O)N3C([H])([H])C([H])([H])C([H])([H])C([H])(n4nc(-c5c([H])c([H])c(Oc6c([H])c([H])c(F)c([H])c6F)c([H])c5[H])c(C(=O)N([H])[H])c4N([H])[H])C3([H])[H])c([H])c([H])c2C1([H])[H]

>  <smiles>  (26) 
[H]c1c([H])c([H])c2c(c1[H])C([H])([H])C([H])([H])C([H])([H])C2([H])N([H])C(=O)C1([H])N(C(=O)C([H])(N([H])C(=O)C([H])(N([H])C([H])([H])[H])C([H])([H])[H])C(C([H])([H])[H])(C([H])([H])[H])C([H])([H])[H])C([H])([H])c2c([H])c(OC([H])([H])C([H])([H])N([H])C([H])([H])C([H])([H])[N+]([H])([H])C([H])([H])C([H])([H])OC([H])([H])C([H])([H])N([H])C(=O)N3C([H])([H])C([H])([H])C([H])([H])C([H])(n4nc(-c5c([H])c([H])c(Oc6c([H])c([H])c(F)c([H])c6F)c([H])c5[H])c(C(=O)N([H])[H])c4N([H])[H])C3([H])[H])c([H])c([H])c2C1([H])[H]

$$$$
27:0:0
     RDKit          3D

101108  0  0  1  0  0  0  0  0999 V2000
  -23.1060  -21.4390   19.2860 C   0  0  0  0  0  2  0  0  0  0  0  0
  -23.7180  -22.3890   20.2350 N   0  0  0  0  0  4  0  0  0  0  0  0
  -24.6430  -22.0550   20.4710 H   0  0  0  0  0  0  0  0  0  0  0  0
  -23.1710  -22.4060   21.0810 H   0  0  0  0  0  0  0  0  0  0  0  0
  -23.8090  -23.7630   19.6950 C   0  0  0  0  0  2  0  0  0  0  0  0
  -24.7390  -24.6580   20.5150 C   0  0  0  0  0  2  0  0  0  0  0  0
  -26.0370  -24.0720   20.5740 O   0  0  0  0  0  0  0  0  0  0  0  0
  -26.9810  -24.8970   21.2500 C   0  0  0  0  0  2  0  0  0  0  0  0
  -28.2290  -25.1270   20.3790 C   0  0  0  0  0  2  0  0  0  0  0  0
  -29.0820  -26.3230   20.8500 C   0  0  0  0  0  2  0  0  0  0  0  0
  -28.8770  -27.4770   20.0410 O   0  0  0  0  0  0  0  0  0  0  0  0
  -25.3210  -31.8640   24.3960 C   0  0  0  0  0  0  0  0  0  0  0  0
  -27.7460  -28.2060   20.2960 C   0  0  0  0  0  0  0  0  0  0  0  0
  -24.0610  -31.0130   22.4450 C   0  0  0  0  0  3  0  0  0  0  0  0
  -25.4420  -29.7860   20.6890 C   0  0  0  0  0  0  0  0  0  0  0  0
  -26.6070  -31.2310   22.3630 C   0  0  0  0  0  2  0  0  0  0  0  0
  -26.6160  -30.0650   21.4010 C   0  0  0  0  0  0  0  0  0  0  0  0
  -27.7700  -29.2760   21.2120 C   0  0  0  0  0  3  0  0  0  0  0  0
  -26.5660  -27.9470   19.5680 C   0  0  0  0  0  3  0  0  0  0  0  0
  -25.4060  -28.7180   19.7770 C   0  0  0  0  0  3  0  0  0  0  0  0
  -24.2570  -30.6890   20.9400 C   0  0  0  0  0  2  0  0  0  0  0  0
  -25.3470  -31.3680   23.1270 N   0  0  0  0  0  0  0  0  0  0  0  0
  -24.2480  -32.0650   24.9820 O   0  0  0  0  0  0  0  0  0  0  0  0
  -23.3210  -29.8300   23.1100 C   0  0  0  0  0  0  0  0  0  0  0  0
  -22.0160  -29.7030   22.8200 N   0  0  0  0  0  0  0  0  0  0  0  0
  -23.9210  -29.0380   23.8420 O   0  0  0  0  0  0  0  0  0  0  0  0
  -21.5960  -30.3950   22.2150 H   0  0  0  0  0  0  0  0  0  0  0  0
  -18.6330  -28.4520   22.6590 C   0  0  0  0  0  0  0  0  0  0  0  0
  -21.1270  -28.6480   23.3020 C   0  0  0  0  0  3  0  0  0  0  0  0
  -21.3310  -27.3410   22.5030 C   0  0  0  0  0  2  0  0  0  0  0  0
  -20.3750  -27.2060   21.3150 C   0  0  0  0  0  2  0  0  0  0  0  0
  -18.9220  -27.2380   21.7920 C   0  0  0  0  0  2  0  0  0  0  0  0
  -19.6720  -29.1250   23.3550 C   0  0  0  0  0  0  0  0  0  0  0  0
  -19.3560  -30.2690   24.1200 C   0  0  0  0  0  3  0  0  0  0  0  0
  -18.0310  -30.7380   24.1990 C   0  0  0  0  0  3  0  0  0  0  0  0
  -17.0040  -30.0590   23.5200 C   0  0  0  0  0  3  0  0  0  0  0  0
  -17.3050  -28.9170   22.7560 C   0  0  0  0  0  3  0  0  0  0  0  0
  -26.6330  -32.2190   25.1630 C   0  0  0  0  0  3  0  0  0  0  0  0
  -26.4660  -33.5670   25.7230 N   0  0  0  0  0  0  0  0  0  0  0  0
  -26.9840  -34.6800   25.1880 C   0  0  0  0  0  0  0  0  0  0  0  0
  -27.7190  -34.6680   24.1960 O   0  0  0  0  0  0  0  0  0  0  0  0
  -25.8310  -33.6600   26.5040 H   0  0  0  0  0  0  0  0  0  0  0  0
  -25.5150  -36.7150   25.0580 C   0  0  0  0  0  1  0  0  0  0  0  0
  -26.6270  -36.0200   25.8590 C   0  0  0  0  0  3  0  0  0  0  0  0
  -28.7670  -36.4630   26.9780 C   0  0  0  0  0  1  0  0  0  0  0  0
  -27.7830  -36.9310   26.0040 N   0  0  0  0  0  0  0  0  0  0  0  0
  -27.4790  -37.8610   26.2800 H   0  0  0  0  0  0  0  0  0  0  0  0
  -26.9970  -31.1800   26.2930 C   0  0  1  0  0  0  0  0  0  0  0  0
  -25.8280  -30.8720   27.2560 C   0  0  0  0  0  1  0  0  0  0  0  0
  -27.4610  -29.8400   25.6750 C   0  0  0  0  0  1  0  0  0  0  0  0
  -28.1850  -31.7130   27.1290 C   0  0  0  0  0  1  0  0  0  0  0  0
  -23.0330  -20.0010   19.8290 C   0  0  0  0  0  2  0  0  0  0  0  0
  -24.3190  -19.1630   19.7140 C   0  0  0  0  0  2  0  0  0  0  0  0
  -25.0060  -19.2640   18.3450 C   0  0  0  0  0  2  0  0  0  0  0  0
  -26.3390  -19.8480   18.4840 N   0  0  0  0  0  0  0  0  0  0  0  0
  -26.5930  -19.7730   19.4670 H   0  0  0  0  0  0  0  0  0  0  0  0
  -27.2520  -19.0160   17.7060 C   0  0  0  0  0  2  0  0  0  0  0  0
  -28.6740  -18.9170   18.3100 C   0  0  0  0  0  2  0  0  0  0  0  0
  -29.5900  -18.1980   17.3980 N   0  0  0  0  0  4  0  0  0  0  0  0
  -29.1330  -17.3430   17.1310 H   0  0  0  0  0  0  0  0  0  0  0  0
  -29.6840  -18.7530   16.5620 H   0  0  0  0  0  0  0  0  0  0  0  0
  -30.9460  -17.8600   17.9090 C   0  0  0  0  0  2  0  0  0  0  0  0
  -30.9110  -17.2830   19.3410 C   0  0  0  0  0  2  0  0  0  0  0  0
  -32.8500  -15.7490   19.9100 C   0  0  0  0  0  0  0  0  0  0  0  0
  -32.8360  -13.3630   20.5690 C   0  0  0  0  0  2  0  0  0  0  0  0
  -32.1220  -12.4890   19.5180 C   0  0  0  0  0  2  0  0  0  0  0  0
  -30.6010  -12.4600   19.7660 C   0  0  0  0  0  2  0  0  0  0  0  0
  -30.0150  -13.8780   19.9620 C   0  0  0  0  0  3  0  0  0  0  0  0
  -30.8420  -14.6550   21.0160 C   0  0  0  0  0  2  0  0  0  0  0  0
  -32.2340  -14.7110   20.5410 N   0  0  0  0  0  0  0  0  0  0  0  0
  -34.0000  -15.6640   19.4700 O   0  0  0  0  0  0  0  0  0  0  0  0
  -32.2370  -16.9480   19.8920 N   0  0  0  0  0  0  0  0  0  0  0  0
  -32.9080  -17.6920   19.7700 H   0  0  0  0  0  0  0  0  0  0  0  0
  -27.6960  -14.8730   20.4590 C   0  0  0  0  0  0  0  0  0  0  0  0
  -26.4900  -14.2860   20.7330 C   0  0  0  0  0  0  0  0  0  0  0  0
  -26.7290  -12.8770   20.7120 C   0  0  0  0  0  0  0  0  0  0  0  0
  -28.6000  -13.8350   20.3100 N   0  0  0  0  0  0  0  0  0  0  0  0
  -28.0160  -12.6300   20.5140 N   0  0  0  0  0  0  0  0  0  0  0  0
  -25.7970  -11.7490   20.7980 C   0  0  0  0  0  0  0  0  0  0  0  0
  -25.9950  -10.7050   21.7280 C   0  0  0  0  0  3  0  0  0  0  0  0
  -25.0750   -9.6370   21.8060 C   0  0  0  0  0  3  0  0  0  0  0  0
  -23.9440   -9.6090   20.9570 C   0  0  0  0  0  0  0  0  0  0  0  0
  -23.7650  -10.6390   20.0190 C   0  0  0  0  0  3  0  0  0  0  0  0
  -24.6830  -11.7000   19.9360 C   0  0  0  0  0  3  0  0  0  0  0  0
  -23.0120   -8.6010   20.9490 O   0  0  0  0  0  0  0  0  0  0  0  0
  -22.6060   -7.9870   22.1060 C   0  0  0  0  0  0  0  0  0  0  0  0
  -22.0230   -8.7110   23.1700 C   0  0  0  0  0  3  0  0  0  0  0  0
  -21.5580   -8.0320   24.3130 C   0  0  0  0  0  3  0  0  0  0  0  0
  -21.6660   -6.6310   24.3910 C   0  0  0  0  0  0  0  0  0  0  0  0
  -22.2440   -5.9090   23.3330 C   0  0  0  0  0  3  0  0  0  0  0  0
  -22.7110   -6.5850   22.1940 C   0  0  0  0  0  0  0  0  0  0  0  0
  -23.2460   -5.8820   21.1660 F   0  0  0  0  0  0  0  0  0  0  0  0
  -21.2150   -5.9780   25.4880 F   0  0  0  0  0  0  0  0  0  0  0  0
  -25.1690  -14.9790   20.8860 C   0  0  0  0  0  0  0  0  0  0  0  0
  -24.2830  -14.4350   21.7120 N   0  0  0  0  0  0  0  0  0  0  0  0
  -24.9320  -16.0370   20.3020 O   0  0  0  0  0  0  0  0  0  0  0  0
  -24.4990  -13.5920   22.2250 H   0  0  0  0  0  0  0  0  0  0  0  0
  -23.3840  -14.8750   21.8420 H   0  0  0  0  0  0  0  0  0  0  0  0
  -28.0910  -16.1920   20.2780 N   0  0  0  0  0  0  0  0  0  0  0  0
  -27.2720  -16.7730   20.1320 H   0  0  0  0  0  0  0  0  0  0  0  0
  -28.7170  -16.2670   19.4880 H   0  0  0  0  0  0  0  0  0  0  0  0
  1 52  1  0
  1  2  1  0
  2  3  1  0
  2  4  1  0
  5  2  1  0
  5  6  1  0
  6  7  1  0
  7  8  1  0
  9 10  1  0
  9  8  1  0
 11 13  1  0
 11 10  1  0
 12 23  2  0
 13 18  1  0
 14 24  1  0
 14 22  1  0
 15 21  1  0
 15 17  1  0
 16 22  1  0
 17 16  1  0
 18 17  2  0
 19 20  1  0
 19 13  2  0
 20 15  2  0
 21 14  1  0
 22 12  1  0
 24 26  2  0
 25 24  1  0
 27 25  1  0
 28 37  2  0
 28 33  1  0
 29 25  1  0
 29 33  1  0
 30 29  1  0
 31 32  1  0
 31 30  1  0
 32 28  1  0
 33 34  2  0
 34 35  1  0
 36 35  2  0
 37 36  1  0
 38 12  1  0
 38 39  1  0
 38 48  1  0
 39 42  1  0
 40 39  1  0
 40 44  1  0
 41 40  2  0
 44 43  1  0
 44 46  1  0
 46 47  1  0
 46 45  1  0
 48 51  1  1
 48 49  1  0
 50 48  1  0
 53 52  1  0
 54 55  1  0
 54 53  1  0
 55 56  1  0
 57 58  1  0
 57 55  1  0
 59 62  1  0
 59 58  1  0
 60 59  1  0
 61 59  1  0
 62 63  1  0
 63 72  1  0
 64 70  1  0
 66 67  1  0
 66 65  1  0
 68 67  1  0
 68 77  1  0
 68 69  1  0
 70 65  1  0
 70 69  1  0
 71 64  2  0
 72 64  1  0
 73 72  1  0
 74 75  2  0
 75 94  1  0
 76 75  1  0
 76 79  1  0
 77 74  1  0
 77 78  1  0
 78 76  2  0
 79 80  1  0
 80 81  2  0
 82 81  1  0
 83 82  2  0
 84 83  1  0
 84 79  2  0
 85 82  1  0
 85 86  1  0
 86 91  2  0
 86 87  1  0
 87 88  2  0
 88 89  1  0
 89 93  1  0
 90 89  2  0
 91 90  1  0
 92 91  1  0
 94 95  1  0
 95 98  1  0
 95 97  1  0
 96 94  2  0
 99 74  1  0
100 99  1  0
101 99  1  0
M  ISO  4  10 101  11 101  64 100  72 100
M  END
>  <TORSDO>  (27) 
F 32

>  <SCORE>  (27) 
0.208

>  <name>  (27) 
27

>  <ligand_id>  (27) 
27

>  <original_smiles>  (27) 
[H]c1c([H])c([H])c2c(c1[H])C([H])([H])C([H])([H])C([H])([H])C2([H])N([H])C(=O)C1([H])N(C(=O)C([H])(N([H])C(=O)C([H])(N([H])C([H])([H])[H])C([H])([H])[H])C(C([H])([H])[H])(C([H])([H])[H])C([H])([H])[H])C([H])([H])c2c([H])c(OC([H])([H])C([H])([H])C([H])([H])OC([H])([H])C([H])([H])[N+]([H])([H])C([H])([H])C([H])([H])C([H])([H])C([H])([H])N([H])C([H])([H])C([H])([H])[N+]([H])([H])C([H])([H])C([H])([H])N([H])C(=O)N3C([H])([H])C([H])([H])C([H])([H])C([H])(n4nc(-c5c([H])c([H])c(Oc6c([H])c([H])c(F)c([H])c6F)c([H])c5[H])c(C(=O)N([H])[H])c4N([H])[H])C3([H])[H])c([H])c([H])c2C1([H])[H]

>  <smiles>  (27) 
[H]c1c([H])c([H])c2c(c1[H])C([H])([H])C([H])([H])C([H])([H])C2([H])N([H])C(=O)C1([H])N(C(=O)C([H])(N([H])C(=O)C([H])(N([H])C([H])([H])[H])C([H])([H])[H])C(C([H])([H])[H])(C([H])([H])[H])C([H])([H])[H])C([H])([H])c2c([H])c(OC([H])([H])C([H])([H])C([H])([H])OC([H])([H])C([H])([H])[N+]([H])([H])C([H])([H])C([H])([H])C([H])([H])C([H])([H])N([H])C([H])([H])C([H])([H])[N+]([H])([H])C([H])([H])C([H])([H])N([H])C(=O)N3C([H])([H])C([H])([H])C([H])([H])C([H])(n4nc(-c5c([H])c([H])c(Oc6c([H])c([H])c(F)c([H])c6F)c([H])c5[H])c(C(=O)N([H])[H])c4N([H])[H])C3([H])[H])c([H])c([H])c2C1([H])[H]

$$$$
28:0:0
     RDKit          3D

 99106  0  0  1  0  0  0  0  0999 V2000
  -25.9350  -20.4450   19.5720 C   0  0  0  0  0  0  0  0  0  0  0  0
  -26.0240  -21.3040   20.5900 N   0  0  0  0  0  0  0  0  0  0  0  0
  -25.6350  -20.7850   18.4260 O   0  0  0  0  0  0  0  0  0  0  0  0
  -26.2180  -20.9080   21.5000 H   0  0  0  0  0  0  0  0  0  0  0  0
  -26.5240  -18.1270   19.1190 C   0  0  0  0  0  3  0  0  0  0  0  0
  -26.2820  -19.1090   20.0060 C   0  0  0  0  0  3  0  0  0  0  0  0
  -26.9130  -16.7590   19.5350 C   0  0  0  0  0  0  0  0  0  0  0  0
  -26.1640  -15.8210   19.9970 N   0  0  0  0  0  0  0  0  0  0  0  0
  -24.7770  -15.8900   20.0540 C   0  0  0  0  0  3  0  0  0  0  0  0
  -24.0180  -16.7340   19.5790 O   0  0  0  0  0  0  0  0  0  0  0  0
  -28.3950  -16.4460   19.3450 C   0  0  0  0  0  2  0  0  0  0  0  0
  -28.6880  -15.0080   19.7970 C   0  0  0  0  0  2  0  0  0  0  0  0
  -30.7150  -13.4520   19.9140 C   0  0  0  0  0  0  0  0  0  0  0  0
  -30.7640  -11.0900   20.6370 C   0  0  0  0  0  2  0  0  0  0  0  0
  -30.0410  -10.1780   19.6200 C   0  0  0  0  0  2  0  0  0  0  0  0
  -28.5220  -10.1300   19.8850 C   0  0  0  0  0  2  0  0  0  0  0  0
  -27.9190  -11.5430   20.0710 C   0  0  0  0  0  3  0  0  0  0  0  0
  -28.7580  -12.3110   21.1180 C   0  0  0  0  0  2  0  0  0  0  0  0
  -30.1320  -12.4230   20.6000 N   0  0  0  0  0  0  0  0  0  0  0  0
  -31.8420  -13.3570   19.4240 O   0  0  0  0  0  0  0  0  0  0  0  0
  -30.1090  -14.6570   19.8530 N   0  0  0  0  0  0  0  0  0  0  0  0
  -30.7220  -15.3840   19.5190 H   0  0  0  0  0  0  0  0  0  0  0  0
  -25.5620  -12.5010   20.4840 C   0  0  0  0  0  0  0  0  0  0  0  0
  -24.3840  -11.8950   20.8350 C   0  0  0  0  0  0  0  0  0  0  0  0
  -24.6820  -10.5060   20.9800 C   0  0  0  0  0  0  0  0  0  0  0  0
  -26.5080  -11.4870   20.4410 N   0  0  0  0  0  0  0  0  0  0  0  0
  -25.9770  -10.2900   20.7930 N   0  0  0  0  0  0  0  0  0  0  0  0
  -23.8040   -9.3550   21.2230 C   0  0  0  0  0  0  0  0  0  0  0  0
  -23.8400   -8.6470   22.4450 C   0  0  0  0  0  3  0  0  0  0  0  0
  -22.9740   -7.5560   22.6630 C   0  0  0  0  0  3  0  0  0  0  0  0
  -22.0580   -7.1640   21.6580 C   0  0  0  0  0  0  0  0  0  0  0  0
  -22.0420   -7.8590   20.4350 C   0  0  0  0  0  3  0  0  0  0  0  0
  -22.9100   -8.9400   20.2160 C   0  0  0  0  0  3  0  0  0  0  0  0
  -21.1960   -6.1000   21.7710 O   0  0  0  0  0  0  0  0  0  0  0  0
  -20.5320   -5.8360   22.9420 C   0  0  0  0  0  0  0  0  0  0  0  0
  -19.6300   -6.7600   23.5130 C   0  0  0  0  0  3  0  0  0  0  0  0
  -18.9120   -6.4170   24.6770 C   0  0  0  0  0  3  0  0  0  0  0  0
  -19.0910   -5.1520   25.2680 C   0  0  0  0  0  0  0  0  0  0  0  0
  -19.9860   -4.2290   24.7000 C   0  0  0  0  0  3  0  0  0  0  0  0
  -20.7010   -4.5690   23.5370 C   0  0  0  0  0  0  0  0  0  0  0  0
  -21.5440   -3.6660   22.9800 F   0  0  0  0  0  0  0  0  0  0  0  0
  -18.3990   -4.8200   26.3840 F   0  0  0  0  0  0  0  0  0  0  0  0
  -23.0340  -12.5450   20.9340 C   0  0  0  0  0  0  0  0  0  0  0  0
  -22.1720  -12.0300   21.8040 N   0  0  0  0  0  0  0  0  0  0  0  0
  -22.7490  -13.5430   20.2720 O   0  0  0  0  0  0  0  0  0  0  0  0
  -22.4140  -11.2200   22.3540 H   0  0  0  0  0  0  0  0  0  0  0  0
  -21.2620  -12.4520   21.9210 H   0  0  0  0  0  0  0  0  0  0  0  0
  -25.9050  -13.8140   20.1780 N   0  0  0  0  0  0  0  0  0  0  0  0
  -25.2160  -14.5580   20.1310 H   0  0  0  0  0  0  0  0  0  0  0  0
  -26.7980  -14.0790   19.7860 H   0  0  0  0  0  0  0  0  0  0  0  0
  -25.9050  -22.7560   20.5240 C   0  0  0  0  0  2  0  0  0  0  0  0
  -27.1820  -23.4530   19.9930 C   0  0  0  0  0  2  0  0  0  0  0  0
  -28.5200  -22.8420   20.4680 C   0  0  0  0  0  2  0  0  0  0  0  0
  -29.6000  -23.8510   20.4910 N   0  0  0  0  0  4  0  0  0  0  0  0
  -29.7180  -24.1660   21.4430 H   0  0  0  0  0  0  0  0  0  0  0  0
  -29.2990  -24.6430   19.9440 H   0  0  0  0  0  0  0  0  0  0  0  0
  -30.9040  -23.4090   19.9430 C   0  0  0  0  0  2  0  0  0  0  0  0
  -31.8840  -24.5810   19.7290 C   0  0  0  0  0  2  0  0  0  0  0  0
  -31.4510  -25.3990   18.6390 O   0  0  0  0  0  0  0  0  0  0  0  0
  -27.7030  -29.3560   23.2290 C   0  0  0  0  0  0  0  0  0  0  0  0
  -30.3370  -26.1630   18.8850 C   0  0  0  0  0  0  0  0  0  0  0  0
  -26.5340  -28.6990   21.1470 C   0  0  0  0  0  3  0  0  0  0  0  0
  -28.0040  -27.6830   19.3320 C   0  0  0  0  0  0  0  0  0  0  0  0
  -29.0750  -28.9690   21.1890 C   0  0  0  0  0  2  0  0  0  0  0  0
  -29.1420  -27.9010   20.1180 C   0  0  0  0  0  0  0  0  0  0  0  0
  -30.3110  -27.1390   19.9050 C   0  0  0  0  0  3  0  0  0  0  0  0
  -29.1950  -25.9660   18.0820 C   0  0  0  0  0  3  0  0  0  0  0  0
  -28.0230  -26.7130   18.3130 C   0  0  0  0  0  3  0  0  0  0  0  0
  -26.7930  -28.5370   19.6250 C   0  0  0  0  0  2  0  0  0  0  0  0
  -27.7860  -29.0010   21.9150 N   0  0  0  0  0  0  0  0  0  0  0  0
  -26.6060  -29.4800   23.7880 O   0  0  0  0  0  0  0  0  0  0  0  0
  -25.7900  -27.4450   21.6560 C   0  0  0  0  0  0  0  0  0  0  0  0
  -24.4840  -27.3700   21.3600 N   0  0  0  0  0  0  0  0  0  0  0  0
  -26.3890  -26.5600   22.2740 O   0  0  0  0  0  0  0  0  0  0  0  0
  -24.0680  -28.1490   20.8680 H   0  0  0  0  0  0  0  0  0  0  0  0
  -21.0700  -26.2120   21.1190 C   0  0  0  0  0  0  0  0  0  0  0  0
  -23.5880  -26.2640   21.6950 C   0  0  0  0  0  3  0  0  0  0  0  0
  -23.7410  -25.1040   20.6820 C   0  0  0  0  0  2  0  0  0  0  0  0
  -22.7340  -25.1740   19.5290 C   0  0  0  0  0  2  0  0  0  0  0  0
  -21.3030  -25.1430   20.0660 C   0  0  0  0  0  2  0  0  0  0  0  0
  -22.1460  -26.7500   21.8740 C   0  0  0  0  0  0  0  0  0  0  0  0
  -21.8800  -27.7690   22.8150 C   0  0  0  0  0  3  0  0  0  0  0  0
  -20.5720  -28.2440   23.0100 C   0  0  0  0  0  3  0  0  0  0  0  0
  -19.5070  -27.6920   22.2780 C   0  0  0  0  0  3  0  0  0  0  0  0
  -19.7560  -26.6760   21.3370 C   0  0  0  0  0  3  0  0  0  0  0  0
  -28.9800  -29.6480   24.0800 C   0  0  0  0  0  3  0  0  0  0  0  0
  -28.7990  -30.9630   24.7090 N   0  0  0  0  0  0  0  0  0  0  0  0
  -29.3310  -32.1040   24.2520 C   0  0  0  0  0  0  0  0  0  0  0  0
  -30.0940  -32.1470   23.2810 O   0  0  0  0  0  0  0  0  0  0  0  0
  -28.1350  -31.0120   25.4680 H   0  0  0  0  0  0  0  0  0  0  0  0
  -27.8410  -34.1300   24.2170 C   0  0  0  0  0  1  0  0  0  0  0  0
  -28.9580  -33.4050   24.9850 C   0  0  0  0  0  3  0  0  0  0  0  0
  -31.1070  -33.8030   26.1040 C   0  0  0  0  0  1  0  0  0  0  0  0
  -30.1030  -34.3210   25.1780 N   0  0  0  0  0  0  0  0  0  0  0  0
  -29.7900  -35.2250   25.5220 H   0  0  0  0  0  0  0  0  0  0  0  0
  -29.2670  -28.5390   25.1660 C   0  0  1  0  0  0  0  0  0  0  0  0
  -28.0490  -28.2210   26.0660 C   0  0  0  0  0  1  0  0  0  0  0  0
  -29.7150  -27.2200   24.4920 C   0  0  0  0  0  1  0  0  0  0  0  0
  -30.4320  -28.9880   26.0800 C   0  0  0  0  0  1  0  0  0  0  0  0
  1  6  1  0
  1  2  1  0
  2  4  1  0
  3  1  2  0
  5  7  1  0
  5  6  2  0
  7  8  2  0
  8  9  1  0
 10  9  2  0
 11  7  1  0
 11 12  1  0
 12 21  1  0
 13 19  1  0
 15 16  1  0
 15 14  1  0
 17 16  1  0
 17 26  1  0
 17 18  1  0
 19 14  1  0
 19 18  1  0
 20 13  2  0
 21 13  1  0
 22 21  1  0
 23 24  2  0
 24 43  1  0
 24 25  1  0
 25 28  1  0
 26 23  1  0
 26 27  1  0
 27 25  2  0
 28 29  1  0
 29 30  2  0
 31 34  1  0
 31 30  1  0
 32 31  2  0
 33 32  1  0
 33 28  2  0
 34 35  1  0
 35 36  2  0
 35 40  1  0
 36 37  1  0
 37 38  2  0
 38 42  1  0
 39 38  1  0
 40 39  2  0
 41 40  1  0
 43 44  1  0
 44 47  1  0
 44 46  1  0
 45 43  2  0
 48 23  1  0
 49 48  1  0
 50 48  1  0
 51  2  1  0
 52 53  1  0
 52 51  1  0
 53 54  1  0
 54 55  1  0
 56 54  1  0
 57 54  1  0
 58 57  1  0
 59 61  1  0
 59 58  1  0
 60 71  2  0
 61 66  1  0
 62 72  1  0
 62 70  1  0
 63 69  1  0
 63 65  1  0
 64 70  1  0
 65 64  1  0
 66 65  2  0
 67 68  1  0
 67 61  2  0
 68 63  2  0
 69 62  1  0
 70 60  1  0
 72 74  2  0
 73 72  1  0
 75 73  1  0
 76 85  2  0
 76 81  1  0
 77 73  1  0
 77 81  1  0
 78 77  1  0
 79 80  1  0
 79 78  1  0
 80 76  1  0
 81 82  2  0
 82 83  1  0
 84 83  2  0
 85 84  1  0
 86 60  1  0
 86 87  1  0
 86 96  1  0
 87 90  1  0
 88 87  1  0
 88 92  1  0
 89 88  2  0
 92 91  1  0
 92 94  1  0
 94 95  1  0
 94 93  1  0
 96 97  1  1
 96 99  1  0
 98 96  1  0
M  ISO  4  13 100  21 100  58 101  59 101
M  END
>  <TORSDO>  (28) 
F 27

>  <SCORE>  (28) 
-2.525

>  <name>  (28) 
28

>  <ligand_id>  (28) 
28

>  <original_smiles>  (28) 
[H]C(=O)N=C(C([H])=C([H])C(=O)N([H])C([H])([H])C([H])([H])C([H])([H])[N+]([H])([H])C([H])([H])C([H])([H])Oc1c([H])c([H])c2c(c1[H])C([H])([H])N(C(=O)C([H])(N([H])C(=O)C([H])(N([H])C([H])([H])[H])C([H])([H])[H])C(C([H])([H])[H])(C([H])([H])[H])C([H])([H])[H])C([H])(C(=O)N([H])C1([H])c3c([H])c([H])c([H])c([H])c3C([H])([H])C([H])([H])C1([H])[H])C2([H])[H])C([H])([H])C([H])([H])N([H])C(=O)N1C([H])([H])C([H])([H])C([H])([H])C([H])(n2nc(-c3c([H])c([H])c(Oc4c([H])c([H])c(F)c([H])c4F)c([H])c3[H])c(C(=O)N([H])[H])c2N([H])[H])C1([H])[H]

>  <smiles>  (28) 
[H]C(=O)N=C(C([H])=C([H])C(=O)N([H])C([H])([H])C([H])([H])C([H])([H])[N+]([H])([H])C([H])([H])C([H])([H])Oc1c([H])c([H])c2c(c1[H])C([H])([H])N(C(=O)C([H])(N([H])C(=O)C([H])(N([H])C([H])([H])[H])C([H])([H])[H])C(C([H])([H])[H])(C([H])([H])[H])C([H])([H])[H])C([H])(C(=O)N([H])C1([H])c3c([H])c([H])c([H])c([H])c3C([H])([H])C([H])([H])C1([H])[H])C2([H])[H])C([H])([H])C([H])([H])N([H])C(=O)N1C([H])([H])C([H])([H])C([H])([H])C([H])(n2nc(-c3c([H])c([H])c(Oc4c([H])c([H])c(F)c([H])c4F)c([H])c3[H])c(C(=O)N([H])[H])c2N([H])[H])C1([H])[H]

$$$$
29:0:0
     RDKit          3D

110118  0  0  1  0  0  0  0  0999 V2000
  -32.1490  -24.0060   21.5500 C   0  0  0  0  0  3  0  0  0  0  0  0
  -31.4040  -24.3980   22.6000 C   0  0  0  0  0  3  0  0  0  0  0  0
  -30.1990  -23.6530   22.8800 C   0  0  0  0  0  0  0  0  0  0  0  0
  -29.1290  -24.4490   22.7850 N   0  0  0  0  0  0  0  0  0  0  0  0
  -30.1180  -22.4300   22.9930 O   0  0  0  0  0  0  0  0  0  0  0  0
  -29.2890  -25.4470   22.8100 H   0  0  0  0  0  0  0  0  0  0  0  0
  -27.7770  -23.9890   22.4400 C   0  0  0  0  0  3  0  0  0  0  0  0
  -26.7550  -25.5250   24.2450 C   0  0  0  0  0  1  0  0  0  0  0  0
  -26.7320  -25.0710   22.7780 C   0  0  0  0  0  3  0  0  0  0  0  0
  -27.7130  -23.5740   20.9430 C   0  0  0  0  0  2  0  0  0  0  0  0
  -28.4330  -24.5430   20.0810 N   0  0  0  0  0  4  0  0  0  0  0  0
  -28.1940  -25.4810   20.3650 H   0  0  0  0  0  0  0  0  0  0  0  0
  -29.4100  -24.4080   20.2770 H   0  0  0  0  0  0  0  0  0  0  0  0
  -28.2280  -24.3970   18.6210 C   0  0  0  0  0  2  0  0  0  0  0  0
  -29.2560  -25.2280   17.8170 C   0  0  0  0  0  2  0  0  0  0  0  0
  -28.6820  -25.7300   16.6090 O   0  0  0  0  0  0  0  0  0  0  0  0
  -23.7650  -28.7390   20.8050 C   0  0  0  0  0  0  0  0  0  0  0  0
  -27.5040  -26.4250   16.7310 C   0  0  0  0  0  0  0  0  0  0  0  0
  -23.1400  -28.4450   18.4280 C   0  0  0  0  0  3  0  0  0  0  0  0
  -25.0410  -27.7960   16.8590 C   0  0  0  0  0  0  0  0  0  0  0  0
  -25.5840  -28.7500   19.1060 C   0  0  0  0  0  2  0  0  0  0  0  0
  -25.9550  -27.8960   17.9150 C   0  0  0  0  0  0  0  0  0  0  0  0
  -27.1900  -27.2190   17.8570 C   0  0  0  0  0  3  0  0  0  0  0  0
  -26.5830  -26.3420   15.6670 C   0  0  0  0  0  3  0  0  0  0  0  0
  -25.3500  -27.0190   15.7270 C   0  0  0  0  0  3  0  0  0  0  0  0
  -23.7470  -28.5630   17.0030 C   0  0  0  0  0  2  0  0  0  0  0  0
  -24.1650  -28.6260   19.5080 N   0  0  0  0  0  0  0  0  0  0  0  0
  -22.5630  -28.7440   21.1050 O   0  0  0  0  0  0  0  0  0  0  0  0
  -22.3730  -27.1080   18.5290 C   0  0  0  0  0  0  0  0  0  0  0  0
  -21.1140  -27.1060   18.0580 N   0  0  0  0  0  0  0  0  0  0  0  0
  -22.9160  -26.1020   18.9900 O   0  0  0  0  0  0  0  0  0  0  0  0
  -20.7450  -27.9760   17.7030 H   0  0  0  0  0  0  0  0  0  0  0  0
  -17.7670  -26.0640   17.1890 C   0  0  0  0  0  0  0  0  0  0  0  0
  -20.2140  -25.9560   18.0130 C   0  0  0  0  0  3  0  0  0  0  0  0
  -20.4890  -25.0850   16.7660 C   0  0  0  0  0  2  0  0  0  0  0  0
  -19.6120  -25.4550   15.5660 C   0  0  0  0  0  2  0  0  0  0  0  0
  -18.1290  -25.3100   15.9200 C   0  0  0  0  0  2  0  0  0  0  0  0
  -18.7500  -26.3820   18.1630 C   0  0  0  0  0  0  0  0  0  0  0  0
  -18.3670  -27.1170   19.3070 C   0  0  0  0  0  3  0  0  0  0  0  0
  -17.0330  -27.5270   19.4860 C   0  0  0  0  0  3  0  0  0  0  0  0
  -16.0620  -27.1960   18.5250 C   0  0  0  0  0  3  0  0  0  0  0  0
  -16.4290  -26.4640   17.3820 C   0  0  0  0  0  3  0  0  0  0  0  0
  -24.7930  -28.8920   21.9710 C   0  0  0  0  0  3  0  0  0  0  0  0
  -24.8430  -27.6380   22.9270 C   0  0  1  0  0  0  0  0  0  0  0  0
  -23.4580  -27.2030   23.4570 C   0  0  0  0  0  1  0  0  0  0  0  0
  -25.4710  -26.4260   22.2010 C   0  0  0  0  0  2  0  0  0  0  0  0
  -25.7470  -27.9440   24.1440 C   0  0  0  0  0  1  0  0  0  0  0  0
  -24.4310  -30.1040   22.7180 N   0  0  0  0  0  0  0  0  0  0  0  0
  -24.8880  -31.3330   22.4400 C   0  0  0  0  0  0  0  0  0  0  0  0
  -25.7240  -31.5530   21.5590 O   0  0  0  0  0  0  0  0  0  0  0  0
  -23.7110  -30.0070   23.4190 H   0  0  0  0  0  0  0  0  0  0  0  0
  -23.2000  -33.1940   22.4940 C   0  0  0  0  0  1  0  0  0  0  0  0
  -24.3290  -32.5020   23.2720 C   0  0  0  0  0  3  0  0  0  0  0  0
  -26.3450  -32.9780   24.5890 C   0  0  0  0  0  1  0  0  0  0  0  0
  -25.3550  -33.4970   23.6500 N   0  0  0  0  0  0  0  0  0  0  0  0
  -24.9240  -34.3190   24.0640 H   0  0  0  0  0  0  0  0  0  0  0  0
  -33.3080  -24.7560   21.1170 C   0  0  0  0  0  0  0  0  0  0  0  0
  -33.7180  -24.3200   19.9250 N   0  0  0  0  0  0  0  0  0  0  0  0
  -33.8130  -25.7190   21.6970 O   0  0  0  0  0  0  0  0  0  0  0  0
  -33.2390  -23.5260   19.5200 H   0  0  0  0  0  0  0  0  0  0  0  0
  -34.5980  -25.0200   19.0040 C   0  0  0  0  0  2  0  0  0  0  0  0
  -34.6390  -24.2430   17.6800 C   0  0  0  0  0  2  0  0  0  0  0  0
  -33.3150  -23.7990   17.3940 O   0  0  0  0  0  0  0  0  0  0  0  0
  -33.2340  -22.8900   16.3040 C   0  0  0  0  0  2  0  0  0  0  0  0
  -31.8460  -22.2400   16.3520 C   0  0  0  0  0  2  0  0  0  0  0  0
  -31.7870  -21.4340   17.5220 O   0  0  0  0  0  0  0  0  0  0  0  0
  -30.4680  -21.0610   17.8850 C   0  0  0  0  0  2  0  0  0  0  0  0
  -30.5350  -20.2190   19.1660 C   0  0  0  0  0  2  0  0  0  0  0  0
  -30.9140  -18.7540   18.9010 C   0  0  0  0  0  2  0  0  0  0  0  0
  -31.1460  -17.9630   20.1990 C   0  0  0  0  0  2  0  0  0  0  0  0
  -31.0600  -16.4470   19.9810 C   0  0  0  0  0  2  0  0  0  0  0  0
  -31.5010  -15.6340   21.2100 C   0  0  0  0  0  2  0  0  0  0  0  0
  -31.4350  -13.2990   20.3230 C   0  0  0  0  0  0  0  0  0  0  0  0
  -30.8870  -11.1160   19.3170 C   0  0  0  0  0  2  0  0  0  0  0  0
  -29.9930  -11.3120   18.0790 C   0  0  0  0  0  2  0  0  0  0  0  0
  -28.5050  -11.3780   18.4780 C   0  0  0  0  0  2  0  0  0  0  0  0
  -28.2490  -12.3810   19.6350 C   0  0  0  0  0  3  0  0  0  0  0  0
  -29.2450  -12.1390   20.7920 C   0  0  0  0  0  2  0  0  0  0  0  0
  -30.6180  -12.2170   20.2520 N   0  0  0  0  0  0  0  0  0  0  0  0
  -32.4890  -13.4070   19.6900 O   0  0  0  0  0  0  0  0  0  0  0  0
  -30.9920  -14.2720   21.1280 N   0  0  0  0  0  0  0  0  0  0  0  0
  -30.1530  -14.0650   21.6500 H   0  0  0  0  0  0  0  0  0  0  0  0
  -25.9800  -13.3530   20.3790 C   0  0  0  0  0  0  0  0  0  0  0  0
  -24.7940  -12.7540   20.7120 C   0  0  0  0  0  0  0  0  0  0  0  0
  -25.0180  -11.3480   20.6040 C   0  0  0  0  0  0  0  0  0  0  0  0
  -26.8620  -12.3200   20.0970 N   0  0  0  0  0  0  0  0  0  0  0  0
  -26.2830  -11.1060   20.2850 N   0  0  0  0  0  0  0  0  0  0  0  0
  -24.0860  -10.2200   20.7300 C   0  0  0  0  0  0  0  0  0  0  0  0
  -24.3670   -9.1220   21.5740 C   0  0  0  0  0  3  0  0  0  0  0  0
  -23.4500   -8.0560   21.6890 C   0  0  0  0  0  3  0  0  0  0  0  0
  -22.2360   -8.0810   20.9620 C   0  0  0  0  0  0  0  0  0  0  0  0
  -21.9720   -9.1650   20.1050 C   0  0  0  0  0  3  0  0  0  0  0  0
  -22.8890  -10.2230   19.9870 C   0  0  0  0  0  3  0  0  0  0  0  0
  -21.2960   -7.0800   20.9950 O   0  0  0  0  0  0  0  0  0  0  0  0
  -21.1680   -6.2470   22.0770 C   0  0  0  0  0  0  0  0  0  0  0  0
  -20.9010   -6.7430   23.3730 C   0  0  0  0  0  3  0  0  0  0  0  0
  -20.7090   -5.8460   24.4430 C   0  0  0  0  0  3  0  0  0  0  0  0
  -20.7720   -4.4580   24.2200 C   0  0  0  0  0  0  0  0  0  0  0  0
  -21.0330   -3.9630   22.9310 C   0  0  0  0  0  3  0  0  0  0  0  0
  -21.2270   -4.8550   21.8610 C   0  0  0  0  0  0  0  0  0  0  0  0
  -21.4560   -4.3710   20.6160 F   0  0  0  0  0  0  0  0  0  0  0  0
  -20.5800   -3.5970   25.2470 F   0  0  0  0  0  0  0  0  0  0  0  0
  -23.4970  -13.4460   21.0210 C   0  0  0  0  0  0  0  0  0  0  0  0
  -22.6690  -12.8510   21.8750 N   0  0  0  0  0  0  0  0  0  0  0  0
  -23.2290  -14.5470   20.5410 O   0  0  0  0  0  0  0  0  0  0  0  0
  -22.8950  -11.9580   22.2850 H   0  0  0  0  0  0  0  0  0  0  0  0
  -21.7970  -13.2980   22.1210 H   0  0  0  0  0  0  0  0  0  0  0  0
  -26.3760  -14.6820   20.2780 N   0  0  0  0  0  0  0  0  0  0  0  0
  -25.7330  -15.4510   20.4310 H   0  0  0  0  0  0  0  0  0  0  0  0
  -27.2990  -14.9860   19.9950 H   0  0  0  0  0  0  0  0  0  0  0  0
  1  2  2  0
  2  3  1  0
  3  5  2  0
  4  6  1  0
  4  3  1  0
  7  9  1  0
  7  4  1  0
  9  8  1  0
 10  7  1  0
 11 13  1  0
 11 12  1  0
 11 10  1  0
 14 11  1  0
 15 14  1  0
 16 18  1  0
 16 15  1  0
 17 28  2  0
 17 43  1  0
 18 23  1  0
 19 29  1  0
 19 27  1  0
 20 26  1  0
 20 22  1  0
 21 27  1  0
 22 21  1  0
 23 22  2  0
 24 25  1  0
 24 18  2  0
 25 20  2  0
 26 19  1  0
 27 17  1  0
 29 31  2  0
 30 29  1  0
 32 30  1  0
 33 42  2  0
 33 38  1  0
 34 30  1  0
 34 38  1  0
 35 34  1  0
 36 37  1  0
 36 35  1  0
 37 33  1  0
 38 39  2  0
 39 40  1  0
 41 40  2  0
 42 41  1  0
 43 48  1  0
 43 44  1  0
 44 45  1  1
 44 47  1  0
 46  9  1  0
 46 44  1  0
 48 51  1  0
 49 48  1  0
 49 53  1  0
 50 49  2  0
 53 52  1  0
 53 55  1  0
 55 56  1  0
 55 54  1  0
 57  1  1  0
 57 59  2  0
 58 57  1  0
 60 58  1  0
 61 58  1  0
 62 61  1  0
 63 62  1  0
 64 65  1  0
 64 63  1  0
 65 66  1  0
 66 67  1  0
 67 68  1  0
 69 68  1  0
 69 70  1  0
 71 70  1  0
 71 72  1  0
 73 81  1  0
 74 79  1  0
 75 76  1  0
 75 74  1  0
 77 76  1  0
 77 86  1  0
 77 78  1  0
 79 73  1  0
 79 78  1  0
 80 73  2  0
 81 72  1  0
 81 82  1  0
 83 84  2  0
 84103  1  0
 85 84  1  0
 85 88  1  0
 86 87  1  0
 86 83  1  0
 87 85  2  0
 88 89  1  0
 89 90  2  0
 91 94  1  0
 91 90  1  0
 92 91  2  0
 93 92  1  0
 93 88  2  0
 94 95  1  0
 95 96  1  0
 96 97  2  0
 98 97  1  0
 98102  1  0
 99 98  2  0
100 95  2  0
100 99  1  0
101100  1  0
103104  1  0
104107  1  0
104106  1  0
105103  2  0
108 83  1  0
108109  1  0
110108  1  0
M  ISO  4  15 101  16 101  73 100  81 100
M  END
>  <TORSDO>  (29) 
F 36

>  <SCORE>  (29) 
-0.116

>  <name>  (29) 
29

>  <ligand_id>  (29) 
29

>  <original_smiles>  (29) 
[H]C(C(=O)N([H])C([H])([H])C([H])([H])OC([H])([H])C([H])([H])OC([H])([H])C([H])([H])C([H])([H])C([H])([H])C([H])([H])C([H])([H])N([H])C(=O)N1C([H])([H])C([H])([H])C([H])([H])C([H])(n2nc(-c3c([H])c([H])c(Oc4c([H])c([H])c(F)c([H])c4F)c([H])c3[H])c(C(=O)N([H])[H])c2N([H])[H])C1([H])[H])=C([H])C(=O)N([H])C([H])(C([H])([H])C([H])([H])[H])C([H])([H])[N+]([H])([H])C([H])([H])C([H])([H])Oc1c([H])c([H])c2c(c1[H])C([H])([H])N(C(=O)C([H])(N([H])C(=O)C([H])(N([H])C([H])([H])[H])C([H])([H])[H])C(C([H])([H])[H])(C([H])([H])[H])C([H])([H])[H])C([H])(C(=O)N([H])C1([H])c3c([H])c([H])c([H])c([H])c3C([H])([H])C([H])([H])C1([H])[H])C2([H])[H]

>  <smiles>  (29) 
[H]C(C(=O)N([H])C([H])([H])C([H])([H])OC([H])([H])C([H])([H])OC([H])([H])C([H])([H])C([H])([H])C([H])([H])C([H])([H])C([H])([H])N([H])C(=O)N1C([H])([H])C([H])([H])C([H])([H])C([H])(n2nc(-c3c([H])c([H])c(Oc4c([H])c([H])c(F)c([H])c4F)c([H])c3[H])c(C(=O)N([H])[H])c2N([H])[H])C1([H])[H])=C([H])C(=O)N([H])C([H])(C([H])([H])C([H])([H])[H])C([H])([H])[N+]([H])([H])C([H])([H])C([H])([H])Oc1c([H])c([H])c2c(c1[H])C([H])([H])N(C(=O)C([H])(N([H])C(=O)C([H])(N([H])C([H])([H])[H])C([H])([H])[H])C(C([H])([H])[H])(C([H])([H])[H])C([H])([H])[H])C([H])(C(=O)N([H])C1([H])c3c([H])c([H])c([H])c([H])c3C([H])([H])C([H])([H])C1([H])[H])C2([H])[H]

$$$$
30:0:0
     RDKit          3D

 99107  0  0  1  0  0  0  0  0999 V2000
  -31.1130  -20.9900   23.2480 C   0  0  0  0  0  0  0  0  0  0  0  0
  -29.1640  -20.4840   21.7810 C   0  0  0  0  0  2  0  0  0  0  0  0
  -30.9250  -22.2850   21.2180 C   0  0  0  0  0  2  0  0  0  0  0  0
  -28.4550  -20.8380   20.4460 C   0  0  0  0  0  2  0  0  0  0  0  0
  -30.3590  -22.1480   19.8080 C   0  0  0  0  0  2  0  0  0  0  0  0
  -30.4070  -21.2410   22.1200 N   0  0  0  0  0  0  0  0  0  0  0  0
  -28.8900  -22.1530   19.9530 N   0  0  1  0  0  4  0  0  0  0  0  0
  -31.7680  -21.8560   23.8340 O   0  0  0  0  0  0  0  0  0  0  0  0
  -28.7030  -22.8240   20.6830 H   0  0  0  0  0  0  0  0  0  0  0  0
  -31.2890  -18.7460   22.4770 C   0  0  0  0  0  3  0  0  0  0  0  0
  -31.2270  -19.5750   23.5340 C   0  0  0  0  0  3  0  0  0  0  0  0
  -31.3130  -17.3110   22.5620 C   0  0  0  0  0  3  0  0  0  0  0  0
  -31.3760  -16.5720   21.4470 C   0  0  0  0  0  3  0  0  0  0  0  0
  -31.3530  -15.0670   21.4220 C   0  0  0  0  0  2  0  0  0  0  0  0
  -29.7060  -14.5470   19.6460 C   0  0  0  0  0  0  0  0  0  0  0  0
  -29.1070  -12.6950   18.1670 C   0  0  0  0  0  2  0  0  0  0  0  0
  -27.9040  -12.9120   17.2430 C   0  0  0  0  0  2  0  0  0  0  0  0
  -26.5990  -12.5530   17.9690 C   0  0  0  0  0  2  0  0  0  0  0  0
  -26.4760  -13.2500   19.3490 C   0  0  0  0  0  3  0  0  0  0  0  0
  -27.7590  -13.0670   20.1890 C   0  0  0  0  0  2  0  0  0  0  0  0
  -28.9240  -13.4820   19.3880 N   0  0  0  0  0  0  0  0  0  0  0  0
  -30.3080  -15.2010   18.7870 O   0  0  0  0  0  0  0  0  0  0  0  0
  -30.0750  -14.5690   20.9300 N   0  0  0  0  0  0  0  0  0  0  0  0
  -29.5700  -13.9400   21.5380 H   0  0  0  0  0  0  0  0  0  0  0  0
  -24.2410  -13.5230   20.6040 C   0  0  0  0  0  0  0  0  0  0  0  0
  -23.3500  -12.6070   21.0950 C   0  0  0  0  0  0  0  0  0  0  0  0
  -23.9120  -11.3220   20.8170 C   0  0  0  0  0  0  0  0  0  0  0  0
  -25.2890  -12.7890   20.0680 N   0  0  0  0  0  0  0  0  0  0  0  0
  -25.1040  -11.4550   20.2470 N   0  0  0  0  0  0  0  0  0  0  0  0
  -23.3610   -9.9760   21.0070 C   0  0  0  0  0  0  0  0  0  0  0  0
  -23.9180   -9.0740   21.9410 C   0  0  0  0  0  3  0  0  0  0  0  0
  -23.3580   -7.7890   22.1190 C   0  0  0  0  0  3  0  0  0  0  0  0
  -22.2280   -7.3960   21.3630 C   0  0  0  0  0  0  0  0  0  0  0  0
  -21.6910   -8.2890   20.4190 C   0  0  0  0  0  3  0  0  0  0  0  0
  -22.2520   -9.5640   20.2380 C   0  0  0  0  0  3  0  0  0  0  0  0
  -21.6340   -6.1610   21.4510 O   0  0  0  0  0  0  0  0  0  0  0  0
  -21.5430   -5.4900   22.6440 C   0  0  0  0  0  0  0  0  0  0  0  0
  -20.8710   -6.0390   23.7590 C   0  0  0  0  0  3  0  0  0  0  0  0
  -20.7380   -5.2840   24.9420 C   0  0  0  0  0  3  0  0  0  0  0  0
  -21.2680   -3.9810   25.0110 C   0  0  0  0  0  0  0  0  0  0  0  0
  -21.9330   -3.4320   23.8990 C   0  0  0  0  0  3  0  0  0  0  0  0
  -22.0670   -4.1840   22.7190 C   0  0  0  0  0  0  0  0  0  0  0  0
  -22.6890   -3.6400   21.6440 F   0  0  0  0  0  0  0  0  0  0  0  0
  -21.1350   -3.2540   26.1450 F   0  0  0  0  0  0  0  0  0  0  0  0
  -22.0070  -12.8990   21.7020 C   0  0  0  0  0  0  0  0  0  0  0  0
  -21.5820  -12.0890   22.6650 N   0  0  0  0  0  0  0  0  0  0  0  0
  -21.3500  -13.8780   21.3570 O   0  0  0  0  0  0  0  0  0  0  0  0
  -22.1340  -11.3000   22.9660 H   0  0  0  0  0  0  0  0  0  0  0  0
  -20.6910  -12.2620   23.1100 H   0  0  0  0  0  0  0  0  0  0  0  0
  -24.2410  -14.9130   20.5520 N   0  0  0  0  0  0  0  0  0  0  0  0
  -23.4680  -15.4700   20.9030 H   0  0  0  0  0  0  0  0  0  0  0  0
  -24.9710  -15.4710   20.1210 H   0  0  0  0  0  0  0  0  0  0  0  0
  -28.1210  -22.7160   18.8190 C   0  0  0  0  0  2  0  0  0  0  0  0
  -28.2680  -24.2550   18.7880 C   0  0  0  0  0  2  0  0  0  0  0  0
  -30.0990  -25.8030   18.4460 C   0  0  0  0  0  0  0  0  0  0  0  0
  -31.5730  -26.0600   18.2270 C   0  0  0  0  0  1  0  0  0  0  0  0
  -29.6780  -24.6190   18.6560 N   0  0  0  0  0  0  0  0  0  0  0  0
  -29.2380  -27.0360   18.4010 C   0  0  0  0  0  2  0  0  0  0  0  0
  -28.0920  -26.8420   17.5770 O   0  0  0  0  0  0  0  0  0  0  0  0
  -24.9300  -30.3450   22.8530 C   0  0  0  0  0  0  0  0  0  0  0  0
  -26.9650  -27.4780   18.0260 C   0  0  0  0  0  0  0  0  0  0  0  0
  -23.4420  -29.6290   21.0050 C   0  0  0  0  0  3  0  0  0  0  0  0
  -24.6190  -28.7530   18.9220 C   0  0  0  0  0  0  0  0  0  0  0  0
  -25.9120  -30.1120   20.5870 C   0  0  0  0  0  2  0  0  0  0  0  0
  -25.8530  -29.0800   19.4900 C   0  0  0  0  0  0  0  0  0  0  0  0
  -27.0230  -28.4580   19.0420 C   0  0  0  0  0  3  0  0  0  0  0  0
  -25.7180  -27.1480   17.4580 C   0  0  0  0  0  3  0  0  0  0  0  0
  -24.5430  -27.7820   17.9060 C   0  0  0  0  0  3  0  0  0  0  0  0
  -23.4200  -29.5020   19.4560 C   0  0  0  0  0  2  0  0  0  0  0  0
  -24.7880  -30.0200   21.5390 N   0  0  0  0  0  0  0  0  0  0  0  0
  -23.9520  -30.3760   23.6130 O   0  0  0  0  0  0  0  0  0  0  0  0
  -22.9050  -28.3120   21.6040 C   0  0  0  0  0  0  0  0  0  0  0  0
  -21.5780  -28.1250   21.5270 N   0  0  0  0  0  0  0  0  0  0  0  0
  -23.6700  -27.4760   22.0920 O   0  0  0  0  0  0  0  0  0  0  0  0
  -21.0220  -28.8620   21.1190 H   0  0  0  0  0  0  0  0  0  0  0  0
  -18.2870  -26.6610   21.7480 C   0  0  0  0  0  0  0  0  0  0  0  0
  -20.8450  -26.9500   21.9910 C   0  0  0  0  0  3  0  0  0  0  0  0
  -20.9690  -25.7840   20.9830 C   0  0  0  0  0  2  0  0  0  0  0  0
  -19.8270  -25.7440   19.9620 C   0  0  0  0  0  2  0  0  0  0  0  0
  -18.4760  -25.6070   20.6710 C   0  0  0  0  0  2  0  0  0  0  0  0
  -19.3980  -27.3020   22.3560 C   0  0  0  0  0  0  0  0  0  0  0  0
  -19.1660  -28.3060   23.3230 C   0  0  0  0  0  3  0  0  0  0  0  0
  -17.8530  -28.6680   23.6800 C   0  0  0  0  0  3  0  0  0  0  0  0
  -16.7570  -28.0160   23.0870 C   0  0  0  0  0  3  0  0  0  0  0  0
  -16.9750  -27.0130   22.1280 C   0  0  0  0  0  3  0  0  0  0  0  0
  -26.3200  -30.7170   23.4610 C   0  0  0  0  0  3  0  0  0  0  0  0
  -26.1700  -32.0030   24.1520 N   0  0  0  0  0  0  0  0  0  0  0  0
  -26.6810  -33.1640   23.7190 C   0  0  0  0  0  0  0  0  0  0  0  0
  -27.4010  -33.2480   22.7220 O   0  0  0  0  0  0  0  0  0  0  0  0
  -25.5340  -32.0210   24.9380 H   0  0  0  0  0  0  0  0  0  0  0  0
  -25.3140  -35.2700   23.7340 C   0  0  0  0  0  1  0  0  0  0  0  0
  -26.3350  -34.4340   24.5200 C   0  0  0  0  0  3  0  0  0  0  0  0
  -28.4180  -34.6200   25.8090 C   0  0  0  0  0  1  0  0  0  0  0  0
  -27.5190  -35.2600   24.8510 N   0  0  0  0  0  0  0  0  0  0  0  0
  -27.2410  -36.1620   25.2290 H   0  0  0  0  0  0  0  0  0  0  0  0
  -26.8860  -29.6140   24.4350 C   0  0  1  0  0  0  0  0  0  0  0  0
  -25.8620  -29.1460   25.4930 C   0  0  0  0  0  1  0  0  0  0  0  0
  -27.3560  -28.3710   23.6460 C   0  0  0  0  0  1  0  0  0  0  0  0
  -28.1270  -30.1620   25.1790 C   0  0  0  0  0  1  0  0  0  0  0  0
  1 11  1  0
  1  8  2  0
  2  6  1  0
  3  6  1  0
  4  2  1  0
  5  7  1  0
  5  3  1  0
  6  1  1  0
  7  4  1  0
  7  9  1  1
 10 12  1  0
 10 11  2  0
 13 12  2  0
 14 13  1  0
 15 23  1  0
 16 21  1  0
 17 18  1  0
 17 16  1  0
 19 18  1  0
 19 28  1  0
 19 20  1  0
 21 15  1  0
 21 20  1  0
 22 15  2  0
 23 14  1  0
 23 24  1  0
 25 26  2  0
 26 45  1  0
 27 30  1  0
 27 26  1  0
 28 29  1  0
 28 25  1  0
 29 27  2  0
 30 31  1  0
 31 32  2  0
 33 36  1  0
 33 32  1  0
 34 33  2  0
 35 34  1  0
 35 30  2  0
 36 37  1  0
 37 42  2  0
 37 38  1  0
 38 39  2  0
 39 40  1  0
 40 44  1  0
 41 40  2  0
 42 41  1  0
 43 42  1  0
 45 46  1  0
 46 48  1  0
 46 49  1  0
 47 45  2  0
 50 25  1  0
 50 51  1  0
 52 50  1  0
 53  7  1  0
 54 53  1  0
 55 57  2  0
 56 55  1  0
 57 54  1  0
 58 55  1  0
 59 61  1  0
 59 58  1  0
 60 71  2  0
 61 66  1  0
 62 70  1  0
 62 72  1  0
 63 69  1  0
 63 65  1  0
 64 70  1  0
 65 64  1  0
 66 65  2  0
 67 68  1  0
 67 61  2  0
 68 63  2  0
 69 62  1  0
 70 60  1  0
 72 74  2  0
 73 72  1  0
 75 73  1  0
 76 85  2  0
 76 81  1  0
 77 73  1  0
 77 81  1  0
 78 77  1  0
 79 80  1  0
 79 78  1  0
 80 76  1  0
 81 82  2  0
 82 83  1  0
 84 83  2  0
 85 84  1  0
 86 60  1  0
 86 87  1  0
 86 96  1  0
 87 90  1  0
 88 87  1  0
 88 92  1  0
 89 88  2  0
 92 91  1  0
 92 94  1  0
 94 95  1  0
 94 93  1  0
 96 99  1  1
 96 97  1  0
 98 96  1  0
M  ISO  4  15 100  23 100  58 101  59 101
M  END
>  <TORSDO>  (30) 
F 23

>  <SCORE>  (30) 
-6.641

>  <name>  (30) 
30

>  <ligand_id>  (30) 
30

>  <original_smiles>  (30) 
[H]C(C(=O)N1C([H])([H])C([H])([H])[N+]([H])(C([H])([H])C([H])([H])N=C(C([H])([H])[H])C([H])([H])Oc2c([H])c([H])c3c(c2[H])C([H])([H])N(C(=O)C([H])(N([H])C(=O)C([H])(N([H])C([H])([H])[H])C([H])([H])[H])C(C([H])([H])[H])(C([H])([H])[H])C([H])([H])[H])C([H])(C(=O)N([H])C2([H])c4c([H])c([H])c([H])c([H])c4C([H])([H])C([H])([H])C2([H])[H])C3([H])[H])C([H])([H])C1([H])[H])=C([H])C([H])=C([H])C([H])([H])N([H])C(=O)N1C([H])([H])C([H])([H])C([H])([H])C([H])(n2nc(-c3c([H])c([H])c(Oc4c([H])c([H])c(F)c([H])c4F)c([H])c3[H])c(C(=O)N([H])[H])c2N([H])[H])C1([H])[H]

>  <smiles>  (30) 
[H]C(C(=O)N1C([H])([H])C([H])([H])[N+]([H])(C([H])([H])C([H])([H])N=C(C([H])([H])[H])C([H])([H])Oc2c([H])c([H])c3c(c2[H])C([H])([H])N(C(=O)C([H])(N([H])C(=O)C([H])(N([H])C([H])([H])[H])C([H])([H])[H])C(C([H])([H])[H])(C([H])([H])[H])C([H])([H])[H])C([H])(C(=O)N([H])C2([H])c4c([H])c([H])c([H])c([H])c4C([H])([H])C([H])([H])C2([H])[H])C3([H])[H])C([H])([H])C1([H])[H])=C([H])C([H])=C([H])C([H])([H])N([H])C(=O)N1C([H])([H])C([H])([H])C([H])([H])C([H])(n2nc(-c3c([H])c([H])c(Oc4c([H])c([H])c(F)c([H])c4F)c([H])c3[H])c(C(=O)N([H])[H])c2N([H])[H])C1([H])[H]

$$$$
31:0:0
     RDKit          3D

102109  0  0  1  0  0  0  0  0999 V2000
  -25.5620  -23.8430   16.3900 C   0  0  0  0  0  2  0  0  0  0  0  0
  -25.2210  -22.7450   17.2930 N   0  0  0  0  0  0  0  0  0  0  0  0
  -25.0170  -23.1250   18.2200 H   0  0  0  0  0  0  0  0  0  0  0  0
  -26.3330  -21.7960   17.3800 C   0  0  0  0  0  2  0  0  0  0  0  0
  -26.2030  -20.7650   18.5150 C   0  0  0  0  0  2  0  0  0  0  0  0
  -27.5420  -20.2050   18.7640 N   0  0  0  0  0  4  0  0  0  0  0  0
  -27.8950  -19.8590   17.8860 H   0  0  0  0  0  0  0  0  0  0  0  0
  -28.1360  -20.9620   19.0580 H   0  0  0  0  0  0  0  0  0  0  0  0
  -27.6530  -19.1270   19.7620 C   0  0  0  0  0  2  0  0  0  0  0  0
  -29.1430  -18.8160   19.9910 C   0  0  0  0  0  2  0  0  0  0  0  0
  -29.4260  -17.6410   20.9330 C   0  0  0  0  0  2  0  0  0  0  0  0
  -30.9380  -17.3550   21.0010 C   0  0  0  0  0  2  0  0  0  0  0  0
  -31.3090  -16.1280   21.8460 C   0  0  0  0  0  2  0  0  0  0  0  0
  -31.0400  -14.2040   20.2710 C   0  0  0  0  0  0  0  0  0  0  0  0
  -30.5710  -12.1650   18.9620 C   0  0  0  0  0  2  0  0  0  0  0  0
  -29.6140  -12.4460   17.7900 C   0  0  0  0  0  2  0  0  0  0  0  0
  -28.1480  -12.3480   18.2500 C   0  0  0  0  0  2  0  0  0  0  0  0
  -27.8730  -13.1830   19.5270 C   0  0  0  0  0  3  0  0  0  0  0  0
  -28.9260  -12.8760   20.6130 C   0  0  0  0  0  2  0  0  0  0  0  0
  -30.2690  -13.1110   20.0440 N   0  0  0  0  0  0  0  0  0  0  0  0
  -32.0270  -14.5030   19.5890 O   0  0  0  0  0  0  0  0  0  0  0  0
  -30.6790  -14.9120   21.3470 N   0  0  0  0  0  0  0  0  0  0  0  0
  -29.8900  -14.5580   21.8670 H   0  0  0  0  0  0  0  0  0  0  0  0
  -25.5040  -13.8920   20.2450 C   0  0  0  0  0  0  0  0  0  0  0  0
  -24.4130  -13.1630   20.6420 C   0  0  0  0  0  0  0  0  0  0  0  0
  -24.8260  -11.7960   20.6250 C   0  0  0  0  0  0  0  0  0  0  0  0
  -26.5140  -12.9700   20.0200 N   0  0  0  0  0  0  0  0  0  0  0  0
  -26.1090  -11.7050   20.3010 N   0  0  0  0  0  0  0  0  0  0  0  0
  -24.0590  -10.5630   20.8470 C   0  0  0  0  0  0  0  0  0  0  0  0
  -24.4500   -9.6140   21.8150 C   0  0  0  0  0  3  0  0  0  0  0  0
  -23.6870   -8.4440   22.0210 C   0  0  0  0  0  3  0  0  0  0  0  0
  -22.5180   -8.2170   21.2570 C   0  0  0  0  0  0  0  0  0  0  0  0
  -22.1470   -9.1540   20.2770 C   0  0  0  0  0  3  0  0  0  0  0  0
  -22.9110  -10.3150   20.0700 C   0  0  0  0  0  3  0  0  0  0  0  0
  -21.7290   -7.0990   21.3690 O   0  0  0  0  0  0  0  0  0  0  0  0
  -21.6200   -6.4100   22.5510 C   0  0  0  0  0  0  0  0  0  0  0  0
  -21.1800   -7.0340   23.7380 C   0  0  0  0  0  3  0  0  0  0  0  0
  -21.0140   -6.2740   24.9130 C   0  0  0  0  0  3  0  0  0  0  0  0
  -21.2810   -4.8910   24.9020 C   0  0  0  0  0  0  0  0  0  0  0  0
  -21.7150   -4.2680   23.7190 C   0  0  0  0  0  3  0  0  0  0  0  0
  -21.8810   -5.0250   22.5460 C   0  0  0  0  0  0  0  0  0  0  0  0
  -22.2790   -4.4140   21.4040 F   0  0  0  0  0  0  0  0  0  0  0  0
  -21.1160   -4.1600   26.0290 F   0  0  0  0  0  0  0  0  0  0  0  0
  -23.0380  -13.6940   20.9260 C   0  0  0  0  0  0  0  0  0  0  0  0
  -22.3010  -13.0360   21.8150 N   0  0  0  0  0  0  0  0  0  0  0  0
  -22.6280  -14.7260   20.3980 O   0  0  0  0  0  0  0  0  0  0  0  0
  -22.6450  -12.2000   22.2610 H   0  0  0  0  0  0  0  0  0  0  0  0
  -21.3790  -13.3760   22.0530 H   0  0  0  0  0  0  0  0  0  0  0  0
  -25.7160  -15.2520   20.0440 N   0  0  0  0  0  0  0  0  0  0  0  0
  -24.9760  -15.9370   20.1520 H   0  0  0  0  0  0  0  0  0  0  0  0
  -26.5850  -15.6480   19.7100 H   0  0  0  0  0  0  0  0  0  0  0  0
  -24.4010  -24.8040   16.1250 C   0  0  0  0  0  2  0  0  0  0  0  0
  -24.9390  -25.8200   15.2870 O   0  0  0  0  0  0  0  0  0  0  0  0
  -24.9370  -27.1250   15.8510 C   0  0  0  0  0  2  0  0  0  0  0  0
  -26.1090  -27.8980   15.2200 C   0  0  0  0  0  2  0  0  0  0  0  0
  -27.4280  -27.3460   15.6210 N   0  0  0  0  0  4  0  0  0  0  0  0
  -27.3490  -26.3430   15.5940 H   0  0  0  0  0  0  0  0  0  0  0  0
  -28.1150  -27.6030   14.9280 H   0  0  0  0  0  0  0  0  0  0  0  0
  -27.9290  -27.7870   16.9450 C   0  0  0  0  0  2  0  0  0  0  0  0
  -28.7740  -26.6920   17.6420 C   0  0  0  0  0  2  0  0  0  0  0  0
  -29.1740  -26.9910   19.1090 C   0  0  0  0  0  2  0  0  0  0  0  0
  -28.2300  -26.4780   20.0560 O   0  0  0  0  0  0  0  0  0  0  0  0
  -24.5190  -31.7090   23.2090 C   0  0  0  0  0  0  0  0  0  0  0  0
  -27.0800  -27.2140   20.1610 C   0  0  0  0  0  0  0  0  0  0  0  0
  -23.2880  -30.3260   21.5690 C   0  0  0  0  0  3  0  0  0  0  0  0
  -24.7110  -28.7330   20.1850 C   0  0  0  0  0  0  0  0  0  0  0  0
  -25.8190  -30.6270   21.3820 C   0  0  0  0  0  2  0  0  0  0  0  0
  -25.8780  -29.2470   20.7650 C   0  0  0  0  0  0  0  0  0  0  0  0
  -27.0710  -28.4930   20.7560 C   0  0  0  0  0  3  0  0  0  0  0  0
  -25.8890  -26.6830   19.6300 C   0  0  0  0  0  3  0  0  0  0  0  0
  -24.7040  -27.4430   19.6290 C   0  0  0  0  0  3  0  0  0  0  0  0
  -23.4920  -29.6240   20.2020 C   0  0  0  0  0  2  0  0  0  0  0  0
  -24.5610  -30.8990   22.1150 N   0  0  0  0  0  0  0  0  0  0  0  0
  -23.4400  -32.0220   23.7320 O   0  0  0  0  0  0  0  0  0  0  0  0
  -22.5990  -29.3340   22.5290 C   0  0  0  0  0  0  0  0  0  0  0  0
  -21.2710  -29.1940   22.3940 N   0  0  0  0  0  0  0  0  0  0  0  0
  -23.2580  -28.6900   23.3520 O   0  0  0  0  0  0  0  0  0  0  0  0
  -20.7990  -29.7670   21.7090 H   0  0  0  0  0  0  0  0  0  0  0  0
  -17.8590  -28.1240   22.8840 C   0  0  0  0  0  0  0  0  0  0  0  0
  -20.4220  -28.2900   23.1660 C   0  0  0  0  0  3  0  0  0  0  0  0
  -20.4750  -26.8550   22.5970 C   0  0  0  0  0  2  0  0  0  0  0  0
  -19.3690  -26.5680   21.5760 C   0  0  0  0  0  2  0  0  0  0  0  0
  -17.9920  -26.7650   22.2130 C   0  0  0  0  0  2  0  0  0  0  0  0
  -19.0020  -28.8470   23.3170 C   0  0  0  0  0  0  0  0  0  0  0  0
  -18.8290  -30.1220   23.8970 C   0  0  0  0  0  3  0  0  0  0  0  0
  -17.5420  -30.6750   24.0510 C   0  0  0  0  0  3  0  0  0  0  0  0
  -16.4140  -29.9490   23.6380 C   0  0  0  0  0  3  0  0  0  0  0  0
  -16.5710  -28.6750   23.0600 C   0  0  0  0  0  3  0  0  0  0  0  0
  -25.8180  -32.3070   23.8370 C   0  0  0  0  0  3  0  0  0  0  0  0
  -25.5490  -33.7140   24.1700 N   0  0  0  0  0  0  0  0  0  0  0  0
  -25.9080  -34.7560   23.4090 C   0  0  0  0  0  0  0  0  0  0  0  0
  -26.5750  -34.6340   22.3780 O   0  0  0  0  0  0  0  0  0  0  0  0
  -24.9570  -33.8910   24.9690 H   0  0  0  0  0  0  0  0  0  0  0  0
  -24.2180  -36.5850   23.0520 C   0  0  0  0  0  1  0  0  0  0  0  0
  -25.4500  -36.1540   23.8640 C   0  0  0  0  0  3  0  0  0  0  0  0
  -27.6050  -36.9860   24.6990 C   0  0  0  0  0  1  0  0  0  0  0  0
  -26.5050  -37.1850   23.7570 N   0  0  0  0  0  0  0  0  0  0  0  0
  -26.1200  -38.1130   23.9130 H   0  0  0  0  0  0  0  0  0  0  0  0
  -26.3210  -31.5150   25.1050 C   0  0  1  0  0  0  0  0  0  0  0  0
  -25.2200  -31.2800   26.1630 C   0  0  0  0  0  1  0  0  0  0  0  0
  -26.8860  -30.1340   24.6990 C   0  0  0  0  0  1  0  0  0  0  0  0
  -27.4840  -32.2820   25.7800 C   0  0  0  0  0  1  0  0  0  0  0  0
  1  2  1  0
  2  4  1  0
  2  3  1  0
  4  5  1  0
  5  6  1  0
  6  8  1  0
  6  9  1  0
  7  6  1  0
  9 10  1  0
 10 11  1  0
 11 12  1  0
 12 13  1  0
 14 22  1  0
 15 20  1  0
 16 17  1  0
 16 15  1  0
 18 17  1  0
 18 27  1  0
 18 19  1  0
 20 14  1  0
 20 19  1  0
 21 14  2  0
 22 13  1  0
 22 23  1  0
 24 25  2  0
 25 44  1  0
 26 25  1  0
 26 29  1  0
 27 24  1  0
 27 28  1  0
 28 26  2  0
 29 30  1  0
 30 31  2  0
 32 35  1  0
 32 31  1  0
 33 32  2  0
 34 33  1  0
 34 29  2  0
 35 36  1  0
 36 37  1  0
 37 38  2  0
 39 38  1  0
 39 43  1  0
 40 39  2  0
 41 36  2  0
 41 40  1  0
 42 41  1  0
 44 45  1  0
 45 48  1  0
 45 47  1  0
 46 44  2  0
 49 50  1  0
 49 24  1  0
 51 49  1  0
 52  1  1  0
 53 54  1  0
 53 52  1  0
 55 56  1  0
 55 54  1  0
 56 59  1  0
 57 56  1  0
 58 56  1  0
 59 60  1  0
 60 61  1  0
 61 62  1  0
 62 64  1  0
 63 74  2  0
 64 69  1  0
 65 73  1  0
 65 75  1  0
 66 72  1  0
 66 68  1  0
 67 73  1  0
 68 67  1  0
 69 68  2  0
 70 64  2  0
 71 70  1  0
 71 66  2  0
 72 65  1  0
 73 63  1  0
 75 77  2  0
 76 75  1  0
 78 76  1  0
 79 88  2  0
 79 84  1  0
 80 76  1  0
 80 84  1  0
 81 80  1  0
 82 83  1  0
 82 81  1  0
 83 79  1  0
 84 85  2  0
 85 86  1  0
 87 86  2  0
 88 87  1  0
 89 63  1  0
 89 90  1  0
 89 99  1  0
 90 93  1  0
 91 95  1  0
 91 90  1  0
 92 91  2  0
 95 94  1  0
 97 95  1  0
 97 98  1  0
 97 96  1  0
 99102  1  1
 99100  1  0
101 99  1  0
M  ISO  4  14 100  22 100  61 101  62 101
M  END
>  <TORSDO>  (31) 
F 33

>  <SCORE>  (31) 
-9.679

>  <name>  (31) 
31

>  <ligand_id>  (31) 
31

>  <original_smiles>  (31) 
[H]c1c([H])c([H])c2c(c1[H])C([H])([H])C([H])([H])C([H])([H])C2([H])N([H])C(=O)C1([H])N(C(=O)C([H])(N([H])C(=O)C([H])(N([H])C([H])([H])[H])C([H])([H])[H])C(C([H])([H])[H])(C([H])([H])[H])C([H])([H])[H])C([H])([H])c2c([H])c(OC([H])([H])C([H])([H])C([H])([H])[N+]([H])([H])C([H])([H])C([H])([H])OC([H])([H])C([H])([H])N([H])C([H])([H])C([H])([H])[N+]([H])([H])C([H])([H])C([H])([H])C([H])([H])C([H])([H])C([H])([H])N([H])C(=O)N3C([H])([H])C([H])([H])C([H])([H])C([H])(n4nc(-c5c([H])c([H])c(Oc6c([H])c([H])c(F)c([H])c6F)c([H])c5[H])c(C(=O)N([H])[H])c4N([H])[H])C3([H])[H])c([H])c([H])c2C1([H])[H]

>  <smiles>  (31) 
[H]c1c([H])c([H])c2c(c1[H])C([H])([H])C([H])([H])C([H])([H])C2([H])N([H])C(=O)C1([H])N(C(=O)C([H])(N([H])C(=O)C([H])(N([H])C([H])([H])[H])C([H])([H])[H])C(C([H])([H])[H])(C([H])([H])[H])C([H])([H])[H])C([H])([H])c2c([H])c(OC([H])([H])C([H])([H])C([H])([H])[N+]([H])([H])C([H])([H])C([H])([H])OC([H])([H])C([H])([H])N([H])C([H])([H])C([H])([H])[N+]([H])([H])C([H])([H])C([H])([H])C([H])([H])C([H])([H])C([H])([H])N([H])C(=O)N3C([H])([H])C([H])([H])C([H])([H])C([H])(n4nc(-c5c([H])c([H])c(Oc6c([H])c([H])c(F)c([H])c6F)c([H])c5[H])c(C(=O)N([H])[H])c4N([H])[H])C3([H])[H])c([H])c([H])c2C1([H])[H]

$$$$
32:0:0
     RDKit          3D

100107  0  0  1  0  0  0  0  0999 V2000
  -23.5430  -20.2570   19.7920 C   0  0  0  0  0  2  0  0  0  0  0  0
  -23.4860  -20.0780   21.2050 O   0  0  0  0  0  0  0  0  0  0  0  0
  -22.6720  -18.9810   21.6080 C   0  0  0  0  0  2  0  0  0  0  0  0
  -22.7010  -18.8330   23.1410 C   0  0  0  0  0  2  0  0  0  0  0  0
  -24.0520  -18.3610   23.7170 C   0  0  0  0  0  2  0  0  0  0  0  0
  -25.0920  -19.4900   23.8840 C   0  0  0  0  0  2  0  0  0  0  0  0
  -26.5170  -19.0130   24.2370 C   0  0  0  0  0  2  0  0  0  0  0  0
  -27.0700  -18.1470   23.1720 N   0  0  0  0  0  4  0  0  0  0  0  0
  -26.8340  -18.5360   22.2750 H   0  0  0  0  0  0  0  0  0  0  0  0
  -26.6050  -17.2560   23.2370 H   0  0  0  0  0  0  0  0  0  0  0  0
  -28.5340  -17.9180   23.2030 C   0  0  0  0  0  2  0  0  0  0  0  0
  -28.8930  -16.7530   22.2570 C   0  0  0  0  0  2  0  0  0  0  0  0
  -30.3580  -16.2590   22.3110 C   0  0  0  0  0  2  0  0  0  0  0  0
  -30.7600  -14.3000   20.7680 C   0  0  0  0  0  0  0  0  0  0  0  0
  -30.4310  -12.2780   19.3790 C   0  0  0  0  0  2  0  0  0  0  0  0
  -29.4910  -12.5490   18.1910 C   0  0  0  0  0  2  0  0  0  0  0  0
  -28.0170  -12.3730   18.6080 C   0  0  0  0  0  2  0  0  0  0  0  0
  -27.6730  -13.1810   19.8840 C   0  0  0  0  0  3  0  0  0  0  0  0
  -28.7030  -12.8780   20.9930 C   0  0  0  0  0  2  0  0  0  0  0  0
  -30.0610  -13.1730   20.4820 N   0  0  0  0  0  0  0  0  0  0  0  0
  -31.6890  -14.7380   20.0810 O   0  0  0  0  0  0  0  0  0  0  0  0
  -30.3720  -14.8520   21.9230 N   0  0  0  0  0  0  0  0  0  0  0  0
  -29.7690  -14.2500   22.4630 H   0  0  0  0  0  0  0  0  0  0  0  0
  -25.2650  -13.8110   20.5700 C   0  0  0  0  0  0  0  0  0  0  0  0
  -24.1880  -13.0430   20.9160 C   0  0  0  0  0  0  0  0  0  0  0  0
  -24.6360  -11.6860   20.8660 C   0  0  0  0  0  0  0  0  0  0  0  0
  -26.3060  -12.9240   20.3350 N   0  0  0  0  0  0  0  0  0  0  0  0
  -25.9270  -11.6420   20.5690 N   0  0  0  0  0  0  0  0  0  0  0  0
  -23.9000  -10.4260   21.0360 C   0  0  0  0  0  0  0  0  0  0  0  0
  -24.3580   -9.4200   21.9160 C   0  0  0  0  0  3  0  0  0  0  0  0
  -23.6250   -8.2240   22.0740 C   0  0  0  0  0  3  0  0  0  0  0  0
  -22.4240   -8.0250   21.3540 C   0  0  0  0  0  0  0  0  0  0  0  0
  -21.9850   -9.0210   20.4630 C   0  0  0  0  0  3  0  0  0  0  0  0
  -22.7150  -10.2100   20.3020 C   0  0  0  0  0  3  0  0  0  0  0  0
  -21.6600   -6.8850   21.4240 O   0  0  0  0  0  0  0  0  0  0  0  0
  -21.6820   -6.0710   22.5280 C   0  0  0  0  0  0  0  0  0  0  0  0
  -21.4010   -6.5620   23.8220 C   0  0  0  0  0  3  0  0  0  0  0  0
  -21.3670   -5.6780   24.9180 C   0  0  0  0  0  3  0  0  0  0  0  0
  -21.6050   -4.3050   24.7220 C   0  0  0  0  0  0  0  0  0  0  0  0
  -21.8820   -3.8120   23.4330 C   0  0  0  0  0  3  0  0  0  0  0  0
  -21.9170   -4.6940   22.3390 C   0  0  0  0  0  0  0  0  0  0  0  0
  -22.1630   -4.2130   21.0960 F   0  0  0  0  0  0  0  0  0  0  0  0
  -21.5630   -3.4540   25.7740 F   0  0  0  0  0  0  0  0  0  0  0  0
  -22.7910  -13.5250   21.1870 C   0  0  0  0  0  0  0  0  0  0  0  0
  -22.0490  -12.8210   22.0350 N   0  0  0  0  0  0  0  0  0  0  0  0
  -22.3670  -14.5630   20.6800 O   0  0  0  0  0  0  0  0  0  0  0  0
  -22.4000  -11.9790   22.4670 H   0  0  0  0  0  0  0  0  0  0  0  0
  -21.1130  -13.1280   22.2570 H   0  0  0  0  0  0  0  0  0  0  0  0
  -25.4480  -15.1840   20.4260 N   0  0  0  0  0  0  0  0  0  0  0  0
  -24.6590  -15.8160   20.4730 H   0  0  0  0  0  0  0  0  0  0  0  0
  -26.2700  -15.5930   19.9990 H   0  0  0  0  0  0  0  0  0  0  0  0
  -24.4690  -21.4510   19.4950 C   0  0  0  0  0  2  0  0  0  0  0  0
  -25.8430  -21.1680   19.9850 N   0  0  0  0  0  4  0  0  0  0  0  0
  -25.9080  -21.4280   20.9560 H   0  0  0  0  0  0  0  0  0  0  0  0
  -25.9440  -20.1660   19.9370 H   0  0  0  0  0  0  0  0  0  0  0  0
  -26.9860  -21.7260   19.2150 C   0  0  0  0  0  2  0  0  0  0  0  0
  -27.8180  -22.7680   19.9990 C   0  0  0  0  0  2  0  0  0  0  0  0
  -27.4270  -24.2370   19.7250 C   0  0  0  0  0  2  0  0  0  0  0  0
  -28.2740  -25.2870   20.5100 C   0  0  0  0  0  2  0  0  0  0  0  0
  -28.3400  -26.6460   20.0200 O   0  0  0  0  0  0  0  0  0  0  0  0
  -24.6180  -31.8720   23.2110 C   0  0  0  0  0  0  0  0  0  0  0  0
  -27.1980  -27.4100   20.0790 C   0  0  0  0  0  0  0  0  0  0  0  0
  -23.4050  -30.4990   21.5530 C   0  0  0  0  0  3  0  0  0  0  0  0
  -24.8420  -28.9730   20.1160 C   0  0  0  0  0  0  0  0  0  0  0  0
  -25.9430  -30.8250   21.3720 C   0  0  0  0  0  2  0  0  0  0  0  0
  -26.0090  -29.4580   20.7190 C   0  0  0  0  0  0  0  0  0  0  0  0
  -27.1920  -28.6810   20.7060 C   0  0  0  0  0  3  0  0  0  0  0  0
  -26.0230  -26.9740   19.4360 C   0  0  0  0  0  3  0  0  0  0  0  0
  -24.8440  -27.7290   19.4740 C   0  0  0  0  0  3  0  0  0  0  0  0
  -23.6110  -29.8430   20.1640 C   0  0  0  0  0  2  0  0  0  0  0  0
  -24.6750  -31.0800   22.1030 N   0  0  0  0  0  0  0  0  0  0  0  0
  -23.5370  -32.1460   23.7500 O   0  0  0  0  0  0  0  0  0  0  0  0
  -22.7430  -29.4680   22.4960 C   0  0  0  0  0  0  0  0  0  0  0  0
  -21.4140  -29.3050   22.3700 N   0  0  0  0  0  0  0  0  0  0  0  0
  -23.4200  -28.8170   23.2960 O   0  0  0  0  0  0  0  0  0  0  0  0
  -20.9270  -29.8810   21.6990 H   0  0  0  0  0  0  0  0  0  0  0  0
  -18.0270  -28.1360   22.8480 C   0  0  0  0  0  0  0  0  0  0  0  0
  -20.5860  -28.3670   23.1300 C   0  0  0  0  0  3  0  0  0  0  0  0
  -20.6750  -26.9410   22.5370 C   0  0  0  0  0  2  0  0  0  0  0  0
  -19.5740  -26.6380   21.5170 C   0  0  0  0  0  2  0  0  0  0  0  0
  -18.1920  -26.7920   22.1590 C   0  0  0  0  0  2  0  0  0  0  0  0
  -19.1520  -28.8840   23.2870 C   0  0  0  0  0  0  0  0  0  0  0  0
  -18.9450  -30.1430   23.8910 C   0  0  0  0  0  3  0  0  0  0  0  0
  -17.6450  -30.6570   24.0570 C   0  0  0  0  0  3  0  0  0  0  0  0
  -16.5340  -29.9060   23.6330 C   0  0  0  0  0  3  0  0  0  0  0  0
  -16.7270  -28.6480   23.0370 C   0  0  0  0  0  3  0  0  0  0  0  0
  -25.9070  -32.4860   23.8430 C   0  0  0  0  0  3  0  0  0  0  0  0
  -25.5990  -33.8650   24.2380 N   0  0  0  0  0  0  0  0  0  0  0  0
  -25.9050  -34.9500   23.5150 C   0  0  0  0  0  0  0  0  0  0  0  0
  -26.5530  -34.8940   22.4680 O   0  0  0  0  0  0  0  0  0  0  0  0
  -25.0290  -33.9840   25.0640 H   0  0  0  0  0  0  0  0  0  0  0  0
  -24.1460  -36.7280   23.2640 C   0  0  0  0  0  1  0  0  0  0  0  0
  -25.4090  -36.3130   24.0350 C   0  0  0  0  0  3  0  0  0  0  0  0
  -27.5560  -37.1800   24.8490 C   0  0  0  0  0  1  0  0  0  0  0  0
  -26.4270  -37.3820   23.9430 N   0  0  0  0  0  0  0  0  0  0  0  0
  -26.0180  -38.2890   24.1440 H   0  0  0  0  0  0  0  0  0  0  0  0
  -26.4450  -31.6610   25.0760 C   0  0  1  0  0  0  0  0  0  0  0  0
  -25.3680  -31.3710   26.1480 C   0  0  0  0  0  1  0  0  0  0  0  0
  -27.0280  -30.3070   24.6130 C   0  0  0  0  0  1  0  0  0  0  0  0
  -27.6080  -32.4270   25.7500 C   0  0  0  0  0  1  0  0  0  0  0  0
  1  2  1  0
  2  3  1  0
  3  4  1  0
  4  5  1  0
  5  6  1  0
  6  7  1  0
  8 11  1  0
  8 10  1  0
  8  7  1  0
  9  8  1  0
 12 13  1  0
 12 11  1  0
 14 22  1  0
 15 20  1  0
 16 17  1  0
 16 15  1  0
 18 17  1  0
 18 27  1  0
 18 19  1  0
 20 14  1  0
 20 19  1  0
 21 14  2  0
 22 13  1  0
 22 23  1  0
 24 25  2  0
 25 44  1  0
 26 25  1  0
 26 29  1  0
 27 28  1  0
 27 24  1  0
 28 26  2  0
 29 30  1  0
 30 31  2  0
 32 35  1  0
 32 31  1  0
 33 32  2  0
 34 33  1  0
 34 29  2  0
 35 36  1  0
 36 37  1  0
 37 38  2  0
 39 38  1  0
 39 43  1  0
 40 39  2  0
 41 36  2  0
 41 40  1  0
 42 41  1  0
 44 45  1  0
 45 48  1  0
 45 47  1  0
 46 44  2  0
 49 50  1  0
 49 24  1  0
 51 49  1  0
 52  1  1  0
 52 53  1  0
 53 54  1  0
 55 53  1  0
 56 53  1  0
 56 57  1  0
 58 57  1  0
 58 59  1  0
 60 62  1  0
 60 59  1  0
 61 72  2  0
 62 67  1  0
 63 71  1  0
 63 73  1  0
 64 70  1  0
 64 66  1  0
 65 71  1  0
 66 65  1  0
 67 66  2  0
 68 69  1  0
 68 62  2  0
 69 64  2  0
 70 63  1  0
 71 61  1  0
 73 75  2  0
 74 73  1  0
 76 74  1  0
 77 86  2  0
 77 82  1  0
 78 74  1  0
 78 82  1  0
 79 78  1  0
 80 81  1  0
 80 79  1  0
 81 77  1  0
 82 83  2  0
 83 84  1  0
 85 84  2  0
 86 85  1  0
 87 61  1  0
 87 88  1  0
 87 97  1  0
 88 91  1  0
 89 93  1  0
 89 88  1  0
 90 89  2  0
 93 92  1  0
 95 93  1  0
 95 96  1  0
 95 94  1  0
 97100  1  1
 97 98  1  0
 99 97  1  0
M  ISO  4  14 100  22 100  59 101  60 101
M  END
>  <TORSDO>  (32) 
F 32

>  <SCORE>  (32) 
51.512

>  <name>  (32) 
32

>  <ligand_id>  (32) 
32

>  <original_smiles>  (32) 
[H]c1c([H])c([H])c2c(c1[H])C([H])([H])C([H])([H])C([H])([H])C2([H])N([H])C(=O)C1([H])N(C(=O)C([H])(N([H])C(=O)C([H])(N([H])C([H])([H])[H])C([H])([H])[H])C(C([H])([H])[H])(C([H])([H])[H])C([H])([H])[H])C([H])([H])c2c([H])c(OC([H])([H])C([H])([H])C([H])([H])C([H])([H])[N+]([H])([H])C([H])([H])C([H])([H])OC([H])([H])C([H])([H])C([H])([H])C([H])([H])C([H])([H])[N+]([H])([H])C([H])([H])C([H])([H])C([H])([H])N([H])C(=O)N3C([H])([H])C([H])([H])C([H])([H])C([H])(n4nc(-c5c([H])c([H])c(Oc6c([H])c([H])c(F)c([H])c6F)c([H])c5[H])c(C(=O)N([H])[H])c4N([H])[H])C3([H])[H])c([H])c([H])c2C1([H])[H]

>  <smiles>  (32) 
[H]c1c([H])c([H])c2c(c1[H])C([H])([H])C([H])([H])C([H])([H])C2([H])N([H])C(=O)C1([H])N(C(=O)C([H])(N([H])C(=O)C([H])(N([H])C([H])([H])[H])C([H])([H])[H])C(C([H])([H])[H])(C([H])([H])[H])C([H])([H])[H])C([H])([H])c2c([H])c(OC([H])([H])C([H])([H])C([H])([H])C([H])([H])[N+]([H])([H])C([H])([H])C([H])([H])OC([H])([H])C([H])([H])C([H])([H])C([H])([H])C([H])([H])[N+]([H])([H])C([H])([H])C([H])([H])C([H])([H])N([H])C(=O)N3C([H])([H])C([H])([H])C([H])([H])C([H])(n4nc(-c5c([H])c([H])c(Oc6c([H])c([H])c(F)c([H])c6F)c([H])c5[H])c(C(=O)N([H])[H])c4N([H])[H])C3([H])[H])c([H])c([H])c2C1([H])[H]

$$$$
33:0:0
     RDKit          3D

107114  0  0  1  0  0  0  0  0999 V2000
  -22.2930  -21.2910   22.1250 C   0  0  0  0  0  2  0  0  0  0  0  0
  -23.0060  -20.8600   20.9050 N   0  0  0  0  0  4  0  0  0  0  0  0
  -22.4320  -21.0860   20.1110 H   0  0  0  0  0  0  0  0  0  0  0  0
  -23.8480  -21.4030   20.8450 H   0  0  0  0  0  0  0  0  0  0  0  0
  -23.3460  -19.4220   20.8330 C   0  0  0  0  0  2  0  0  0  0  0  0
  -24.3150  -19.1400   19.6660 C   0  0  0  0  0  2  0  0  0  0  0  0
  -25.7510  -18.8300   20.1240 C   0  0  0  0  0  2  0  0  0  0  0  0
  -26.8090  -19.1330   19.0430 C   0  0  0  0  0  2  0  0  0  0  0  0
  -27.7740  -17.9650   18.7600 C   0  0  0  0  0  2  0  0  0  0  0  0
  -28.4930  -17.5440   19.9810 N   0  0  0  0  0  4  0  0  0  0  0  0
  -28.4300  -18.2950   20.6460 H   0  0  0  0  0  0  0  0  0  0  0  0
  -28.0020  -16.7510   20.3830 H   0  0  0  0  0  0  0  0  0  0  0  0
  -29.9210  -17.2110   19.8160 C   0  0  0  0  0  2  0  0  0  0  0  0
  -30.9700  -15.1560   20.8600 C   0  0  0  0  0  3  0  0  0  0  0  0
  -30.3760  -16.3530   20.9860 C   0  0  0  0  0  3  0  0  0  0  0  0
  -31.3480  -14.2180   22.0000 C   0  0  0  0  0  2  0  0  0  0  0  0
  -31.3880  -12.1720   20.6070 C   0  0  0  0  0  0  0  0  0  0  0  0
  -30.5970  -11.2430   18.4770 C   0  0  0  0  0  2  0  0  0  0  0  0
  -29.9010  -12.3760   17.6960 C   0  0  0  0  0  2  0  0  0  0  0  0
  -28.4150  -12.4940   18.0960 C   0  0  0  0  0  2  0  0  0  0  0  0
  -28.2110  -12.5280   19.6340 C   0  0  0  0  0  3  0  0  0  0  0  0
  -29.0110  -11.3920   20.3120 C   0  0  0  0  0  2  0  0  0  0  0  0
  -30.4270  -11.5150   19.9110 N   0  0  0  0  0  0  0  0  0  0  0  0
  -32.5520  -12.3120   20.2130 O   0  0  0  0  0  0  0  0  0  0  0  0
  -30.9150  -12.8690   21.6460 N   0  0  0  0  0  0  0  0  0  0  0  0
  -29.9910  -12.6010   21.9500 H   0  0  0  0  0  0  0  0  0  0  0  0
  -25.8550  -13.5070   20.0210 C   0  0  0  0  0  0  0  0  0  0  0  0
  -24.6680  -12.9140   20.3570 C   0  0  0  0  0  0  0  0  0  0  0  0
  -24.9500  -11.5200   20.5170 C   0  0  0  0  0  0  0  0  0  0  0  0
  -26.7940  -12.4840   19.9940 N   0  0  0  0  0  0  0  0  0  0  0  0
  -26.2450  -11.2950   20.3490 N   0  0  0  0  0  0  0  0  0  0  0  0
  -24.0570  -10.3820   20.7730 C   0  0  0  0  0  0  0  0  0  0  0  0
  -24.3040   -9.4600   21.8160 C   0  0  0  0  0  3  0  0  0  0  0  0
  -23.4200   -8.3830   22.0440 C   0  0  0  0  0  3  0  0  0  0  0  0
  -22.2710   -8.2230   21.2340 C   0  0  0  0  0  0  0  0  0  0  0  0
  -22.0440   -9.1300   20.1810 C   0  0  0  0  0  3  0  0  0  0  0  0
  -22.9260  -10.1990   19.9530 C   0  0  0  0  0  3  0  0  0  0  0  0
  -21.3700   -7.1910   21.3670 O   0  0  0  0  0  0  0  0  0  0  0  0
  -21.0870   -6.6380   22.5900 C   0  0  0  0  0  0  0  0  0  0  0  0
  -20.7270   -7.4320   23.7010 C   0  0  0  0  0  3  0  0  0  0  0  0
  -20.3740   -6.8200   24.9190 C   0  0  0  0  0  3  0  0  0  0  0  0
  -20.3720   -5.4160   25.0250 C   0  0  0  0  0  0  0  0  0  0  0  0
  -20.7290   -4.6250   23.9200 C   0  0  0  0  0  3  0  0  0  0  0  0
  -21.0820   -5.2330   22.7030 C   0  0  0  0  0  0  0  0  0  0  0  0
  -21.4010   -4.4660   21.6340 F   0  0  0  0  0  0  0  0  0  0  0  0
  -20.0260   -4.8250   26.1940 F   0  0  0  0  0  0  0  0  0  0  0  0
  -23.3240  -13.5810   20.4430 C   0  0  0  0  0  0  0  0  0  0  0  0
  -22.4560  -13.1180   21.3380 N   0  0  0  0  0  0  0  0  0  0  0  0
  -23.0580  -14.5640   19.7550 O   0  0  0  0  0  0  0  0  0  0  0  0
  -22.6750  -12.3220   21.9210 H   0  0  0  0  0  0  0  0  0  0  0  0
  -21.5580  -13.5740   21.4440 H   0  0  0  0  0  0  0  0  0  0  0  0
  -26.2280  -14.8250   19.7330 N   0  0  0  0  0  0  0  0  0  0  0  0
  -25.5300  -15.4740   20.0850 H   0  0  0  0  0  0  0  0  0  0  0  0
  -27.1320  -15.0250   20.1450 H   0  0  0  0  0  0  0  0  0  0  0  0
  -22.0410  -22.8200   22.1620 C   0  0  0  0  0  2  0  0  0  0  0  0
  -24.1580  -23.9490   21.4520 C   0  0  0  0  0  0  0  0  0  0  0  0
  -22.8760  -23.6150   21.2460 N   0  0  0  0  0  0  0  0  0  0  0  0
  -24.7950  -23.5260   22.4190 O   0  0  0  0  0  0  0  0  0  0  0  0
  -22.4070  -24.0440   20.4560 H   0  0  0  0  0  0  0  0  0  0  0  0
  -24.3170  -24.6180   19.0080 C   0  0  0  0  0  1  0  0  0  0  0  0
  -24.8450  -24.8830   20.4340 C   0  0  0  0  0  3  0  0  0  0  0  0
  -26.3140  -24.6820   20.5270 N   0  0  0  0  0  4  0  0  0  0  0  0
  -26.4050  -24.3100   21.4660 H   0  0  0  0  0  0  0  0  0  0  0  0
  -26.6150  -23.9390   19.9170 H   0  0  0  0  0  0  0  0  0  0  0  0
  -27.1800  -25.8910   20.4240 C   0  0  0  0  0  2  0  0  0  0  0  0
  -27.6990  -26.1760   18.9860 C   0  0  0  0  0  2  0  0  0  0  0  0
  -27.7280  -27.5800   18.6700 O   0  0  0  0  0  0  0  0  0  0  0  0
  -24.4930  -32.0050   23.1670 C   0  0  0  0  0  0  0  0  0  0  0  0
  -26.5740  -28.2860   18.9300 C   0  0  0  0  0  0  0  0  0  0  0  0
  -23.0270  -30.8370   21.5590 C   0  0  0  0  0  3  0  0  0  0  0  0
  -24.2060  -29.6490   19.6420 C   0  0  0  0  0  0  0  0  0  0  0  0
  -25.4620  -31.3560   20.9660 C   0  0  0  0  0  2  0  0  0  0  0  0
  -25.4470  -30.1230   20.0890 C   0  0  0  0  0  0  0  0  0  0  0  0
  -26.6340  -29.4460   19.7360 C   0  0  0  0  0  3  0  0  0  0  0  0
  -25.3130  -27.8510   18.4550 C   0  0  0  0  0  3  0  0  0  0  0  0
  -24.1330  -28.5080   18.8280 C   0  0  0  0  0  3  0  0  0  0  0  0
  -22.9810  -30.4200   20.0670 C   0  0  0  0  0  2  0  0  0  0  0  0
  -24.3570  -31.4030   21.9530 N   0  0  0  0  0  0  0  0  0  0  0  0
  -23.5270  -32.1300   23.9300 O   0  0  0  0  0  0  0  0  0  0  0  0
  -22.5930  -29.6310   22.4240 C   0  0  0  0  0  0  0  0  0  0  0  0
  -21.3200  -29.2250   22.2900 N   0  0  0  0  0  0  0  0  0  0  0  0
  -23.3960  -29.0670   23.1720 O   0  0  0  0  0  0  0  0  0  0  0  0
  -20.7310  -29.7400   21.6530 H   0  0  0  0  0  0  0  0  0  0  0  0
  -18.2790  -27.2920   22.5490 C   0  0  0  0  0  0  0  0  0  0  0  0
  -20.6980  -28.0960   22.9820 C   0  0  0  0  0  3  0  0  0  0  0  0
  -21.1490  -26.7500   22.3670 C   0  0  0  0  0  2  0  0  0  0  0  0
  -20.2010  -26.2430   21.2750 C   0  0  0  0  0  2  0  0  0  0  0  0
  -18.7860  -26.0510   21.8350 C   0  0  0  0  0  2  0  0  0  0  0  0
  -19.1760  -28.2610   23.0720 C   0  0  0  0  0  0  0  0  0  0  0  0
  -18.6490  -29.4170   23.6920 C   0  0  0  0  0  3  0  0  0  0  0  0
  -17.2570  -29.6070   23.7980 C   0  0  0  0  0  3  0  0  0  0  0  0
  -16.3750  -28.6350   23.2930 C   0  0  0  0  0  3  0  0  0  0  0  0
  -16.8870  -27.4810   22.6740 C   0  0  0  0  0  3  0  0  0  0  0  0
  -25.8600  -32.5900   23.6390 C   0  0  0  0  0  3  0  0  0  0  0  0
  -25.6090  -33.9480   24.1380 N   0  0  0  0  0  0  0  0  0  0  0  0
  -25.8490  -35.0680   23.4450 C   0  0  0  0  0  0  0  0  0  0  0  0
  -26.3770  -35.0680   22.3300 O   0  0  0  0  0  0  0  0  0  0  0  0
  -25.1280  -34.0260   25.0230 H   0  0  0  0  0  0  0  0  0  0  0  0
  -24.0990  -36.8740   23.4910 C   0  0  0  0  0  1  0  0  0  0  0  0
  -25.4340  -36.4020   24.0920 C   0  0  0  0  0  3  0  0  0  0  0  0
  -27.6680  -37.2150   24.7050 C   0  0  0  0  0  1  0  0  0  0  0  0
  -26.4470  -37.4690   23.9440 N   0  0  0  0  0  0  0  0  0  0  0  0
  -26.0710  -38.3680   24.2360 H   0  0  0  0  0  0  0  0  0  0  0  0
  -26.5640  -31.7090   24.7420 C   0  0  1  0  0  0  0  0  0  0  0  0
  -25.6310  -31.3060   25.9080 C   0  0  0  0  0  1  0  0  0  0  0  0
  -27.1350  -30.4130   24.1200 C   0  0  0  0  0  1  0  0  0  0  0  0
  -27.7640  -32.4790   25.3390 C   0  0  0  0  0  1  0  0  0  0  0  0
  1 55  1  0
  2  1  1  0
  3  2  1  0
  4  2  1  0
  5  2  1  0
  6  7  1  0
  6  5  1  0
  8  7  1  0
  9  8  1  0
  9 10  1  0
 10 12  1  0
 10 11  1  0
 13 10  1  0
 13 15  1  0
 14 15  2  0
 14 16  1  0
 17 25  1  0
 18 23  1  0
 19 20  1  0
 19 18  1  0
 21 20  1  0
 21 30  1  0
 21 22  1  0
 23 22  1  0
 23 17  1  0
 24 17  2  0
 25 26  1  0
 25 16  1  0
 27 28  2  0
 28 47  1  0
 28 29  1  0
 29 32  1  0
 30 27  1  0
 30 31  1  0
 31 29  2  0
 32 33  1  0
 33 34  2  0
 35 38  1  0
 35 34  1  0
 36 35  2  0
 37 36  1  0
 37 32  2  0
 38 39  1  0
 39 44  2  0
 39 40  1  0
 40 41  2  0
 41 42  1  0
 42 46  1  0
 43 42  2  0
 44 43  1  0
 45 44  1  0
 47 48  1  0
 48 51  1  0
 48 50  1  0
 49 47  2  0
 52 27  1  0
 52 53  1  0
 52 54  1  0
 56 58  2  0
 57 56  1  0
 57 55  1  0
 59 57  1  0
 61 60  1  0
 61 62  1  0
 61 56  1  0
 62 63  1  0
 64 62  1  0
 65 62  1  0
 66 65  1  0
 67 69  1  0
 67 66  1  0
 68 79  2  0
 69 74  1  0
 70 78  1  0
 70 80  1  0
 71 77  1  0
 71 73  1  0
 72 78  1  0
 73 72  1  0
 74 73  2  0
 75 76  1  0
 75 69  2  0
 76 71  2  0
 77 70  1  0
 78 68  1  0
 80 82  2  0
 81 80  1  0
 83 81  1  0
 84 93  2  0
 84 89  1  0
 85 81  1  0
 85 89  1  0
 86 85  1  0
 87 88  1  0
 87 86  1  0
 88 84  1  0
 89 90  2  0
 90 91  1  0
 92 91  2  0
 93 92  1  0
 94 68  1  0
 94 95  1  0
 94104  1  0
 95 98  1  0
 96100  1  0
 96 95  1  0
 97 96  2  0
100 99  1  0
102100  1  0
102103  1  0
102101  1  0
104107  1  1
104105  1  0
106104  1  0
M  ISO  4  17 100  25 100  66 101  67 101
M  END
>  <TORSDO>  (33) 
F 32

>  <SCORE>  (33) 
10.984

>  <name>  (33) 
33

>  <ligand_id>  (33) 
33

>  <original_smiles>  (33) 
[H]C(=C([H])C([H])([H])[N+]([H])([H])C([H])([H])C([H])([H])C([H])([H])C([H])([H])C([H])([H])[N+]([H])([H])C([H])([H])C([H])([H])N([H])C(=O)C([H])(C([H])([H])[H])[N+]([H])([H])C([H])([H])C([H])([H])Oc1c([H])c([H])c2c(c1[H])C([H])([H])N(C(=O)C([H])(N([H])C(=O)C([H])(N([H])C([H])([H])[H])C([H])([H])[H])C(C([H])([H])[H])(C([H])([H])[H])C([H])([H])[H])C([H])(C(=O)N([H])C1([H])c3c([H])c([H])c([H])c([H])c3C([H])([H])C([H])([H])C1([H])[H])C2([H])[H])C([H])([H])N([H])C(=O)N1C([H])([H])C([H])([H])C([H])([H])C([H])(n2nc(-c3c([H])c([H])c(Oc4c([H])c([H])c(F)c([H])c4F)c([H])c3[H])c(C(=O)N([H])[H])c2N([H])[H])C1([H])[H]

>  <smiles>  (33) 
[H]C(=C([H])C([H])([H])[N+]([H])([H])C([H])([H])C([H])([H])C([H])([H])C([H])([H])C([H])([H])[N+]([H])([H])C([H])([H])C([H])([H])N([H])C(=O)C([H])(C([H])([H])[H])[N+]([H])([H])C([H])([H])C([H])([H])Oc1c([H])c([H])c2c(c1[H])C([H])([H])N(C(=O)C([H])(N([H])C(=O)C([H])(N([H])C([H])([H])[H])C([H])([H])[H])C(C([H])([H])[H])(C([H])([H])[H])C([H])([H])[H])C([H])(C(=O)N([H])C1([H])c3c([H])c([H])c([H])c([H])c3C([H])([H])C([H])([H])C1([H])[H])C2([H])[H])C([H])([H])N([H])C(=O)N1C([H])([H])C([H])([H])C([H])([H])C([H])(n2nc(-c3c([H])c([H])c(Oc4c([H])c([H])c(F)c([H])c4F)c([H])c3[H])c(C(=O)N([H])[H])c2N([H])[H])C1([H])[H]

$$$$
34:0:0
     RDKit          3D

102109  0  0  1  0  0  0  0  0999 V2000
  -25.9810  -23.9330   27.8330 C   0  0  0  0  0  2  0  0  0  0  0  0
  -27.0970  -24.6880   25.7340 C   0  0  0  0  0  0  0  0  0  0  0  0
  -26.1280  -24.0310   26.3830 N   0  0  0  0  0  0  0  0  0  0  0  0
  -27.9170  -25.4120   26.3020 O   0  0  0  0  0  0  0  0  0  0  0  0
  -25.4620  -23.5090   25.8290 H   0  0  0  0  0  0  0  0  0  0  0  0
  -27.1820  -24.4620   24.2270 C   0  0  0  0  0  2  0  0  0  0  0  0
  -27.9470  -25.5310   23.5540 N   0  0  0  0  0  4  0  0  0  0  0  0
  -28.8320  -25.6070   24.0320 H   0  0  0  0  0  0  0  0  0  0  0  0
  -27.4550  -26.3970   23.7210 H   0  0  0  0  0  0  0  0  0  0  0  0
  -28.1340  -25.3130   22.0950 C   0  0  0  0  0  2  0  0  0  0  0  0
  -28.9290  -26.4440   21.4040 C   0  0  0  0  0  2  0  0  0  0  0  0
  -28.3940  -26.7200   20.1050 O   0  0  0  0  0  0  0  0  0  0  0  0
  -24.6100  -31.8730   23.2110 C   0  0  0  0  0  0  0  0  0  0  0  0
  -27.2520  -27.4820   20.1050 C   0  0  0  0  0  0  0  0  0  0  0  0
  -23.3980  -30.4950   21.5470 C   0  0  0  0  0  3  0  0  0  0  0  0
  -24.8510  -28.9600   20.1160 C   0  0  0  0  0  0  0  0  0  0  0  0
  -25.9160  -30.8640   21.3470 C   0  0  0  0  0  2  0  0  0  0  0  0
  -26.0030  -29.4920   20.7100 C   0  0  0  0  0  0  0  0  0  0  0  0
  -27.2060  -28.7630   20.7000 C   0  0  0  0  0  3  0  0  0  0  0  0
  -26.0930  -26.9600   19.4980 C   0  0  0  0  0  3  0  0  0  0  0  0
  -24.8880  -27.6920   19.5070 C   0  0  0  0  0  3  0  0  0  0  0  0
  -23.6080  -29.8180   20.1630 C   0  0  0  0  0  2  0  0  0  0  0  0
  -24.6600  -31.0910   22.0970 N   0  0  0  0  0  0  0  0  0  0  0  0
  -23.5320  -32.1380   23.7590 O   0  0  0  0  0  0  0  0  0  0  0  0
  -22.7440  -29.4690   22.4990 C   0  0  0  0  0  0  0  0  0  0  0  0
  -21.4160  -29.3080   22.3740 N   0  0  0  0  0  0  0  0  0  0  0  0
  -23.4260  -28.8250   23.3010 O   0  0  0  0  0  0  0  0  0  0  0  0
  -20.9330  -29.8800   21.6950 H   0  0  0  0  0  0  0  0  0  0  0  0
  -18.0270  -28.1400   22.8490 C   0  0  0  0  0  0  0  0  0  0  0  0
  -20.5880  -28.3720   23.1310 C   0  0  0  0  0  3  0  0  0  0  0  0
  -20.6780  -26.9450   22.5410 C   0  0  0  0  0  2  0  0  0  0  0  0
  -19.5760  -26.6420   21.5200 C   0  0  0  0  0  2  0  0  0  0  0  0
  -18.1920  -26.7950   22.1600 C   0  0  0  0  0  2  0  0  0  0  0  0
  -19.1530  -28.8860   23.2900 C   0  0  0  0  0  0  0  0  0  0  0  0
  -18.9460  -30.1450   23.8950 C   0  0  0  0  0  3  0  0  0  0  0  0
  -17.6460  -30.6620   24.0570 C   0  0  0  0  0  3  0  0  0  0  0  0
  -16.5360  -29.9130   23.6320 C   0  0  0  0  0  3  0  0  0  0  0  0
  -16.7270  -28.6540   23.0360 C   0  0  0  0  0  3  0  0  0  0  0  0
  -25.9010  -32.4860   23.8430 C   0  0  0  0  0  3  0  0  0  0  0  0
  -26.4470  -31.6570   25.0720 C   0  0  1  0  0  0  0  0  0  0  0  0
  -25.3760  -31.3560   26.1470 C   0  0  0  0  0  1  0  0  0  0  0  0
  -27.0290  -30.3050   24.5960 C   0  0  0  0  0  1  0  0  0  0  0  0
  -27.6100  -32.4210   25.7460 C   0  0  0  0  0  1  0  0  0  0  0  0
  -25.5860  -33.8650   24.2380 N   0  0  0  0  0  0  0  0  0  0  0  0
  -25.9020  -34.9500   23.5170 C   0  0  0  0  0  0  0  0  0  0  0  0
  -26.5610  -34.8950   22.4740 O   0  0  0  0  0  0  0  0  0  0  0  0
  -25.0040  -33.9800   25.0550 H   0  0  0  0  0  0  0  0  0  0  0  0
  -24.1490  -36.7330   23.2630 C   0  0  0  0  0  1  0  0  0  0  0  0
  -25.4100  -36.3140   24.0350 C   0  0  0  0  0  3  0  0  0  0  0  0
  -27.5580  -37.1820   24.8470 C   0  0  0  0  0  1  0  0  0  0  0  0
  -26.4290  -37.3820   23.9410 N   0  0  0  0  0  0  0  0  0  0  0  0
  -26.0210  -38.2910   24.1420 H   0  0  0  0  0  0  0  0  0  0  0  0
  -26.9850  -22.9350   28.4480 C   0  0  0  0  0  2  0  0  0  0  0  0
  -27.0090  -21.5510   27.7700 C   0  0  0  0  0  2  0  0  0  0  0  0
  -28.1540  -20.6600   28.2800 C   0  0  0  0  0  2  0  0  0  0  0  0
  -28.4210  -19.4730   27.3370 C   0  0  0  0  0  2  0  0  0  0  0  0
  -29.5730  -18.6530   27.7730 N   0  0  0  0  0  4  0  0  0  0  0  0
  -29.3570  -18.2990   28.6930 H   0  0  0  0  0  0  0  0  0  0  0  0
  -30.3960  -19.2270   27.8630 H   0  0  0  0  0  0  0  0  0  0  0  0
  -29.8690  -17.4740   26.9270 C   0  0  0  0  0  2  0  0  0  0  0  0
  -30.4070  -17.8020   25.5130 C   0  0  0  0  0  2  0  0  0  0  0  0
  -30.5300  -16.5260   24.6520 C   0  0  0  0  0  2  0  0  0  0  0  0
  -31.4430  -16.6910   23.4230 C   0  0  0  0  0  2  0  0  0  0  0  0
  -31.8690  -15.3590   22.7760 C   0  0  0  0  0  2  0  0  0  0  0  0
  -30.8600  -14.2790   20.7740 C   0  0  0  0  0  0  0  0  0  0  0  0
  -30.4110  -12.3000   19.3840 C   0  0  0  0  0  2  0  0  0  0  0  0
  -29.4770  -12.5500   18.1910 C   0  0  0  0  0  2  0  0  0  0  0  0
  -28.0100  -12.3820   18.6200 C   0  0  0  0  0  2  0  0  0  0  0  0
  -27.6700  -13.2120   19.8850 C   0  0  0  0  0  3  0  0  0  0  0  0
  -28.7110  -12.9870   21.0080 C   0  0  0  0  0  2  0  0  0  0  0  0
  -30.0630  -13.2250   20.4720 N   0  0  0  0  0  0  0  0  0  0  0  0
  -31.7510  -14.6900   20.0230 O   0  0  0  0  0  0  0  0  0  0  0  0
  -30.7900  -14.6710   22.0570 N   0  0  0  0  0  0  0  0  0  0  0  0
  -30.0590  -14.2490   22.6110 H   0  0  0  0  0  0  0  0  0  0  0  0
  -25.2620  -13.8190   20.5700 C   0  0  0  0  0  0  0  0  0  0  0  0
  -24.1860  -13.0440   20.9180 C   0  0  0  0  0  0  0  0  0  0  0  0
  -24.6420  -11.6920   20.8730 C   0  0  0  0  0  0  0  0  0  0  0  0
  -26.3080  -12.9370   20.3430 N   0  0  0  0  0  0  0  0  0  0  0  0
  -25.9350  -11.6520   20.5790 N   0  0  0  0  0  0  0  0  0  0  0  0
  -23.9080  -10.4300   21.0400 C   0  0  0  0  0  0  0  0  0  0  0  0
  -24.3610   -9.4210   21.9180 C   0  0  0  0  0  3  0  0  0  0  0  0
  -23.6280   -8.2250   22.0750 C   0  0  0  0  0  3  0  0  0  0  0  0
  -22.4270   -8.0290   21.3540 C   0  0  0  0  0  0  0  0  0  0  0  0
  -21.9910   -9.0260   20.4640 C   0  0  0  0  0  3  0  0  0  0  0  0
  -22.7240  -10.2140   20.3050 C   0  0  0  0  0  3  0  0  0  0  0  0
  -21.6640   -6.8880   21.4240 O   0  0  0  0  0  0  0  0  0  0  0  0
  -21.6870   -6.0740   22.5270 C   0  0  0  0  0  0  0  0  0  0  0  0
  -21.4010   -6.5630   23.8200 C   0  0  0  0  0  3  0  0  0  0  0  0
  -21.3660   -5.6790   24.9170 C   0  0  0  0  0  3  0  0  0  0  0  0
  -21.6050   -4.3050   24.7220 C   0  0  0  0  0  0  0  0  0  0  0  0
  -21.8820   -3.8150   23.4340 C   0  0  0  0  0  3  0  0  0  0  0  0
  -21.9180   -4.6960   22.3400 C   0  0  0  0  0  0  0  0  0  0  0  0
  -22.1660   -4.2140   21.0980 F   0  0  0  0  0  0  0  0  0  0  0  0
  -21.5620   -3.4540   25.7740 F   0  0  0  0  0  0  0  0  0  0  0  0
  -22.7870  -13.5230   21.1800 C   0  0  0  0  0  0  0  0  0  0  0  0
  -22.0500  -12.8230   22.0380 N   0  0  0  0  0  0  0  0  0  0  0  0
  -22.3560  -14.5550   20.6680 O   0  0  0  0  0  0  0  0  0  0  0  0
  -22.4080  -11.9870   22.4740 H   0  0  0  0  0  0  0  0  0  0  0  0
  -21.1130  -13.1280   22.2580 H   0  0  0  0  0  0  0  0  0  0  0  0
  -25.4330  -15.1900   20.4110 N   0  0  0  0  0  0  0  0  0  0  0  0
  -24.6690  -15.8490   20.5200 H   0  0  0  0  0  0  0  0  0  0  0  0
  -26.2950  -15.6280   20.1100 H   0  0  0  0  0  0  0  0  0  0  0  0
  1 53  1  0
  2  4  2  0
  2  3  1  0
  3  1  1  0
  5  3  1  0
  6  2  1  0
  7  9  1  0
  7  8  1  0
  7  6  1  0
 10  7  1  0
 11 10  1  0
 12 11  1  0
 13 24  2  0
 14 12  1  0
 14 19  1  0
 15 23  1  0
 15 25  1  0
 16 22  1  0
 16 18  1  0
 17 23  1  0
 18 17  1  0
 19 18  2  0
 20 21  1  0
 20 14  2  0
 21 16  2  0
 22 15  1  0
 23 13  1  0
 25 27  2  0
 26 25  1  0
 28 26  1  0
 29 38  2  0
 29 34  1  0
 30 26  1  0
 30 34  1  0
 31 30  1  0
 32 33  1  0
 32 31  1  0
 33 29  1  0
 34 35  2  0
 35 36  1  0
 37 36  2  0
 38 37  1  0
 39 13  1  0
 39 44  1  0
 39 40  1  0
 40 43  1  1
 40 41  1  0
 42 40  1  0
 44 47  1  0
 45 49  1  0
 45 44  1  0
 46 45  2  0
 49 48  1  0
 51 49  1  0
 51 52  1  0
 51 50  1  0
 54 55  1  0
 54 53  1  0
 56 57  1  0
 56 55  1  0
 57 59  1  0
 57 58  1  0
 60 57  1  0
 61 60  1  0
 62 61  1  0
 63 62  1  0
 64 63  1  0
 65 73  1  0
 66 71  1  0
 67 68  1  0
 67 66  1  0
 69 68  1  0
 69 78  1  0
 69 70  1  0
 71 65  1  0
 71 70  1  0
 72 65  2  0
 73 74  1  0
 73 64  1  0
 75 76  2  0
 76 95  1  0
 77 76  1  0
 77 80  1  0
 78 75  1  0
 78 79  1  0
 79 77  2  0
 80 81  1  0
 81 82  2  0
 83 86  1  0
 83 82  1  0
 84 83  2  0
 85 84  1  0
 85 80  2  0
 86 87  1  0
 87 88  1  0
 88 89  2  0
 90 89  1  0
 90 94  1  0
 91 90  2  0
 92 87  2  0
 92 91  1  0
 93 92  1  0
 95 96  1  0
 96 99  1  0
 96 98  1  0
 97 95  2  0
100101  1  0
100 75  1  0
102100  1  0
M  ISO  4  11 101  12 101  65 100  73 100
M  END
>  <TORSDO>  (34) 
F 31

>  <SCORE>  (34) 
29.334

>  <name>  (34) 
34

>  <ligand_id>  (34) 
34

>  <original_smiles>  (34) 
[H]c1c([H])c([H])c2c(c1[H])C([H])([H])C([H])([H])C([H])([H])C2([H])N([H])C(=O)C1([H])N(C(=O)C([H])(N([H])C(=O)C([H])(N([H])C([H])([H])[H])C([H])([H])[H])C(C([H])([H])[H])(C([H])([H])[H])C([H])([H])[H])C([H])([H])c2c([H])c(OC([H])([H])C([H])([H])[N+]([H])([H])C([H])([H])C(=O)N([H])C([H])([H])C([H])([H])C([H])([H])C([H])([H])C([H])([H])[N+]([H])([H])C([H])([H])C([H])([H])C([H])([H])C([H])([H])C([H])([H])N([H])C(=O)N3C([H])([H])C([H])([H])C([H])([H])C([H])(n4nc(-c5c([H])c([H])c(Oc6c([H])c([H])c(F)c([H])c6F)c([H])c5[H])c(C(=O)N([H])[H])c4N([H])[H])C3([H])[H])c([H])c([H])c2C1([H])[H]

>  <smiles>  (34) 
[H]c1c([H])c([H])c2c(c1[H])C([H])([H])C([H])([H])C([H])([H])C2([H])N([H])C(=O)C1([H])N(C(=O)C([H])(N([H])C(=O)C([H])(N([H])C([H])([H])[H])C([H])([H])[H])C(C([H])([H])[H])(C([H])([H])[H])C([H])([H])[H])C([H])([H])c2c([H])c(OC([H])([H])C([H])([H])[N+]([H])([H])C([H])([H])C(=O)N([H])C([H])([H])C([H])([H])C([H])([H])C([H])([H])C([H])([H])[N+]([H])([H])C([H])([H])C([H])([H])C([H])([H])C([H])([H])C([H])([H])N([H])C(=O)N3C([H])([H])C([H])([H])C([H])([H])C([H])(n4nc(-c5c([H])c([H])c(Oc6c([H])c([H])c(F)c([H])c6F)c([H])c5[H])c(C(=O)N([H])[H])c4N([H])[H])C3([H])[H])c([H])c([H])c2C1([H])[H]

$$$$
35:0:0
     RDKit          3D

108115  0  0  1  0  0  0  0  0999 V2000
  -21.2780  -22.2870   18.0220 C   0  0  0  0  0  2  0  0  0  0  0  0
  -21.9980  -23.3030   18.3010 N   0  0  0  0  0  2  0  0  0  0  0  0
  -21.3340  -24.5320   20.1840 C   0  0  0  0  0  3  0  0  0  0  0  0
  -22.2610  -23.7430   19.5890 C   0  0  0  0  0  0  0  0  0  0  0  0
  -23.5330  -23.3290   20.3180 C   0  0  0  0  0  1  0  0  0  0  0  0
  -20.0060  -25.1050   19.6530 C   0  0  0  0  0  2  0  0  0  0  0  0
  -18.8360  -24.1890   19.6280 N   0  0  0  0  0  4  0  0  0  0  0  0
  -18.9260  -23.5780   18.8320 H   0  0  0  0  0  0  0  0  0  0  0  0
  -18.8830  -23.6020   20.4430 H   0  0  0  0  0  0  0  0  0  0  0  0
  -17.5200  -24.8680   19.5880 C   0  0  0  0  0  2  0  0  0  0  0  0
  -16.2240  -25.2200   21.7370 C   0  0  0  0  0  3  0  0  0  0  0  0
  -16.6080  -24.4220   20.7240 C   0  0  0  0  0  3  0  0  0  0  0  0
  -15.3030  -24.8370   22.8810 C   0  0  0  0  0  2  0  0  0  0  0  0
  -14.3100  -25.9730   23.1910 C   0  0  0  0  0  2  0  0  0  0  0  0
  -13.0810  -25.5460   24.0090 C   0  0  0  0  0  2  0  0  0  0  0  0
  -13.4000  -24.9410   25.3890 C   0  0  0  0  0  2  0  0  0  0  0  0
  -12.2580  -25.1750   26.4030 C   0  0  0  0  0  2  0  0  0  0  0  0
  -12.0080  -23.8300   28.5230 C   0  0  0  0  0  0  0  0  0  0  0  0
  -12.0100  -22.1150   30.2990 C   0  0  0  0  0  2  0  0  0  0  0  0
  -13.3560  -21.3600   30.3090 C   0  0  0  0  0  2  0  0  0  0  0  0
  -13.3820  -20.2230   29.2690 C   0  0  0  0  0  2  0  0  0  0  0  0
  -12.8640  -20.6640   27.8760 C   0  0  0  0  0  3  0  0  0  0  0  0
  -11.5210  -21.4100   28.0310 C   0  0  0  0  0  2  0  0  0  0  0  0
  -11.7540  -22.5600   28.9250 N   0  0  0  0  0  0  0  0  0  0  0  0
  -12.2780  -24.7600   29.2900 O   0  0  0  0  0  0  0  0  0  0  0  0
  -12.0020  -23.9780   27.1910 N   0  0  0  0  0  0  0  0  0  0  0  0
  -11.7850  -23.1390   26.6740 H   0  0  0  0  0  0  0  0  0  0  0  0
  -13.1840  -19.4220   25.6420 C   0  0  0  0  0  0  0  0  0  0  0  0
  -12.9230  -18.1290   25.2710 C   0  0  0  0  0  0  0  0  0  0  0  0
  -12.3520  -17.4970   26.4190 C   0  0  0  0  0  0  0  0  0  0  0  0
  -12.7660  -19.5290   26.9600 N   0  0  0  0  0  0  0  0  0  0  0  0
  -12.2200  -18.3710   27.4080 N   0  0  0  0  0  0  0  0  0  0  0  0
  -11.9790  -16.0970   26.6550 C   0  0  0  0  0  0  0  0  0  0  0  0
  -10.6510  -15.7260   26.9600 C   0  0  0  0  0  3  0  0  0  0  0  0
  -10.3140  -14.3710   27.1680 C   0  0  0  0  0  3  0  0  0  0  0  0
  -11.3090  -13.3720   27.0690 C   0  0  0  0  0  0  0  0  0  0  0  0
  -12.6360  -13.7460   26.7890 C   0  0  0  0  0  3  0  0  0  0  0  0
  -12.9690  -15.0960   26.5880 C   0  0  0  0  0  3  0  0  0  0  0  0
  -11.0760  -12.0340   27.2790 O   0  0  0  0  0  0  0  0  0  0  0  0
   -9.9000  -11.4390   26.8990 C   0  0  0  0  0  0  0  0  0  0  0  0
   -9.4820  -11.4080   25.5500 C   0  0  0  0  0  3  0  0  0  0  0  0
   -8.3010  -10.7270   25.1930 C   0  0  0  0  0  3  0  0  0  0  0  0
   -7.5410  -10.0710   26.1780 C   0  0  0  0  0  0  0  0  0  0  0  0
   -7.9550  -10.0980   27.5220 C   0  0  0  0  0  3  0  0  0  0  0  0
   -9.1330  -10.7780   27.8800 C   0  0  0  0  0  0  0  0  0  0  0  0
   -9.5380  -10.7820   29.1720 F   0  0  0  0  0  0  0  0  0  0  0  0
   -6.4110   -9.4100   25.8350 F   0  0  0  0  0  0  0  0  0  0  0  0
  -13.2640  -17.4850   23.9580 C   0  0  0  0  0  0  0  0  0  0  0  0
  -12.4540  -16.5280   23.5170 N   0  0  0  0  0  0  0  0  0  0  0  0
  -14.2250  -17.8630   23.2900 O   0  0  0  0  0  0  0  0  0  0  0  0
  -11.6600  -16.2230   24.0620 H   0  0  0  0  0  0  0  0  0  0  0  0
  -12.6260  -16.0950   22.6220 H   0  0  0  0  0  0  0  0  0  0  0  0
  -13.7510  -20.5120   24.9900 N   0  0  0  0  0  0  0  0  0  0  0  0
  -14.0780  -20.4830   24.0310 H   0  0  0  0  0  0  0  0  0  0  0  0
  -13.9230  -21.4040   25.4350 H   0  0  0  0  0  0  0  0  0  0  0  0
  -20.2340  -23.6260   16.3530 C   0  0  0  0  0  2  0  0  0  0  0  0
  -20.4940  -22.3730   16.7770 C   0  0  0  0  0  2  0  0  0  0  0  0
  -19.6730  -24.0860   15.1020 C   0  0  0  0  0  3  0  0  0  0  0  0
  -20.1570  -25.2510   14.6390 C   0  0  0  0  0  3  0  0  0  0  0  0
  -19.8890  -25.8940   13.3630 C   0  0  0  0  0  3  0  0  0  0  0  0
  -20.8270  -26.4640   12.5670 C   0  0  0  0  0  3  0  0  0  0  0  0
  -22.2720  -26.4650   12.8310 C   0  0  0  0  0  0  0  0  0  0  0  0
  -22.9970  -26.0600   11.7820 N   0  0  0  0  0  0  0  0  0  0  0  0
  -22.8290  -26.7580   13.8920 O   0  0  0  0  0  0  0  0  0  0  0  0
  -22.5200  -25.8440   10.9170 H   0  0  0  0  0  0  0  0  0  0  0  0
  -24.4620  -25.9970   11.7850 C   0  0  0  0  0  2  0  0  0  0  0  0
  -25.0790  -26.2910   13.1700 C   0  0  0  0  0  2  0  0  0  0  0  0
  -26.4030  -25.7700   13.2470 O   0  0  0  0  0  0  0  0  0  0  0  0
  -32.4080  -28.8780   11.1510 C   0  0  0  0  0  0  0  0  0  0  0  0
  -27.2770  -25.9270   12.1920 C   0  0  0  0  0  0  0  0  0  0  0  0
  -31.1480  -27.7190    9.3640 C   0  0  0  0  0  3  0  0  0  0  0  0
  -29.2130  -26.2510   10.1480 C   0  0  0  0  0  0  0  0  0  0  0  0
  -30.9610  -26.9560   11.7960 C   0  0  0  0  0  2  0  0  0  0  0  0
  -29.5510  -26.5030   11.4820 C   0  0  0  0  0  0  0  0  0  0  0  0
  -28.5910  -26.3360   12.5000 C   0  0  0  0  0  3  0  0  0  0  0  0
  -26.9460  -25.6740   10.8380 C   0  0  0  0  0  3  0  0  0  0  0  0
  -27.9070  -25.8400    9.8200 C   0  0  0  0  0  3  0  0  0  0  0  0
  -30.3090  -26.4370    9.1220 C   0  0  0  0  0  2  0  0  0  0  0  0
  -31.5210  -27.9030   10.8040 N   0  0  0  0  0  0  0  0  0  0  0  0
  -32.9470  -29.5910   10.2930 O   0  0  0  0  0  0  0  0  0  0  0  0
  -30.3850  -28.9230    8.7710 C   0  0  0  0  0  0  0  0  0  0  0  0
  -30.2010  -28.9200    7.4410 N   0  0  0  0  0  0  0  0  0  0  0  0
  -29.9440  -29.8130    9.5040 O   0  0  0  0  0  0  0  0  0  0  0  0
  -30.6180  -28.1710    6.9040 H   0  0  0  0  0  0  0  0  0  0  0  0
  -28.7940  -29.6530    4.1940 C   0  0  0  0  0  0  0  0  0  0  0  0
  -29.4620  -29.9240    6.6760 C   0  0  0  0  0  3  0  0  0  0  0  0
  -27.9500  -29.8540    6.9840 C   0  0  0  0  0  2  0  0  0  0  0  0
  -27.1870  -28.9570    6.0050 C   0  0  0  0  0  2  0  0  0  0  0  0
  -27.3380  -29.4640    4.5730 C   0  0  0  0  0  2  0  0  0  0  0  0
  -29.7950  -29.8500    5.1820 C   0  0  0  0  0  0  0  0  0  0  0  0
  -31.1400  -29.9790    4.7760 C   0  0  0  0  0  3  0  0  0  0  0  0
  -31.4920  -29.9120    3.4150 C   0  0  0  0  0  3  0  0  0  0  0  0
  -30.4940  -29.7330    2.4400 C   0  0  0  0  0  3  0  0  0  0  0  0
  -29.1490  -29.6120    2.8300 C   0  0  0  0  0  3  0  0  0  0  0  0
  -32.8070  -29.1290   12.6400 C   0  0  0  0  0  3  0  0  0  0  0  0
  -34.2710  -29.2460   12.6920 N   0  0  0  0  0  0  0  0  0  0  0  0
  -35.1020  -28.2420   12.9990 C   0  0  0  0  0  0  0  0  0  0  0  0
  -34.7030  -27.1250   13.3440 O   0  0  0  0  0  0  0  0  0  0  0  0
  -34.6700  -30.1150   12.3640 H   0  0  0  0  0  0  0  0  0  0  0  0
  -37.1570  -28.0030   11.5700 C   0  0  0  0  0  1  0  0  0  0  0  0
  -36.6150  -28.5210   12.9110 C   0  0  0  0  0  3  0  0  0  0  0  0
  -37.1130  -28.5500   15.3150 C   0  0  0  0  0  1  0  0  0  0  0  0
  -37.3890  -27.9280   14.0240 N   0  0  0  0  0  0  0  0  0  0  0  0
  -38.3880  -27.9940   13.8440 H   0  0  0  0  0  0  0  0  0  0  0  0
  -32.1190  -30.4060   13.2620 C   0  0  1  0  0  0  0  0  0  0  0  0
  -32.3210  -31.6900   12.4220 C   0  0  0  0  0  1  0  0  0  0  0  0
  -30.5980  -30.1860   13.4230 C   0  0  0  0  0  1  0  0  0  0  0  0
  -32.6800  -30.6690   14.6800 C   0  0  0  0  0  1  0  0  0  0  0  0
  1  2  1  0
  2  4  1  0
  4  3  2  0
  4  5  1  0
  6  3  1  0
  7  6  1  0
  7  9  1  0
  8  7  1  0
 10  7  1  0
 10 12  1  0
 11 13  1  0
 12 11  2  0
 13 14  1  0
 14 15  1  0
 15 16  1  0
 16 17  1  0
 17 26  1  0
 18 24  1  0
 18 25  2  0
 19 20  1  0
 21 20  1  0
 22 31  1  0
 22 23  1  0
 22 21  1  0
 23 24  1  0
 24 19  1  0
 26 18  1  0
 27 26  1  0
 28 31  1  0
 29 28  2  0
 29 30  1  0
 30 33  1  0
 30 32  2  0
 31 32  1  0
 33 34  1  0
 34 35  2  0
 36 35  1  0
 36 39  1  0
 37 36  2  0
 38 33  2  0
 38 37  1  0
 40 39  1  0
 40 45  1  0
 41 40  2  0
 42 41  1  0
 42 43  2  0
 43 44  1  0
 44 45  2  0
 45 46  1  0
 47 43  1  0
 48 29  1  0
 49 48  1  0
 49 51  1  0
 50 48  2  0
 52 49  1  0
 53 55  1  0
 53 28  1  0
 54 53  1  0
 56 57  1  0
 57  1  1  0
 58 56  1  0
 59 58  2  0
 60 59  1  0
 61 62  1  0
 61 60  2  0
 62 64  2  0
 63 66  1  0
 63 62  1  0
 65 63  1  0
 66 67  1  0
 67 68  1  0
 70 75  1  0
 70 68  1  0
 71 81  1  0
 71 79  1  0
 72 74  1  0
 74 73  1  0
 74 75  2  0
 76 70  2  0
 77 72  2  0
 77 76  1  0
 78 71  1  0
 78 72  1  0
 79 69  1  0
 79 73  1  0
 80 69  2  0
 81 83  2  0
 82 81  1  0
 84 82  1  0
 85 89  1  0
 85 90  1  0
 86 87  1  0
 86 82  1  0
 88 87  1  0
 89 88  1  0
 90 86  1  0
 91 90  2  0
 92 91  1  0
 93 94  1  0
 93 92  2  0
 94 85  2  0
 95 69  1  0
 95 96  1  0
 95105  1  0
 96 97  1  0
 97 98  2  0
 99 96  1  0
101100  1  0
101 97  1  0
101103  1  0
103102  1  0
104103  1  0
105107  1  1
105108  1  0
106105  1  0
M  ISO  4  18 100  26 100  67 101  68 101
M  END
>  <TORSDO>  (35) 
F 32

>  <SCORE>  (35) 
-3.472

>  <name>  (35) 
35

>  <ligand_id>  (35) 
35

>  <original_smiles>  (35) 
[H]C(=NC(=C([H])C([H])([H])[N+]([H])([H])C([H])([H])C([H])=C([H])C([H])([H])C([H])([H])C([H])([H])C([H])([H])C([H])([H])N([H])C(=O)N1C([H])([H])C([H])([H])C([H])([H])C([H])(n2nc(-c3c([H])c([H])c(Oc4c([H])c([H])c(F)c([H])c4F)c([H])c3[H])c(C(=O)N([H])[H])c2N([H])[H])C1([H])[H])C([H])([H])[H])C([H])=C([H])C([H])=C([H])C([H])=C([H])C(=O)N([H])C([H])([H])C([H])([H])Oc1c([H])c([H])c2c(c1[H])C([H])([H])N(C(=O)C([H])(N([H])C(=O)C([H])(N([H])C([H])([H])[H])C([H])([H])[H])C(C([H])([H])[H])(C([H])([H])[H])C([H])([H])[H])C([H])(C(=O)N([H])C1([H])c3c([H])c([H])c([H])c([H])c3C([H])([H])C([H])([H])C1([H])[H])C2([H])[H]

>  <smiles>  (35) 
[H]C(=NC(=C([H])C([H])([H])[N+]([H])([H])C([H])([H])C([H])=C([H])C([H])([H])C([H])([H])C([H])([H])C([H])([H])C([H])([H])N([H])C(=O)N1C([H])([H])C([H])([H])C([H])([H])C([H])(n2nc(-c3c([H])c([H])c(Oc4c([H])c([H])c(F)c([H])c4F)c([H])c3[H])c(C(=O)N([H])[H])c2N([H])[H])C1([H])[H])C([H])([H])[H])C([H])=C([H])C([H])=C([H])C([H])=C([H])C(=O)N([H])C([H])([H])C([H])([H])Oc1c([H])c([H])c2c(c1[H])C([H])([H])N(C(=O)C([H])(N([H])C(=O)C([H])(N([H])C([H])([H])[H])C([H])([H])[H])C(C([H])([H])[H])(C([H])([H])[H])C([H])([H])[H])C([H])(C(=O)N([H])C1([H])c3c([H])c([H])c([H])c([H])c3C([H])([H])C([H])([H])C1([H])[H])C2([H])[H]

$$$$
36:0:0
     RDKit          3D

 99106  0  0  1  0  0  0  0  0999 V2000
  -32.2090  -23.2160   18.9110 C   0  0  0  0  0  2  0  0  0  0  0  0
  -30.9270  -22.8190   18.1690 C   0  0  0  0  0  0  0  0  0  0  0  0
  -30.8920  -21.5900   17.6380 N   0  0  0  0  0  0  0  0  0  0  0  0
  -29.9880  -23.6120   18.0880 O   0  0  0  0  0  0  0  0  0  0  0  0
  -31.7580  -21.0680   17.6560 H   0  0  0  0  0  0  0  0  0  0  0  0
  -29.7380  -20.9630   16.9850 C   0  0  0  0  0  2  0  0  0  0  0  0
  -29.0710  -19.8840   17.8730 C   0  0  0  0  0  2  0  0  0  0  0  0
  -30.0580  -19.0300   18.5810 N   0  0  0  0  0  4  0  0  0  0  0  0
  -30.4410  -19.5710   19.3380 H   0  0  0  0  0  0  0  0  0  0  0  0
  -30.7970  -18.8230   17.9300 H   0  0  0  0  0  0  0  0  0  0  0  0
  -29.5390  -17.7460   19.1140 C   0  0  0  0  0  2  0  0  0  0  0  0
  -30.6340  -16.9070   19.8350 C   0  0  0  0  0  2  0  0  0  0  0  0
  -30.8950  -14.4320   20.1470 C   0  0  0  0  0  0  0  0  0  0  0  0
  -30.5520  -12.1950   19.2060 C   0  0  0  0  0  2  0  0  0  0  0  0
  -29.5780  -12.2950   18.0150 C   0  0  0  0  0  2  0  0  0  0  0  0
  -28.1110  -12.2230   18.4790 C   0  0  0  0  0  2  0  0  0  0  0  0
  -27.8030  -13.1480   19.6850 C   0  0  0  0  0  3  0  0  0  0  0  0
  -28.8880  -13.0260   20.7770 C   0  0  0  0  0  2  0  0  0  0  0  0
  -30.1950  -13.2670   20.1470 N   0  0  0  0  0  0  0  0  0  0  0  0
  -32.0770  -14.4970   19.8080 O   0  0  0  0  0  0  0  0  0  0  0  0
  -30.1600  -15.5620   20.2280 N   0  0  0  0  0  0  0  0  0  0  0  0
  -29.1740  -15.4550   20.4090 H   0  0  0  0  0  0  0  0  0  0  0  0
  -25.4510  -13.8160   20.4760 C   0  0  0  0  0  0  0  0  0  0  0  0
  -24.3710  -13.0630   20.8650 C   0  0  0  0  0  0  0  0  0  0  0  0
  -24.7970  -11.7020   20.8110 C   0  0  0  0  0  0  0  0  0  0  0  0
  -26.4630  -12.9060   20.2140 N   0  0  0  0  0  0  0  0  0  0  0  0
  -26.0780  -11.6310   20.4710 N   0  0  0  0  0  0  0  0  0  0  0  0
  -24.0420  -10.4550   20.9990 C   0  0  0  0  0  0  0  0  0  0  0  0
  -24.4550   -9.4680   21.9200 C   0  0  0  0  0  3  0  0  0  0  0  0
  -23.6940   -8.2920   22.1030 C   0  0  0  0  0  3  0  0  0  0  0  0
  -22.5030   -8.0940   21.3650 C   0  0  0  0  0  0  0  0  0  0  0  0
  -22.1110   -9.0680   20.4310 C   0  0  0  0  0  3  0  0  0  0  0  0
  -22.8720  -10.2340   20.2480 C   0  0  0  0  0  3  0  0  0  0  0  0
  -21.7200   -6.9690   21.4580 O   0  0  0  0  0  0  0  0  0  0  0  0
  -21.6680   -6.2240   22.6120 C   0  0  0  0  0  0  0  0  0  0  0  0
  -21.2540   -6.7790   23.8430 C   0  0  0  0  0  3  0  0  0  0  0  0
  -21.1410   -5.9590   24.9830 C   0  0  0  0  0  3  0  0  0  0  0  0
  -21.4360   -4.5850   24.8950 C   0  0  0  0  0  0  0  0  0  0  0  0
  -21.8510   -4.0310   23.6720 C   0  0  0  0  0  3  0  0  0  0  0  0
  -21.9610   -4.8480   22.5310 C   0  0  0  0  0  0  0  0  0  0  0  0
  -22.3340   -4.3030   21.3490 F   0  0  0  0  0  0  0  0  0  0  0  0
  -21.3250   -3.7970   25.9900 F   0  0  0  0  0  0  0  0  0  0  0  0
  -22.9930  -13.5720   21.1690 C   0  0  0  0  0  0  0  0  0  0  0  0
  -22.2700  -12.8800   22.0440 N   0  0  0  0  0  0  0  0  0  0  0  0
  -22.5660  -14.6110   20.6740 O   0  0  0  0  0  0  0  0  0  0  0  0
  -22.6320  -12.0330   22.4550 H   0  0  0  0  0  0  0  0  0  0  0  0
  -21.3410  -13.1910   22.2900 H   0  0  0  0  0  0  0  0  0  0  0  0
  -25.6530  -15.1820   20.2940 N   0  0  0  0  0  0  0  0  0  0  0  0
  -24.9130  -15.8680   20.4090 H   0  0  0  0  0  0  0  0  0  0  0  0
  -26.5090  -15.5810   19.9320 H   0  0  0  0  0  0  0  0  0  0  0  0
  -31.9340  -23.9040   20.1930 N   0  0  0  0  0  4  0  0  0  0  0  0
  -31.3890  -24.7230   19.9620 H   0  0  0  0  0  0  0  0  0  0  0  0
  -32.7950  -24.2160   20.6120 H   0  0  0  0  0  0  0  0  0  0  0  0
  -31.1050  -23.1990   21.2060 C   0  0  0  0  0  2  0  0  0  0  0  0
  -30.2820  -24.2500   21.9650 C   0  0  0  0  0  2  0  0  0  0  0  0
  -29.7300  -25.0510   20.9260 O   0  0  0  0  0  0  0  0  0  0  0  0
  -29.3920  -26.3890   21.2580 C   0  0  0  0  0  2  0  0  0  0  0  0
  -29.0520  -27.0800   19.9250 C   0  0  0  0  0  2  0  0  0  0  0  0
  -27.7660  -26.6640   19.4290 O   0  0  0  0  0  0  0  0  0  0  0  0
  -24.3330  -31.7110   23.1210 C   0  0  0  0  0  0  0  0  0  0  0  0
  -26.6480  -27.4500   19.6220 C   0  0  0  0  0  0  0  0  0  0  0  0
  -22.9600  -30.4480   21.4850 C   0  0  0  0  0  3  0  0  0  0  0  0
  -24.2650  -28.9590   19.8730 C   0  0  0  0  0  0  0  0  0  0  0  0
  -25.4560  -30.7820   21.1040 C   0  0  0  0  0  2  0  0  0  0  0  0
  -25.4620  -29.4390   20.4110 C   0  0  0  0  0  0  0  0  0  0  0  0
  -26.6470  -28.6890   20.3040 C   0  0  0  0  0  3  0  0  0  0  0  0
  -25.4290  -26.9750   19.0850 C   0  0  0  0  0  3  0  0  0  0  0  0
  -24.2390  -27.7200   19.2080 C   0  0  0  0  0  3  0  0  0  0  0  0
  -23.0480  -29.8340   20.0570 C   0  0  0  0  0  2  0  0  0  0  0  0
  -24.2740  -30.9870   21.9660 N   0  0  0  0  0  0  0  0  0  0  0  0
  -23.3090  -31.9810   23.7600 O   0  0  0  0  0  0  0  0  0  0  0  0
  -22.3460  -29.3970   22.4350 C   0  0  0  0  0  0  0  0  0  0  0  0
  -21.0160  -29.2340   22.3620 N   0  0  0  0  0  0  0  0  0  0  0  0
  -23.0590  -28.7320   23.1910 O   0  0  0  0  0  0  0  0  0  0  0  0
  -20.5040  -29.8220   21.7220 H   0  0  0  0  0  0  0  0  0  0  0  0
  -17.6610  -28.0080   22.9080 C   0  0  0  0  0  0  0  0  0  0  0  0
  -20.2230  -28.2710   23.1260 C   0  0  0  0  0  3  0  0  0  0  0  0
  -20.3190  -26.8580   22.5090 C   0  0  0  0  0  2  0  0  0  0  0  0
  -19.1950  -26.5570   21.5130 C   0  0  0  0  0  2  0  0  0  0  0  0
  -17.8270  -26.6770   22.1930 C   0  0  0  0  0  2  0  0  0  0  0  0
  -18.7870  -28.7630   23.3340 C   0  0  0  0  0  0  0  0  0  0  0  0
  -18.5790  -30.0080   23.9640 C   0  0  0  0  0  3  0  0  0  0  0  0
  -17.2770  -30.5010   24.1730 C   0  0  0  0  0  3  0  0  0  0  0  0
  -16.1660  -29.7420   23.7670 C   0  0  0  0  0  3  0  0  0  0  0  0
  -16.3580  -28.4980   23.1380 C   0  0  0  0  0  3  0  0  0  0  0  0
  -25.6880  -32.2560   23.6780 C   0  0  0  0  0  3  0  0  0  0  0  0
  -25.4720  -33.6540   24.0750 N   0  0  0  0  0  0  0  0  0  0  0  0
  -25.8220  -34.7170   23.3370 C   0  0  0  0  0  0  0  0  0  0  0  0
  -26.4350  -34.6170   22.2670 O   0  0  0  0  0  0  0  0  0  0  0  0
  -24.9220  -33.8090   24.9070 H   0  0  0  0  0  0  0  0  0  0  0  0
  -24.1830  -36.6110   23.1250 C   0  0  0  0  0  1  0  0  0  0  0  0
  -25.4320  -36.1080   23.8650 C   0  0  0  0  0  3  0  0  0  0  0  0
  -27.6430  -36.8480   24.6350 C   0  0  0  0  0  1  0  0  0  0  0  0
  -26.5140  -37.1090   23.7480 N   0  0  0  0  0  0  0  0  0  0  0  0
  -26.1630  -38.0410   23.9490 H   0  0  0  0  0  0  0  0  0  0  0  0
  -26.2530  -31.4090   24.8810 C   0  0  1  0  0  0  0  0  0  0  0  0
  -25.2280  -31.1830   26.0170 C   0  0  0  0  0  1  0  0  0  0  0  0
  -26.7310  -30.0220   24.3850 C   0  0  0  0  0  1  0  0  0  0  0  0
  -27.4850  -32.1170   25.4920 C   0  0  0  0  0  1  0  0  0  0  0  0
  1 51  1  0
  2  1  1  0
  3  5  1  0
  3  2  1  0
  4  2  2  0
  6  3  1  0
  6  7  1  0
  7  8  1  0
  8 11  1  0
  8  9  1  0
 10  8  1  0
 11 12  1  0
 12 21  1  0
 13 19  1  0
 13 21  1  0
 14 19  1  0
 15 16  1  0
 15 14  1  0
 17 16  1  0
 17 26  1  0
 17 18  1  0
 19 18  1  0
 20 13  2  0
 21 22  1  0
 23 24  2  0
 24 43  1  0
 25 24  1  0
 25 28  1  0
 26 27  1  0
 26 23  1  0
 27 25  2  0
 28 29  1  0
 29 30  2  0
 31 34  1  0
 31 30  1  0
 32 31  2  0
 33 32  1  0
 33 28  2  0
 34 35  1  0
 35 36  1  0
 36 37  2  0
 38 37  1  0
 38 42  1  0
 39 38  2  0
 40 35  2  0
 40 39  1  0
 41 40  1  0
 43 44  1  0
 44 47  1  0
 44 46  1  0
 45 43  2  0
 48 49  1  0
 48 23  1  0
 50 48  1  0
 51 53  1  0
 51 54  1  0
 52 51  1  0
 54 55  1  0
 56 57  1  0
 56 55  1  0
 58 57  1  0
 59 61  1  0
 59 58  1  0
 60 71  2  0
 61 66  1  0
 62 70  1  0
 62 72  1  0
 63 69  1  0
 63 65  1  0
 64 70  1  0
 65 64  1  0
 66 65  2  0
 67 68  1  0
 67 61  2  0
 68 63  2  0
 69 62  1  0
 70 60  1  0
 72 74  2  0
 73 72  1  0
 75 73  1  0
 76 85  2  0
 76 81  1  0
 77 73  1  0
 77 81  1  0
 78 77  1  0
 79 80  1  0
 79 78  1  0
 80 76  1  0
 81 82  2  0
 82 83  1  0
 84 83  2  0
 85 84  1  0
 86 60  1  0
 86 87  1  0
 86 96  1  0
 87 90  1  0
 88 92  1  0
 88 87  1  0
 89 88  2  0
 92 91  1  0
 94 92  1  0
 94 95  1  0
 94 93  1  0
 96 99  1  1
 96 97  1  0
 98 96  1  0
M  ISO  4  13 100  21 100  58 101  59 101
M  END
>  <TORSDO>  (36) 
F 28

>  <SCORE>  (36) 
-10.776

>  <name>  (36) 
36

>  <ligand_id>  (36) 
36

>  <original_smiles>  (36) 
[H]c1c([H])c([H])c2c(c1[H])C([H])([H])C([H])([H])C([H])([H])C2([H])N([H])C(=O)C1([H])N(C(=O)C([H])(N([H])C(=O)C([H])(N([H])C([H])([H])[H])C([H])([H])[H])C(C([H])([H])[H])(C([H])([H])[H])C([H])([H])[H])C([H])([H])c2c([H])c(OC([H])([H])C([H])([H])OC([H])([H])C([H])([H])[N+]([H])([H])C([H])([H])C(=O)N([H])C([H])([H])C([H])([H])[N+]([H])([H])C([H])([H])C([H])([H])N([H])C(=O)N3C([H])([H])C([H])([H])C([H])([H])C([H])(n4nc(-c5c([H])c([H])c(Oc6c([H])c([H])c(F)c([H])c6F)c([H])c5[H])c(C(=O)N([H])[H])c4N([H])[H])C3([H])[H])c([H])c([H])c2C1([H])[H]

>  <smiles>  (36) 
[H]c1c([H])c([H])c2c(c1[H])C([H])([H])C([H])([H])C([H])([H])C2([H])N([H])C(=O)C1([H])N(C(=O)C([H])(N([H])C(=O)C([H])(N([H])C([H])([H])[H])C([H])([H])[H])C(C([H])([H])[H])(C([H])([H])[H])C([H])([H])[H])C([H])([H])c2c([H])c(OC([H])([H])C([H])([H])OC([H])([H])C([H])([H])[N+]([H])([H])C([H])([H])C(=O)N([H])C([H])([H])C([H])([H])[N+]([H])([H])C([H])([H])C([H])([H])N([H])C(=O)N3C([H])([H])C([H])([H])C([H])([H])C([H])(n4nc(-c5c([H])c([H])c(Oc6c([H])c([H])c(F)c([H])c6F)c([H])c5[H])c(C(=O)N([H])[H])c4N([H])[H])C3([H])[H])c([H])c([H])c2C1([H])[H]

$$$$
37:0:0
     RDKit          3D

109116  0  0  1  0  0  0  0  0999 V2000
  -25.5160  -25.4590   26.6730 N   0  0  0  0  0  4  0  0  0  0  0  0
  -25.4640  -25.2580   25.6870 H   0  0  0  0  0  0  0  0  0  0  0  0
  -24.6590  -25.9230   26.9340 H   0  0  0  0  0  0  0  0  0  0  0  0
  -25.6030  -24.1770   27.4120 C   0  0  0  0  0  2  0  0  0  0  0  0
  -24.9500  -23.0250   26.6190 C   0  0  0  0  0  2  0  0  0  0  0  0
  -25.1790  -21.6160   27.2100 C   0  0  0  0  0  2  0  0  0  0  0  0
  -26.5480  -21.0920   26.9870 N   0  0  0  0  0  4  0  0  0  0  0  0
  -27.2020  -21.5920   27.5670 H   0  0  0  0  0  0  0  0  0  0  0  0
  -26.8230  -21.2360   26.0270 H   0  0  0  0  0  0  0  0  0  0  0  0
  -26.6950  -19.6470   27.2730 C   0  0  0  0  0  2  0  0  0  0  0  0
  -28.1550  -19.2070   27.1330 C   0  0  0  0  0  2  0  0  0  0  0  0
  -28.5880  -19.4980   25.8080 O   0  0  0  0  0  0  0  0  0  0  0  0
  -29.9660  -19.2010   25.6260 C   0  0  0  0  0  2  0  0  0  0  0  0
  -30.3810  -19.5150   24.1850 C   0  0  0  0  0  2  0  0  0  0  0  0
  -29.7860  -18.5240   23.1770 C   0  0  0  0  0  2  0  0  0  0  0  0
  -30.4450  -18.6250   21.7940 C   0  0  0  0  0  2  0  0  0  0  0  0
  -29.7030  -17.8330   20.7070 C   0  0  0  0  0  2  0  0  0  0  0  0
  -30.3750  -15.4380   20.6460 C   0  0  0  0  0  0  0  0  0  0  0  0
  -30.4090  -13.1270   19.8110 C   0  0  0  0  0  2  0  0  0  0  0  0
  -29.5480  -13.0510   18.5340 C   0  0  0  0  0  2  0  0  0  0  0  0
  -28.0720  -12.7880   18.8850 C   0  0  0  0  0  2  0  0  0  0  0  0
  -27.5400  -13.7410   19.9890 C   0  0  0  0  0  3  0  0  0  0  0  0
  -28.5210  -13.8080   21.1830 C   0  0  0  0  0  2  0  0  0  0  0  0
  -29.8500  -14.1850   20.6640 N   0  0  0  0  0  0  0  0  0  0  0  0
  -31.4800  -15.7010   20.1640 O   0  0  0  0  0  0  0  0  0  0  0  0
  -29.5440  -16.4140   21.0390 N   0  0  0  0  0  0  0  0  0  0  0  0
  -28.6600  -16.1250   21.4280 H   0  0  0  0  0  0  0  0  0  0  0  0
  -25.0790  -14.1620   20.6160 C   0  0  0  0  0  0  0  0  0  0  0  0
  -24.0570  -13.3080   20.9350 C   0  0  0  0  0  0  0  0  0  0  0  0
  -24.6150  -11.9930   20.8980 C   0  0  0  0  0  0  0  0  0  0  0  0
  -26.1940  -13.3630   20.4120 N   0  0  0  0  0  0  0  0  0  0  0  0
  -25.9150  -12.0530   20.6360 N   0  0  0  0  0  0  0  0  0  0  0  0
  -23.9760  -10.6790   21.0430 C   0  0  0  0  0  0  0  0  0  0  0  0
  -24.4390   -9.7340   21.9860 C   0  0  0  0  0  3  0  0  0  0  0  0
  -23.7980   -8.4850   22.1200 C   0  0  0  0  0  3  0  0  0  0  0  0
  -22.6820   -8.1690   21.3090 C   0  0  0  0  0  0  0  0  0  0  0  0
  -22.2390   -9.1040   20.3560 C   0  0  0  0  0  3  0  0  0  0  0  0
  -22.8810  -10.3460   20.2220 C   0  0  0  0  0  3  0  0  0  0  0  0
  -22.0110   -6.9700   21.3530 O   0  0  0  0  0  0  0  0  0  0  0  0
  -21.9130   -6.2410   22.5110 C   0  0  0  0  0  0  0  0  0  0  0  0
  -21.3760   -6.7930   23.6940 C   0  0  0  0  0  3  0  0  0  0  0  0
  -21.2300   -5.9880   24.8420 C   0  0  0  0  0  3  0  0  0  0  0  0
  -21.6100   -4.6320   24.8060 C   0  0  0  0  0  0  0  0  0  0  0  0
  -22.1390   -4.0800   23.6270 C   0  0  0  0  0  3  0  0  0  0  0  0
  -22.2870   -4.8820   22.4810 C   0  0  0  0  0  0  0  0  0  0  0  0
  -22.7790   -4.3400   21.3410 F   0  0  0  0  0  0  0  0  0  0  0  0
  -21.4610   -3.8590   25.9060 F   0  0  0  0  0  0  0  0  0  0  0  0
  -22.6210  -13.6760   21.1720 C   0  0  0  0  0  0  0  0  0  0  0  0
  -21.9280  -12.9230   22.0180 N   0  0  0  0  0  0  0  0  0  0  0  0
  -22.1200  -14.6680   20.6420 O   0  0  0  0  0  0  0  0  0  0  0  0
  -22.3500  -12.1210   22.4620 H   0  0  0  0  0  0  0  0  0  0  0  0
  -20.9650  -13.1470   22.2210 H   0  0  0  0  0  0  0  0  0  0  0  0
  -25.1500  -15.5450   20.4680 N   0  0  0  0  0  0  0  0  0  0  0  0
  -24.3360  -16.1420   20.5560 H   0  0  0  0  0  0  0  0  0  0  0  0
  -25.9800  -16.0460   20.1780 H   0  0  0  0  0  0  0  0  0  0  0  0
  -26.6560  -26.3750   26.8860 C   0  0  0  0  0  2  0  0  0  0  0  0
  -26.5220  -27.6500   26.0350 C   0  0  0  0  0  2  0  0  0  0  0  0
  -27.6050  -28.7080   26.3300 C   0  0  0  0  0  2  0  0  0  0  0  0
  -29.0410  -28.3080   25.9400 C   0  0  0  0  0  2  0  0  0  0  0  0
  -30.2410  -28.7260   23.9920 C   0  0  0  0  0  3  0  0  0  0  0  0
  -29.1840  -28.2200   24.4920 N   0  0  0  0  0  0  0  0  0  0  0  0
  -30.5530  -28.7390   22.5080 C   0  0  0  0  0  2  0  0  0  0  0  0
  -30.6540  -27.3380   21.8730 C   0  0  0  0  0  2  0  0  0  0  0  0
  -29.3280  -26.7080   21.6850 N   0  0  0  0  0  4  0  0  0  0  0  0
  -28.7260  -27.4020   21.2700 H   0  0  0  0  0  0  0  0  0  0  0  0
  -28.9400  -26.4670   22.5860 H   0  0  0  0  0  0  0  0  0  0  0  0
  -29.3070  -25.5450   20.7660 C   0  0  0  0  0  2  0  0  0  0  0  0
  -28.0350  -25.5690   19.9100 C   0  0  0  0  0  2  0  0  0  0  0  0
  -27.9900  -26.8560   19.2940 O   0  0  0  0  0  0  0  0  0  0  0  0
  -24.2450  -31.7150   22.8400 C   0  0  0  0  0  0  0  0  0  0  0  0
  -26.7930  -27.5170   19.4010 C   0  0  0  0  0  0  0  0  0  0  0  0
  -22.9650  -30.3460   21.2200 C   0  0  0  0  0  3  0  0  0  0  0  0
  -24.3590  -28.9170   19.6350 C   0  0  0  0  0  0  0  0  0  0  0  0
  -25.4510  -30.8070   20.8570 C   0  0  0  0  0  2  0  0  0  0  0  0
  -25.5360  -29.4670   20.1590 C   0  0  0  0  0  0  0  0  0  0  0  0
  -26.7580  -28.7790   20.0290 C   0  0  0  0  0  3  0  0  0  0  0  0
  -25.6010  -26.9650   18.8790 C   0  0  0  0  0  3  0  0  0  0  0  0
  -24.3850  -27.6640   18.9930 C   0  0  0  0  0  3  0  0  0  0  0  0
  -23.0970  -29.7340   19.8000 C   0  0  0  0  0  2  0  0  0  0  0  0
  -24.2430  -30.9650   21.7000 N   0  0  0  0  0  0  0  0  0  0  0  0
  -23.1980  -31.9300   23.4640 O   0  0  0  0  0  0  0  0  0  0  0  0
  -22.4110  -29.2650   22.1730 C   0  0  0  0  0  0  0  0  0  0  0  0
  -21.0940  -29.0170   22.0920 N   0  0  0  0  0  0  0  0  0  0  0  0
  -23.1590  -28.6510   22.9390 O   0  0  0  0  0  0  0  0  0  0  0  0
  -20.5490  -29.5670   21.4420 H   0  0  0  0  0  0  0  0  0  0  0  0
  -17.8200  -27.5870   22.6210 C   0  0  0  0  0  0  0  0  0  0  0  0
  -20.3560  -28.0190   22.8640 C   0  0  0  0  0  3  0  0  0  0  0  0
  -20.5510  -26.6050   22.2710 C   0  0  0  0  0  2  0  0  0  0  0  0
  -19.4610  -26.2160   21.2680 C   0  0  0  0  0  2  0  0  0  0  0  0
  -18.0810  -26.2580   21.9310 C   0  0  0  0  0  2  0  0  0  0  0  0
  -18.8890  -28.4200   23.0440 C   0  0  0  0  0  0  0  0  0  0  0  0
  -18.5940  -29.6620   23.6490 C   0  0  0  0  0  3  0  0  0  0  0  0
  -17.2620  -30.0740   23.8340 C   0  0  0  0  0  3  0  0  0  0  0  0
  -16.2060  -29.2390   23.4300 C   0  0  0  0  0  3  0  0  0  0  0  0
  -16.4850  -27.9960   22.8290 C   0  0  0  0  0  3  0  0  0  0  0  0
  -25.5540  -32.3580   23.3980 C   0  0  0  0  0  3  0  0  0  0  0  0
  -26.2400  -31.4970   24.5260 C   0  0  1  0  0  0  0  0  0  0  0  0
  -25.2870  -31.0980   25.6750 C   0  0  0  0  0  1  0  0  0  0  0  0
  -26.8340  -30.2010   23.9280 C   0  0  0  0  0  1  0  0  0  0  0  0
  -27.4240  -32.2800   25.1390 C   0  0  0  0  0  1  0  0  0  0  0  0
  -25.2130  -33.6970   23.8950 N   0  0  0  0  0  0  0  0  0  0  0  0
  -25.4710  -34.8380   23.2430 C   0  0  0  0  0  0  0  0  0  0  0  0
  -26.0990  -34.8760   22.1820 O   0  0  0  0  0  0  0  0  0  0  0  0
  -24.6490  -33.7360   24.7310 H   0  0  0  0  0  0  0  0  0  0  0  0
  -23.6670  -36.5840   23.1600 C   0  0  0  0  0  1  0  0  0  0  0  0
  -24.9570  -36.1480   23.8710 C   0  0  0  0  0  3  0  0  0  0  0  0
  -27.1000  -37.0140   24.6980 C   0  0  0  0  0  1  0  0  0  0  0  0
  -25.9450  -37.2480   23.8330 N   0  0  0  0  0  0  0  0  0  0  0  0
  -25.5190  -38.1270   24.1130 H   0  0  0  0  0  0  0  0  0  0  0  0
  1 56  1  0
  1  3  1  0
  1  4  1  0
  2  1  1  0
  5  6  1  0
  5  4  1  0
  7  6  1  0
  7 10  1  0
  7  8  1  0
  9  7  1  0
 11 10  1  0
 12 11  1  0
 13 12  1  0
 14 13  1  0
 15 14  1  0
 16 15  1  0
 17 26  1  0
 17 16  1  0
 18 24  1  0
 18 26  1  0
 19 24  1  0
 20 21  1  0
 20 19  1  0
 22 21  1  0
 22 31  1  0
 22 23  1  0
 24 23  1  0
 25 18  2  0
 26 27  1  0
 28 29  2  0
 29 48  1  0
 30 29  1  0
 30 33  1  0
 31 28  1  0
 31 32  1  0
 32 30  2  0
 33 34  1  0
 34 35  2  0
 36 39  1  0
 36 35  1  0
 37 36  2  0
 38 37  1  0
 38 33  2  0
 39 40  1  0
 40 41  1  0
 41 42  2  0
 43 42  1  0
 43 47  1  0
 44 43  2  0
 45 40  2  0
 45 44  1  0
 46 45  1  0
 48 49  1  0
 49 52  1  0
 49 51  1  0
 50 48  2  0
 53 54  1  0
 53 28  1  0
 55 53  1  0
 57 58  1  0
 57 56  1  0
 59 58  1  0
 60 61  2  0
 61 59  1  0
 62 60  1  0
 63 62  1  0
 64 63  1  0
 64 66  1  0
 65 64  1  0
 67 64  1  0
 68 67  1  0
 69 71  1  0
 69 68  1  0
 70 81  2  0
 71 76  1  0
 72 80  1  0
 72 82  1  0
 73 79  1  0
 73 75  1  0
 74 80  1  0
 75 74  1  0
 76 75  2  0
 77 78  1  0
 77 71  2  0
 78 73  2  0
 79 72  1  0
 80 70  1  0
 82 84  2  0
 83 82  1  0
 85 83  1  0
 86 95  2  0
 86 91  1  0
 87 83  1  0
 87 91  1  0
 88 87  1  0
 89 90  1  0
 89 88  1  0
 90 86  1  0
 91 92  2  0
 92 93  1  0
 94 93  2  0
 95 94  1  0
 96 70  1  0
 96101  1  0
 96 97  1  0
 97100  1  1
 97 98  1  0
 99 97  1  0
101104  1  0
102106  1  0
102101  1  0
103102  2  0
106105  1  0
108106  1  0
108109  1  0
108107  1  0
M  ISO  4  18 100  26 100  68 101  69 101
M  END
>  <TORSDO>  (37) 
F 38

>  <SCORE>  (37) 
10.422

>  <name>  (37) 
37

>  <ligand_id>  (37) 
37

>  <original_smiles>  (37) 
[H]C(=NC([H])([H])C([H])([H])C([H])([H])C([H])([H])[N+]([H])([H])C([H])([H])C([H])([H])C([H])([H])[N+]([H])([H])C([H])([H])C([H])([H])OC([H])([H])C([H])([H])C([H])([H])C([H])([H])C([H])([H])N([H])C(=O)N1C([H])([H])C([H])([H])C([H])([H])C([H])(n2nc(-c3c([H])c([H])c(Oc4c([H])c([H])c(F)c([H])c4F)c([H])c3[H])c(C(=O)N([H])[H])c2N([H])[H])C1([H])[H])C([H])([H])C([H])([H])[N+]([H])([H])C([H])([H])C([H])([H])Oc1c([H])c([H])c2c(c1[H])C([H])([H])N(C(=O)C([H])(N([H])C(=O)C([H])(N([H])C([H])([H])[H])C([H])([H])[H])C(C([H])([H])[H])(C([H])([H])[H])C([H])([H])[H])C([H])(C(=O)N([H])C1([H])c3c([H])c([H])c([H])c([H])c3C([H])([H])C([H])([H])C1([H])[H])C2([H])[H]

>  <smiles>  (37) 
[H]C(=NC([H])([H])C([H])([H])C([H])([H])C([H])([H])[N+]([H])([H])C([H])([H])C([H])([H])C([H])([H])[N+]([H])([H])C([H])([H])C([H])([H])OC([H])([H])C([H])([H])C([H])([H])C([H])([H])C([H])([H])N([H])C(=O)N1C([H])([H])C([H])([H])C([H])([H])C([H])(n2nc(-c3c([H])c([H])c(Oc4c([H])c([H])c(F)c([H])c4F)c([H])c3[H])c(C(=O)N([H])[H])c2N([H])[H])C1([H])[H])C([H])([H])C([H])([H])[N+]([H])([H])C([H])([H])C([H])([H])Oc1c([H])c([H])c2c(c1[H])C([H])([H])N(C(=O)C([H])(N([H])C(=O)C([H])(N([H])C([H])([H])[H])C([H])([H])[H])C(C([H])([H])[H])(C([H])([H])[H])C([H])([H])[H])C([H])(C(=O)N([H])C1([H])c3c([H])c([H])c([H])c([H])c3C([H])([H])C([H])([H])C1([H])[H])C2([H])[H]

$$$$
38:0:0
     RDKit          3D

108115  0  0  1  0  0  0  0  0999 V2000
  -31.8210  -23.5330   21.2050 C   0  0  0  0  0  0  0  0  0  0  0  0
  -32.3800  -22.0920   21.1570 C   0  0  0  0  0  0  0  0  0  0  0  0
  -31.9150  -21.2180   22.0650 N   0  0  0  0  0  0  0  0  0  0  0  0
  -33.2750  -21.7990   20.3620 O   0  0  0  0  0  0  0  0  0  0  0  0
  -31.1700  -21.5680   22.6550 H   0  0  0  0  0  0  0  0  0  0  0  0
  -32.3880  -19.8700   22.4180 C   0  0  0  0  0  2  0  0  0  0  0  0
  -32.9790  -19.0100   21.2770 C   0  0  0  0  0  2  0  0  0  0  0  0
  -34.3780  -19.3530   20.9810 N   0  0  0  0  0  4  0  0  0  0  0  0
  -34.4070  -20.3390   20.7540 H   0  0  0  0  0  0  0  0  0  0  0  0
  -34.7090  -18.8320   20.1910 H   0  0  0  0  0  0  0  0  0  0  0  0
  -34.9720  -19.1630   21.7660 H   0  0  0  0  0  0  0  0  0  0  0  0
  -29.2380  -23.2400   21.1120 C   0  0  0  0  0  0  0  0  0  0  0  0
  -30.3960  -23.8220   21.4450 N   0  0  0  0  0  4  0  0  0  0  0  0
  -28.2810  -23.3460   21.8810 O   0  0  0  0  0  0  0  0  0  0  0  0
  -30.2840  -24.3820   22.2780 H   0  0  0  0  0  0  0  0  0  0  0  0
  -28.1020  -21.8720   19.4820 C   0  0  0  0  0  3  0  0  0  0  0  0
  -29.1620  -22.6500   19.7830 C   0  0  0  0  0  3  0  0  0  0  0  0
  -27.7640  -21.1420   18.2660 C   0  0  0  0  0  3  0  0  0  0  0  0
  -28.4070  -20.9290   17.0960 C   0  0  0  0  0  3  0  0  0  0  0  0
  -29.7720  -21.3900   16.5800 C   0  0  0  0  0  2  0  0  0  0  0  0
  -30.5320  -20.3610   15.6610 C   0  0  0  0  0  2  0  0  0  0  0  0
  -30.2950  -18.8240   15.4710 C   0  0  0  0  0  2  0  0  0  0  0  0
  -31.2480  -17.9860   13.3150 C   0  0  0  0  0  0  0  0  0  0  0  0
  -32.1270  -17.7600   11.0280 C   0  0  0  0  0  2  0  0  0  0  0  0
  -32.6750  -19.1130   10.5380 C   0  0  0  0  0  2  0  0  0  0  0  0
  -31.5580  -19.9800    9.9260 C   0  0  0  0  0  2  0  0  0  0  0  0
  -30.2990  -20.0590   10.8290 C   0  0  0  0  0  3  0  0  0  0  0  0
  -29.8820  -18.6490   11.3010 C   0  0  0  0  0  2  0  0  0  0  0  0
  -31.0360  -18.0230   11.9740 N   0  0  0  0  0  0  0  0  0  0  0  0
  -32.3070  -17.6140   13.8290 O   0  0  0  0  0  0  0  0  0  0  0  0
  -30.2340  -18.4390   14.0550 N   0  0  0  0  0  0  0  0  0  0  0  0
  -29.3800  -18.6380   13.5570 H   0  0  0  0  0  0  0  0  0  0  0  0
  -28.6700  -22.0090   10.3990 C   0  0  0  0  0  0  0  0  0  0  0  0
  -27.7110  -22.2060    9.4430 C   0  0  0  0  0  0  0  0  0  0  0  0
  -27.7260  -21.0370    8.6240 C   0  0  0  0  0  0  0  0  0  0  0  0
  -29.2050  -20.7540   10.1510 N   0  0  0  0  0  0  0  0  0  0  0  0
  -28.5940  -20.1510    9.0980 N   0  0  0  0  0  0  0  0  0  0  0  0
  -26.9980  -20.7280    7.3850 C   0  0  0  0  0  0  0  0  0  0  0  0
  -26.2180  -19.5550    7.2570 C   0  0  0  0  0  3  0  0  0  0  0  0
  -25.5170  -19.2870    6.0610 C   0  0  0  0  0  3  0  0  0  0  0  0
  -25.5840  -20.1980    4.9800 C   0  0  0  0  0  0  0  0  0  0  0  0
  -26.3800  -21.3510    5.1030 C   0  0  0  0  0  3  0  0  0  0  0  0
  -27.0820  -21.6130    6.2930 C   0  0  0  0  0  3  0  0  0  0  0  0
  -24.9580  -20.0090    3.7730 O   0  0  0  0  0  0  0  0  0  0  0  0
  -23.8020  -19.2770    3.6710 C   0  0  0  0  0  0  0  0  0  0  0  0
  -22.6310  -19.6270    4.3770 C   0  0  0  0  0  3  0  0  0  0  0  0
  -21.4450  -18.8900    4.1860 C   0  0  0  0  0  3  0  0  0  0  0  0
  -21.4270  -17.8060    3.2880 C   0  0  0  0  0  0  0  0  0  0  0  0
  -22.5910  -17.4590    2.5790 C   0  0  0  0  0  3  0  0  0  0  0  0
  -23.7730  -18.1940    2.7690 C   0  0  0  0  0  0  0  0  0  0  0  0
  -24.8870  -17.8680    2.0680 F   0  0  0  0  0  0  0  0  0  0  0  0
  -20.2870  -17.1030    3.0980 F   0  0  0  0  0  0  0  0  0  0  0  0
  -26.8930  -23.4490    9.2360 C   0  0  0  0  0  0  0  0  0  0  0  0
  -25.6640  -23.2980    8.7550 N   0  0  0  0  0  0  0  0  0  0  0  0
  -27.3210  -24.5590    9.5480 O   0  0  0  0  0  0  0  0  0  0  0  0
  -25.3060  -22.3840    8.5200 H   0  0  0  0  0  0  0  0  0  0  0  0
  -25.0700  -24.1040    8.6270 H   0  0  0  0  0  0  0  0  0  0  0  0
  -29.1420  -22.7900   11.4500 N   0  0  0  0  0  0  0  0  0  0  0  0
  -28.8160  -23.7370   11.6130 H   0  0  0  0  0  0  0  0  0  0  0  0
  -29.9160  -22.5270   12.0460 H   0  0  0  0  0  0  0  0  0  0  0  0
  -32.3870  -24.5460   20.1790 C   0  0  0  0  0  2  0  0  0  0  0  0
  -31.7720  -24.4400   18.8900 O   0  0  0  0  0  0  0  0  0  0  0  0
  -32.0550  -25.5790   18.0770 C   0  0  0  0  0  2  0  0  0  0  0  0
  -31.1900  -25.6290   16.8000 C   0  0  0  0  0  2  0  0  0  0  0  0
  -29.7780  -25.5630   17.0180 O   0  0  0  0  0  0  0  0  0  0  0  0
  -29.2060  -26.5710   17.8490 C   0  0  0  0  0  2  0  0  0  0  0  0
  -28.6880  -25.8840   19.1230 C   0  0  0  0  0  2  0  0  0  0  0  0
  -28.3520  -26.7860   20.1640 O   0  0  0  0  0  0  0  0  0  0  0  0
  -24.4330  -31.7220   23.3840 C   0  0  0  0  0  0  0  0  0  0  0  0
  -27.1550  -27.4620   20.1310 C   0  0  0  0  0  0  0  0  0  0  0  0
  -23.4230  -30.1820   21.7270 C   0  0  0  0  0  3  0  0  0  0  0  0
  -24.8030  -29.0040   20.0560 C   0  0  0  0  0  0  0  0  0  0  0  0
  -25.8280  -30.8300   21.4890 C   0  0  0  0  0  2  0  0  0  0  0  0
  -25.9410  -29.4990   20.7270 C   0  0  0  0  0  0  0  0  0  0  0  0
  -27.1090  -28.7130   20.7750 C   0  0  0  0  0  3  0  0  0  0  0  0
  -25.9970  -26.9750   19.4750 C   0  0  0  0  0  3  0  0  0  0  0  0
  -24.8200  -27.7430   19.4410 C   0  0  0  0  0  3  0  0  0  0  0  0
  -23.5150  -29.7860   20.2360 C   0  0  0  0  0  2  0  0  0  0  0  0
  -24.5310  -31.0400   22.2070 N   0  0  0  0  0  0  0  0  0  0  0  0
  -23.3330  -31.9490   23.9050 O   0  0  0  0  0  0  0  0  0  0  0  0
  -22.4860  -29.3710   22.6450 C   0  0  0  0  0  0  0  0  0  0  0  0
  -21.1960  -29.2640   22.3190 N   0  0  0  0  0  0  0  0  0  0  0  0
  -22.9530  -28.7210   23.5930 O   0  0  0  0  0  0  0  0  0  0  0  0
  -20.8300  -29.8020   21.5450 H   0  0  0  0  0  0  0  0  0  0  0  0
  -17.7740  -28.1430   22.5930 C   0  0  0  0  0  0  0  0  0  0  0  0
  -20.3070  -28.3080   22.9780 C   0  0  0  0  0  3  0  0  0  0  0  0
  -20.4120  -26.9140   22.3170 C   0  0  0  0  0  2  0  0  0  0  0  0
  -19.3470  -26.6820   21.2430 C   0  0  0  0  0  2  0  0  0  0  0  0
  -17.9460  -26.8280   21.8450 C   0  0  0  0  0  2  0  0  0  0  0  0
  -18.8910  -28.8460   23.1090 C   0  0  0  0  0  0  0  0  0  0  0  0
  -18.6940  -30.0770   23.7680 C   0  0  0  0  0  3  0  0  0  0  0  0
  -17.4000  -30.6060   23.9230 C   0  0  0  0  0  3  0  0  0  0  0  0
  -16.2920  -29.9030   23.4200 C   0  0  0  0  0  3  0  0  0  0  0  0
  -16.4790  -28.6740   22.7610 C   0  0  0  0  0  3  0  0  0  0  0  0
  -25.6980  -32.2900   24.0990 C   0  0  0  0  0  3  0  0  0  0  0  0
  -25.4910  -33.7300   24.2880 N   0  0  0  0  0  0  0  0  0  0  0  0
  -25.9960  -34.6780   23.4860 C   0  0  0  0  0  0  0  0  0  0  0  0
  -26.7480  -34.4250   22.5430 O   0  0  0  0  0  0  0  0  0  0  0  0
  -24.8390  -34.0050   25.0050 H   0  0  0  0  0  0  0  0  0  0  0  0
  -24.4780  -36.5720   22.8280 C   0  0  0  0  0  1  0  0  0  0  0  0
  -25.6030  -36.1370   23.7790 C   0  0  0  0  0  3  0  0  0  0  0  0
  -27.7500  -36.8900   24.7040 C   0  0  0  0  0  1  0  0  0  0  0  0
  -26.7340  -37.0860   23.6730 N   0  0  0  0  0  0  0  0  0  0  0  0
  -26.4010  -38.0460   23.7310 H   0  0  0  0  0  0  0  0  0  0  0  0
  -25.9990  -31.5800   25.4760 C   0  0  1  0  0  0  0  0  0  0  0  0
  -24.7810  -31.5140   26.4240 C   0  0  0  0  0  1  0  0  0  0  0  0
  -26.4980  -30.1340   25.2410 C   0  0  0  0  0  1  0  0  0  0  0  0
  -27.1310  -32.3310   26.2150 C   0  0  0  0  0  1  0  0  0  0  0  0
  1 13  2  3
  2  1  1  0
  2  3  1  0
  3  6  1  0
  3  5  1  0
  4  2  2  0
  7  6  1  0
  8  7  1  0
  8 11  1  0
  9  8  1  0
 10  8  1  0
 12 13  1  0
 12 14  2  0
 13 15  1  0
 16 17  2  0
 17 12  1  0
 18 16  1  0
 19 18  2  0
 20 19  1  0
 21 20  1  0
 22 21  1  0
 23 30  2  0
 23 31  1  0
 24 29  1  0
 25 24  1  0
 26 25  1  0
 27 26  1  0
 27 28  1  0
 28 29  1  0
 29 23  1  0
 31 22  1  0
 32 31  1  0
 33 58  1  0
 34 33  2  0
 35 37  2  0
 35 34  1  0
 36 33  1  0
 36 27  1  0
 37 36  1  0
 38 35  1  0
 39 38  1  0
 40 39  2  0
 41 42  2  0
 41 40  1  0
 42 43  1  0
 43 38  2  0
 44 41  1  0
 45 44  1  0
 45 46  1  0
 47 46  2  0
 48 47  1  0
 49 50  1  0
 49 48  2  0
 50 45  2  0
 51 50  1  0
 52 48  1  0
 53 34  1  0
 53 55  2  0
 54 53  1  0
 56 54  1  0
 57 54  1  0
 58 59  1  0
 58 60  1  0
 61  1  1  0
 62 61  1  0
 63 62  1  0
 64 65  1  0
 64 63  1  0
 65 66  1  0
 66 67  1  0
 67 68  1  0
 69 80  2  0
 70 68  1  0
 70 75  1  0
 71 79  1  0
 71 81  1  0
 72 78  1  0
 72 74  1  0
 73 79  1  0
 74 75  2  0
 74 73  1  0
 76 70  2  0
 77 76  1  0
 77 72  2  0
 78 71  1  0
 79 69  1  0
 81 83  2  0
 82 81  1  0
 84 82  1  0
 85 94  2  0
 85 90  1  0
 86 82  1  0
 86 90  1  0
 87 86  1  0
 88 89  1  0
 88 87  1  0
 89 85  1  0
 90 91  2  0
 91 92  1  0
 93 92  2  0
 94 93  1  0
 95 69  1  0
 95 96  1  0
 95105  1  0
 96 99  1  0
 97101  1  0
 97 96  1  0
 98 97  2  0
101100  1  0
103104  1  0
103101  1  0
103102  1  0
105108  1  1
105106  1  0
107105  1  0
M  ISO  4  23 100  31 100  67 101  68 101
M  END
>  <TORSDO>  (38) 
F 33

>  <SCORE>  (38) 
-5.632

>  <name>  (38) 
38

>  <ligand_id>  (38) 
38

>  <original_smiles>  (38) 
[H]C(C(=O)N([H])C([H])(C(=O)N([H])C([H])([H])C([H])([H])[N+]([H])([H])[H])C([H])([H])OC([H])([H])C([H])([H])OC([H])([H])C([H])([H])Oc1c([H])c([H])c2c(c1[H])C([H])([H])N(C(=O)C([H])(N([H])C(=O)C([H])(N([H])C([H])([H])[H])C([H])([H])[H])C(C([H])([H])[H])(C([H])([H])[H])C([H])([H])[H])C([H])(C(=O)N([H])C1([H])c3c([H])c([H])c([H])c([H])c3C([H])([H])C([H])([H])C1([H])[H])C2([H])[H])=C([H])C([H])=C([H])C([H])([H])C([H])([H])C([H])([H])N([H])C(=O)N1C([H])([H])C([H])([H])C([H])([H])C([H])(n2nc(-c3c([H])c([H])c(Oc4c([H])c([H])c(F)c([H])c4F)c([H])c3[H])c(C(=O)N([H])[H])c2N([H])[H])C1([H])[H]

>  <smiles>  (38) 
[H]C(C(=O)N([H])C([H])(C(=O)N([H])C([H])([H])C([H])([H])[N+]([H])([H])[H])C([H])([H])OC([H])([H])C([H])([H])OC([H])([H])C([H])([H])Oc1c([H])c([H])c2c(c1[H])C([H])([H])N(C(=O)C([H])(N([H])C(=O)C([H])(N([H])C([H])([H])[H])C([H])([H])[H])C(C([H])([H])[H])(C([H])([H])[H])C([H])([H])[H])C([H])(C(=O)N([H])C1([H])c3c([H])c([H])c([H])c([H])c3C([H])([H])C([H])([H])C1([H])[H])C2([H])[H])=C([H])C([H])=C([H])C([H])([H])C([H])([H])C([H])([H])N([H])C(=O)N1C([H])([H])C([H])([H])C([H])([H])C([H])(n2nc(-c3c([H])c([H])c(Oc4c([H])c([H])c(F)c([H])c4F)c([H])c3[H])c(C(=O)N([H])[H])c2N([H])[H])C1([H])[H]

$$$$
39:0:0
     RDKit          3D

100107  0  0  1  0  0  0  0  0999 V2000
  -23.7500  -22.6970   20.7540 C   0  0  0  0  0  2  0  0  0  0  0  0
  -24.0660  -24.1440   20.8030 N   0  0  0  0  0  4  0  0  0  0  0  0
  -24.5440  -24.4020   19.9550 H   0  0  0  0  0  0  0  0  0  0  0  0
  -23.1970  -24.6530   20.8260 H   0  0  0  0  0  0  0  0  0  0  0  0
  -24.8880  -24.5780   21.9520 C   0  0  0  0  0  2  0  0  0  0  0  0
  -26.3840  -24.2660   21.7350 C   0  0  0  0  0  2  0  0  0  0  0  0
  -27.2200  -25.1440   22.5470 N   0  0  0  0  0  0  0  0  0  0  0  0
  -27.1460  -24.8780   23.5260 H   0  0  0  0  0  0  0  0  0  0  0  0
  -28.6220  -25.0840   22.1330 C   0  0  0  0  0  2  0  0  0  0  0  0
  -29.1160  -26.4420   21.5910 C   0  0  0  0  0  2  0  0  0  0  0  0
  -28.5400  -26.7280   20.3140 O   0  0  0  0  0  0  0  0  0  0  0  0
  -24.6220  -31.8640   23.3310 C   0  0  0  0  0  0  0  0  0  0  0  0
  -27.3880  -27.4770   20.3180 C   0  0  0  0  0  0  0  0  0  0  0  0
  -23.4690  -30.4610   21.6480 C   0  0  0  0  0  3  0  0  0  0  0  0
  -24.9750  -28.9350   20.2620 C   0  0  0  0  0  0  0  0  0  0  0  0
  -25.9900  -30.8460   21.5180 C   0  0  0  0  0  2  0  0  0  0  0  0
  -26.1040  -29.4750   20.8890 C   0  0  0  0  0  0  0  0  0  0  0  0
  -27.3140  -28.7520   20.9220 C   0  0  0  0  0  3  0  0  0  0  0  0
  -26.2540  -26.9570   19.6650 C   0  0  0  0  0  3  0  0  0  0  0  0
  -25.0410  -27.6720   19.6470 C   0  0  0  0  0  3  0  0  0  0  0  0
  -23.7210  -29.7800   20.2750 C   0  0  0  0  0  2  0  0  0  0  0  0
  -24.7100  -31.0710   22.2260 N   0  0  0  0  0  0  0  0  0  0  0  0
  -23.5250  -32.1280   23.8440 O   0  0  0  0  0  0  0  0  0  0  0  0
  -22.7980  -29.4340   22.5880 C   0  0  0  0  0  0  0  0  0  0  0  0
  -21.4800  -29.2380   22.4140 N   0  0  0  0  0  0  0  0  0  0  0  0
  -23.4590  -28.8130   23.4230 O   0  0  0  0  0  0  0  0  0  0  0  0
  -21.0090  -29.7920   21.7120 H   0  0  0  0  0  0  0  0  0  0  0  0
  -18.1030  -28.0180   22.7920 C   0  0  0  0  0  0  0  0  0  0  0  0
  -20.6470  -28.2930   23.1540 C   0  0  0  0  0  3  0  0  0  0  0  0
  -20.7810  -26.8630   22.5810 C   0  0  0  0  0  2  0  0  0  0  0  0
  -19.7180  -26.5340   21.5280 C   0  0  0  0  0  2  0  0  0  0  0  0
  -18.3130  -26.6710   22.1220 C   0  0  0  0  0  2  0  0  0  0  0  0
  -19.2000  -28.7860   23.2630 C   0  0  0  0  0  0  0  0  0  0  0  0
  -18.9520  -30.0490   23.8440 C   0  0  0  0  0  3  0  0  0  0  0  0
  -17.6390  -30.5420   23.9630 C   0  0  0  0  0  3  0  0  0  0  0  0
  -16.5550  -29.7690   23.5110 C   0  0  0  0  0  3  0  0  0  0  0  0
  -16.7890  -28.5090   22.9310 C   0  0  0  0  0  3  0  0  0  0  0  0
  -25.8890  -32.4970   23.9890 C   0  0  0  0  0  3  0  0  0  0  0  0
  -25.5850  -33.9060   24.2700 N   0  0  0  0  0  0  0  0  0  0  0  0
  -25.9570  -34.9320   23.4940 C   0  0  0  0  0  0  0  0  0  0  0  0
  -26.6660  -34.7930   22.4920 O   0  0  0  0  0  0  0  0  0  0  0  0
  -24.9660  -34.0880   25.0460 H   0  0  0  0  0  0  0  0  0  0  0  0
  -24.2610  -36.7270   23.0200 C   0  0  0  0  0  1  0  0  0  0  0  0
  -25.4650  -36.3380   23.8910 C   0  0  0  0  0  3  0  0  0  0  0  0
  -27.5740  -37.2280   24.7780 C   0  0  0  0  0  1  0  0  0  0  0  0
  -26.5110  -37.3780   23.7870 N   0  0  0  0  0  0  0  0  0  0  0  0
  -26.1090  -38.3050   23.8950 H   0  0  0  0  0  0  0  0  0  0  0  0
  -26.3500  -31.7510   25.2990 C   0  0  1  0  0  0  0  0  0  0  0  0
  -25.2170  -31.5460   26.3320 C   0  0  0  0  0  1  0  0  0  0  0  0
  -26.9330  -30.3580   24.9580 C   0  0  0  0  0  1  0  0  0  0  0  0
  -27.4830  -32.5480   25.9860 C   0  0  0  0  0  1  0  0  0  0  0  0
  -24.0670  -22.1070   19.3750 C   0  0  0  0  0  2  0  0  0  0  0  0
  -25.4840  -22.0430   19.2610 O   0  0  0  0  0  0  0  0  0  0  0  0
  -25.9130  -21.4330   18.0510 C   0  0  0  0  0  2  0  0  0  0  0  0
  -27.3740  -20.9880   18.2100 C   0  0  0  0  0  2  0  0  0  0  0  0
  -27.5340  -19.8940   19.2820 C   0  0  0  0  0  2  0  0  0  0  0  0
  -28.9420  -19.4810   19.4700 N   0  0  0  0  0  4  0  0  0  0  0  0
  -29.2940  -19.1190   18.5980 H   0  0  0  0  0  0  0  0  0  0  0  0
  -29.4880  -20.2920   19.7100 H   0  0  0  0  0  0  0  0  0  0  0  0
  -29.1240  -18.4530   20.5190 C   0  0  0  0  0  2  0  0  0  0  0  0
  -30.6120  -18.1350   20.7640 C   0  0  0  0  0  2  0  0  0  0  0  0
  -30.8580  -17.1110   21.8930 C   0  0  0  0  0  2  0  0  0  0  0  0
  -30.9610  -14.8860   20.7650 C   0  0  0  0  0  0  0  0  0  0  0  0
  -30.7870  -12.6770   19.6860 C   0  0  0  0  0  2  0  0  0  0  0  0
  -29.9280  -12.7500   18.4110 C   0  0  0  0  0  2  0  0  0  0  0  0
  -28.4330  -12.5850   18.7450 C   0  0  0  0  0  2  0  0  0  0  0  0
  -27.9760  -13.5110   19.9020 C   0  0  0  0  0  3  0  0  0  0  0  0
  -28.9460  -13.4070   21.1000 C   0  0  0  0  0  2  0  0  0  0  0  0
  -30.3100  -13.7040   20.6220 N   0  0  0  0  0  0  0  0  0  0  0  0
  -32.0250  -15.1510   20.1980 O   0  0  0  0  0  0  0  0  0  0  0  0
  -30.3630  -15.7720   21.5720 N   0  0  0  0  0  0  0  0  0  0  0  0
  -29.5170  -15.4620   22.0300 H   0  0  0  0  0  0  0  0  0  0  0  0
  -25.5260  -14.0980   20.4430 C   0  0  0  0  0  0  0  0  0  0  0  0
  -24.4480  -13.3160   20.7620 C   0  0  0  0  0  0  0  0  0  0  0  0
  -24.9300  -11.9710   20.7860 C   0  0  0  0  0  0  0  0  0  0  0  0
  -26.5970  -13.2290   20.2970 N   0  0  0  0  0  0  0  0  0  0  0  0
  -26.2370  -11.9450   20.5570 N   0  0  0  0  0  0  0  0  0  0  0  0
  -24.2120  -10.7010   20.9560 C   0  0  0  0  0  0  0  0  0  0  0  0
  -24.5640   -9.7850   21.9720 C   0  0  0  0  0  3  0  0  0  0  0  0
  -23.8480   -8.5780   22.1270 C   0  0  0  0  0  3  0  0  0  0  0  0
  -22.7660   -8.2800   21.2640 C   0  0  0  0  0  0  0  0  0  0  0  0
  -22.4350   -9.1840   20.2410 C   0  0  0  0  0  3  0  0  0  0  0  0
  -23.1530  -10.3820   20.0840 C   0  0  0  0  0  3  0  0  0  0  0  0
  -22.0300   -7.1210   21.3240 O   0  0  0  0  0  0  0  0  0  0  0  0
  -21.8280   -6.4570   22.5080 C   0  0  0  0  0  0  0  0  0  0  0  0
  -21.2210   -7.0830   23.6180 C   0  0  0  0  0  3  0  0  0  0  0  0
  -20.9690   -6.3430   24.7920 C   0  0  0  0  0  3  0  0  0  0  0  0
  -21.3120   -4.9790   24.8520 C   0  0  0  0  0  0  0  0  0  0  0  0
  -21.9120   -4.3540   23.7460 C   0  0  0  0  0  3  0  0  0  0  0  0
  -22.1660   -5.0900   22.5750 C   0  0  0  0  0  0  0  0  0  0  0  0
  -22.7240   -4.4770   21.5040 F   0  0  0  0  0  0  0  0  0  0  0  0
  -21.0630   -4.2670   25.9760 F   0  0  0  0  0  0  0  0  0  0  0  0
  -23.0300  -13.7750   20.9410 C   0  0  0  0  0  0  0  0  0  0  0  0
  -22.2650  -13.0900   21.7820 N   0  0  0  0  0  0  0  0  0  0  0  0
  -22.6070  -14.7800   20.3700 O   0  0  0  0  0  0  0  0  0  0  0  0
  -22.6180  -12.2780   22.2670 H   0  0  0  0  0  0  0  0  0  0  0  0
  -21.3110  -13.3800   21.9440 H   0  0  0  0  0  0  0  0  0  0  0  0
  -25.6830  -15.4660   20.2460 N   0  0  0  0  0  0  0  0  0  0  0  0
  -24.8980  -16.1080   20.2810 H   0  0  0  0  0  0  0  0  0  0  0  0
  -26.5400  -15.8990   19.9310 H   0  0  0  0  0  0  0  0  0  0  0  0
  1  2  1  0
  2  4  1  0
  2  5  1  0
  3  2  1  0
  6  5  1  0
  6  7  1  0
  7  8  1  0
  9  7  1  0
 10  9  1  0
 11 13  1  0
 11 10  1  0
 12 23  2  0
 13 18  1  0
 14 22  1  0
 14 24  1  0
 15 21  1  0
 15 17  1  0
 16 22  1  0
 17 18  2  0
 17 16  1  0
 19 13  2  0
 20 19  1  0
 20 15  2  0
 21 14  1  0
 22 12  1  0
 24 26  2  0
 25 24  1  0
 27 25  1  0
 28 37  2  0
 28 33  1  0
 29 25  1  0
 29 33  1  0
 30 29  1  0
 31 32  1  0
 31 30  1  0
 32 28  1  0
 33 34  2  0
 34 35  1  0
 36 35  2  0
 37 36  1  0
 38 12  1  0
 38 39  1  0
 38 48  1  0
 39 42  1  0
 40 44  1  0
 40 39  1  0
 41 40  2  0
 44 43  1  0
 46 44  1  0
 46 47  1  0
 46 45  1  0
 48 51  1  1
 48 49  1  0
 50 48  1  0
 52  1  1  0
 53 52  1  0
 54 55  1  0
 54 53  1  0
 55 56  1  0
 56 57  1  0
 57 59  1  0
 57 60  1  0
 58 57  1  0
 60 61  1  0
 61 62  1  0
 63 71  1  0
 64 69  1  0
 65 66  1  0
 65 64  1  0
 67 66  1  0
 67 76  1  0
 67 68  1  0
 69 63  1  0
 69 68  1  0
 70 63  2  0
 71 62  1  0
 71 72  1  0
 73 74  2  0
 74 75  1  0
 74 93  1  0
 75 78  1  0
 76 73  1  0
 76 77  1  0
 77 75  2  0
 78 79  1  0
 79 80  2  0
 81 84  1  0
 81 80  1  0
 82 81  2  0
 83 82  1  0
 83 78  2  0
 84 85  1  0
 85 90  2  0
 85 86  1  0
 86 87  2  0
 87 88  1  0
 88 92  1  0
 89 88  2  0
 90 89  1  0
 91 90  1  0
 93 94  1  0
 94 97  1  0
 94 96  1  0
 95 93  2  0
 98 99  1  0
 98 73  1  0
100 98  1  0
M  ISO  4  10 101  11 101  63 100  71 100
M  END
>  <TORSDO>  (39) 
F 31

>  <SCORE>  (39) 
-9.773

>  <name>  (39) 
39

>  <ligand_id>  (39) 
39

>  <original_smiles>  (39) 
[H]c1c([H])c([H])c2c(c1[H])C([H])([H])C([H])([H])C([H])([H])C2([H])N([H])C(=O)C1([H])N(C(=O)C([H])(N([H])C(=O)C([H])(N([H])C([H])([H])[H])C([H])([H])[H])C(C([H])([H])[H])(C([H])([H])[H])C([H])([H])[H])C([H])([H])c2c([H])c(OC([H])([H])C([H])([H])N([H])C([H])([H])C([H])([H])[N+]([H])([H])C([H])([H])C([H])([H])OC([H])([H])C([H])([H])C([H])([H])[N+]([H])([H])C([H])([H])C([H])([H])C([H])([H])N([H])C(=O)N3C([H])([H])C([H])([H])C([H])([H])C([H])(n4nc(-c5c([H])c([H])c(Oc6c([H])c([H])c(F)c([H])c6F)c([H])c5[H])c(C(=O)N([H])[H])c4N([H])[H])C3([H])[H])c([H])c([H])c2C1([H])[H]

>  <smiles>  (39) 
[H]c1c([H])c([H])c2c(c1[H])C([H])([H])C([H])([H])C([H])([H])C2([H])N([H])C(=O)C1([H])N(C(=O)C([H])(N([H])C(=O)C([H])(N([H])C([H])([H])[H])C([H])([H])[H])C(C([H])([H])[H])(C([H])([H])[H])C([H])([H])[H])C([H])([H])c2c([H])c(OC([H])([H])C([H])([H])N([H])C([H])([H])C([H])([H])[N+]([H])([H])C([H])([H])C([H])([H])OC([H])([H])C([H])([H])C([H])([H])[N+]([H])([H])C([H])([H])C([H])([H])C([H])([H])N([H])C(=O)N3C([H])([H])C([H])([H])C([H])([H])C([H])(n4nc(-c5c([H])c([H])c(Oc6c([H])c([H])c(F)c([H])c6F)c([H])c5[H])c(C(=O)N([H])[H])c4N([H])[H])C3([H])[H])c([H])c([H])c2C1([H])[H]

$$$$
41:0:0
     RDKit          3D

119126  0  0  1  0  0  0  0  0999 V2000
  -30.5900  -23.8990   19.1980 C   0  0  0  0  0  3  0  0  0  0  0  0
  -31.8570  -24.0600   19.0050 N   0  0  0  0  0  0  0  0  0  0  0  0
  -32.1460  -24.1710   18.0370 H   0  0  0  0  0  0  0  0  0  0  0  0
  -29.7340  -23.7170   17.9270 C   0  0  0  0  0  0  0  0  0  0  0  0
  -30.2270  -22.8310   17.0460 N   0  0  0  0  0  0  0  0  0  0  0  0
  -28.6630  -24.3140   17.8020 O   0  0  0  0  0  0  0  0  0  0  0  0
  -31.0960  -22.3650   17.2750 H   0  0  0  0  0  0  0  0  0  0  0  0
  -29.4820  -22.2750   15.9180 C   0  0  0  0  0  2  0  0  0  0  0  0
  -28.2690  -21.4270   16.3710 C   0  0  0  0  0  2  0  0  0  0  0  0
  -28.5790  -20.4710   17.5360 C   0  0  0  0  0  2  0  0  0  0  0  0
  -27.4860  -19.4150   17.8010 C   0  0  0  0  0  2  0  0  0  0  0  0
  -27.6890  -18.6820   19.1430 C   0  0  0  0  0  2  0  0  0  0  0  0
  -29.0520  -18.1170   19.2420 N   0  0  0  0  0  4  0  0  0  0  0  0
  -29.6950  -18.8820   19.1260 H   0  0  0  0  0  0  0  0  0  0  0  0
  -29.1980  -17.4760   18.4760 H   0  0  0  0  0  0  0  0  0  0  0  0
  -29.3840  -17.4510   20.5190 C   0  0  0  0  0  2  0  0  0  0  0  0
  -30.8980  -17.1510   20.5880 C   0  0  0  0  0  2  0  0  0  0  0  0
  -31.3130  -16.0240   21.5570 C   0  0  0  0  0  2  0  0  0  0  0  0
  -31.1780  -13.8690   20.2970 C   0  0  0  0  0  0  0  0  0  0  0  0
  -30.5840  -11.9380   18.8880 C   0  0  0  0  0  2  0  0  0  0  0  0
  -29.6290  -12.3740   17.7620 C   0  0  0  0  0  2  0  0  0  0  0  0
  -28.1660  -12.3430   18.2460 C   0  0  0  0  0  2  0  0  0  0  0  0
  -27.9670  -13.0760   19.5990 C   0  0  0  0  0  3  0  0  0  0  0  0
  -29.0200  -12.6110   20.6280 C   0  0  0  0  0  2  0  0  0  0  0  0
  -30.3600  -12.8180   20.0440 N   0  0  0  0  0  0  0  0  0  0  0  0
  -32.2330  -14.0760   19.6890 O   0  0  0  0  0  0  0  0  0  0  0  0
  -30.7210  -14.7310   21.2150 N   0  0  0  0  0  0  0  0  0  0  0  0
  -29.8710  -14.4650   21.6950 H   0  0  0  0  0  0  0  0  0  0  0  0
  -25.6330  -13.8560   20.3630 C   0  0  0  0  0  0  0  0  0  0  0  0
  -24.5240  -13.1610   20.7610 C   0  0  0  0  0  0  0  0  0  0  0  0
  -24.8870  -11.7810   20.7170 C   0  0  0  0  0  0  0  0  0  0  0  0
  -26.6080  -12.9030   20.1080 N   0  0  0  0  0  0  0  0  0  0  0  0
  -26.1610  -11.6500   20.3730 N   0  0  0  0  0  0  0  0  0  0  0  0
  -24.0790  -10.5730   20.9280 C   0  0  0  0  0  0  0  0  0  0  0  0
  -24.4700   -9.5740   21.8460 C   0  0  0  0  0  3  0  0  0  0  0  0
  -23.6680   -8.4290   22.0450 C   0  0  0  0  0  3  0  0  0  0  0  0
  -22.4600   -8.2770   21.3240 C   0  0  0  0  0  0  0  0  0  0  0  0
  -22.0860   -9.2630   20.3940 C   0  0  0  0  0  3  0  0  0  0  0  0
  -22.8880  -10.3990   20.1950 C   0  0  0  0  0  3  0  0  0  0  0  0
  -21.6310   -7.1870   21.4320 O   0  0  0  0  0  0  0  0  0  0  0  0
  -21.5620   -6.4460   22.5850 C   0  0  0  0  0  0  0  0  0  0  0  0
  -21.2210   -7.0300   23.8250 C   0  0  0  0  0  3  0  0  0  0  0  0
  -21.0920   -6.2200   24.9710 C   0  0  0  0  0  3  0  0  0  0  0  0
  -21.2950   -4.8310   24.8800 C   0  0  0  0  0  0  0  0  0  0  0  0
  -21.6260   -4.2470   23.6440 C   0  0  0  0  0  3  0  0  0  0  0  0
  -21.7580   -5.0530   22.4990 C   0  0  0  0  0  0  0  0  0  0  0  0
  -22.0580   -4.4830   21.3070 F   0  0  0  0  0  0  0  0  0  0  0  0
  -21.1630   -4.0510   25.9790 F   0  0  0  0  0  0  0  0  0  0  0  0
  -23.1720  -13.7370   21.0730 C   0  0  0  0  0  0  0  0  0  0  0  0
  -22.4310  -13.1040   21.9740 N   0  0  0  0  0  0  0  0  0  0  0  0
  -22.7870  -14.7820   20.5520 O   0  0  0  0  0  0  0  0  0  0  0  0
  -22.7550  -12.2590   22.4180 H   0  0  0  0  0  0  0  0  0  0  0  0
  -21.5230  -13.4710   22.2240 H   0  0  0  0  0  0  0  0  0  0  0  0
  -25.8930  -15.2110   20.1820 N   0  0  0  0  0  0  0  0  0  0  0  0
  -25.1760  -15.9170   20.3070 H   0  0  0  0  0  0  0  0  0  0  0  0
  -26.7640  -15.5860   19.8350 H   0  0  0  0  0  0  0  0  0  0  0  0
  -28.9670  -23.6380   20.8630 C   0  0  0  0  0  3  0  0  0  0  0  0
  -30.1560  -23.9040   20.4870 N   0  0  0  0  0  0  0  0  0  0  0  0
  -28.5500  -23.7430   22.3220 C   0  0  0  0  0  2  0  0  0  0  0  0
  -27.6590  -24.9680   22.6230 C   0  0  0  0  0  2  0  0  0  0  0  0
  -28.2580  -26.1420   23.1920 O   0  0  0  0  0  0  0  0  0  0  0  0
  -29.5590  -26.5630   22.7730 C   0  0  0  0  0  2  0  0  0  0  0  0
  -29.6960  -27.3800   21.4590 C   0  0  0  0  0  2  0  0  0  0  0  0
  -28.8190  -27.0470   20.3680 O   0  0  0  0  0  0  0  0  0  0  0  0
  -24.6160  -31.9840   23.2310 C   0  0  0  0  0  0  0  0  0  0  0  0
  -27.6450  -27.7660   20.2700 C   0  0  0  0  0  0  0  0  0  0  0  0
  -23.5420  -30.4800   21.5760 C   0  0  0  0  0  3  0  0  0  0  0  0
  -25.1370  -29.0600   20.1770 C   0  0  0  0  0  0  0  0  0  0  0  0
  -26.0240  -31.0540   21.4050 C   0  0  0  0  0  2  0  0  0  0  0  0
  -26.2250  -29.6890   20.7890 C   0  0  0  0  0  0  0  0  0  0  0  0
  -27.4770  -29.0560   20.8300 C   0  0  0  0  0  3  0  0  0  0  0  0
  -26.5570  -27.1750   19.5970 C   0  0  0  0  0  3  0  0  0  0  0  0
  -25.2960  -27.8010   19.5740 C   0  0  0  0  0  3  0  0  0  0  0  0
  -23.8250  -29.8050   20.2050 C   0  0  0  0  0  2  0  0  0  0  0  0
  -24.7420  -31.1880   22.1320 N   0  0  0  0  0  0  0  0  0  0  0  0
  -23.5120  -32.1790   23.7550 O   0  0  0  0  0  0  0  0  0  0  0  0
  -22.9520  -29.4210   22.5360 C   0  0  0  0  0  0  0  0  0  0  0  0
  -21.6560  -29.1220   22.3620 N   0  0  0  0  0  0  0  0  0  0  0  0
  -23.6530  -28.8730   23.3910 O   0  0  0  0  0  0  0  0  0  0  0  0
  -21.1400  -29.6230   21.6510 H   0  0  0  0  0  0  0  0  0  0  0  0
  -18.3950  -27.6150   22.7240 C   0  0  0  0  0  0  0  0  0  0  0  0
  -20.8970  -28.1320   23.1200 C   0  0  0  0  0  3  0  0  0  0  0  0
  -21.1690  -26.7010   22.5990 C   0  0  0  0  0  2  0  0  0  0  0  0
  -20.1610  -26.2410   21.5430 C   0  0  0  0  0  2  0  0  0  0  0  0
  -18.7380  -26.2670   22.1110 C   0  0  0  0  0  2  0  0  0  0  0  0
  -19.4090  -28.4930   23.1850 C   0  0  0  0  0  0  0  0  0  0  0  0
  -19.0390  -29.7460   23.7250 C   0  0  0  0  0  3  0  0  0  0  0  0
  -17.6870  -30.1240   23.8060 C   0  0  0  0  0  3  0  0  0  0  0  0
  -16.6850  -29.2430   23.3640 C   0  0  0  0  0  3  0  0  0  0  0  0
  -17.0400  -27.9910   22.8270 C   0  0  0  0  0  3  0  0  0  0  0  0
  -25.8460  -32.7080   23.8630 C   0  0  0  0  0  3  0  0  0  0  0  0
  -26.4140  -31.9740   25.1380 C   0  0  1  0  0  0  0  0  0  0  0  0
  -25.3340  -31.6550   26.1970 C   0  0  0  0  0  1  0  0  0  0  0  0
  -27.0990  -30.6450   24.7370 C   0  0  0  0  0  1  0  0  0  0  0  0
  -27.4970  -32.8540   25.8070 C   0  0  0  0  0  1  0  0  0  0  0  0
  -25.4350  -34.0810   24.1900 N   0  0  0  0  0  0  0  0  0  0  0  0
  -25.7090  -35.1550   23.4380 C   0  0  0  0  0  0  0  0  0  0  0  0
  -26.4040  -35.1010   22.4200 O   0  0  0  0  0  0  0  0  0  0  0  0
  -24.8170  -34.1860   24.9790 H   0  0  0  0  0  0  0  0  0  0  0  0
  -23.8670  -36.8210   23.0380 C   0  0  0  0  0  1  0  0  0  0  0  0
  -25.1110  -36.5050   23.8820 C   0  0  0  0  0  3  0  0  0  0  0  0
  -27.1530  -37.5320   24.7670 C   0  0  0  0  0  1  0  0  0  0  0  0
  -26.0670  -37.6280   23.7970 N   0  0  0  0  0  0  0  0  0  0  0  0
  -25.5920  -38.5150   23.9410 H   0  0  0  0  0  0  0  0  0  0  0  0
  -32.9300  -24.1120   20.0290 C   0  0  0  0  0  2  0  0  0  0  0  0
  -33.9010  -25.2900   19.8450 C   0  0  0  0  0  2  0  0  0  0  0  0
  -34.9010  -25.3110   20.8660 O   0  0  0  0  0  0  0  0  0  0  0  0
  -36.2450  -25.1410   20.4150 C   0  0  0  0  0  2  0  0  0  0  0  0
  -36.6500  -23.6630   20.3080 C   0  0  0  0  0  2  0  0  0  0  0  0
  -35.9370  -23.0520   19.2450 O   0  0  0  0  0  0  0  0  0  0  0  0
  -36.5230  -21.8300   18.8150 C   0  0  0  0  0  2  0  0  0  0  0  0
  -35.5450  -21.1120   17.8800 C   0  0  0  0  0  2  0  0  0  0  0  0
  -35.1300  -22.0190   16.8680 O   0  0  0  0  0  0  0  0  0  0  0  0
  -34.1630  -21.4580   15.9910 C   0  0  0  0  0  2  0  0  0  0  0  0
  -33.4920  -22.6290   15.2680 C   0  0  0  0  0  2  0  0  0  0  0  0
  -34.4740  -23.3910   14.4750 N   0  0  0  0  0  4  0  0  0  0  0  0
  -35.2610  -23.6370   15.0520 H   0  0  0  0  0  0  0  0  0  0  0  0
  -34.0690  -24.2330   14.1040 H   0  0  0  0  0  0  0  0  0  0  0  0
  -34.8170  -22.8430   13.7060 H   0  0  0  0  0  0  0  0  0  0  0  0
  1  4  1  0
  1 58  1  0
  2  1  1  0
  2105  1  0
  3  2  1  0
  5  7  1  0
  5  4  1  0
  6  4  2  0
  8  9  1  0
  8  5  1  0
  9 10  1  0
 10 11  1  0
 11 12  1  0
 12 13  1  0
 13 16  1  0
 14 13  1  0
 15 13  1  0
 16 17  1  0
 17 18  1  0
 19 27  1  0
 20 25  1  0
 21 22  1  0
 21 20  1  0
 23 22  1  0
 23 32  1  0
 23 24  1  0
 25 19  1  0
 25 24  1  0
 26 19  2  0
 27 18  1  0
 27 28  1  0
 29 30  2  0
 30 49  1  0
 31 30  1  0
 31 34  1  0
 32 29  1  0
 32 33  1  0
 33 31  2  0
 34 35  1  0
 35 36  2  0
 37 40  1  0
 37 36  1  0
 38 37  2  0
 39 38  1  0
 39 34  2  0
 40 41  1  0
 41 42  1  0
 42 43  2  0
 44 43  1  0
 44 48  1  0
 45 44  2  0
 46 41  2  0
 46 45  1  0
 47 46  1  0
 49 50  1  0
 50 53  1  0
 50 52  1  0
 51 49  2  0
 54 55  1  0
 54 29  1  0
 56 54  1  0
 57 59  1  0
 58 57  2  0
 59 60  1  0
 60 61  1  0
 62 61  1  0
 63 62  1  0
 64 63  1  0
 65 76  2  0
 66 64  1  0
 66 71  1  0
 67 75  1  0
 67 77  1  0
 68 74  1  0
 68 70  1  0
 69 75  1  0
 70 71  2  0
 70 69  1  0
 72 66  2  0
 73 72  1  0
 73 68  2  0
 74 67  1  0
 75 65  1  0
 77 79  2  0
 78 77  1  0
 80 78  1  0
 81 90  2  0
 81 86  1  0
 82 78  1  0
 82 86  1  0
 83 82  1  0
 84 85  1  0
 84 83  1  0
 85 81  1  0
 86 87  2  0
 87 88  1  0
 89 88  2  0
 90 89  1  0
 91 65  1  0
 91 96  1  0
 91 92  1  0
 92 95  1  1
 92 93  1  0
 94 92  1  0
 96 99  1  0
 97101  1  0
 97 96  1  0
 98 97  2  0
101100  1  0
103101  1  0
103104  1  0
103102  1  0
106105  1  0
106107  1  0
108107  1  0
109108  1  0
110109  1  0
111110  1  0
112111  1  0
113112  1  0
114113  1  0
115114  1  0
116117  1  0
116115  1  0
118116  1  0
119116  1  0
M  ISO  4  19 100  27 100  63 101  64 101
M  END
>  <TORSDO>  (40) 
F 44

>  <SCORE>  (40) 
-7.572

>  <name>  (40) 
41

>  <ligand_id>  (40) 
41

>  <original_smiles>  (40) 
[H]C(=NC(C(=O)N([H])C([H])([H])C([H])([H])C([H])([H])C([H])([H])C([H])([H])[N+]([H])([H])C([H])([H])C([H])([H])C([H])([H])N([H])C(=O)N1C([H])([H])C([H])([H])C([H])([H])C([H])(n2nc(-c3c([H])c([H])c(Oc4c([H])c([H])c(F)c([H])c4F)c([H])c3[H])c(C(=O)N([H])[H])c2N([H])[H])C1([H])[H])=[N+]([H])C([H])([H])C([H])([H])OC([H])([H])C([H])([H])OC([H])([H])C([H])([H])OC([H])([H])C([H])([H])[N+]([H])([H])[H])C([H])([H])C([H])([H])OC([H])([H])C([H])([H])Oc1c([H])c([H])c2c(c1[H])C([H])([H])N(C(=O)C([H])(N([H])C(=O)C([H])(N([H])C([H])([H])[H])C([H])([H])[H])C(C([H])([H])[H])(C([H])([H])[H])C([H])([H])[H])C([H])(C(=O)N([H])C1([H])c3c([H])c([H])c([H])c([H])c3C([H])([H])C([H])([H])C1([H])[H])C2([H])[H]

>  <smiles>  (40) 
[H]C(=NC(C(=O)N([H])C([H])([H])C([H])([H])C([H])([H])C([H])([H])C([H])([H])[N+]([H])([H])C([H])([H])C([H])([H])C([H])([H])N([H])C(=O)N1C([H])([H])C([H])([H])C([H])([H])C([H])(n2nc(-c3c([H])c([H])c(Oc4c([H])c([H])c(F)c([H])c4F)c([H])c3[H])c(C(=O)N([H])[H])c2N([H])[H])C1([H])[H])=[N+]([H])C([H])([H])C([H])([H])OC([H])([H])C([H])([H])OC([H])([H])C([H])([H])OC([H])([H])C([H])([H])[N+]([H])([H])[H])C([H])([H])C([H])([H])OC([H])([H])C([H])([H])Oc1c([H])c([H])c2c(c1[H])C([H])([H])N(C(=O)C([H])(N([H])C(=O)C([H])(N([H])C([H])([H])[H])C([H])([H])[H])C(C([H])([H])[H])(C([H])([H])[H])C([H])([H])[H])C([H])(C(=O)N([H])C1([H])c3c([H])c([H])c([H])c([H])c3C([H])([H])C([H])([H])C1([H])[H])C2([H])[H]

$$$$
43:0:0
     RDKit          3D

107114  0  0  1  0  0  0  0  0999 V2000
  -22.1850  -31.8160   23.0740 N   0  0  0  0  0  0  0  0  0  0  0  0
  -21.2070  -32.1080   23.1140 H   0  0  0  0  0  0  0  0  0  0  0  0
  -22.1890  -30.3770   24.0900 C   0  0  0  0  0  2  0  0  0  0  0  0
  -23.2100  -28.7900   24.3150 C   0  0  0  0  0  2  0  0  0  0  0  0
  -24.7980  -28.1950   24.3720 N   0  0  0  0  0  4  0  0  0  0  0  0
  -25.3020  -29.0570   24.2280 H   0  0  0  0  0  0  0  0  0  0  0  0
  -25.0700  -27.9750   25.3490 H   0  0  0  0  0  0  0  0  0  0  0  0
  -25.5910  -27.0410   23.3900 C   0  0  0  0  0  3  0  0  0  0  0  0
  -27.3580  -26.8710   22.8360 C   0  0  0  0  0  3  0  0  0  0  0  0
  -28.3990  -25.9070   21.6170 C   0  0  0  0  0  2  0  0  0  0  0  0
  -30.0460  -25.0910   21.5480 C   0  0  0  0  0  2  0  0  0  0  0  0
  -31.2850  -24.9190   20.3850 N   0  0  0  0  0  4  0  0  0  0  0  0
  -31.8990  -25.6950   20.6350 H   0  0  0  0  0  0  0  0  0  0  0  0
  -30.8570  -25.2170   19.5200 H   0  0  0  0  0  0  0  0  0  0  0  0
  -32.4020  -23.6800   19.9550 C   0  0  0  0  0  3  0  0  0  0  0  0
  -34.0490  -23.6120   19.0460 C   0  0  0  0  0  3  0  0  0  0  0  0
  -36.4350  -21.9970   17.8730 C   0  0  0  0  0  0  0  0  0  0  0  0
  -38.0810  -21.0530   16.0070 C   0  0  0  0  0  2  0  0  0  0  0  0
  -37.9850  -21.8040   14.6440 C   0  0  0  0  0  2  0  0  0  0  0  0
  -36.7700  -21.3340   13.8230 C   0  0  0  0  0  2  0  0  0  0  0  0
  -35.5320  -21.1440   14.7220 C   0  0  0  0  0  3  0  0  0  0  0  0
  -35.8200  -20.3380   15.9970 C   0  0  0  0  0  2  0  0  0  0  0  0
  -36.7560  -21.1380   16.7580 N   0  0  0  0  0  0  0  0  0  0  0  0
  -37.4830  -22.4480   18.3740 O   0  0  0  0  0  0  0  0  0  0  0  0
  -35.0100  -22.3910   18.2860 N   0  0  0  0  0  0  0  0  0  0  0  0
  -34.3830  -21.7730   17.8180 H   0  0  0  0  0  0  0  0  0  0  0  0
  -33.0770  -20.9940   14.1340 C   0  0  0  0  0  0  0  0  0  0  0  0
  -32.3920  -20.2490   13.2620 C   0  0  0  0  0  0  0  0  0  0  0  0
  -33.3460  -19.3610   12.6460 C   0  0  0  0  0  0  0  0  0  0  0  0
  -34.3960  -20.6100   14.0180 N   0  0  0  0  0  0  0  0  0  0  0  0
  -34.5440  -19.5630   13.1780 N   0  0  0  0  0  0  0  0  0  0  0  0
  -33.2020  -18.3990   11.5650 C   0  0  0  0  0  0  0  0  0  0  0  0
  -33.6690  -17.0700   11.6810 C   0  0  0  0  0  3  0  0  0  0  0  0
  -33.4990  -16.1510   10.6220 C   0  0  0  0  0  3  0  0  0  0  0  0
  -32.8600  -16.5560    9.4250 C   0  0  0  0  0  0  0  0  0  0  0  0
  -32.4160  -17.8870    9.3050 C   0  0  0  0  0  3  0  0  0  0  0  0
  -32.5900  -18.7990   10.3600 C   0  0  0  0  0  3  0  0  0  0  0  0
  -32.6690  -15.7460    8.3390 O   0  0  0  0  0  0  0  0  0  0  0  0
  -32.6080  -14.3800    8.4590 C   0  0  0  0  0  0  0  0  0  0  0  0
  -31.6830  -13.7430    9.3140 C   0  0  0  0  0  3  0  0  0  0  0  0
  -31.6150  -12.3380    9.3550 C   0  0  0  0  0  3  0  0  0  0  0  0
  -32.4530  -11.5670    8.5280 C   0  0  0  0  0  0  0  0  0  0  0  0
  -33.3770  -12.1980    7.6790 C   0  0  0  0  0  3  0  0  0  0  0  0
  -33.4500  -13.6010    7.6380 C   0  0  0  0  0  0  0  0  0  0  0  0
  -34.3240  -14.2010    6.7920 F   0  0  0  0  0  0  0  0  0  0  0  0
  -32.3820  -10.2150    8.5680 F   0  0  0  0  0  0  0  0  0  0  0  0
  -30.9300  -20.3490   12.9170 C   0  0  0  0  0  0  0  0  0  0  0  0
  -30.2870  -19.2610   12.5530 N   0  0  0  0  0  0  0  0  0  0  0  0
  -30.3380  -21.4330   13.0300 O   0  0  0  0  0  0  0  0  0  0  0  0
  -30.7670  -18.3670   12.4810 H   0  0  0  0  0  0  0  0  0  0  0  0
  -29.2940  -19.3040   12.3350 H   0  0  0  0  0  0  0  0  0  0  0  0
  -32.7050  -22.0470   15.0010 N   0  0  0  0  0  0  0  0  0  0  0  0
  -31.7540  -22.4040   15.0140 H   0  0  0  0  0  0  0  0  0  0  0  0
  -33.3470  -22.6020   15.5430 H   0  0  0  0  0  0  0  0  0  0  0  0
  -22.9190  -33.3280   22.8280 C   0  0  0  0  0  2  0  0  0  0  0  0
  -24.4760  -33.8910   22.0970 C   0  0  0  0  0  2  0  0  0  0  0  0
  -25.9960  -34.1960   22.7220 N   0  0  0  0  0  0  0  0  0  0  0  0
  -25.9750  -35.0100   23.3830 H   0  0  0  0  0  0  0  0  0  0  0  0
  -27.5170  -34.2590   22.1120 C   0  0  0  0  0  2  0  0  0  0  0  0
  -28.9350  -33.2740   22.3850 C   0  0  0  0  0  3  0  0  0  0  0  0
  -29.6230  -32.3880   23.6320 C   0  0  0  0  0  3  0  0  0  0  0  0
  -30.8420  -31.4540   23.5080 N   0  0  0  0  0  4  0  0  0  0  0  0
  -30.7740  -30.9480   24.3770 H   0  0  0  0  0  0  0  0  0  0  0  0
  -31.6900  -31.9970   23.6210 H   0  0  0  0  0  0  0  0  0  0  0  0
  -31.1440  -30.2760   22.5570 C   0  0  0  0  0  2  0  0  0  0  0  0
  -30.5530  -28.8000   22.7220 C   0  0  0  0  0  2  0  0  0  0  0  0
  -29.9870  -28.3170   21.4220 O   0  0  0  0  0  0  0  0  0  0  0  0
  -25.1960  -32.0190   23.9380 C   0  0  0  0  0  0  0  0  0  0  0  0
  -28.7370  -28.7520   21.0530 C   0  0  0  0  0  0  0  0  0  0  0  0
  -24.3440  -30.9310   21.6410 C   0  0  0  0  0  3  0  0  0  0  0  0
  -26.2160  -29.8830   20.4470 C   0  0  0  0  0  0  0  0  0  0  0  0
  -26.6860  -31.5900   22.1810 C   0  0  0  0  0  2  0  0  0  0  0  0
  -27.0450  -30.4000   21.4400 C   0  0  0  0  0  0  0  0  0  0  0  0
  -28.2340  -29.8610   21.7420 C   0  0  0  0  0  3  0  0  0  0  0  0
  -27.9430  -28.2170   19.9770 C   0  0  0  0  0  3  0  0  0  0  0  0
  -26.6640  -28.7780   19.7040 C   0  0  0  0  0  3  0  0  0  0  0  0
  -24.9600  -30.6700   20.2390 C   0  0  0  0  0  2  0  0  0  0  0  0
  -25.3760  -31.4710   22.6760 N   0  0  0  0  0  0  0  0  0  0  0  0
  -24.3440  -31.6730   24.6160 O   0  0  0  0  0  0  0  0  0  0  0  0
  -23.5640  -29.6940   22.0060 C   0  0  0  0  0  0  0  0  0  0  0  0
  -22.2610  -29.5060   21.7540 N   0  0  0  0  0  0  0  0  0  0  0  0
  -24.2400  -28.8160   22.4980 O   0  0  0  0  0  0  0  0  0  0  0  0
  -21.7930  -30.3450   21.4390 H   0  0  0  0  0  0  0  0  0  0  0  0
  -18.9990  -27.7950   21.4080 C   0  0  0  0  0  0  0  0  0  0  0  0
  -21.4130  -28.3580   22.1350 C   0  0  0  0  0  3  0  0  0  0  0  0
  -21.8550  -27.0800   21.4060 C   0  0  0  0  0  2  0  0  0  0  0  0
  -20.9760  -26.7380   20.1970 C   0  0  0  0  0  2  0  0  0  0  0  0
  -19.5000  -26.6130   20.5980 C   0  0  0  0  0  2  0  0  0  0  0  0
  -19.9020  -28.6170   22.1010 C   0  0  0  0  0  0  0  0  0  0  0  0
  -19.3210  -29.6850   22.8170 C   0  0  0  0  0  3  0  0  0  0  0  0
  -17.9690  -30.0140   22.8460 C   0  0  0  0  0  3  0  0  0  0  0  0
  -17.0950  -29.2080   22.1340 C   0  0  0  0  0  3  0  0  0  0  0  0
  -17.6070  -28.0950   21.4390 C   0  0  0  0  0  3  0  0  0  0  0  0
  -25.9370  -33.0210   24.8420 C   0  0  0  0  0  3  0  0  0  0  0  0
  -25.0780  -34.2650   25.1060 N   0  0  0  0  0  0  0  0  0  0  0  0
  -25.3910  -35.5570   24.8190 C   0  0  0  0  0  0  0  0  0  0  0  0
  -26.3990  -35.8110   24.2360 O   0  0  0  0  0  0  0  0  0  0  0  0
  -24.1490  -34.1520   25.4520 H   0  0  0  0  0  0  0  0  0  0  0  0
  -23.4340  -37.0740   24.0630 C   0  0  0  0  0  1  0  0  0  0  0  0
  -24.4800  -36.7550   25.1580 C   0  0  0  0  0  3  0  0  0  0  0  0
  -26.2410  -37.8010   26.5210 C   0  0  0  0  0  1  0  0  0  0  0  0
  -25.2870  -37.9780   25.4090 N   0  0  0  0  0  0  0  0  0  0  0  0
  -24.7640  -38.8600   25.4160 H   0  0  0  0  0  0  0  0  0  0  0  0
  -26.2230  -32.2820   26.2210 C   0  0  1  0  0  0  0  0  0  0  0  0
  -24.9850  -31.9560   27.1260 C   0  0  0  0  0  1  0  0  0  0  0  0
  -26.9760  -30.9760   25.9970 C   0  0  0  0  0  1  0  0  0  0  0  0
  -27.1200  -33.2050   27.0470 C   0  0  0  0  0  1  0  0  0  0  0  0
  1  2  1  0
  1  3  1  0
  3  4  1  0
  4  5  1  0
  5  7  1  0
  6  5  1  0
  8  5  1  0
  9  8  2  0
 10  9  1  0
 11 10  1  0
 12 13  1  0
 12 11  1  0
 14 12  1  0
 15 12  1  0
 16 15  2  0
 17 25  1  0
 17 24  2  0
 18 23  1  0
 19 18  1  0
 20 19  1  0
 21 20  1  0
 21 22  1  0
 22 23  1  0
 23 17  1  0
 25 16  1  0
 26 25  1  0
 27 52  1  0
 28 27  2  0
 29 31  2  0
 29 28  1  0
 30 27  1  0
 30 21  1  0
 31 30  1  0
 32 33  1  0
 32 29  1  0
 34 33  2  0
 35 34  1  0
 36 35  2  0
 36 37  1  0
 37 32  2  0
 38 39  1  0
 38 35  1  0
 39 40  1  0
 40 41  2  0
 42 46  1  0
 42 41  1  0
 43 42  2  0
 44 43  1  0
 44 39  2  0
 45 44  1  0
 47 49  2  0
 47 28  1  0
 48 47  1  0
 50 48  1  0
 51 48  1  0
 52 53  1  0
 52 54  1  0
 55  1  1  0
 56 57  1  0
 56 55  1  0
 57 58  1  0
 59 60  1  0
 59 57  1  0
 60 61  2  0
 62 64  1  0
 62 61  1  0
 62 63  1  0
 65 66  1  0
 65 62  1  0
 67 66  1  0
 68 79  2  0
 69 67  1  0
 69 74  1  0
 70 80  1  0
 70 78  1  0
 71 73  1  0
 72 78  1  0
 73 74  2  0
 73 72  1  0
 75 69  2  0
 76 75  1  0
 76 71  2  0
 77 71  1  0
 77 70  1  0
 78 68  1  0
 80 82  2  0
 81 80  1  0
 83 81  1  0
 84 93  2  0
 84 89  1  0
 85 81  1  0
 86 85  1  0
 87 88  1  0
 87 86  1  0
 88 84  1  0
 89 85  1  0
 89 90  2  0
 90 91  1  0
 92 91  2  0
 93 92  1  0
 94 68  1  0
 94 95  1  0
 94104  1  0
 95 98  1  0
 96 95  1  0
 96100  1  0
 97 96  2  0
100 99  1  0
100102  1  0
102103  1  0
102101  1  0
104107  1  1
104105  1  0
106104  1  0
M  ISO  4  17 100  25 100  66 101  67 101
M  END
>  <TORSDO>  (41) 
F 35

>  <SCORE>  (41) 
11.060

>  <name>  (41) 
43

>  <ligand_id>  (41) 
43

>  <original_smiles>  (41) 
[H]c1c([H])c([H])c2c(c1[H])C([H])([H])C([H])([H])C([H])([H])C2([H])N([H])C(=O)C1([H])N(C(=O)C([H])(N([H])C(=O)C([H])(N([H])C([H])([H])[H])C([H])([H])[H])C(C([H])([H])[H])(C([H])([H])[H])C([H])([H])[H])C([H])([H])c2c([H])c(OC([H])([H])C([H])([H])[N+]([H])([H])C([H])([H])C([H])([H])C([H])([H])N([H])C([H])([H])C([H])([H])N([H])C([H])([H])C([H])([H])[N+]([H])([H])C([H])([H])C([H])([H])C([H])([H])C([H])([H])[N+]([H])([H])C([H])([H])C([H])([H])N([H])C(=O)N3C([H])([H])C([H])([H])C([H])([H])C([H])(n4nc(-c5c([H])c([H])c(Oc6c([H])c([H])c(F)c([H])c6F)c([H])c5[H])c(C(=O)N([H])[H])c4N([H])[H])C3([H])[H])c([H])c([H])c2C1([H])[H]

>  <smiles>  (41) 
[H]c1c([H])c([H])c2c(c1[H])C([H])([H])C([H])([H])C([H])([H])C2([H])N([H])C(=O)C1([H])N(C(=O)C([H])(N([H])C(=O)C([H])(N([H])C([H])([H])[H])C([H])([H])[H])C(C([H])([H])[H])(C([H])([H])[H])C([H])([H])[H])C([H])([H])c2c([H])c(OC([H])([H])C([H])([H])[N+]([H])([H])C([H])([H])C([H])([H])C([H])([H])N([H])C([H])([H])C([H])([H])N([H])C([H])([H])C([H])([H])[N+]([H])([H])C([H])([H])C([H])([H])C([H])([H])C([H])([H])[N+]([H])([H])C([H])([H])C([H])([H])N([H])C(=O)N3C([H])([H])C([H])([H])C([H])([H])C([H])(n4nc(-c5c([H])c([H])c(Oc6c([H])c([H])c(F)c([H])c6F)c([H])c5[H])c(C(=O)N([H])[H])c4N([H])[H])C3([H])[H])c([H])c([H])c2C1([H])[H]

$$$$
44:0:0
     RDKit          3D

106113  0  0  1  0  0  0  0  0999 V2000
  -23.0630  -24.7170   15.2810 C   0  0  0  0  0  2  0  0  0  0  0  0
  -22.2410  -23.4120   15.2720 C   0  0  0  0  0  2  0  0  0  0  0  0
  -23.0940  -22.2350   15.5540 N   0  0  0  0  0  4  0  0  0  0  0  0
  -23.6880  -22.4440   16.3420 H   0  0  0  0  0  0  0  0  0  0  0  0
  -23.6920  -22.0590   14.7620 H   0  0  0  0  0  0  0  0  0  0  0  0
  -22.3680  -20.9940   15.9030 C   0  0  0  0  0  2  0  0  0  0  0  0
  -23.3490  -19.8590   16.2220 C   0  0  0  0  0  2  0  0  0  0  0  0
  -24.3520  -20.3510   17.1100 O   0  0  0  0  0  0  0  0  0  0  0  0
  -25.2490  -19.3280   17.5360 C   0  0  0  0  0  2  0  0  0  0  0  0
  -26.5110  -19.2650   16.6510 C   0  0  0  0  0  2  0  0  0  0  0  0
  -27.6750  -19.5460   17.4310 O   0  0  0  0  0  0  0  0  0  0  0  0
  -28.4410  -18.3770   17.6980 C   0  0  0  0  0  2  0  0  0  0  0  0
  -29.5040  -18.6640   18.7700 C   0  0  0  0  0  2  0  0  0  0  0  0
  -30.3410  -17.4170   19.1150 C   0  0  0  0  0  2  0  0  0  0  0  0
  -31.0960  -17.5520   20.4530 C   0  0  0  0  0  2  0  0  0  0  0  0
  -32.0820  -16.4100   20.7790 C   0  0  0  0  0  2  0  0  0  0  0  0
  -31.9530  -14.0170   20.0900 C   0  0  0  0  0  0  0  0  0  0  0  0
  -31.2290  -12.0200   18.8490 C   0  0  0  0  0  2  0  0  0  0  0  0
  -30.2980  -12.4840   17.7080 C   0  0  0  0  0  2  0  0  0  0  0  0
  -28.8390  -12.5720   18.1960 C   0  0  0  0  0  2  0  0  0  0  0  0
  -28.7090  -13.3670   19.5230 C   0  0  0  0  0  3  0  0  0  0  0  0
  -29.7520  -12.8800   20.5580 C   0  0  0  0  0  2  0  0  0  0  0  0
  -31.0860  -12.9810   19.9480 N   0  0  0  0  0  0  0  0  0  0  0  0
  -33.0550  -14.0620   19.5330 O   0  0  0  0  0  0  0  0  0  0  0  0
  -31.4690  -15.0790   20.7550 N   0  0  0  0  0  0  0  0  0  0  0  0
  -30.5720  -14.9620   21.2030 H   0  0  0  0  0  0  0  0  0  0  0  0
  -26.5140  -14.3170   20.4800 C   0  0  0  0  0  0  0  0  0  0  0  0
  -25.3330  -13.7240   20.8180 C   0  0  0  0  0  0  0  0  0  0  0  0
  -25.5140  -12.3270   20.5910 C   0  0  0  0  0  0  0  0  0  0  0  0
  -27.3530  -13.2970   20.0620 N   0  0  0  0  0  0  0  0  0  0  0  0
  -26.7530  -12.0840   20.1840 N   0  0  0  0  0  0  0  0  0  0  0  0
  -24.5610  -11.2160   20.6820 C   0  0  0  0  0  0  0  0  0  0  0  0
  -24.8740  -10.0390   21.3950 C   0  0  0  0  0  3  0  0  0  0  0  0
  -23.9400   -8.9860   21.4790 C   0  0  0  0  0  3  0  0  0  0  0  0
  -22.6770   -9.1120   20.8510 C   0  0  0  0  0  0  0  0  0  0  0  0
  -22.3810  -10.2770   20.1240 C   0  0  0  0  0  3  0  0  0  0  0  0
  -23.3130  -11.3210   20.0380 C   0  0  0  0  0  3  0  0  0  0  0  0
  -21.7120   -8.1330   20.8570 O   0  0  0  0  0  0  0  0  0  0  0  0
  -21.5990   -7.2400   21.8900 C   0  0  0  0  0  0  0  0  0  0  0  0
  -21.4660   -7.6640   23.2310 C   0  0  0  0  0  3  0  0  0  0  0  0
  -21.2890   -6.7110   24.2540 C   0  0  0  0  0  3  0  0  0  0  0  0
  -21.2390   -5.3390   23.9400 C   0  0  0  0  0  0  0  0  0  0  0  0
  -21.3700   -4.9190   22.6060 C   0  0  0  0  0  3  0  0  0  0  0  0
  -21.5450   -5.8670   21.5830 C   0  0  0  0  0  0  0  0  0  0  0  0
  -21.6480   -5.4580   20.2940 F   0  0  0  0  0  0  0  0  0  0  0  0
  -21.0570   -4.4250   24.9210 F   0  0  0  0  0  0  0  0  0  0  0  0
  -24.0770  -14.4200   21.2540 C   0  0  0  0  0  0  0  0  0  0  0  0
  -23.2660  -13.7700   22.0800 N   0  0  0  0  0  0  0  0  0  0  0  0
  -23.8290  -15.5710   20.8950 O   0  0  0  0  0  0  0  0  0  0  0  0
  -23.4710  -12.8350   22.4010 H   0  0  0  0  0  0  0  0  0  0  0  0
  -22.4250  -14.2260   22.4010 H   0  0  0  0  0  0  0  0  0  0  0  0
  -26.9350  -15.6430   20.4830 N   0  0  0  0  0  0  0  0  0  0  0  0
  -26.3250  -16.3910   20.7940 H   0  0  0  0  0  0  0  0  0  0  0  0
  -27.8510  -15.9580   20.2020 H   0  0  0  0  0  0  0  0  0  0  0  0
  -24.0730  -24.8340   14.1200 C   0  0  0  0  0  2  0  0  0  0  0  0
  -26.2040  -25.4550   15.2210 C   0  0  0  0  0  0  0  0  0  0  0  0
  -25.1520  -25.7620   14.4510 N   0  0  0  0  0  0  0  0  0  0  0  0
  -26.3600  -24.3350   15.7110 O   0  0  0  0  0  0  0  0  0  0  0  0
  -25.0840  -26.7070   14.0910 H   0  0  0  0  0  0  0  0  0  0  0  0
  -27.2050  -26.5610   15.5430 C   0  0  0  0  0  2  0  0  0  0  0  0
  -28.1650  -26.0450   16.5420 N   0  0  0  0  0  4  0  0  0  0  0  0
  -28.9480  -25.6160   16.0740 H   0  0  0  0  0  0  0  0  0  0  0  0
  -27.6460  -25.2850   16.9600 H   0  0  0  0  0  0  0  0  0  0  0  0
  -28.6130  -27.0050   17.5800 C   0  0  0  0  0  2  0  0  0  0  0  0
  -28.7040  -26.3400   18.9740 C   0  0  0  0  0  2  0  0  0  0  0  0
  -28.4890  -27.2840   20.0290 O   0  0  0  0  0  0  0  0  0  0  0  0
  -24.5970  -32.1110   23.5130 C   0  0  0  0  0  0  0  0  0  0  0  0
  -27.2630  -27.9120   20.1280 C   0  0  0  0  0  0  0  0  0  0  0  0
  -23.3820  -30.7790   21.8210 C   0  0  0  0  0  3  0  0  0  0  0  0
  -24.8310  -29.3480   20.2920 C   0  0  0  0  0  0  0  0  0  0  0  0
  -25.8960  -31.1960   21.5950 C   0  0  0  0  0  2  0  0  0  0  0  0
  -25.9890  -29.8640   20.8840 C   0  0  0  0  0  0  0  0  0  0  0  0
  -27.2050  -29.1490   20.8060 C   0  0  0  0  0  3  0  0  0  0  0  0
  -26.0710  -27.3910   19.5650 C   0  0  0  0  0  3  0  0  0  0  0  0
  -24.8640  -28.1060   19.6380 C   0  0  0  0  0  3  0  0  0  0  0  0
  -23.5740  -30.1810   20.4030 C   0  0  0  0  0  2  0  0  0  0  0  0
  -24.6440  -31.3730   22.3680 N   0  0  0  0  0  0  0  0  0  0  0  0
  -23.5210  -32.3340   24.0870 O   0  0  0  0  0  0  0  0  0  0  0  0
  -22.7700  -29.6930   22.7330 C   0  0  0  0  0  0  0  0  0  0  0  0
  -21.4560  -29.4580   22.5830 N   0  0  0  0  0  0  0  0  0  0  0  0
  -23.4730  -29.0650   23.5300 O   0  0  0  0  0  0  0  0  0  0  0  0
  -20.9490  -30.0210   21.9140 H   0  0  0  0  0  0  0  0  0  0  0  0
  -18.1470  -28.0520   22.9310 C   0  0  0  0  0  0  0  0  0  0  0  0
  -20.6710  -28.4590   23.3070 C   0  0  0  0  0  3  0  0  0  0  0  0
  -20.8840  -27.0480   22.7130 C   0  0  0  0  0  2  0  0  0  0  0  0
  -19.8430  -26.6770   21.6530 C   0  0  0  0  0  2  0  0  0  0  0  0
  -18.4320  -26.7270   22.2450 C   0  0  0  0  0  2  0  0  0  0  0  0
  -19.2000  -28.8730   23.4160 C   0  0  0  0  0  0  0  0  0  0  0  0
  -18.8820  -30.1110   24.0130 C   0  0  0  0  0  3  0  0  0  0  0  0
  -17.5450  -30.5310   24.1340 C   0  0  0  0  0  3  0  0  0  0  0  0
  -16.5060  -29.7070   23.6690 C   0  0  0  0  0  3  0  0  0  0  0  0
  -16.8070  -28.4700   23.0720 C   0  0  0  0  0  3  0  0  0  0  0  0
  -25.8850  -32.7280   24.1410 C   0  0  0  0  0  3  0  0  0  0  0  0
  -25.6070  -34.1460   24.4120 N   0  0  0  0  0  0  0  0  0  0  0  0
  -25.9910  -35.1580   23.6250 C   0  0  0  0  0  0  0  0  0  0  0  0
  -26.6890  -34.9990   22.6200 O   0  0  0  0  0  0  0  0  0  0  0  0
  -24.9920  -34.3460   25.1870 H   0  0  0  0  0  0  0  0  0  0  0  0
  -24.3240  -36.9820   23.1500 C   0  0  0  0  0  1  0  0  0  0  0  0
  -25.5280  -36.5760   24.0150 C   0  0  0  0  0  3  0  0  0  0  0  0
  -27.6660  -37.4250   24.8730 C   0  0  0  0  0  1  0  0  0  0  0  0
  -26.5920  -37.5960   23.8980 N   0  0  0  0  0  0  0  0  0  0  0  0
  -26.2080  -38.5300   24.0080 H   0  0  0  0  0  0  0  0  0  0  0  0
  -26.3530  -31.9900   25.4550 C   0  0  1  0  0  0  0  0  0  0  0  0
  -25.2280  -31.8070   26.5000 C   0  0  0  0  0  1  0  0  0  0  0  0
  -26.9160  -30.5900   25.1190 C   0  0  0  0  0  1  0  0  0  0  0  0
  -27.5010  -32.7820   26.1210 C   0  0  0  0  0  1  0  0  0  0  0  0
  2  1  1  0
  2  3  1  0
  3  6  1  0
  3  4  1  0
  5  3  1  0
  6  7  1  0
  7  8  1  0
  8  9  1  0
 10 11  1  0
 10  9  1  0
 11 12  1  0
 12 13  1  0
 13 14  1  0
 14 15  1  0
 15 16  1  0
 17 25  1  0
 18 23  1  0
 19 20  1  0
 19 18  1  0
 21 20  1  0
 21 30  1  0
 21 22  1  0
 23 17  1  0
 23 22  1  0
 24 17  2  0
 25 16  1  0
 25 26  1  0
 27 52  1  0
 27 28  2  0
 28 47  1  0
 29 32  1  0
 29 28  1  0
 30 31  1  0
 30 27  1  0
 31 29  2  0
 32 33  1  0
 33 34  2  0
 35 38  1  0
 35 34  1  0
 36 35  2  0
 37 36  1  0
 37 32  2  0
 38 39  1  0
 39 40  1  0
 40 41  2  0
 42 41  1  0
 42 46  1  0
 43 42  2  0
 44 39  2  0
 44 43  1  0
 45 44  1  0
 47 48  1  0
 48 51  1  0
 48 50  1  0
 49 47  2  0
 52 53  1  0
 54 52  1  0
 55 57  1  0
 55  1  1  0
 56 60  1  0
 56 58  2  0
 57 56  1  0
 59 57  1  0
 60 61  1  0
 61 63  1  0
 61 64  1  0
 62 61  1  0
 64 65  1  0
 65 66  1  0
 66 68  1  0
 67 78  2  0
 68 73  1  0
 69 77  1  0
 69 79  1  0
 70 76  1  0
 70 72  1  0
 71 77  1  0
 72 71  1  0
 73 72  2  0
 74 75  1  0
 74 68  2  0
 75 70  2  0
 76 69  1  0
 77 67  1  0
 79 81  2  0
 80 79  1  0
 82 80  1  0
 83 92  2  0
 83 88  1  0
 84 80  1  0
 84 88  1  0
 85 84  1  0
 86 87  1  0
 86 85  1  0
 87 83  1  0
 88 89  2  0
 89 90  1  0
 91 90  2  0
 92 91  1  0
 93 67  1  0
 93 94  1  0
 93103  1  0
 94 97  1  0
 95 99  1  0
 95 94  1  0
 96 95  2  0
 99 98  1  0
101102  1  0
101 99  1  0
101100  1  0
103106  1  1
103104  1  0
105103  1  0
M  ISO  4  17 100  25 100  65 101  66 101
M  END
>  <TORSDO>  (42) 
F 35

>  <SCORE>  (42) 
-6.662

>  <name>  (42) 
44

>  <ligand_id>  (42) 
44

>  <original_smiles>  (42) 
[H]c1c([H])c([H])c2c(c1[H])C([H])([H])C([H])([H])C([H])([H])C2([H])N([H])C(=O)C1([H])N(C(=O)C([H])(N([H])C(=O)C([H])(N([H])C([H])([H])[H])C([H])([H])[H])C(C([H])([H])[H])(C([H])([H])[H])C([H])([H])[H])C([H])([H])c2c([H])c(OC([H])([H])C([H])([H])[N+]([H])([H])C([H])([H])C(=O)N([H])C([H])([H])C([H])([H])C([H])([H])[N+]([H])([H])C([H])([H])C([H])([H])OC([H])([H])C([H])([H])OC([H])([H])C([H])([H])C([H])([H])C([H])([H])C([H])([H])N([H])C(=O)N3C([H])([H])C([H])([H])C([H])([H])C([H])(n4nc(-c5c([H])c([H])c(Oc6c([H])c([H])c(F)c([H])c6F)c([H])c5[H])c(C(=O)N([H])[H])c4N([H])[H])C3([H])[H])c([H])c([H])c2C1([H])[H]

>  <smiles>  (42) 
[H]c1c([H])c([H])c2c(c1[H])C([H])([H])C([H])([H])C([H])([H])C2([H])N([H])C(=O)C1([H])N(C(=O)C([H])(N([H])C(=O)C([H])(N([H])C([H])([H])[H])C([H])([H])[H])C(C([H])([H])[H])(C([H])([H])[H])C([H])([H])[H])C([H])([H])c2c([H])c(OC([H])([H])C([H])([H])[N+]([H])([H])C([H])([H])C(=O)N([H])C([H])([H])C([H])([H])C([H])([H])[N+]([H])([H])C([H])([H])C([H])([H])OC([H])([H])C([H])([H])OC([H])([H])C([H])([H])C([H])([H])C([H])([H])C([H])([H])N([H])C(=O)N3C([H])([H])C([H])([H])C([H])([H])C([H])(n4nc(-c5c([H])c([H])c(Oc6c([H])c([H])c(F)c([H])c6F)c([H])c5[H])c(C(=O)N([H])[H])c4N([H])[H])C3([H])[H])c([H])c([H])c2C1([H])[H]

$$$$
45:0:0
     RDKit          3D

104111  0  0  1  0  0  0  0  0999 V2000
  -31.3670  -23.7740   19.9570 C   0  0  0  0  0  3  0  0  0  0  0  0
  -32.3740  -24.6620   19.9770 C   0  0  0  0  0  3  0  0  0  0  0  0
  -32.4110  -25.5980   21.0780 C   0  0  0  0  0  3  0  0  0  0  0  0
  -32.5880  -26.9260   20.9330 C   0  0  0  0  0  3  0  0  0  0  0  0
  -32.3130  -27.8790   22.0090 C   0  0  0  0  0  0  0  0  0  0  0  0
  -31.5540  -27.3570   22.9830 N   0  0  0  0  0  0  0  0  0  0  0  0
  -32.6040  -29.0740   21.9750 O   0  0  0  0  0  0  0  0  0  0  0  0
  -31.4580  -26.3530   22.9730 H   0  0  0  0  0  0  0  0  0  0  0  0
  -30.5410  -28.0630   23.7560 C   0  0  0  0  0  2  0  0  0  0  0  0
  -29.3200  -27.1490   24.0180 C   0  0  0  0  0  2  0  0  0  0  0  0
  -28.5410  -26.8950   22.8470 O   0  0  0  0  0  0  0  0  0  0  0  0
  -28.9150  -25.7210   22.1280 C   0  0  0  0  0  2  0  0  0  0  0  0
  -28.1140  -25.5390   20.8330 C   0  0  0  0  0  2  0  0  0  0  0  0
  -28.2370  -26.6850   19.9890 O   0  0  0  0  0  0  0  0  0  0  0  0
  -24.5730  -31.8540   23.1430 C   0  0  0  0  0  0  0  0  0  0  0  0
  -27.0950  -27.4380   19.9700 C   0  0  0  0  0  0  0  0  0  0  0  0
  -23.3110  -30.4700   21.5170 C   0  0  0  0  0  3  0  0  0  0  0  0
  -24.7170  -28.9380   20.0400 C   0  0  0  0  0  0  0  0  0  0  0  0
  -25.8340  -30.8110   21.2690 C   0  0  0  0  0  2  0  0  0  0  0  0
  -25.8880  -29.4520   20.6110 C   0  0  0  0  0  0  0  0  0  0  0  0
  -27.0860  -28.7110   20.5730 C   0  0  0  0  0  3  0  0  0  0  0  0
  -25.9170  -26.9250   19.3900 C   0  0  0  0  0  3  0  0  0  0  0  0
  -24.7240  -27.6720   19.4270 C   0  0  0  0  0  3  0  0  0  0  0  0
  -23.4780  -29.8000   20.1260 C   0  0  0  0  0  2  0  0  0  0  0  0
  -24.5880  -31.0630   22.0310 N   0  0  0  0  0  0  0  0  0  0  0  0
  -23.5120  -32.1300   23.7190 O   0  0  0  0  0  0  0  0  0  0  0  0
  -22.6810  -29.4480   22.4910 C   0  0  0  0  0  0  0  0  0  0  0  0
  -21.3530  -29.2740   22.4020 N   0  0  0  0  0  0  0  0  0  0  0  0
  -23.3850  -28.8140   23.2830 O   0  0  0  0  0  0  0  0  0  0  0  0
  -20.8490  -29.8350   21.7280 H   0  0  0  0  0  0  0  0  0  0  0  0
  -17.9910  -28.0720   22.9600 C   0  0  0  0  0  0  0  0  0  0  0  0
  -20.5540  -28.3370   23.1930 C   0  0  0  0  0  3  0  0  0  0  0  0
  -20.6500  -26.9030   22.6230 C   0  0  0  0  0  2  0  0  0  0  0  0
  -19.5340  -26.5740   21.6250 C   0  0  0  0  0  2  0  0  0  0  0  0
  -18.1620  -26.7190   22.2880 C   0  0  0  0  0  2  0  0  0  0  0  0
  -19.1150  -28.8390   23.3710 C   0  0  0  0  0  0  0  0  0  0  0  0
  -18.9040  -30.1050   23.9590 C   0  0  0  0  0  3  0  0  0  0  0  0
  -17.6020  -30.6090   24.1350 C   0  0  0  0  0  3  0  0  0  0  0  0
  -16.4930  -29.8400   23.7420 C   0  0  0  0  0  3  0  0  0  0  0  0
  -16.6880  -28.5740   23.1620 C   0  0  0  0  0  3  0  0  0  0  0  0
  -25.8850  -32.4680   23.7240 C   0  0  0  0  0  3  0  0  0  0  0  0
  -25.5930  -33.8570   24.1050 N   0  0  0  0  0  0  0  0  0  0  0  0
  -25.9090  -34.9300   23.3690 C   0  0  0  0  0  0  0  0  0  0  0  0
  -26.5480  -34.8560   22.3150 O   0  0  0  0  0  0  0  0  0  0  0  0
  -25.0320  -33.9880   24.9340 H   0  0  0  0  0  0  0  0  0  0  0  0
  -24.1840  -36.7370   23.0940 C   0  0  0  0  0  1  0  0  0  0  0  0
  -25.4380  -36.3080   23.8730 C   0  0  0  0  0  3  0  0  0  0  0  0
  -27.5940  -37.1580   24.6870 C   0  0  0  0  0  1  0  0  0  0  0  0
  -26.4730  -37.3610   23.7720 N   0  0  0  0  0  0  0  0  0  0  0  0
  -26.0740  -38.2790   23.9500 H   0  0  0  0  0  0  0  0  0  0  0  0
  -26.4570  -31.6620   24.9560 C   0  0  1  0  0  0  0  0  0  0  0  0
  -25.4110  -31.4010   26.0660 C   0  0  0  0  0  1  0  0  0  0  0  0
  -27.0170  -30.2960   24.5000 C   0  0  0  0  0  1  0  0  0  0  0  0
  -27.6360  -32.4400   25.5920 C   0  0  0  0  0  1  0  0  0  0  0  0
  -31.1090  -22.7860   18.9330 C   0  0  0  0  0  3  0  0  0  0  0  0
  -29.9240  -22.1430   18.9030 C   0  0  0  0  0  3  0  0  0  0  0  0
  -29.5940  -21.0960   17.9240 C   0  0  0  0  0  0  0  0  0  0  0  0
  -30.3340  -20.7840   16.9890 O   0  0  0  0  0  0  0  0  0  0  0  0
  -28.2850  -20.3220   18.1170 C   0  0  0  0  0  2  0  0  0  0  0  0
  -28.2590  -19.4240   19.3730 C   0  0  0  0  0  2  0  0  0  0  0  0
  -29.4010  -18.4840   19.4290 N   0  0  0  0  0  4  0  0  0  0  0  0
  -30.2520  -19.0070   19.3150 H   0  0  0  0  0  0  0  0  0  0  0  0
  -29.3410  -17.8400   18.6570 H   0  0  0  0  0  0  0  0  0  0  0  0
  -29.5230  -17.7090   20.6800 C   0  0  0  0  0  2  0  0  0  0  0  0
  -30.9870  -17.2830   20.9010 C   0  0  0  0  0  2  0  0  0  0  0  0
  -31.1640  -16.0820   21.8550 C   0  0  0  0  0  2  0  0  0  0  0  0
  -30.8950  -14.1410   20.3030 C   0  0  0  0  0  0  0  0  0  0  0  0
  -30.3820  -12.1780   18.9060 C   0  0  0  0  0  2  0  0  0  0  0  0
  -29.3990  -12.5240   17.7740 C   0  0  0  0  0  2  0  0  0  0  0  0
  -27.9410  -12.4180   18.2610 C   0  0  0  0  0  2  0  0  0  0  0  0
  -27.7040  -13.1830   19.5890 C   0  0  0  0  0  3  0  0  0  0  0  0
  -28.7810  -12.8110   20.6310 C   0  0  0  0  0  2  0  0  0  0  0  0
  -30.1110  -13.0670   20.0430 N   0  0  0  0  0  0  0  0  0  0  0  0
  -31.8930  -14.4340   19.6370 O   0  0  0  0  0  0  0  0  0  0  0  0
  -30.5130  -14.8700   21.3590 N   0  0  0  0  0  0  0  0  0  0  0  0
  -29.7170  -14.5250   21.8750 H   0  0  0  0  0  0  0  0  0  0  0  0
  -25.3420  -13.8620   20.3660 C   0  0  0  0  0  0  0  0  0  0  0  0
  -24.2650  -13.1180   20.7720 C   0  0  0  0  0  0  0  0  0  0  0  0
  -24.6900  -11.7550   20.7290 C   0  0  0  0  0  0  0  0  0  0  0  0
  -26.3550  -12.9510   20.1050 N   0  0  0  0  0  0  0  0  0  0  0  0
  -25.9670  -11.6800   20.3780 N   0  0  0  0  0  0  0  0  0  0  0  0
  -23.9380  -10.5120   20.9460 C   0  0  0  0  0  0  0  0  0  0  0  0
  -24.3790   -9.5320   21.8640 C   0  0  0  0  0  3  0  0  0  0  0  0
  -23.6290   -8.3540   22.0680 C   0  0  0  0  0  3  0  0  0  0  0  0
  -22.4250   -8.1460   21.3550 C   0  0  0  0  0  0  0  0  0  0  0  0
  -22.0030   -9.1140   20.4250 C   0  0  0  0  0  3  0  0  0  0  0  0
  -22.7530  -10.2840   20.2190 C   0  0  0  0  0  3  0  0  0  0  0  0
  -21.6440   -7.0210   21.4680 O   0  0  0  0  0  0  0  0  0  0  0  0
  -21.6180   -6.2780   22.6210 C   0  0  0  0  0  0  0  0  0  0  0  0
  -21.2620   -6.8440   23.8640 C   0  0  0  0  0  3  0  0  0  0  0  0
  -21.1800   -6.0290   25.0110 C   0  0  0  0  0  3  0  0  0  0  0  0
  -21.4440   -4.6490   24.9150 C   0  0  0  0  0  0  0  0  0  0  0  0
  -21.7950   -4.0830   23.6760 C   0  0  0  0  0  3  0  0  0  0  0  0
  -21.8790   -4.8970   22.5320 C   0  0  0  0  0  0  0  0  0  0  0  0
  -22.1960   -4.3420   21.3370 F   0  0  0  0  0  0  0  0  0  0  0  0
  -21.3580   -3.8640   26.0150 F   0  0  0  0  0  0  0  0  0  0  0  0
  -22.8920  -13.6330   21.0900 C   0  0  0  0  0  0  0  0  0  0  0  0
  -22.1760  -12.9590   21.9850 N   0  0  0  0  0  0  0  0  0  0  0  0
  -22.4610  -14.6660   20.5810 O   0  0  0  0  0  0  0  0  0  0  0  0
  -22.5380  -12.1220   22.4190 H   0  0  0  0  0  0  0  0  0  0  0  0
  -21.2540  -13.2850   22.2400 H   0  0  0  0  0  0  0  0  0  0  0  0
  -25.5370  -15.2250   20.1790 N   0  0  0  0  0  0  0  0  0  0  0  0
  -24.7880  -15.8990   20.3000 H   0  0  0  0  0  0  0  0  0  0  0  0
  -26.3850  -15.6350   19.8080 H   0  0  0  0  0  0  0  0  0  0  0  0
  1  2  2  0
  2  3  1  0
  4  3  2  0
  4  5  1  0
  5  6  1  0
  6  9  1  0
  7  5  2  0
  8  6  1  0
  9 10  1  0
 11 10  1  0
 12 11  1  0
 13 12  1  0
 14 13  1  0
 15 26  2  0
 16 14  1  0
 16 21  1  0
 17 25  1  0
 17 27  1  0
 18 24  1  0
 18 20  1  0
 19 25  1  0
 20 19  1  0
 21 20  2  0
 22 23  1  0
 22 16  2  0
 23 18  2  0
 24 17  1  0
 25 15  1  0
 27 29  2  0
 28 27  1  0
 30 28  1  0
 31 40  2  0
 31 36  1  0
 32 28  1  0
 32 36  1  0
 33 32  1  0
 34 35  1  0
 34 33  1  0
 35 31  1  0
 36 37  2  0
 37 38  1  0
 39 38  2  0
 40 39  1  0
 41 15  1  0
 41 42  1  0
 41 51  1  0
 42 45  1  0
 43 47  1  0
 43 42  1  0
 44 43  2  0
 47 46  1  0
 49 47  1  0
 49 50  1  0
 49 48  1  0
 51 54  1  1
 51 52  1  0
 53 51  1  0
 55  1  1  0
 56 55  2  0
 57 59  1  0
 57 56  1  0
 58 57  2  0
 59 60  1  0
 60 61  1  0
 61 64  1  0
 62 61  1  0
 63 61  1  0
 64 65  1  0
 65 66  1  0
 67 75  1  0
 68 73  1  0
 69 70  1  0
 69 68  1  0
 71 70  1  0
 71 80  1  0
 71 72  1  0
 73 67  1  0
 73 72  1  0
 74 67  2  0
 75 66  1  0
 75 76  1  0
 77 78  2  0
 78 97  1  0
 79 78  1  0
 79 82  1  0
 80 77  1  0
 80 81  1  0
 81 79  2  0
 82 83  1  0
 83 84  2  0
 85 88  1  0
 85 84  1  0
 86 85  2  0
 87 86  1  0
 87 82  2  0
 88 89  1  0
 89 90  1  0
 90 91  2  0
 92 91  1  0
 92 96  1  0
 93 92  2  0
 94 89  2  0
 94 93  1  0
 95 94  1  0
 97 98  1  0
 98101  1  0
 98100  1  0
 99 97  2  0
102103  1  0
102 77  1  0
104102  1  0
M  ISO  4  13 101  14 101  67 100  75 100
M  END
>  <TORSDO>  (43) 
F 31

>  <SCORE>  (43) 
-10.973

>  <name>  (43) 
45

>  <ligand_id>  (43) 
45

>  <original_smiles>  (43) 
[H]C(C(=O)N([H])C([H])([H])C([H])([H])OC([H])([H])C([H])([H])Oc1c([H])c([H])c2c(c1[H])C([H])([H])N(C(=O)C([H])(N([H])C(=O)C([H])(N([H])C([H])([H])[H])C([H])([H])[H])C(C([H])([H])[H])(C([H])([H])[H])C([H])([H])[H])C([H])(C(=O)N([H])C1([H])c3c([H])c([H])c([H])c([H])c3C([H])([H])C([H])([H])C1([H])[H])C2([H])[H])=C([H])C([H])=C([H])C([H])=C([H])C(=O)C([H])([H])C([H])([H])[N+]([H])([H])C([H])([H])C([H])([H])C([H])([H])N([H])C(=O)N1C([H])([H])C([H])([H])C([H])([H])C([H])(n2nc(-c3c([H])c([H])c(Oc4c([H])c([H])c(F)c([H])c4F)c([H])c3[H])c(C(=O)N([H])[H])c2N([H])[H])C1([H])[H]

>  <smiles>  (43) 
[H]C(C(=O)N([H])C([H])([H])C([H])([H])OC([H])([H])C([H])([H])Oc1c([H])c([H])c2c(c1[H])C([H])([H])N(C(=O)C([H])(N([H])C(=O)C([H])(N([H])C([H])([H])[H])C([H])([H])[H])C(C([H])([H])[H])(C([H])([H])[H])C([H])([H])[H])C([H])(C(=O)N([H])C1([H])c3c([H])c([H])c([H])c([H])c3C([H])([H])C([H])([H])C1([H])[H])C2([H])[H])=C([H])C([H])=C([H])C([H])=C([H])C(=O)C([H])([H])C([H])([H])[N+]([H])([H])C([H])([H])C([H])([H])C([H])([H])N([H])C(=O)N1C([H])([H])C([H])([H])C([H])([H])C([H])(n2nc(-c3c([H])c([H])c(Oc4c([H])c([H])c(F)c([H])c4F)c([H])c3[H])c(C(=O)N([H])[H])c2N([H])[H])C1([H])[H]

$$$$
46:0:0
     RDKit          3D

102109  0  0  1  0  0  0  0  0999 V2000
  -26.4890  -19.6200   20.4480 C   0  0  0  0  0  3  0  0  0  0  0  0
  -27.2630  -19.6890   21.5450 C   0  0  0  0  0  3  0  0  0  0  0  0
  -26.9210  -18.9350   22.7350 C   0  0  0  0  0  0  0  0  0  0  0  0
  -27.7600  -19.2100   23.7380 N   0  0  0  0  0  0  0  0  0  0  0  0
  -26.0070  -18.1150   22.8340 O   0  0  0  0  0  0  0  0  0  0  0  0
  -28.4010  -19.9780   23.5950 H   0  0  0  0  0  0  0  0  0  0  0  0
  -27.7900  -18.5060   25.0210 C   0  0  0  0  0  2  0  0  0  0  0  0
  -29.2240  -18.1740   25.4880 C   0  0  0  0  0  2  0  0  0  0  0  0
  -30.1490  -17.7240   24.4180 N   0  0  0  0  0  4  0  0  0  0  0  0
  -31.0410  -17.5620   24.8600 H   0  0  0  0  0  0  0  0  0  0  0  0
  -30.2740  -18.4710   23.7530 H   0  0  0  0  0  0  0  0  0  0  0  0
  -29.7690  -16.4840   23.7020 C   0  0  0  0  0  2  0  0  0  0  0  0
  -30.8070  -16.0760   22.6250 C   0  0  0  0  0  2  0  0  0  0  0  0
  -30.7620  -14.3130   20.8050 C   0  0  0  0  0  0  0  0  0  0  0  0
  -30.4390  -12.3160   19.3800 C   0  0  0  0  0  2  0  0  0  0  0  0
  -29.4920  -12.5730   18.1910 C   0  0  0  0  0  2  0  0  0  0  0  0
  -28.0140  -12.4080   18.6030 C   0  0  0  0  0  2  0  0  0  0  0  0
  -27.6710  -13.2000   19.8880 C   0  0  0  0  0  3  0  0  0  0  0  0
  -28.6990  -12.9020   20.9930 C   0  0  0  0  0  2  0  0  0  0  0  0
  -30.0560  -13.2040   20.4860 N   0  0  0  0  0  0  0  0  0  0  0  0
  -31.7030  -14.7540   20.1300 O   0  0  0  0  0  0  0  0  0  0  0  0
  -30.4090  -14.8270   21.9920 N   0  0  0  0  0  0  0  0  0  0  0  0
  -29.7390  -14.2660   22.4980 H   0  0  0  0  0  0  0  0  0  0  0  0
  -25.2570  -13.8110   20.5560 C   0  0  0  0  0  0  0  0  0  0  0  0
  -24.1810  -13.0430   20.9100 C   0  0  0  0  0  0  0  0  0  0  0  0
  -24.6350  -11.6900   20.8680 C   0  0  0  0  0  0  0  0  0  0  0  0
  -26.3040  -12.9280   20.3350 N   0  0  0  0  0  0  0  0  0  0  0  0
  -25.9280  -11.6440   20.5710 N   0  0  0  0  0  0  0  0  0  0  0  0
  -23.8980  -10.4310   21.0370 C   0  0  0  0  0  0  0  0  0  0  0  0
  -24.3600   -9.4210   21.9090 C   0  0  0  0  0  3  0  0  0  0  0  0
  -23.6300   -8.2220   22.0650 C   0  0  0  0  0  3  0  0  0  0  0  0
  -22.4250   -8.0250   21.3500 C   0  0  0  0  0  0  0  0  0  0  0  0
  -21.9820   -9.0250   20.4670 C   0  0  0  0  0  3  0  0  0  0  0  0
  -22.7140  -10.2140   20.3060 C   0  0  0  0  0  3  0  0  0  0  0  0
  -21.6570   -6.8880   21.4240 O   0  0  0  0  0  0  0  0  0  0  0  0
  -21.6820   -6.0750   22.5260 C   0  0  0  0  0  0  0  0  0  0  0  0
  -21.3980   -6.5670   23.8170 C   0  0  0  0  0  3  0  0  0  0  0  0
  -21.3690   -5.6880   24.9180 C   0  0  0  0  0  3  0  0  0  0  0  0
  -21.6080   -4.3120   24.7270 C   0  0  0  0  0  0  0  0  0  0  0  0
  -21.8780   -3.8170   23.4410 C   0  0  0  0  0  3  0  0  0  0  0  0
  -21.9160   -4.6960   22.3430 C   0  0  0  0  0  0  0  0  0  0  0  0
  -22.1590   -4.2110   21.1020 F   0  0  0  0  0  0  0  0  0  0  0  0
  -21.5690   -3.4630   25.7810 F   0  0  0  0  0  0  0  0  0  0  0  0
  -22.7840  -13.5210   21.1830 C   0  0  0  0  0  0  0  0  0  0  0  0
  -22.0620  -12.8350   22.0620 N   0  0  0  0  0  0  0  0  0  0  0  0
  -22.3390  -14.5400   20.6560 O   0  0  0  0  0  0  0  0  0  0  0  0
  -22.4420  -12.0210   22.5230 H   0  0  0  0  0  0  0  0  0  0  0  0
  -21.1290  -13.1420   22.3000 H   0  0  0  0  0  0  0  0  0  0  0  0
  -25.4280  -15.1800   20.3830 N   0  0  0  0  0  0  0  0  0  0  0  0
  -24.6580  -15.8390   20.4370 H   0  0  0  0  0  0  0  0  0  0  0  0
  -26.2800  -15.6060   20.0470 H   0  0  0  0  0  0  0  0  0  0  0  0
  -26.7970  -20.3630   19.2460 C   0  0  0  0  0  3  0  0  0  0  0  0
  -25.9420  -20.4360   18.2120 C   0  0  0  0  0  3  0  0  0  0  0  0
  -26.1920  -21.2160   16.9360 C   0  0  0  0  0  2  0  0  0  0  0  0
  -26.3820  -22.6530   17.2260 N   0  0  0  0  0  4  0  0  0  0  0  0
  -26.2650  -22.7930   18.2150 H   0  0  0  0  0  0  0  0  0  0  0  0
  -25.6550  -23.1680   16.7560 H   0  0  0  0  0  0  0  0  0  0  0  0
  -27.6910  -23.1930   16.8100 C   0  0  0  0  0  2  0  0  0  0  0  0
  -27.8530  -24.6380   17.2470 C   0  0  0  0  0  3  0  0  0  0  0  0
  -28.6540  -25.0550   18.2440 C   0  0  0  0  0  3  0  0  0  0  0  0
  -28.8570  -26.5070   18.6440 C   0  0  0  0  0  2  0  0  0  0  0  0
  -28.4220  -26.7790   19.9800 O   0  0  0  0  0  0  0  0  0  0  0  0
  -24.6120  -31.8700   23.2120 C   0  0  0  0  0  0  0  0  0  0  0  0
  -27.2390  -27.4710   20.0610 C   0  0  0  0  0  0  0  0  0  0  0  0
  -23.3990  -30.4940   21.5530 C   0  0  0  0  0  3  0  0  0  0  0  0
  -24.8430  -28.9580   20.1220 C   0  0  0  0  0  0  0  0  0  0  0  0
  -25.9260  -30.8370   21.3660 C   0  0  0  0  0  2  0  0  0  0  0  0
  -26.0020  -29.4710   20.7200 C   0  0  0  0  0  0  0  0  0  0  0  0
  -27.2000  -28.7270   20.7020 C   0  0  0  0  0  3  0  0  0  0  0  0
  -26.0590  -26.9510   19.4880 C   0  0  0  0  0  3  0  0  0  0  0  0
  -24.8620  -27.6900   19.5140 C   0  0  0  0  0  3  0  0  0  0  0  0
  -23.6080  -29.8250   20.1680 C   0  0  0  0  0  2  0  0  0  0  0  0
  -24.6640  -31.0810   22.1020 N   0  0  0  0  0  0  0  0  0  0  0  0
  -23.5320  -32.1450   23.7530 O   0  0  0  0  0  0  0  0  0  0  0  0
  -22.7400  -29.4670   22.5010 C   0  0  0  0  0  0  0  0  0  0  0  0
  -21.4140  -29.3030   22.3750 N   0  0  0  0  0  0  0  0  0  0  0  0
  -23.4180  -28.8210   23.3040 O   0  0  0  0  0  0  0  0  0  0  0  0
  -20.9300  -29.8770   21.6980 H   0  0  0  0  0  0  0  0  0  0  0  0
  -18.0270  -28.1370   22.8490 C   0  0  0  0  0  0  0  0  0  0  0  0
  -20.5860  -28.3660   23.1320 C   0  0  0  0  0  3  0  0  0  0  0  0
  -20.6760  -26.9400   22.5420 C   0  0  0  0  0  2  0  0  0  0  0  0
  -19.5740  -26.6390   21.5210 C   0  0  0  0  0  2  0  0  0  0  0  0
  -18.1920  -26.7920   22.1630 C   0  0  0  0  0  2  0  0  0  0  0  0
  -19.1520  -28.8830   23.2910 C   0  0  0  0  0  0  0  0  0  0  0  0
  -18.9450  -30.1440   23.8920 C   0  0  0  0  0  3  0  0  0  0  0  0
  -17.6450  -30.6580   24.0560 C   0  0  0  0  0  3  0  0  0  0  0  0
  -16.5340  -29.9090   23.6310 C   0  0  0  0  0  3  0  0  0  0  0  0
  -16.7260  -28.6500   23.0340 C   0  0  0  0  0  3  0  0  0  0  0  0
  -25.9030  -32.4830   23.8410 C   0  0  0  0  0  3  0  0  0  0  0  0
  -25.5900  -33.8630   24.2340 N   0  0  0  0  0  0  0  0  0  0  0  0
  -25.9030  -34.9490   23.5140 C   0  0  0  0  0  0  0  0  0  0  0  0
  -26.5590  -34.8930   22.4690 O   0  0  0  0  0  0  0  0  0  0  0  0
  -25.0050  -33.9800   25.0490 H   0  0  0  0  0  0  0  0  0  0  0  0
  -24.1490  -36.7330   23.2640 C   0  0  0  0  0  1  0  0  0  0  0  0
  -25.4110  -36.3120   24.0340 C   0  0  0  0  0  3  0  0  0  0  0  0
  -27.5580  -37.1820   24.8460 C   0  0  0  0  0  1  0  0  0  0  0  0
  -26.4300  -37.3800   23.9410 N   0  0  0  0  0  0  0  0  0  0  0  0
  -26.0190  -38.2880   24.1390 H   0  0  0  0  0  0  0  0  0  0  0  0
  -26.4480  -31.6600   25.0730 C   0  0  1  0  0  0  0  0  0  0  0  0
  -25.3750  -31.3720   26.1480 C   0  0  0  0  0  1  0  0  0  0  0  0
  -27.0300  -30.3040   24.6100 C   0  0  0  0  0  1  0  0  0  0  0  0
  -27.6070  -32.4310   25.7480 C   0  0  0  0  0  1  0  0  0  0  0  0
  1  2  2  0
  2  3  1  0
  3  5  2  0
  3  4  1  0
  4  7  1  0
  6  4  1  0
  7  8  1  0
  9 10  1  0
  9  8  1  0
 11  9  1  0
 12  9  1  0
 13 12  1  0
 14 22  1  0
 15 20  1  0
 16 17  1  0
 16 15  1  0
 18 17  1  0
 18 27  1  0
 18 19  1  0
 20 14  1  0
 20 19  1  0
 21 14  2  0
 22 23  1  0
 22 13  1  0
 24 25  2  0
 25 44  1  0
 26 25  1  0
 26 29  1  0
 27 24  1  0
 27 28  1  0
 28 26  2  0
 29 30  1  0
 30 31  2  0
 32 35  1  0
 32 31  1  0
 33 32  2  0
 34 33  1  0
 34 29  2  0
 35 36  1  0
 36 37  1  0
 37 38  2  0
 39 38  1  0
 39 43  1  0
 40 39  2  0
 41 36  2  0
 41 40  1  0
 42 41  1  0
 44 45  1  0
 45 48  1  0
 45 47  1  0
 46 44  2  0
 49 50  1  0
 49 24  1  0
 51 49  1  0
 52  1  1  0
 53 52  2  0
 54 55  1  0
 54 53  1  0
 55 56  1  0
 57 55  1  0
 58 55  1  0
 58 59  1  0
 59 60  2  0
 60 61  1  0
 61 62  1  0
 62 64  1  0
 63 74  2  0
 64 69  1  0
 65 73  1  0
 65 75  1  0
 66 72  1  0
 66 68  1  0
 67 73  1  0
 68 67  1  0
 69 68  2  0
 70 71  1  0
 70 64  2  0
 71 66  2  0
 72 65  1  0
 73 63  1  0
 75 77  2  0
 76 75  1  0
 78 76  1  0
 79 88  2  0
 79 84  1  0
 80 76  1  0
 80 84  1  0
 81 80  1  0
 82 83  1  0
 82 81  1  0
 83 79  1  0
 84 85  2  0
 85 86  1  0
 87 86  2  0
 88 87  1  0
 89 63  1  0
 89 90  1  0
 89 99  1  0
 90 93  1  0
 91 95  1  0
 91 90  1  0
 92 91  2  0
 95 94  1  0
 97 95  1  0
 97 98  1  0
 97 96  1  0
 99102  1  1
 99100  1  0
101 99  1  0
M  ISO  4  14 100  22 100  61 101  62 101
M  END
>  <TORSDO>  (44) 
F 28

>  <SCORE>  (44) 
27.221

>  <name>  (44) 
46

>  <ligand_id>  (44) 
46

>  <original_smiles>  (44) 
[H]C(C(=O)N([H])C([H])([H])C([H])([H])[N+]([H])([H])C([H])([H])C([H])([H])N([H])C(=O)N1C([H])([H])C([H])([H])C([H])([H])C([H])(n2nc(-c3c([H])c([H])c(Oc4c([H])c([H])c(F)c([H])c4F)c([H])c3[H])c(C(=O)N([H])[H])c2N([H])[H])C1([H])[H])=C([H])C([H])=C([H])C([H])([H])[N+]([H])([H])C([H])([H])C([H])=C([H])C([H])([H])Oc1c([H])c([H])c2c(c1[H])C([H])([H])N(C(=O)C([H])(N([H])C(=O)C([H])(N([H])C([H])([H])[H])C([H])([H])[H])C(C([H])([H])[H])(C([H])([H])[H])C([H])([H])[H])C([H])(C(=O)N([H])C1([H])c3c([H])c([H])c([H])c([H])c3C([H])([H])C([H])([H])C1([H])[H])C2([H])[H]

>  <smiles>  (44) 
[H]C(C(=O)N([H])C([H])([H])C([H])([H])[N+]([H])([H])C([H])([H])C([H])([H])N([H])C(=O)N1C([H])([H])C([H])([H])C([H])([H])C([H])(n2nc(-c3c([H])c([H])c(Oc4c([H])c([H])c(F)c([H])c4F)c([H])c3[H])c(C(=O)N([H])[H])c2N([H])[H])C1([H])[H])=C([H])C([H])=C([H])C([H])([H])[N+]([H])([H])C([H])([H])C([H])=C([H])C([H])([H])Oc1c([H])c([H])c2c(c1[H])C([H])([H])N(C(=O)C([H])(N([H])C(=O)C([H])(N([H])C([H])([H])[H])C([H])([H])[H])C(C([H])([H])[H])(C([H])([H])[H])C([H])([H])[H])C([H])(C(=O)N([H])C1([H])c3c([H])c([H])c([H])c([H])c3C([H])([H])C([H])([H])C1([H])[H])C2([H])[H]

$$$$
48:0:0
     RDKit          3D

101108  0  0  1  0  0  0  0  0999 V2000
  -26.8510  -22.5830   21.4400 C   0  0  0  0  0  0  0  0  0  0  0  0
  -26.5840  -23.4660   22.4070 N   0  0  0  0  0  0  0  0  0  0  0  0
  -26.1040  -22.4030   20.4780 O   0  0  0  0  0  0  0  0  0  0  0  0
  -27.2630  -23.5710   23.1480 H   0  0  0  0  0  0  0  0  0  0  0  0
  -28.1700  -22.0230   21.5920 C   0  0  0  0  0  3  0  0  0  0  0  0
  -29.0040  -22.0830   20.5370 C   0  0  0  0  0  3  0  0  0  0  0  0
  -30.3590  -21.5830   20.6240 C   0  0  0  0  0  0  0  0  0  0  0  0
  -30.9930  -21.7230   19.4550 N   0  0  0  0  0  0  0  0  0  0  0  0
  -30.8860  -21.0970   21.6290 O   0  0  0  0  0  0  0  0  0  0  0  0
  -30.4860  -22.1790   18.7060 H   0  0  0  0  0  0  0  0  0  0  0  0
  -32.3290  -21.2260   19.1410 C   0  0  0  0  0  2  0  0  0  0  0  0
  -32.2470  -19.9540   18.2860 C   0  0  0  0  0  2  0  0  0  0  0  0
  -31.2270  -19.0880   18.7870 O   0  0  0  0  0  0  0  0  0  0  0  0
  -30.9440  -18.0080   17.9070 C   0  0  0  0  0  2  0  0  0  0  0  0
  -29.5890  -17.3770   18.2520 C   0  0  0  0  0  2  0  0  0  0  0  0
  -30.5710  -15.3140   19.2070 C   0  0  0  0  0  0  0  0  0  0  0  0
  -30.7990  -12.8690   19.3980 C   0  0  0  0  0  2  0  0  0  0  0  0
  -29.9440  -12.1990   18.3020 C   0  0  0  0  0  2  0  0  0  0  0  0
  -28.4940  -12.0040   18.7820 C   0  0  0  0  0  2  0  0  0  0  0  0
  -27.8880  -13.2930   19.3980 C   0  0  0  0  0  3  0  0  0  0  0  0
  -28.8600  -13.9220   20.4260 C   0  0  0  0  0  2  0  0  0  0  0  0
  -30.1560  -14.1420   19.7580 N   0  0  0  0  0  0  0  0  0  0  0  0
  -31.6260  -15.4410   18.5820 O   0  0  0  0  0  0  0  0  0  0  0  0
  -29.6640  -16.2990   19.2390 N   0  0  0  0  0  0  0  0  0  0  0  0
  -28.8380  -16.1330   19.7950 H   0  0  0  0  0  0  0  0  0  0  0  0
  -25.5800  -13.9420   20.3420 C   0  0  0  0  0  0  0  0  0  0  0  0
  -24.5250  -13.1850   20.7740 C   0  0  0  0  0  0  0  0  0  0  0  0
  -24.9350  -11.8220   20.6430 C   0  0  0  0  0  0  0  0  0  0  0  0
  -26.5720  -13.0400   19.9800 N   0  0  0  0  0  0  0  0  0  0  0  0
  -26.1910  -11.7590   20.2200 N   0  0  0  0  0  0  0  0  0  0  0  0
  -24.1900  -10.5750   20.8500 C   0  0  0  0  0  0  0  0  0  0  0  0
  -24.6420   -9.5860   21.7510 C   0  0  0  0  0  3  0  0  0  0  0  0
  -23.8980   -8.4010   21.9440 C   0  0  0  0  0  3  0  0  0  0  0  0
  -22.6900   -8.1980   21.2360 C   0  0  0  0  0  0  0  0  0  0  0  0
  -22.2570   -9.1780   20.3230 C   0  0  0  0  0  3  0  0  0  0  0  0
  -22.9990  -10.3530   20.1300 C   0  0  0  0  0  3  0  0  0  0  0  0
  -21.9140   -7.0680   21.3400 O   0  0  0  0  0  0  0  0  0  0  0  0
  -21.7690   -6.4030   22.5290 C   0  0  0  0  0  0  0  0  0  0  0  0
  -21.2580   -7.0370   23.6820 C   0  0  0  0  0  3  0  0  0  0  0  0
  -21.0600   -6.2970   24.8640 C   0  0  0  0  0  3  0  0  0  0  0  0
  -21.3660   -4.9230   24.8950 C   0  0  0  0  0  0  0  0  0  0  0  0
  -21.8680   -4.2880   23.7460 C   0  0  0  0  0  3  0  0  0  0  0  0
  -22.0690   -5.0250   22.5660 C   0  0  0  0  0  0  0  0  0  0  0  0
  -22.5340   -4.4040   21.4550 F   0  0  0  0  0  0  0  0  0  0  0  0
  -21.1700   -4.2080   26.0280 F   0  0  0  0  0  0  0  0  0  0  0  0
  -23.1760  -13.6880   21.2010 C   0  0  0  0  0  0  0  0  0  0  0  0
  -22.5200  -12.9880   22.1180 N   0  0  0  0  0  0  0  0  0  0  0  0
  -22.7150  -14.7370   20.7530 O   0  0  0  0  0  0  0  0  0  0  0  0
  -22.9100  -12.1400   22.5030 H   0  0  0  0  0  0  0  0  0  0  0  0
  -21.6190  -13.3070   22.4460 H   0  0  0  0  0  0  0  0  0  0  0  0
  -25.7720  -15.3120   20.2020 N   0  0  0  0  0  0  0  0  0  0  0  0
  -25.0400  -15.9830   20.4080 H   0  0  0  0  0  0  0  0  0  0  0  0
  -26.6070  -15.7400   19.8240 H   0  0  0  0  0  0  0  0  0  0  0  0
  -25.6070  -24.5460   22.2740 C   0  0  0  0  0  2  0  0  0  0  0  0
  -26.3010  -25.7540   21.6330 C   0  0  0  0  0  0  0  0  0  0  0  0
  -26.7720  -25.5650   20.3970 N   0  0  0  0  0  0  0  0  0  0  0  0
  -26.4760  -26.7950   22.2660 O   0  0  0  0  0  0  0  0  0  0  0  0
  -26.5580  -24.6720   19.9710 H   0  0  0  0  0  0  0  0  0  0  0  0
  -27.6830  -26.4490   19.6810 C   0  0  0  0  0  2  0  0  0  0  0  0
  -27.2990  -26.5430   18.1890 C   0  0  0  0  0  2  0  0  0  0  0  0
  -26.9170  -27.8420   17.7490 O   0  0  0  0  0  0  0  0  0  0  0  0
  -25.2720  -31.0970   23.7940 C   0  0  0  0  0  0  0  0  0  0  0  0
  -25.9340  -28.5150   18.4310 C   0  0  0  0  0  0  0  0  0  0  0  0
  -23.3880  -30.8070   22.2110 C   0  0  0  0  0  3  0  0  0  0  0  0
  -24.0250  -30.0010   19.8780 C   0  0  0  0  0  0  0  0  0  0  0  0
  -25.7910  -30.9750   21.3650 C   0  0  0  0  0  2  0  0  0  0  0  0
  -25.3820  -30.0850   20.2130 C   0  0  0  0  0  0  0  0  0  0  0  0
  -26.3370  -29.3530   19.4840 C   0  0  0  0  0  3  0  0  0  0  0  0
  -24.5640  -28.4200   18.1040 C   0  0  0  0  0  3  0  0  0  0  0  0
  -23.6050  -29.1650   18.8250 C   0  0  0  0  0  3  0  0  0  0  0  0
  -23.0740  -30.8490   20.6900 C   0  0  0  0  0  2  0  0  0  0  0  0
  -24.8500  -30.9450   22.5080 N   0  0  0  0  0  0  0  0  0  0  0  0
  -24.4590  -31.1730   24.7270 O   0  0  0  0  0  0  0  0  0  0  0  0
  -22.7650  -29.5230   22.8000 C   0  0  0  0  0  0  0  0  0  0  0  0
  -21.4400  -29.3740   22.6340 N   0  0  0  0  0  0  0  0  0  0  0  0
  -23.4680  -28.6730   23.3550 O   0  0  0  0  0  0  0  0  0  0  0  0
  -20.9340  -30.1140   22.1710 H   0  0  0  0  0  0  0  0  0  0  0  0
  -18.2370  -27.7540   22.2750 C   0  0  0  0  0  0  0  0  0  0  0  0
  -20.6480  -28.2260   23.0720 C   0  0  0  0  0  3  0  0  0  0  0  0
  -21.0490  -26.9510   22.2970 C   0  0  0  0  0  2  0  0  0  0  0  0
  -20.1890  -26.7010   21.0550 C   0  0  0  0  0  2  0  0  0  0  0  0
  -18.7090  -26.5780   21.4360 C   0  0  0  0  0  2  0  0  0  0  0  0
  -19.1490  -28.5330   23.0330 C   0  0  0  0  0  0  0  0  0  0  0  0
  -18.6640  -29.6300   23.7740 C   0  0  0  0  0  3  0  0  0  0  0  0
  -17.2940  -29.9500   23.7730 C   0  0  0  0  0  3  0  0  0  0  0  0
  -16.3910  -29.1690   23.0320 C   0  0  0  0  0  3  0  0  0  0  0  0
  -16.8620  -28.0710   22.2890 C   0  0  0  0  0  3  0  0  0  0  0  0
  -26.7860  -31.2100   24.1520 C   0  0  0  0  0  3  0  0  0  0  0  0
  -26.9450  -32.3920   25.0070 N   0  0  0  0  0  0  0  0  0  0  0  0
  -27.5200  -33.5390   24.6210 C   0  0  0  0  0  0  0  0  0  0  0  0
  -28.0400  -33.6880   23.5100 O   0  0  0  0  0  0  0  0  0  0  0  0
  -26.4860  -32.3630   25.9070 H   0  0  0  0  0  0  0  0  0  0  0  0
  -26.4540  -35.7370   25.2200 C   0  0  0  0  0  1  0  0  0  0  0  0
  -27.5210  -34.7060   25.6260 C   0  0  0  0  0  3  0  0  0  0  0  0
  -29.8490  -34.5350   26.3850 C   0  0  0  0  0  1  0  0  0  0  0  0
  -28.8330  -35.3750   25.7560 N   0  0  0  0  0  0  0  0  0  0  0  0
  -28.7480  -36.2280   26.3000 H   0  0  0  0  0  0  0  0  0  0  0  0
  -27.3510  -29.9190   24.8640 C   0  0  1  0  0  0  0  0  0  0  0  0
  -26.5130  -29.4660   26.0820 C   0  0  0  0  0  1  0  0  0  0  0  0
  -27.4330  -28.7320   23.8720 C   0  0  0  0  0  1  0  0  0  0  0  0
  -28.7890  -30.1860   25.3600 C   0  0  0  0  0  1  0  0  0  0  0  0
  1  5  1  0
  1  2  1  0
  2  4  1  0
  3  1  2  0
  6  7  1  0
  6  5  2  0
  7  9  2  0
  8  7  1  0
 10  8  1  0
 11  8  1  0
 12 13  1  0
 12 11  1  0
 14 15  1  0
 14 13  1  0
 15 24  1  0
 16 24  1  0
 16 22  1  0
 17 22  1  0
 18 19  1  0
 18 17  1  0
 20 19  1  0
 20 29  1  0
 20 21  1  0
 22 21  1  0
 23 16  2  0
 24 25  1  0
 26 27  2  0
 27 46  1  0
 28 27  1  0
 28 31  1  0
 29 30  1  0
 29 26  1  0
 30 28  2  0
 31 32  1  0
 32 33  2  0
 34 37  1  0
 34 33  1  0
 35 34  2  0
 36 35  1  0
 36 31  2  0
 37 38  1  0
 38 43  2  0
 38 39  1  0
 39 40  2  0
 40 41  1  0
 41 45  1  0
 42 41  2  0
 43 42  1  0
 44 43  1  0
 46 47  1  0
 47 50  1  0
 47 49  1  0
 48 46  2  0
 51 26  1  0
 51 52  1  0
 53 51  1  0
 54  2  1  0
 55 57  2  0
 55 54  1  0
 56 55  1  0
 58 56  1  0
 59 56  1  0
 60 59  1  0
 61 60  1  0
 61 63  1  0
 62 73  2  0
 63 68  1  0
 64 72  1  0
 64 74  1  0
 65 67  1  0
 65 71  1  0
 66 72  1  0
 67 66  1  0
 68 67  2  0
 69 63  2  0
 69 70  1  0
 70 65  2  0
 71 64  1  0
 72 62  1  0
 74 76  2  0
 75 74  1  0
 77 75  1  0
 78 87  2  0
 78 83  1  0
 79 75  1  0
 80 79  1  0
 81 82  1  0
 81 80  1  0
 82 78  1  0
 83 79  1  0
 83 84  2  0
 85 84  1  0
 86 85  2  0
 87 86  1  0
 88 62  1  0
 88 98  1  0
 88 89  1  0
 89 92  1  0
 90 89  1  0
 90 94  1  0
 91 90  2  0
 94 93  1  0
 94 96  1  0
 96 97  1  0
 96 95  1  0
 98101  1  1
 98 99  1  0
100 98  1  0
M  ISO  4  16 100  24 100  60 101  61 101
M  END
>  <TORSDO>  (45) 
F 27

>  <SCORE>  (45) 
-9.261

>  <name>  (45) 
48

>  <ligand_id>  (45) 
48

>  <original_smiles>  (45) 
[H]C(C(=O)N([H])C([H])([H])C(=O)N([H])C([H])([H])C([H])([H])Oc1c([H])c([H])c2c(c1[H])C([H])([H])N(C(=O)C([H])(N([H])C(=O)C([H])(N([H])C([H])([H])[H])C([H])([H])[H])C(C([H])([H])[H])(C([H])([H])[H])C([H])([H])[H])C([H])(C(=O)N([H])C1([H])c3c([H])c([H])c([H])c([H])c3C([H])([H])C([H])([H])C1([H])[H])C2([H])[H])=C([H])C(=O)N([H])C([H])([H])C([H])([H])OC([H])([H])C([H])([H])N([H])C(=O)N1C([H])([H])C([H])([H])C([H])([H])C([H])(n2nc(-c3c([H])c([H])c(Oc4c([H])c([H])c(F)c([H])c4F)c([H])c3[H])c(C(=O)N([H])[H])c2N([H])[H])C1([H])[H]

>  <smiles>  (45) 
[H]C(C(=O)N([H])C([H])([H])C(=O)N([H])C([H])([H])C([H])([H])Oc1c([H])c([H])c2c(c1[H])C([H])([H])N(C(=O)C([H])(N([H])C(=O)C([H])(N([H])C([H])([H])[H])C([H])([H])[H])C(C([H])([H])[H])(C([H])([H])[H])C([H])([H])[H])C([H])(C(=O)N([H])C1([H])c3c([H])c([H])c([H])c([H])c3C([H])([H])C([H])([H])C1([H])[H])C2([H])[H])=C([H])C(=O)N([H])C([H])([H])C([H])([H])OC([H])([H])C([H])([H])N([H])C(=O)N1C([H])([H])C([H])([H])C([H])([H])C([H])(n2nc(-c3c([H])c([H])c(Oc4c([H])c([H])c(F)c([H])c4F)c([H])c3[H])c(C(=O)N([H])[H])c2N([H])[H])C1([H])[H]

$$$$
49:0:0
     RDKit          3D

103110  0  0  1  0  0  0  0  0999 V2000
  -29.8140  -22.1830   24.3820 N   0  0  0  0  0  4  0  0  0  0  0  0
  -28.9480  -21.8930   23.9590 H   0  0  0  0  0  0  0  0  0  0  0  0
  -29.5710  -22.6440   25.2460 H   0  0  0  0  0  0  0  0  0  0  0  0
  -30.6710  -21.0080   24.6550 C   0  0  0  0  0  2  0  0  0  0  0  0
  -30.0090  -19.6860   24.1990 C   0  0  0  0  0  2  0  0  0  0  0  0
  -30.9840  -18.5030   23.9970 C   0  0  0  0  0  2  0  0  0  0  0  0
  -31.4190  -18.1870   22.5480 C   0  0  0  0  0  2  0  0  0  0  0  0
  -32.0340  -19.3650   21.7670 C   0  0  0  0  0  2  0  0  0  0  0  0
  -31.0690  -19.9800   20.8310 N   0  0  0  0  0  4  0  0  0  0  0  0
  -30.6460  -19.2510   20.2770 H   0  0  0  0  0  0  0  0  0  0  0  0
  -30.3290  -20.4200   21.3500 H   0  0  0  0  0  0  0  0  0  0  0  0
  -31.6560  -20.9820   19.9190 C   0  0  0  0  0  2  0  0  0  0  0  0
  -30.0010  -21.2460   18.0240 C   0  0  0  0  0  3  0  0  0  0  0  0
  -30.5560  -21.6940   19.1610 C   0  0  0  0  0  3  0  0  0  0  0  0
  -28.9030  -21.9760   17.2820 C   0  0  0  0  0  2  0  0  0  0  0  0
  -26.9250  -20.5170   16.9050 C   0  0  0  0  0  0  0  0  0  0  0  0
  -24.6900  -19.6210   16.3940 C   0  0  0  0  0  2  0  0  0  0  0  0
  -23.8740  -20.6830   15.6290 C   0  0  0  0  0  2  0  0  0  0  0  0
  -23.1590  -21.6320   16.6110 C   0  0  0  0  0  2  0  0  0  0  0  0
  -24.1070  -22.1900   17.7040 C   0  0  0  0  0  3  0  0  0  0  0  0
  -24.9270  -21.0490   18.3480 C   0  0  0  0  0  2  0  0  0  0  0  0
  -25.6320  -20.3290   17.2720 N   0  0  0  0  0  0  0  0  0  0  0  0
  -27.4500  -19.9550   15.9400 O   0  0  0  0  0  0  0  0  0  0  0  0
  -27.5880  -21.4390   17.6150 N   0  0  0  0  0  0  0  0  0  0  0  0
  -27.0860  -21.8700   18.3780 H   0  0  0  0  0  0  0  0  0  0  0  0
  -23.8010  -24.0160   19.4950 C   0  0  0  0  0  0  0  0  0  0  0  0
  -22.7040  -24.4210   20.2110 C   0  0  0  0  0  0  0  0  0  0  0  0
  -21.6320  -23.5700   19.8020 C   0  0  0  0  0  0  0  0  0  0  0  0
  -23.3720  -22.9590   18.7070 N   0  0  0  0  0  0  0  0  0  0  0  0
  -22.0680  -22.6630   18.9380 N   0  0  0  0  0  0  0  0  0  0  0  0
  -20.2040  -23.6020   20.1410 C   0  0  0  0  0  0  0  0  0  0  0  0
  -19.6280  -22.6430   21.0040 C   0  0  0  0  0  3  0  0  0  0  0  0
  -18.2550  -22.7060   21.3290 C   0  0  0  0  0  3  0  0  0  0  0  0
  -17.4460  -23.7350   20.7920 C   0  0  0  0  0  0  0  0  0  0  0  0
  -18.0190  -24.6730   19.9170 C   0  0  0  0  0  3  0  0  0  0  0  0
  -19.3840  -24.6070   19.5900 C   0  0  0  0  0  3  0  0  0  0  0  0
  -16.0970  -23.8600   21.0320 O   0  0  0  0  0  0  0  0  0  0  0  0
  -15.5490  -23.5330   22.2460 C   0  0  0  0  0  0  0  0  0  0  0  0
  -16.1300  -23.9540   23.4630 C   0  0  0  0  0  3  0  0  0  0  0  0
  -15.4950  -23.6560   24.6860 C   0  0  0  0  0  3  0  0  0  0  0  0
  -14.2790  -22.9470   24.6940 C   0  0  0  0  0  0  0  0  0  0  0  0
  -13.6970  -22.5320   23.4830 C   0  0  0  0  0  3  0  0  0  0  0  0
  -14.3290  -22.8270   22.2620 C   0  0  0  0  0  0  0  0  0  0  0  0
  -13.7540  -22.4440   21.0970 F   0  0  0  0  0  0  0  0  0  0  0  0
  -13.6650  -22.6680   25.8670 F   0  0  0  0  0  0  0  0  0  0  0  0
  -22.6300  -25.5910   21.1490 C   0  0  0  0  0  0  0  0  0  0  0  0
  -21.9360  -25.4320   22.2710 N   0  0  0  0  0  0  0  0  0  0  0  0
  -23.2270  -26.6400   20.9120 O   0  0  0  0  0  0  0  0  0  0  0  0
  -21.4630  -24.5650   22.4760 H   0  0  0  0  0  0  0  0  0  0  0  0
  -21.8790  -26.1900   22.9370 H   0  0  0  0  0  0  0  0  0  0  0  0
  -25.1150  -24.4690   19.4370 N   0  0  0  0  0  0  0  0  0  0  0  0
  -25.4330  -25.2760   19.9620 H   0  0  0  0  0  0  0  0  0  0  0  0
  -25.8240  -24.0950   18.8180 H   0  0  0  0  0  0  0  0  0  0  0  0
  -30.4130  -23.2180   23.5160 C   0  0  0  0  0  2  0  0  0  0  0  0
  -29.3310  -24.2180   23.1170 C   0  0  0  0  0  0  0  0  0  0  0  0
  -28.9680  -24.2680   21.8260 N   0  0  0  0  0  0  0  0  0  0  0  0
  -28.8260  -24.9240   23.9910 O   0  0  0  0  0  0  0  0  0  0  0  0
  -29.4570  -23.6550   21.1860 H   0  0  0  0  0  0  0  0  0  0  0  0
  -27.9090  -25.0960   21.2400 C   0  0  0  0  0  3  0  0  0  0  0  0
  -26.2310  -26.1200   22.9040 C   0  0  0  0  0  2  0  0  0  0  0  0
  -26.6820  -25.1010   22.1530 C   0  0  0  0  0  3  0  0  0  0  0  0
  -28.4420  -26.4810   20.7720 C   0  0  0  0  0  2  0  0  0  0  0  0
  -27.8380  -26.8870   19.5420 O   0  0  0  0  0  0  0  0  0  0  0  0
  -24.5280  -31.8350   23.4210 C   0  0  0  0  0  0  0  0  0  0  0  0
  -26.7520  -27.7090   19.6870 C   0  0  0  0  0  0  0  0  0  0  0  0
  -23.1860  -30.7780   21.6310 C   0  0  0  0  0  3  0  0  0  0  0  0
  -24.4870  -29.3600   19.9610 C   0  0  0  0  0  0  0  0  0  0  0  0
  -25.7240  -30.9800   21.4120 C   0  0  0  0  0  2  0  0  0  0  0  0
  -25.6890  -29.7090   20.5910 C   0  0  0  0  0  0  0  0  0  0  0  0
  -26.8270  -28.8860   20.4610 C   0  0  0  0  0  3  0  0  0  0  0  0
  -25.5490  -27.3770   19.0350 C   0  0  0  0  0  3  0  0  0  0  0  0
  -24.4110  -28.1900   19.1820 C   0  0  0  0  0  3  0  0  0  0  0  0
  -23.3140  -30.2930   20.1620 C   0  0  0  0  0  2  0  0  0  0  0  0
  -24.4990  -31.2020   22.2150 N   0  0  0  0  0  0  0  0  0  0  0  0
  -23.4810  -32.1080   24.0260 O   0  0  0  0  0  0  0  0  0  0  0  0
  -22.4720  -29.6820   22.4550 C   0  0  0  0  0  0  0  0  0  0  0  0
  -21.1320  -29.6620   22.3850 N   0  0  0  0  0  0  0  0  0  0  0  0
  -23.1190  -28.8640   23.1140 O   0  0  0  0  0  0  0  0  0  0  0  0
  -20.6780  -30.3690   21.8260 H   0  0  0  0  0  0  0  0  0  0  0  0
  -17.6750  -28.7310   22.8600 C   0  0  0  0  0  0  0  0  0  0  0  0
  -20.2520  -28.6980   23.0450 C   0  0  0  0  0  3  0  0  0  0  0  0
  -20.1910  -27.3700   22.2590 C   0  0  0  0  0  2  0  0  0  0  0  0
  -19.0300  -27.3130   21.2610 C   0  0  0  0  0  2  0  0  0  0  0  0
  -17.6920  -27.4900   21.9850 C   0  0  0  0  0  2  0  0  0  0  0  0
  -18.8780  -29.3090   23.3440 C   0  0  0  0  0  0  0  0  0  0  0  0
  -18.8090  -30.4840   24.1240 C   0  0  0  0  0  3  0  0  0  0  0  0
  -17.5670  -31.0760   24.4220 C   0  0  0  0  0  3  0  0  0  0  0  0
  -16.3780  -30.4920   23.9530 C   0  0  0  0  0  3  0  0  0  0  0  0
  -16.4330  -29.3200   23.1780 C   0  0  0  0  0  3  0  0  0  0  0  0
  -25.8730  -32.2650   24.0860 C   0  0  0  0  0  3  0  0  0  0  0  0
  -25.7010  -33.6370   24.5780 N   0  0  0  0  0  0  0  0  0  0  0  0
  -26.1850  -34.7290   23.9700 C   0  0  0  0  0  0  0  0  0  0  0  0
  -26.8930  -34.6770   22.9610 O   0  0  0  0  0  0  0  0  0  0  0  0
  -25.0830  -33.7600   25.3670 H   0  0  0  0  0  0  0  0  0  0  0  0
  -24.7070  -36.7520   23.7510 C   0  0  0  0  0  1  0  0  0  0  0  0
  -25.8240  -36.0970   24.5790 C   0  0  0  0  0  3  0  0  0  0  0  0
  -27.9760  -36.5950   25.6530 C   0  0  0  0  0  1  0  0  0  0  0  0
  -26.9750  -37.0200   24.6760 N   0  0  0  0  0  0  0  0  0  0  0  0
  -26.6650  -37.9570   24.9230 H   0  0  0  0  0  0  0  0  0  0  0  0
  -26.3260  -31.3050   25.2520 C   0  0  1  0  0  0  0  0  0  0  0  0
  -25.1910  -30.9370   26.2350 C   0  0  0  0  0  1  0  0  0  0  0  0
  -26.9040  -29.9880   24.6800 C   0  0  0  0  0  1  0  0  0  0  0  0
  -27.4620  -31.9720   26.0660 C   0  0  0  0  0  1  0  0  0  0  0  0
  1  4  1  0
  1  3  1  0
  2  1  1  0
  5  4  1  0
  6  5  1  0
  7  6  1  0
  8  7  1  0
  9 11  1  0
  9  8  1  0
 10  9  1  0
 12  9  1  0
 13 14  2  0
 14 12  1  0
 15 24  1  0
 15 13  1  0
 16 22  1  0
 16 24  1  0
 17 22  1  0
 18 17  1  0
 18 19  1  0
 20 19  1  0
 20 21  1  0
 20 29  1  0
 22 21  1  0
 23 16  2  0
 24 25  1  0
 26 27  2  0
 27 46  1  0
 28 31  1  0
 28 27  1  0
 29 30  1  0
 29 26  1  0
 30 28  2  0
 31 32  1  0
 32 33  2  0
 34 37  1  0
 34 33  1  0
 35 34  2  0
 36 35  1  0
 36 31  2  0
 37 38  1  0
 38 43  2  0
 38 39  1  0
 39 40  2  0
 40 41  1  0
 41 45  1  0
 42 41  2  0
 43 42  1  0
 44 43  1  0
 46 47  1  0
 47 49  1  0
 47 50  1  0
 48 46  2  0
 51 26  1  0
 51 52  1  0
 53 51  1  0
 54  1  1  0
 55 54  1  0
 55 57  2  0
 56 55  1  0
 58 56  1  0
 59 62  1  0
 59 56  1  0
 59 61  1  0
 61 60  2  0
 63 65  1  0
 63 62  1  0
 64 75  2  0
 65 70  1  0
 66 74  1  0
 66 76  1  0
 67 73  1  0
 67 69  1  0
 68 74  1  0
 69 68  1  0
 70 69  2  0
 71 72  1  0
 71 65  2  0
 72 67  2  0
 73 66  1  0
 74 64  1  0
 76 78  2  0
 77 76  1  0
 79 77  1  0
 80 89  2  0
 80 85  1  0
 81 77  1  0
 81 85  1  0
 82 81  1  0
 83 84  1  0
 83 82  1  0
 84 80  1  0
 85 86  2  0
 86 87  1  0
 88 87  2  0
 89 88  1  0
 90 64  1  0
 90 91  1  0
 90100  1  0
 91 94  1  0
 92 91  1  0
 92 96  1  0
 93 92  2  0
 96 95  1  0
 96 98  1  0
 98 99  1  0
 98 97  1  0
100103  1  1
100101  1  0
102100  1  0
M  ISO  4  16 100  24 100  62 101  63 101
M  END
>  <TORSDO>  (46) 
F 30

>  <SCORE>  (46) 
-3.354

>  <name>  (46) 
49

>  <ligand_id>  (46) 
49

>  <original_smiles>  (46) 
[H]C([H])=C([H])C([H])(N([H])C(=O)C([H])([H])[N+]([H])([H])C([H])([H])C([H])([H])C([H])([H])C([H])([H])C([H])([H])[N+]([H])([H])C([H])([H])C([H])=C([H])C([H])([H])N([H])C(=O)N1C([H])([H])C([H])([H])C([H])([H])C([H])(n2nc(-c3c([H])c([H])c(Oc4c([H])c([H])c(F)c([H])c4F)c([H])c3[H])c(C(=O)N([H])[H])c2N([H])[H])C1([H])[H])C([H])([H])Oc1c([H])c([H])c2c(c1[H])C([H])([H])N(C(=O)C([H])(N([H])C(=O)C([H])(N([H])C([H])([H])[H])C([H])([H])[H])C(C([H])([H])[H])(C([H])([H])[H])C([H])([H])[H])C([H])(C(=O)N([H])C1([H])c3c([H])c([H])c([H])c([H])c3C([H])([H])C([H])([H])C1([H])[H])C2([H])[H]

>  <smiles>  (46) 
[H]C([H])=C([H])C([H])(N([H])C(=O)C([H])([H])[N+]([H])([H])C([H])([H])C([H])([H])C([H])([H])C([H])([H])C([H])([H])[N+]([H])([H])C([H])([H])C([H])=C([H])C([H])([H])N([H])C(=O)N1C([H])([H])C([H])([H])C([H])([H])C([H])(n2nc(-c3c([H])c([H])c(Oc4c([H])c([H])c(F)c([H])c4F)c([H])c3[H])c(C(=O)N([H])[H])c2N([H])[H])C1([H])[H])C([H])([H])Oc1c([H])c([H])c2c(c1[H])C([H])([H])N(C(=O)C([H])(N([H])C(=O)C([H])(N([H])C([H])([H])[H])C([H])([H])[H])C(C([H])([H])[H])(C([H])([H])[H])C([H])([H])[H])C([H])(C(=O)N([H])C1([H])c3c([H])c([H])c([H])c([H])c3C([H])([H])C([H])([H])C1([H])[H])C2([H])[H]

$$$$
50:0:0
     RDKit          3D

102109  0  0  1  0  0  0  0  0999 V2000
  -27.7080  -22.9280   28.0870 C   0  0  0  0  0  1  0  0  0  0  0  0
  -27.2440  -22.7410   26.6390 C   0  0  0  0  0  3  0  0  0  0  0  0
  -27.6000  -21.0300   24.9000 C   0  0  0  0  0  0  0  0  0  0  0  0
  -28.0290  -21.7170   25.9640 N   0  0  0  0  0  0  0  0  0  0  0  0
  -26.4280  -20.6830   24.7430 O   0  0  0  0  0  0  0  0  0  0  0  0
  -29.0310  -21.8270   26.0300 H   0  0  0  0  0  0  0  0  0  0  0  0
  -28.4750  -20.2630   22.7600 C   0  0  0  0  0  3  0  0  0  0  0  0
  -28.6560  -20.9210   23.9190 C   0  0  0  0  0  3  0  0  0  0  0  0
  -29.5260  -20.3190   21.7680 C   0  0  0  0  0  0  0  0  0  0  0  0
  -29.5310  -19.2540   20.9640 N   0  0  0  0  0  0  0  0  0  0  0  0
  -30.3350  -21.2430   21.6590 O   0  0  0  0  0  0  0  0  0  0  0  0
  -28.8240  -18.5470   21.1190 H   0  0  0  0  0  0  0  0  0  0  0  0
  -30.4970  -19.0220   19.8900 C   0  0  0  0  0  2  0  0  0  0  0  0
  -31.9390  -18.8220   20.4070 C   0  0  0  0  0  2  0  0  0  0  0  0
  -32.0920  -17.7600   21.5180 C   0  0  0  0  0  2  0  0  0  0  0  0
  -31.9540  -15.6640   20.1980 C   0  0  0  0  0  0  0  0  0  0  0  0
  -31.4420  -13.7330   18.7640 C   0  0  0  0  0  2  0  0  0  0  0  0
  -30.4610  -14.1410   17.6490 C   0  0  0  0  0  2  0  0  0  0  0  0
  -29.0050  -14.0240   18.1370 C   0  0  0  0  0  2  0  0  0  0  0  0
  -28.7730  -14.7180   19.5040 C   0  0  0  0  0  3  0  0  0  0  0  0
  -29.8580  -14.2980   20.5210 C   0  0  0  0  0  2  0  0  0  0  0  0
  -31.1800  -14.5830   19.9330 N   0  0  0  0  0  0  0  0  0  0  0  0
  -32.9950  -15.9240   19.5880 O   0  0  0  0  0  0  0  0  0  0  0  0
  -31.4890  -16.4830   21.1480 N   0  0  0  0  0  0  0  0  0  0  0  0
  -30.6330  -16.2120   21.6110 H   0  0  0  0  0  0  0  0  0  0  0  0
  -26.4300  -15.3550   20.3640 C   0  0  0  0  0  0  0  0  0  0  0  0
  -25.3470  -14.5940   20.7100 C   0  0  0  0  0  0  0  0  0  0  0  0
  -25.7480  -13.2330   20.5390 C   0  0  0  0  0  0  0  0  0  0  0  0
  -27.4280  -14.4580   20.0120 N   0  0  0  0  0  0  0  0  0  0  0  0
  -27.0210  -13.1720   20.1710 N   0  0  0  0  0  0  0  0  0  0  0  0
  -24.9780  -11.9880   20.6490 C   0  0  0  0  0  0  0  0  0  0  0  0
  -25.4920  -10.8580   21.3240 C   0  0  0  0  0  3  0  0  0  0  0  0
  -24.7280   -9.6770   21.4310 C   0  0  0  0  0  3  0  0  0  0  0  0
  -23.4320   -9.6180   20.8640 C   0  0  0  0  0  0  0  0  0  0  0  0
  -22.9330  -10.7360   20.1740 C   0  0  0  0  0  3  0  0  0  0  0  0
  -23.6990  -11.9100   20.0630 C   0  0  0  0  0  3  0  0  0  0  0  0
  -22.6270   -8.5050   20.8980 O   0  0  0  0  0  0  0  0  0  0  0  0
  -22.8190   -7.5050   21.8170 C   0  0  0  0  0  0  0  0  0  0  0  0
  -22.8460   -7.7640   23.2050 C   0  0  0  0  0  3  0  0  0  0  0  0
  -22.9750   -6.6980   24.1170 C   0  0  0  0  0  3  0  0  0  0  0  0
  -23.0660   -5.3740   23.6470 C   0  0  0  0  0  0  0  0  0  0  0  0
  -23.0330   -5.1140   22.2650 C   0  0  0  0  0  3  0  0  0  0  0  0
  -22.9060   -6.1770   21.3540 C   0  0  0  0  0  0  0  0  0  0  0  0
  -22.8530   -5.9190   20.0250 F   0  0  0  0  0  0  0  0  0  0  0  0
  -23.1820   -4.3500   24.5240 F   0  0  0  0  0  0  0  0  0  0  0  0
  -23.9820  -15.0950   21.0860 C   0  0  0  0  0  0  0  0  0  0  0  0
  -23.2600  -14.3480   21.9140 N   0  0  0  0  0  0  0  0  0  0  0  0
  -23.5670  -16.1830   20.6850 O   0  0  0  0  0  0  0  0  0  0  0  0
  -23.6080  -13.4670   22.2600 H   0  0  0  0  0  0  0  0  0  0  0  0
  -22.3450  -14.6630   22.2060 H   0  0  0  0  0  0  0  0  0  0  0  0
  -26.6450  -16.7280   20.2980 N   0  0  0  0  0  0  0  0  0  0  0  0
  -25.9050  -17.3970   20.4770 H   0  0  0  0  0  0  0  0  0  0  0  0
  -27.4850  -17.1540   19.9290 H   0  0  0  0  0  0  0  0  0  0  0  0
  -26.4380  -24.8280   25.4470 C   0  0  0  0  0  3  0  0  0  0  0  0
  -27.4340  -24.0090   25.8330 C   0  0  0  0  0  3  0  0  0  0  0  0
  -26.6790  -25.9660   24.5800 C   0  0  0  0  0  0  0  0  0  0  0  0
  -27.3010  -25.6310   23.4380 N   0  0  0  0  0  0  0  0  0  0  0  0
  -26.3270  -27.1160   24.8370 O   0  0  0  0  0  0  0  0  0  0  0  0
  -27.5220  -24.6540   23.3010 H   0  0  0  0  0  0  0  0  0  0  0  0
  -27.6100  -26.5420   22.3390 C   0  0  0  0  0  2  0  0  0  0  0  0
  -26.4700  -26.5800   21.3000 C   0  0  0  0  0  2  0  0  0  0  0  0
  -26.2590  -27.9110   20.8290 O   0  0  0  0  0  0  0  0  0  0  0  0
  -28.5460  -33.3370   24.7810 C   0  0  0  0  0  0  0  0  0  0  0  0
  -25.9750  -28.7960   21.8370 C   0  0  0  0  0  0  0  0  0  0  0  0
  -26.4800  -32.2270   25.5710 C   0  0  0  0  0  3  0  0  0  0  0  0
  -25.4110  -30.5910   23.9340 C   0  0  0  0  0  0  0  0  0  0  0  0
  -27.0860  -32.2480   23.0870 C   0  0  0  0  0  2  0  0  0  0  0  0
  -26.3660  -30.9220   22.9640 C   0  0  0  0  0  0  0  0  0  0  0  0
  -26.6460  -30.0320   21.9070 C   0  0  0  0  0  3  0  0  0  0  0  0
  -25.0100  -28.4700   22.8140 C   0  0  0  0  0  3  0  0  0  0  0  0
  -24.7260  -29.3640   23.8640 C   0  0  0  0  0  3  0  0  0  0  0  0
  -25.1650  -31.6080   25.0240 C   0  0  0  0  0  2  0  0  0  0  0  0
  -27.4330  -32.6110   24.4800 N   0  0  0  0  0  0  0  0  0  0  0  0
  -28.7630  -33.7250   25.9380 O   0  0  0  0  0  0  0  0  0  0  0  0
  -27.0910  -31.2530   26.6020 C   0  0  0  0  0  0  0  0  0  0  0  0
  -26.6260  -31.3430   27.8590 N   0  0  0  0  0  0  0  0  0  0  0  0
  -27.9420  -30.4250   26.2670 O   0  0  0  0  0  0  0  0  0  0  0  0
  -25.9380  -32.0560   28.0560 H   0  0  0  0  0  0  0  0  0  0  0  0
  -26.2100  -30.8590   31.4130 C   0  0  0  0  0  0  0  0  0  0  0  0
  -27.0250  -30.5020   28.9870 C   0  0  0  0  0  3  0  0  0  0  0  0
  -26.2150  -29.1850   29.0170 C   0  0  0  0  0  2  0  0  0  0  0  0
  -24.9610  -29.2690   29.8920 C   0  0  0  0  0  2  0  0  0  0  0  0
  -25.3350  -29.6190   31.3350 C   0  0  0  0  0  2  0  0  0  0  0  0
  -26.9910  -31.2820   30.3060 C   0  0  0  0  0  0  0  0  0  0  0  0
  -27.7560  -32.4630   30.4190 C   0  0  0  0  0  3  0  0  0  0  0  0
  -27.7510  -33.2140   31.6090 C   0  0  0  0  0  3  0  0  0  0  0  0
  -26.9900  -32.7810   32.7080 C   0  0  0  0  0  3  0  0  0  0  0  0
  -26.2250  -31.6050   32.6100 C   0  0  0  0  0  3  0  0  0  0  0  0
  -29.5820  -33.7400   23.6860 C   0  0  0  0  0  3  0  0  0  0  0  0
  -30.9460  -32.9550   23.8000 C   0  0  1  0  0  0  0  0  0  0  0  0
  -31.5680  -32.9870   25.2140 C   0  0  0  0  0  1  0  0  0  0  0  0
  -30.7530  -31.4720   23.4060 C   0  0  0  0  0  1  0  0  0  0  0  0
  -31.9750  -33.5480   22.8110 C   0  0  0  0  0  1  0  0  0  0  0  0
  -29.8030  -35.1870   23.7990 N   0  0  0  0  0  0  0  0  0  0  0  0
  -29.2460  -36.1070   22.9990 C   0  0  0  0  0  0  0  0  0  0  0  0
  -28.5370  -35.8110   22.0330 O   0  0  0  0  0  0  0  0  0  0  0  0
  -30.3190  -35.5040   24.6060 H   0  0  0  0  0  0  0  0  0  0  0  0
  -28.3120  -38.1860   24.0600 C   0  0  0  0  0  1  0  0  0  0  0  0
  -29.5190  -37.5880   23.3220 C   0  0  0  0  0  3  0  0  0  0  0  0
  -31.1010  -38.0570   21.5050 C   0  0  0  0  0  1  0  0  0  0  0  0
  -29.8250  -38.4030   22.1270 N   0  0  0  0  0  0  0  0  0  0  0  0
  -29.8460  -39.3920   22.3580 H   0  0  0  0  0  0  0  0  0  0  0  0
  2  1  1  0
  3  4  1  0
  4  6  1  0
  4  2  1  0
  5  3  2  0
  7  8  2  0
  8  3  1  0
  9  7  1  0
 10 12  1  0
 10  9  1  0
 11  9  2  0
 13 14  1  0
 13 10  1  0
 14 15  1  0
 16 24  1  0
 17 22  1  0
 18 19  1  0
 18 17  1  0
 20 19  1  0
 20 29  1  0
 20 21  1  0
 22 16  1  0
 22 21  1  0
 23 16  2  0
 24 15  1  0
 24 25  1  0
 26 27  2  0
 27 46  1  0
 28 31  1  0
 28 27  1  0
 29 30  1  0
 29 26  1  0
 30 28  2  0
 31 32  1  0
 32 33  2  0
 34 37  1  0
 34 33  1  0
 35 34  2  0
 36 35  1  0
 36 31  2  0
 37 38  1  0
 38 39  1  0
 39 40  2  0
 41 40  1  0
 41 45  1  0
 42 41  2  0
 43 38  2  0
 43 42  1  0
 44 43  1  0
 46 47  1  0
 47 50  1  0
 47 49  1  0
 48 46  2  0
 51 26  1  0
 51 52  1  0
 53 51  1  0
 54 55  2  0
 55  2  1  0
 56 58  2  0
 56 54  1  0
 57 56  1  0
 59 57  1  0
 60 57  1  0
 61 60  1  0
 62 61  1  0
 62 64  1  0
 63 74  2  0
 64 69  2  0
 64 70  1  0
 65 75  1  0
 66 72  1  0
 67 73  1  0
 68 67  1  0
 68 66  2  0
 69 68  1  0
 70 71  2  0
 71 66  1  0
 72 65  1  0
 73 63  1  0
 73 65  1  0
 75 76  1  0
 76 78  1  0
 77 75  2  0
 79 88  1  0
 80 76  1  0
 80 81  1  0
 80 84  1  0
 81 82  1  0
 82 83  1  0
 83 79  1  0
 84 85  1  0
 84 79  2  0
 85 86  2  0
 86 87  1  0
 88 87  2  0
 89 94  1  0
 89 90  1  0
 89 63  1  0
 90 91  1  1
 92 90  1  0
 93 90  1  0
 94 97  1  0
 95 99  1  0
 95 94  1  0
 96 95  2  0
 99 98  1  0
100101  1  0
101102  1  0
101 99  1  0
M  ISO  4  16 100  24 100  61 101  62 101
M  END
>  <TORSDO>  (47) 
F 26

>  <SCORE>  (47) 
39.451

>  <name>  (47) 
50

>  <ligand_id>  (47) 
50

>  <original_smiles>  (47) 
[H]C(C(=O)N([H])C([H])([H])C([H])([H])C([H])([H])N([H])C(=O)N1C([H])([H])C([H])([H])C([H])([H])C([H])(n2nc(-c3c([H])c([H])c(Oc4c([H])c([H])c(F)c([H])c4F)c([H])c3[H])c(C(=O)N([H])[H])c2N([H])[H])C1([H])[H])=C([H])C(=O)N([H])C([H])(C([H])=C([H])C(=O)N([H])C([H])([H])C([H])([H])Oc1c([H])c([H])c2c(c1[H])C([H])([H])N(C(=O)C([H])(N([H])C(=O)C([H])(N([H])C([H])([H])[H])C([H])([H])[H])C(C([H])([H])[H])(C([H])([H])[H])C([H])([H])[H])C([H])(C(=O)N([H])C1([H])c3c([H])c([H])c([H])c([H])c3C([H])([H])C([H])([H])C1([H])[H])C2([H])[H])C([H])([H])[H]

>  <smiles>  (47) 
[H]C(C(=O)N([H])C([H])([H])C([H])([H])C([H])([H])N([H])C(=O)N1C([H])([H])C([H])([H])C([H])([H])C([H])(n2nc(-c3c([H])c([H])c(Oc4c([H])c([H])c(F)c([H])c4F)c([H])c3[H])c(C(=O)N([H])[H])c2N([H])[H])C1([H])[H])=C([H])C(=O)N([H])C([H])(C([H])=C([H])C(=O)N([H])C([H])([H])C([H])([H])Oc1c([H])c([H])c2c(c1[H])C([H])([H])N(C(=O)C([H])(N([H])C(=O)C([H])(N([H])C([H])([H])[H])C([H])([H])[H])C(C([H])([H])[H])(C([H])([H])[H])C([H])([H])[H])C([H])(C(=O)N([H])C1([H])c3c([H])c([H])c([H])c([H])c3C([H])([H])C([H])([H])C1([H])[H])C2([H])[H])C([H])([H])[H]

$$$$
52:0:0
     RDKit          3D

 97104  0  0  1  0  0  0  0  0999 V2000
  -30.1550  -21.9480   23.3690 C   0  0  0  0  0  0  0  0  0  0  0  0
  -29.0770  -22.0900   22.5980 N   0  0  0  0  0  0  0  0  0  0  0  0
  -30.7840  -22.9080   23.8170 O   0  0  0  0  0  0  0  0  0  0  0  0
  -28.6150  -21.2510   22.2690 H   0  0  0  0  0  0  0  0  0  0  0  0
  -31.7070  -20.1240   23.0670 C   0  0  0  0  0  3  0  0  0  0  0  0
  -30.5150  -20.5570   23.5170 C   0  0  0  0  0  3  0  0  0  0  0  0
  -32.0180  -18.7200   23.1390 C   0  0  0  0  0  0  0  0  0  0  0  0
  -32.6140  -18.3190   22.0130 N   0  0  0  0  0  0  0  0  0  0  0  0
  -31.7190  -17.9620   24.0640 O   0  0  0  0  0  0  0  0  0  0  0  0
  -32.8360  -19.0350   21.3330 H   0  0  0  0  0  0  0  0  0  0  0  0
  -32.8400  -16.9340   21.6180 C   0  0  0  0  0  2  0  0  0  0  0  0
  -31.5230  -16.1940   21.3140 C   0  0  0  0  0  2  0  0  0  0  0  0
  -30.9250  -16.4820   19.9200 C   0  0  0  0  0  2  0  0  0  0  0  0
  -30.1160  -14.6420   18.4310 C   0  0  0  0  0  0  0  0  0  0  0  0
  -29.9060  -12.3000   17.6850 C   0  0  0  0  0  2  0  0  0  0  0  0
  -28.6970  -12.0220   16.7800 C   0  0  0  0  0  2  0  0  0  0  0  0
  -27.4420  -11.7360   17.6230 C   0  0  0  0  0  2  0  0  0  0  0  0
  -27.2010  -12.8120   18.7120 C   0  0  0  0  0  3  0  0  0  0  0  0
  -28.4860  -13.0670   19.5230 C   0  0  0  0  0  2  0  0  0  0  0  0
  -29.5760  -13.4110   18.5880 N   0  0  0  0  0  0  0  0  0  0  0  0
  -30.7700  -14.9920   17.4440 O   0  0  0  0  0  0  0  0  0  0  0  0
  -30.0580  -15.3730   19.5480 N   0  0  0  0  0  0  0  0  0  0  0  0
  -29.4960  -14.9740   20.2850 H   0  0  0  0  0  0  0  0  0  0  0  0
  -25.2560  -13.2620   20.3400 C   0  0  0  0  0  0  0  0  0  0  0  0
  -24.3280  -12.4300   20.9080 C   0  0  0  0  0  0  0  0  0  0  0  0
  -24.6430  -11.1160   20.4460 C   0  0  0  0  0  0  0  0  0  0  0  0
  -26.0830  -12.4480   19.5800 N   0  0  0  0  0  0  0  0  0  0  0  0
  -25.7350  -11.1410   19.6930 N   0  0  0  0  0  0  0  0  0  0  0  0
  -23.9350   -9.8430   20.6310 C   0  0  0  0  0  0  0  0  0  0  0  0
  -24.3960   -8.8660   21.5420 C   0  0  0  0  0  3  0  0  0  0  0  0
  -23.6890   -7.6580   21.7150 C   0  0  0  0  0  3  0  0  0  0  0  0
  -22.5050   -7.4160   20.9760 C   0  0  0  0  0  0  0  0  0  0  0  0
  -22.0630   -8.3810   20.0550 C   0  0  0  0  0  3  0  0  0  0  0  0
  -22.7720   -9.5820   19.8810 C   0  0  0  0  0  3  0  0  0  0  0  0
  -21.7670   -6.2600   21.0600 O   0  0  0  0  0  0  0  0  0  0  0  0
  -21.5090   -5.6570   22.2640 C   0  0  0  0  0  0  0  0  0  0  0  0
  -20.7880   -6.3110   23.2880 C   0  0  0  0  0  3  0  0  0  0  0  0
  -20.4850   -5.6290   24.4830 C   0  0  0  0  0  3  0  0  0  0  0  0
  -20.8910   -4.2910   24.6530 C   0  0  0  0  0  0  0  0  0  0  0  0
  -21.6030   -3.6360   23.6330 C   0  0  0  0  0  3  0  0  0  0  0  0
  -21.9080   -4.3160   22.4410 C   0  0  0  0  0  0  0  0  0  0  0  0
  -22.5760   -3.6730   21.4530 F   0  0  0  0  0  0  0  0  0  0  0  0
  -20.5930   -3.6330   25.7970 F   0  0  0  0  0  0  0  0  0  0  0  0
  -23.1570  -12.8410   21.7530 C   0  0  0  0  0  0  0  0  0  0  0  0
  -22.7250  -11.9760   22.6650 N   0  0  0  0  0  0  0  0  0  0  0  0
  -22.6460  -13.9540   21.6410 O   0  0  0  0  0  0  0  0  0  0  0  0
  -23.1570  -11.0700   22.7700 H   0  0  0  0  0  0  0  0  0  0  0  0
  -21.9530  -12.2240   23.2670 H   0  0  0  0  0  0  0  0  0  0  0  0
  -25.4550  -14.6390   20.3910 N   0  0  0  0  0  0  0  0  0  0  0  0
  -24.8340  -15.2600   20.8970 H   0  0  0  0  0  0  0  0  0  0  0  0
  -26.1810  -15.1310   19.8830 H   0  0  0  0  0  0  0  0  0  0  0  0
  -28.6560  -23.3590   22.0260 C   0  0  0  0  0  2  0  0  0  0  0  0
  -27.6330  -23.1540   20.8950 C   0  0  0  0  0  2  0  0  0  0  0  0
  -27.9860  -23.9430   19.7660 O   0  0  0  0  0  0  0  0  0  0  0  0
  -27.7290  -25.3300   19.9350 C   0  0  0  0  0  2  0  0  0  0  0  0
  -28.3030  -26.1030   18.7330 C   0  0  0  0  0  2  0  0  0  0  0  0
  -28.3030  -27.5090   18.9770 O   0  0  0  0  0  0  0  0  0  0  0  0
  -24.6680  -31.8160   23.2890 C   0  0  0  0  0  0  0  0  0  0  0  0
  -27.1020  -28.1480   19.1960 C   0  0  0  0  0  0  0  0  0  0  0  0
  -23.3490  -30.7450   21.4920 C   0  0  0  0  0  3  0  0  0  0  0  0
  -24.6980  -29.5480   19.6930 C   0  0  0  0  0  0  0  0  0  0  0  0
  -25.8490  -31.1890   21.1880 C   0  0  0  0  0  2  0  0  0  0  0  0
  -25.8910  -29.9760   20.2840 C   0  0  0  0  0  0  0  0  0  0  0  0
  -27.0940  -29.2840   20.0330 C   0  0  0  0  0  3  0  0  0  0  0  0
  -25.8830  -27.7270   18.6070 C   0  0  0  0  0  3  0  0  0  0  0  0
  -24.6860  -28.4220   18.8530 C   0  0  0  0  0  3  0  0  0  0  0  0
  -23.4580  -30.3560   19.9930 C   0  0  0  0  0  2  0  0  0  0  0  0
  -24.6440  -31.2520   22.0490 N   0  0  0  0  0  0  0  0  0  0  0  0
  -23.6290  -31.9540   23.9500 O   0  0  0  0  0  0  0  0  0  0  0  0
  -22.7790  -29.5400   22.2730 C   0  0  0  0  0  0  0  0  0  0  0  0
  -21.4820  -29.2550   22.0700 N   0  0  0  0  0  0  0  0  0  0  0  0
  -23.4980  -28.8710   23.0180 O   0  0  0  0  0  0  0  0  0  0  0  0
  -20.9560  -29.8570   21.4510 H   0  0  0  0  0  0  0  0  0  0  0  0
  -18.2760  -27.5930   22.1320 C   0  0  0  0  0  0  0  0  0  0  0  0
  -20.7430  -28.1460   22.6700 C   0  0  0  0  0  3  0  0  0  0  0  0
  -21.0880  -26.8080   21.9760 C   0  0  0  0  0  2  0  0  0  0  0  0
  -20.1270  -26.4530   20.8370 C   0  0  0  0  0  2  0  0  0  0  0  0
  -18.6910  -26.3540   21.3570 C   0  0  0  0  0  2  0  0  0  0  0  0
  -19.2410  -28.4420   22.7360 C   0  0  0  0  0  0  0  0  0  0  0  0
  -18.8030  -29.6000   23.4160 C   0  0  0  0  0  3  0  0  0  0  0  0
  -17.4330  -29.9110   23.5000 C   0  0  0  0  0  3  0  0  0  0  0  0
  -16.4830  -29.0600   22.9110 C   0  0  0  0  0  3  0  0  0  0  0  0
  -16.9040  -27.9020   22.2350 C   0  0  0  0  0  3  0  0  0  0  0  0
  -25.9940  -32.3360   23.9250 C   0  0  0  0  0  3  0  0  0  0  0  0
  -26.4370  -31.5180   25.1990 C   0  0  1  0  0  0  0  0  0  0  0  0
  -25.3060  -31.3200   26.2340 C   0  0  0  0  0  1  0  0  0  0  0  0
  -26.9580  -30.1180   24.7980 C   0  0  0  0  0  1  0  0  0  0  0  0
  -27.6080  -32.2400   25.9060 C   0  0  0  0  0  1  0  0  0  0  0  0
  -25.7980  -33.7530   24.2590 N   0  0  0  0  0  0  0  0  0  0  0  0
  -26.2630  -34.7780   23.5330 C   0  0  0  0  0  0  0  0  0  0  0  0
  -26.9750  -34.6240   22.5370 O   0  0  0  0  0  0  0  0  0  0  0  0
  -25.1770  -33.9530   25.0310 H   0  0  0  0  0  0  0  0  0  0  0  0
  -24.7440  -36.7340   23.0920 C   0  0  0  0  0  1  0  0  0  0  0  0
  -25.8760  -36.2000   23.9840 C   0  0  0  0  0  3  0  0  0  0  0  0
  -28.0190  -36.8580   24.9840 C   0  0  0  0  0  1  0  0  0  0  0  0
  -27.0090  -37.1500   23.9690 N   0  0  0  0  0  0  0  0  0  0  0  0
  -26.6820  -38.1020   24.1120 H   0  0  0  0  0  0  0  0  0  0  0  0
  1  6  1  0
  1  3  2  0
  2  1  1  0
  4  2  1  0
  5  7  1  0
  5  6  2  0
  7  9  2  0
  8  7  1  0
 10  8  1  0
 11  8  1  0
 12 11  1  0
 13 12  1  0
 14 20  1  0
 14 22  1  0
 15 20  1  0
 16 17  1  0
 16 15  1  0
 18 17  1  0
 18 19  1  0
 18 27  1  0
 20 19  1  0
 21 14  2  0
 22 13  1  0
 22 23  1  0
 24 49  1  0
 24 25  2  0
 25 44  1  0
 26 29  1  0
 26 25  1  0
 27 28  1  0
 27 24  1  0
 28 26  2  0
 29 30  1  0
 30 31  2  0
 32 35  1  0
 32 31  1  0
 33 32  2  0
 34 33  1  0
 34 29  2  0
 35 36  1  0
 36 41  2  0
 36 37  1  0
 37 38  2  0
 38 39  1  0
 39 43  1  0
 40 39  2  0
 41 40  1  0
 42 41  1  0
 44 45  1  0
 45 47  1  0
 45 48  1  0
 46 44  2  0
 49 50  1  0
 51 49  1  0
 52  2  1  0
 53 52  1  0
 54 55  1  0
 54 53  1  0
 56 57  1  0
 56 55  1  0
 57 59  1  0
 58 69  2  0
 59 64  1  0
 60 68  1  0
 60 70  1  0
 61 67  1  0
 61 63  1  0
 62 68  1  0
 63 62  1  0
 64 63  2  0
 65 66  1  0
 65 59  2  0
 66 61  2  0
 67 60  1  0
 68 58  1  0
 70 72  2  0
 71 70  1  0
 73 71  1  0
 74 83  2  0
 74 79  1  0
 75 71  1  0
 75 79  1  0
 76 75  1  0
 77 78  1  0
 77 76  1  0
 78 74  1  0
 79 80  2  0
 80 81  1  0
 82 81  2  0
 83 82  1  0
 84 58  1  0
 84 89  1  0
 84 85  1  0
 85 88  1  1
 85 86  1  0
 87 85  1  0
 89 92  1  0
 90 94  1  0
 90 89  1  0
 91 90  2  0
 94 93  1  0
 96 94  1  0
 96 97  1  0
 96 95  1  0
M  ISO  4  14 100  22 100  56 101  57 101
M  END
>  <TORSDO>  (48) 
F 26

>  <SCORE>  (48) 
-0.795

>  <name>  (48) 
52

>  <ligand_id>  (48) 
52

>  <original_smiles>  (48) 
[H]C(C(=O)N([H])C([H])([H])C([H])([H])OC([H])([H])C([H])([H])Oc1c([H])c([H])c2c(c1[H])C([H])([H])N(C(=O)C([H])(N([H])C(=O)C([H])(N([H])C([H])([H])[H])C([H])([H])[H])C(C([H])([H])[H])(C([H])([H])[H])C([H])([H])[H])C([H])(C(=O)N([H])C1([H])c3c([H])c([H])c([H])c([H])c3C([H])([H])C([H])([H])C1([H])[H])C2([H])[H])=C([H])C(=O)N([H])C([H])([H])C([H])([H])C([H])([H])N([H])C(=O)N1C([H])([H])C([H])([H])C([H])([H])C([H])(n2nc(-c3c([H])c([H])c(Oc4c([H])c([H])c(F)c([H])c4F)c([H])c3[H])c(C(=O)N([H])[H])c2N([H])[H])C1([H])[H]

>  <smiles>  (48) 
[H]C(C(=O)N([H])C([H])([H])C([H])([H])OC([H])([H])C([H])([H])Oc1c([H])c([H])c2c(c1[H])C([H])([H])N(C(=O)C([H])(N([H])C(=O)C([H])(N([H])C([H])([H])[H])C([H])([H])[H])C(C([H])([H])[H])(C([H])([H])[H])C([H])([H])[H])C([H])(C(=O)N([H])C1([H])c3c([H])c([H])c([H])c([H])c3C([H])([H])C([H])([H])C1([H])[H])C2([H])[H])=C([H])C(=O)N([H])C([H])([H])C([H])([H])C([H])([H])N([H])C(=O)N1C([H])([H])C([H])([H])C([H])([H])C([H])(n2nc(-c3c([H])c([H])c(Oc4c([H])c([H])c(F)c([H])c4F)c([H])c3[H])c(C(=O)N([H])[H])c2N([H])[H])C1([H])[H]

$$$$
53:0:0
     RDKit          3D

 99106  0  0  1  0  0  0  0  0999 V2000
  -25.9830  -14.6240   21.2120 C   0  0  0  0  0  3  0  0  0  0  0  0
  -25.9490  -12.7610   21.2150 C   0  0  0  0  0  2  0  0  0  0  0  0
  -26.3010  -11.4480   20.0280 N   0  0  0  0  0  0  0  0  0  0  0  0
  -27.3000  -10.8710   19.2150 N   0  0  0  0  0  0  0  0  0  0  0  0
  -29.1930  -11.2320   17.3530 C   0  0  0  0  0  1  0  0  0  0  0  0
  -29.0800  -10.8820   18.8640 C   0  0  0  0  0  3  0  0  0  0  0  0
  -30.4240   -9.7330   19.3950 C   0  0  0  0  0  2  0  0  0  0  0  0
  -31.8860   -9.9620   20.1260 N   0  0  0  0  0  4  0  0  0  0  0  0
  -32.2410  -10.8350   19.7660 H   0  0  0  0  0  0  0  0  0  0  0  0
  -31.6610  -10.1930   21.0910 H   0  0  0  0  0  0  0  0  0  0  0  0
  -33.1630   -8.9630   20.1950 C   0  0  0  0  0  2  0  0  0  0  0  0
  -34.8270   -9.2660   20.7410 C   0  0  0  0  0  2  0  0  0  0  0  0
  -36.1250   -8.1950   23.2450 C   0  0  0  0  0  0  0  0  0  0  0  0
  -35.0320   -6.1520   23.7580 C   0  0  0  0  0  2  0  0  0  0  0  0
  -34.2830   -5.9740   22.4240 C   0  0  0  0  0  2  0  0  0  0  0  0
  -32.9530   -6.7460   22.5630 C   0  0  0  0  0  2  0  0  0  0  0  0
  -33.1210   -8.2030   23.1140 C   0  0  0  0  0  3  0  0  0  0  0  0
  -33.9330   -8.2760   24.3680 C   0  0  0  0  0  2  0  0  0  0  0  0
  -35.1480   -7.5980   23.9560 N   0  0  0  0  0  0  0  0  0  0  0  0
  -37.2710   -7.9500   23.6800 O   0  0  0  0  0  0  0  0  0  0  0  0
  -35.8430   -8.5540   21.8490 N   0  0  0  0  0  0  0  0  0  0  0  0
  -36.7540   -8.5310   21.4110 H   0  0  0  0  0  0  0  0  0  0  0  0
  -32.1310  -10.5150   22.8570 C   0  0  0  0  0  0  0  0  0  0  0  0
  -30.9380  -10.9370   22.4440 C   0  0  0  0  0  0  0  0  0  0  0  0
  -30.1110   -9.6430   22.5280 C   0  0  0  0  0  0  0  0  0  0  0  0
  -32.0770   -9.1390   22.9790 N   0  0  0  0  0  0  0  0  0  0  0  0
  -30.8810   -8.6320   22.8460 N   0  0  0  0  0  0  0  0  0  0  0  0
  -28.7470   -9.0040   22.2760 C   0  0  0  0  0  0  0  0  0  0  0  0
  -27.8250   -8.7960   23.3280 C   0  0  0  0  0  3  0  0  0  0  0  0
  -26.5140   -8.3140   23.0820 C   0  0  0  0  0  3  0  0  0  0  0  0
  -26.0660   -8.1060   21.7550 C   0  0  0  0  0  0  0  0  0  0  0  0
  -26.9920   -8.2090   20.7200 C   0  0  0  0  0  3  0  0  0  0  0  0
  -28.3260   -8.4890   21.0290 C   0  0  0  0  0  3  0  0  0  0  0  0
  -24.8050   -7.7120   21.3780 O   0  0  0  0  0  0  0  0  0  0  0  0
  -23.7600   -7.7160   22.2570 C   0  0  0  0  0  0  0  0  0  0  0  0
  -23.1530   -8.9190   22.6760 C   0  0  0  0  0  3  0  0  0  0  0  0
  -22.0460   -8.8790   23.5440 C   0  0  0  0  0  3  0  0  0  0  0  0
  -21.5330   -7.6440   23.9750 C   0  0  0  0  0  0  0  0  0  0  0  0
  -22.1260   -6.4420   23.5440 C   0  0  0  0  0  3  0  0  0  0  0  0
  -23.2360   -6.4780   22.6830 C   0  0  0  0  0  0  0  0  0  0  0  0
  -23.7960   -5.3200   22.2570 F   0  0  0  0  0  0  0  0  0  0  0  0
  -20.4610   -7.6100   24.7980 F   0  0  0  0  0  0  0  0  0  0  0  0
  -30.9430  -12.4350   21.7970 C   0  0  0  0  0  0  0  0  0  0  0  0
  -29.9920  -13.3030   21.4240 N   0  0  0  0  0  0  0  0  0  0  0  0
  -31.9150  -12.9410   21.3360 O   0  0  0  0  0  0  0  0  0  0  0  0
  -29.0230  -13.0600   21.6040 H   0  0  0  0  0  0  0  0  0  0  0  0
  -30.2380  -14.1860   21.0100 H   0  0  0  0  0  0  0  0  0  0  0  0
  -33.2990  -11.2430   22.9340 N   0  0  0  0  0  0  0  0  0  0  0  0
  -33.2820  -12.2540   22.9780 H   0  0  0  0  0  0  0  0  0  0  0  0
  -34.1020  -10.8710   23.4260 H   0  0  0  0  0  0  0  0  0  0  0  0
  -26.9380  -15.9780   20.5010 C   0  0  0  0  0  3  0  0  0  0  0  0
  -26.8270  -17.7640   20.5140 C   0  0  0  0  0  3  0  0  0  0  0  0
  -27.2690  -19.0060   19.3020 C   0  0  0  0  0  3  0  0  0  0  0  0
  -27.1740  -20.6640   19.3640 N   0  0  0  0  0  4  0  0  0  0  0  0
  -27.8660  -20.9250   20.0480 H   0  0  0  0  0  0  0  0  0  0  0  0
  -26.2860  -20.8540   19.8000 H   0  0  0  0  0  0  0  0  0  0  0  0
  -27.3180  -21.7970   18.1500 C   0  0  0  0  0  3  0  0  0  0  0  0
  -27.1490  -23.5800   18.2330 C   0  0  0  0  0  3  0  0  0  0  0  0
  -27.3060  -24.8930   17.2250 O   0  0  0  0  0  0  0  0  0  0  0  0
  -25.6640  -29.0570   22.9810 C   0  0  0  0  0  0  0  0  0  0  0  0
  -26.9690  -26.2240   17.7090 C   0  0  0  0  0  0  0  0  0  0  0  0
  -24.2680  -29.0900   20.9610 C   0  0  0  0  0  3  0  0  0  0  0  0
  -25.3880  -28.3770   18.7670 C   0  0  0  0  0  0  0  0  0  0  0  0
  -26.8190  -28.8300   20.7400 C   0  0  0  0  0  2  0  0  0  0  0  0
  -26.5780  -28.0510   19.4290 C   0  0  0  0  0  0  0  0  0  0  0  0
  -27.3970  -26.9780   18.8910 C   0  0  0  0  0  3  0  0  0  0  0  0
  -25.9300  -26.8120   16.9820 C   0  0  0  0  0  3  0  0  0  0  0  0
  -25.1090  -27.8110   17.5200 C   0  0  0  0  0  3  0  0  0  0  0  0
  -24.4040  -29.3210   19.4330 C   0  0  0  0  0  2  0  0  0  0  0  0
  -25.6090  -28.9820   21.6170 N   0  0  0  0  0  0  0  0  0  0  0  0
  -24.6390  -29.2020   23.6660 O   0  0  0  0  0  0  0  0  0  0  0  0
  -23.3620  -27.8590   21.2360 C   0  0  0  0  0  0  0  0  0  0  0  0
  -22.0380  -28.0150   21.0660 N   0  0  0  0  0  0  0  0  0  0  0  0
  -23.8590  -26.7840   21.5860 O   0  0  0  0  0  0  0  0  0  0  0  0
  -21.7020  -28.9290   20.7930 H   0  0  0  0  0  0  0  0  0  0  0  0
  -18.4700  -27.3730   21.0320 C   0  0  0  0  0  0  0  0  0  0  0  0
  -21.0180  -26.9760   21.2410 C   0  0  0  0  0  3  0  0  0  0  0  0
  -20.8810  -26.1090   19.9670 C   0  0  0  0  0  2  0  0  0  0  0  0
  -19.7900  -26.6070   19.0150 C   0  0  0  0  0  2  0  0  0  0  0  0
  -18.4280  -26.6190   19.7140 C   0  0  0  0  0  2  0  0  0  0  0  0
  -19.6880  -27.5530   21.7420 C   0  0  0  0  0  0  0  0  0  0  0  0
  -19.6730  -28.2860   22.9480 C   0  0  0  0  0  3  0  0  0  0  0  0
  -18.4760  -28.8360   23.4440 C   0  0  0  0  0  3  0  0  0  0  0  0
  -17.2720  -28.6430   22.7430 C   0  0  0  0  0  3  0  0  0  0  0  0
  -17.2700  -27.9080   21.5440 C   0  0  0  0  0  3  0  0  0  0  0  0
  -27.0200  -28.9810   23.7450 C   0  0  0  0  0  3  0  0  0  0  0  0
  -26.9120  -29.8500   24.9300 N   0  0  0  0  0  0  0  0  0  0  0  0
  -27.4060  -31.0930   25.0160 C   0  0  0  0  0  0  0  0  0  0  0  0
  -28.0640  -31.6130   24.1110 O   0  0  0  0  0  0  0  0  0  0  0  0
  -26.3390  -29.5110   25.6880 H   0  0  0  0  0  0  0  0  0  0  0  0
  -25.9780  -32.8780   26.0730 C   0  0  0  0  0  1  0  0  0  0  0  0
  -27.1280  -31.8850   26.3100 C   0  0  0  0  0  3  0  0  0  0  0  0
  -29.3400  -31.7270   27.3650 C   0  0  0  0  0  1  0  0  0  0  0  0
  -28.3110  -32.6110   26.8230 N   0  0  0  0  0  0  0  0  0  0  0  0
  -28.0450  -33.2700   27.5490 H   0  0  0  0  0  0  0  0  0  0  0  0
  -27.4040  -27.5130   24.1790 C   0  0  1  0  0  0  0  0  0  0  0  0
  -26.2840  -26.7790   24.9540 C   0  0  0  0  0  1  0  0  0  0  0  0
  -27.7610  -26.6480   22.9480 C   0  0  0  0  0  1  0  0  0  0  0  0
  -28.6670  -27.5460   25.0700 C   0  0  0  0  0  1  0  0  0  0  0  0
  1  2  1  0
  3  2  1  0
  4  3  2  0
  6  5  1  0
  6  4  1  0
  6  7  1  0
  7  8  1  0
  8 11  1  0
  8 10  1  0
  9  8  1  0
 11 12  1  0
 12 21  1  0
 13 20  2  0
 13 19  1  0
 14 19  1  0
 15 16  1  0
 15 14  1  0
 17 16  1  0
 17 18  1  0
 19 18  1  0
 21 13  1  0
 22 21  1  0
 23 48  1  0
 23 26  1  0
 24 25  1  0
 24 23  2  0
 25 27  2  0
 26 17  1  0
 27 26  1  0
 28 25  1  0
 28 29  1  0
 30 29  2  0
 31 30  1  0
 32 33  1  0
 32 31  2  0
 33 28  2  0
 34 31  1  0
 34 35  1  0
 35 36  2  0
 35 40  1  0
 36 37  1  0
 37 38  2  0
 38 42  1  0
 39 38  1  0
 40 39  2  0
 41 40  1  0
 43 24  1  0
 44 46  1  0
 44 43  1  0
 45 43  2  0
 47 44  1  0
 48 49  1  0
 48 50  1  0
 51 52  1  0
 51  1  2  0
 53 54  1  0
 53 52  2  0
 54 56  1  0
 54 55  1  0
 57 58  2  0
 57 54  1  0
 59 61  1  0
 59 58  1  0
 60 71  2  0
 61 66  1  0
 62 72  1  0
 62 70  1  0
 63 65  1  0
 63 69  1  0
 64 70  1  0
 65 64  1  0
 66 65  2  0
 67 68  1  0
 67 61  2  0
 68 63  2  0
 69 62  1  0
 70 60  1  0
 72 74  2  0
 73 72  1  0
 75 73  1  0
 76 85  2  0
 76 81  1  0
 77 73  1  0
 77 81  1  0
 78 77  1  0
 79 80  1  0
 79 78  1  0
 80 76  1  0
 81 82  2  0
 82 83  1  0
 84 83  2  0
 85 84  1  0
 86 60  1  0
 86 96  1  0
 86 87  1  0
 87 88  1  0
 87 90  1  0
 88 92  1  0
 89 88  2  0
 92 91  1  0
 92 94  1  0
 94 93  1  0
 94 95  1  0
 96 97  1  1
 96 99  1  0
 98 96  1  0
M  ISO  4  13 100  21 100  58 101  59 101
M  END
>  <TORSDO>  (49) 
F 29

>  <SCORE>  (49) 
-6.123

>  <name>  (49) 
53

>  <ligand_id>  (49) 
53

>  <original_smiles>  (49) 
[H]c1c([H])c([H])c2c(c1[H])C([H])([H])C([H])([H])C([H])([H])C2([H])N([H])C(=O)C1([H])N(C(=O)C([H])(N([H])C(=O)C([H])(N([H])C([H])([H])[H])C([H])([H])[H])C(C([H])([H])[H])(C([H])([H])[H])C([H])([H])[H])C([H])([H])c2c([H])c(OC([H])([H])C([H])([H])[N+]([H])([H])C([H])([H])C([H])([H])C([H])([H])C([H])([H])C([H])([H])N=NC([H])(C([H])([H])[H])C([H])([H])[N+]([H])([H])C([H])([H])C([H])([H])N([H])C(=O)N3C([H])([H])C([H])([H])C([H])([H])C([H])(n4nc(-c5c([H])c([H])c(Oc6c([H])c([H])c(F)c([H])c6F)c([H])c5[H])c(C(=O)N([H])[H])c4N([H])[H])C3([H])[H])c([H])c([H])c2C1([H])[H]

>  <smiles>  (49) 
[H]c1c([H])c([H])c2c(c1[H])C([H])([H])C([H])([H])C([H])([H])C2([H])N([H])C(=O)C1([H])N(C(=O)C([H])(N([H])C(=O)C([H])(N([H])C([H])([H])[H])C([H])([H])[H])C(C([H])([H])[H])(C([H])([H])[H])C([H])([H])[H])C([H])([H])c2c([H])c(OC([H])([H])C([H])([H])[N+]([H])([H])C([H])([H])C([H])([H])C([H])([H])C([H])([H])C([H])([H])N=NC([H])(C([H])([H])[H])C([H])([H])[N+]([H])([H])C([H])([H])C([H])([H])N([H])C(=O)N3C([H])([H])C([H])([H])C([H])([H])C([H])(n4nc(-c5c([H])c([H])c(Oc6c([H])c([H])c(F)c([H])c6F)c([H])c5[H])c(C(=O)N([H])[H])c4N([H])[H])C3([H])[H])c([H])c([H])c2C1([H])[H]

$$$$
54:0:0
     RDKit          3D

101108  0  0  1  0  0  0  0  0999 V2000
  -28.4720  -21.7490   21.0890 C   0  0  0  0  0  3  0  0  0  0  0  0
  -29.6500  -22.3580   21.3560 C   0  0  0  0  0  3  0  0  0  0  0  0
  -29.8410  -23.7880   21.4680 C   0  0  0  0  0  0  0  0  0  0  0  0
  -28.7180  -24.5170   21.4240 N   0  0  0  0  0  0  0  0  0  0  0  0
  -30.9540  -24.2990   21.5920 O   0  0  0  0  0  0  0  0  0  0  0  0
  -27.8370  -24.0260   21.3550 H   0  0  0  0  0  0  0  0  0  0  0  0
  -28.6940  -25.9710   21.2560 C   0  0  0  0  0  2  0  0  0  0  0  0
  -28.1230  -26.3300   19.8780 C   0  0  0  0  0  2  0  0  0  0  0  0
  -28.7180  -25.4580   18.9140 O   0  0  0  0  0  0  0  0  0  0  0  0
  -28.0430  -25.3970   17.6660 C   0  0  0  0  0  2  0  0  0  0  0  0
  -28.4040  -26.5780   16.7490 C   0  0  0  0  0  2  0  0  0  0  0  0
  -27.2910  -26.8230   15.8940 O   0  0  0  0  0  0  0  0  0  0  0  0
  -24.8190  -29.7920   21.8330 C   0  0  0  0  0  0  0  0  0  0  0  0
  -26.2070  -27.3220   16.5660 C   0  0  0  0  0  0  0  0  0  0  0  0
  -23.1000  -28.9720   20.2470 C   0  0  0  0  0  3  0  0  0  0  0  0
  -23.9630  -28.3080   17.9440 C   0  0  0  0  0  0  0  0  0  0  0  0
  -25.3910  -29.7410   19.4180 C   0  0  0  0  0  2  0  0  0  0  0  0
  -25.2470  -28.7450   18.2940 C   0  0  0  0  0  0  0  0  0  0  0  0
  -26.3720  -28.2550   17.6070 C   0  0  0  0  0  3  0  0  0  0  0  0
  -24.9120  -26.8960   16.2050 C   0  0  0  0  0  3  0  0  0  0  0  0
  -23.7870  -27.3780   16.9020 C   0  0  0  0  0  3  0  0  0  0  0  0
  -22.8120  -28.8980   18.7230 C   0  0  0  0  0  2  0  0  0  0  0  0
  -24.4730  -29.4940   20.5500 N   0  0  0  0  0  0  0  0  0  0  0  0
  -23.9980  -29.6870   22.7560 O   0  0  0  0  0  0  0  0  0  0  0  0
  -22.8240  -27.5840   20.8670 C   0  0  0  0  0  0  0  0  0  0  0  0
  -21.5370  -27.2100   20.9440 N   0  0  0  0  0  0  0  0  0  0  0  0
  -23.7530  -26.8620   21.2390 O   0  0  0  0  0  0  0  0  0  0  0  0
  -20.8350  -27.8620   20.6260 H   0  0  0  0  0  0  0  0  0  0  0  0
  -18.5500  -25.2320   21.3980 C   0  0  0  0  0  0  0  0  0  0  0  0
  -21.0370  -25.9360   21.4570 C   0  0  0  0  0  3  0  0  0  0  0  0
  -21.2810  -24.7950   20.4410 C   0  0  0  0  0  2  0  0  0  0  0  0
  -20.0910  -24.5570   19.5050 C   0  0  0  0  0  2  0  0  0  0  0  0
  -18.8350  -24.2100   20.3090 C   0  0  0  0  0  2  0  0  0  0  0  0
  -19.5820  -26.0520   21.9250 C   0  0  0  0  0  0  0  0  0  0  0  0
  -19.2560  -27.0130   22.9110 C   0  0  0  0  0  3  0  0  0  0  0  0
  -17.9320  -27.1570   23.3660 C   0  0  0  0  0  3  0  0  0  0  0  0
  -16.9190  -26.3300   22.8510 C   0  0  0  0  0  3  0  0  0  0  0  0
  -17.2280  -25.3660   21.8740 C   0  0  0  0  0  3  0  0  0  0  0  0
  -26.2470  -30.3070   22.2020 C   0  0  0  0  0  3  0  0  0  0  0  0
  -26.0930  -31.3450   23.2300 N   0  0  0  0  0  0  0  0  0  0  0  0
  -26.2190  -32.6610   23.0030 C   0  0  0  0  0  0  0  0  0  0  0  0
  -26.5560  -33.1230   21.9110 O   0  0  0  0  0  0  0  0  0  0  0  0
  -25.7710  -31.0470   24.1390 H   0  0  0  0  0  0  0  0  0  0  0  0
  -24.5410  -34.2470   23.9930 C   0  0  0  0  0  1  0  0  0  0  0  0
  -25.9290  -33.6150   24.1780 C   0  0  0  0  0  3  0  0  0  0  0  0
  -28.2400  -34.1740   24.7880 C   0  0  0  0  0  1  0  0  0  0  0  0
  -26.9460  -34.6780   24.3380 N   0  0  0  0  0  0  0  0  0  0  0  0
  -26.6290  -35.3770   25.0030 H   0  0  0  0  0  0  0  0  0  0  0  0
  -27.2120  -29.1610   22.6990 C   0  0  1  0  0  0  0  0  0  0  0  0
  -26.6080  -28.2840   23.8200 C   0  0  0  0  0  1  0  0  0  0  0  0
  -27.5970  -28.2300   21.5250 C   0  0  0  0  0  1  0  0  0  0  0  0
  -28.5320  -29.7760   23.2240 C   0  0  0  0  0  1  0  0  0  0  0  0
  -28.4710  -20.3050   21.0120 C   0  0  0  0  0  0  0  0  0  0  0  0
  -27.6530  -19.8130   20.0720 N   0  0  0  0  0  0  0  0  0  0  0  0
  -29.1940  -19.5670   21.6810 O   0  0  0  0  0  0  0  0  0  0  0  0
  -27.0740  -20.4660   19.5590 H   0  0  0  0  0  0  0  0  0  0  0  0
  -27.5040  -18.3940   19.7360 C   0  0  0  0  0  2  0  0  0  0  0  0
  -28.8100  -17.7450   19.2130 C   0  0  0  0  0  2  0  0  0  0  0  0
  -29.7660  -17.4850   20.3080 N   0  0  0  0  0  4  0  0  0  0  0  0
  -29.4970  -16.6370   20.7760 H   0  0  0  0  0  0  0  0  0  0  0  0
  -29.6580  -18.2150   21.0080 H   0  0  0  0  0  0  0  0  0  0  0  0
  -31.1830  -17.3410   19.9360 C   0  0  0  0  0  2  0  0  0  0  0  0
  -31.8340  -16.2560   20.8170 C   0  0  0  0  0  2  0  0  0  0  0  0
  -31.3520  -14.0950   19.7090 C   0  0  0  0  0  0  0  0  0  0  0  0
  -30.8350  -11.8680   18.8150 C   0  0  0  0  0  2  0  0  0  0  0  0
  -29.8140  -11.9200   17.6650 C   0  0  0  0  0  2  0  0  0  0  0  0
  -28.3790  -11.8790   18.2160 C   0  0  0  0  0  2  0  0  0  0  0  0
  -28.1440  -12.9220   19.3370 C   0  0  0  0  0  3  0  0  0  0  0  0
  -29.2660  -12.8570   20.4010 C   0  0  0  0  0  2  0  0  0  0  0  0
  -30.5760  -12.9870   19.7320 N   0  0  0  0  0  0  0  0  0  0  0  0
  -32.2460  -14.2910   18.8840 O   0  0  0  0  0  0  0  0  0  0  0  0
  -31.1300  -14.9740   20.6940 N   0  0  0  0  0  0  0  0  0  0  0  0
  -30.4790  -14.7040   21.4200 H   0  0  0  0  0  0  0  0  0  0  0  0
  -25.8930  -13.7310   20.3020 C   0  0  0  0  0  0  0  0  0  0  0  0
  -24.7930  -13.0510   20.7530 C   0  0  0  0  0  0  0  0  0  0  0  0
  -25.1080  -11.6650   20.6210 C   0  0  0  0  0  0  0  0  0  0  0  0
  -26.8180  -12.7640   19.9370 N   0  0  0  0  0  0  0  0  0  0  0  0
  -26.3500  -11.5130   20.1830 N   0  0  0  0  0  0  0  0  0  0  0  0
  -24.2790  -10.4720   20.8360 C   0  0  0  0  0  0  0  0  0  0  0  0
  -24.6530   -9.4670   21.7550 C   0  0  0  0  0  3  0  0  0  0  0  0
  -23.8280   -8.3390   21.9570 C   0  0  0  0  0  3  0  0  0  0  0  0
  -22.6170   -8.2080   21.2380 C   0  0  0  0  0  0  0  0  0  0  0  0
  -22.2610   -9.2000   20.3070 C   0  0  0  0  0  3  0  0  0  0  0  0
  -23.0840  -10.3190   20.1030 C   0  0  0  0  0  3  0  0  0  0  0  0
  -21.7670   -7.1340   21.3500 O   0  0  0  0  0  0  0  0  0  0  0  0
  -21.6340   -6.4420   22.5260 C   0  0  0  0  0  0  0  0  0  0  0  0
  -21.2040   -7.0690   23.7160 C   0  0  0  0  0  3  0  0  0  0  0  0
  -21.0140   -6.3060   24.8850 C   0  0  0  0  0  3  0  0  0  0  0  0
  -21.2440   -4.9170   24.8670 C   0  0  0  0  0  0  0  0  0  0  0  0
  -21.6670   -4.2890   23.6810 C   0  0  0  0  0  3  0  0  0  0  0  0
  -21.8590   -5.0510   22.5140 C   0  0  0  0  0  0  0  0  0  0  0  0
  -22.2460   -4.4370   21.3700 F   0  0  0  0  0  0  0  0  0  0  0  0
  -21.0540   -4.1820   25.9870 F   0  0  0  0  0  0  0  0  0  0  0  0
  -23.4860  -13.6510   21.1840 C   0  0  0  0  0  0  0  0  0  0  0  0
  -22.7870  -12.9960   22.1070 N   0  0  0  0  0  0  0  0  0  0  0  0
  -23.0990  -14.7310   20.7430 O   0  0  0  0  0  0  0  0  0  0  0  0
  -23.1130  -12.1200   22.4860 H   0  0  0  0  0  0  0  0  0  0  0  0
  -21.9110  -13.3780   22.4370 H   0  0  0  0  0  0  0  0  0  0  0  0
  -26.1740  -15.0840   20.1480 N   0  0  0  0  0  0  0  0  0  0  0  0
  -25.4650  -15.7910   20.3100 H   0  0  0  0  0  0  0  0  0  0  0  0
  -26.9650  -15.4210   19.6200 H   0  0  0  0  0  0  0  0  0  0  0  0
  1  2  2  0
  2  3  1  0
  3  5  2  0
  4  3  1  0
  6  4  1  0
  7  4  1  0
  8  7  1  0
  9  8  1  0
 10  9  1  0
 11 10  1  0
 12 14  1  0
 12 11  1  0
 13 24  2  0
 14 19  1  0
 15 23  1  0
 15 25  1  0
 16 18  1  0
 16 22  1  0
 17 23  1  0
 18 17  1  0
 19 18  2  0
 20 14  2  0
 20 21  1  0
 21 16  2  0
 22 15  1  0
 23 13  1  0
 25 26  1  0
 25 27  2  0
 28 26  1  0
 29 38  2  0
 29 34  1  0
 30 26  1  0
 30 34  1  0
 31 30  1  0
 32 33  1  0
 32 31  1  0
 33 29  1  0
 34 35  2  0
 35 36  1  0
 37 36  2  0
 38 37  1  0
 39 13  1  0
 39 49  1  0
 39 40  1  0
 40 43  1  0
 41 40  1  0
 41 45  1  0
 42 41  2  0
 45 44  1  0
 45 47  1  0
 47 46  1  0
 47 48  1  0
 49 52  1  1
 49 50  1  0
 51 49  1  0
 53  1  1  0
 53 55  2  0
 54 53  1  0
 56 54  1  0
 57 54  1  0
 58 57  1  0
 58 59  1  0
 59 60  1  0
 59 61  1  0
 62 59  1  0
 62 63  1  0
 64 70  1  0
 64 72  1  0
 65 70  1  0
 66 67  1  0
 66 65  1  0
 68 67  1  0
 68 77  1  0
 68 69  1  0
 70 69  1  0
 71 64  2  0
 72 63  1  0
 72 73  1  0
 74 75  2  0
 75 94  1  0
 76 75  1  0
 76 79  1  0
 77 78  1  0
 77 74  1  0
 78 76  2  0
 79 80  1  0
 80 81  2  0
 82 85  1  0
 82 81  1  0
 83 82  2  0
 84 83  1  0
 84 79  2  0
 85 86  1  0
 86 87  1  0
 87 88  2  0
 89 88  1  0
 89 93  1  0
 90 89  2  0
 91 86  2  0
 91 90  1  0
 92 91  1  0
 94 95  1  0
 95 98  1  0
 95 97  1  0
 96 94  2  0
 99 74  1  0
 99100  1  0
101 99  1  0
M  ISO  4  11 101  12 101  64 100  72 100
M  END
>  <TORSDO>  (50) 
F 28

>  <SCORE>  (50) 
-7.634

>  <name>  (50) 
54

>  <ligand_id>  (50) 
54

>  <original_smiles>  (50) 
[H]C(C(=O)N([H])C([H])([H])C([H])([H])OC([H])([H])C([H])([H])Oc1c([H])c([H])c2c(c1[H])C([H])([H])N(C(=O)C([H])(N([H])C(=O)C([H])(N([H])C([H])([H])[H])C([H])([H])[H])C(C([H])([H])[H])(C([H])([H])[H])C([H])([H])[H])C([H])(C(=O)N([H])C1([H])c3c([H])c([H])c([H])c([H])c3C([H])([H])C([H])([H])C1([H])[H])C2([H])[H])=C([H])C(=O)N([H])C([H])([H])C([H])([H])[N+]([H])([H])C([H])([H])C([H])([H])N([H])C(=O)N1C([H])([H])C([H])([H])C([H])([H])C([H])(n2nc(-c3c([H])c([H])c(Oc4c([H])c([H])c(F)c([H])c4F)c([H])c3[H])c(C(=O)N([H])[H])c2N([H])[H])C1([H])[H]

>  <smiles>  (50) 
[H]C(C(=O)N([H])C([H])([H])C([H])([H])OC([H])([H])C([H])([H])Oc1c([H])c([H])c2c(c1[H])C([H])([H])N(C(=O)C([H])(N([H])C(=O)C([H])(N([H])C([H])([H])[H])C([H])([H])[H])C(C([H])([H])[H])(C([H])([H])[H])C([H])([H])[H])C([H])(C(=O)N([H])C1([H])c3c([H])c([H])c([H])c([H])c3C([H])([H])C([H])([H])C1([H])[H])C2([H])[H])=C([H])C(=O)N([H])C([H])([H])C([H])([H])[N+]([H])([H])C([H])([H])C([H])([H])N([H])C(=O)N1C([H])([H])C([H])([H])C([H])([H])C([H])(n2nc(-c3c([H])c([H])c(Oc4c([H])c([H])c(F)c([H])c4F)c([H])c3[H])c(C(=O)N([H])[H])c2N([H])[H])C1([H])[H]

$$$$
55:0:0
     RDKit          3D

 96103  0  0  1  0  0  0  0  0999 V2000
  -32.2660  -21.6050   19.0600 C   0  0  0  0  0  2  0  0  0  0  0  0
  -31.2770  -22.5830   19.5120 N   0  0  0  0  0  0  0  0  0  0  0  0
  -30.4140  -22.4510   18.9810 H   0  0  0  0  0  0  0  0  0  0  0  0
  -31.7060  -23.9750   19.3670 C   0  0  0  0  0  2  0  0  0  0  0  0
  -30.8280  -24.9270   20.1990 C   0  0  0  0  0  2  0  0  0  0  0  0
  -30.6770  -26.3220   19.5560 C   0  0  0  0  0  2  0  0  0  0  0  0
  -29.7030  -27.2510   20.2980 C   0  0  0  0  0  2  0  0  0  0  0  0
  -28.4210  -26.6530   20.1730 O   0  0  0  0  0  0  0  0  0  0  0  0
  -24.6130  -31.8820   23.2420 C   0  0  0  0  0  0  0  0  0  0  0  0
  -27.2970  -27.4410   20.2260 C   0  0  0  0  0  0  0  0  0  0  0  0
  -23.4150  -30.4620   21.6010 C   0  0  0  0  0  3  0  0  0  0  0  0
  -24.8860  -28.9090   20.2120 C   0  0  0  0  0  0  0  0  0  0  0  0
  -25.9380  -30.8300   21.4220 C   0  0  0  0  0  2  0  0  0  0  0  0
  -26.0350  -29.4520   20.8030 C   0  0  0  0  0  0  0  0  0  0  0  0
  -27.2440  -28.7280   20.8150 C   0  0  0  0  0  3  0  0  0  0  0  0
  -26.1330  -26.9010   19.6450 C   0  0  0  0  0  3  0  0  0  0  0  0
  -24.9270  -27.6270   19.6330 C   0  0  0  0  0  3  0  0  0  0  0  0
  -23.6370  -29.7600   20.2330 C   0  0  0  0  0  2  0  0  0  0  0  0
  -24.6710  -31.0740   22.1450 N   0  0  0  0  0  0  0  0  0  0  0  0
  -23.5290  -32.1590   23.7720 O   0  0  0  0  0  0  0  0  0  0  0  0
  -22.7590  -29.4540   22.5710 C   0  0  0  0  0  0  0  0  0  0  0  0
  -21.4340  -29.2720   22.4400 N   0  0  0  0  0  0  0  0  0  0  0  0
  -23.4370  -28.8390   23.3980 O   0  0  0  0  0  0  0  0  0  0  0  0
  -20.9470  -29.8160   21.7420 H   0  0  0  0  0  0  0  0  0  0  0  0
  -18.0560  -28.0960   22.9360 C   0  0  0  0  0  0  0  0  0  0  0  0
  -20.6140  -28.3460   23.2190 C   0  0  0  0  0  3  0  0  0  0  0  0
  -20.7140  -26.9110   22.6560 C   0  0  0  0  0  2  0  0  0  0  0  0
  -19.6150  -26.5840   21.6400 C   0  0  0  0  0  2  0  0  0  0  0  0
  -18.2290  -26.7410   22.2730 C   0  0  0  0  0  2  0  0  0  0  0  0
  -19.1760  -28.8560   23.3650 C   0  0  0  0  0  0  0  0  0  0  0  0
  -18.9620  -30.1250   23.9440 C   0  0  0  0  0  3  0  0  0  0  0  0
  -17.6580  -30.6370   24.0990 C   0  0  0  0  0  3  0  0  0  0  0  0
  -16.5520  -29.8730   23.6880 C   0  0  0  0  0  3  0  0  0  0  0  0
  -16.7510  -28.6060   23.1110 C   0  0  0  0  0  3  0  0  0  0  0  0
  -25.8960  -32.5170   23.8630 C   0  0  0  0  0  3  0  0  0  0  0  0
  -26.4200  -31.7510   25.1410 C   0  0  1  0  0  0  0  0  0  0  0  0
  -25.3300  -31.5180   26.2110 C   0  0  0  0  0  1  0  0  0  0  0  0
  -27.0090  -30.3720   24.7560 C   0  0  0  0  0  1  0  0  0  0  0  0
  -27.5690  -32.5520   25.7980 C   0  0  0  0  0  1  0  0  0  0  0  0
  -25.5820  -33.9160   24.1890 N   0  0  0  0  0  0  0  0  0  0  0  0
  -25.9120  -34.9650   23.4260 C   0  0  0  0  0  0  0  0  0  0  0  0
  -26.5870  -34.8630   22.3970 O   0  0  0  0  0  0  0  0  0  0  0  0
  -24.9850  -34.0730   24.9870 H   0  0  0  0  0  0  0  0  0  0  0  0
  -24.1780  -36.7520   23.0600 C   0  0  0  0  0  1  0  0  0  0  0  0
  -25.4170  -36.3520   23.8780 C   0  0  0  0  0  3  0  0  0  0  0  0
  -27.5470  -37.2410   24.7140 C   0  0  0  0  0  1  0  0  0  0  0  0
  -26.4440  -37.4090   23.7720 N   0  0  0  0  0  0  0  0  0  0  0  0
  -26.0310  -38.3240   23.9260 H   0  0  0  0  0  0  0  0  0  0  0  0
  -31.5890  -20.2570   18.7500 C   0  0  0  0  0  2  0  0  0  0  0  0
  -32.5270  -19.2340   18.2670 N   0  0  0  0  0  0  0  0  0  0  0  0
  -33.1460  -19.6640   17.5750 H   0  0  0  0  0  0  0  0  0  0  0  0
  -33.3390  -18.6510   19.3420 C   0  0  0  0  0  2  0  0  0  0  0  0
  -34.0250  -17.3380   18.9210 C   0  0  0  0  0  2  0  0  0  0  0  0
  -33.0160  -16.3040   18.6090 N   0  0  0  0  0  4  0  0  0  0  0  0
  -32.2510  -16.3370   19.2770 H   0  0  0  0  0  0  0  0  0  0  0  0
  -32.6260  -16.5510   17.7130 H   0  0  0  0  0  0  0  0  0  0  0  0
  -33.4980  -14.9040   18.5800 C   0  0  0  0  0  2  0  0  0  0  0  0
  -33.5360  -14.2260   19.9870 C   0  0  0  0  0  2  0  0  0  0  0  0
  -31.0660  -14.0310   20.3020 C   0  0  0  0  0  0  0  0  0  0  0  0
  -30.2170  -12.1640   19.1010 C   0  0  0  0  0  2  0  0  0  0  0  0
  -29.2520  -12.5820   17.9870 C   0  0  0  0  0  2  0  0  0  0  0  0
  -27.8220  -12.4540   18.5030 C   0  0  0  0  0  2  0  0  0  0  0  0
  -27.5870  -13.2840   19.7860 C   0  0  0  0  0  3  0  0  0  0  0  0
  -28.7310  -13.0940   20.8340 C   0  0  0  0  0  2  0  0  0  0  0  0
  -30.0880  -13.0980   20.2250 N   0  0  0  0  0  0  0  0  0  0  0  0
  -30.9820  -15.2170   20.0830 O   0  0  0  0  0  0  0  0  0  0  0  0
  -32.3010  -13.5200   20.3840 N   0  0  0  0  0  0  0  0  0  0  0  0
  -32.3630  -12.5230   20.5320 H   0  0  0  0  0  0  0  0  0  0  0  0
  -25.1890  -13.8820   20.5600 C   0  0  0  0  0  0  0  0  0  0  0  0
  -24.1220  -13.1110   20.9360 C   0  0  0  0  0  0  0  0  0  0  0  0
  -24.5760  -11.7560   20.8890 C   0  0  0  0  0  0  0  0  0  0  0  0
  -26.2400  -13.0080   20.3160 N   0  0  0  0  0  0  0  0  0  0  0  0
  -25.8670  -11.7220   20.5680 N   0  0  0  0  0  0  0  0  0  0  0  0
  -23.8410  -10.4940   21.0790 C   0  0  0  0  0  0  0  0  0  0  0  0
  -24.2930   -9.5070   21.9820 C   0  0  0  0  0  3  0  0  0  0  0  0
  -23.5630   -8.3140   22.1700 C   0  0  0  0  0  3  0  0  0  0  0  0
  -22.3630   -8.0960   21.4530 C   0  0  0  0  0  0  0  0  0  0  0  0
  -21.9230   -9.0700   20.5400 C   0  0  0  0  0  3  0  0  0  0  0  0
  -22.6550  -10.2560   20.3490 C   0  0  0  0  0  3  0  0  0  0  0  0
  -21.6050   -6.9520   21.5510 O   0  0  0  0  0  0  0  0  0  0  0  0
  -21.6060   -6.1820   22.6850 C   0  0  0  0  0  0  0  0  0  0  0  0
  -21.2650   -6.7100   23.9490 C   0  0  0  0  0  3  0  0  0  0  0  0
  -21.2100   -5.8650   25.0750 C   0  0  0  0  0  3  0  0  0  0  0  0
  -21.4900   -4.4930   24.9410 C   0  0  0  0  0  0  0  0  0  0  0  0
  -21.8250   -3.9620   23.6830 C   0  0  0  0  0  3  0  0  0  0  0  0
  -21.8800   -4.8030   22.5580 C   0  0  0  0  0  0  0  0  0  0  0  0
  -22.1830   -4.2830   21.3450 F   0  0  0  0  0  0  0  0  0  0  0  0
  -21.4310   -3.6780   26.0210 F   0  0  0  0  0  0  0  0  0  0  0  0
  -22.7300  -13.5880   21.2390 C   0  0  0  0  0  0  0  0  0  0  0  0
  -22.0170  -12.8860   22.1140 N   0  0  0  0  0  0  0  0  0  0  0  0
  -22.2830  -14.6190   20.7360 O   0  0  0  0  0  0  0  0  0  0  0  0
  -22.3910  -12.0470   22.5330 H   0  0  0  0  0  0  0  0  0  0  0  0
  -21.0900  -13.1940   22.3700 H   0  0  0  0  0  0  0  0  0  0  0  0
  -25.3540  -15.2540   20.3840 N   0  0  0  0  0  0  0  0  0  0  0  0
  -24.5930  -15.9150   20.4940 H   0  0  0  0  0  0  0  0  0  0  0  0
  -26.2160  -15.6850   20.0740 H   0  0  0  0  0  0  0  0  0  0  0  0
  1  2  1  0
  3  2  1  0
  4  2  1  0
  4  5  1  0
  6  5  1  0
  6  7  1  0
  8 10  1  0
  8  7  1  0
  9 20  2  0
 10 15  1  0
 11 19  1  0
 11 21  1  0
 12 18  1  0
 12 14  1  0
 13 19  1  0
 14 15  2  0
 14 13  1  0
 16 10  2  0
 17 16  1  0
 17 12  2  0
 18 11  1  0
 19  9  1  0
 21 23  2  0
 22 21  1  0
 24 22  1  0
 25 34  2  0
 25 30  1  0
 26 22  1  0
 26 30  1  0
 27 26  1  0
 28 29  1  0
 28 27  1  0
 29 25  1  0
 30 31  2  0
 31 32  1  0
 33 32  2  0
 34 33  1  0
 35  9  1  0
 35 40  1  0
 35 36  1  0
 36 39  1  1
 36 37  1  0
 38 36  1  0
 40 43  1  0
 41 45  1  0
 41 40  1  0
 42 41  2  0
 45 44  1  0
 47 45  1  0
 47 48  1  0
 47 46  1  0
 49  1  1  0
 50 49  1  0
 50 52  1  0
 51 50  1  0
 53 52  1  0
 54 53  1  0
 54 55  1  0
 56 54  1  0
 57 54  1  0
 57 58  1  0
 58 67  1  0
 59 67  1  0
 60 65  1  0
 61 62  1  0
 61 60  1  0
 63 62  1  0
 63 72  1  0
 63 64  1  0
 65 59  1  0
 65 64  1  0
 66 59  2  0
 67 68  1  0
 69 70  2  0
 70 89  1  0
 71 70  1  0
 71 74  1  0
 72 69  1  0
 72 73  1  0
 73 71  2  0
 74 75  1  0
 75 76  2  0
 77 80  1  0
 77 76  1  0
 78 77  2  0
 79 78  1  0
 79 74  2  0
 80 81  1  0
 81 82  1  0
 82 83  2  0
 84 83  1  0
 84 88  1  0
 85 84  2  0
 86 81  2  0
 86 85  1  0
 87 86  1  0
 89 90  1  0
 90 93  1  0
 90 92  1  0
 91 89  2  0
 94 95  1  0
 94 69  1  0
 96 94  1  0
M  ISO  4   7 101   8 101  59 100  67 100
M  END
>  <TORSDO>  (51) 
F 28

>  <SCORE>  (51) 
-11.132

>  <name>  (51) 
55

>  <ligand_id>  (51) 
55

>  <original_smiles>  (51) 
[H]c1c([H])c([H])c2c(c1[H])C([H])([H])C([H])([H])C([H])([H])C2([H])N([H])C(=O)C1([H])N(C(=O)C([H])(N([H])C(=O)C([H])(N([H])C([H])([H])[H])C([H])([H])[H])C(C([H])([H])[H])(C([H])([H])[H])C([H])([H])[H])C([H])([H])c2c([H])c(OC([H])([H])C([H])([H])C([H])([H])C([H])([H])N([H])C([H])([H])C([H])([H])N([H])C([H])([H])C([H])([H])[N+]([H])([H])C([H])([H])C([H])([H])N([H])C(=O)N3C([H])([H])C([H])([H])C([H])([H])C([H])(n4nc(-c5c([H])c([H])c(Oc6c([H])c([H])c(F)c([H])c6F)c([H])c5[H])c(C(=O)N([H])[H])c4N([H])[H])C3([H])[H])c([H])c([H])c2C1([H])[H]

>  <smiles>  (51) 
[H]c1c([H])c([H])c2c(c1[H])C([H])([H])C([H])([H])C([H])([H])C2([H])N([H])C(=O)C1([H])N(C(=O)C([H])(N([H])C(=O)C([H])(N([H])C([H])([H])[H])C([H])([H])[H])C(C([H])([H])[H])(C([H])([H])[H])C([H])([H])[H])C([H])([H])c2c([H])c(OC([H])([H])C([H])([H])C([H])([H])C([H])([H])N([H])C([H])([H])C([H])([H])N([H])C([H])([H])C([H])([H])[N+]([H])([H])C([H])([H])C([H])([H])N([H])C(=O)N3C([H])([H])C([H])([H])C([H])([H])C([H])(n4nc(-c5c([H])c([H])c(Oc6c([H])c([H])c(F)c([H])c6F)c([H])c5[H])c(C(=O)N([H])[H])c4N([H])[H])C3([H])[H])c([H])c([H])c2C1([H])[H]

$$$$
56:0:0
     RDKit          3D

103109  0  0  1  0  0  0  0  0999 V2000
  -23.9730  -18.0420   22.6540 C   0  0  0  0  0  2  0  0  0  0  0  0
  -24.2810  -16.5630   22.6280 N   0  0  0  0  0  4  0  0  0  0  0  0
  -24.6380  -16.3270   21.7140 H   0  0  0  0  0  0  0  0  0  0  0  0
  -23.4060  -16.0740   22.7420 H   0  0  0  0  0  0  0  0  0  0  0  0
  -25.2660  -16.0720   23.6690 C   0  0  0  0  0  2  0  0  0  0  0  0
  -25.1360  -14.5740   24.1630 C   0  0  0  0  0  2  0  0  0  0  0  0
  -26.3640  -13.7860   24.1100 O   0  0  0  0  0  0  0  0  0  0  0  0
  -26.4330  -12.5950   24.9490 C   0  0  0  0  0  2  0  0  0  0  0  0
  -27.8680  -12.0170   25.3060 C   0  0  0  0  0  2  0  0  0  0  0  0
  -28.5750  -11.2370   24.1530 C   0  0  0  0  0  2  0  0  0  0  0  0
  -29.4270   -9.9380   24.2830 C   0  0  0  0  0  1  0  0  0  0  0  0
  -31.6600   -8.5890   22.3020 C   0  0  0  0  0  1  0  0  0  0  0  0
  -33.4850   -8.8370   22.3480 C   0  0  0  0  0  3  0  0  0  0  0  0
  -34.7770   -9.3470   21.2360 C   0  0  0  0  0  3  0  0  0  0  0  0
  -37.8850  -10.1330   20.6200 C   0  0  2  0  0  0  0  0  0  0  0  0
  -38.0020   -8.5400   20.5470 C   0  0  0  0  0  2  0  0  0  0  0  0
  -37.0250   -8.6080   19.0280 C   0  0  0  0  0  3  0  0  0  0  0  0
  -36.1920  -10.0580   18.6430 C   0  0  0  0  0  3  0  0  0  0  0  0
  -36.4140  -11.5570   19.4590 C   0  0  0  0  0  3  0  0  0  0  0  0
  -37.4190  -11.6480   20.9550 C   0  0  0  0  0  2  0  0  0  0  0  0
  -38.0200  -10.0570   21.5630 N   0  0  0  0  0  2  0  0  0  0  0  0
  -39.2420  -10.3940   20.4300 O   0  0  0  0  0  1  0  0  0  0  0  0
  -36.3820   -9.7640   21.4520 N   0  0  0  0  0  0  0  0  0  0  0  0
  -36.6050   -9.7500   22.4340 H   0  0  0  0  0  0  0  0  0  0  0  0
  -35.0670  -13.6230   19.8060 C   0  0  0  0  0  0  0  0  0  0  0  0
  -33.7460  -13.8560   19.8960 C   0  0  0  0  0  0  0  0  0  0  0  0
  -33.1240  -12.6010   19.9260 C   0  0  0  0  0  0  0  0  0  0  0  0
  -35.1970  -12.2830   19.6480 N   0  0  0  0  0  0  0  0  0  0  0  0
  -34.0180  -11.6700   19.7650 N   0  0  0  0  0  0  0  0  0  0  0  0
  -31.7590  -12.2490   19.9110 C   0  0  0  0  0  0  0  0  0  0  0  0
  -31.1220  -10.8070   20.5670 C   0  0  0  0  0  3  0  0  0  0  0  0
  -29.6020  -10.2790   20.0270 C   0  0  0  0  0  3  0  0  0  0  0  0
  -28.7470  -11.2220   18.9430 C   0  0  0  0  0  0  0  0  0  0  0  0
  -29.4050  -12.5950   18.3240 C   0  0  0  0  0  3  0  0  0  0  0  0
  -30.8730  -13.1290   18.8150 C   0  0  0  0  0  3  0  0  0  0  0  0
  -27.3690  -11.2830   18.9420 O   0  0  0  0  0  0  0  0  0  0  0  0
  -26.6230  -10.8170   19.9940 C   0  0  0  0  0  0  0  0  0  0  0  0
  -26.5200  -11.4410   21.2620 C   0  0  0  0  0  3  0  0  0  0  0  0
  -25.7330  -10.8500   22.2750 C   0  0  0  0  0  3  0  0  0  0  0  0
  -25.0200   -9.6650   22.0060 C   0  0  0  0  0  0  0  0  0  0  0  0
  -25.0750   -9.0860   20.7290 C   0  0  0  0  0  3  0  0  0  0  0  0
  -25.8670   -9.6680   19.7280 C   0  0  0  0  0  0  0  0  0  0  0  0
  -25.9070   -9.1330   18.4860 F   0  0  0  0  0  0  0  0  0  0  0  0
  -24.2690   -9.0830   22.9700 F   0  0  0  0  0  0  0  0  0  0  0  0
  -33.1320  -15.1800   19.9850 C   0  0  0  0  0  0  0  0  0  0  0  0
  -32.2930  -15.2860   20.9510 N   0  0  0  0  0  0  0  0  0  0  0  0
  -33.5400  -16.1690   19.4020 O   0  0  0  0  0  0  0  0  0  0  0  0
  -32.0710  -14.4710   21.5000 H   0  0  0  0  0  0  0  0  0  0  0  0
  -31.7780  -16.1280   21.1540 H   0  0  0  0  0  0  0  0  0  0  0  0
  -36.1720  -14.4480   19.8560 N   0  0  0  0  0  0  0  0  0  0  0  0
  -36.1030  -15.4560   19.7930 H   0  0  0  0  0  0  0  0  0  0  0  0
  -37.1190  -14.1150   19.7210 H   0  0  0  0  0  0  0  0  0  0  0  0
  -23.7410  -18.7490   21.2540 C   0  0  0  0  0  2  0  0  0  0  0  0
  -23.4470  -20.2070   21.3350 N   0  0  0  0  0  0  0  0  0  0  0  0
  -22.4830  -20.3490   21.6280 H   0  0  0  0  0  0  0  0  0  0  0  0
  -23.7270  -21.0190   20.0940 C   0  0  0  0  0  2  0  0  0  0  0  0
  -24.0920  -22.5250   20.3360 C   0  0  0  0  0  0  0  0  0  0  0  0
  -24.9420  -23.1690   19.4930 N   0  0  0  0  0  0  0  0  0  0  0  0
  -23.5830  -23.1060   21.2980 O   0  0  0  0  0  0  0  0  0  0  0  0
  -25.3250  -22.6340   18.7270 H   0  0  0  0  0  0  0  0  0  0  0  0
  -25.3910  -24.5910   19.6060 C   0  0  0  0  0  3  0  0  0  0  0  0
  -26.2510  -25.1410   18.3950 C   0  0  0  0  0  3  0  0  0  0  0  0
  -26.7560  -26.5200   18.4510 O   0  0  0  0  0  0  0  0  0  0  0  0
  -25.0120  -31.3350   23.3760 C   0  0  0  0  0  0  0  0  0  0  0  0
  -25.8590  -27.5090   18.8070 C   0  0  0  0  0  0  0  0  0  0  0  0
  -23.1980  -30.5660   21.8900 C   0  0  0  0  0  3  0  0  0  0  0  0
  -23.9260  -29.3200   19.7910 C   0  0  0  0  0  0  0  0  0  0  0  0
  -25.6180  -30.6520   21.0490 C   0  0  0  0  0  2  0  0  0  0  0  0
  -25.2750  -29.4990   20.1230 C   0  0  0  0  0  0  0  0  0  0  0  0
  -26.2530  -28.6040   19.6200 C   0  0  0  0  0  3  0  0  0  0  0  0
  -24.5040  -27.4030   18.4250 C   0  0  0  0  0  3  0  0  0  0  0  0
  -23.5400  -28.2870   18.9260 C   0  0  0  0  0  3  0  0  0  0  0  0
  -22.9250  -30.2760   20.3920 C   0  0  0  0  0  2  0  0  0  0  0  0
  -24.6460  -30.8480   22.1570 N   0  0  0  0  0  0  0  0  0  0  0  0
  -24.1670  -31.5780   24.2500 O   0  0  0  0  0  0  0  0  0  0  0  0
  -22.6360  -29.4010   22.7400 C   0  0  0  0  0  0  0  0  0  0  0  0
  -21.3150  -29.1730   22.6470 N   0  0  0  0  0  0  0  0  0  0  0  0
  -23.3810  -28.7160   23.4460 O   0  0  0  0  0  0  0  0  0  0  0  0
  -20.7730  -29.7850   22.0540 H   0  0  0  0  0  0  0  0  0  0  0  0
  -18.1030  -27.5240   22.8470 C   0  0  0  0  0  0  0  0  0  0  0  0
  -20.5720  -28.1130   23.3310 C   0  0  0  0  0  3  0  0  0  0  0  0
  -20.9120  -26.7250   22.7420 C   0  0  0  0  0  2  0  0  0  0  0  0
  -19.9480  -26.2860   21.6350 C   0  0  0  0  0  2  0  0  0  0  0  0
  -18.5130  -26.2290   22.1670 C   0  0  0  0  0  2  0  0  0  0  0  0
  -19.0710  -28.4160   23.3810 C   0  0  0  0  0  0  0  0  0  0  0  0
  -18.6380  -29.6210   23.9760 C   0  0  0  0  0  3  0  0  0  0  0  0
  -17.2680  -29.9390   24.0450 C   0  0  0  0  0  3  0  0  0  0  0  0
  -16.3130  -29.0470   23.5270 C   0  0  0  0  0  3  0  0  0  0  0  0
  -16.7310  -27.8410   22.9350 C   0  0  0  0  0  3  0  0  0  0  0  0
  -26.5030  -31.6340   23.7230 C   0  0  0  0  0  3  0  0  0  0  0  0
  -26.5880  -33.0450   24.1260 N   0  0  0  0  0  0  0  0  0  0  0  0
  -27.0170  -34.0370   23.3350 C   0  0  0  0  0  0  0  0  0  0  0  0
  -27.4550  -33.8440   22.1980 O   0  0  0  0  0  0  0  0  0  0  0  0
  -26.1940  -33.2840   25.0240 H   0  0  0  0  0  0  0  0  0  0  0  0
  -25.7220  -36.1950   23.3200 C   0  0  0  0  0  1  0  0  0  0  0  0
  -26.9510  -35.4710   23.8950 C   0  0  0  0  0  3  0  0  0  0  0  0
  -29.3370  -35.8090   24.3680 C   0  0  0  0  0  1  0  0  0  0  0  0
  -28.1670  -36.2650   23.6200 N   0  0  0  0  0  0  0  0  0  0  0  0
  -28.0150  -37.2450   23.8400 H   0  0  0  0  0  0  0  0  0  0  0  0
  -27.0800  -30.6950   24.8530 C   0  0  1  0  0  0  0  0  0  0  0  0
  -26.1940  -30.6260   26.1190 C   0  0  0  0  0  1  0  0  0  0  0  0
  -27.2600  -29.2520   24.3250 C   0  0  0  0  0  1  0  0  0  0  0  0
  -28.4840  -31.1880   25.2770 C   0  0  0  0  0  1  0  0  0  0  0  0
  2  1  1  0
  2  4  1  0
  2  5  1  0
  3  2  1  0
  5  6  1  0
  7  6  1  0
  7  8  1  0
  8  9  1  0
 10 11  1  0
 10  9  1  0
 12 13  1  0
 14 23  1  0
 14 13  2  0
 15 22  1  6
 15 20  1  0
 15 21  1  0
 16 15  1  0
 17 16  1  0
 18 17  2  0
 19 18  1  0
 19 28  1  0
 19 20  1  0
 23 21  1  0
 23 24  1  0
 25 50  1  0
 25 26  2  0
 26 27  1  0
 26 45  1  0
 28 29  1  0
 28 25  1  0
 29 27  2  0
 30 27  1  0
 30 31  1  0
 32 31  2  0
 33 32  1  0
 34 35  1  0
 34 33  2  0
 35 30  2  0
 36 33  1  0
 36 37  1  0
 37 38  1  0
 38 39  2  0
 40 39  1  0
 40 44  1  0
 41 40  2  0
 42 37  2  0
 42 41  1  0
 43 42  1  0
 45 46  1  0
 46 49  1  0
 46 48  1  0
 47 45  2  0
 51 50  1  0
 52 50  1  0
 53 54  1  0
 53  1  1  0
 54 55  1  0
 56 57  1  0
 56 54  1  0
 57 59  2  0
 58 61  1  0
 58 57  1  0
 60 58  1  0
 62 63  1  0
 62 61  2  0
 63 65  1  0
 64 75  2  0
 65 70  1  0
 66 74  1  0
 66 76  1  0
 67 69  1  0
 67 73  1  0
 68 74  1  0
 69 68  1  0
 70 69  2  0
 71 65  2  0
 71 72  1  0
 72 67  2  0
 73 66  1  0
 74 64  1  0
 76 78  2  0
 77 76  1  0
 79 77  1  0
 80 89  2  0
 80 85  1  0
 81 77  1  0
 81 85  1  0
 82 81  1  0
 83 84  1  0
 83 82  1  0
 84 80  1  0
 85 86  2  0
 86 87  1  0
 88 87  2  0
 89 88  1  0
 90 64  1  0
 90 91  1  0
 90100  1  0
 91 94  1  0
 92 96  1  0
 92 91  1  0
 93 92  2  0
 96 95  1  0
 98 99  1  0
 98 96  1  0
 98 97  1  0
100103  1  1
100101  1  0
102100  1  0
M  ISO  4  15 100  23 100  62 101  63 101
M  END
>  <TORSDO>  (52) 
F 33

>  <SCORE>  (52) 
40.656

>  <name>  (52) 
56

>  <ligand_id>  (52) 
56

>  <original_smiles>  (52) 
[H]c1c([H])c([H])c2c(c1[H])C([H])([H])C([H])([H])C([H])([H])C2([H])N([H])C(=O)C1([H])N(C(=O)C([H])(N([H])C(=O)C([H])(N([H])C([H])([H])[H])C([H])([H])[H])C(C([H])([H])[H])(C([H])([H])[H])C([H])([H])[H])C([H])([H])c2c([H])c(OC([H])([H])C([H])([H])N([H])C(=O)C([H])([H])N([H])C([H])([H])C([H])([H])[N+]([H])([H])C([H])([H])C([H])([H])OC([H])([H])C([H])([H])C([H])([H])C([H])([H])C([H])([H])C([H])([H])C([H])([H])N([H])C(=O)N3C([H])([H])C([H])([H])C([H])([H])C([H])(n4nc(-c5c([H])c([H])c(Oc6c([H])c([H])c(F)c([H])c6F)c([H])c5[H])c(C(=O)N([H])[H])c4N([H])[H])C3([H])[H])c([H])c([H])c2C1([H])[H]

>  <smiles>  (52) 
[H]c1c([H])c([H])c2c(c1[H])C([H])([H])C([H])([H])C([H])([H])C2([H])N([H])C(=O)C1([H])N(C(=O)C([H])(N([H])C(=O)C([H])(N([H])C([H])([H])[H])C([H])([H])[H])C(C([H])([H])[H])(C([H])([H])[H])C([H])([H])[H])C([H])([H])c2c([H])c(OC([H])([H])C([H])([H])N([H])C(=O)C([H])([H])N([H])C([H])([H])C([H])([H])[N+]([H])([H])C([H])([H])C([H])([H])OC([H])([H])C([H])([H])C([H])([H])C([H])([H])C([H])([H])C([H])([H])C([H])([H])N([H])C(=O)N3C([H])([H])C([H])([H])C([H])([H])C([H])(n4nc(-c5c([H])c([H])c(Oc6c([H])c([H])c(F)c([H])c6F)c([H])c5[H])c(C(=O)N([H])[H])c4N([H])[H])C3([H])[H])c([H])c([H])c2C1([H])[H]

$$$$
57:0:0
     RDKit          3D

115122  0  0  1  0  0  0  0  0999 V2000
  -29.8140  -16.2190   11.0900 C   0  0  0  0  0  2  0  0  0  0  0  0
  -32.2380  -16.6920   10.8150 C   0  0  0  0  0  0  0  0  0  0  0  0
  -31.1030  -16.7570   11.5200 N   0  0  0  0  0  0  0  0  0  0  0  0
  -32.2910  -16.2230    9.6770 O   0  0  0  0  0  0  0  0  0  0  0  0
  -31.1570  -17.1150   12.4630 H   0  0  0  0  0  0  0  0  0  0  0  0
  -33.3600  -17.2450   11.5350 C   0  0  0  0  0  3  0  0  0  0  0  0
  -34.2500  -18.0190   10.8830 C   0  0  0  0  0  3  0  0  0  0  0  0
  -35.3790  -18.5850   11.5900 C   0  0  0  0  0  0  0  0  0  0  0  0
  -35.6890  -19.8020   11.1290 N   0  0  0  0  0  0  0  0  0  0  0  0
  -35.9940  -18.0410   12.5070 O   0  0  0  0  0  0  0  0  0  0  0  0
  -35.1700  -20.1460   10.3340 H   0  0  0  0  0  0  0  0  0  0  0  0
  -36.7600  -20.6570   11.6380 C   0  0  0  0  0  2  0  0  0  0  0  0
  -36.4910  -21.1230   13.0810 C   0  0  0  0  0  2  0  0  0  0  0  0
  -35.4200  -22.2210   13.1910 C   0  0  0  0  0  2  0  0  0  0  0  0
  -34.9830  -22.3000   14.5410 O   0  0  0  0  0  0  0  0  0  0  0  0
  -34.1500  -23.4260   14.8010 C   0  0  0  0  0  2  0  0  0  0  0  0
  -33.5760  -23.3150   16.2240 C   0  0  0  0  0  2  0  0  0  0  0  0
  -33.4730  -24.6030   16.8320 O   0  0  0  0  0  0  0  0  0  0  0  0
  -29.0410  -27.5620   21.5120 C   0  0  0  0  0  0  0  0  0  0  0  0
  -32.2250  -25.1520   17.0220 C   0  0  0  0  0  0  0  0  0  0  0  0
  -28.0600  -27.0400   19.3000 C   0  0  0  0  0  3  0  0  0  0  0  0
  -29.7210  -26.3810   17.4790 C   0  0  0  0  0  0  0  0  0  0  0  0
  -30.5550  -27.5390   19.5340 C   0  0  0  0  0  2  0  0  0  0  0  0
  -30.7870  -26.6190   18.3550 C   0  0  0  0  0  0  0  0  0  0  0  0
  -32.0390  -26.0110   18.1250 C   0  0  0  0  0  3  0  0  0  0  0  0
  -31.1430  -24.9270   16.1410 C   0  0  0  0  0  3  0  0  0  0  0  0
  -29.8920  -25.5340   16.3700 C   0  0  0  0  0  3  0  0  0  0  0  0
  -28.4160  -27.0780   17.7900 C   0  0  0  0  0  2  0  0  0  0  0  0
  -29.2310  -27.3660   20.1770 N   0  0  0  0  0  0  0  0  0  0  0  0
  -27.9070  -27.5170   22.0100 O   0  0  0  0  0  0  0  0  0  0  0  0
  -27.4200  -25.6690   19.6190 C   0  0  0  0  0  0  0  0  0  0  0  0
  -26.1500  -25.4960   19.2190 N   0  0  0  0  0  0  0  0  0  0  0  0
  -28.0680  -24.7850   20.1850 O   0  0  0  0  0  0  0  0  0  0  0  0
  -25.6860  -26.2710   18.7690 H   0  0  0  0  0  0  0  0  0  0  0  0
  -22.9220  -24.0200   18.5540 C   0  0  0  0  0  0  0  0  0  0  0  0
  -25.3580  -24.2760   19.3770 C   0  0  0  0  0  3  0  0  0  0  0  0
  -25.7250  -23.2310   18.2980 C   0  0  0  0  0  2  0  0  0  0  0  0
  -24.8320  -23.3090   17.0560 C   0  0  0  0  0  2  0  0  0  0  0  0
  -23.3640  -23.0930   17.4340 C   0  0  0  0  0  2  0  0  0  0  0  0
  -23.8590  -24.5870   19.4560 C   0  0  0  0  0  0  0  0  0  0  0  0
  -23.3990  -25.4700   20.4570 C   0  0  0  0  0  3  0  0  0  0  0  0
  -22.0310  -25.7850   20.5650 C   0  0  0  0  0  3  0  0  0  0  0  0
  -21.1060  -25.2080   19.6800 C   0  0  0  0  0  3  0  0  0  0  0  0
  -21.5500  -24.3240   18.6790 C   0  0  0  0  0  3  0  0  0  0  0  0
  -30.2300  -27.8720   22.4730 C   0  0  0  0  0  3  0  0  0  0  0  0
  -29.8720  -29.0660   23.2490 N   0  0  0  0  0  0  0  0  0  0  0  0
  -30.3080  -30.3050   22.9820 C   0  0  0  0  0  0  0  0  0  0  0  0
  -31.1220  -30.5490   22.0870 O   0  0  0  0  0  0  0  0  0  0  0  0
  -29.1650  -28.9490   23.9610 H   0  0  0  0  0  0  0  0  0  0  0  0
  -28.6690  -32.2110   23.0550 C   0  0  0  0  0  1  0  0  0  0  0  0
  -29.7510  -31.4540   23.8420 C   0  0  0  0  0  3  0  0  0  0  0  0
  -31.6830  -31.8410   25.3070 C   0  0  0  0  0  1  0  0  0  0  0  0
  -30.7910  -32.4040   24.2970 N   0  0  0  0  0  0  0  0  0  0  0  0
  -30.3680  -33.2460   24.6800 H   0  0  0  0  0  0  0  0  0  0  0  0
  -30.5870  -26.6690   23.4300 C   0  0  1  0  0  0  0  0  0  0  0  0
  -29.3700  -26.1070   24.2020 C   0  0  0  0  0  1  0  0  0  0  0  0
  -31.2180  -25.5070   22.6290 C   0  0  0  0  0  1  0  0  0  0  0  0
  -31.6450  -27.1180   24.4650 C   0  0  0  0  0  1  0  0  0  0  0  0
  -28.6610  -16.5060   12.0750 C   0  0  0  0  0  2  0  0  0  0  0  0
  -28.8980  -17.7290   12.9940 C   0  0  0  0  0  2  0  0  0  0  0  0
  -27.8110  -18.7300   12.9390 N   0  0  0  0  0  4  0  0  0  0  0  0
  -27.0280  -18.2980   12.4700 H   0  0  0  0  0  0  0  0  0  0  0  0
  -28.0820  -19.5180   12.3690 H   0  0  0  0  0  0  0  0  0  0  0  0
  -27.3190  -19.2160   14.2560 C   0  0  0  0  0  2  0  0  0  0  0  0
  -28.2060  -20.2750   14.9730 C   0  0  0  0  0  2  0  0  0  0  0  0
  -29.4660  -19.8260   15.7630 C   0  0  0  0  0  2  0  0  0  0  0  0
  -29.1850  -19.2140   17.0870 N   0  0  0  0  0  4  0  0  0  0  0  0
  -29.2340  -18.2090   17.0400 H   0  0  0  0  0  0  0  0  0  0  0  0
  -28.2420  -19.4470   17.3630 H   0  0  0  0  0  0  0  0  0  0  0  0
  -30.0860  -19.6630   18.1760 C   0  0  0  0  0  2  0  0  0  0  0  0
  -30.7900  -18.4780   18.8490 C   0  0  0  0  0  2  0  0  0  0  0  0
  -30.5740  -18.5570   20.2540 O   0  0  0  0  0  0  0  0  0  0  0  0
  -31.5590  -17.8780   21.0260 C   0  0  0  0  0  2  0  0  0  0  0  0
  -31.3540  -16.3570   20.9430 C   0  0  0  0  0  2  0  0  0  0  0  0
  -32.4880  -15.5700   21.6230 C   0  0  0  0  0  2  0  0  0  0  0  0
  -32.1930  -14.0680   21.6510 C   0  0  0  0  0  2  0  0  0  0  0  0
  -33.3100  -13.2090   22.2630 C   0  0  0  0  0  2  0  0  0  0  0  0
  -33.1530  -10.8080   21.7070 C   0  0  0  0  0  0  0  0  0  0  0  0
  -32.2430   -9.0120   20.2900 C   0  0  0  0  0  2  0  0  0  0  0  0
  -31.6350   -9.6190   19.0060 C   0  0  0  0  0  2  0  0  0  0  0  0
  -30.1780  -10.0620   19.2400 C   0  0  0  0  0  2  0  0  0  0  0  0
  -30.0120  -10.9230   20.5190 C   0  0  0  0  0  3  0  0  0  0  0  0
  -30.7010  -10.2310   21.7210 C   0  0  0  0  0  2  0  0  0  0  0  0
  -32.1180   -9.9960   21.3740 N   0  0  0  0  0  0  0  0  0  0  0  0
  -34.3010  -10.6750   21.2710 O   0  0  0  0  0  0  0  0  0  0  0  0
  -32.7980  -11.8600   22.4480 N   0  0  0  0  0  0  0  0  0  0  0  0
  -31.8850  -11.7820   22.8710 H   0  0  0  0  0  0  0  0  0  0  0  0
  -27.9390  -12.4280   20.8140 C   0  0  0  0  0  0  0  0  0  0  0  0
  -26.6220  -12.1340   21.0440 C   0  0  0  0  0  0  0  0  0  0  0  0
  -26.5460  -10.7100   21.1350 C   0  0  0  0  0  0  0  0  0  0  0  0
  -28.6040  -11.2090   20.7860 N   0  0  0  0  0  0  0  0  0  0  0  0
  -27.7550  -10.1750   21.0200 N   0  0  0  0  0  0  0  0  0  0  0  0
  -25.3820   -9.8210   21.2540 C   0  0  0  0  0  0  0  0  0  0  0  0
  -25.3300   -8.8020   22.2290 C   0  0  0  0  0  3  0  0  0  0  0  0
  -24.1940   -7.9690   22.3310 C   0  0  0  0  0  3  0  0  0  0  0  0
  -23.0970   -8.1510   21.4560 C   0  0  0  0  0  0  0  0  0  0  0  0
  -23.1650   -9.1540   20.4720 C   0  0  0  0  0  3  0  0  0  0  0  0
  -24.3000   -9.9760   20.3690 C   0  0  0  0  0  3  0  0  0  0  0  0
  -21.9670   -7.3710   21.4660 O   0  0  0  0  0  0  0  0  0  0  0  0
  -21.5870   -6.6730   22.5830 C   0  0  0  0  0  0  0  0  0  0  0  0
  -21.0500   -7.3210   23.7180 C   0  0  0  0  0  3  0  0  0  0  0  0
  -20.6030   -6.5580   24.8140 C   0  0  0  0  0  3  0  0  0  0  0  0
  -20.6860   -5.1550   24.7810 C   0  0  0  0  0  0  0  0  0  0  0  0
  -21.2190   -4.5080   23.6550 C   0  0  0  0  0  3  0  0  0  0  0  0
  -21.6620   -5.2660   22.5530 C   0  0  0  0  0  0  0  0  0  0  0  0
  -22.1520   -4.6370   21.4590 F   0  0  0  0  0  0  0  0  0  0  0  0
  -20.2540   -4.4240   25.8360 F   0  0  0  0  0  0  0  0  0  0  0  0
  -25.4810  -13.1100   21.0870 C   0  0  0  0  0  0  0  0  0  0  0  0
  -24.4520  -12.8150   21.8770 N   0  0  0  0  0  0  0  0  0  0  0  0
  -25.5160  -14.1660   20.4570 O   0  0  0  0  0  0  0  0  0  0  0  0
  -24.4360  -11.9610   22.4130 H   0  0  0  0  0  0  0  0  0  0  0  0
  -23.6770  -13.4590   21.9520 H   0  0  0  0  0  0  0  0  0  0  0  0
  -28.6200  -13.6240   20.6110 N   0  0  0  0  0  0  0  0  0  0  0  0
  -28.1480  -14.5220   20.5960 H   0  0  0  0  0  0  0  0  0  0  0  0
  -29.6080  -13.6990   20.4180 H   0  0  0  0  0  0  0  0  0  0  0  0
  1  3  1  0
  1 59  1  0
  2  3  1  0
  2  6  1  0
  3  5  1  0
  4  2  2  0
  7  6  2  0
  7  8  1  0
  8 10  2  0
  9  8  1  0
  9 12  1  0
 11  9  1  0
 12 13  1  0
 13 14  1  0
 14 15  1  0
 15 16  1  0
 16 17  1  0
 17 18  1  0
 18 20  1  0
 19 30  2  0
 20 25  1  0
 21 31  1  0
 21 29  1  0
 22 28  1  0
 22 24  1  0
 23 29  1  0
 24 23  1  0
 25 24  2  0
 26 27  1  0
 26 20  2  0
 27 22  2  0
 28 21  1  0
 29 19  1  0
 31 33  2  0
 32 31  1  0
 34 32  1  0
 35 44  2  0
 35 40  1  0
 36 32  1  0
 36 40  1  0
 37 36  1  0
 38 39  1  0
 38 37  1  0
 39 35  1  0
 40 41  2  0
 41 42  1  0
 43 42  2  0
 44 43  1  0
 45 19  1  0
 45 46  1  0
 45 55  1  0
 46 49  1  0
 47 46  1  0
 47 51  1  0
 48 47  2  0
 51 50  1  0
 51 53  1  0
 53 54  1  0
 53 52  1  0
 55 56  1  1
 55 58  1  0
 57 55  1  0
 59 60  1  0
 61 60  1  0
 61 64  1  0
 62 61  1  0
 63 61  1  0
 64 65  1  0
 65 66  1  0
 66 67  1  0
 67 69  1  0
 67 70  1  0
 68 67  1  0
 70 71  1  0
 71 72  1  0
 72 73  1  0
 74 73  1  0
 74 75  1  0
 75 76  1  0
 76 77  1  0
 77 86  1  0
 78 86  1  0
 79 84  1  0
 80 81  1  0
 80 79  1  0
 82 81  1  0
 82 91  1  0
 82 83  1  0
 84 78  1  0
 84 83  1  0
 85 78  2  0
 86 87  1  0
 88 89  2  0
 89108  1  0
 89 90  1  0
 90 93  1  0
 91 88  1  0
 91 92  1  0
 92 90  2  0
 93 94  1  0
 94 95  2  0
 96 99  1  0
 96 95  1  0
 97 96  2  0
 98 97  1  0
 98 93  2  0
 99100  1  0
100101  1  0
101102  2  0
103102  1  0
103107  1  0
104103  2  0
105100  2  0
105104  1  0
106105  1  0
108109  1  0
109112  1  0
109111  1  0
110108  2  0
113 88  1  0
114113  1  0
115113  1  0
M  ISO  4  17 101  18 101  78 100  86 100
M  END
>  <TORSDO>  (53) 
F 40

>  <SCORE>  (53) 
5.834

>  <name>  (53) 
57

>  <ligand_id>  (53) 
57

>  <original_smiles>  (53) 
[H]C(C(=O)N([H])C([H])([H])C([H])([H])C([H])([H])OC([H])([H])C([H])([H])Oc1c([H])c([H])c2c(c1[H])C([H])([H])N(C(=O)C([H])(N([H])C(=O)C([H])(N([H])C([H])([H])[H])C([H])([H])[H])C(C([H])([H])[H])(C([H])([H])[H])C([H])([H])[H])C([H])(C(=O)N([H])C1([H])c3c([H])c([H])c([H])c([H])c3C([H])([H])C([H])([H])C1([H])[H])C2([H])[H])=C([H])C(=O)N([H])C([H])([H])C([H])([H])C([H])([H])[N+]([H])([H])C([H])([H])C([H])([H])C([H])([H])[N+]([H])([H])C([H])([H])C([H])([H])OC([H])([H])C([H])([H])C([H])([H])C([H])([H])C([H])([H])N([H])C(=O)N1C([H])([H])C([H])([H])C([H])([H])C([H])(n2nc(-c3c([H])c([H])c(Oc4c([H])c([H])c(F)c([H])c4F)c([H])c3[H])c(C(=O)N([H])[H])c2N([H])[H])C1([H])[H]

>  <smiles>  (53) 
[H]C(C(=O)N([H])C([H])([H])C([H])([H])C([H])([H])OC([H])([H])C([H])([H])Oc1c([H])c([H])c2c(c1[H])C([H])([H])N(C(=O)C([H])(N([H])C(=O)C([H])(N([H])C([H])([H])[H])C([H])([H])[H])C(C([H])([H])[H])(C([H])([H])[H])C([H])([H])[H])C([H])(C(=O)N([H])C1([H])c3c([H])c([H])c([H])c([H])c3C([H])([H])C([H])([H])C1([H])[H])C2([H])[H])=C([H])C(=O)N([H])C([H])([H])C([H])([H])C([H])([H])[N+]([H])([H])C([H])([H])C([H])([H])C([H])([H])[N+]([H])([H])C([H])([H])C([H])([H])OC([H])([H])C([H])([H])C([H])([H])C([H])([H])C([H])([H])N([H])C(=O)N1C([H])([H])C([H])([H])C([H])([H])C([H])(n2nc(-c3c([H])c([H])c(Oc4c([H])c([H])c(F)c([H])c4F)c([H])c3[H])c(C(=O)N([H])[H])c2N([H])[H])C1([H])[H]

$$$$
58:0:0
     RDKit          3D

101108  0  0  1  0  0  0  0  0999 V2000
  -25.1340  -23.3120   21.4610 C   0  0  0  0  0  0  0  0  0  0  0  0
  -25.2810  -24.0040   22.5930 N   0  0  0  0  0  0  0  0  0  0  0  0
  -24.3560  -23.6340   20.5640 O   0  0  0  0  0  0  0  0  0  0  0  0
  -25.9430  -23.6190   23.2520 H   0  0  0  0  0  0  0  0  0  0  0  0
  -26.7350  -21.9920   20.2070 C   0  0  0  0  0  3  0  0  0  0  0  0
  -26.1680  -22.3080   21.3850 C   0  0  0  0  0  3  0  0  0  0  0  0
  -27.8950  -21.1260   20.1960 C   0  0  0  0  0  0  0  0  0  0  0  0
  -28.1580  -20.6440   18.9760 N   0  0  0  0  0  0  0  0  0  0  0  0
  -28.6360  -20.9300   21.1620 O   0  0  0  0  0  0  0  0  0  0  0  0
  -27.4880  -20.8440   18.2430 H   0  0  0  0  0  0  0  0  0  0  0  0
  -29.4590  -20.1310   18.5520 C   0  0  0  0  0  2  0  0  0  0  0  0
  -29.9190  -18.8770   19.3170 C   0  0  0  0  0  2  0  0  0  0  0  0
  -31.4370  -18.6750   19.1930 C   0  0  0  0  0  2  0  0  0  0  0  0
  -32.0310  -17.7490   20.2700 C   0  0  0  0  0  2  0  0  0  0  0  0
  -31.8550  -15.3660   19.5780 C   0  0  0  0  0  0  0  0  0  0  0  0
  -31.6670  -12.9280   19.2960 C   0  0  0  0  0  2  0  0  0  0  0  0
  -30.7650  -12.5490   18.1100 C   0  0  0  0  0  2  0  0  0  0  0  0
  -29.2910  -12.4810   18.5510 C   0  0  0  0  0  2  0  0  0  0  0  0
  -28.8470  -13.7480   19.3280 C   0  0  0  0  0  3  0  0  0  0  0  0
  -29.8590  -14.0910   20.4430 C   0  0  0  0  0  2  0  0  0  0  0  0
  -31.2030  -14.2080   19.8440 N   0  0  0  0  0  0  0  0  0  0  0  0
  -32.8350  -15.4440   18.8300 O   0  0  0  0  0  0  0  0  0  0  0  0
  -31.4230  -16.4230   20.2740 N   0  0  0  0  0  0  0  0  0  0  0  0
  -30.6530  -16.2650   20.9060 H   0  0  0  0  0  0  0  0  0  0  0  0
  -26.5490  -14.5690   20.1540 C   0  0  0  0  0  0  0  0  0  0  0  0
  -25.4250  -13.8950   20.5530 C   0  0  0  0  0  0  0  0  0  0  0  0
  -25.7490  -12.5060   20.4710 C   0  0  0  0  0  0  0  0  0  0  0  0
  -27.4920  -13.5960   19.8580 N   0  0  0  0  0  0  0  0  0  0  0  0
  -27.0150  -12.3490   20.1020 N   0  0  0  0  0  0  0  0  0  0  0  0
  -24.9120  -11.3150   20.6640 C   0  0  0  0  0  0  0  0  0  0  0  0
  -25.2000  -10.3650   21.6690 C   0  0  0  0  0  3  0  0  0  0  0  0
  -24.3700   -9.2380   21.8480 C   0  0  0  0  0  3  0  0  0  0  0  0
  -23.2360   -9.0530   21.0210 C   0  0  0  0  0  0  0  0  0  0  0  0
  -22.9660   -9.9900   20.0090 C   0  0  0  0  0  3  0  0  0  0  0  0
  -23.7970  -11.1090   19.8290 C   0  0  0  0  0  3  0  0  0  0  0  0
  -22.3880   -7.9760   21.1060 O   0  0  0  0  0  0  0  0  0  0  0  0
  -22.0780   -7.3940   22.3090 C   0  0  0  0  0  0  0  0  0  0  0  0
  -21.4820   -8.1270   23.3590 C   0  0  0  0  0  3  0  0  0  0  0  0
  -21.1170   -7.4750   24.5530 C   0  0  0  0  0  3  0  0  0  0  0  0
  -21.3390   -6.0920   24.6980 C   0  0  0  0  0  0  0  0  0  0  0  0
  -21.9280   -5.3600   23.6520 C   0  0  0  0  0  3  0  0  0  0  0  0
  -22.2940   -6.0100   22.4600 C   0  0  0  0  0  0  0  0  0  0  0  0
  -22.8420   -5.2970   21.4470 F   0  0  0  0  0  0  0  0  0  0  0  0
  -20.9820   -5.4640   25.8420 F   0  0  0  0  0  0  0  0  0  0  0  0
  -24.0970  -14.4970   20.9040 C   0  0  0  0  0  0  0  0  0  0  0  0
  -23.3530  -13.8640   21.8060 N   0  0  0  0  0  0  0  0  0  0  0  0
  -23.7280  -15.5630   20.4120 O   0  0  0  0  0  0  0  0  0  0  0  0
  -23.6660  -13.0000   22.2250 H   0  0  0  0  0  0  0  0  0  0  0  0
  -22.4620  -14.2500   22.0820 H   0  0  0  0  0  0  0  0  0  0  0  0
  -26.8400  -15.9210   20.0010 N   0  0  0  0  0  0  0  0  0  0  0  0
  -26.1490  -16.6470   20.1600 H   0  0  0  0  0  0  0  0  0  0  0  0
  -27.7240  -16.2820   19.6640 H   0  0  0  0  0  0  0  0  0  0  0  0
  -24.4720  -25.6500   24.1760 C   0  0  0  0  0  1  0  0  0  0  0  0
  -25.0340  -25.4380   22.7580 C   0  0  0  0  0  3  0  0  0  0  0  0
  -26.3830  -26.1860   22.5890 C   0  0  0  0  0  0  0  0  0  0  0  0
  -27.2590  -25.6390   21.7340 N   0  0  0  0  0  0  0  0  0  0  0  0
  -26.6510  -27.1900   23.2500 O   0  0  0  0  0  0  0  0  0  0  0  0
  -26.9410  -24.8140   21.2480 H   0  0  0  0  0  0  0  0  0  0  0  0
  -28.6160  -26.0790   21.4300 C   0  0  0  0  0  2  0  0  0  0  0  0
  -28.8270  -26.2070   19.9060 C   0  0  0  0  0  2  0  0  0  0  0  0
  -28.6480  -27.5480   19.4710 O   0  0  0  0  0  0  0  0  0  0  0  0
  -24.5180  -32.0100   23.1140 C   0  0  0  0  0  0  0  0  0  0  0  0
  -27.3920  -28.0870   19.6010 C   0  0  0  0  0  0  0  0  0  0  0  0
  -23.3540  -30.6090   21.4370 C   0  0  0  0  0  3  0  0  0  0  0  0
  -24.8630  -29.3050   19.8500 C   0  0  0  0  0  0  0  0  0  0  0  0
  -25.8170  -31.2260   21.1420 C   0  0  0  0  0  2  0  0  0  0  0  0
  -25.9930  -29.9150   20.4070 C   0  0  0  0  0  0  0  0  0  0  0  0
  -27.2600  -29.3140   20.2780 C   0  0  0  0  0  3  0  0  0  0  0  0
  -26.2460  -27.4700   19.0510 C   0  0  0  0  0  3  0  0  0  0  0  0
  -24.9820  -28.0750   19.1760 C   0  0  0  0  0  3  0  0  0  0  0  0
  -23.5490  -30.0330   20.0090 C   0  0  0  0  0  2  0  0  0  0  0  0
  -24.5820  -31.2940   21.9550 N   0  0  0  0  0  0  0  0  0  0  0  0
  -23.4490  -32.1440   23.7240 O   0  0  0  0  0  0  0  0  0  0  0  0
  -22.8550  -29.4750   22.3580 C   0  0  0  0  0  0  0  0  0  0  0  0
  -21.5680  -29.1190   22.2210 N   0  0  0  0  0  0  0  0  0  0  0  0
  -23.6220  -28.9240   23.1490 O   0  0  0  0  0  0  0  0  0  0  0  0
  -21.0020  -29.6290   21.5560 H   0  0  0  0  0  0  0  0  0  0  0  0
  -18.4070  -27.4230   22.6150 C   0  0  0  0  0  0  0  0  0  0  0  0
  -20.8900  -28.0510   22.9540 C   0  0  0  0  0  3  0  0  0  0  0  0
  -21.2200  -26.6660   22.3500 C   0  0  0  0  0  2  0  0  0  0  0  0
  -20.2020  -26.2110   21.3020 C   0  0  0  0  0  2  0  0  0  0  0  0
  -18.8000  -26.1320   21.9140 C   0  0  0  0  0  2  0  0  0  0  0  0
  -19.3900  -28.3320   23.0890 C   0  0  0  0  0  0  0  0  0  0  0  0
  -18.9750  -29.5340   23.7000 C   0  0  0  0  0  3  0  0  0  0  0  0
  -17.6070  -29.8320   23.8460 C   0  0  0  0  0  3  0  0  0  0  0  0
  -16.6380  -28.9220   23.3900 C   0  0  0  0  0  3  0  0  0  0  0  0
  -17.0390  -27.7190   22.7800 C   0  0  0  0  0  3  0  0  0  0  0  0
  -25.7770  -32.7150   23.7100 C   0  0  0  0  0  3  0  0  0  0  0  0
  -26.3740  -31.9670   24.9660 C   0  0  1  0  0  0  0  0  0  0  0  0
  -25.3250  -31.6450   26.0550 C   0  0  0  0  0  1  0  0  0  0  0  0
  -27.0430  -30.6370   24.5440 C   0  0  0  0  0  1  0  0  0  0  0  0
  -27.4810  -32.8320   25.6140 C   0  0  0  0  0  1  0  0  0  0  0  0
  -25.3910  -34.0880   24.0550 N   0  0  0  0  0  0  0  0  0  0  0  0
  -25.6710  -35.1670   23.3100 C   0  0  0  0  0  0  0  0  0  0  0  0
  -26.3550  -35.1140   22.2840 O   0  0  0  0  0  0  0  0  0  0  0  0
  -24.7850  -34.2010   24.8540 H   0  0  0  0  0  0  0  0  0  0  0  0
  -23.8550  -36.8680   22.9480 C   0  0  0  0  0  1  0  0  0  0  0  0
  -25.1000  -36.5190   23.7780 C   0  0  0  0  0  3  0  0  0  0  0  0
  -27.1740  -37.5000   24.6580 C   0  0  0  0  0  1  0  0  0  0  0  0
  -26.0760  -37.6270   23.7010 N   0  0  0  0  0  0  0  0  0  0  0  0
  -25.6190  -38.5210   23.8600 H   0  0  0  0  0  0  0  0  0  0  0  0
  1  2  1  0
  2 54  1  0
  2  4  1  0
  3  1  2  0
  5  6  2  0
  6  1  1  0
  7  5  1  0
  7  9  2  0
  8  7  1  0
 10  8  1  0
 11  8  1  0
 11 12  1  0
 13 12  1  0
 13 14  1  0
 14 23  1  0
 15 21  1  0
 15 23  1  0
 16 21  1  0
 17 18  1  0
 17 16  1  0
 19 18  1  0
 19 28  1  0
 19 20  1  0
 21 20  1  0
 22 15  2  0
 23 24  1  0
 25 26  2  0
 26 45  1  0
 27 26  1  0
 27 30  1  0
 28 29  1  0
 28 25  1  0
 29 27  2  0
 30 31  1  0
 31 32  2  0
 33 36  1  0
 33 32  1  0
 34 33  2  0
 35 34  1  0
 35 30  2  0
 36 37  1  0
 37 42  2  0
 37 38  1  0
 38 39  2  0
 39 40  1  0
 40 44  1  0
 41 40  2  0
 42 41  1  0
 43 42  1  0
 45 46  1  0
 46 49  1  0
 46 48  1  0
 47 45  2  0
 50 25  1  0
 50 51  1  0
 52 50  1  0
 54 53  1  0
 55 54  1  0
 55 57  2  0
 56 55  1  0
 58 56  1  0
 59 56  1  0
 60 59  1  0
 61 63  1  0
 61 60  1  0
 62 73  2  0
 63 68  1  0
 64 72  1  0
 64 74  1  0
 65 71  1  0
 65 67  1  0
 66 72  1  0
 67 66  1  0
 68 67  2  0
 69 70  1  0
 69 63  2  0
 70 65  2  0
 71 64  1  0
 72 62  1  0
 74 76  2  0
 75 74  1  0
 77 75  1  0
 78 87  2  0
 78 83  1  0
 79 75  1  0
 79 83  1  0
 80 79  1  0
 81 82  1  0
 81 80  1  0
 82 78  1  0
 83 84  2  0
 84 85  1  0
 86 85  2  0
 87 86  1  0
 88 62  1  0
 88 93  1  0
 88 89  1  0
 89 92  1  1
 89 90  1  0
 91 89  1  0
 93 96  1  0
 94 98  1  0
 94 93  1  0
 95 94  2  0
 98 97  1  0
100 98  1  0
100101  1  0
100 99  1  0
M  ISO  4  15 100  23 100  60 101  61 101
M  END
>  <TORSDO>  (54) 
F 26

>  <SCORE>  (54) 
-8.671

>  <name>  (54) 
58

>  <ligand_id>  (54) 
58

>  <original_smiles>  (54) 
[H]C(C(=O)N([H])C([H])([H])C([H])([H])C([H])([H])C([H])([H])N([H])C(=O)N1C([H])([H])C([H])([H])C([H])([H])C([H])(n2nc(-c3c([H])c([H])c(Oc4c([H])c([H])c(F)c([H])c4F)c([H])c3[H])c(C(=O)N([H])[H])c2N([H])[H])C1([H])[H])=C([H])C(=O)N([H])C([H])(C(=O)N([H])C([H])([H])C([H])([H])Oc1c([H])c([H])c2c(c1[H])C([H])([H])N(C(=O)C([H])(N([H])C(=O)C([H])(N([H])C([H])([H])[H])C([H])([H])[H])C(C([H])([H])[H])(C([H])([H])[H])C([H])([H])[H])C([H])(C(=O)N([H])C1([H])c3c([H])c([H])c([H])c([H])c3C([H])([H])C([H])([H])C1([H])[H])C2([H])[H])C([H])([H])[H]

>  <smiles>  (54) 
[H]C(C(=O)N([H])C([H])([H])C([H])([H])C([H])([H])C([H])([H])N([H])C(=O)N1C([H])([H])C([H])([H])C([H])([H])C([H])(n2nc(-c3c([H])c([H])c(Oc4c([H])c([H])c(F)c([H])c4F)c([H])c3[H])c(C(=O)N([H])[H])c2N([H])[H])C1([H])[H])=C([H])C(=O)N([H])C([H])(C(=O)N([H])C([H])([H])C([H])([H])Oc1c([H])c([H])c2c(c1[H])C([H])([H])N(C(=O)C([H])(N([H])C(=O)C([H])(N([H])C([H])([H])[H])C([H])([H])[H])C(C([H])([H])[H])(C([H])([H])[H])C([H])([H])[H])C([H])(C(=O)N([H])C1([H])c3c([H])c([H])c([H])c([H])c3C([H])([H])C([H])([H])C1([H])[H])C2([H])[H])C([H])([H])[H]

$$$$
59:0:0
     RDKit          3D

 99106  0  0  1  0  0  0  0  0999 V2000
  -22.0500  -29.2100   25.0660 C   0  0  0  0  0  2  0  0  0  0  0  0
  -21.5230  -30.6450   24.3120 N   0  0  0  0  0  4  0  0  0  0  0  0
  -22.3480  -31.2480   24.3320 H   0  0  0  0  0  0  0  0  0  0  0  0
  -20.9510  -31.0810   25.0200 H   0  0  0  0  0  0  0  0  0  0  0  0
  -20.7260  -31.1040   22.8580 C   0  0  0  0  0  3  0  0  0  0  0  0
  -20.6410  -30.4230   21.1330 C   0  0  0  0  0  3  0  0  0  0  0  0
  -21.3860  -29.0910   20.0730 C   0  0  0  0  0  2  0  0  0  0  0  0
  -22.4140  -27.6270   20.2600 C   0  0  0  0  0  2  0  0  0  0  0  0
  -23.7890  -26.6340   19.8220 C   0  0  0  0  0  2  0  0  0  0  0  0
  -25.3960  -26.6890   19.9010 O   0  0  0  0  0  0  0  0  0  0  0  0
  -24.6000  -31.7850   23.5450 C   0  0  0  0  0  0  0  0  0  0  0  0
  -26.0110  -27.7730   19.3940 C   0  0  0  0  0  3  0  0  0  0  0  0
  -23.2600  -30.8550   21.6970 C   0  0  0  0  0  3  0  0  0  0  0  0
  -24.4710  -29.9690   19.6690 C   0  0  0  0  0  0  0  0  0  0  0  0
  -25.7850  -30.9030   21.5550 C   0  0  0  0  0  2  0  0  0  0  0  0
  -25.5920  -29.8510   20.4860 C   0  0  0  0  0  0  0  0  0  0  0  0
  -26.4200  -28.7270   20.3480 C   0  0  0  0  0  2  0  0  0  0  0  0
  -25.2380  -28.1330   18.3050 C   0  0  0  0  0  2  0  0  0  0  0  0
  -24.3150  -29.1570   18.5320 C   0  0  0  0  0  2  0  0  0  0  0  0
  -23.4660  -30.9540   20.1510 C   0  0  0  0  0  2  0  0  0  0  0  0
  -24.5580  -31.2070   22.3190 N   0  0  0  0  0  0  0  0  0  0  0  0
  -23.5680  -32.1000   24.1520 O   0  0  0  0  0  0  0  0  0  0  0  0
  -22.7590  -29.4280   22.3280 C   0  0  0  0  0  0  0  0  0  0  0  0
  -21.5120  -28.6970   22.4620 N   0  0  0  0  0  0  0  0  0  0  0  0
  -23.6430  -28.8270   22.8670 O   0  0  0  0  0  0  0  0  0  0  0  0
  -21.8700  -27.7750   22.6980 H   0  0  0  0  0  0  0  0  0  0  0  0
  -17.3590  -29.0810   22.3470 C   0  0  0  0  0  0  0  0  0  0  0  0
  -19.9290  -28.5020   22.6770 C   0  0  0  0  0  3  0  0  0  0  0  0
  -19.6150  -27.2800   21.8480 C   0  0  0  0  0  2  0  0  0  0  0  0
  -18.5490  -27.4970   20.7970 C   0  0  0  0  0  2  0  0  0  0  0  0
  -17.2490  -27.8550   21.4730 C   0  0  0  0  0  2  0  0  0  0  0  0
  -18.5850  -29.4150   22.9990 C   0  0  0  0  0  0  0  0  0  0  0  0
  -18.3860  -30.4450   23.9990 C   0  0  0  0  0  3  0  0  0  0  0  0
  -17.2430  -31.2630   24.0980 C   0  0  0  0  0  3  0  0  0  0  0  0
  -16.1060  -30.9360   23.3640 C   0  0  0  0  0  3  0  0  0  0  0  0
  -16.1570  -29.8060   22.5400 C   0  0  0  0  0  3  0  0  0  0  0  0
  -25.9580  -32.0610   24.2330 C   0  0  0  0  0  3  0  0  0  0  0  0
  -25.8660  -33.3860   24.8540 N   0  0  0  0  0  0  0  0  0  0  0  0
  -26.3340  -34.5100   24.2980 C   0  0  0  0  0  0  0  0  0  0  0  0
  -26.9460  -34.5230   23.2260 O   0  0  0  0  0  0  0  0  0  0  0  0
  -25.3360  -33.4560   25.7110 H   0  0  0  0  0  0  0  0  0  0  0  0
  -24.9140  -36.5770   24.4250 C   0  0  0  0  0  1  0  0  0  0  0  0
  -26.0940  -35.8260   25.0580 C   0  0  0  0  0  3  0  0  0  0  0  0
  -28.3740  -36.1580   25.9060 C   0  0  0  0  0  1  0  0  0  0  0  0
  -27.2840  -36.7030   25.1000 N   0  0  0  0  0  0  0  0  0  0  0  0
  -27.0440  -37.6190   25.4690 H   0  0  0  0  0  0  0  0  0  0  0  0
  -26.3270  -30.9560   25.2930 C   0  0  1  0  0  0  0  0  0  0  0  0
  -25.2070  -30.6830   26.3230 C   0  0  0  0  0  1  0  0  0  0  0  0
  -26.6680  -29.6080   24.6150 C   0  0  0  0  0  1  0  0  0  0  0  0
  -27.5990  -31.3930   26.0530 C   0  0  0  0  0  1  0  0  0  0  0  0
  -23.2890  -27.9160   24.7360 C   0  0  0  0  0  2  0  0  0  0  0  0
  -23.7090  -27.0210   23.4460 O   0  0  0  0  0  0  0  0  0  0  0  0
  -25.0770  -26.2420   23.0890 C   0  0  0  0  0  3  0  0  0  0  0  0
  -25.6160  -25.3340   21.6630 C   0  0  0  0  0  3  0  0  0  0  0  0
  -27.1970  -24.6720   21.2040 C   0  0  0  0  0  2  0  0  0  0  0  0
  -27.6870  -24.0200   19.7740 N   0  0  0  0  0  4  0  0  0  0  0  0
  -27.0300  -23.2830   19.5750 H   0  0  0  0  0  0  0  0  0  0  0  0
  -27.5140  -24.7290   19.0810 H   0  0  0  0  0  0  0  0  0  0  0  0
  -29.1670  -23.4070   19.3930 C   0  0  0  0  0  2  0  0  0  0  0  0
  -29.7780  -22.8230   17.8340 C   0  0  0  0  0  3  0  0  0  0  0  0
  -31.3430  -22.1300   17.3800 C   0  0  0  0  0  3  0  0  0  0  0  0
  -33.1050  -21.0670   15.2920 C   0  0  0  0  0  0  0  0  0  0  0  0
  -34.2640  -20.7180   12.9890 C   0  0  0  0  0  2  0  0  0  0  0  0
  -34.2830  -22.0150   12.1330 C   0  0  0  0  0  2  0  0  0  0  0  0
  -32.9230  -22.2530   11.4470 C   0  0  0  0  0  2  0  0  0  0  0  0
  -31.7480  -22.0130   12.4270 C   0  0  0  0  0  3  0  0  0  0  0  0
  -31.8750  -20.6600   13.1400 C   0  0  0  0  0  2  0  0  0  0  0  0
  -33.0900  -20.7510   13.9300 N   0  0  0  0  0  0  0  0  0  0  0  0
  -34.2220  -20.9410   15.8330 O   0  0  0  0  0  0  0  0  0  0  0  0
  -31.8940  -21.6060   15.9270 N   0  0  0  0  0  0  0  0  0  0  0  0
  -31.1550  -21.6380   15.2390 H   0  0  0  0  0  0  0  0  0  0  0  0
  -29.3330  -22.8030   12.2670 C   0  0  0  0  0  0  0  0  0  0  0  0
  -28.3820  -22.6450   11.2970 C   0  0  0  0  0  0  0  0  0  0  0  0
  -28.9880  -21.8500   10.2760 C   0  0  0  0  0  0  0  0  0  0  0  0
  -30.4480  -22.1300   11.8020 N   0  0  0  0  0  0  0  0  0  0  0  0
  -30.2160  -21.4970   10.6280 N   0  0  0  0  0  0  0  0  0  0  0  0
  -28.4910  -21.4580    8.9530 C   0  0  0  0  0  0  0  0  0  0  0  0
  -28.4940  -20.1100    8.5330 C   0  0  0  0  0  3  0  0  0  0  0  0
  -27.9940  -19.7590    7.2600 C   0  0  0  0  0  3  0  0  0  0  0  0
  -27.4830  -20.7580    6.3990 C   0  0  0  0  0  0  0  0  0  0  0  0
  -27.5060  -22.1010    6.8140 C   0  0  0  0  0  3  0  0  0  0  0  0
  -28.0080  -22.4500    8.0780 C   0  0  0  0  0  3  0  0  0  0  0  0
  -27.0000  -20.5150    5.1360 O   0  0  0  0  0  0  0  0  0  0  0  0
  -26.4680  -19.2990    4.7920 C   0  0  0  0  0  0  0  0  0  0  0  0
  -25.3950  -18.7240    5.5090 C   0  0  0  0  0  3  0  0  0  0  0  0
  -24.8320  -17.5070    5.0770 C   0  0  0  0  0  3  0  0  0  0  0  0
  -25.3350  -16.8660    3.9290 C   0  0  0  0  0  0  0  0  0  0  0  0
  -26.3990  -17.4380    3.2110 C   0  0  0  0  0  3  0  0  0  0  0  0
  -26.9620  -18.6530    3.6410 C   0  0  0  0  0  0  0  0  0  0  0  0
  -27.9740  -19.2120    2.9340 F   0  0  0  0  0  0  0  0  0  0  0  0
  -24.7900  -15.6990    3.5100 F   0  0  0  0  0  0  0  0  0  0  0  0
  -27.0250  -23.2820   11.2760 C   0  0  0  0  0  0  0  0  0  0  0  0
  -26.0520  -22.6260   10.6540 N   0  0  0  0  0  0  0  0  0  0  0  0
  -26.8110  -24.3440   11.8560 O   0  0  0  0  0  0  0  0  0  0  0  0
  -26.2260  -21.7430   10.1970 H   0  0  0  0  0  0  0  0  0  0  0  0
  -25.1190  -23.0140   10.6330 H   0  0  0  0  0  0  0  0  0  0  0  0
  -29.3530  -23.4760   13.4850 N   0  0  0  0  0  0  0  0  0  0  0  0
  -28.5720  -24.0490   13.7860 H   0  0  0  0  0  0  0  0  0  0  0  0
  -30.1780  -23.6050   14.0590 H   0  0  0  0  0  0  0  0  0  0  0  0
  2  3  1  0
  2  4  1  0
  2  1  1  0
  5  2  1  0
  6  5  2  0
  7  8  1  0
  7  6  1  0
  9 10  1  0
  9  8  1  0
 11 22  2  0
 12 10  1  0
 12 17  1  0
 13 21  1  0
 13 23  1  0
 14 20  1  0
 14 16  2  0
 15 21  1  0
 16 15  1  0
 17 16  1  0
 18 19  1  0
 18 12  1  0
 19 14  1  0
 20 13  1  0
 21 11  1  0
 23 24  1  0
 23 25  2  0
 24 26  1  0
 27 36  2  0
 27 32  1  0
 28 24  1  0
 28 32  1  0
 29 28  1  0
 30 31  1  0
 30 29  1  0
 31 27  1  0
 32 33  2  0
 33 34  1  0
 35 34  2  0
 36 35  1  0
 37 11  1  0
 37 38  1  0
 37 47  1  0
 38 41  1  0
 39 38  1  0
 39 43  1  0
 40 39  2  0
 43 42  1  0
 43 45  1  0
 45 46  1  0
 45 44  1  0
 47 50  1  1
 47 48  1  0
 49 47  1  0
 51  1  1  0
 52 51  1  0
 53 52  1  0
 54 53  2  0
 55 54  1  0
 56 55  1  0
 57 56  1  0
 58 56  1  0
 59 56  1  0
 60 59  1  0
 61 60  2  0
 62 69  2  0
 62 70  1  0
 63 68  1  0
 64 63  1  0
 65 64  1  0
 66 65  1  0
 66 67  1  0
 67 68  1  0
 68 62  1  0
 70 61  1  0
 71 70  1  0
 72 97  1  0
 73 72  2  0
 74 76  2  0
 74 73  1  0
 75 72  1  0
 75 66  1  0
 76 75  1  0
 77 74  1  0
 78 77  1  0
 79 78  2  0
 80 81  2  0
 80 79  1  0
 81 82  1  0
 82 77  2  0
 83 80  1  0
 84 83  1  0
 84 85  1  0
 86 85  2  0
 87 86  1  0
 88 89  1  0
 88 87  2  0
 89 84  2  0
 90 89  1  0
 91 87  1  0
 92 73  1  0
 92 94  2  0
 93 92  1  0
 95 93  1  0
 96 93  1  0
 97 98  1  0
 97 99  1  0
M  ISO  4   9 101  10 101  62 100  70 100
M  END
>  <TORSDO>  (55) 
F 31

>  <SCORE>  (55) 
5.105

>  <name>  (55) 
59

>  <ligand_id>  (55) 
59

>  <original_smiles>  (55) 
[H]c1c([H])c([H])c2c(c1[H])C([H])([H])C([H])([H])C([H])([H])C2([H])N([H])C(=O)C1([H])N(C(=O)C([H])(N([H])C(=O)C([H])(N([H])C([H])([H])[H])C([H])([H])[H])C(C([H])([H])[H])(C([H])([H])[H])C([H])([H])[H])C([H])([H])c2c([H])c(OC([H])([H])C([H])([H])C([H])([H])C([H])([H])C([H])([H])[N+]([H])([H])C([H])([H])C([H])([H])OC([H])([H])C([H])([H])C([H])([H])[N+]([H])([H])C([H])([H])C([H])([H])C([H])([H])N([H])C(=O)N3C([H])([H])C([H])([H])C([H])([H])C([H])(n4nc(-c5c([H])c([H])c(Oc6c([H])c([H])c(F)c([H])c6F)c([H])c5[H])c(C(=O)N([H])[H])c4N([H])[H])C3([H])[H])c([H])c([H])c2C1([H])[H]

>  <smiles>  (55) 
[H]c1c([H])c([H])c2c(c1[H])C([H])([H])C([H])([H])C([H])([H])C2([H])N([H])C(=O)C1([H])N(C(=O)C([H])(N([H])C(=O)C([H])(N([H])C([H])([H])[H])C([H])([H])[H])C(C([H])([H])[H])(C([H])([H])[H])C([H])([H])[H])C([H])([H])c2c([H])c(OC([H])([H])C([H])([H])C([H])([H])C([H])([H])C([H])([H])[N+]([H])([H])C([H])([H])C([H])([H])OC([H])([H])C([H])([H])C([H])([H])[N+]([H])([H])C([H])([H])C([H])([H])C([H])([H])N([H])C(=O)N3C([H])([H])C([H])([H])C([H])([H])C([H])(n4nc(-c5c([H])c([H])c(Oc6c([H])c([H])c(F)c([H])c6F)c([H])c5[H])c(C(=O)N([H])[H])c4N([H])[H])C3([H])[H])c([H])c([H])c2C1([H])[H]

$$$$
60:0:0
     RDKit          3D

119124  0  0  1  0  0  0  0  0999 V2000
  -23.0450  -13.3890   17.6440 C   0  0  0  0  0  3  0  0  0  0  0  0
  -23.6270  -14.2150   16.7620 C   0  0  0  0  0  3  0  0  0  0  0  0
  -21.6250  -13.4240   17.9110 C   0  0  0  0  0  3  0  0  0  0  0  0
  -20.1440  -16.6230   18.1810 C   0  0  0  0  0  3  0  0  0  0  0  0
  -22.2410  -16.2500   16.9200 C   0  0  0  0  0  3  0  0  0  0  0  0
  -20.8060  -14.4260   17.9460 N   0  0  0  0  0  0  0  0  0  0  0  0
  -21.1020  -15.7680   17.7610 N   0  0  0  0  0  0  0  0  0  0  0  0
  -22.8810  -15.2570   16.0100 N   0  0  2  0  0  4  0  0  0  0  0  0
  -20.1500  -17.8450   18.0130 O   0  0  0  0  0  0  0  0  0  0  0  0
  -23.5860  -15.7940   15.5220 H   0  0  0  0  0  0  0  0  0  0  0  0
  -21.9850  -14.7530   14.9240 C   0  0  0  0  0  2  0  0  0  0  0  0
  -22.6540  -13.7230   13.9920 C   0  0  0  0  0  2  0  0  0  0  0  0
  -22.8940  -12.4890   14.6720 O   0  0  0  0  0  0  0  0  0  0  0  0
  -23.5540  -11.5240   13.8590 C   0  0  0  0  0  2  0  0  0  0  0  0
  -24.1350  -10.3750   14.7140 C   0  0  0  0  0  2  0  0  0  0  0  0
  -25.3740  -10.7690   15.3130 O   0  0  0  0  0  0  0  0  0  0  0  0
  -26.3750   -9.7440   15.3800 C   0  0  0  0  0  2  0  0  0  0  0  0
  -26.1660   -8.7290   16.5280 C   0  0  0  0  0  2  0  0  0  0  0  0
  -26.7500   -9.1170   18.9050 C   0  0  0  0  0  2  0  0  0  0  0  0
  -27.5720   -9.2330   19.9680 N   0  0  0  0  0  0  0  0  0  0  0  0
  -27.1350   -8.8990   17.6290 N   0  0  0  0  0  0  0  0  0  0  0  0
  -27.1110   -9.4290   20.8470 H   0  0  0  0  0  0  0  0  0  0  0  0
  -28.1050   -8.7600   17.3920 H   0  0  0  0  0  0  0  0  0  0  0  0
  -29.0410   -9.2300   20.0260 C   0  0  0  0  0  2  0  0  0  0  0  0
  -29.5520  -10.3410   20.9690 C   0  0  0  0  0  2  0  0  0  0  0  0
  -30.0270  -13.1020   20.2580 C   0  0  2  0  0  0  0  0  0  0  0  0
  -31.1670  -12.3980   19.3660 C   0  0  0  0  0  1  0  0  0  0  0  0
  -29.8580  -12.4630   17.9780 C   0  0  0  0  0  1  0  0  0  0  0  0
  -28.1700  -12.8510   18.3970 C   0  0  0  0  0  2  0  0  0  0  0  0
  -27.6810  -13.5090   19.9720 C   0  0  0  0  0  2  0  0  0  0  0  0
  -28.9320  -13.5210   21.3950 C   0  0  0  0  0  1  0  0  0  0  0  0
  -30.5840  -12.9030   21.0150 N   0  0  0  0  0  1  0  0  0  0  0  0
  -30.2520  -14.3680   19.7540 O   0  0  0  0  0  1  0  0  0  0  0  0
  -29.3040  -11.6220   20.2970 N   0  0  0  0  0  2  0  0  0  0  0  0
  -28.5460  -11.5850   19.6340 H   0  0  0  0  0  0  0  0  0  0  0  0
  -25.2350  -13.8710   20.5980 C   0  0  0  0  0  0  0  0  0  0  0  0
  -24.1890  -13.0640   20.9340 C   0  0  0  0  0  0  0  0  0  0  0  0
  -24.6820  -11.7250   20.8650 C   0  0  0  0  0  0  0  0  0  0  0  0
  -26.3270  -13.0590   20.3670 N   0  0  0  0  0  0  0  0  0  0  0  0
  -25.9880  -11.7410   20.5480 N   0  0  0  0  0  0  0  0  0  0  0  0
  -23.9530  -10.4440   21.0290 C   0  0  0  0  0  0  0  0  0  0  0  0
  -24.3890   -9.4340   21.9180 C   0  0  0  0  0  3  0  0  0  0  0  0
  -23.6460   -8.2410   22.0800 C   0  0  0  0  0  3  0  0  0  0  0  0
  -22.4420   -8.0440   21.3600 C   0  0  0  0  0  0  0  0  0  0  0  0
  -22.0180   -9.0450   20.4630 C   0  0  0  0  0  3  0  0  0  0  0  0
  -22.7670  -10.2240   20.2960 C   0  0  0  0  0  3  0  0  0  0  0  0
  -21.6750   -6.9040   21.4250 O   0  0  0  0  0  0  0  0  0  0  0  0
  -21.6910   -6.0820   22.5260 C   0  0  0  0  0  0  0  0  0  0  0  0
  -21.4060   -6.5680   23.8200 C   0  0  0  0  0  3  0  0  0  0  0  0
  -21.3660   -5.6800   24.9140 C   0  0  0  0  0  3  0  0  0  0  0  0
  -21.6030   -4.3070   24.7180 C   0  0  0  0  0  0  0  0  0  0  0  0
  -21.8820   -3.8200   23.4290 C   0  0  0  0  0  3  0  0  0  0  0  0
  -21.9220   -4.7040   22.3360 C   0  0  0  0  0  0  0  0  0  0  0  0
  -22.1710   -4.2220   21.0950 F   0  0  0  0  0  0  0  0  0  0  0  0
  -21.5550   -3.4550   25.7690 F   0  0  0  0  0  0  0  0  0  0  0  0
  -22.7870  -13.5240   21.2230 C   0  0  0  0  0  0  0  0  0  0  0  0
  -22.0500  -12.7960   22.0500 N   0  0  0  0  0  0  0  0  0  0  0  0
  -22.3550  -14.5750   20.7470 O   0  0  0  0  0  0  0  0  0  0  0  0
  -22.4240  -11.9680   22.4900 H   0  0  0  0  0  0  0  0  0  0  0  0
  -21.1090  -13.0910   22.2700 H   0  0  0  0  0  0  0  0  0  0  0  0
  -25.3480  -15.2510   20.4640 N   0  0  0  0  0  0  0  0  0  0  0  0
  -24.5850  -15.8640   20.7250 H   0  0  0  0  0  0  0  0  0  0  0  0
  -26.2110  -15.7450   20.2820 H   0  0  0  0  0  0  0  0  0  0  0  0
  -23.3780  -16.9060   17.7650 C   0  0  0  0  0  2  0  0  0  0  0  0
  -23.5670  -19.3080   18.3460 C   0  0  0  0  0  0  0  0  0  0  0  0
  -23.0620  -18.0880   18.5760 N   0  0  0  0  0  0  0  0  0  0  0  0
  -24.0730  -19.6210   17.2640 O   0  0  0  0  0  0  0  0  0  0  0  0
  -22.6570  -17.9210   19.4890 H   0  0  0  0  0  0  0  0  0  0  0  0
  -23.5680  -20.1320   19.5390 C   0  0  0  0  0  3  0  0  0  0  0  0
  -24.6750  -20.8530   19.8080 C   0  0  0  0  0  3  0  0  0  0  0  0
  -24.7980  -21.6630   21.0020 C   0  0  0  0  0  0  0  0  0  0  0  0
  -26.0430  -22.1530   21.1080 N   0  0  0  0  0  0  0  0  0  0  0  0
  -23.9070  -21.8610   21.8340 O   0  0  0  0  0  0  0  0  0  0  0  0
  -26.7410  -21.8110   20.4600 H   0  0  0  0  0  0  0  0  0  0  0  0
  -26.5230  -22.8240   22.2930 C   0  0  0  0  0  2  0  0  0  0  0  0
  -27.6070  -23.6550   21.9910 O   0  0  0  0  0  0  0  0  0  0  0  0
  -27.3330  -24.7020   21.0660 C   0  0  0  0  0  2  0  0  0  0  0  0
  -28.3910  -25.8250   21.1770 C   0  0  0  0  0  2  0  0  0  0  0  0
  -28.3480  -26.7210   20.0700 O   0  0  0  0  0  0  0  0  0  0  0  0
  -24.6070  -31.8750   23.2200 C   0  0  0  0  0  0  0  0  0  0  0  0
  -27.2170  -27.4900   20.0660 C   0  0  0  0  0  0  0  0  0  0  0  0
  -23.3900  -30.5020   21.5620 C   0  0  0  0  0  3  0  0  0  0  0  0
  -24.8360  -28.9830   20.1030 C   0  0  0  0  0  0  0  0  0  0  0  0
  -25.9110  -30.8520   21.3680 C   0  0  0  0  0  2  0  0  0  0  0  0
  -25.9900  -29.4910   20.7160 C   0  0  0  0  0  0  0  0  0  0  0  0
  -27.1860  -28.7420   20.7140 C   0  0  0  0  0  3  0  0  0  0  0  0
  -26.0670  -27.0050   19.4150 C   0  0  0  0  0  3  0  0  0  0  0  0
  -24.8670  -27.7350   19.4490 C   0  0  0  0  0  3  0  0  0  0  0  0
  -23.5930  -29.8400   20.1690 C   0  0  0  0  0  2  0  0  0  0  0  0
  -24.6540  -31.0860   22.1110 N   0  0  0  0  0  0  0  0  0  0  0  0
  -23.5260  -32.1550   23.7580 O   0  0  0  0  0  0  0  0  0  0  0  0
  -22.7410  -29.4680   22.5090 C   0  0  0  0  0  0  0  0  0  0  0  0
  -21.4140  -29.3090   22.3900 N   0  0  0  0  0  0  0  0  0  0  0  0
  -23.4240  -28.8200   23.3070 O   0  0  0  0  0  0  0  0  0  0  0  0
  -20.9230  -29.9020   21.7350 H   0  0  0  0  0  0  0  0  0  0  0  0
  -18.0370  -28.1340   22.8500 C   0  0  0  0  0  0  0  0  0  0  0  0
  -20.5930  -28.3620   23.1410 C   0  0  0  0  0  3  0  0  0  0  0  0
  -20.6880  -26.9400   22.5410 C   0  0  0  0  0  2  0  0  0  0  0  0
  -19.5910  -26.6540   21.5100 C   0  0  0  0  0  2  0  0  0  0  0  0
  -18.2090  -26.7940   22.1520 C   0  0  0  0  0  2  0  0  0  0  0  0
  -19.1600  -28.8800   23.2980 C   0  0  0  0  0  0  0  0  0  0  0  0
  -18.9490  -30.1390   23.9030 C   0  0  0  0  0  3  0  0  0  0  0  0
  -17.6460  -30.6470   24.0670 C   0  0  0  0  0  3  0  0  0  0  0  0
  -16.5370  -29.8980   23.6320 C   0  0  0  0  0  3  0  0  0  0  0  0
  -16.7340  -28.6410   23.0300 C   0  0  0  0  0  3  0  0  0  0  0  0
  -25.9010  -32.4850   23.8440 C   0  0  0  0  0  3  0  0  0  0  0  0
  -25.5900  -33.8650   24.2370 N   0  0  0  0  0  0  0  0  0  0  0  0
  -25.9020  -34.9500   23.5150 C   0  0  0  0  0  0  0  0  0  0  0  0
  -26.5530  -34.8930   22.4680 O   0  0  0  0  0  0  0  0  0  0  0  0
  -24.9860  -33.9810   25.0380 H   0  0  0  0  0  0  0  0  0  0  0  0
  -24.1480  -36.7380   23.2640 C   0  0  0  0  0  1  0  0  0  0  0  0
  -25.4090  -36.3160   24.0340 C   0  0  0  0  0  3  0  0  0  0  0  0
  -27.5580  -37.1840   24.8450 C   0  0  0  0  0  1  0  0  0  0  0  0
  -26.4290  -37.3820   23.9410 N   0  0  0  0  0  0  0  0  0  0  0  0
  -26.0180  -38.2900   24.1380 H   0  0  0  0  0  0  0  0  0  0  0  0
  -26.4460  -31.6610   25.0730 C   0  0  1  0  0  0  0  0  0  0  0  0
  -25.3760  -31.3690   26.1510 C   0  0  0  0  0  1  0  0  0  0  0  0
  -27.0180  -30.3010   24.6050 C   0  0  0  0  0  1  0  0  0  0  0  0
  -27.6010  -32.4330   25.7480 C   0  0  0  0  0  1  0  0  0  0  0  0
  1  3  1  0
  2  1  2  0
  3  6  2  0
  5  7  1  0
  5 64  1  0
  7  6  1  0
  7  4  1  0
  8  2  1  0
  8  5  1  0
  9  4  2  0
  8 10  1  6
 11  8  1  0
 12 13  1  0
 12 11  1  0
 14 13  1  0
 14 15  1  0
 15 16  1  0
 16 17  1  0
 17 18  1  0
 18 21  1  0
 19 20  1  0
 20 24  1  0
 20 22  1  0
 21 19  1  0
 23 21  1  0
 24 25  1  0
 26 32  1  0
 26 31  1  1
 27 26  1  0
 28 29  1  0
 29 30  1  0
 30 39  1  0
 33 26  1  0
 34 25  1  0
 35 34  1  0
 36 37  2  0
 37 56  1  0
 38 37  1  0
 38 41  1  0
 39 40  1  0
 39 36  1  0
 40 38  2  0
 41 42  1  0
 42 43  2  0
 44 47  1  0
 44 43  1  0
 45 44  2  0
 46 45  1  0
 46 41  2  0
 47 48  1  0
 48 49  1  0
 49 50  2  0
 51 50  1  0
 51 55  1  0
 52 51  2  0
 53 48  2  0
 53 52  1  0
 54 53  1  0
 56 57  1  0
 57 60  1  0
 57 59  1  0
 58 56  2  0
 61 36  1  0
 61 62  1  0
 63 61  1  0
 64 66  1  0
 65 66  1  0
 65 69  1  0
 66 68  1  0
 67 65  2  0
 69 70  2  0
 70 71  1  0
 71 72  1  0
 71 73  2  0
 72 75  1  0
 74 72  1  0
 76 75  1  0
 77 78  1  0
 77 76  1  0
 79 78  1  0
 80 91  2  0
 81 79  1  0
 81 86  1  0
 82 90  1  0
 82 92  1  0
 83 89  1  0
 83 85  1  0
 84 90  1  0
 85 84  1  0
 86 85  2  0
 87 88  1  0
 87 81  2  0
 88 83  2  0
 89 82  1  0
 90 80  1  0
 92 94  2  0
 93 92  1  0
 95 93  1  0
 96105  2  0
 96101  1  0
 97 93  1  0
 97101  1  0
 98 97  1  0
 99100  1  0
 99 98  1  0
100 96  1  0
101102  2  0
102103  1  0
104103  2  0
105104  1  0
106 80  1  0
106107  1  0
106116  1  0
107110  1  0
108112  1  0
108107  1  0
109108  2  0
112111  1  0
114112  1  0
114115  1  0
114113  1  0
116119  1  1
116117  1  0
118116  1  0
M  ISO  4  26 100  34 100  78 101  79 101
M  END
>  <TORSDO>  (56) 
F 35

>  <SCORE>  (56) 
86.762

>  <name>  (56) 
60

>  <ligand_id>  (56) 
60

>  <original_smiles>  (56) 
[H]C(=O)N1N=C([H])C([H])=C([H])[N+]([H])(C([H])([H])C([H])([H])OC([H])([H])C([H])([H])OC([H])([H])C([H])([H])[N+]([H])=C([H])N([H])C([H])([H])C([H])([H])N([H])C(=O)N2C([H])([H])C([H])([H])C([H])([H])C([H])(n3nc(-c4c([H])c([H])c(Oc5c([H])c([H])c(F)c([H])c5F)c([H])c4[H])c(C(=O)N([H])[H])c3N([H])[H])C2([H])[H])C1([H])C([H])([H])N([H])C(=O)C([H])=C([H])C(=O)N([H])C([H])([H])OC([H])([H])C([H])([H])Oc1c([H])c([H])c2c(c1[H])C([H])([H])N(C(=O)C([H])(N([H])C(=O)C([H])(N([H])C([H])([H])[H])C([H])([H])[H])C(C([H])([H])[H])(C([H])([H])[H])C([H])([H])[H])C([H])(C(=O)N([H])C1([H])c3c([H])c([H])c([H])c([H])c3C([H])([H])C([H])([H])C1([H])[H])C2([H])[H]

>  <smiles>  (56) 
[H]C(=O)N1N=C([H])C([H])=C([H])[N+]([H])(C([H])([H])C([H])([H])OC([H])([H])C([H])([H])OC([H])([H])C([H])([H])[N+]([H])=C([H])N([H])C([H])([H])C([H])([H])N([H])C(=O)N2C([H])([H])C([H])([H])C([H])([H])C([H])(n3nc(-c4c([H])c([H])c(Oc5c([H])c([H])c(F)c([H])c5F)c([H])c4[H])c(C(=O)N([H])[H])c3N([H])[H])C2([H])[H])C1([H])C([H])([H])N([H])C(=O)C([H])=C([H])C(=O)N([H])C([H])([H])OC([H])([H])C([H])([H])Oc1c([H])c([H])c2c(c1[H])C([H])([H])N(C(=O)C([H])(N([H])C(=O)C([H])(N([H])C([H])([H])[H])C([H])([H])[H])C(C([H])([H])[H])(C([H])([H])[H])C([H])([H])[H])C([H])(C(=O)N([H])C1([H])c3c([H])c([H])c([H])c([H])c3C([H])([H])C([H])([H])C1([H])[H])C2([H])[H]

$$$$
62:0:0
     RDKit          3D

 98105  0  0  1  0  0  0  0  0999 V2000
  -30.7910  -21.9380   21.6810 C   0  0  0  0  0  2  0  0  0  0  0  0
  -28.6140  -20.7950   21.0540 C   0  0  0  0  0  3  0  0  0  0  0  0
  -29.8250  -21.2730   20.7350 C   0  0  0  0  0  3  0  0  0  0  0  0
  -27.6740  -20.2090   20.0190 C   0  0  0  0  0  2  0  0  0  0  0  0
  -27.7620  -18.7390   20.0090 N   0  0  0  0  0  4  0  0  0  0  0  0
  -27.7040  -18.3960   20.9550 H   0  0  0  0  0  0  0  0  0  0  0  0
  -26.9540  -18.3930   19.5160 H   0  0  0  0  0  0  0  0  0  0  0  0
  -28.9640  -18.1930   19.3390 C   0  0  0  0  0  2  0  0  0  0  0  0
  -31.0540  -17.2420   20.4230 C   0  0  0  0  0  3  0  0  0  0  0  0
  -29.7200  -17.2290   20.2360 C   0  0  0  0  0  3  0  0  0  0  0  0
  -31.8010  -16.2230   21.2650 C   0  0  0  0  0  2  0  0  0  0  0  0
  -31.5960  -14.0030   20.1240 C   0  0  0  0  0  0  0  0  0  0  0  0
  -31.0690  -11.8070   19.1290 C   0  0  0  0  0  2  0  0  0  0  0  0
  -30.0910  -11.9190   17.9430 C   0  0  0  0  0  2  0  0  0  0  0  0
  -28.6240  -11.9590   18.4210 C   0  0  0  0  0  2  0  0  0  0  0  0
  -28.4000  -12.9650   19.5780 C   0  0  0  0  0  3  0  0  0  0  0  0
  -29.4650  -12.7780   20.6810 C   0  0  0  0  0  2  0  0  0  0  0  0
  -30.8050  -12.9040   20.0710 N   0  0  0  0  0  0  0  0  0  0  0  0
  -32.5850  -14.1730   19.4020 O   0  0  0  0  0  0  0  0  0  0  0  0
  -31.2400  -14.8910   21.0610 N   0  0  0  0  0  0  0  0  0  0  0  0
  -30.4510  -14.6300   21.6340 H   0  0  0  0  0  0  0  0  0  0  0  0
  -26.1420  -13.8710   20.4330 C   0  0  0  0  0  0  0  0  0  0  0  0
  -24.9990  -13.2380   20.8390 C   0  0  0  0  0  0  0  0  0  0  0  0
  -25.2630  -11.8370   20.7350 C   0  0  0  0  0  0  0  0  0  0  0  0
  -27.0450  -12.8670   20.1180 N   0  0  0  0  0  0  0  0  0  0  0  0
  -26.5190  -11.6360   20.3530 N   0  0  0  0  0  0  0  0  0  0  0  0
  -24.3830  -10.6760   20.9250 C   0  0  0  0  0  0  0  0  0  0  0  0
  -24.7390   -9.6120   21.7810 C   0  0  0  0  0  3  0  0  0  0  0  0
  -23.8690   -8.5140   21.9610 C   0  0  0  0  0  3  0  0  0  0  0  0
  -22.6290   -8.4760   21.2810 C   0  0  0  0  0  0  0  0  0  0  0  0
  -22.2880   -9.5280   20.4130 C   0  0  0  0  0  3  0  0  0  0  0  0
  -23.1590  -10.6160   20.2330 C   0  0  0  0  0  3  0  0  0  0  0  0
  -21.7320   -7.4390   21.3710 O   0  0  0  0  0  0  0  0  0  0  0  0
  -21.6580   -6.6500   22.4900 C   0  0  0  0  0  0  0  0  0  0  0  0
  -21.4130   -7.1910   23.7700 C   0  0  0  0  0  3  0  0  0  0  0  0
  -21.2730   -6.3360   24.8820 C   0  0  0  0  0  3  0  0  0  0  0  0
  -21.3710   -4.9410   24.7140 C   0  0  0  0  0  0  0  0  0  0  0  0
  -21.6100   -4.4020   23.4390 C   0  0  0  0  0  3  0  0  0  0  0  0
  -21.7510   -5.2520   22.3300 C   0  0  0  0  0  0  0  0  0  0  0  0
  -21.9590   -4.7260   21.0990 F   0  0  0  0  0  0  0  0  0  0  0  0
  -21.2300   -4.1180   25.7790 F   0  0  0  0  0  0  0  0  0  0  0  0
  -23.6940  -13.8890   21.2040 C   0  0  0  0  0  0  0  0  0  0  0  0
  -22.9310  -13.2790   22.1050 N   0  0  0  0  0  0  0  0  0  0  0  0
  -23.3670  -14.9740   20.7270 O   0  0  0  0  0  0  0  0  0  0  0  0
  -23.2070  -12.4000   22.5160 H   0  0  0  0  0  0  0  0  0  0  0  0
  -22.0590  -13.7020   22.3870 H   0  0  0  0  0  0  0  0  0  0  0  0
  -26.4830  -15.2110   20.2880 N   0  0  0  0  0  0  0  0  0  0  0  0
  -25.7880  -15.9420   20.3950 H   0  0  0  0  0  0  0  0  0  0  0  0
  -27.3450  -15.5320   19.8660 H   0  0  0  0  0  0  0  0  0  0  0  0
  -30.9700  -23.2530   21.1980 O   0  0  0  0  0  0  0  0  0  0  0  0
  -32.0480  -23.9650   21.7800 C   0  0  0  0  0  2  0  0  0  0  0  0
  -32.2200  -25.1750   20.8600 C   0  0  0  0  0  2  0  0  0  0  0  0
  -30.9510  -25.9260   20.7160 N   0  0  0  0  0  4  0  0  0  0  0  0
  -30.2020  -25.2450   20.7050 H   0  0  0  0  0  0  0  0  0  0  0  0
  -30.7980  -26.5160   21.5220 H   0  0  0  0  0  0  0  0  0  0  0  0
  -30.8700  -26.7100   19.4630 C   0  0  0  0  0  2  0  0  0  0  0  0
  -29.6240  -27.6030   19.4100 C   0  0  0  0  0  2  0  0  0  0  0  0
  -28.4890  -26.8590   19.8490 O   0  0  0  0  0  0  0  0  0  0  0  0
  -24.6400  -31.8680   23.1930 C   0  0  0  0  0  0  0  0  0  0  0  0
  -27.3250  -27.5780   19.9590 C   0  0  0  0  0  0  0  0  0  0  0  0
  -23.4320  -30.4870   21.5330 C   0  0  0  0  0  3  0  0  0  0  0  0
  -24.8910  -28.9980   20.0630 C   0  0  0  0  0  0  0  0  0  0  0  0
  -25.9420  -30.9000   21.3030 C   0  0  0  0  0  2  0  0  0  0  0  0
  -26.0430  -29.5430   20.6410 C   0  0  0  0  0  0  0  0  0  0  0  0
  -27.2620  -28.8370   20.5980 C   0  0  0  0  0  3  0  0  0  0  0  0
  -26.1500  -27.0240   19.4130 C   0  0  0  0  0  3  0  0  0  0  0  0
  -24.9330  -27.7320   19.4560 C   0  0  0  0  0  3  0  0  0  0  0  0
  -23.6350  -29.8370   20.1360 C   0  0  0  0  0  2  0  0  0  0  0  0
  -24.6910  -31.0970   22.0710 N   0  0  0  0  0  0  0  0  0  0  0  0
  -23.5640  -32.1120   23.7540 O   0  0  0  0  0  0  0  0  0  0  0  0
  -22.8070  -29.4360   22.4780 C   0  0  0  0  0  0  0  0  0  0  0  0
  -21.4830  -29.2510   22.3690 N   0  0  0  0  0  0  0  0  0  0  0  0
  -23.5090  -28.7910   23.2600 O   0  0  0  0  0  0  0  0  0  0  0  0
  -20.9760  -29.8260   21.7100 H   0  0  0  0  0  0  0  0  0  0  0  0
  -18.1220  -28.0370   22.9020 C   0  0  0  0  0  0  0  0  0  0  0  0
  -20.6860  -28.2870   23.1260 C   0  0  0  0  0  3  0  0  0  0  0  0
  -20.7760  -26.8760   22.5020 C   0  0  0  0  0  2  0  0  0  0  0  0
  -19.6530  -26.5850   21.5010 C   0  0  0  0  0  2  0  0  0  0  0  0
  -18.2850  -26.7090   22.1810 C   0  0  0  0  0  2  0  0  0  0  0  0
  -19.2510  -28.7850   23.3320 C   0  0  0  0  0  0  0  0  0  0  0  0
  -19.0460  -30.0290   23.9660 C   0  0  0  0  0  3  0  0  0  0  0  0
  -17.7460  -30.5260   24.1750 C   0  0  0  0  0  3  0  0  0  0  0  0
  -16.6320  -29.7750   23.7600 C   0  0  0  0  0  3  0  0  0  0  0  0
  -16.8220  -28.5320   23.1290 C   0  0  0  0  0  3  0  0  0  0  0  0
  -25.9270  -32.4990   23.8130 C   0  0  0  0  0  3  0  0  0  0  0  0
  -25.6140  -33.8920   24.1590 N   0  0  0  0  0  0  0  0  0  0  0  0
  -25.9390  -34.9530   23.4070 C   0  0  0  0  0  0  0  0  0  0  0  0
  -26.6080  -34.8620   22.3740 O   0  0  0  0  0  0  0  0  0  0  0  0
  -25.0180  -34.0340   24.9620 H   0  0  0  0  0  0  0  0  0  0  0  0
  -24.1980  -36.7360   23.0750 C   0  0  0  0  0  1  0  0  0  0  0  0
  -25.4450  -36.3340   23.8790 C   0  0  0  0  0  3  0  0  0  0  0  0
  -27.5820  -37.2210   24.7010 C   0  0  0  0  0  1  0  0  0  0  0  0
  -26.4700  -37.3930   23.7700 N   0  0  0  0  0  0  0  0  0  0  0  0
  -26.0590  -38.3090   23.9330 H   0  0  0  0  0  0  0  0  0  0  0  0
  -26.4620  -31.7140   25.0730 C   0  0  1  0  0  0  0  0  0  0  0  0
  -25.3770  -31.4490   26.1450 C   0  0  0  0  0  1  0  0  0  0  0  0
  -27.0540  -30.3490   24.6500 C   0  0  0  0  0  1  0  0  0  0  0  0
  -27.6080  -32.5100   25.7400 C   0  0  0  0  0  1  0  0  0  0  0  0
  3  2  2  0
  3  1  1  0
  4  2  1  0
  5  4  1  0
  5  6  1  0
  7  5  1  0
  8  5  1  0
  8 10  1  0
  9 11  1  0
 10  9  2  0
 12 20  1  0
 13 18  1  0
 14 15  1  0
 14 13  1  0
 16 15  1  0
 16 25  1  0
 16 17  1  0
 18 12  1  0
 18 17  1  0
 19 12  2  0
 20 11  1  0
 20 21  1  0
 22 23  2  0
 23 42  1  0
 24 23  1  0
 24 27  1  0
 25 26  1  0
 25 22  1  0
 26 24  2  0
 27 28  1  0
 28 29  2  0
 30 33  1  0
 30 29  1  0
 31 30  2  0
 32 31  1  0
 32 27  2  0
 33 34  1  0
 34 35  1  0
 35 36  2  0
 37 36  1  0
 37 41  1  0
 38 37  2  0
 39 34  2  0
 39 38  1  0
 40 39  1  0
 42 43  1  0
 43 46  1  0
 43 45  1  0
 44 42  2  0
 47 48  1  0
 47 22  1  0
 49 47  1  0
 50  1  1  0
 50 51  1  0
 52 51  1  0
 53 52  1  0
 53 55  1  0
 54 53  1  0
 56 53  1  0
 57 56  1  0
 57 58  1  0
 58 60  1  0
 59 70  2  0
 60 65  1  0
 61 69  1  0
 61 71  1  0
 62 68  1  0
 62 64  1  0
 63 69  1  0
 64 63  1  0
 65 64  2  0
 66 67  1  0
 66 60  2  0
 67 62  2  0
 68 61  1  0
 69 59  1  0
 71 73  2  0
 72 71  1  0
 74 72  1  0
 75 84  2  0
 75 80  1  0
 76 72  1  0
 76 80  1  0
 77 76  1  0
 78 79  1  0
 78 77  1  0
 79 75  1  0
 80 81  2  0
 81 82  1  0
 83 82  2  0
 84 83  1  0
 85 59  1  0
 85 86  1  0
 85 95  1  0
 86 89  1  0
 87 91  1  0
 87 86  1  0
 88 87  2  0
 91 90  1  0
 93 91  1  0
 93 94  1  0
 93 92  1  0
 95 98  1  1
 95 96  1  0
 97 95  1  0
M  ISO  4  12 100  20 100  57 101  58 101
M  END
>  <TORSDO>  (57) 
F 28

>  <SCORE>  (57) 
-9.196

>  <name>  (57) 
62

>  <ligand_id>  (57) 
62

>  <original_smiles>  (57) 
[H]C(=C([H])C([H])([H])[N+]([H])([H])C([H])([H])C([H])=C([H])C([H])([H])N([H])C(=O)N1C([H])([H])C([H])([H])C([H])([H])C([H])(n2nc(-c3c([H])c([H])c(Oc4c([H])c([H])c(F)c([H])c4F)c([H])c3[H])c(C(=O)N([H])[H])c2N([H])[H])C1([H])[H])C([H])([H])OC([H])([H])C([H])([H])[N+]([H])([H])C([H])([H])C([H])([H])Oc1c([H])c([H])c2c(c1[H])C([H])([H])N(C(=O)C([H])(N([H])C(=O)C([H])(N([H])C([H])([H])[H])C([H])([H])[H])C(C([H])([H])[H])(C([H])([H])[H])C([H])([H])[H])C([H])(C(=O)N([H])C1([H])c3c([H])c([H])c([H])c([H])c3C([H])([H])C([H])([H])C1([H])[H])C2([H])[H]

>  <smiles>  (57) 
[H]C(=C([H])C([H])([H])[N+]([H])([H])C([H])([H])C([H])=C([H])C([H])([H])N([H])C(=O)N1C([H])([H])C([H])([H])C([H])([H])C([H])(n2nc(-c3c([H])c([H])c(Oc4c([H])c([H])c(F)c([H])c4F)c([H])c3[H])c(C(=O)N([H])[H])c2N([H])[H])C1([H])[H])C([H])([H])OC([H])([H])C([H])([H])[N+]([H])([H])C([H])([H])C([H])([H])Oc1c([H])c([H])c2c(c1[H])C([H])([H])N(C(=O)C([H])(N([H])C(=O)C([H])(N([H])C([H])([H])[H])C([H])([H])[H])C(C([H])([H])[H])(C([H])([H])[H])C([H])([H])[H])C([H])(C(=O)N([H])C1([H])c3c([H])c([H])c([H])c([H])c3C([H])([H])C([H])([H])C1([H])[H])C2([H])[H]

$$$$
63:0:0
     RDKit          3D

106113  0  0  1  0  0  0  0  0999 V2000
  -23.6050  -16.8140   21.0250 N   0  0  0  0  0  4  0  0  0  0  0  0
  -24.0960  -16.4780   20.2120 H   0  0  0  0  0  0  0  0  0  0  0  0
  -22.7450  -16.2830   21.1010 H   0  0  0  0  0  0  0  0  0  0  0  0
  -24.4560  -16.5850   22.2190 C   0  0  0  0  0  2  0  0  0  0  0  0
  -24.8110  -15.1170   22.4650 C   0  0  0  0  0  2  0  0  0  0  0  0
  -24.9460  -14.4150   21.2310 O   0  0  0  0  0  0  0  0  0  0  0  0
  -25.0080  -12.9990   21.4230 C   0  0  0  0  0  2  0  0  0  0  0  0
  -25.1740  -12.6050   18.8920 C   0  0  0  0  0  3  0  0  0  0  0  0
  -24.8140  -12.2220   20.1340 C   0  0  0  0  0  3  0  0  0  0  0  0
  -25.8710  -13.9040   18.5160 C   0  0  0  0  0  2  0  0  0  0  0  0
  -27.2740  -13.9480   18.9970 N   0  0  0  0  0  4  0  0  0  0  0  0
  -27.6080  -13.0020   19.0310 H   0  0  0  0  0  0  0  0  0  0  0  0
  -27.3190  -14.3170   19.9350 H   0  0  0  0  0  0  0  0  0  0  0  0
  -28.1920  -14.7340   18.1390 C   0  0  0  0  0  2  0  0  0  0  0  0
  -29.3030  -15.4400   18.9560 C   0  0  0  0  0  2  0  0  0  0  0  0
  -30.5880  -15.6910   18.1210 C   0  0  0  0  0  2  0  0  0  0  0  0
  -32.8560  -15.7960   19.1550 C   0  0  0  0  0  0  0  0  0  0  0  0
  -33.9560  -14.8790   21.1540 C   0  0  0  0  0  2  0  0  0  0  0  0
  -34.8500  -13.6490   20.9160 C   0  0  0  0  0  2  0  0  0  0  0  0
  -34.0050  -12.3700   21.0100 C   0  0  0  0  0  2  0  0  0  0  0  0
  -32.7710  -12.4220   20.0810 C   0  0  0  0  0  3  0  0  0  0  0  0
  -31.9810  -13.7220   20.3090 C   0  0  0  0  0  2  0  0  0  0  0  0
  -32.8630  -14.8960   20.1690 N   0  0  0  0  0  0  0  0  0  0  0  0
  -33.8550  -16.4260   18.8040 O   0  0  0  0  0  0  0  0  0  0  0  0
  -31.6550  -16.3350   18.8840 N   0  0  0  0  0  0  0  0  0  0  0  0
  -31.7670  -17.3000   18.6050 H   0  0  0  0  0  0  0  0  0  0  0  0
  -30.7380  -10.9020   19.6090 C   0  0  0  0  0  0  0  0  0  0  0  0
  -30.3780   -9.6790   20.1020 C   0  0  0  0  0  0  0  0  0  0  0  0
  -31.3900   -9.3230   21.0470 C   0  0  0  0  0  0  0  0  0  0  0  0
  -31.9140  -11.2480   20.2580 N   0  0  0  0  0  0  0  0  0  0  0  0
  -32.2690  -10.3090   21.1720 N   0  0  0  0  0  0  0  0  0  0  0  0
  -31.6010   -8.0820   21.7980 C   0  0  0  0  0  0  0  0  0  0  0  0
  -30.9880   -7.8630   23.0530 C   0  0  0  0  0  3  0  0  0  0  0  0
  -31.1910   -6.6510   23.7470 C   0  0  0  0  0  3  0  0  0  0  0  0
  -32.0130   -5.6430   23.1880 C   0  0  0  0  0  0  0  0  0  0  0  0
  -32.6430   -5.8770   21.9530 C   0  0  0  0  0  3  0  0  0  0  0  0
  -32.4460   -7.0860   21.2680 C   0  0  0  0  0  3  0  0  0  0  0  0
  -32.2920   -4.4490   23.8060 O   0  0  0  0  0  0  0  0  0  0  0  0
  -31.3080   -3.7000   24.3970 C   0  0  0  0  0  0  0  0  0  0  0  0
  -30.1100   -3.3770   23.7220 C   0  0  0  0  0  3  0  0  0  0  0  0
  -29.1590   -2.5440   24.3400 C   0  0  0  0  0  3  0  0  0  0  0  0
  -29.4010   -2.0330   25.6300 C   0  0  0  0  0  0  0  0  0  0  0  0
  -30.5930   -2.3550   26.3040 C   0  0  0  0  0  3  0  0  0  0  0  0
  -31.5460   -3.1840   25.6870 C   0  0  0  0  0  0  0  0  0  0  0  0
  -32.7040   -3.4750   26.3300 F   0  0  0  0  0  0  0  0  0  0  0  0
  -28.4900   -1.2280   26.2230 F   0  0  0  0  0  0  0  0  0  0  0  0
  -29.2200   -8.8310   19.6550 C   0  0  0  0  0  0  0  0  0  0  0  0
  -28.7320   -7.9490   20.5200 N   0  0  0  0  0  0  0  0  0  0  0  0
  -28.6910   -8.9950   18.5530 O   0  0  0  0  0  0  0  0  0  0  0  0
  -29.1520   -7.8300   21.4310 H   0  0  0  0  0  0  0  0  0  0  0  0
  -27.9680   -7.3430   20.2550 H   0  0  0  0  0  0  0  0  0  0  0  0
  -30.1780  -11.7450   18.6520 N   0  0  0  0  0  0  0  0  0  0  0  0
  -29.4530  -11.4310   18.0210 H   0  0  0  0  0  0  0  0  0  0  0  0
  -30.6540  -12.5700   18.3130 H   0  0  0  0  0  0  0  0  0  0  0  0
  -23.2680  -18.2480   20.8780 C   0  0  0  0  0  2  0  0  0  0  0  0
  -22.9780  -18.7110   19.4340 C   0  0  0  0  0  2  0  0  0  0  0  0
  -22.7770  -20.2390   19.4450 C   0  0  0  0  0  2  0  0  0  0  0  0
  -23.5230  -21.3420   17.3070 C   0  0  0  0  0  3  0  0  0  0  0  0
  -22.5260  -20.9000   18.1000 C   0  0  0  0  0  3  0  0  0  0  0  0
  -23.2670  -22.1520   16.1280 C   0  0  0  0  0  0  0  0  0  0  0  0
  -24.3600  -22.2310   15.3560 N   0  0  0  0  0  0  0  0  0  0  0  0
  -22.2350  -22.7880   15.9150 O   0  0  0  0  0  0  0  0  0  0  0  0
  -25.0850  -21.5610   15.5840 H   0  0  0  0  0  0  0  0  0  0  0  0
  -24.8450  -23.4080   14.6270 C   0  0  0  0  0  2  0  0  0  0  0  0
  -23.8270  -24.2110   13.7730 C   0  0  0  0  0  2  0  0  0  0  0  0
  -24.4220  -25.4220   13.2810 O   0  0  0  0  0  0  0  0  0  0  0  0
  -30.0070  -27.3410   17.2200 C   0  0  0  0  0  0  0  0  0  0  0  0
  -24.9030  -26.3270   14.2070 C   0  0  0  0  0  0  0  0  0  0  0  0
  -27.8650  -28.4350   17.7980 C   0  0  0  0  0  3  0  0  0  0  0  0
  -25.9690  -28.1080   16.1280 C   0  0  0  0  0  0  0  0  0  0  0  0
  -28.3170  -27.6310   15.4120 C   0  0  0  0  0  2  0  0  0  0  0  0
  -26.8260  -27.4120   15.2660 C   0  0  0  0  0  0  0  0  0  0  0  0
  -26.2980  -26.5330   14.2960 C   0  0  0  0  0  3  0  0  0  0  0  0
  -24.0530  -27.0390   15.0820 C   0  0  0  0  0  3  0  0  0  0  0  0
  -24.5800  -27.9220   16.0440 C   0  0  0  0  0  3  0  0  0  0  0  0
  -26.6100  -29.0470   17.1230 C   0  0  0  0  0  2  0  0  0  0  0  0
  -28.7740  -27.7600   16.8160 N   0  0  0  0  0  0  0  0  0  0  0  0
  -30.4070  -27.5500   18.3740 O   0  0  0  0  0  0  0  0  0  0  0  0
  -27.4020  -27.5100   18.9440 C   0  0  0  0  0  0  0  0  0  0  0  0
  -26.9820  -28.1160   20.0660 N   0  0  0  0  0  0  0  0  0  0  0  0
  -27.4000  -26.2840   18.8060 O   0  0  0  0  0  0  0  0  0  0  0  0
  -27.0180  -29.1260   20.0980 H   0  0  0  0  0  0  0  0  0  0  0  0
  -25.6460  -28.6810   23.3770 C   0  0  0  0  0  0  0  0  0  0  0  0
  -26.4600  -27.4500   21.2580 C   0  0  0  0  0  3  0  0  0  0  0  0
  -24.9880  -27.0240   21.0580 C   0  0  0  0  0  2  0  0  0  0  0  0
  -23.9790  -28.0540   21.5760 C   0  0  0  0  0  2  0  0  0  0  0  0
  -24.2020  -28.3230   23.0670 C   0  0  0  0  0  2  0  0  0  0  0  0
  -26.7060  -28.2810   22.5210 C   0  0  0  0  0  0  0  0  0  0  0  0
  -28.0280  -28.6560   22.8430 C   0  0  0  0  0  3  0  0  0  0  0  0
  -28.2980  -29.4170   23.9970 C   0  0  0  0  0  3  0  0  0  0  0  0
  -27.2460  -29.8020   24.8460 C   0  0  0  0  0  3  0  0  0  0  0  0
  -25.9250  -29.4310   24.5380 C   0  0  0  0  0  3  0  0  0  0  0  0
  -30.9810  -26.6060   16.2470 C   0  0  0  0  0  3  0  0  0  0  0  0
  -32.3490  -26.9650   16.6410 N   0  0  0  0  0  0  0  0  0  0  0  0
  -33.1210  -27.8470   15.9910 C   0  0  0  0  0  0  0  0  0  0  0  0
  -32.7720  -28.3940   14.9410 O   0  0  0  0  0  0  0  0  0  0  0  0
  -32.6820  -26.5920   17.5180 H   0  0  0  0  0  0  0  0  0  0  0  0
  -34.4220  -29.5160   17.3480 C   0  0  0  0  0  1  0  0  0  0  0  0
  -34.4940  -28.1730   16.6030 C   0  0  0  0  0  3  0  0  0  0  0  0
  -35.9050  -26.9090   15.0410 C   0  0  0  0  0  1  0  0  0  0  0  0
  -35.5870  -28.2160   15.6090 N   0  0  0  0  0  0  0  0  0  0  0  0
  -36.4340  -28.5970   16.0210 H   0  0  0  0  0  0  0  0  0  0  0  0
  -30.7930  -25.0380   16.2420 C   0  0  1  0  0  0  0  0  0  0  0  0
  -30.8030  -24.4030   17.6510 C   0  0  0  0  0  1  0  0  0  0  0  0
  -29.4610  -24.6490   15.5580 C   0  0  0  0  0  1  0  0  0  0  0  0
  -31.9250  -24.3780   15.4190 C   0  0  0  0  0  1  0  0  0  0  0  0
  1  3  1  0
  1  4  1  0
  2  1  1  0
  4  5  1  0
  6  7  1  0
  6  5  1  0
  8  9  2  0
  9  7  1  0
 10  8  1  0
 10 11  1  0
 11 12  1  0
 11 13  1  0
 14 15  1  0
 14 11  1  0
 16 25  1  0
 16 15  1  0
 17 23  1  0
 19 20  1  0
 19 18  1  0
 21 30  1  0
 21 22  1  0
 21 20  1  0
 23 22  1  0
 23 18  1  0
 24 17  2  0
 25 17  1  0
 26 25  1  0
 27 28  2  0
 27 30  1  0
 28 29  1  0
 29 31  2  0
 29 32  1  0
 30 31  1  0
 32 33  1  0
 33 34  2  0
 35 34  1  0
 35 38  1  0
 36 35  2  0
 37 32  2  0
 37 36  1  0
 38 39  1  0
 39 44  1  0
 40 41  1  0
 40 39  2  0
 41 42  2  0
 42 46  1  0
 42 43  1  0
 44 43  2  0
 44 45  1  0
 47 28  1  0
 47 48  1  0
 48 50  1  0
 49 47  2  0
 51 48  1  0
 52 27  1  0
 53 52  1  0
 54 52  1  0
 55  1  1  0
 56 57  1  0
 56 55  1  0
 58 59  2  0
 59 57  1  0
 60 58  1  0
 61 63  1  0
 61 60  1  0
 62 60  2  0
 64 61  1  0
 65 64  1  0
 66 65  1  0
 66 68  1  0
 67 78  2  0
 68 73  2  0
 68 74  1  0
 69 79  1  0
 70 76  1  0
 71 77  1  0
 72 71  1  0
 72 70  2  0
 73 72  1  0
 74 75  2  0
 75 70  1  0
 76 69  1  0
 77 67  1  0
 77 69  1  0
 79 80  1  0
 80 82  1  0
 81 79  2  0
 83 92  1  0
 84 80  1  0
 84 88  1  0
 85 84  1  0
 85 86  1  0
 86 87  1  0
 87 83  1  0
 88 89  1  0
 88 83  2  0
 89 90  2  0
 90 91  1  0
 92 91  2  0
 93 94  1  0
 93 67  1  0
 94 97  1  0
 95 99  1  0
 95 94  1  0
 96 95  2  0
 99 98  1  0
100101  1  0
101102  1  0
101 99  1  0
103 93  1  0
103104  1  1
105103  1  0
106103  1  0
M  ISO  4  17 100  25 100  65 101  66 101
M  END
>  <TORSDO>  (58) 
F 33

>  <SCORE>  (58) 
21.939

>  <name>  (58) 
63

>  <ligand_id>  (58) 
63

>  <original_smiles>  (58) 
[H]C(C(=O)N([H])C([H])([H])C([H])([H])Oc1c([H])c([H])c2c(c1[H])C([H])([H])N(C(=O)C([H])(N([H])C(=O)C([H])(N([H])C([H])([H])[H])C([H])([H])[H])C(C([H])([H])[H])(C([H])([H])[H])C([H])([H])[H])C([H])(C(=O)N([H])C1([H])c3c([H])c([H])c([H])c([H])c3C([H])([H])C([H])([H])C1([H])[H])C2([H])[H])=C([H])C([H])([H])C([H])([H])C([H])([H])[N+]([H])([H])C([H])([H])C([H])([H])OC([H])([H])C([H])=C([H])C([H])([H])[N+]([H])([H])C([H])([H])C([H])([H])C([H])([H])N([H])C(=O)N1C([H])([H])C([H])([H])C([H])([H])C([H])(n2nc(-c3c([H])c([H])c(Oc4c([H])c([H])c(F)c([H])c4F)c([H])c3[H])c(C(=O)N([H])[H])c2N([H])[H])C1([H])[H]

>  <smiles>  (58) 
[H]C(C(=O)N([H])C([H])([H])C([H])([H])Oc1c([H])c([H])c2c(c1[H])C([H])([H])N(C(=O)C([H])(N([H])C(=O)C([H])(N([H])C([H])([H])[H])C([H])([H])[H])C(C([H])([H])[H])(C([H])([H])[H])C([H])([H])[H])C([H])(C(=O)N([H])C1([H])c3c([H])c([H])c([H])c([H])c3C([H])([H])C([H])([H])C1([H])[H])C2([H])[H])=C([H])C([H])([H])C([H])([H])C([H])([H])[N+]([H])([H])C([H])([H])C([H])([H])OC([H])([H])C([H])=C([H])C([H])([H])[N+]([H])([H])C([H])([H])C([H])([H])C([H])([H])N([H])C(=O)N1C([H])([H])C([H])([H])C([H])([H])C([H])(n2nc(-c3c([H])c([H])c(Oc4c([H])c([H])c(F)c([H])c4F)c([H])c3[H])c(C(=O)N([H])[H])c2N([H])[H])C1([H])[H]

$$$$
64:0:0
     RDKit          3D

100107  0  0  1  0  0  0  0  0999 V2000
  -26.7290  -19.0050   18.3180 C   0  0  0  0  0  2  0  0  0  0  0  0
  -28.0990  -18.3380   18.4920 C   0  0  0  0  0  3  0  0  0  0  0  0
  -28.1910  -17.0620   17.6420 C   0  0  0  0  0  0  0  0  0  0  0  0
  -28.1890  -17.1670   16.3180 N   0  0  0  0  0  0  0  0  0  0  0  0
  -28.2780  -15.9610   18.1720 O   0  0  0  0  0  0  0  0  0  0  0  0
  -28.2370  -16.3310   15.7530 H   0  0  0  0  0  0  0  0  0  0  0  0
  -28.1270  -18.0590   15.8480 H   0  0  0  0  0  0  0  0  0  0  0  0
  -28.2580  -18.0410   19.9330 N   0  0  0  0  0  4  0  0  0  0  0  0
  -27.9130  -18.8650   20.4050 H   0  0  0  0  0  0  0  0  0  0  0  0
  -27.6320  -17.2680   20.1650 H   0  0  0  0  0  0  0  0  0  0  0  0
  -29.6340  -17.7710   20.3930 C   0  0  0  0  0  2  0  0  0  0  0  0
  -29.6350  -17.1680   21.8210 C   0  0  0  0  0  2  0  0  0  0  0  0
  -31.4980  -15.5560   21.4110 C   0  0  0  0  0  0  0  0  0  0  0  0
  -31.3220  -13.5510   19.9920 C   0  0  0  0  0  2  0  0  0  0  0  0
  -30.4770  -13.8320   18.7350 C   0  0  0  0  0  2  0  0  0  0  0  0
  -28.9840  -13.5920   19.0270 C   0  0  0  0  0  2  0  0  0  0  0  0
  -28.5120  -14.3120   20.3170 C   0  0  0  0  0  3  0  0  0  0  0  0
  -29.4780  -14.0170   21.4900 C   0  0  0  0  0  2  0  0  0  0  0  0
  -30.8310  -14.4190   21.0730 N   0  0  0  0  0  0  0  0  0  0  0  0
  -32.6460  -15.8000   21.0430 O   0  0  0  0  0  0  0  0  0  0  0  0
  -30.8740  -16.4660   22.1700 N   0  0  0  0  0  0  0  0  0  0  0  0
  -31.5510  -17.0800   22.6030 H   0  0  0  0  0  0  0  0  0  0  0  0
  -26.0320  -14.8460   20.7730 C   0  0  0  0  0  0  0  0  0  0  0  0
  -24.9560  -14.0280   20.9870 C   0  0  0  0  0  0  0  0  0  0  0  0
  -25.4690  -12.6950   20.9820 C   0  0  0  0  0  0  0  0  0  0  0  0
  -27.1270  -14.0000   20.6400 N   0  0  0  0  0  0  0  0  0  0  0  0
  -26.7830  -12.7040   20.8220 N   0  0  0  0  0  0  0  0  0  0  0  0
  -24.7820  -11.4030   21.0680 C   0  0  0  0  0  0  0  0  0  0  0  0
  -25.1210  -10.4510   22.0550 C   0  0  0  0  0  3  0  0  0  0  0  0
  -24.4400   -9.2180   22.1220 C   0  0  0  0  0  3  0  0  0  0  0  0
  -23.3960   -8.9350   21.2090 C   0  0  0  0  0  0  0  0  0  0  0  0
  -23.0760   -9.8800   20.2180 C   0  0  0  0  0  3  0  0  0  0  0  0
  -23.7680  -11.0990   20.1420 C   0  0  0  0  0  3  0  0  0  0  0  0
  -22.6920   -7.7560   21.1880 O   0  0  0  0  0  0  0  0  0  0  0  0
  -22.4100   -7.0670   22.3400 C   0  0  0  0  0  0  0  0  0  0  0  0
  -21.7010   -7.6610   23.4070 C   0  0  0  0  0  3  0  0  0  0  0  0
  -21.3700   -6.8970   24.5450 C   0  0  0  0  0  3  0  0  0  0  0  0
  -21.7390   -5.5390   24.6110 C   0  0  0  0  0  0  0  0  0  0  0  0
  -22.4420   -4.9470   23.5500 C   0  0  0  0  0  3  0  0  0  0  0  0
  -22.7740   -5.7080   22.4160 C   0  0  0  0  0  0  0  0  0  0  0  0
  -23.4330   -5.1280   21.3840 F   0  0  0  0  0  0  0  0  0  0  0  0
  -21.4130   -4.8020   25.7000 F   0  0  0  0  0  0  0  0  0  0  0  0
  -23.5210  -14.4510   21.1060 C   0  0  0  0  0  0  0  0  0  0  0  0
  -22.7240  -13.7230   21.8840 N   0  0  0  0  0  0  0  0  0  0  0  0
  -23.1140  -15.4680   20.5480 O   0  0  0  0  0  0  0  0  0  0  0  0
  -23.0530  -12.8940   22.3550 H   0  0  0  0  0  0  0  0  0  0  0  0
  -21.7610  -14.0030   21.9980 H   0  0  0  0  0  0  0  0  0  0  0  0
  -26.1720  -16.2330   20.6930 N   0  0  0  0  0  0  0  0  0  0  0  0
  -25.2440  -16.5740   20.4610 H   0  0  0  0  0  0  0  0  0  0  0  0
  -26.2750  -16.5110   21.6650 H   0  0  0  0  0  0  0  0  0  0  0  0
  -26.7400  -20.2070   19.0870 O   0  0  0  0  0  0  0  0  0  0  0  0
  -25.6940  -21.0850   18.7080 C   0  0  0  0  0  2  0  0  0  0  0  0
  -25.9080  -22.4440   19.3860 C   0  0  0  0  0  2  0  0  0  0  0  0
  -27.2420  -23.1100   18.9960 C   0  0  0  0  0  2  0  0  0  0  0  0
  -27.5630  -24.2510   19.8840 N   0  0  0  0  0  4  0  0  0  0  0  0
  -27.9550  -23.9020   20.7460 H   0  0  0  0  0  0  0  0  0  0  0  0
  -26.6990  -24.7180   20.1150 H   0  0  0  0  0  0  0  0  0  0  0  0
  -28.4830  -25.2440   19.2790 C   0  0  0  0  0  2  0  0  0  0  0  0
  -28.6810  -26.4860   20.1710 C   0  0  0  0  0  2  0  0  0  0  0  0
  -28.4280  -27.6790   19.4290 O   0  0  0  0  0  0  0  0  0  0  0  0
  -24.4020  -31.9310   23.4460 C   0  0  0  0  0  0  0  0  0  0  0  0
  -27.1880  -28.2310   19.6260 C   0  0  0  0  0  0  0  0  0  0  0  0
  -23.1960  -30.6170   21.7290 C   0  0  0  0  0  3  0  0  0  0  0  0
  -24.6620  -29.4230   20.0190 C   0  0  0  0  0  0  0  0  0  0  0  0
  -25.6420  -31.2730   21.3870 C   0  0  0  0  0  2  0  0  0  0  0  0
  -25.8050  -30.0030   20.5780 C   0  0  0  0  0  0  0  0  0  0  0  0
  -27.0710  -29.4170   20.3760 C   0  0  0  0  0  3  0  0  0  0  0  0
  -26.0310  -27.6470   19.0670 C   0  0  0  0  0  3  0  0  0  0  0  0
  -24.7670  -28.2420   19.2610 C   0  0  0  0  0  3  0  0  0  0  0  0
  -23.3510  -30.1300   20.2640 C   0  0  0  0  0  2  0  0  0  0  0  0
  -24.4350  -31.2830   22.2460 N   0  0  0  0  0  0  0  0  0  0  0  0
  -23.3510  -32.0210   24.0950 O   0  0  0  0  0  0  0  0  0  0  0  0
  -22.7310  -29.4270   22.5970 C   0  0  0  0  0  0  0  0  0  0  0  0
  -21.4670  -29.0120   22.4070 N   0  0  0  0  0  0  0  0  0  0  0  0
  -23.5020  -28.8790   23.3900 O   0  0  0  0  0  0  0  0  0  0  0  0
  -20.9010  -29.5200   21.7420 H   0  0  0  0  0  0  0  0  0  0  0  0
  -18.4300  -27.0580   22.5530 C   0  0  0  0  0  0  0  0  0  0  0  0
  -20.8230  -27.8840   23.0780 C   0  0  0  0  0  3  0  0  0  0  0  0
  -21.3060  -26.5370   22.4940 C   0  0  0  0  0  2  0  0  0  0  0  0
  -20.4060  -26.0090   21.3720 C   0  0  0  0  0  2  0  0  0  0  0  0
  -18.9750  -25.8100   21.8780 C   0  0  0  0  0  2  0  0  0  0  0  0
  -19.2980  -28.0390   23.1010 C   0  0  0  0  0  0  0  0  0  0  0  0
  -18.7380  -29.1970   23.6850 C   0  0  0  0  0  3  0  0  0  0  0  0
  -17.3450  -29.3810   23.7260 C   0  0  0  0  0  3  0  0  0  0  0  0
  -16.4900  -28.4000   23.1930 C   0  0  0  0  0  3  0  0  0  0  0  0
  -17.0330  -27.2400   22.6140 C   0  0  0  0  0  3  0  0  0  0  0  0
  -25.6710  -32.6100   24.0490 C   0  0  0  0  0  3  0  0  0  0  0  0
  -25.2980  -33.9770   24.4390 N   0  0  0  0  0  0  0  0  0  0  0  0
  -25.5650  -35.0730   23.7150 C   0  0  0  0  0  0  0  0  0  0  0  0
  -26.2240  -35.0400   22.6710 O   0  0  0  0  0  0  0  0  0  0  0  0
  -24.7120  -34.0710   25.2550 H   0  0  0  0  0  0  0  0  0  0  0  0
  -23.7490  -36.7890   23.4440 C   0  0  0  0  0  1  0  0  0  0  0  0
  -25.0170  -36.4160   24.2310 C   0  0  0  0  0  3  0  0  0  0  0  0
  -27.1190  -37.3660   25.0740 C   0  0  0  0  0  1  0  0  0  0  0  0
  -25.9980  -37.5190   24.1520 N   0  0  0  0  0  0  0  0  0  0  0  0
  -25.5510  -38.4120   24.3410 H   0  0  0  0  0  0  0  0  0  0  0  0
  -26.2760  -31.8210   25.2740 C   0  0  1  0  0  0  0  0  0  0  0  0
  -25.2330  -31.4730   26.3630 C   0  0  0  0  0  1  0  0  0  0  0  0
  -26.9310  -30.5000   24.8000 C   0  0  0  0  0  1  0  0  0  0  0  0
  -27.3950  -32.6600   25.9340 C   0  0  0  0  0  1  0  0  0  0  0  0
  1 51  1  0
  2  1  1  0
  2  8  1  0
  3  5  2  0
  3  2  1  0
  4  3  1  0
  6  4  1  0
  7  4  1  0
  8 10  1  0
  8 11  1  0
  8  9  1  0
 11 12  1  0
 12 21  1  0
 13 21  1  0
 14 19  1  0
 15 16  1  0
 15 14  1  0
 17 16  1  0
 17 26  1  0
 17 18  1  0
 19 13  1  0
 19 18  1  0
 20 13  2  0
 21 22  1  0
 23 24  2  0
 24 43  1  0
 25 24  1  0
 25 28  1  0
 26 23  1  0
 26 27  1  0
 27 25  2  0
 28 29  1  0
 29 30  2  0
 31 30  1  0
 32 31  2  0
 33 32  1  0
 33 28  2  0
 34 31  1  0
 34 35  1  0
 35 40  2  0
 35 36  1  0
 36 37  2  0
 37 38  1  0
 38 42  1  0
 39 38  2  0
 40 39  1  0
 41 40  1  0
 43 44  1  0
 44 47  1  0
 44 46  1  0
 45 43  2  0
 48 23  1  0
 48 50  1  0
 49 48  1  0
 52 51  1  0
 52 53  1  0
 54 53  1  0
 54 55  1  0
 55 57  1  0
 55 56  1  0
 58 55  1  0
 58 59  1  0
 60 62  1  0
 60 59  1  0
 61 72  2  0
 62 67  1  0
 63 71  1  0
 63 73  1  0
 64 70  1  0
 64 66  1  0
 65 71  1  0
 66 65  1  0
 67 66  2  0
 68 69  1  0
 68 62  2  0
 69 64  2  0
 70 63  1  0
 71 61  1  0
 73 75  2  0
 74 73  1  0
 76 74  1  0
 77 86  2  0
 77 82  1  0
 78 74  1  0
 78 82  1  0
 79 78  1  0
 80 81  1  0
 80 79  1  0
 81 77  1  0
 82 83  2  0
 83 84  1  0
 85 84  2  0
 86 85  1  0
 87 61  1  0
 87 88  1  0
 87 97  1  0
 88 91  1  0
 89 93  1  0
 89 88  1  0
 90 89  2  0
 93 92  1  0
 95 93  1  0
 95 96  1  0
 95 94  1  0
 97100  1  1
 97 98  1  0
 99 97  1  0
M  ISO  4  13 100  21 100  59 101  60 101
M  END
>  <TORSDO>  (59) 
F 28

>  <SCORE>  (59) 
-3.600

>  <name>  (59) 
64

>  <ligand_id>  (59) 
64

>  <original_smiles>  (59) 
[H]c1c([H])c([H])c2c(c1[H])C([H])([H])C([H])([H])C([H])([H])C2([H])N([H])C(=O)C1([H])N(C(=O)C([H])(N([H])C(=O)C([H])(N([H])C([H])([H])[H])C([H])([H])[H])C(C([H])([H])[H])(C([H])([H])[H])C([H])([H])[H])C([H])([H])c2c([H])c(OC([H])([H])C([H])([H])[N+]([H])([H])C([H])([H])C([H])([H])C([H])([H])OC([H])([H])C([H])(C(=O)N([H])[H])[N+]([H])([H])C([H])([H])C([H])([H])N([H])C(=O)N3C([H])([H])C([H])([H])C([H])([H])C([H])(n4nc(-c5c([H])c([H])c(Oc6c([H])c([H])c(F)c([H])c6F)c([H])c5[H])c(C(=O)N([H])[H])c4N([H])[H])C3([H])[H])c([H])c([H])c2C1([H])[H]

>  <smiles>  (59) 
[H]c1c([H])c([H])c2c(c1[H])C([H])([H])C([H])([H])C([H])([H])C2([H])N([H])C(=O)C1([H])N(C(=O)C([H])(N([H])C(=O)C([H])(N([H])C([H])([H])[H])C([H])([H])[H])C(C([H])([H])[H])(C([H])([H])[H])C([H])([H])[H])C([H])([H])c2c([H])c(OC([H])([H])C([H])([H])[N+]([H])([H])C([H])([H])C([H])([H])C([H])([H])OC([H])([H])C([H])(C(=O)N([H])[H])[N+]([H])([H])C([H])([H])C([H])([H])N([H])C(=O)N3C([H])([H])C([H])([H])C([H])([H])C([H])(n4nc(-c5c([H])c([H])c(Oc6c([H])c([H])c(F)c([H])c6F)c([H])c5[H])c(C(=O)N([H])[H])c4N([H])[H])C3([H])[H])c([H])c([H])c2C1([H])[H]

$$$$
65:0:0
     RDKit          3D

 97104  0  0  1  0  0  0  0  0999 V2000
  -25.2150  -23.8700   22.4880 C   0  0  0  0  0  2  0  0  0  0  0  0
  -26.5760  -23.8910   23.2030 C   0  0  0  0  0  2  0  0  0  0  0  0
  -28.7080  -24.2270   22.3030 C   0  0  0  0  0  3  0  0  0  0  0  0
  -27.6380  -23.5300   22.2740 N   0  0  0  0  0  0  0  0  0  0  0  0
  -29.9930  -23.8490   21.5750 C   0  0  0  0  0  2  0  0  0  0  0  0
  -29.9840  -24.1360   20.0620 C   0  0  0  0  0  0  0  0  0  0  0  0
  -30.9330  -23.5390   19.3140 N   0  0  0  0  0  0  0  0  0  0  0  0
  -29.1480  -24.8860   19.5520 O   0  0  0  0  0  0  0  0  0  0  0  0
  -31.6420  -22.9780   19.7710 H   0  0  0  0  0  0  0  0  0  0  0  0
  -31.0120  -23.6830   17.8640 C   0  0  0  0  0  2  0  0  0  0  0  0
  -31.8960  -22.6220   17.1770 C   0  0  0  0  0  2  0  0  0  0  0  0
  -32.5350  -22.4660   14.7010 C   0  0  0  0  0  0  0  0  0  0  0  0
  -33.0240  -20.5530   13.2340 C   0  0  0  0  0  2  0  0  0  0  0  0
  -31.7410  -19.7210   13.0180 C   0  0  0  0  0  2  0  0  0  0  0  0
  -31.5610  -18.6800   14.1450 C   0  0  0  0  0  2  0  0  0  0  0  0
  -31.7300  -19.3050   15.5550 C   0  0  0  0  0  3  0  0  0  0  0  0
  -33.0240  -20.1530   15.6140 C   0  0  0  0  0  2  0  0  0  0  0  0
  -32.9300  -21.1740   14.5650 N   0  0  0  0  0  0  0  0  0  0  0  0
  -32.5490  -23.2680   13.7630 O   0  0  0  0  0  0  0  0  0  0  0  0
  -31.7250  -22.7630   15.7310 N   0  0  0  0  0  0  0  0  0  0  0  0
  -31.1300  -23.5470   15.5000 H   0  0  0  0  0  0  0  0  0  0  0  0
  -30.8580  -18.1500   17.6830 C   0  0  0  0  0  0  0  0  0  0  0  0
  -31.2210  -16.9860   18.3020 C   0  0  0  0  0  0  0  0  0  0  0  0
  -32.2980  -16.4470   17.5310 C   0  0  0  0  0  0  0  0  0  0  0  0
  -31.7080  -18.2830   16.5980 N   0  0  0  0  0  0  0  0  0  0  0  0
  -32.6140  -17.2750   16.5460 N   0  0  0  0  0  0  0  0  0  0  0  0
  -33.0070  -15.1670   17.6460 C   0  0  0  0  0  0  0  0  0  0  0  0
  -34.4170  -15.1120   17.6990 C   0  0  0  0  0  3  0  0  0  0  0  0
  -35.0820  -13.8760   17.8240 C   0  0  0  0  0  3  0  0  0  0  0  0
  -34.3360  -12.6770   17.9060 C   0  0  0  0  0  0  0  0  0  0  0  0
  -32.9330  -12.7310   17.8310 C   0  0  0  0  0  3  0  0  0  0  0  0
  -32.2730  -13.9640   17.7000 C   0  0  0  0  0  3  0  0  0  0  0  0
  -34.8940  -11.4250   18.0050 O   0  0  0  0  0  0  0  0  0  0  0  0
  -36.1340  -11.2280   18.5540 C   0  0  0  0  0  0  0  0  0  0  0  0
  -36.4440  -11.6520   19.8650 C   0  0  0  0  0  3  0  0  0  0  0  0
  -37.7100  -11.3720   20.4140 C   0  0  0  0  0  3  0  0  0  0  0  0
  -38.6650  -10.6660   19.6590 C   0  0  0  0  0  0  0  0  0  0  0  0
  -38.3600  -10.2420   18.3530 C   0  0  0  0  0  3  0  0  0  0  0  0
  -37.0960  -10.5220   17.8030 C   0  0  0  0  0  0  0  0  0  0  0  0
  -36.7970  -10.0920   16.5530 F   0  0  0  0  0  0  0  0  0  0  0  0
  -39.8780  -10.3850   20.1900 F   0  0  0  0  0  0  0  0  0  0  0  0
  -30.5460  -16.3520   19.4860 C   0  0  0  0  0  0  0  0  0  0  0  0
  -31.3020  -15.6430   20.3150 N   0  0  0  0  0  0  0  0  0  0  0  0
  -29.3460  -16.5200   19.7030 O   0  0  0  0  0  0  0  0  0  0  0  0
  -32.2910  -15.5230   20.1560 H   0  0  0  0  0  0  0  0  0  0  0  0
  -30.8830  -15.2200   21.1320 H   0  0  0  0  0  0  0  0  0  0  0  0
  -29.8670  -19.0970   17.9320 N   0  0  0  0  0  0  0  0  0  0  0  0
  -29.1890  -18.9990   18.6820 H   0  0  0  0  0  0  0  0  0  0  0  0
  -29.6770  -19.8800   17.3210 H   0  0  0  0  0  0  0  0  0  0  0  0
  -25.2120  -24.4680   21.0710 C   0  0  0  0  0  2  0  0  0  0  0  0
  -25.5850  -23.4800   20.0350 N   0  0  0  0  0  4  0  0  0  0  0  0
  -24.9460  -22.7040   20.1360 H   0  0  0  0  0  0  0  0  0  0  0  0
  -26.5060  -23.1090   20.2210 H   0  0  0  0  0  0  0  0  0  0  0  0
  -25.4700  -23.9430   18.6290 C   0  0  0  0  0  2  0  0  0  0  0  0
  -26.7610  -24.5380   17.9990 C   0  0  0  0  0  2  0  0  0  0  0  0
  -27.1290  -26.0160   18.3280 C   0  0  0  0  0  2  0  0  0  0  0  0
  -26.3730  -26.9310   17.5400 O   0  0  0  0  0  0  0  0  0  0  0  0
  -24.7120  -31.1680   23.0910 C   0  0  0  0  0  0  0  0  0  0  0  0
  -25.4640  -27.7160   18.2070 C   0  0  0  0  0  0  0  0  0  0  0  0
  -22.8700  -30.5960   21.5450 C   0  0  0  0  0  3  0  0  0  0  0  0
  -23.5590  -29.4290   19.3850 C   0  0  0  0  0  0  0  0  0  0  0  0
  -25.2980  -30.6110   20.7330 C   0  0  0  0  0  2  0  0  0  0  0  0
  -24.9120  -29.5380   19.7410 C   0  0  0  0  0  0  0  0  0  0  0  0
  -25.8690  -28.6780   19.1580 C   0  0  0  0  0  3  0  0  0  0  0  0
  -24.1020  -27.6180   17.8580 C   0  0  0  0  0  3  0  0  0  0  0  0
  -23.1460  -28.4600   18.4560 C   0  0  0  0  0  3  0  0  0  0  0  0
  -22.5970  -30.4030   20.0300 C   0  0  0  0  0  2  0  0  0  0  0  0
  -24.3280  -30.7880   21.8420 N   0  0  0  0  0  0  0  0  0  0  0  0
  -23.8770  -31.3990   23.9790 O   0  0  0  0  0  0  0  0  0  0  0  0
  -22.2410  -29.4140   22.3150 C   0  0  0  0  0  0  0  0  0  0  0  0
  -20.9000  -29.3360   22.3000 N   0  0  0  0  0  0  0  0  0  0  0  0
  -22.9490  -28.5810   22.8820 O   0  0  0  0  0  0  0  0  0  0  0  0
  -20.3910  -30.0530   21.8050 H   0  0  0  0  0  0  0  0  0  0  0  0
  -17.5360  -28.0530   22.6170 C   0  0  0  0  0  0  0  0  0  0  0  0
  -20.0900  -28.2910   22.9250 C   0  0  0  0  0  3  0  0  0  0  0  0
  -20.2080  -26.9590   22.1470 C   0  0  0  0  0  2  0  0  0  0  0  0
  -19.1040  -26.7700   21.1010 C   0  0  0  0  0  2  0  0  0  0  0  0
  -17.7220  -26.8140   21.7590 C   0  0  0  0  0  2  0  0  0  0  0  0
  -18.6470  -28.7560   23.1510 C   0  0  0  0  0  0  0  0  0  0  0  0
  -18.4180  -29.9220   23.9150 C   0  0  0  0  0  3  0  0  0  0  0  0
  -17.1080  -30.3800   24.1530 C   0  0  0  0  0  3  0  0  0  0  0  0
  -16.0110  -29.6710   23.6320 C   0  0  0  0  0  3  0  0  0  0  0  0
  -16.2260  -28.5090   22.8720 C   0  0  0  0  0  3  0  0  0  0  0  0
  -26.2180  -31.3580   23.4590 C   0  0  0  0  0  3  0  0  0  0  0  0
  -26.3310  -32.6010   24.2330 N   0  0  0  0  0  0  0  0  0  0  0  0
  -26.7440  -33.7720   23.7340 C   0  0  0  0  0  0  0  0  0  0  0  0
  -27.1410  -33.9020   22.5720 O   0  0  0  0  0  0  0  0  0  0  0  0
  -25.9850  -32.5770   25.1810 H   0  0  0  0  0  0  0  0  0  0  0  0
  -25.4670  -35.8550   24.3390 C   0  0  0  0  0  1  0  0  0  0  0  0
  -26.7020  -34.9980   24.6670 C   0  0  0  0  0  3  0  0  0  0  0  0
  -29.1080  -35.1690   25.1290 C   0  0  0  0  0  1  0  0  0  0  0  0
  -27.9210  -35.8320   24.5940 N   0  0  0  0  0  0  0  0  0  0  0  0
  -27.7900  -36.7060   25.0960 H   0  0  0  0  0  0  0  0  0  0  0  0
  -26.8130  -30.1430   24.2670 C   0  0  1  0  0  0  0  0  0  0  0  0
  -25.9740  -29.7460   25.5030 C   0  0  0  0  0  1  0  0  0  0  0  0
  -26.9490  -28.8960   23.3620 C   0  0  0  0  0  1  0  0  0  0  0  0
  -28.2440  -30.4930   24.7500 C   0  0  0  0  0  1  0  0  0  0  0  0
  1  2  1  0
  4  3  2  0
  4  2  1  0
  5  3  1  0
  6  5  1  0
  7  9  1  0
  7  6  1  0
  8  6  2  0
 10  7  1  0
 11 10  1  0
 12 20  1  0
 13 18  1  0
 14 13  1  0
 14 15  1  0
 16 15  1  0
 16 17  1  0
 16 25  1  0
 18 12  1  0
 18 17  1  0
 19 12  2  0
 20 11  1  0
 21 20  1  0
 22 47  1  0
 22 23  2  0
 23 42  1  0
 24 27  1  0
 24 23  1  0
 25 22  1  0
 26 25  1  0
 26 24  2  0
 27 28  2  0
 27 32  1  0
 28 29  1  0
 29 30  2  0
 30 33  1  0
 31 30  1  0
 32 31  2  0
 33 34  1  0
 34 35  1  0
 35 36  2  0
 37 41  1  0
 37 36  1  0
 38 37  2  0
 39 38  1  0
 39 34  2  0
 40 39  1  0
 42 44  2  0
 42 43  1  0
 43 46  1  0
 45 43  1  0
 47 48  1  0
 49 47  1  0
 50  1  1  0
 51 52  1  0
 51 53  1  0
 51 50  1  0
 54 51  1  0
 55 56  1  0
 55 54  1  0
 57 59  1  0
 57 56  1  0
 58 69  2  0
 59 64  1  0
 60 68  1  0
 60 70  1  0
 61 63  1  0
 61 67  1  0
 62 68  1  0
 63 62  1  0
 64 63  2  0
 65 59  2  0
 65 66  1  0
 66 61  2  0
 67 60  1  0
 68 58  1  0
 70 72  2  0
 71 70  1  0
 73 71  1  0
 74 83  2  0
 74 79  1  0
 75 71  1  0
 75 79  1  0
 76 75  1  0
 77 78  1  0
 77 76  1  0
 78 74  1  0
 79 80  2  0
 80 81  1  0
 82 81  2  0
 83 82  1  0
 84 58  1  0
 84 85  1  0
 84 94  1  0
 85 88  1  0
 86 85  1  0
 86 90  1  0
 87 86  2  0
 90 89  1  0
 92 90  1  0
 92 93  1  0
 92 91  1  0
 94 97  1  1
 94 95  1  0
 96 94  1  0
M  ISO  4  12 100  20 100  56 101  57 101
M  END
>  <TORSDO>  (60) 
F 27

>  <SCORE>  (60) 
-3.383

>  <name>  (60) 
65

>  <ligand_id>  (60) 
65

>  <original_smiles>  (60) 
[H]C(=NC([H])([H])C([H])([H])C([H])([H])[N+]([H])([H])C([H])([H])C([H])([H])C([H])([H])Oc1c([H])c([H])c2c(c1[H])C([H])([H])N(C(=O)C([H])(N([H])C(=O)C([H])(N([H])C([H])([H])[H])C([H])([H])[H])C(C([H])([H])[H])(C([H])([H])[H])C([H])([H])[H])C([H])(C(=O)N([H])C1([H])c3c([H])c([H])c([H])c([H])c3C([H])([H])C([H])([H])C1([H])[H])C2([H])[H])C([H])([H])C(=O)N([H])C([H])([H])C([H])([H])N([H])C(=O)N1C([H])([H])C([H])([H])C([H])([H])C([H])(n2nc(-c3c([H])c([H])c(Oc4c([H])c([H])c(F)c([H])c4F)c([H])c3[H])c(C(=O)N([H])[H])c2N([H])[H])C1([H])[H]

>  <smiles>  (60) 
[H]C(=NC([H])([H])C([H])([H])C([H])([H])[N+]([H])([H])C([H])([H])C([H])([H])C([H])([H])Oc1c([H])c([H])c2c(c1[H])C([H])([H])N(C(=O)C([H])(N([H])C(=O)C([H])(N([H])C([H])([H])[H])C([H])([H])[H])C(C([H])([H])[H])(C([H])([H])[H])C([H])([H])[H])C([H])(C(=O)N([H])C1([H])c3c([H])c([H])c([H])c([H])c3C([H])([H])C([H])([H])C1([H])[H])C2([H])[H])C([H])([H])C(=O)N([H])C([H])([H])C([H])([H])N([H])C(=O)N1C([H])([H])C([H])([H])C([H])([H])C([H])(n2nc(-c3c([H])c([H])c(Oc4c([H])c([H])c(F)c([H])c4F)c([H])c3[H])c(C(=O)N([H])[H])c2N([H])[H])C1([H])[H]

$$$$
66:0:0
     RDKit          3D

101107  0  0  1  0  0  0  0  0999 V2000
  -25.4760  -18.2480   21.1040 C   0  0  0  0  0  2  0  0  0  0  0  0
  -26.8870  -18.8240   20.9940 N   0  0  0  0  0  4  0  0  0  0  0  0
  -26.9050  -19.7260   21.4480 H   0  0  0  0  0  0  0  0  0  0  0  0
  -27.5130  -18.2230   21.5000 H   0  0  0  0  0  0  0  0  0  0  0  0
  -27.5230  -18.9910   19.6220 C   0  0  0  0  0  2  0  0  0  0  0  0
  -29.1680  -20.8000   18.5190 C   0  0  0  0  0  3  0  0  0  0  0  0
  -28.7370  -20.0140   19.5660 C   0  0  0  0  0  3  0  0  0  0  0  0
  -30.4050  -21.7780   18.4230 C   0  0  0  0  0  2  0  0  0  0  0  0
  -30.3660  -22.6470   17.2070 N   0  0  0  0  0  0  0  0  0  0  0  0
  -29.3980  -22.7960   16.9460 H   0  0  0  0  0  0  0  0  0  0  0  0
  -30.9040  -24.0290   17.4740 O   0  0  0  0  0  0  0  0  0  0  0  0
  -27.8080  -28.3220   22.2560 C   0  0  0  0  0  0  0  0  0  0  0  0
  -29.8900  -24.9740   17.6970 C   0  0  0  0  0  0  0  0  0  0  0  0
  -26.4430  -27.6920   20.2980 C   0  0  0  0  0  3  0  0  0  0  0  0
  -27.7040  -26.6830   18.3300 C   0  0  0  0  0  0  0  0  0  0  0  0
  -28.9870  -27.8840   20.0980 C   0  0  0  0  0  2  0  0  0  0  0  0
  -28.9260  -26.8230   19.0120 C   0  0  0  0  0  0  0  0  0  0  0  0
  -30.0200  -25.9700   18.7040 C   0  0  0  0  0  3  0  0  0  0  0  0
  -28.6860  -24.9220   16.9670 C   0  0  0  0  0  3  0  0  0  0  0  0
  -27.5950  -25.7390   17.2930 C   0  0  0  0  0  3  0  0  0  0  0  0
  -26.5510  -27.5510   18.7540 C   0  0  0  0  0  2  0  0  0  0  0  0
  -27.7660  -27.9610   20.9370 N   0  0  0  0  0  0  0  0  0  0  0  0
  -26.7660  -28.4530   22.9120 O   0  0  0  0  0  0  0  0  0  0  0  0
  -25.7430  -26.4290   20.8570 C   0  0  0  0  0  0  0  0  0  0  0  0
  -24.4110  -26.3600   20.7060 N   0  0  0  0  0  0  0  0  0  0  0  0
  -26.4000  -25.5280   21.3910 O   0  0  0  0  0  0  0  0  0  0  0  0
  -23.9320  -27.1450   20.2830 H   0  0  0  0  0  0  0  0  0  0  0  0
  -20.9940  -25.2060   20.8940 C   0  0  0  0  0  0  0  0  0  0  0  0
  -23.5660  -25.2460   21.1360 C   0  0  0  0  0  3  0  0  0  0  0  0
  -23.5720  -24.0930   20.1050 C   0  0  0  0  0  2  0  0  0  0  0  0
  -22.4370  -24.1890   19.0810 C   0  0  0  0  0  2  0  0  0  0  0  0
  -21.0790  -24.1670   19.7880 C   0  0  0  0  0  2  0  0  0  0  0  0
  -22.1610  -25.7210   21.5190 C   0  0  0  0  0  0  0  0  0  0  0  0
  -22.0250  -26.7100   22.5170 C   0  0  0  0  0  3  0  0  0  0  0  0
  -20.7540  -27.1850   22.8890 C   0  0  0  0  0  3  0  0  0  0  0  0
  -19.6020  -26.6640   22.2740 C   0  0  0  0  0  3  0  0  0  0  0  0
  -19.7220  -25.6720   21.2850 C   0  0  0  0  0  3  0  0  0  0  0  0
  -29.1530  -28.6130   22.9800 C   0  0  0  0  0  3  0  0  0  0  0  0
  -28.9750  -29.8540   23.7480 N   0  0  0  0  0  0  0  0  0  0  0  0
  -29.4460  -31.0530   23.3800 C   0  0  0  0  0  0  0  0  0  0  0  0
  -30.1500  -31.2150   22.3800 O   0  0  0  0  0  0  0  0  0  0  0  0
  -28.3580  -29.8050   24.5450 H   0  0  0  0  0  0  0  0  0  0  0  0
  -27.9720  -33.0800   23.5870 C   0  0  0  0  0  1  0  0  0  0  0  0
  -29.0810  -32.2590   24.2630 C   0  0  0  0  0  3  0  0  0  0  0  0
  -31.1870  -32.5460   25.4910 C   0  0  0  0  0  1  0  0  0  0  0  0
  -30.2300  -33.1380   24.5610 N   0  0  0  0  0  0  0  0  0  0  0  0
  -29.9160  -34.0240   24.9470 H   0  0  0  0  0  0  0  0  0  0  0  0
  -29.6210  -27.4380   23.9250 C   0  0  1  0  0  0  0  0  0  0  0  0
  -28.5370  -26.9830   24.9300 C   0  0  0  0  0  1  0  0  0  0  0  0
  -30.0510  -26.2010   23.1000 C   0  0  0  0  0  1  0  0  0  0  0  0
  -30.8630  -27.8820   24.7360 C   0  0  0  0  0  1  0  0  0  0  0  0
  -25.0310  -17.5230   22.4710 C   0  0  0  0  0  2  0  0  0  0  0  0
  -24.3950  -16.0600   22.3130 C   0  0  0  0  0  2  0  0  0  0  0  0
  -24.7000  -14.9460   23.3210 N   0  0  0  0  0  4  0  0  0  0  0  0
  -24.5410  -15.3010   24.2600 H   0  0  0  0  0  0  0  0  0  0  0  0
  -23.9790  -14.2490   23.2050 H   0  0  0  0  0  0  0  0  0  0  0  0
  -26.0710  -14.2610   23.2870 C   0  0  0  0  0  2  0  0  0  0  0  0
  -26.4520  -13.0290   24.3370 C   0  0  0  0  0  2  0  0  0  0  0  0
  -26.6850  -11.4530   23.7770 C   0  0  0  0  0  2  0  0  0  0  0  0
  -27.8640  -10.2580   24.5170 C   0  0  0  0  0  2  0  0  0  0  0  0
  -28.7690   -9.1030   23.6420 O   0  0  0  0  0  0  0  0  0  0  0  0
  -29.3890   -8.8500   22.0780 C   0  0  0  0  0  2  0  0  0  0  0  0
  -30.4070   -9.6670   20.7690 C   0  0  0  0  0  2  0  0  0  0  0  0
  -33.1410  -10.9110   20.3440 C   0  0  0  0  0  0  0  0  0  0  0  0
  -33.1000  -11.6160   22.3650 C   0  0  0  0  0  2  0  0  0  0  0  0
  -31.8500  -10.9320   22.7620 C   0  0  0  0  0  2  0  0  0  0  0  0
  -30.9200  -11.9710   22.1230 C   0  0  0  0  0  2  0  0  0  0  0  0
  -30.6520  -12.2710   20.5510 C   0  0  0  0  0  3  0  0  0  0  0  0
  -31.9530  -13.0410   20.4330 C   0  0  0  0  0  2  0  0  0  0  0  0
  -32.9720  -12.0500   20.9530 N   0  0  0  0  0  0  0  0  0  0  0  0
  -34.3390  -10.7290   20.0840 O   0  0  0  0  0  0  0  0  0  0  0  0
  -32.0550   -9.9050   20.3700 N   0  0  0  0  0  0  0  0  0  0  0  0
  -32.4240   -9.0310   20.0140 H   0  0  0  0  0  0  0  0  0  0  0  0
  -28.2650  -13.8690   20.5630 C   0  0  0  0  0  0  0  0  0  0  0  0
  -26.6520  -13.2980   20.6250 C   0  0  0  0  0  3  0  0  0  0  0  0
  -26.5480  -11.6020   20.0350 C   0  0  0  0  0  3  0  0  0  0  0  0
  -29.3240  -12.5310   19.9320 N   0  0  0  0  0  2  0  0  0  0  0  0
  -28.1540  -11.1180   19.4650 N   0  0  0  0  0  1  0  0  0  0  0  0
  -25.6240  -10.6090   20.3820 C   0  0  0  0  0  0  0  0  0  0  0  0
  -25.9000   -9.3750   21.0290 C   0  0  0  0  0  3  0  0  0  0  0  0
  -24.8910   -8.4130   21.1500 C   0  0  0  0  0  3  0  0  0  0  0  0
  -23.5890   -8.7830   20.7500 C   0  0  0  0  0  0  0  0  0  0  0  0
  -23.3280  -10.0360   20.1830 C   0  0  0  0  0  3  0  0  0  0  0  0
  -24.3520  -10.9470   19.9680 C   0  0  0  0  0  3  0  0  0  0  0  0
  -22.4910   -7.9950   20.8550 O   0  0  0  0  0  0  0  0  0  0  0  0
  -22.4820   -6.8920   21.6630 C   0  0  0  0  0  0  0  0  0  0  0  0
  -22.8930   -6.9360   23.0100 C   0  0  0  0  0  3  0  0  0  0  0  0
  -22.7770   -5.7840   23.8050 C   0  0  0  0  0  3  0  0  0  0  0  0
  -22.2340   -4.6010   23.2580 C   0  0  0  0  0  0  0  0  0  0  0  0
  -21.8260   -4.5700   21.9120 C   0  0  0  0  0  3  0  0  0  0  0  0
  -21.9460   -5.7190   21.1170 C   0  0  0  0  0  0  0  0  0  0  0  0
  -21.5260   -5.7030   19.8270 F   0  0  0  0  0  0  0  0  0  0  0  0
  -22.1020   -3.5010   24.0230 F   0  0  0  0  0  0  0  0  0  0  0  0
  -25.4730  -14.0710   20.2310 C   0  0  0  0  0  0  0  0  0  0  0  0
  -24.3380  -13.5390   20.6540 N   0  0  0  0  0  0  0  0  0  0  0  0
  -25.5540  -15.0540   19.5040 O   0  0  0  0  0  0  0  0  0  0  0  0
  -24.3650  -12.7160   21.2450 H   0  0  0  0  0  0  0  0  0  0  0  0
  -23.4560  -13.9630   20.4020 H   0  0  0  0  0  0  0  0  0  0  0  0
  -28.7860  -15.1260   20.3080 N   0  0  0  0  0  4  0  0  0  0  0  0
  -28.1950  -15.9400   20.1810 H   0  0  0  0  0  0  0  0  0  0  0  0
  -29.7160  -15.2930   19.9150 H   0  0  0  0  0  0  0  0  0  0  0  0
  1 52  1  0
  2  1  1  0
  2  3  1  0
  2  4  1  0
  5  2  1  0
  6  7  2  0
  7  5  1  0
  8  6  1  0
  9 11  1  0
  9  8  1  0
 10  9  1  0
 11 13  1  0
 12 23  2  0
 13 18  1  0
 14 24  1  0
 14 22  1  0
 15 21  1  0
 15 17  1  0
 16 22  1  0
 17 16  1  0
 18 17  2  0
 19 20  1  0
 19 13  2  0
 20 15  2  0
 21 14  1  0
 22 12  1  0
 24 26  2  0
 25 24  1  0
 27 25  1  0
 28 37  2  0
 28 33  1  0
 29 25  1  0
 29 33  1  0
 30 29  1  0
 31 32  1  0
 31 30  1  0
 32 28  1  0
 33 34  2  0
 34 35  1  0
 36 35  2  0
 37 36  1  0
 38 12  1  0
 38 39  1  0
 38 48  1  0
 39 42  1  0
 40 39  1  0
 40 44  1  0
 41 40  2  0
 44 43  1  0
 44 46  1  0
 46 47  1  0
 46 45  1  0
 48 51  1  1
 48 49  1  0
 50 48  1  0
 53 52  1  0
 53 54  1  0
 54 55  1  0
 56 54  1  0
 57 54  1  0
 57 58  1  0
 59 58  1  0
 59 60  1  0
 61 60  1  0
 62 61  1  0
 63 62  1  0
 64 72  1  0
 64 70  1  0
 65 66  1  0
 67 66  1  0
 68 77  1  0
 68 67  1  0
 69 68  1  0
 69 70  1  0
 70 65  1  0
 71 64  2  0
 72 63  1  0
 73 72  1  0
 74 75  1  0
 75 94  1  0
 76 78  1  0
 76 79  1  0
 76 75  1  0
 77 74  1  0
 79 80  1  0
 80 81  2  0
 82 85  1  0
 82 81  1  0
 83 82  2  0
 84 83  1  0
 84 79  2  0
 85 86  1  0
 86 87  1  0
 87 88  2  0
 89 88  1  0
 89 93  1  0
 90 89  2  0
 91 86  2  0
 91 90  1  0
 92 91  1  0
 94 95  1  0
 95 97  1  0
 96 94  2  0
 98 95  1  0
 99 74  2  0
100 99  1  0
101 99  1  0
M  ISO  4   9 101  11 101  64 100  72 100
M  END
>  <TORSDO>  (61) 
F 31

>  <SCORE>  (61) 
17.554

>  <name>  (61) 
66

>  <ligand_id>  (61) 
66

>  <original_smiles>  (61) 
[H]C(=C([H])C([H])([H])[N+]([H])([H])C([H])([H])C([H])([H])C([H])([H])[N+]([H])([H])C([H])([H])C([H])([H])C([H])([H])C([H])([H])OC([H])([H])C([H])([H])N([H])C(=O)N1C([H])([H])C([H])([H])C([H])([H])C([H])(n2nc(-c3c([H])c([H])c(Oc4c([H])c([H])c(F)c([H])c4F)c([H])c3[H])c(C(=O)N([H])[H])c2N([H])[H])C1([H])[H])C([H])([H])N([H])Oc1c([H])c([H])c2c(c1[H])C([H])([H])N(C(=O)C([H])(N([H])C(=O)C([H])(N([H])C([H])([H])[H])C([H])([H])[H])C(C([H])([H])[H])(C([H])([H])[H])C([H])([H])[H])C([H])(C(=O)N([H])C1([H])c3c([H])c([H])c([H])c([H])c3C([H])([H])C([H])([H])C1([H])[H])C2([H])[H]

>  <smiles>  (61) 
[H]C(=C([H])C([H])([H])[N+]([H])([H])C([H])([H])C([H])([H])C([H])([H])[N+]([H])([H])C([H])([H])C([H])([H])C([H])([H])C([H])([H])OC([H])([H])C([H])([H])N([H])C(=O)N1C([H])([H])C([H])([H])C([H])([H])C([H])(n2nc(-c3c([H])c([H])c(Oc4c([H])c([H])c(F)c([H])c4F)c([H])c3[H])c(C(=O)N([H])[H])c2N([H])[H])C1([H])[H])C([H])([H])N([H])Oc1c([H])c([H])c2c(c1[H])C([H])([H])N(C(=O)C([H])(N([H])C(=O)C([H])(N([H])C([H])([H])[H])C([H])([H])[H])C(C([H])([H])[H])(C([H])([H])[H])C([H])([H])[H])C([H])(C(=O)N([H])C1([H])c3c([H])c([H])c([H])c([H])c3C([H])([H])C([H])([H])C1([H])[H])C2([H])[H]

$$$$
67:0:0
     RDKit          3D

104109  0  0  1  0  0  0  0  0999 V2000
  -20.6520  -26.4380   24.0840 C   0  0  0  0  0  2  0  0  0  0  0  0
  -21.8940  -25.5360   24.2980 N   0  0  0  0  0  4  0  0  0  0  0  0
  -22.0140  -24.8930   23.5330 H   0  0  0  0  0  0  0  0  0  0  0  0
  -21.5780  -24.9530   25.0590 H   0  0  0  0  0  0  0  0  0  0  0  0
  -23.2360  -26.0350   24.8500 C   0  0  0  0  0  2  0  0  0  0  0  0
  -24.6110  -25.5270   24.1830 C   0  0  0  0  0  3  0  0  0  0  0  0
  -25.7790  -26.5980   24.0670 C   0  0  0  0  0  3  0  0  0  0  0  0
  -26.9750  -26.3190   23.1750 N   0  0  0  0  0  4  0  0  0  0  0  0
  -27.4180  -25.4470   23.4210 H   0  0  0  0  0  0  0  0  0  0  0  0
  -27.6300  -27.0340   23.4570 H   0  0  0  0  0  0  0  0  0  0  0  0
  -26.8910  -26.4780   21.6700 C   0  0  0  0  0  2  0  0  0  0  0  0
  -28.3090  -26.5320   20.9160 C   0  0  0  0  0  2  0  0  0  0  0  0
  -28.4240  -26.9710   19.5080 O   0  0  0  0  0  0  0  0  0  0  0  0
  -24.6960  -31.6430   22.9570 C   0  0  0  0  0  0  0  0  0  0  0  0
  -27.5120  -27.9460   19.2600 C   0  0  0  0  0  0  0  0  0  0  0  0
  -23.6850  -30.6720   20.9500 C   0  0  0  0  0  3  0  0  0  0  0  0
  -25.2000  -29.5010   19.3080 C   0  0  0  0  0  0  0  0  0  0  0  0
  -26.1730  -31.0690   21.0180 C   0  0  0  0  0  2  0  0  0  0  0  0
  -26.3000  -29.8710   20.0930 C   0  0  0  0  0  0  0  0  0  0  0  0
  -27.4730  -29.0990   20.0650 C   0  0  0  0  0  3  0  0  0  0  0  0
  -26.4440  -27.6290   18.4000 C   0  0  0  0  0  3  0  0  0  0  0  0
  -25.2680  -28.3940   18.4430 C   0  0  0  0  0  3  0  0  0  0  0  0
  -23.9570  -30.3350   19.4620 C   0  0  0  0  0  2  0  0  0  0  0  0
  -24.8680  -31.1540   21.6960 N   0  0  0  0  0  0  0  0  0  0  0  0
  -23.5680  -31.7490   23.4650 O   0  0  0  0  0  0  0  0  0  0  0  0
  -23.1650  -29.4140   21.6080 C   0  0  0  0  0  0  0  0  0  0  0  0
  -21.8730  -29.3580   21.6300 N   0  0  0  0  0  0  0  0  0  0  0  0
  -23.8780  -28.5210   22.0790 O   0  0  0  0  0  0  0  0  0  0  0  0
  -21.2990  -30.1010   21.2550 H   0  0  0  0  0  0  0  0  0  0  0  0
  -18.0530  -28.5920   22.3580 C   0  0  0  0  0  3  0  0  0  0  0  0
  -21.2950  -28.3220   22.3470 C   0  0  0  0  0  3  0  0  0  0  0  0
  -21.4820  -26.3020   21.4420 C   0  0  0  0  0  2  0  0  0  0  0  0
  -19.1820  -25.3560   20.8990 C   0  0  0  0  0 15  0  0  0  0  0  0
  -17.5830  -26.8780   21.4100 C   0  0  0  0  0 15  0  0  0  0  0  0
  -19.5960  -29.1530   22.7430 C   0  0  0  0  0  0  0  0  0  0  0  0
  -19.7190  -30.0530   23.8330 C   0  0  0  0  0  3  0  0  0  0  0  0
  -18.6210  -30.5250   24.5690 C   0  0  0  0  0  3  0  0  0  0  0  0
  -17.3230  -30.0940   24.2540 C   0  0  0  0  0  3  0  0  0  0  0  0
  -17.0600  -29.1600   23.2140 C   0  0  0  0  0  3  0  0  0  0  0  0
  -25.9070  -32.1100   23.8070 C   0  0  0  0  0  3  0  0  0  0  0  0
  -25.6660  -33.5130   24.1590 N   0  0  0  0  0  0  0  0  0  0  0  0
  -26.1520  -34.5540   23.4720 C   0  0  0  0  0  0  0  0  0  0  0  0
  -26.9210  -34.4250   22.5160 O   0  0  0  0  0  0  0  0  0  0  0  0
  -25.0020  -33.6880   24.8990 H   0  0  0  0  0  0  0  0  0  0  0  0
  -24.6120  -36.4840   22.9910 C   0  0  0  0  0  1  0  0  0  0  0  0
  -25.7190  -35.9620   23.9210 C   0  0  0  0  0  3  0  0  0  0  0  0
  -27.8080  -36.6450   25.0140 C   0  0  0  0  0  1  0  0  0  0  0  0
  -26.8340  -36.9310   23.9630 N   0  0  0  0  0  0  0  0  0  0  0  0
  -26.4850  -37.8760   24.1020 H   0  0  0  0  0  0  0  0  0  0  0  0
  -26.1450  -31.2330   25.0960 C   0  0  1  0  0  0  0  0  0  0  0  0
  -24.8890  -31.0620   25.9830 C   0  0  0  0  0  1  0  0  0  0  0  0
  -26.6470  -29.8220   24.7110 C   0  0  0  0  0  1  0  0  0  0  0  0
  -27.2540  -31.8810   25.9580 C   0  0  0  0  0  1  0  0  0  0  0  0
  -20.3170  -27.0300   20.6920 C   0  0  0  0  0  2  0  0  0  0  0  0
  -19.9690  -26.9260   22.6500 C   0  0  0  0  0  2  0  0  0  0  0  0
  -21.6250  -26.3530   19.6220 C   0  0  2  0  0  0  0  0  0  0  0  0
  -22.8810  -25.4550   19.9640 N   0  0  0  0  0  0  0  0  0  0  0  0
  -21.5350  -26.6130   18.4230 O   0  0  0  0  0  1  0  0  0  0  0  0
  -22.8490  -25.3210   20.9640 H   0  0  0  0  0  0  0  0  0  0  0  0
  -24.3490  -24.6320   19.3760 C   0  0  0  0  0  3  0  0  0  0  0  0
  -25.6990  -23.3760   19.9830 C   0  0  0  0  0  3  0  0  0  0  0  0
  -27.2740  -22.8070   19.4130 N   0  0  0  0  0  4  0  0  0  0  0  0
  -27.8280  -23.6460   19.4420 H   0  0  0  0  0  0  0  0  0  0  0  0
  -27.0970  -22.6360   18.4370 H   0  0  0  0  0  0  0  0  0  0  0  0
  -28.4470  -21.5490   19.8540 C   0  0  0  0  0  3  0  0  0  0  0  0
  -30.2630  -21.0380   19.3810 C   0  0  0  0  0  3  0  0  0  0  0  0
  -32.8200  -19.0600   19.3880 C   0  0  0  0  0  0  0  0  0  0  0  0
  -34.1010  -16.8430   18.6400 C   0  0  0  0  0  2  0  0  0  0  0  0
  -33.3270  -16.1780   17.4630 C   0  0  0  0  0  2  0  0  0  0  0  0
  -32.0760  -15.4330   17.9750 C   0  0  0  0  0  2  0  0  0  0  0  0
  -31.3590  -16.2450   19.0770 C   0  0  0  0  0  3  0  0  0  0  0  0
  -32.3100  -16.7110   20.1750 C   0  0  0  0  0  2  0  0  0  0  0  0
  -33.1240  -17.6650   19.4760 N   0  0  0  0  0  0  0  0  0  0  0  0
  -33.8790  -19.6360   19.0230 O   0  0  0  0  0  0  0  0  0  0  0  0
  -31.3800  -19.6590   19.5710 N   0  0  0  0  0  0  0  0  0  0  0  0
  -30.7940  -18.8700   19.8170 H   0  0  0  0  0  0  0  0  0  0  0  0
  -29.0380  -16.1640   20.0520 C   0  0  0  0  0  0  0  0  0  0  0  0
  -28.2920  -15.1300   20.5380 C   0  0  0  0  0  0  0  0  0  0  0  0
  -29.1230  -13.9680   20.4600 C   0  0  0  0  0  0  0  0  0  0  0  0
  -30.2380  -15.5900   19.6790 N   0  0  0  0  0  0  0  0  0  0  0  0
  -30.3260  -14.2840   20.0110 N   0  0  0  0  0  0  0  0  0  0  0  0
  -28.8190  -12.5610   20.7130 C   0  0  0  0  0  0  0  0  0  0  0  0
  -29.7830  -11.6830   21.2530 C   0  0  0  0  0  3  0  0  0  0  0  0
  -29.4560  -10.3340   21.5000 C   0  0  0  0  0  3  0  0  0  0  0  0
  -28.1540   -9.8570   21.2130 C   0  0  0  0  0  0  0  0  0  0  0  0
  -27.2090  -10.7300   20.6480 C   0  0  0  0  0  3  0  0  0  0  0  0
  -27.5370  -12.0710   20.3980 C   0  0  0  0  0  3  0  0  0  0  0  0
  -27.7520   -8.5580   21.4050 O   0  0  0  0  0  0  0  0  0  0  0  0
  -28.5530   -7.6440   22.0410 C   0  0  0  0  0  0  0  0  0  0  0  0
  -29.2710   -7.9700   23.2140 C   0  0  0  0  0  3  0  0  0  0  0  0
  -30.0240   -6.9790   23.8740 C   0  0  0  0  0  3  0  0  0  0  0  0
  -30.0550   -5.6650   23.3710 C   0  0  0  0  0  0  0  0  0  0  0  0
  -29.3370   -5.3390   22.2060 C   0  0  0  0  0  3  0  0  0  0  0  0
  -28.5860   -6.3260   21.5460 C   0  0  0  0  0  0  0  0  0  0  0  0
  -27.8800   -6.0040   20.4350 F   0  0  0  0  0  0  0  0  0  0  0  0
  -30.7710   -4.7110   24.0090 F   0  0  0  0  0  0  0  0  0  0  0  0
  -26.8490  -15.1950   20.9310 C   0  0  0  0  0  0  0  0  0  0  0  0
  -26.4170  -14.3010   21.8140 N   0  0  0  0  0  0  0  0  0  0  0  0
  -26.1080  -16.0700   20.4850 O   0  0  0  0  0  0  0  0  0  0  0  0
  -27.0340  -13.5950   22.1890 H   0  0  0  0  0  0  0  0  0  0  0  0
  -25.4540  -14.3160   22.1170 H   0  0  0  0  0  0  0  0  0  0  0  0
  -28.7860  -17.5250   19.8660 N   0  0  0  0  0  0  0  0  0  0  0  0
  -27.8420  -17.8350   20.0680 H   0  0  0  0  0  0  0  0  0  0  0  0
  -29.1830  -18.0350   19.0880 H   0  0  0  0  0  0  0  0  0  0  0  0
  1  2  1  0
  2  5  1  0
  2  4  1  0
  3  2  1  0
  6  5  1  0
  7  6  2  0
  8  9  1  0
  8 10  1  0
  8  7  1  0
 11  8  1  0
 12 11  1  0
 13 12  1  0
 14 25  2  0
 15 13  1  0
 15 20  1  0
 16 23  1  0
 16 26  1  0
 16 24  1  0
 17 23  1  0
 17 19  1  0
 18 24  1  0
 19 18  1  0
 20 19  2  0
 21 22  1  0
 21 15  2  0
 22 17  2  0
 24 14  1  0
 26 27  1  0
 26 28  2  0
 27 31  1  0
 29 27  1  0
 30 35  2  0
 30 39  1  0
 31 55  1  0
 31 35  1  0
 35 36  1  0
 36 37  2  0
 38 37  1  0
 39 38  2  0
 40 14  1  0
 40 41  1  0
 40 50  1  0
 41 44  1  0
 42 46  1  0
 42 41  1  0
 43 42  2  0
 46 45  1  0
 46 48  1  0
 48 49  1  0
 48 47  1  0
 50 53  1  1
 50 51  1  0
 52 50  1  0
 54 32  1  0
 55  1  1  0
 56 57  1  0
 56 54  1  0
 56 32  1  0
 57 59  1  0
 56 58  1  1
 60 57  1  0
 60 61  2  0
 62 63  1  0
 62 65  1  0
 62 61  1  0
 64 62  1  0
 66 75  1  0
 66 65  2  0
 67 73  1  0
 67 75  1  0
 68 73  1  0
 69 70  1  0
 69 68  1  0
 71 70  1  0
 71 80  1  0
 71 72  1  0
 73 72  1  0
 74 67  2  0
 75 76  1  0
 77 78  2  0
 78 97  1  0
 79 78  1  0
 79 82  1  0
 80 81  1  0
 80 77  1  0
 81 79  2  0
 82 83  1  0
 83 84  2  0
 85 88  1  0
 85 84  1  0
 86 85  2  0
 87 86  1  0
 87 82  2  0
 88 89  1  0
 89 90  1  0
 90 91  2  0
 92 91  1  0
 92 96  1  0
 93 92  2  0
 94 89  2  0
 94 93  1  0
 95 94  1  0
 97 98  1  0
 98101  1  0
 98100  1  0
 99 97  2  0
102 77  1  0
102103  1  0
104102  1  0
M  ISO  4  12 101  13 101  67 100  75 100
M  END
>  <TORSDO>  (62) 
F 30

>  <SCORE>  (62) 
-3.823

>  <name>  (62) 
67

>  <ligand_id>  (62) 
67

>  <original_smiles>  (62) 
[H]C(C(=O)N([H])C([H])([H])C([H])([H])[N+]([H])([H])C([H])([H])C([H])([H])N([H])C(=O)N1C([H])([H])C([H])([H])C([H])([H])C([H])(n2nc(-c3c([H])c([H])c(Oc4c([H])c([H])c(F)c([H])c4F)c([H])c3[H])c(C(=O)N([H])[H])c2N([H])[H])C1([H])[H])=C([H])C([H])([H])[N+]([H])([H])C([H])([H])C([H])([H])C([H])([H])[N+]([H])([H])C([H])([H])C([H])([H])Oc1c([H])c([H])c2c(c1[H])C([H])([H])N(C(=O)C([H])(N([H])C(=O)C([H])(N([H])C([H])([H])[H])C([H])([H])[H])C(C([H])([H])[H])(C([H])([H])[H])C([H])([H])[H])C([H])(C(=O)N([H])C1([H])c3c([H])c([H])c([H])c([H])c3C([H])([H])C([H])([H])C1([H])[H])C2([H])[H]

>  <smiles>  (62) 
[H]C(C(=O)N([H])C([H])([H])C([H])([H])[N+]([H])([H])C([H])([H])C([H])([H])N([H])C(=O)N1C([H])([H])C([H])([H])C([H])([H])C([H])(n2nc(-c3c([H])c([H])c(Oc4c([H])c([H])c(F)c([H])c4F)c([H])c3[H])c(C(=O)N([H])[H])c2N([H])[H])C1([H])[H])=C([H])C([H])([H])[N+]([H])([H])C([H])([H])C([H])([H])C([H])([H])[N+]([H])([H])C([H])([H])C([H])([H])Oc1c([H])c([H])c2c(c1[H])C([H])([H])N(C(=O)C([H])(N([H])C(=O)C([H])(N([H])C([H])([H])[H])C([H])([H])[H])C(C([H])([H])[H])(C([H])([H])[H])C([H])([H])[H])C([H])(C(=O)N([H])C1([H])c3c([H])c([H])c([H])c([H])c3C([H])([H])C([H])([H])C1([H])[H])C2([H])[H]

$$$$
68:0:0
     RDKit          3D

101108  0  0  1  0  0  0  0  0999 V2000
  -26.9710  -20.6830   18.2820 C   0  0  0  0  0  3  0  0  0  0  0  0
  -27.2550  -19.3710   18.3820 C   0  0  0  0  0  3  0  0  0  0  0  0
  -26.7410  -18.5910   19.4890 C   0  0  0  0  0  0  0  0  0  0  0  0
  -27.3170  -17.3890   19.5480 N   0  0  0  0  0  0  0  0  0  0  0  0
  -25.9190  -18.9770   20.3250 O   0  0  0  0  0  0  0  0  0  0  0  0
  -27.9990  -17.1660   18.8370 H   0  0  0  0  0  0  0  0  0  0  0  0
  -27.2980  -16.4910   20.6990 C   0  0  0  0  0  2  0  0  0  0  0  0
  -28.4320  -16.8710   21.6640 C   0  0  0  0  0  2  0  0  0  0  0  0
  -29.6590  -16.7420   20.9570 O   0  0  0  0  0  0  0  0  0  0  0  0
  -30.7490  -17.4190   21.5600 C   0  0  0  0  0  2  0  0  0  0  0  0
  -32.0360  -16.8960   20.9090 C   0  0  0  0  0  2  0  0  0  0  0  0
  -32.2590  -15.3900   21.1210 C   0  0  0  0  0  2  0  0  0  0  0  0
  -33.4880  -14.8720   20.3560 C   0  0  0  0  0  2  0  0  0  0  0  0
  -33.7030  -13.3550   20.4860 C   0  0  0  0  0  2  0  0  0  0  0  0
  -32.2680  -11.7640   19.2020 C   0  0  0  0  0  0  0  0  0  0  0  0
  -31.1290   -9.6530   18.6370 C   0  0  0  0  0  2  0  0  0  0  0  0
  -30.0230   -9.7970   17.5810 C   0  0  0  0  0  2  0  0  0  0  0  0
  -28.6880  -10.1770   18.2440 C   0  0  0  0  0  2  0  0  0  0  0  0
  -28.8290  -11.3880   19.2010 C   0  0  0  0  0  3  0  0  0  0  0  0
  -30.0150  -11.1970   20.1720 C   0  0  0  0  0  2  0  0  0  0  0  0
  -31.2350  -10.9080   19.3930 N   0  0  0  0  0  0  0  0  0  0  0  0
  -33.0680  -11.6730   18.2660 O   0  0  0  0  0  0  0  0  0  0  0  0
  -32.4850  -12.5880   20.2360 N   0  0  0  0  0  0  0  0  0  0  0  0
  -31.8060  -12.5460   20.9830 H   0  0  0  0  0  0  0  0  0  0  0  0
  -27.0630  -12.8440   20.3790 C   0  0  0  0  0  0  0  0  0  0  0  0
  -25.8410  -12.5440   20.9180 C   0  0  0  0  0  0  0  0  0  0  0  0
  -25.6660  -11.1370   20.7410 C   0  0  0  0  0  0  0  0  0  0  0  0
  -27.5810  -11.6440   19.9180 N   0  0  0  0  0  0  0  0  0  0  0  0
  -26.7500  -10.6060   20.1880 N   0  0  0  0  0  0  0  0  0  0  0  0
  -24.5090  -10.2750   21.0130 C   0  0  0  0  0  0  0  0  0  0  0  0
  -24.6320   -9.0930   21.7760 C   0  0  0  0  0  3  0  0  0  0  0  0
  -23.5020   -8.2890   22.0390 C   0  0  0  0  0  3  0  0  0  0  0  0
  -22.2320   -8.6660   21.5410 C   0  0  0  0  0  0  0  0  0  0  0  0
  -22.1200   -9.8310   20.7620 C   0  0  0  0  0  3  0  0  0  0  0  0
  -23.2460  -10.6280   20.4970 C   0  0  0  0  0  3  0  0  0  0  0  0
  -21.0840   -7.9350   21.7240 O   0  0  0  0  0  0  0  0  0  0  0  0
  -20.9450   -7.0660   22.7770 C   0  0  0  0  0  0  0  0  0  0  0  0
  -21.0310   -7.5000   24.1170 C   0  0  0  0  0  3  0  0  0  0  0  0
  -20.8120   -6.5860   25.1680 C   0  0  0  0  0  3  0  0  0  0  0  0
  -20.4990   -5.2450   24.8820 C   0  0  0  0  0  0  0  0  0  0  0  0
  -20.4080   -4.8120   23.5470 C   0  0  0  0  0  3  0  0  0  0  0  0
  -20.6270   -5.7210   22.4980 C   0  0  0  0  0  0  0  0  0  0  0  0
  -20.5170   -5.3040   21.2140 F   0  0  0  0  0  0  0  0  0  0  0  0
  -20.2820   -4.3680   25.8910 F   0  0  0  0  0  0  0  0  0  0  0  0
  -24.8460  -13.5200   21.4780 C   0  0  0  0  0  0  0  0  0  0  0  0
  -24.0420  -13.0890   22.4440 N   0  0  0  0  0  0  0  0  0  0  0  0
  -24.8090  -14.6880   21.0930 O   0  0  0  0  0  0  0  0  0  0  0  0
  -24.0860  -12.1350   22.7740 H   0  0  0  0  0  0  0  0  0  0  0  0
  -23.3730  -13.7200   22.8600 H   0  0  0  0  0  0  0  0  0  0  0  0
  -27.7660  -14.0330   20.2180 N   0  0  0  0  0  0  0  0  0  0  0  0
  -27.3500  -14.9320   20.4320 H   0  0  0  0  0  0  0  0  0  0  0  0
  -28.6150  -14.0990   19.6710 H   0  0  0  0  0  0  0  0  0  0  0  0
  -27.5340  -21.4830   17.2120 C   0  0  0  0  0  0  0  0  0  0  0  0
  -27.1040  -22.7460   17.2770 N   0  0  0  0  0  0  0  0  0  0  0  0
  -28.3370  -21.0900   16.3630 O   0  0  0  0  0  0  0  0  0  0  0  0
  -26.4200  -22.9570   17.9910 H   0  0  0  0  0  0  0  0  0  0  0  0
  -27.5910  -23.8750   16.4880 C   0  0  0  0  0  2  0  0  0  0  0  0
  -28.6130  -24.7200   17.2790 C   0  0  0  0  0  2  0  0  0  0  0  0
  -27.9930  -25.4310   18.4950 C   0  0  0  0  0  2  0  0  0  0  0  0
  -28.8410  -26.5750   19.0830 C   0  0  0  0  0  2  0  0  0  0  0  0
  -28.3820  -27.0460   20.3530 O   0  0  0  0  0  0  0  0  0  0  0  0
  -24.8310  -32.3040   23.5640 C   0  0  0  0  0  0  0  0  0  0  0  0
  -27.2150  -27.7750   20.3990 C   0  0  0  0  0  0  0  0  0  0  0  0
  -23.5040  -30.8930   22.0260 C   0  0  0  0  0  3  0  0  0  0  0  0
  -24.8430  -29.3050   20.5520 C   0  0  0  0  0  0  0  0  0  0  0  0
  -26.0190  -31.2040   21.6710 C   0  0  0  0  0  2  0  0  0  0  0  0
  -26.0420  -29.8200   21.0570 C   0  0  0  0  0  0  0  0  0  0  0  0
  -27.2290  -29.0580   20.9880 C   0  0  0  0  0  3  0  0  0  0  0  0
  -25.9880  -27.2550   19.9320 C   0  0  0  0  0  3  0  0  0  0  0  0
  -24.8080  -28.0160   19.9960 C   0  0  0  0  0  3  0  0  0  0  0  0
  -23.6170  -30.1830   20.6520 C   0  0  0  0  0  2  0  0  0  0  0  0
  -24.8070  -31.4820   22.4780 N   0  0  0  0  0  0  0  0  0  0  0  0
  -23.7890  -32.6080   24.1610 O   0  0  0  0  0  0  0  0  0  0  0  0
  -22.8940  -29.9030   23.0440 C   0  0  0  0  0  0  0  0  0  0  0  0
  -21.6240  -29.5280   22.8240 N   0  0  0  0  0  0  0  0  0  0  0  0
  -23.5640  -29.4720   23.9860 O   0  0  0  0  0  0  0  0  0  0  0  0
  -21.1420  -29.9330   22.0340 H   0  0  0  0  0  0  0  0  0  0  0  0
  -18.4780  -27.7640   23.0220 C   0  0  0  0  0  0  0  0  0  0  0  0
  -20.8550  -28.5780   23.6270 C   0  0  0  0  0  3  0  0  0  0  0  0
  -21.3110  -27.1250   23.3570 C   0  0  0  0  0  2  0  0  0  0  0  0
  -20.4900  -26.4270   22.2690 C   0  0  0  0  0  2  0  0  0  0  0  0
  -19.0090  -26.3880   22.6550 C   0  0  0  0  0  2  0  0  0  0  0  0
  -19.3470  -28.7970   23.4640 C   0  0  0  0  0  0  0  0  0  0  0  0
  -18.8060  -30.0670   23.7580 C   0  0  0  0  0  3  0  0  0  0  0  0
  -17.4260  -30.3120   23.6220 C   0  0  0  0  0  3  0  0  0  0  0  0
  -16.5690  -29.2810   23.2010 C   0  0  0  0  0  3  0  0  0  0  0  0
  -17.0940  -28.0100   22.9050 C   0  0  0  0  0  3  0  0  0  0  0  0
  -26.1640  -32.9200   24.0950 C   0  0  0  0  0  3  0  0  0  0  0  0
  -25.9060  -34.3340   24.3960 N   0  0  0  0  0  0  0  0  0  0  0  0
  -26.2020  -35.3520   23.5760 C   0  0  0  0  0  0  0  0  0  0  0  0
  -26.7930  -35.1990   22.5040 O   0  0  0  0  0  0  0  0  0  0  0  0
  -25.3720  -34.5290   25.2300 H   0  0  0  0  0  0  0  0  0  0  0  0
  -24.4700  -37.1540   23.3030 C   0  0  0  0  0  1  0  0  0  0  0  0
  -25.7740  -36.7640   24.0180 C   0  0  0  0  0  3  0  0  0  0  0  0
  -27.9840  -37.6470   24.6180 C   0  0  0  0  0  1  0  0  0  0  0  0
  -26.8040  -37.7960   23.7710 N   0  0  0  0  0  0  0  0  0  0  0  0
  -26.4230  -38.7270   23.9170 H   0  0  0  0  0  0  0  0  0  0  0  0
  -26.7350  -32.1700   25.3600 C   0  0  1  0  0  0  0  0  0  0  0  0
  -25.6850  -31.9380   26.4720 C   0  0  0  0  0  1  0  0  0  0  0  0
  -27.3120  -30.7920   24.9610 C   0  0  0  0  0  1  0  0  0  0  0  0
  -27.9040  -32.9810   25.9660 C   0  0  0  0  0  1  0  0  0  0  0  0
  1  2  2  0
  2  3  1  0
  3  4  1  0
  3  5  2  0
  4  7  1  0
  6  4  1  0
  7  8  1  0
  9 10  1  0
  9  8  1  0
 11 12  1  0
 11 10  1  0
 13 14  1  0
 13 12  1  0
 15 21  1  0
 15 23  1  0
 16 21  1  0
 17 18  1  0
 17 16  1  0
 19 18  1  0
 19 28  1  0
 19 20  1  0
 21 20  1  0
 22 15  2  0
 23 14  1  0
 23 24  1  0
 25 26  2  0
 26 45  1  0
 27 26  1  0
 27 30  1  0
 28 29  1  0
 28 25  1  0
 29 27  2  0
 30 31  1  0
 31 32  2  0
 33 36  1  0
 33 32  1  0
 34 33  2  0
 35 34  1  0
 35 30  2  0
 36 37  1  0
 37 38  1  0
 38 39  2  0
 40 39  1  0
 40 44  1  0
 41 40  2  0
 42 37  2  0
 42 41  1  0
 43 42  1  0
 45 46  1  0
 46 48  1  0
 46 49  1  0
 47 45  2  0
 50 25  1  0
 50 51  1  0
 52 50  1  0
 53 54  1  0
 53  1  1  0
 54 56  1  0
 55 53  2  0
 57 54  1  0
 57 58  1  0
 58 59  1  0
 59 60  1  0
 60 61  1  0
 61 63  1  0
 62 73  2  0
 63 68  1  0
 64 72  1  0
 64 74  1  0
 65 71  1  0
 65 67  1  0
 66 72  1  0
 67 66  1  0
 68 67  2  0
 69 70  1  0
 69 63  2  0
 70 65  2  0
 71 64  1  0
 72 62  1  0
 74 76  2  0
 75 74  1  0
 77 75  1  0
 78 83  1  0
 79 75  1  0
 80 79  1  0
 81 82  1  0
 81 80  1  0
 82 78  1  0
 83 79  1  0
 83 84  2  0
 85 84  1  0
 86 85  2  0
 87 78  2  0
 87 86  1  0
 88 62  1  0
 88 89  1  0
 88 98  1  0
 89 92  1  0
 90 94  1  0
 90 89  1  0
 91 90  2  0
 94 93  1  0
 96 97  1  0
 96 94  1  0
 96 95  1  0
 98101  1  1
 98 99  1  0
100 98  1  0
M  ISO  4  15 100  23 100  60 101  61 101
M  END
>  <TORSDO>  (63) 
F 30

>  <SCORE>  (63) 
-0.298

>  <name>  (63) 
68

>  <ligand_id>  (63) 
68

>  <original_smiles>  (63) 
[H]C(C(=O)N([H])C([H])([H])C([H])([H])OC([H])([H])C([H])([H])C([H])([H])C([H])([H])C([H])([H])N([H])C(=O)N1C([H])([H])C([H])([H])C([H])([H])C([H])(n2nc(-c3c([H])c([H])c(Oc4c([H])c([H])c(F)c([H])c4F)c([H])c3[H])c(C(=O)N([H])[H])c2N([H])[H])C1([H])[H])=C([H])C(=O)N([H])C([H])([H])C([H])([H])C([H])([H])C([H])([H])Oc1c([H])c([H])c2c(c1[H])C([H])([H])N(C(=O)C([H])(N([H])C(=O)C([H])(N([H])C([H])([H])[H])C([H])([H])[H])C(C([H])([H])[H])(C([H])([H])[H])C([H])([H])[H])C([H])(C(=O)N([H])C1([H])c3c([H])c([H])c([H])c([H])c3C([H])([H])C([H])([H])C1([H])[H])C2([H])[H]

>  <smiles>  (63) 
[H]C(C(=O)N([H])C([H])([H])C([H])([H])OC([H])([H])C([H])([H])C([H])([H])C([H])([H])C([H])([H])N([H])C(=O)N1C([H])([H])C([H])([H])C([H])([H])C([H])(n2nc(-c3c([H])c([H])c(Oc4c([H])c([H])c(F)c([H])c4F)c([H])c3[H])c(C(=O)N([H])[H])c2N([H])[H])C1([H])[H])=C([H])C(=O)N([H])C([H])([H])C([H])([H])C([H])([H])C([H])([H])Oc1c([H])c([H])c2c(c1[H])C([H])([H])N(C(=O)C([H])(N([H])C(=O)C([H])(N([H])C([H])([H])[H])C([H])([H])[H])C(C([H])([H])[H])(C([H])([H])[H])C([H])([H])[H])C([H])(C(=O)N([H])C1([H])c3c([H])c([H])c([H])c([H])c3C([H])([H])C([H])([H])C1([H])[H])C2([H])[H]

$$$$
69:0:0
     RDKit          3D

 98105  0  0  1  0  0  0  0  0999 V2000
  -23.1680  -23.8740   21.1420 C   0  0  0  0  0  2  0  0  0  0  0  0
  -24.2070  -22.7020   21.5780 O   0  0  0  0  0  0  0  0  0  0  0  0
  -25.7180  -22.3170   21.0890 C   0  0  0  0  0  3  0  0  0  0  0  0
  -26.5170  -20.7400   20.7760 C   0  0  0  0  0  3  0  0  0  0  0  0
  -28.7170  -19.0260   19.9390 C   0  0  0  0  0  0  0  0  0  0  0  0
  -27.9000  -20.2600   19.9780 N   0  0  0  0  0  0  0  0  0  0  0  0
  -28.3910  -18.1660   20.7610 O   0  0  0  0  0  0  0  0  0  0  0  0
  -28.2020  -20.9410   19.2890 H   0  0  0  0  0  0  0  0  0  0  0  0
  -30.0830  -18.5390   18.9480 C   0  0  0  0  0  0  0  0  0  0  0  0
  -32.1460  -16.3840   18.7520 C   0  0  0  0  0  0  0  0  0  0  0  0
  -32.4010  -13.8510   18.2280 C   0  0  0  0  0  2  0  0  0  0  0  0
  -31.3020  -13.3560   17.2470 C   0  0  0  0  0  2  0  0  0  0  0  0
  -29.9550  -13.1610   17.9660 C   0  0  0  0  0  2  0  0  0  0  0  0
  -29.6580  -14.3310   18.9350 C   0  0  0  0  0  3  0  0  0  0  0  0
  -30.8350  -14.5990   19.8700 C   0  0  0  0  0  2  0  0  0  0  0  0
  -31.8800  -15.0380   18.9910 N   0  0  0  0  0  0  0  0  0  0  0  0
  -33.2140  -16.5410   18.1150 O   0  0  0  0  0  0  0  0  0  0  0  0
  -31.3200  -17.4790   19.3080 N   0  0  0  0  0  4  0  0  0  0  0  0
  -32.0220  -18.0700   19.7370 H   0  0  0  0  0  0  0  0  0  0  0  0
  -27.8050  -15.0650   20.5000 C   0  0  0  0  0  0  0  0  0  0  0  0
  -26.7230  -14.4080   21.0060 C   0  0  0  0  0  0  0  0  0  0  0  0
  -26.7990  -13.0760   20.4960 C   0  0  0  0  0  0  0  0  0  0  0  0
  -28.4650  -14.1410   19.7180 N   0  0  0  0  0  0  0  0  0  0  0  0
  -27.8990  -12.9150   19.7750 N   0  0  0  0  0  0  0  0  0  0  0  0
  -25.8530  -11.9640   20.5950 C   0  0  0  0  0  0  0  0  0  0  0  0
  -26.0850  -10.8690   21.4570 C   0  0  0  0  0  3  0  0  0  0  0  0
  -25.1450   -9.8220   21.5470 C   0  0  0  0  0  3  0  0  0  0  0  0
  -23.9620   -9.8640   20.7710 C   0  0  0  0  0  0  0  0  0  0  0  0
  -23.7480  -10.9430   19.8970 C   0  0  0  0  0  3  0  0  0  0  0  0
  -24.6870  -11.9830   19.8040 C   0  0  0  0  0  3  0  0  0  0  0  0
  -23.0050   -8.8800   20.7740 O   0  0  0  0  0  0  0  0  0  0  0  0
  -22.5350   -8.3410   21.9430 C   0  0  0  0  0  0  0  0  0  0  0  0
  -21.8980   -9.1300   22.9250 C   0  0  0  0  0  3  0  0  0  0  0  0
  -21.3690   -8.5210   24.0810 C   0  0  0  0  0  3  0  0  0  0  0  0
  -21.4670   -7.1280   24.2520 C   0  0  0  0  0  0  0  0  0  0  0  0
  -22.0970   -6.3400   23.2710 C   0  0  0  0  0  3  0  0  0  0  0  0
  -22.6280   -6.9450   22.1200 C   0  0  0  0  0  0  0  0  0  0  0  0
  -23.2170   -6.1810   21.1680 F   0  0  0  0  0  0  0  0  0  0  0  0
  -20.9510   -6.5410   25.3570 F   0  0  0  0  0  0  0  0  0  0  0  0
  -25.6250  -15.0170   21.8220 C   0  0  0  0  0  0  0  0  0  0  0  0
  -25.0130  -14.2330   22.7010 N   0  0  0  0  0  0  0  0  0  0  0  0
  -25.3380  -16.2080   21.7160 O   0  0  0  0  0  0  0  0  0  0  0  0
  -25.2660  -13.2600   22.7930 H   0  0  0  0  0  0  0  0  0  0  0  0
  -24.2840  -14.6090   23.2900 H   0  0  0  0  0  0  0  0  0  0  0  0
  -28.2650  -16.3700   20.6160 N   0  0  0  0  0  0  0  0  0  0  0  0
  -27.7380  -17.0910   21.0950 H   0  0  0  0  0  0  0  0  0  0  0  0
  -29.0410  -16.7240   20.0760 H   0  0  0  0  0  0  0  0  0  0  0  0
  -31.6860  -20.5270   19.2860 C   0  0  0  0  0  1  0  0  0  0  0  0
  -31.3400  -19.6650   16.9190 C   0  0  0  0  0  1  0  0  0  0  0  0
  -30.7020  -19.8350   18.3180 C   0  0  0  0  0  3  0  0  0  0  0  0
  -21.5170  -23.9240   20.4370 C   0  0  0  0  0  2  0  0  0  0  0  0
  -20.8890  -24.7860   19.0090 C   0  0  0  0  0  2  0  0  0  0  0  0
  -20.3750  -24.6960   17.2910 C   0  0  0  0  0  2  0  0  0  0  0  0
  -20.8660  -25.5690   15.8930 O   0  0  0  0  0  1  0  0  0  0  0  0
  -23.6320  -26.4530   15.1550 C   0  0  1  0  0  0  0  0  0  0  0  0
  -25.4480  -25.8710   16.0290 C   0  0  0  0  0  1  0  0  0  0  0  0
  -26.6310  -25.1100   17.6240 C   0  0  0  0  0 15  0  0  0  0  0  0
  -27.1290  -24.9940   19.4530 O   0  0  0  0  0  1  0  0  0  0  0  0
  -25.5470  -29.3570   21.6720 C   0  0  0  0  0  0  0  0  0  0  0  0
  -28.2790  -24.7210   20.3640 C   0  0  0  0  0  3  0  0  0  0  0  0
  -26.2660  -28.3460   19.5870 C   0  0  0  0  0  3  0  0  0  0  0  0
  -28.5690  -27.0770   19.5880 C   0  0  0  0  0  3  0  0  0  0  0  0
  -27.7190  -28.1370   21.6660 C   0  0  0  0  0  2  0  0  0  0  0  0
  -28.3070  -26.9480   20.9520 C   0  0  0  0  0  3  0  0  0  0  0  0
  -28.3730  -25.6420   21.4580 C   0  0  0  0  0  2  0  0  0  0  0  0
  -29.3870  -24.7670   19.5730 C   0  0  0  0  0  2  0  0  0  0  0  0
  -29.3160  -26.0250   18.9450 C   0  0  0  0  0  2  0  0  0  0  0  0
  -27.6970  -28.1060   18.9060 C   0  0  0  0  0  2  0  0  0  0  0  0
  -26.5010  -28.6690   21.0080 N   0  0  0  0  0  0  0  0  0  0  0  0
  -24.5370  -29.7920   21.0980 O   0  0  0  0  0  0  0  0  0  0  0  0
  -25.1270  -27.2470   19.6020 C   0  0  0  0  0  0  0  0  0  0  0  0
  -24.4030  -27.0340   18.5420 N   0  0  0  0  0  0  0  0  0  0  0  0
  -24.8390  -26.5790   20.5800 O   0  0  0  0  0  0  0  0  0  0  0  0
  -24.5250  -27.6770   17.7760 H   0  0  0  0  0  0  0  0  0  0  0  0
  -24.0190  -25.0440   15.4120 C   0  0  1  0  0  0  0  0  0  0  0  0
  -23.6880  -25.7940   18.1670 C   0  0  0  0  0  3  0  0  0  0  0  0
  -24.3540  -24.3780   18.1530 C   0  0  0  0  0  2  0  0  0  0  0  0
  -25.0860  -23.6510   16.9010 C   0  0  0  0  0  2  0  0  0  0  0  0
  -24.5990  -23.7550   15.4720 C   0  0  0  0  0  2  0  0  0  0  0  0
  -23.3790  -26.0210   16.8400 C   0  0  0  0  0  3  0  0  0  0  0  0
  -22.8850  -27.6520   16.4890 C   0  0  0  0  0  3  0  0  0  0  0  0
  -23.0040  -28.2370   14.9590 C   0  0  0  0  0  3  0  0  0  0  0  0
  -23.5480  -27.3530   13.7310 C   0  0  0  0  0  3  0  0  0  0  0  0
  -24.0430  -25.8080   13.8960 C   0  0  0  0  0  3  0  0  0  0  0  0
  -25.7120  -29.6440   23.1810 C   0  0  0  0  0  3  0  0  0  0  0  0
  -25.5460  -31.0900   23.3400 N   0  0  0  0  0  0  0  0  0  0  0  0
  -26.5590  -31.9430   23.5200 C   0  0  0  0  0  0  0  0  0  0  0  0
  -27.7280  -31.5790   23.6650 O   0  0  0  0  0  0  0  0  0  0  0  0
  -24.6220  -31.4620   23.1800 H   0  0  0  0  0  0  0  0  0  0  0  0
  -26.6130  -34.1000   22.2250 C   0  0  0  0  0  1  0  0  0  0  0  0
  -26.2130  -33.4420   23.5560 C   0  0  0  0  0  3  0  0  0  0  0  0
  -26.3370  -33.7580   25.9880 C   0  0  0  0  0  1  0  0  0  0  0  0
  -26.8500  -34.1610   24.6800 N   0  0  0  0  0  0  0  0  0  0  0  0
  -26.7190  -35.1650   24.5840 H   0  0  0  0  0  0  0  0  0  0  0  0
  -24.6900  -28.8460   24.0770 C   0  0  1  0  0  0  0  0  0  0  0  0
  -23.2170  -28.9790   23.6220 C   0  0  0  0  0  1  0  0  0  0  0  0
  -25.0290  -27.3370   24.1150 C   0  0  0  0  0  1  0  0  0  0  0  0
  -24.7950  -29.3560   25.5320 C   0  0  0  0  0  1  0  0  0  0  0  0
  1  2  1  0
  3  2  1  0
  4  3  2  0
  5  6  1  0
  5  7  2  0
  6  4  1  0
  8  6  1  0
  9 18  2  3
  9  5  1  0
 10 16  1  0
 10 18  1  0
 11 16  1  0
 12 13  1  0
 12 11  1  0
 14 13  1  0
 14 23  1  0
 14 15  1  0
 16 15  1  0
 17 10  2  0
 18 19  1  0
 20 45  1  0
 20 21  2  0
 21 40  1  0
 22 25  1  0
 22 21  1  0
 23 24  1  0
 23 20  1  0
 24 22  2  0
 25 26  1  0
 26 27  2  0
 28 31  1  0
 28 27  1  0
 29 28  2  0
 30 29  1  0
 30 25  2  0
 31 32  1  0
 32 37  2  0
 32 33  1  0
 33 34  2  0
 34 35  1  0
 35 39  1  0
 36 35  2  0
 37 36  1  0
 38 37  1  0
 40 41  1  0
 41 43  1  0
 41 44  1  0
 42 40  2  0
 45 46  1  0
 47 45  1  0
 49 50  1  0
 50  9  1  0
 50 48  1  0
 51  1  1  0
 52 51  1  0
 53 52  1  0
 54 53  1  0
 55 75  1  0
 55 80  1  1
 58 60  1  0
 59 85  1  0
 60 65  1  0
 61 71  1  0
 61 69  1  0
 62 64  1  0
 64 65  1  0
 64 63  1  0
 66 60  1  0
 67 66  1  0
 67 62  1  0
 68 61  1  0
 68 62  1  0
 69 63  1  0
 69 59  1  0
 70 59  2  0
 71 73  2  0
 72 71  1  0
 74 72  1  0
 75 79  1  0
 75 56  1  6
 76 72  1  0
 77 76  1  0
 78 77  1  0
 79 78  1  0
 80 76  1  0
 81 80  1  0
 82 81  2  0
 83 84  1  0
 83 82  1  0
 83 55  1  0
 84 55  1  0
 84 75  1  0
 85 86  1  0
 85 95  1  0
 86 87  1  0
 87 91  1  0
 87 88  2  0
 89 86  1  0
 90 91  1  0
 91 93  1  0
 93 92  1  0
 94 93  1  0
 95 97  1  1
 95 98  1  0
 96 95  1  0
M  ISO  4  10 100  18 100  57 101  58 101
M  END
>  <TORSDO>  (64) 
F 29

>  <SCORE>  (64) 
2.148

>  <name>  (64) 
69

>  <ligand_id>  (64) 
69

>  <original_smiles>  (64) 
[H]c1c([H])c([H])c2c(c1[H])C([H])([H])C([H])([H])C([H])([H])C2([H])N([H])C(=O)C1([H])N(C(=O)C([H])(N([H])C(=O)C([H])(N([H])C([H])([H])[H])C([H])([H])[H])C(C([H])([H])[H])(C([H])([H])[H])C([H])([H])[H])C([H])([H])c2c([H])c(OC([H])([H])C([H])([H])C([H])([H])OC([H])([H])C([H])([H])C([H])([H])C([H])([H])OC([H])([H])C([H])([H])N([H])C(=O)C([H])(N([H])C(=O)N3C([H])([H])C([H])([H])C([H])([H])C([H])(n4nc(-c5c([H])c([H])c(Oc6c([H])c([H])c(F)c([H])c6F)c([H])c5[H])c(C(=O)N([H])[H])c4N([H])[H])C3([H])[H])C([H])(C([H])([H])[H])C([H])([H])[H])c([H])c([H])c2C1([H])[H]

>  <smiles>  (64) 
[H]c1c([H])c([H])c2c(c1[H])C([H])([H])C([H])([H])C([H])([H])C2([H])N([H])C(=O)C1([H])N(C(=O)C([H])(N([H])C(=O)C([H])(N([H])C([H])([H])[H])C([H])([H])[H])C(C([H])([H])[H])(C([H])([H])[H])C([H])([H])[H])C([H])([H])c2c([H])c(OC([H])([H])C([H])([H])C([H])([H])OC([H])([H])C([H])([H])C([H])([H])C([H])([H])OC([H])([H])C([H])([H])N([H])C(=O)C([H])(N([H])C(=O)N3C([H])([H])C([H])([H])C([H])([H])C([H])(n4nc(-c5c([H])c([H])c(Oc6c([H])c([H])c(F)c([H])c6F)c([H])c5[H])c(C(=O)N([H])[H])c4N([H])[H])C3([H])[H])C([H])(C([H])([H])[H])C([H])([H])[H])c([H])c([H])c2C1([H])[H]

$$$$
70:0:0
     RDKit          3D

108115  0  0  1  0  0  0  0  0999 V2000
  -25.5840  -22.2130   25.2640 C   0  0  0  0  0  2  0  0  0  0  0  0
  -26.7600  -21.4340   25.8860 C   0  0  0  0  0  3  0  0  0  0  0  0
  -28.1440  -21.9000   25.4120 C   0  0  0  0  0  0  0  0  0  0  0  0
  -28.5960  -21.3620   24.2700 N   0  0  0  0  0  0  0  0  0  0  0  0
  -28.7720  -22.7400   26.0610 O   0  0  0  0  0  0  0  0  0  0  0  0
  -28.0060  -20.6680   23.8270 H   0  0  0  0  0  0  0  0  0  0  0  0
  -29.8750  -21.6350   23.6220 C   0  0  0  0  0  2  0  0  0  0  0  0
  -29.6760  -22.0150   22.1390 C   0  0  0  0  0  2  0  0  0  0  0  0
  -30.7960  -21.5090   21.2100 C   0  0  0  0  0  2  0  0  0  0  0  0
  -32.2160  -21.7970   21.7380 C   0  0  0  0  0  2  0  0  0  0  0  0
  -33.3230  -20.9190   21.1290 C   0  0  0  0  0  2  0  0  0  0  0  0
  -33.6440  -18.5450   20.4980 C   0  0  0  0  0  0  0  0  0  0  0  0
  -33.6240  -16.2080   19.7180 C   0  0  0  0  0  2  0  0  0  0  0  0
  -32.9260  -16.0810   18.3520 C   0  0  0  0  0  2  0  0  0  0  0  0
  -31.4050  -15.9230   18.5250 C   0  0  0  0  0  2  0  0  0  0  0  0
  -30.8040  -17.0040   19.4640 C   0  0  0  0  0  3  0  0  0  0  0  0
  -31.6140  -17.0770   20.7790 C   0  0  0  0  0  2  0  0  0  0  0  0
  -33.0280  -17.3390   20.4440 N   0  0  0  0  0  0  0  0  0  0  0  0
  -34.7560  -18.7670   20.0080 O   0  0  0  0  0  0  0  0  0  0  0  0
  -32.9570  -19.5060   21.1250 N   0  0  0  0  0  0  0  0  0  0  0  0
  -32.0890  -19.2390   21.5610 H   0  0  0  0  0  0  0  0  0  0  0  0
  -28.3410  -17.6560   19.8560 C   0  0  0  0  0  0  0  0  0  0  0  0
  -27.2060  -16.9000   20.0080 C   0  0  0  0  0  0  0  0  0  0  0  0
  -27.6300  -15.5370   19.9340 C   0  0  0  0  0  0  0  0  0  0  0  0
  -29.3840  -16.7520   19.7140 N   0  0  0  0  0  0  0  0  0  0  0  0
  -28.9500  -15.4700   19.8130 N   0  0  0  0  0  0  0  0  0  0  0  0
  -26.8500  -14.2930   19.9130 C   0  0  0  0  0  0  0  0  0  0  0  0
  -26.9850  -13.3210   20.9280 C   0  0  0  0  0  3  0  0  0  0  0  0
  -26.2140  -12.1390   20.8940 C   0  0  0  0  0  3  0  0  0  0  0  0
  -25.2910  -11.9240   19.8430 C   0  0  0  0  0  0  0  0  0  0  0  0
  -25.1780  -12.8840   18.8240 C   0  0  0  0  0  3  0  0  0  0  0  0
  -25.9490  -14.0560   18.8550 C   0  0  0  0  0  3  0  0  0  0  0  0
  -24.5160  -10.7970   19.7170 O   0  0  0  0  0  0  0  0  0  0  0  0
  -23.9560  -10.1830   20.8080 C   0  0  0  0  0  0  0  0  0  0  0  0
  -23.0670  -10.8600   21.6700 C   0  0  0  0  0  3  0  0  0  0  0  0
  -22.4610  -10.1690   22.7410 C   0  0  0  0  0  3  0  0  0  0  0  0
  -22.7360   -8.8030   22.9440 C   0  0  0  0  0  0  0  0  0  0  0  0
  -23.6170   -8.1270   22.0820 C   0  0  0  0  0  3  0  0  0  0  0  0
  -24.2230   -8.8150   21.0160 C   0  0  0  0  0  0  0  0  0  0  0  0
  -25.0540   -8.1530   20.1770 F   0  0  0  0  0  0  0  0  0  0  0  0
  -22.1490   -8.1380   23.9670 F   0  0  0  0  0  0  0  0  0  0  0  0
  -25.7970  -17.4110   20.1130 C   0  0  0  0  0  0  0  0  0  0  0  0
  -24.9290  -16.6760   20.8020 N   0  0  0  0  0  0  0  0  0  0  0  0
  -25.4680  -18.4890   19.6250 O   0  0  0  0  0  0  0  0  0  0  0  0
  -25.2000  -15.7970   21.2180 H   0  0  0  0  0  0  0  0  0  0  0  0
  -23.9790  -16.9970   20.9160 H   0  0  0  0  0  0  0  0  0  0  0  0
  -28.5710  -19.0260   19.8100 N   0  0  0  0  0  0  0  0  0  0  0  0
  -27.8190  -19.7070   19.8510 H   0  0  0  0  0  0  0  0  0  0  0  0
  -29.4800  -19.4450   19.6570 H   0  0  0  0  0  0  0  0  0  0  0  0
  -26.4950  -20.5240   28.1920 C   0  0  0  0  0  0  0  0  0  0  0  0
  -26.6800  -21.5360   27.3410 N   0  0  0  0  0  0  0  0  0  0  0  0
  -26.4030  -19.3500   27.8280 O   0  0  0  0  0  0  0  0  0  0  0  0
  -26.7690  -22.4680   27.7220 H   0  0  0  0  0  0  0  0  0  0  0  0
  -26.2530  -20.1280   30.5800 C   0  0  0  0  0  2  0  0  0  0  0  0
  -26.4130  -20.9920   29.5630 C   0  0  0  0  0  3  0  0  0  0  0  0
  -25.5080  -22.1260   23.7320 C   0  0  0  0  0  2  0  0  0  0  0  0
  -24.6840  -23.2620   23.1130 C   0  0  0  0  0  2  0  0  0  0  0  0
  -25.6000  -23.1980   20.7880 C   0  0  0  0  0  0  0  0  0  0  0  0
  -25.3750  -22.9540   19.4980 N   0  0  0  0  0  4  0  0  0  0  0  0
  -26.8150  -23.5490   21.2300 N   0  0  0  0  0  0  0  0  0  0  0  0
  -24.5850  -23.0880   21.6580 N   0  0  0  0  0  0  0  0  0  0  0  0
  -26.1110  -23.0320   18.8120 H   0  0  0  0  0  0  0  0  0  0  0  0
  -24.4850  -22.6080   19.1660 H   0  0  0  0  0  0  0  0  0  0  0  0
  -26.9280  -23.6520   22.2280 H   0  0  0  0  0  0  0  0  0  0  0  0
  -23.6660  -22.8350   21.3190 H   0  0  0  0  0  0  0  0  0  0  0  0
  -28.0360  -23.7870   20.4480 C   0  0  0  0  0  2  0  0  0  0  0  0
  -28.7650  -25.0510   20.9320 C   0  0  0  0  0  2  0  0  0  0  0  0
  -28.6040  -26.1020   19.9890 O   0  0  0  0  0  0  0  0  0  0  0  0
  -25.5720  -30.9560   24.2100 C   0  0  0  0  0  0  0  0  0  0  0  0
  -27.5350  -26.9250   20.2240 C   0  0  0  0  0  0  0  0  0  0  0  0
  -24.1770  -30.1330   22.3360 C   0  0  0  0  0  3  0  0  0  0  0  0
  -25.3870  -28.7040   20.6050 C   0  0  0  0  0  0  0  0  0  0  0  0
  -26.7290  -30.1270   22.1690 C   0  0  0  0  0  2  0  0  0  0  0  0
  -26.6030  -28.9180   21.2690 C   0  0  0  0  0  0  0  0  0  0  0  0
  -27.6800  -28.0300   21.0840 C   0  0  0  0  0  3  0  0  0  0  0  0
  -26.3100  -26.7130   19.5580 C   0  0  0  0  0  3  0  0  0  0  0  0
  -25.2280  -27.5950   19.7550 C   0  0  0  0  0  3  0  0  0  0  0  0
  -24.2930  -29.7220   20.8440 C   0  0  0  0  0  2  0  0  0  0  0  0
  -25.5110  -30.4010   22.9670 N   0  0  0  0  0  0  0  0  0  0  0  0
  -24.5400  -31.2800   24.8160 O   0  0  0  0  0  0  0  0  0  0  0  0
  -23.3560  -29.0550   23.0780 C   0  0  0  0  0  0  0  0  0  0  0  0
  -22.0390  -29.0180   22.8160 N   0  0  0  0  0  0  0  0  0  0  0  0
  -23.9060  -28.2590   23.8440 O   0  0  0  0  0  0  0  0  0  0  0  0
  -21.6590  -29.7050   22.1790 H   0  0  0  0  0  0  0  0  0  0  0  0
  -18.5820  -27.9920   22.7250 C   0  0  0  0  0  0  0  0  0  0  0  0
  -21.0830  -28.0620   23.3700 C   0  0  0  0  0  3  0  0  0  0  0  0
  -21.2010  -26.6840   22.6760 C   0  0  0  0  0  2  0  0  0  0  0  0
  -20.2410  -26.5250   21.4930 C   0  0  0  0  0  2  0  0  0  0  0  0
  -18.7890  -26.7030   21.9500 C   0  0  0  0  0  2  0  0  0  0  0  0
  -19.6640  -28.6380   23.3810 C   0  0  0  0  0  0  0  0  0  0  0  0
  -19.4250  -29.8530   24.0590 C   0  0  0  0  0  3  0  0  0  0  0  0
  -18.1360  -30.4190   24.0930 C   0  0  0  0  0  3  0  0  0  0  0  0
  -17.0670  -29.7650   23.4580 C   0  0  0  0  0  3  0  0  0  0  0  0
  -17.2890  -28.5540   22.7790 C   0  0  0  0  0  3  0  0  0  0  0  0
  -26.9340  -31.2330   24.9200 C   0  0  0  0  0  3  0  0  0  0  0  0
  -26.8850  -32.6020   25.4490 N   0  0  0  0  0  0  0  0  0  0  0  0
  -27.4780  -33.6600   24.8780 C   0  0  0  0  0  0  0  0  0  0  0  0
  -28.1880  -33.5680   23.8720 O   0  0  0  0  0  0  0  0  0  0  0  0
  -26.2800  -32.7580   26.2420 H   0  0  0  0  0  0  0  0  0  0  0  0
  -26.1870  -35.8110   24.7130 C   0  0  0  0  0  1  0  0  0  0  0  0
  -27.2450  -35.0390   25.5190 C   0  0  0  0  0  3  0  0  0  0  0  0
  -29.4340  -35.3190   26.5970 C   0  0  0  0  0  1  0  0  0  0  0  0
  -28.4750  -35.8530   25.6330 N   0  0  0  0  0  0  0  0  0  0  0  0
  -28.2520  -36.8070   25.9030 H   0  0  0  0  0  0  0  0  0  0  0  0
  -27.2570  -30.2000   26.0690 C   0  0  1  0  0  0  0  0  0  0  0  0
  -26.1070  -30.0240   27.0880 C   0  0  0  0  0  1  0  0  0  0  0  0
  -27.5780  -28.8070   25.4780 C   0  0  0  0  0  1  0  0  0  0  0  0
  -28.5150  -30.6530   26.8460 C   0  0  0  0  0  1  0  0  0  0  0  0
  2  1  1  0
  2 51  1  0
  3  2  1  0
  3  5  2  0
  4  3  1  0
  6  4  1  0
  7  4  1  0
  8  7  1  0
  9 10  1  0
  9  8  1  0
 11 10  1  0
 12 20  1  0
 13 18  1  0
 14 15  1  0
 14 13  1  0
 16 15  1  0
 16 25  1  0
 16 17  1  0
 18 12  1  0
 18 17  1  0
 19 12  2  0
 20 11  1  0
 20 21  1  0
 22 23  2  0
 23 42  1  0
 24 23  1  0
 25 26  1  0
 25 22  1  0
 26 24  2  0
 27 24  1  0
 27 28  1  0
 29 28  2  0
 30 29  1  0
 31 32  1  0
 31 30  2  0
 32 27  2  0
 33 30  1  0
 33 34  1  0
 34 39  2  0
 34 35  1  0
 35 36  2  0
 36 37  1  0
 37 41  1  0
 38 37  2  0
 39 38  1  0
 40 39  1  0
 42 43  1  0
 43 46  1  0
 43 45  1  0
 44 42  2  0
 47 48  1  0
 47 22  1  0
 49 47  1  0
 50 55  1  0
 51 53  1  0
 51 50  1  0
 52 50  2  0
 55 54  2  0
 56  1  1  0
 57 56  1  0
 58 60  1  0
 58 61  1  0
 59 58  2  0
 60 64  1  0
 61 57  1  0
 62 59  1  0
 63 59  1  0
 65 61  1  0
 66 67  1  0
 66 60  1  0
 68 70  1  0
 68 67  1  0
 69 80  2  0
 70 75  1  0
 71 79  1  0
 71 81  1  0
 72 78  1  0
 72 74  1  0
 73 79  1  0
 74 73  1  0
 75 74  2  0
 76 77  1  0
 76 70  2  0
 77 72  2  0
 78 71  1  0
 79 69  1  0
 81 83  2  0
 82 81  1  0
 84 82  1  0
 85 94  2  0
 85 90  1  0
 86 82  1  0
 86 90  1  0
 87 86  1  0
 88 89  1  0
 88 87  1  0
 89 85  1  0
 90 91  2  0
 91 92  1  0
 93 92  2  0
 94 93  1  0
 95 69  1  0
 95 96  1  0
 95105  1  0
 96 99  1  0
 97 96  1  0
 97101  1  0
 98 97  2  0
101100  1  0
101103  1  0
103104  1  0
103102  1  0
105108  1  1
105106  1  0
107105  1  0
M  ISO  4  12 100  20 100  67 101  68 101
M  END
>  <TORSDO>  (65) 
F 30

>  <SCORE>  (65) 
39.963

>  <name>  (65) 
70

>  <ligand_id>  (65) 
70

>  <original_smiles>  (65) 
[H]C([H])=C([H])C(=O)N([H])C([H])(C(=O)N([H])C([H])([H])C([H])([H])C([H])([H])C([H])([H])C([H])([H])N([H])C(=O)N1C([H])([H])C([H])([H])C([H])([H])C([H])(n2nc(-c3c([H])c([H])c(Oc4c([H])c([H])c(F)c([H])c4F)c([H])c3[H])c(C(=O)N([H])[H])c2N([H])[H])C1([H])[H])C([H])([H])C([H])([H])C([H])([H])[N+]([H])=C(N([H])[H])N([H])C([H])([H])C([H])([H])Oc1c([H])c([H])c2c(c1[H])C([H])([H])N(C(=O)C([H])(N([H])C(=O)C([H])(N([H])C([H])([H])[H])C([H])([H])[H])C(C([H])([H])[H])(C([H])([H])[H])C([H])([H])[H])C([H])(C(=O)N([H])C1([H])c3c([H])c([H])c([H])c([H])c3C([H])([H])C([H])([H])C1([H])[H])C2([H])[H]

>  <smiles>  (65) 
[H]C([H])=C([H])C(=O)N([H])C([H])(C(=O)N([H])C([H])([H])C([H])([H])C([H])([H])C([H])([H])C([H])([H])N([H])C(=O)N1C([H])([H])C([H])([H])C([H])([H])C([H])(n2nc(-c3c([H])c([H])c(Oc4c([H])c([H])c(F)c([H])c4F)c([H])c3[H])c(C(=O)N([H])[H])c2N([H])[H])C1([H])[H])C([H])([H])C([H])([H])C([H])([H])[N+]([H])=C(N([H])[H])N([H])C([H])([H])C([H])([H])Oc1c([H])c([H])c2c(c1[H])C([H])([H])N(C(=O)C([H])(N([H])C(=O)C([H])(N([H])C([H])([H])[H])C([H])([H])[H])C(C([H])([H])[H])(C([H])([H])[H])C([H])([H])[H])C([H])(C(=O)N([H])C1([H])c3c([H])c([H])c([H])c([H])c3C([H])([H])C([H])([H])C1([H])[H])C2([H])[H]

$$$$
71:0:0
     RDKit          3D

103110  0  0  1  0  0  0  0  0999 V2000
  -21.1270  -18.1480   23.5870 N   0  0  0  0  0  4  0  0  0  0  0  0
  -20.2530  -17.7060   23.3410 H   0  0  0  0  0  0  0  0  0  0  0  0
  -21.6560  -18.2370   22.7350 H   0  0  0  0  0  0  0  0  0  0  0  0
  -20.8160  -19.4980   24.1170 C   0  0  0  0  0  2  0  0  0  0  0  0
  -22.0580  -20.3630   24.4410 C   0  0  0  0  0  2  0  0  0  0  0  0
  -21.8530  -21.8420   24.0870 C   0  0  0  0  0  2  0  0  0  0  0  0
  -23.1190  -22.4790   23.9830 O   0  0  0  0  0  0  0  0  0  0  0  0
  -23.0220  -23.7160   23.2910 C   0  0  0  0  0  2  0  0  0  0  0  0
  -24.4100  -24.2660   22.9340 C   0  0  0  0  0  2  0  0  0  0  0  0
  -24.8750  -23.6990   21.7120 O   0  0  0  0  0  0  0  0  0  0  0  0
  -25.9970  -24.4000   21.1860 C   0  0  0  0  0  2  0  0  0  0  0  0
  -26.4750  -23.7600   19.8740 C   0  0  0  0  0  2  0  0  0  0  0  0
  -27.5530  -24.5990   19.1520 C   0  0  0  0  0  2  0  0  0  0  0  0
  -26.9840  -25.4610   18.1610 O   0  0  0  0  0  0  0  0  0  0  0  0
  -25.2930  -30.0830   23.3200 C   0  0  0  0  0  0  0  0  0  0  0  0
  -26.1340  -26.4280   18.6350 C   0  0  0  0  0  0  0  0  0  0  0  0
  -23.5690  -29.7200   21.5780 C   0  0  0  0  0  3  0  0  0  0  0  0
  -24.3400  -28.4140   19.5220 C   0  0  0  0  0  0  0  0  0  0  0  0
  -26.0520  -29.4210   21.0460 C   0  0  0  0  0  2  0  0  0  0  0  0
  -25.6470  -28.3760   20.0240 C   0  0  0  0  0  0  0  0  0  0  0  0
  -26.5500  -27.3840   19.5880 C   0  0  0  0  0  3  0  0  0  0  0  0
  -24.8210  -26.4780   18.1280 C   0  0  0  0  0  3  0  0  0  0  0  0
  -23.9150  -27.4590   18.5800 C   0  0  0  0  0  3  0  0  0  0  0  0
  -23.4420  -29.5140   20.0430 C   0  0  0  0  0  2  0  0  0  0  0  0
  -24.9960  -29.7270   22.0390 N   0  0  0  0  0  0  0  0  0  0  0  0
  -24.4070  -30.4470   24.1040 O   0  0  0  0  0  0  0  0  0  0  0  0
  -22.7060  -28.6570   22.2920 C   0  0  0  0  0  0  0  0  0  0  0  0
  -21.3750  -28.8060   22.1950 N   0  0  0  0  0  0  0  0  0  0  0  0
  -23.2290  -27.7140   22.8890 O   0  0  0  0  0  0  0  0  0  0  0  0
  -21.0250  -29.6140   21.7000 H   0  0  0  0  0  0  0  0  0  0  0  0
  -17.8210  -28.1990   22.4520 C   0  0  0  0  0  0  0  0  0  0  0  0
  -20.3700  -27.9010   22.7490 C   0  0  0  0  0  3  0  0  0  0  0  0
  -20.2250  -26.6320   21.8770 C   0  0  0  0  0  2  0  0  0  0  0  0
  -19.1060  -26.7350   20.8350 C   0  0  0  0  0  2  0  0  0  0  0  0
  -17.7630  -27.0020   21.5190 C   0  0  0  0  0  2  0  0  0  0  0  0
  -19.0480  -28.6270   23.0240 C   0  0  0  0  0  0  0  0  0  0  0  0
  -19.0560  -29.7570   23.8680 C   0  0  0  0  0  3  0  0  0  0  0  0
  -17.8670  -30.4590   24.1410 C   0  0  0  0  0  3  0  0  0  0  0  0
  -16.6500  -30.0220   23.5840 C   0  0  0  0  0  3  0  0  0  0  0  0
  -16.6290  -28.8920   22.7460 C   0  0  0  0  0  3  0  0  0  0  0  0
  -26.7630  -30.0820   23.8490 C   0  0  0  0  0  3  0  0  0  0  0  0
  -26.8980  -31.2090   24.7780 N   0  0  0  0  0  0  0  0  0  0  0  0
  -27.4610  -32.3850   24.4680 C   0  0  0  0  0  0  0  0  0  0  0  0
  -27.9940  -32.6060   23.3770 O   0  0  0  0  0  0  0  0  0  0  0  0
  -26.4350  -31.1170   25.6720 H   0  0  0  0  0  0  0  0  0  0  0  0
  -26.3150  -34.4970   25.2090 C   0  0  0  0  0  1  0  0  0  0  0  0
  -27.4290  -33.4900   25.5400 C   0  0  0  0  0  3  0  0  0  0  0  0
  -29.7740  -33.3750   26.2600 C   0  0  0  0  0  1  0  0  0  0  0  0
  -28.7150  -34.2050   25.6910 N   0  0  0  0  0  0  0  0  0  0  0  0
  -28.6010  -35.0200   26.2860 H   0  0  0  0  0  0  0  0  0  0  0  0
  -27.1670  -28.7250   24.5480 C   0  0  1  0  0  0  0  0  0  0  0  0
  -26.1490  -28.2460   25.6090 C   0  0  0  0  0  1  0  0  0  0  0  0
  -27.3260  -27.5960   23.5020 C   0  0  0  0  0  1  0  0  0  0  0  0
  -28.5390  -28.8850   25.2460 C   0  0  0  0  0  1  0  0  0  0  0  0
  -21.8440  -17.2330   24.5000 C   0  0  0  0  0  2  0  0  0  0  0  0
  -23.9410  -16.1410   23.6410 C   0  0  0  0  0  3  0  0  0  0  0  0
  -22.5980  -16.2150   23.6700 C   0  0  0  0  0  3  0  0  0  0  0  0
  -24.7560  -15.1500   22.8310 C   0  0  0  0  0  2  0  0  0  0  0  0
  -26.0810  -15.7120   22.4700 N   0  0  0  0  0  4  0  0  0  0  0  0
  -26.0610  -16.7160   22.5510 H   0  0  0  0  0  0  0  0  0  0  0  0
  -26.7370  -15.3830   23.1620 H   0  0  0  0  0  0  0  0  0  0  0  0
  -26.6120  -15.3200   21.1430 C   0  0  0  0  0  2  0  0  0  0  0  0
  -28.8640  -15.9850   20.1270 C   0  0  0  0  0  3  0  0  0  0  0  0
  -28.1310  -15.4320   21.1100 C   0  0  0  0  0  3  0  0  0  0  0  0
  -30.3850  -15.9460   20.0690 C   0  0  0  0  0  2  0  0  0  0  0  0
  -30.9680  -13.6930   19.1690 C   0  0  0  0  0  0  0  0  0  0  0  0
  -30.6980  -11.2850   18.6500 C   0  0  0  0  0  2  0  0  0  0  0  0
  -29.6720  -11.0140   17.5380 C   0  0  0  0  0  2  0  0  0  0  0  0
  -28.2400  -10.9460   18.1050 C   0  0  0  0  0  2  0  0  0  0  0  0
  -27.9110  -12.1750   18.9850 C   0  0  0  0  0  3  0  0  0  0  0  0
  -29.0210  -12.3730   20.0380 C   0  0  0  0  0  2  0  0  0  0  0  0
  -30.3290  -12.5120   19.3600 N   0  0  0  0  0  0  0  0  0  0  0  0
  -31.7710  -13.9190   18.2590 O   0  0  0  0  0  0  0  0  0  0  0  0
  -30.7530  -14.5450   20.1770 N   0  0  0  0  0  0  0  0  0  0  0  0
  -30.3580  -14.0920   20.9860 H   0  0  0  0  0  0  0  0  0  0  0  0
  -25.6360  -12.9970   19.8870 C   0  0  0  0  0  0  0  0  0  0  0  0
  -24.5650  -12.3250   20.4090 C   0  0  0  0  0  0  0  0  0  0  0  0
  -24.9320  -10.9440   20.4230 C   0  0  0  0  0  0  0  0  0  0  0  0
  -26.5950  -12.0310   19.6140 N   0  0  0  0  0  0  0  0  0  0  0  0
  -26.1820  -10.7980   20.0000 N   0  0  0  0  0  0  0  0  0  0  0  0
  -24.1530   -9.7510   20.7850 C   0  0  0  0  0  0  0  0  0  0  0  0
  -24.5290   -8.9250   21.8690 C   0  0  0  0  0  3  0  0  0  0  0  0
  -23.7610   -7.7900   22.2080 C   0  0  0  0  0  3  0  0  0  0  0  0
  -22.5990   -7.4760   21.4640 C   0  0  0  0  0  0  0  0  0  0  0  0
  -22.2420   -8.2880   20.3740 C   0  0  0  0  0  3  0  0  0  0  0  0
  -23.0090   -9.4150   20.0370 C   0  0  0  0  0  3  0  0  0  0  0  0
  -21.8110   -6.3750   21.7000 O   0  0  0  0  0  0  0  0  0  0  0  0
  -21.6530   -5.8610   22.9620 C   0  0  0  0  0  0  0  0  0  0  0  0
  -21.0640   -6.6090   24.0050 C   0  0  0  0  0  3  0  0  0  0  0  0
  -20.8630   -6.0170   25.2670 C   0  0  0  0  0  3  0  0  0  0  0  0
  -21.2360   -4.6780   25.4870 C   0  0  0  0  0  0  0  0  0  0  0  0
  -21.8190   -3.9310   24.4490 C   0  0  0  0  0  3  0  0  0  0  0  0
  -22.0250   -4.5210   23.1890 C   0  0  0  0  0  0  0  0  0  0  0  0
  -22.5630   -3.7900   22.1850 F   0  0  0  0  0  0  0  0  0  0  0  0
  -21.0300   -4.1040   26.6950 F   0  0  0  0  0  0  0  0  0  0  0  0
  -23.2350  -12.9030   20.7930 C   0  0  0  0  0  0  0  0  0  0  0  0
  -22.5570  -12.2820   21.7510 N   0  0  0  0  0  0  0  0  0  0  0  0
  -22.8190  -13.9450   20.2880 O   0  0  0  0  0  0  0  0  0  0  0  0
  -22.9180  -11.4480   22.1890 H   0  0  0  0  0  0  0  0  0  0  0  0
  -21.6450  -12.6140   22.0290 H   0  0  0  0  0  0  0  0  0  0  0  0
  -25.8770  -14.3380   19.6010 N   0  0  0  0  0  0  0  0  0  0  0  0
  -25.1660  -15.0530   19.6890 H   0  0  0  0  0  0  0  0  0  0  0  0
  -26.6960  -14.6470   19.0890 H   0  0  0  0  0  0  0  0  0  0  0  0
  1  4  1  0
  1 55  1  0
  2  1  1  0
  3  1  1  0
  4  5  1  0
  6  5  1  0
  7  6  1  0
  8  7  1  0
  9  8  1  0
 10  9  1  0
 11 10  1  0
 12 11  1  0
 13 12  1  0
 14 16  1  0
 14 13  1  0
 15 26  2  0
 16 21  1  0
 17 25  1  0
 17 27  1  0
 18 20  1  0
 18 24  1  0
 19 25  1  0
 20 19  1  0
 21 20  2  0
 22 23  1  0
 22 16  2  0
 23 18  2  0
 24 17  1  0
 25 15  1  0
 27 29  2  0
 28 27  1  0
 30 28  1  0
 31 40  2  0
 31 36  1  0
 32 28  1  0
 32 36  1  0
 33 32  1  0
 34 35  1  0
 34 33  1  0
 35 31  1  0
 36 37  2  0
 37 38  1  0
 39 38  2  0
 40 39  1  0
 41 15  1  0
 41 51  1  0
 41 42  1  0
 42 45  1  0
 43 42  1  0
 43 47  1  0
 44 43  2  0
 47 46  1  0
 47 49  1  0
 49 48  1  0
 49 50  1  0
 51 54  1  1
 51 52  1  0
 53 51  1  0
 56 57  2  0
 57 55  1  0
 58 56  1  0
 59 60  1  0
 59 58  1  0
 59 61  1  0
 62 59  1  0
 63 64  2  0
 64 62  1  0
 65 63  1  0
 65 74  1  0
 66 72  1  0
 66 74  1  0
 67 72  1  0
 68 69  1  0
 68 67  1  0
 70 69  1  0
 70 79  1  0
 70 71  1  0
 72 71  1  0
 73 66  2  0
 74 75  1  0
 76 77  2  0
 77 78  1  0
 77 96  1  0
 78 81  1  0
 79 76  1  0
 79 80  1  0
 80 78  2  0
 81 82  1  0
 82 83  2  0
 84 87  1  0
 84 83  1  0
 85 84  2  0
 86 85  1  0
 86 81  2  0
 87 88  1  0
 88 93  2  0
 88 89  1  0
 89 90  2  0
 90 91  1  0
 91 95  1  0
 92 91  2  0
 93 92  1  0
 94 93  1  0
 96 97  1  0
 97100  1  0
 97 99  1  0
 98 96  2  0
101102  1  0
101 76  1  0
103101  1  0
M  ISO  4  13 101  14 101  66 100  74 100
M  END
>  <TORSDO>  (66) 
F 33

>  <SCORE>  (66) 
31.129

>  <name>  (66) 
71

>  <ligand_id>  (66) 
71

>  <original_smiles>  (66) 
[H]C(=C([H])C([H])([H])[N+]([H])([H])C([H])([H])C([H])=C([H])C([H])([H])[N+]([H])([H])C([H])([H])C([H])([H])C([H])([H])OC([H])([H])C([H])([H])OC([H])([H])C([H])([H])C([H])([H])Oc1c([H])c([H])c2c(c1[H])C([H])([H])N(C(=O)C([H])(N([H])C(=O)C([H])(N([H])C([H])([H])[H])C([H])([H])[H])C(C([H])([H])[H])(C([H])([H])[H])C([H])([H])[H])C([H])(C(=O)N([H])C1([H])c3c([H])c([H])c([H])c([H])c3C([H])([H])C([H])([H])C1([H])[H])C2([H])[H])C([H])([H])N([H])C(=O)N1C([H])([H])C([H])([H])C([H])([H])C([H])(n2nc(-c3c([H])c([H])c(Oc4c([H])c([H])c(F)c([H])c4F)c([H])c3[H])c(C(=O)N([H])[H])c2N([H])[H])C1([H])[H]

>  <smiles>  (66) 
[H]C(=C([H])C([H])([H])[N+]([H])([H])C([H])([H])C([H])=C([H])C([H])([H])[N+]([H])([H])C([H])([H])C([H])([H])C([H])([H])OC([H])([H])C([H])([H])OC([H])([H])C([H])([H])C([H])([H])Oc1c([H])c([H])c2c(c1[H])C([H])([H])N(C(=O)C([H])(N([H])C(=O)C([H])(N([H])C([H])([H])[H])C([H])([H])[H])C(C([H])([H])[H])(C([H])([H])[H])C([H])([H])[H])C([H])(C(=O)N([H])C1([H])c3c([H])c([H])c([H])c([H])c3C([H])([H])C([H])([H])C1([H])[H])C2([H])[H])C([H])([H])N([H])C(=O)N1C([H])([H])C([H])([H])C([H])([H])C([H])(n2nc(-c3c([H])c([H])c(Oc4c([H])c([H])c(F)c([H])c4F)c([H])c3[H])c(C(=O)N([H])[H])c2N([H])[H])C1([H])[H]

$$$$
72:0:0
     RDKit          3D

 96103  0  0  1  0  0  0  0  0999 V2000
  -30.4470  -20.4590   18.2060 C   0  0  0  0  0  2  0  0  0  0  0  0
  -29.2120  -18.8910   19.5970 C   0  0  0  0  0  0  0  0  0  0  0  0
  -30.2330  -19.1770   18.8640 N   0  0  0  0  0  0  0  0  0  0  0  0
  -28.9360  -17.4970   20.1900 C   0  0  0  0  0  0  0  0  0  0  0  0
  -28.0760  -17.3190   21.0650 O   0  0  0  0  0  0  0  0  0  0  0  0
  -29.7300  -16.2670   19.6490 C   0  0  0  0  0  0  0  0  0  0  0  0
  -29.6650  -16.0950   18.4210 O   0  0  0  0  0  0  0  0  0  0  0  0
  -30.3690  -15.4180   20.5080 N   0  0  0  0  0  2  0  0  0  0  0  0
  -30.9790  -14.3060   20.0500 C   0  0  0  0  0  0  0  0  0  0  0  0
  -30.5970  -12.0820   19.0470 C   0  0  0  0  0  2  0  0  0  0  0  0
  -29.6420  -12.2670   17.8490 C   0  0  0  0  0  2  0  0  0  0  0  0
  -28.1710  -12.1980   18.3050 C   0  0  0  0  0  2  0  0  0  0  0  0
  -27.8820  -13.1100   19.5250 C   0  0  0  0  0  3  0  0  0  0  0  0
  -28.9540  -12.9280   20.6230 C   0  0  0  0  0  2  0  0  0  0  0  0
  -30.2840  -13.1380   20.0220 N   0  0  0  0  0  0  0  0  0  0  0  0
  -32.1260  -14.3550   19.5970 O   0  0  0  0  0  0  0  0  0  0  0  0
  -25.5410  -13.8470   20.3020 C   0  0  0  0  0  0  0  0  0  0  0  0
  -24.4430  -13.1290   20.6990 C   0  0  0  0  0  0  0  0  0  0  0  0
  -24.8370  -11.7560   20.6570 C   0  0  0  0  0  0  0  0  0  0  0  0
  -26.5310  -12.9120   20.0430 N   0  0  0  0  0  0  0  0  0  0  0  0
  -26.1130  -11.6500   20.3150 N   0  0  0  0  0  0  0  0  0  0  0  0
  -24.0560  -10.5320   20.8680 C   0  0  0  0  0  0  0  0  0  0  0  0
  -24.4320   -9.5730   21.8350 C   0  0  0  0  0  3  0  0  0  0  0  0
  -23.6580   -8.4100   22.0300 C   0  0  0  0  0  3  0  0  0  0  0  0
  -22.4890   -8.1990   21.2590 C   0  0  0  0  0  0  0  0  0  0  0  0
  -22.1330   -9.1440   20.2810 C   0  0  0  0  0  3  0  0  0  0  0  0
  -22.9090  -10.2980   20.0840 C   0  0  0  0  0  3  0  0  0  0  0  0
  -21.6870   -7.0880   21.3640 O   0  0  0  0  0  0  0  0  0  0  0  0
  -21.5560   -6.4030   22.5460 C   0  0  0  0  0  0  0  0  0  0  0  0
  -21.0540   -7.0210   23.7140 C   0  0  0  0  0  3  0  0  0  0  0  0
  -20.8720   -6.2610   24.8870 C   0  0  0  0  0  3  0  0  0  0  0  0
  -21.1800   -4.8870   24.8930 C   0  0  0  0  0  0  0  0  0  0  0  0
  -21.6740   -4.2720   23.7280 C   0  0  0  0  0  3  0  0  0  0  0  0
  -21.8590   -5.0270   22.5580 C   0  0  0  0  0  0  0  0  0  0  0  0
  -22.3160   -4.4230   21.4330 F   0  0  0  0  0  0  0  0  0  0  0  0
  -20.9970   -4.1550   26.0170 F   0  0  0  0  0  0  0  0  0  0  0  0
  -23.0790  -13.6730   21.0080 C   0  0  0  0  0  0  0  0  0  0  0  0
  -22.3410  -13.0120   21.8930 N   0  0  0  0  0  0  0  0  0  0  0  0
  -22.6780  -14.7200   20.5010 O   0  0  0  0  0  0  0  0  0  0  0  0
  -22.6770  -12.1640   22.3270 H   0  0  0  0  0  0  0  0  0  0  0  0
  -21.4250  -13.3580   22.1440 H   0  0  0  0  0  0  0  0  0  0  0  0
  -25.7730  -15.2060   20.1220 N   0  0  0  0  0  0  0  0  0  0  0  0
  -25.0630  -15.9120   20.2790 H   0  0  0  0  0  0  0  0  0  0  0  0
  -26.6630  -15.5870   19.8270 H   0  0  0  0  0  0  0  0  0  0  0  0
  -28.1250  -19.9250   19.9380 C   0  0  0  0  0  2  0  0  0  0  0  0
  -26.9190  -19.8690   18.9740 C   0  0  0  0  0  2  0  0  0  0  0  0
  -26.4520  -21.2520   18.5040 C   0  0  0  0  0  2  0  0  0  0  0  0
  -24.8770  -22.2780   17.0770 C   0  0  0  0  0  1  0  0  0  0  0  0
  -25.3060  -21.0700   17.6860 O   0  0  0  0  0  0  0  0  0  0  0  0
  -31.6700  -21.1930   18.7890 C   0  0  0  0  0  2  0  0  0  0  0  0
  -31.4390  -21.8160   20.1730 C   0  0  0  0  0  2  0  0  0  0  0  0
  -30.5680  -22.9360   20.0530 O   0  0  0  0  0  0  0  0  0  0  0  0
  -30.1410  -23.4430   21.3110 C   0  0  0  0  0  2  0  0  0  0  0  0
  -29.8280  -24.9400   21.1940 C   0  0  0  0  0  2  0  0  0  0  0  0
  -28.5360  -25.2830   20.4370 C   0  0  0  0  0  2  0  0  0  0  0  0
  -28.5490  -26.7000   20.3060 O   0  0  0  0  0  0  0  0  0  0  0  0
  -24.6980  -31.7790   23.4050 C   0  0  0  0  0  0  0  0  0  0  0  0
  -27.3480  -27.3660   20.3150 C   0  0  0  0  0  0  0  0  0  0  0  0
  -23.4990  -30.4090   21.7290 C   0  0  0  0  0  3  0  0  0  0  0  0
  -24.9560  -28.8630   20.3160 C   0  0  0  0  0  0  0  0  0  0  0  0
  -26.0270  -30.7470   21.5690 C   0  0  0  0  0  2  0  0  0  0  0  0
  -26.1060  -29.3840   20.9180 C   0  0  0  0  0  0  0  0  0  0  0  0
  -27.3070  -28.6440   20.9070 C   0  0  0  0  0  3  0  0  0  0  0  0
  -26.1810  -26.8430   19.7150 C   0  0  0  0  0  3  0  0  0  0  0  0
  -24.9860  -27.5900   19.7120 C   0  0  0  0  0  3  0  0  0  0  0  0
  -23.7220  -29.7370   20.3460 C   0  0  0  0  0  2  0  0  0  0  0  0
  -24.7580  -30.9910   22.2940 N   0  0  0  0  0  0  0  0  0  0  0  0
  -23.6120  -32.0600   23.9310 O   0  0  0  0  0  0  0  0  0  0  0  0
  -22.8190  -29.3880   22.6680 C   0  0  0  0  0  0  0  0  0  0  0  0
  -21.4970  -29.2200   22.5070 N   0  0  0  0  0  0  0  0  0  0  0  0
  -23.4790  -28.7490   23.4920 O   0  0  0  0  0  0  0  0  0  0  0  0
  -21.0310  -29.7850   21.8130 H   0  0  0  0  0  0  0  0  0  0  0  0
  -18.0950  -28.0880   22.9390 C   0  0  0  0  0  0  0  0  0  0  0  0
  -20.6530  -28.2860   23.2490 C   0  0  0  0  0  3  0  0  0  0  0  0
  -20.7340  -26.8660   22.6450 C   0  0  0  0  0  2  0  0  0  0  0  0
  -19.6390  -26.5860   21.6110 C   0  0  0  0  0  2  0  0  0  0  0  0
  -18.2520  -26.7460   22.2400 C   0  0  0  0  0  2  0  0  0  0  0  0
  -19.2220  -28.8170   23.3980 C   0  0  0  0  0  0  0  0  0  0  0  0
  -19.0230  -30.0740   24.0090 C   0  0  0  0  0  3  0  0  0  0  0  0
  -17.7270  -30.6010   24.1660 C   0  0  0  0  0  3  0  0  0  0  0  0
  -16.6130  -29.8670   23.7220 C   0  0  0  0  0  3  0  0  0  0  0  0
  -16.7980  -28.6110   23.1160 C   0  0  0  0  0  3  0  0  0  0  0  0
  -25.9830  -32.3800   24.0530 C   0  0  0  0  0  3  0  0  0  0  0  0
  -25.6910  -33.7780   24.3950 N   0  0  0  0  0  0  0  0  0  0  0  0
  -26.0570  -34.8340   23.6560 C   0  0  0  0  0  0  0  0  0  0  0  0
  -26.7480  -34.7310   22.6390 O   0  0  0  0  0  0  0  0  0  0  0  0
  -25.0810  -33.9320   25.1850 H   0  0  0  0  0  0  0  0  0  0  0  0
  -24.3690  -36.6590   23.2770 C   0  0  0  0  0  1  0  0  0  0  0  0
  -25.5790  -36.2230   24.1200 C   0  0  0  0  0  3  0  0  0  0  0  0
  -27.6990  -37.0620   25.0300 C   0  0  0  0  0  1  0  0  0  0  0  0
  -26.6320  -37.2590   24.0530 N   0  0  0  0  0  0  0  0  0  0  0  0
  -26.2380  -38.1850   24.1970 H   0  0  0  0  0  0  0  0  0  0  0  0
  -26.4700  -31.5830   25.3250 C   0  0  1  0  0  0  0  0  0  0  0  0
  -25.3560  -31.3410   26.3710 C   0  0  0  0  0  1  0  0  0  0  0  0
  -27.0400  -30.2050   24.9170 C   0  0  0  0  0  1  0  0  0  0  0  0
  -27.6160  -32.3560   26.0230 C   0  0  0  0  0  1  0  0  0  0  0  0
  1 50  1  0
  1  3  1  0
  2 45  1  0
  2  4  1  0
  3  2  2  0
  4  5  2  0
  6  4  1  0
  6  8  1  0
  7  6  2  0
  9  8  1  0
 10 15  1  0
 11 12  1  0
 11 10  1  0
 13 12  1  0
 13 20  1  0
 13 14  1  0
 15  9  1  0
 15 14  1  0
 16  9  2  0
 17 18  2  0
 18 37  1  0
 19 18  1  0
 19 22  1  0
 20 17  1  0
 20 21  1  0
 21 19  2  0
 22 23  1  0
 23 24  2  0
 25 28  1  0
 25 24  1  0
 26 25  2  0
 27 26  1  0
 27 22  2  0
 28 29  1  0
 29 34  2  0
 29 30  1  0
 30 31  2  0
 31 32  1  0
 32 36  1  0
 33 32  2  0
 34 33  1  0
 35 34  1  0
 37 38  1  0
 38 41  1  0
 38 40  1  0
 39 37  2  0
 42 43  1  0
 42 17  1  0
 44 42  1  0
 46 45  1  0
 47 46  1  0
 48 49  1  0
 49 47  1  0
 50 51  1  0
 52 51  1  0
 52 53  1  0
 54 53  1  0
 55 54  1  0
 56 58  1  0
 56 55  1  0
 57 68  2  0
 58 63  1  0
 59 67  1  0
 59 69  1  0
 60 66  1  0
 60 62  1  0
 61 67  1  0
 62 61  1  0
 63 62  2  0
 64 58  2  0
 65 64  1  0
 65 60  2  0
 66 59  1  0
 67 57  1  0
 69 71  2  0
 70 69  1  0
 72 70  1  0
 73 82  2  0
 73 78  1  0
 74 70  1  0
 74 78  1  0
 75 74  1  0
 76 77  1  0
 76 75  1  0
 77 73  1  0
 78 79  2  0
 79 80  1  0
 81 80  2  0
 82 81  1  0
 83 57  1  0
 83 84  1  0
 83 93  1  0
 84 87  1  0
 85 89  1  0
 85 84  1  0
 86 85  2  0
 89 88  1  0
 91 89  1  0
 91 92  1  0
 91 90  1  0
 93 96  1  1
 93 94  1  0
 95 93  1  0
M  ISO  4   8 100   9 100  55 101  56 101
M  END
>  <TORSDO>  (67) 
F 30

>  <SCORE>  (67) 
-10.406

>  <name>  (67) 
72

>  <ligand_id>  (67) 
72

>  <original_smiles>  (67) 
[H]c1c([H])c([H])c2c(c1[H])C([H])([H])C([H])([H])C([H])([H])C2([H])N([H])C(=O)C1([H])N(C(=O)C([H])(N([H])C(=O)C([H])(N([H])C([H])([H])[H])C([H])([H])[H])C(C([H])([H])[H])(C([H])([H])[H])C([H])([H])[H])C([H])([H])c2c([H])c(OC([H])([H])C([H])([H])C([H])([H])OC([H])([H])C([H])([H])C([H])([H])N=C(C(=O)C(=O)[N-]C(=O)N3C([H])([H])C([H])([H])C([H])([H])C([H])(n4nc(-c5c([H])c([H])c(Oc6c([H])c([H])c(F)c([H])c6F)c([H])c5[H])c(C(=O)N([H])[H])c4N([H])[H])C3([H])[H])C([H])([H])C([H])([H])C([H])([H])OC([H])([H])[H])c([H])c([H])c2C1([H])[H]

>  <smiles>  (67) 
[H]c1c([H])c([H])c2c(c1[H])C([H])([H])C([H])([H])C([H])([H])C2([H])N([H])C(=O)C1([H])N(C(=O)C([H])(N([H])C(=O)C([H])(N([H])C([H])([H])[H])C([H])([H])[H])C(C([H])([H])[H])(C([H])([H])[H])C([H])([H])[H])C([H])([H])c2c([H])c(OC([H])([H])C([H])([H])C([H])([H])OC([H])([H])C([H])([H])C([H])([H])N=C(C(=O)C(=O)[N-]C(=O)N3C([H])([H])C([H])([H])C([H])([H])C([H])(n4nc(-c5c([H])c([H])c(Oc6c([H])c([H])c(F)c([H])c6F)c([H])c5[H])c(C(=O)N([H])[H])c4N([H])[H])C3([H])[H])C([H])([H])C([H])([H])C([H])([H])OC([H])([H])[H])c([H])c([H])c2C1([H])[H]

$$$$
73:0:0
     RDKit          3D

 98105  0  0  1  0  0  0  0  0999 V2000
  -26.4130  -23.2620   16.6690 N   0  0  0  0  0  4  0  0  0  0  0  0
  -25.9850  -23.5590   17.5290 H   0  0  0  0  0  0  0  0  0  0  0  0
  -25.7400  -22.7130   16.1610 H   0  0  0  0  0  0  0  0  0  0  0  0
  -26.7100  -24.4770   15.8840 C   0  0  0  0  0  2  0  0  0  0  0  0
  -27.1870  -25.6310   16.7900 C   0  0  0  0  0  2  0  0  0  0  0  0
  -28.5640  -25.4300   17.2420 N   0  0  0  0  0  0  0  0  0  0  0  0
  -29.1820  -25.5610   16.4430 H   0  0  0  0  0  0  0  0  0  0  0  0
  -28.9300  -26.4040   18.2690 C   0  0  0  0  0  2  0  0  0  0  0  0
  -28.8300  -25.7880   19.6840 C   0  0  0  0  0  2  0  0  0  0  0  0
  -28.5980  -26.7900   20.6750 O   0  0  0  0  0  0  0  0  0  0  0  0
  -24.6840  -31.9960   23.5560 C   0  0  0  0  0  0  0  0  0  0  0  0
  -27.3950  -27.4660   20.6610 C   0  0  0  0  0  0  0  0  0  0  0  0
  -23.5190  -30.5540   21.9180 C   0  0  0  0  0  3  0  0  0  0  0  0
  -25.0020  -28.9710   20.5860 C   0  0  0  0  0  0  0  0  0  0  0  0
  -26.0510  -30.8920   21.7910 C   0  0  0  0  0  2  0  0  0  0  0  0
  -26.1430  -29.5040   21.1940 C   0  0  0  0  0  0  0  0  0  0  0  0
  -27.3400  -28.7560   21.2360 C   0  0  0  0  0  3  0  0  0  0  0  0
  -26.2200  -26.9330   20.0800 C   0  0  0  0  0  3  0  0  0  0  0  0
  -25.0320  -27.6800   20.0350 C   0  0  0  0  0  3  0  0  0  0  0  0
  -23.7640  -29.8370   20.5650 C   0  0  0  0  0  2  0  0  0  0  0  0
  -24.7670  -31.1630   22.4800 N   0  0  0  0  0  0  0  0  0  0  0  0
  -23.5880  -32.2910   24.0520 O   0  0  0  0  0  0  0  0  0  0  0  0
  -22.8340  -29.5620   22.8860 C   0  0  0  0  0  0  0  0  0  0  0  0
  -21.5380  -29.2980   22.6510 N   0  0  0  0  0  0  0  0  0  0  0  0
  -23.4690  -29.0320   23.8000 O   0  0  0  0  0  0  0  0  0  0  0  0
  -21.0900  -29.7820   21.8860 H   0  0  0  0  0  0  0  0  0  0  0  0
  -18.2150  -27.9010   22.8720 C   0  0  0  0  0  0  0  0  0  0  0  0
  -20.6990  -28.3720   23.4080 C   0  0  0  0  0  3  0  0  0  0  0  0
  -20.9610  -26.9080   22.9840 C   0  0  0  0  0  2  0  0  0  0  0  0
  -20.0120  -26.4180   21.8850 C   0  0  0  0  0  2  0  0  0  0  0  0
  -18.5580  -26.5150   22.3510 C   0  0  0  0  0  2  0  0  0  0  0  0
  -19.2220  -28.7780   23.3520 C   0  0  0  0  0  0  0  0  0  0  0  0
  -18.8540  -30.0690   23.7900 C   0  0  0  0  0  3  0  0  0  0  0  0
  -17.5090  -30.4850   23.7570 C   0  0  0  0  0  3  0  0  0  0  0  0
  -16.5140  -29.6060   23.2950 C   0  0  0  0  0  3  0  0  0  0  0  0
  -16.8670  -28.3170   22.8580 C   0  0  0  0  0  3  0  0  0  0  0  0
  -25.9560  -32.6350   24.1950 C   0  0  0  0  0  3  0  0  0  0  0  0
  -25.6740  -34.0600   24.4110 N   0  0  0  0  0  0  0  0  0  0  0  0
  -26.0610  -35.0450   23.5890 C   0  0  0  0  0  0  0  0  0  0  0  0
  -26.7640  -34.8510   22.5930 O   0  0  0  0  0  0  0  0  0  0  0  0
  -25.0550  -34.2880   25.1760 H   0  0  0  0  0  0  0  0  0  0  0  0
  -24.3810  -36.8360   23.0500 C   0  0  0  0  0  1  0  0  0  0  0  0
  -25.5910  -36.4730   23.9260 C   0  0  0  0  0  3  0  0  0  0  0  0
  -27.7120  -37.3820   24.7600 C   0  0  0  0  0  1  0  0  0  0  0  0
  -26.6480  -37.4940   23.7650 N   0  0  0  0  0  0  0  0  0  0  0  0
  -26.2580  -38.4300   23.8210 H   0  0  0  0  0  0  0  0  0  0  0  0
  -26.3930  -31.9400   25.5440 C   0  0  1  0  0  0  0  0  0  0  0  0
  -25.2360  -31.7630   26.5540 C   0  0  0  0  0  1  0  0  0  0  0  0
  -26.9970  -30.5430   25.2670 C   0  0  0  0  0  1  0  0  0  0  0  0
  -27.5050  -32.7710   26.2250 C   0  0  0  0  0  1  0  0  0  0  0  0
  -27.5830  -22.4110   16.9680 C   0  0  0  0  0  2  0  0  0  0  0  0
  -27.3170  -21.4330   18.1260 C   0  0  0  0  0  2  0  0  0  0  0  0
  -28.6050  -20.7040   18.5430 C   0  0  0  0  0  2  0  0  0  0  0  0
  -28.4220  -19.7410   19.7290 C   0  0  0  0  0  2  0  0  0  0  0  0
  -29.7210  -19.1690   20.1350 N   0  0  0  0  0  4  0  0  0  0  0  0
  -30.2840  -19.8990   20.5440 H   0  0  0  0  0  0  0  0  0  0  0  0
  -30.1960  -18.8430   19.3080 H   0  0  0  0  0  0  0  0  0  0  0  0
  -29.6360  -18.0440   21.0850 C   0  0  0  0  0  2  0  0  0  0  0  0
  -31.0390  -17.4980   21.4100 C   0  0  0  0  0  2  0  0  0  0  0  0
  -31.0480  -16.1990   22.2390 C   0  0  0  0  0  2  0  0  0  0  0  0
  -30.7580  -14.4400   20.4790 C   0  0  0  0  0  0  0  0  0  0  0  0
  -30.3330  -12.5200   18.9890 C   0  0  0  0  0  2  0  0  0  0  0  0
  -29.3420  -12.8750   17.8670 C   0  0  0  0  0  2  0  0  0  0  0  0
  -27.8890  -12.6810   18.3400 C   0  0  0  0  0  2  0  0  0  0  0  0
  -27.6130  -13.3710   19.7010 C   0  0  0  0  0  3  0  0  0  0  0  0
  -28.7020  -13.0010   20.7310 C   0  0  0  0  0  2  0  0  0  0  0  0
  -30.0200  -13.3480   20.1630 N   0  0  0  0  0  0  0  0  0  0  0  0
  -31.7450  -14.8060   19.8340 O   0  0  0  0  0  0  0  0  0  0  0  0
  -30.3620  -15.0840   21.5860 N   0  0  0  0  0  0  0  0  0  0  0  0
  -29.5570  -14.6970   22.0580 H   0  0  0  0  0  0  0  0  0  0  0  0
  -25.2070  -13.9030   20.4550 C   0  0  0  0  0  0  0  0  0  0  0  0
  -24.1690  -13.0950   20.8360 C   0  0  0  0  0  0  0  0  0  0  0  0
  -24.6700  -11.7580   20.7810 C   0  0  0  0  0  0  0  0  0  0  0  0
  -26.2750  -13.0560   20.1970 N   0  0  0  0  0  0  0  0  0  0  0  0
  -25.9540  -11.7600   20.4460 N   0  0  0  0  0  0  0  0  0  0  0  0
  -23.9860  -10.4730   20.9710 C   0  0  0  0  0  0  0  0  0  0  0  0
  -24.4150   -9.5460   21.9480 C   0  0  0  0  0  3  0  0  0  0  0  0
  -23.7310   -8.3240   22.1240 C   0  0  0  0  0  3  0  0  0  0  0  0
  -22.6030   -8.0200   21.3230 C   0  0  0  0  0  0  0  0  0  0  0  0
  -22.1960   -8.9360   20.3380 C   0  0  0  0  0  3  0  0  0  0  0  0
  -22.8810  -10.1500   20.1610 C   0  0  0  0  0  3  0  0  0  0  0  0
  -21.8940   -6.8470   21.4060 O   0  0  0  0  0  0  0  0  0  0  0  0
  -21.7790   -6.1570   22.5860 C   0  0  0  0  0  0  0  0  0  0  0  0
  -21.1780   -6.7280   23.7280 C   0  0  0  0  0  3  0  0  0  0  0  0
  -21.0180   -5.9600   24.8980 C   0  0  0  0  0  3  0  0  0  0  0  0
  -21.4480   -4.6200   24.9260 C   0  0  0  0  0  0  0  0  0  0  0  0
  -22.0410   -4.0470   23.7880 C   0  0  0  0  0  3  0  0  0  0  0  0
  -22.2030   -4.8130   22.6190 C   0  0  0  0  0  0  0  0  0  0  0  0
  -22.7570   -4.2500   21.5180 F   0  0  0  0  0  0  0  0  0  0  0  0
  -21.2870   -3.8790   26.0470 F   0  0  0  0  0  0  0  0  0  0  0  0
  -22.7640  -13.5270   21.1420 C   0  0  0  0  0  0  0  0  0  0  0  0
  -22.0720  -12.7930   22.0070 N   0  0  0  0  0  0  0  0  0  0  0  0
  -22.2890  -14.5490   20.6500 O   0  0  0  0  0  0  0  0  0  0  0  0
  -22.4710  -11.9670   22.4270 H   0  0  0  0  0  0  0  0  0  0  0  0
  -21.1310  -13.0630   22.2530 H   0  0  0  0  0  0  0  0  0  0  0  0
  -25.3290  -15.2790   20.2890 N   0  0  0  0  0  0  0  0  0  0  0  0
  -24.5440  -15.9100   20.4140 H   0  0  0  0  0  0  0  0  0  0  0  0
  -26.1600  -15.7420   19.9450 H   0  0  0  0  0  0  0  0  0  0  0  0
  1 51  1  0
  1  2  1  0
  3  1  1  0
  4  1  1  0
  4  5  1  0
  5  6  1  0
  6  8  1  0
  7  6  1  0
  8  9  1  0
  9 10  1  0
 11 22  2  0
 12 10  1  0
 12 17  1  0
 13 21  1  0
 13 23  1  0
 14 16  1  0
 15 21  1  0
 16 17  2  0
 16 15  1  0
 18 12  2  0
 19 18  1  0
 19 14  2  0
 20 14  1  0
 20 13  1  0
 21 11  1  0
 23 25  2  0
 24 23  1  0
 26 24  1  0
 27 32  1  0
 28 24  1  0
 29 28  1  0
 30 31  1  0
 30 29  1  0
 31 27  1  0
 32 28  1  0
 32 33  2  0
 34 33  1  0
 35 34  2  0
 36 27  2  0
 36 35  1  0
 37 11  1  0
 37 38  1  0
 37 47  1  0
 38 41  1  0
 39 43  1  0
 39 38  1  0
 40 39  2  0
 43 42  1  0
 45 46  1  0
 45 43  1  0
 45 44  1  0
 47 50  1  1
 47 48  1  0
 49 47  1  0
 51 52  1  0
 52 53  1  0
 53 54  1  0
 54 55  1  0
 55 56  1  0
 55 58  1  0
 57 55  1  0
 58 59  1  0
 59 60  1  0
 61 69  1  0
 62 67  1  0
 63 64  1  0
 63 62  1  0
 65 64  1  0
 65 74  1  0
 65 66  1  0
 67 61  1  0
 67 66  1  0
 68 61  2  0
 69 70  1  0
 69 60  1  0
 71 72  2  0
 72 91  1  0
 73 72  1  0
 73 76  1  0
 74 75  1  0
 74 71  1  0
 75 73  2  0
 76 77  1  0
 77 78  2  0
 79 82  1  0
 79 78  1  0
 80 79  2  0
 81 80  1  0
 81 76  2  0
 82 83  1  0
 83 88  2  0
 83 84  1  0
 84 85  2  0
 85 86  1  0
 86 90  1  0
 87 86  2  0
 88 87  1  0
 89 88  1  0
 91 92  1  0
 92 95  1  0
 92 94  1  0
 93 91  2  0
 96 97  1  0
 96 71  1  0
 98 96  1  0
M  ISO  4   9 101  10 101  61 100  69 100
M  END
>  <TORSDO>  (68) 
F 29

>  <SCORE>  (68) 
-8.876

>  <name>  (68) 
73

>  <ligand_id>  (68) 
73

>  <original_smiles>  (68) 
[H]c1c([H])c([H])c2c(c1[H])C([H])([H])C([H])([H])C([H])([H])C2([H])N([H])C(=O)C1([H])N(C(=O)C([H])(N([H])C(=O)C([H])(N([H])C([H])([H])[H])C([H])([H])[H])C(C([H])([H])[H])(C([H])([H])[H])C([H])([H])[H])C([H])([H])c2c([H])c(OC([H])([H])C([H])([H])N([H])C([H])([H])C([H])([H])[N+]([H])([H])C([H])([H])C([H])([H])C([H])([H])C([H])([H])[N+]([H])([H])C([H])([H])C([H])([H])C([H])([H])N([H])C(=O)N3C([H])([H])C([H])([H])C([H])([H])C([H])(n4nc(-c5c([H])c([H])c(Oc6c([H])c([H])c(F)c([H])c6F)c([H])c5[H])c(C(=O)N([H])[H])c4N([H])[H])C3([H])[H])c([H])c([H])c2C1([H])[H]

>  <smiles>  (68) 
[H]c1c([H])c([H])c2c(c1[H])C([H])([H])C([H])([H])C([H])([H])C2([H])N([H])C(=O)C1([H])N(C(=O)C([H])(N([H])C(=O)C([H])(N([H])C([H])([H])[H])C([H])([H])[H])C(C([H])([H])[H])(C([H])([H])[H])C([H])([H])[H])C([H])([H])c2c([H])c(OC([H])([H])C([H])([H])N([H])C([H])([H])C([H])([H])[N+]([H])([H])C([H])([H])C([H])([H])C([H])([H])C([H])([H])[N+]([H])([H])C([H])([H])C([H])([H])C([H])([H])N([H])C(=O)N3C([H])([H])C([H])([H])C([H])([H])C([H])(n4nc(-c5c([H])c([H])c(Oc6c([H])c([H])c(F)c([H])c6F)c([H])c5[H])c(C(=O)N([H])[H])c4N([H])[H])C3([H])[H])c([H])c([H])c2C1([H])[H]

$$$$
74:0:0
     RDKit          3D

105112  0  0  1  0  0  0  0  0999 V2000
  -26.4640  -22.0620   19.9070 C   0  0  0  0  0  0  0  0  0  0  0  0
  -26.6350  -22.6850   18.7900 N   0  0  0  0  0  0  0  0  0  0  0  0
  -27.2950  -22.1190   17.7080 C   0  0  0  0  0  0  0  0  0  0  0  0
  -26.7520  -22.0150   16.6120 O   0  0  0  0  0  0  0  0  0  0  0  0
  -28.6900  -21.7270   17.9040 C   0  0  0  0  0  3  0  0  0  0  0  0
  -29.4840  -22.2580   18.8540 C   0  0  0  0  0  3  0  0  0  0  0  0
  -30.8940  -21.7990   19.1430 C   0  0  0  0  0  2  0  0  0  0  0  0
  -31.1850  -21.8590   20.6510 C   0  0  0  0  0  2  0  0  0  0  0  0
  -32.2420  -20.8390   21.0970 C   0  0  0  0  0  2  0  0  0  0  0  0
  -31.7130  -19.5170   21.0290 O   0  0  0  0  0  0  0  0  0  0  0  0
  -30.9430  -19.1350   22.1680 C   0  0  0  0  0  2  0  0  0  0  0  0
  -30.2760  -17.7760   21.9100 C   0  0  0  0  0  2  0  0  0  0  0  0
  -31.3040  -16.6490   21.7480 C   0  0  0  0  0  2  0  0  0  0  0  0
  -31.0370  -14.5840   20.3920 C   0  0  0  0  0  0  0  0  0  0  0  0
  -30.6550  -12.4550   19.2120 C   0  0  0  0  0  2  0  0  0  0  0  0
  -29.7250  -12.6370   18.0000 C   0  0  0  0  0  2  0  0  0  0  0  0
  -28.2510  -12.5040   18.4220 C   0  0  0  0  0  2  0  0  0  0  0  0
  -27.9130  -13.3880   19.6530 C   0  0  0  0  0  3  0  0  0  0  0  0
  -28.9560  -13.2100   20.7790 C   0  0  0  0  0  2  0  0  0  0  0  0
  -30.2990  -13.4550   20.2270 N   0  0  0  0  0  0  0  0  0  0  0  0
  -32.0190  -14.8540   19.6940 O   0  0  0  0  0  0  0  0  0  0  0  0
  -30.6690  -15.3730   21.4090 N   0  0  0  0  0  0  0  0  0  0  0  0
  -29.8980  -15.0560   21.9830 H   0  0  0  0  0  0  0  0  0  0  0  0
  -25.5190  -14.0330   20.3390 C   0  0  0  0  0  0  0  0  0  0  0  0
  -24.4380  -13.2770   20.7070 C   0  0  0  0  0  0  0  0  0  0  0  0
  -24.8840  -11.9180   20.6990 C   0  0  0  0  0  0  0  0  0  0  0  0
  -26.5560  -13.1360   20.1310 N   0  0  0  0  0  0  0  0  0  0  0  0
  -26.1750  -11.8620   20.3980 N   0  0  0  0  0  0  0  0  0  0  0  0
  -24.1440  -10.6670   20.9090 C   0  0  0  0  0  0  0  0  0  0  0  0
  -24.5590   -9.7210   21.8730 C   0  0  0  0  0  3  0  0  0  0  0  0
  -23.8280   -8.5290   22.0710 C   0  0  0  0  0  3  0  0  0  0  0  0
  -22.6660   -8.2760   21.3050 C   0  0  0  0  0  0  0  0  0  0  0  0
  -22.2700   -9.2070   20.3310 C   0  0  0  0  0  3  0  0  0  0  0  0
  -23.0010  -10.3910   20.1320 C   0  0  0  0  0  3  0  0  0  0  0  0
  -21.9090   -7.1320   21.4070 O   0  0  0  0  0  0  0  0  0  0  0  0
  -21.8060   -6.4360   22.5840 C   0  0  0  0  0  0  0  0  0  0  0  0
  -21.3530   -7.0470   23.7750 C   0  0  0  0  0  3  0  0  0  0  0  0
  -21.1970   -6.2780   24.9460 C   0  0  0  0  0  3  0  0  0  0  0  0
  -21.4830   -4.9000   24.9270 C   0  0  0  0  0  0  0  0  0  0  0  0
  -21.9300   -4.2890   23.7410 C   0  0  0  0  0  3  0  0  0  0  0  0
  -22.0870   -5.0560   22.5730 C   0  0  0  0  0  0  0  0  0  0  0  0
  -22.4960   -4.4580   21.4270 F   0  0  0  0  0  0  0  0  0  0  0  0
  -21.3260   -4.1590   26.0490 F   0  0  0  0  0  0  0  0  0  0  0  0
  -23.0460  -13.7700   20.9690 C   0  0  0  0  0  0  0  0  0  0  0  0
  -22.3240  -13.1030   21.8610 N   0  0  0  0  0  0  0  0  0  0  0  0
  -22.6110  -14.7820   20.4210 O   0  0  0  0  0  0  0  0  0  0  0  0
  -22.7020  -12.2890   22.3210 H   0  0  0  0  0  0  0  0  0  0  0  0
  -21.3880  -13.4100   22.0860 H   0  0  0  0  0  0  0  0  0  0  0  0
  -25.7190  -15.3990   20.1520 N   0  0  0  0  0  0  0  0  0  0  0  0
  -24.9680  -16.0800   20.1200 H   0  0  0  0  0  0  0  0  0  0  0  0
  -26.6350  -15.8070   20.0180 H   0  0  0  0  0  0  0  0  0  0  0  0
  -26.8850  -20.6340   20.3200 C   0  0  0  0  0  2  0  0  0  0  0  0
  -28.0350  -19.1220   19.0530 N   0  0  0  0  0  0  0  0  0  0  0  0
  -26.9250  -19.6640   19.1950 N   0  0  0  0  0  2  0  0  0  0  0  0
  -28.2660  -18.5180   17.8760 C   0  0  0  0  0  3  0  0  0  0  0  0
  -29.4400  -18.0520   17.6630 N   0  0  0  0  0  0  0  0  0  0  0  0
  -30.1580  -18.1230   18.3660 H   0  0  0  0  0  0  0  0  0  0  0  0
  -29.6930  -17.6640   16.7630 H   0  0  0  0  0  0  0  0  0  0  0  0
  -25.7560  -22.8090   21.0340 C   0  0  0  0  0  2  0  0  0  0  0  0
  -26.7040  -23.2540   22.1760 C   0  0  0  0  0  2  0  0  0  0  0  0
  -26.5300  -24.7310   22.5880 C   0  0  0  0  0  2  0  0  0  0  0  0
  -26.8430  -25.6120   21.5140 O   0  0  0  0  0  0  0  0  0  0  0  0
  -28.2190  -25.6860   21.1440 C   0  0  0  0  0  2  0  0  0  0  0  0
  -28.3150  -25.8760   19.6180 C   0  0  0  0  0  2  0  0  0  0  0  0
  -28.2080  -27.2460   19.2450 O   0  0  0  0  0  0  0  0  0  0  0  0
  -24.5800  -31.9620   23.1050 C   0  0  0  0  0  0  0  0  0  0  0  0
  -27.0000  -27.8730   19.4320 C   0  0  0  0  0  0  0  0  0  0  0  0
  -23.2530  -30.7050   21.4400 C   0  0  0  0  0  3  0  0  0  0  0  0
  -24.5910  -29.3020   19.7830 C   0  0  0  0  0  0  0  0  0  0  0  0
  -25.7440  -31.1150   21.0670 C   0  0  0  0  0  2  0  0  0  0  0  0
  -25.7850  -29.8020   20.3170 C   0  0  0  0  0  0  0  0  0  0  0  0
  -26.9890  -29.0900   20.1440 C   0  0  0  0  0  3  0  0  0  0  0  0
  -25.7890  -27.3710   18.9050 C   0  0  0  0  0  3  0  0  0  0  0  0
  -24.5830  -28.0780   19.0890 C   0  0  0  0  0  3  0  0  0  0  0  0
  -23.3530  -30.1460   19.9940 C   0  0  0  0  0  2  0  0  0  0  0  0
  -24.5510  -31.2690   21.9320 N   0  0  0  0  0  0  0  0  0  0  0  0
  -23.5450  -32.1700   23.7500 O   0  0  0  0  0  0  0  0  0  0  0  0
  -22.6860  -29.5950   22.3510 C   0  0  0  0  0  0  0  0  0  0  0  0
  -21.3620  -29.3820   22.2820 N   0  0  0  0  0  0  0  0  0  0  0  0
  -23.4310  -28.9280   23.0750 O   0  0  0  0  0  0  0  0  0  0  0  0
  -20.8160  -29.9850   21.6820 H   0  0  0  0  0  0  0  0  0  0  0  0
  -18.0600  -28.0200   22.8200 C   0  0  0  0  0  0  0  0  0  0  0  0
  -20.6150  -28.3580   23.0130 C   0  0  0  0  0  3  0  0  0  0  0  0
  -20.7430  -26.9760   22.3290 C   0  0  0  0  0  2  0  0  0  0  0  0
  -19.6110  -26.6820   21.3380 C   0  0  0  0  0  2  0  0  0  0  0  0
  -18.2560  -26.7290   22.0450 C   0  0  0  0  0  2  0  0  0  0  0  0
  -19.1660  -28.7930   23.2600 C   0  0  0  0  0  0  0  0  0  0  0  0
  -18.9270  -30.0060   23.9430 C   0  0  0  0  0  3  0  0  0  0  0  0
  -17.6130  -30.4440   24.1930 C   0  0  0  0  0  3  0  0  0  0  0  0
  -16.5210  -29.6660   23.7690 C   0  0  0  0  0  3  0  0  0  0  0  0
  -16.7450  -28.4560   23.0890 C   0  0  0  0  0  3  0  0  0  0  0  0
  -25.9090  -32.5500   23.6790 C   0  0  0  0  0  3  0  0  0  0  0  0
  -26.5190  -31.6780   24.8430 C   0  0  1  0  0  0  0  0  0  0  0  0
  -25.5150  -31.3430   25.9690 C   0  0  0  0  0  1  0  0  0  0  0  0
  -27.0600  -30.3440   24.2840 C   0  0  0  0  0  1  0  0  0  0  0  0
  -27.7180  -32.4160   25.4830 C   0  0  0  0  0  1  0  0  0  0  0  0
  -25.6260  -33.9150   24.1470 N   0  0  0  0  0  0  0  0  0  0  0  0
  -25.9190  -35.0290   23.4640 C   0  0  0  0  0  0  0  0  0  0  0  0
  -26.5300  -35.0140   22.3920 O   0  0  0  0  0  0  0  0  0  0  0  0
  -25.0770  -33.9960   24.9910 H   0  0  0  0  0  0  0  0  0  0  0  0
  -24.1810  -36.8420   23.3580 C   0  0  0  0  0  1  0  0  0  0  0  0
  -25.4630  -36.3740   24.0640 C   0  0  0  0  0  3  0  0  0  0  0  0
  -27.6470  -37.1790   24.8450 C   0  0  0  0  0  1  0  0  0  0  0  0
  -26.4930  -37.4320   23.9860 N   0  0  0  0  0  0  0  0  0  0  0  0
  -26.1020  -38.3360   24.2400 H   0  0  0  0  0  0  0  0  0  0  0  0
  1 52  1  0
  1 59  1  0
  2  1  2  0
  3  5  1  0
  3  2  1  0
  4  3  2  0
  5  6  2  0
  6  7  1  0
  7  8  1  0
  8  9  1  0
 10  9  1  0
 10 11  1  0
 12 11  1  0
 13 12  1  0
 14 22  1  0
 15 20  1  0
 16 17  1  0
 16 15  1  0
 18 17  1  0
 18 27  1  0
 18 19  1  0
 20 14  1  0
 20 19  1  0
 21 14  2  0
 22 13  1  0
 22 23  1  0
 24 25  2  0
 25 44  1  0
 26 25  1  0
 26 29  1  0
 27 24  1  0
 27 28  1  0
 28 26  2  0
 29 30  1  0
 30 31  2  0
 32 35  1  0
 32 31  1  0
 33 32  2  0
 34 33  1  0
 34 29  2  0
 35 36  1  0
 36 37  1  0
 37 38  2  0
 39 38  1  0
 39 43  1  0
 40 39  2  0
 41 36  2  0
 41 40  1  0
 42 41  1  0
 44 45  1  0
 45 48  1  0
 45 47  1  0
 46 44  2  0
 49 24  1  0
 50 49  1  0
 51 49  1  0
 53 54  1  0
 54 52  1  0
 55 53  2  0
 56 55  1  0
 56 57  1  0
 58 56  1  0
 59 60  1  0
 60 61  1  0
 62 61  1  0
 63 62  1  0
 64 63  1  0
 65 67  1  0
 65 64  1  0
 66 77  2  0
 67 72  1  0
 68 76  1  0
 68 78  1  0
 69 75  1  0
 69 71  1  0
 70 76  1  0
 71 70  1  0
 72 71  2  0
 73 74  1  0
 73 67  2  0
 74 69  2  0
 75 68  1  0
 76 66  1  0
 78 80  2  0
 79 78  1  0
 81 79  1  0
 82 91  2  0
 82 87  1  0
 83 79  1  0
 83 87  1  0
 84 83  1  0
 85 86  1  0
 85 84  1  0
 86 82  1  0
 87 88  2  0
 88 89  1  0
 90 89  2  0
 91 90  1  0
 92 66  1  0
 92 97  1  0
 92 93  1  0
 93 96  1  1
 93 94  1  0
 95 93  1  0
 97100  1  0
 98102  1  0
 98 97  1  0
 99 98  2  0
102101  1  0
104102  1  0
104105  1  0
104103  1  0
M  ISO  4  14 100  22 100  64 101  65 101
M  END
>  <TORSDO>  (69) 
F 34

>  <SCORE>  (69) 
-7.592

>  <name>  (69) 
74

>  <ligand_id>  (69) 
74

>  <original_smiles>  (69) 
[H]C(C(=O)N=C(C([H])([H])N=NC([H])=[N+]([H])[H])C([H])([H])C([H])([H])C([H])([H])OC([H])([H])C([H])([H])Oc1c([H])c([H])c2c(c1[H])C([H])([H])N(C(=O)C([H])(N([H])C(=O)C([H])(N([H])C([H])([H])[H])C([H])([H])[H])C(C([H])([H])[H])(C([H])([H])[H])C([H])([H])[H])C([H])(C(=O)N([H])C1([H])c3c([H])c([H])c([H])c([H])c3C([H])([H])C([H])([H])C1([H])[H])C2([H])[H])=C([H])C([H])([H])C([H])([H])C([H])([H])OC([H])([H])C([H])([H])C([H])([H])N([H])C(=O)N1C([H])([H])C([H])([H])C([H])([H])C([H])(n2nc(-c3c([H])c([H])c(Oc4c([H])c([H])c(F)c([H])c4F)c([H])c3[H])c(C(=O)N([H])[H])c2N([H])[H])C1([H])[H]

>  <smiles>  (69) 
[H]C(C(=O)N=C(C([H])([H])N=NC([H])=[N+]([H])[H])C([H])([H])C([H])([H])C([H])([H])OC([H])([H])C([H])([H])Oc1c([H])c([H])c2c(c1[H])C([H])([H])N(C(=O)C([H])(N([H])C(=O)C([H])(N([H])C([H])([H])[H])C([H])([H])[H])C(C([H])([H])[H])(C([H])([H])[H])C([H])([H])[H])C([H])(C(=O)N([H])C1([H])c3c([H])c([H])c([H])c([H])c3C([H])([H])C([H])([H])C1([H])[H])C2([H])[H])=C([H])C([H])([H])C([H])([H])C([H])([H])OC([H])([H])C([H])([H])C([H])([H])N([H])C(=O)N1C([H])([H])C([H])([H])C([H])([H])C([H])(n2nc(-c3c([H])c([H])c(Oc4c([H])c([H])c(F)c([H])c4F)c([H])c3[H])c(C(=O)N([H])[H])c2N([H])[H])C1([H])[H]

$$$$
76:0:0
     RDKit          3D

 97104  0  0  1  0  0  0  0  0999 V2000
  -32.8170  -24.8880   24.2190 C   0  0  0  0  0  3  0  0  0  0  0  0
  -32.4740  -25.1400   23.0200 N   0  0  0  0  0  0  0  0  0  0  0  0
  -33.3760  -23.5520   24.6830 C   0  0  0  0  0  2  0  0  0  0  0  0
  -34.2190  -22.8070   23.6210 C   0  0  0  0  0  2  0  0  0  0  0  0
  -33.4130  -21.8490   22.7200 C   0  0  0  0  0  2  0  0  0  0  0  0
  -33.1490  -20.4820   23.3810 C   0  0  0  0  0  2  0  0  0  0  0  0
  -32.3780  -19.5700   22.5070 N   0  0  0  0  0  4  0  0  0  0  0  0
  -32.7960  -19.5670   21.5900 H   0  0  0  0  0  0  0  0  0  0  0  0
  -31.4400  -19.9270   22.4190 H   0  0  0  0  0  0  0  0  0  0  0  0
  -32.3220  -18.1770   23.0050 C   0  0  0  0  0  2  0  0  0  0  0  0
  -31.4030  -17.2670   22.1600 C   0  0  0  0  0  2  0  0  0  0  0  0
  -31.4780  -15.7980   22.6250 C   0  0  0  0  0  2  0  0  0  0  0  0
  -30.8220  -14.3170   20.7280 C   0  0  0  0  0  0  0  0  0  0  0  0
  -30.4110  -12.2880   19.3880 C   0  0  0  0  0  2  0  0  0  0  0  0
  -29.4800  -12.5260   18.1890 C   0  0  0  0  0  2  0  0  0  0  0  0
  -28.0070  -12.3780   18.6100 C   0  0  0  0  0  2  0  0  0  0  0  0
  -27.6660  -13.2060   19.8760 C   0  0  0  0  0  3  0  0  0  0  0  0
  -28.7050  -12.9680   20.9950 C   0  0  0  0  0  2  0  0  0  0  0  0
  -30.0550  -13.2310   20.4580 N   0  0  0  0  0  0  0  0  0  0  0  0
  -31.7840  -14.6650   20.0360 O   0  0  0  0  0  0  0  0  0  0  0  0
  -30.5710  -14.8990   21.9070 N   0  0  0  0  0  0  0  0  0  0  0  0
  -29.7880  -14.5250   22.4240 H   0  0  0  0  0  0  0  0  0  0  0  0
  -25.2620  -13.8180   20.5680 C   0  0  0  0  0  0  0  0  0  0  0  0
  -24.1860  -13.0440   20.9160 C   0  0  0  0  0  0  0  0  0  0  0  0
  -24.6420  -11.6910   20.8710 C   0  0  0  0  0  0  0  0  0  0  0  0
  -26.3060  -12.9340   20.3380 N   0  0  0  0  0  0  0  0  0  0  0  0
  -25.9340  -11.6490   20.5760 N   0  0  0  0  0  0  0  0  0  0  0  0
  -23.9070  -10.4300   21.0400 C   0  0  0  0  0  0  0  0  0  0  0  0
  -24.3620   -9.4210   21.9170 C   0  0  0  0  0  3  0  0  0  0  0  0
  -23.6300   -8.2250   22.0760 C   0  0  0  0  0  3  0  0  0  0  0  0
  -22.4280   -8.0290   21.3540 C   0  0  0  0  0  0  0  0  0  0  0  0
  -21.9910   -9.0260   20.4640 C   0  0  0  0  0  3  0  0  0  0  0  0
  -22.7240  -10.2140   20.3040 C   0  0  0  0  0  3  0  0  0  0  0  0
  -21.6650   -6.8880   21.4230 O   0  0  0  0  0  0  0  0  0  0  0  0
  -21.6870   -6.0730   22.5270 C   0  0  0  0  0  0  0  0  0  0  0  0
  -21.4020   -6.5640   23.8210 C   0  0  0  0  0  3  0  0  0  0  0  0
  -21.3660   -5.6790   24.9170 C   0  0  0  0  0  3  0  0  0  0  0  0
  -21.6050   -4.3050   24.7220 C   0  0  0  0  0  0  0  0  0  0  0  0
  -21.8820   -3.8140   23.4340 C   0  0  0  0  0  3  0  0  0  0  0  0
  -21.9200   -4.6960   22.3400 C   0  0  0  0  0  0  0  0  0  0  0  0
  -22.1670   -4.2140   21.0980 F   0  0  0  0  0  0  0  0  0  0  0  0
  -21.5630   -3.4540   25.7730 F   0  0  0  0  0  0  0  0  0  0  0  0
  -22.7890  -13.5230   21.1830 C   0  0  0  0  0  0  0  0  0  0  0  0
  -22.0540  -12.8220   22.0380 N   0  0  0  0  0  0  0  0  0  0  0  0
  -22.3570  -14.5540   20.6690 O   0  0  0  0  0  0  0  0  0  0  0  0
  -22.4170  -11.9890   22.4760 H   0  0  0  0  0  0  0  0  0  0  0  0
  -21.1160  -13.1240   22.2580 H   0  0  0  0  0  0  0  0  0  0  0  0
  -25.4370  -15.1910   20.4110 N   0  0  0  0  0  0  0  0  0  0  0  0
  -24.6770  -15.8530   20.5270 H   0  0  0  0  0  0  0  0  0  0  0  0
  -26.3030  -15.6270   20.1160 H   0  0  0  0  0  0  0  0  0  0  0  0
  -32.0460  -26.5000   22.7520 C   0  0  0  0  0  2  0  0  0  0  0  0
  -31.9460  -26.6900   21.2900 N   0  0  0  0  0  4  0  0  0  0  0  0
  -32.0420  -27.6740   21.0900 H   0  0  0  0  0  0  0  0  0  0  0  0
  -32.7420  -26.2320   20.8770 H   0  0  0  0  0  0  0  0  0  0  0  0
  -30.7040  -26.1850   20.6540 C   0  0  0  0  0  2  0  0  0  0  0  0
  -29.5510  -27.1940   20.7590 C   0  0  0  0  0  2  0  0  0  0  0  0
  -28.4070  -26.7200   20.0500 O   0  0  0  0  0  0  0  0  0  0  0  0
  -24.6050  -31.8710   23.2140 C   0  0  0  0  0  0  0  0  0  0  0  0
  -27.2620  -27.4880   20.1030 C   0  0  0  0  0  0  0  0  0  0  0  0
  -23.3910  -30.4920   21.5520 C   0  0  0  0  0  3  0  0  0  0  0  0
  -24.8440  -28.9610   20.1180 C   0  0  0  0  0  0  0  0  0  0  0  0
  -25.9090  -30.8580   21.3550 C   0  0  0  0  0  2  0  0  0  0  0  0
  -25.9930  -29.4910   20.7140 C   0  0  0  0  0  0  0  0  0  0  0  0
  -27.1970  -28.7660   20.7120 C   0  0  0  0  0  3  0  0  0  0  0  0
  -26.0950  -26.9640   19.5070 C   0  0  0  0  0  3  0  0  0  0  0  0
  -24.8870  -27.6910   19.5140 C   0  0  0  0  0  3  0  0  0  0  0  0
  -23.5990  -29.8170   20.1670 C   0  0  0  0  0  2  0  0  0  0  0  0
  -24.6530  -31.0870   22.1010 N   0  0  0  0  0  0  0  0  0  0  0  0
  -23.5270  -32.1430   23.7580 O   0  0  0  0  0  0  0  0  0  0  0  0
  -22.7360  -29.4660   22.5020 C   0  0  0  0  0  0  0  0  0  0  0  0
  -21.4100  -29.3010   22.3760 N   0  0  0  0  0  0  0  0  0  0  0  0
  -23.4160  -28.8210   23.3040 O   0  0  0  0  0  0  0  0  0  0  0  0
  -20.9250  -29.8730   21.7000 H   0  0  0  0  0  0  0  0  0  0  0  0
  -18.0260  -28.1360   22.8500 C   0  0  0  0  0  0  0  0  0  0  0  0
  -20.5840  -28.3630   23.1350 C   0  0  0  0  0  3  0  0  0  0  0  0
  -20.6740  -26.9380   22.5430 C   0  0  0  0  0  2  0  0  0  0  0  0
  -19.5730  -26.6380   21.5210 C   0  0  0  0  0  2  0  0  0  0  0  0
  -18.1900  -26.7910   22.1620 C   0  0  0  0  0  2  0  0  0  0  0  0
  -19.1510  -28.8820   23.2920 C   0  0  0  0  0  0  0  0  0  0  0  0
  -18.9440  -30.1430   23.8920 C   0  0  0  0  0  3  0  0  0  0  0  0
  -17.6450  -30.6580   24.0560 C   0  0  0  0  0  3  0  0  0  0  0  0
  -16.5340  -29.9080   23.6330 C   0  0  0  0  0  3  0  0  0  0  0  0
  -16.7250  -28.6490   23.0350 C   0  0  0  0  0  3  0  0  0  0  0  0
  -25.8970  -32.4840   23.8420 C   0  0  0  0  0  3  0  0  0  0  0  0
  -25.5860  -33.8640   24.2360 N   0  0  0  0  0  0  0  0  0  0  0  0
  -25.9010  -34.9490   23.5150 C   0  0  0  0  0  0  0  0  0  0  0  0
  -26.5580  -34.8930   22.4720 O   0  0  0  0  0  0  0  0  0  0  0  0
  -25.0010  -33.9830   25.0500 H   0  0  0  0  0  0  0  0  0  0  0  0
  -24.1480  -36.7330   23.2640 C   0  0  0  0  0  1  0  0  0  0  0  0
  -25.4100  -36.3130   24.0340 C   0  0  0  0  0  3  0  0  0  0  0  0
  -27.5580  -37.1820   24.8470 C   0  0  0  0  0  1  0  0  0  0  0  0
  -26.4290  -37.3810   23.9410 N   0  0  0  0  0  0  0  0  0  0  0  0
  -26.0190  -38.2890   24.1410 H   0  0  0  0  0  0  0  0  0  0  0  0
  -26.4450  -31.6610   25.0720 C   0  0  1  0  0  0  0  0  0  0  0  0
  -25.3760  -31.3680   26.1490 C   0  0  0  0  0  1  0  0  0  0  0  0
  -27.0280  -30.3080   24.6030 C   0  0  0  0  0  1  0  0  0  0  0  0
  -27.6040  -32.4320   25.7470 C   0  0  0  0  0  1  0  0  0  0  0  0
  1  3  1  0
  2  1  2  0
  4  3  1  0
  5  6  1  0
  5  4  1  0
  7 10  1  0
  7  6  1  0
  8  7  1  0
  9  7  1  0
 11 12  1  0
 11 10  1  0
 13 21  1  0
 14 19  1  0
 15 16  1  0
 15 14  1  0
 17 16  1  0
 17 26  1  0
 17 18  1  0
 19 13  1  0
 19 18  1  0
 20 13  2  0
 21 22  1  0
 21 12  1  0
 23 24  2  0
 24 43  1  0
 25 24  1  0
 25 28  1  0
 26 23  1  0
 26 27  1  0
 27 25  2  0
 28 29  1  0
 29 30  2  0
 31 34  1  0
 31 30  1  0
 32 31  2  0
 33 32  1  0
 33 28  2  0
 34 35  1  0
 35 36  1  0
 36 37  2  0
 38 37  1  0
 38 42  1  0
 39 38  2  0
 40 35  2  0
 40 39  1  0
 41 40  1  0
 43 44  1  0
 44 47  1  0
 44 46  1  0
 45 43  2  0
 48 49  1  0
 48 23  1  0
 50 48  1  0
 51  2  1  0
 52 51  1  0
 53 52  1  0
 54 52  1  0
 55 56  1  0
 55 52  1  0
 57 59  1  0
 57 56  1  0
 58 69  2  0
 59 64  1  0
 60 68  1  0
 60 70  1  0
 61 67  1  0
 61 63  1  0
 62 68  1  0
 63 62  1  0
 64 63  2  0
 65 66  1  0
 65 59  2  0
 66 61  2  0
 67 60  1  0
 68 58  1  0
 70 72  2  0
 71 70  1  0
 73 71  1  0
 74 83  2  0
 74 79  1  0
 75 71  1  0
 75 79  1  0
 76 75  1  0
 77 78  1  0
 77 76  1  0
 78 74  1  0
 79 80  2  0
 80 81  1  0
 82 81  2  0
 83 82  1  0
 84 58  1  0
 84 85  1  0
 84 94  1  0
 85 88  1  0
 86 90  1  0
 86 85  1  0
 87 86  2  0
 90 89  1  0
 92 90  1  0
 92 93  1  0
 92 91  1  0
 94 97  1  1
 94 95  1  0
 96 94  1  0
M  ISO  4  13 100  21 100  56 101  57 101
M  END
>  <TORSDO>  (70) 
F 28

>  <SCORE>  (70) 
17.152

>  <name>  (70) 
76

>  <ligand_id>  (70) 
76

>  <original_smiles>  (70) 
[H]C(=NC([H])([H])[N+]([H])([H])C([H])([H])C([H])([H])Oc1c([H])c([H])c2c(c1[H])C([H])([H])N(C(=O)C([H])(N([H])C(=O)C([H])(N([H])C([H])([H])[H])C([H])([H])[H])C(C([H])([H])[H])(C([H])([H])[H])C([H])([H])[H])C([H])(C(=O)N([H])C1([H])c3c([H])c([H])c([H])c([H])c3C([H])([H])C([H])([H])C1([H])[H])C2([H])[H])C([H])([H])C([H])([H])C([H])([H])C([H])([H])[N+]([H])([H])C([H])([H])C([H])([H])C([H])([H])N([H])C(=O)N1C([H])([H])C([H])([H])C([H])([H])C([H])(n2nc(-c3c([H])c([H])c(Oc4c([H])c([H])c(F)c([H])c4F)c([H])c3[H])c(C(=O)N([H])[H])c2N([H])[H])C1([H])[H]

>  <smiles>  (70) 
[H]C(=NC([H])([H])[N+]([H])([H])C([H])([H])C([H])([H])Oc1c([H])c([H])c2c(c1[H])C([H])([H])N(C(=O)C([H])(N([H])C(=O)C([H])(N([H])C([H])([H])[H])C([H])([H])[H])C(C([H])([H])[H])(C([H])([H])[H])C([H])([H])[H])C([H])(C(=O)N([H])C1([H])c3c([H])c([H])c([H])c([H])c3C([H])([H])C([H])([H])C1([H])[H])C2([H])[H])C([H])([H])C([H])([H])C([H])([H])C([H])([H])[N+]([H])([H])C([H])([H])C([H])([H])C([H])([H])N([H])C(=O)N1C([H])([H])C([H])([H])C([H])([H])C([H])(n2nc(-c3c([H])c([H])c(Oc4c([H])c([H])c(F)c([H])c4F)c([H])c3[H])c(C(=O)N([H])[H])c2N([H])[H])C1([H])[H]

$$$$
77:0:0
     RDKit          3D

 96103  0  0  1  0  0  0  0  0999 V2000
  -32.2660  -21.6050   19.0600 C   0  0  0  0  0  2  0  0  0  0  0  0
  -31.2770  -22.5830   19.5120 N   0  0  0  0  0  0  0  0  0  0  0  0
  -30.4140  -22.4510   18.9810 H   0  0  0  0  0  0  0  0  0  0  0  0
  -31.7060  -23.9750   19.3670 C   0  0  0  0  0  2  0  0  0  0  0  0
  -30.8280  -24.9270   20.1990 C   0  0  0  0  0  2  0  0  0  0  0  0
  -30.6770  -26.3220   19.5560 C   0  0  0  0  0  2  0  0  0  0  0  0
  -29.7030  -27.2510   20.2980 C   0  0  0  0  0  2  0  0  0  0  0  0
  -28.4210  -26.6530   20.1730 O   0  0  0  0  0  0  0  0  0  0  0  0
  -24.6130  -31.8820   23.2420 C   0  0  0  0  0  0  0  0  0  0  0  0
  -27.2970  -27.4410   20.2260 C   0  0  0  0  0  0  0  0  0  0  0  0
  -23.4150  -30.4620   21.6010 C   0  0  0  0  0  3  0  0  0  0  0  0
  -24.8860  -28.9090   20.2120 C   0  0  0  0  0  0  0  0  0  0  0  0
  -25.9380  -30.8300   21.4220 C   0  0  0  0  0  2  0  0  0  0  0  0
  -26.0350  -29.4520   20.8030 C   0  0  0  0  0  0  0  0  0  0  0  0
  -27.2440  -28.7280   20.8150 C   0  0  0  0  0  3  0  0  0  0  0  0
  -26.1330  -26.9010   19.6450 C   0  0  0  0  0  3  0  0  0  0  0  0
  -24.9270  -27.6270   19.6330 C   0  0  0  0  0  3  0  0  0  0  0  0
  -23.6370  -29.7600   20.2330 C   0  0  0  0  0  2  0  0  0  0  0  0
  -24.6710  -31.0740   22.1450 N   0  0  0  0  0  0  0  0  0  0  0  0
  -23.5290  -32.1590   23.7720 O   0  0  0  0  0  0  0  0  0  0  0  0
  -22.7590  -29.4540   22.5710 C   0  0  0  0  0  0  0  0  0  0  0  0
  -21.4340  -29.2720   22.4400 N   0  0  0  0  0  0  0  0  0  0  0  0
  -23.4370  -28.8390   23.3980 O   0  0  0  0  0  0  0  0  0  0  0  0
  -20.9470  -29.8160   21.7420 H   0  0  0  0  0  0  0  0  0  0  0  0
  -18.0560  -28.0960   22.9360 C   0  0  0  0  0  0  0  0  0  0  0  0
  -20.6140  -28.3460   23.2190 C   0  0  0  0  0  3  0  0  0  0  0  0
  -20.7140  -26.9110   22.6560 C   0  0  0  0  0  2  0  0  0  0  0  0
  -19.6150  -26.5840   21.6400 C   0  0  0  0  0  2  0  0  0  0  0  0
  -18.2290  -26.7410   22.2730 C   0  0  0  0  0  2  0  0  0  0  0  0
  -19.1760  -28.8560   23.3650 C   0  0  0  0  0  0  0  0  0  0  0  0
  -18.9620  -30.1250   23.9440 C   0  0  0  0  0  3  0  0  0  0  0  0
  -17.6580  -30.6370   24.0990 C   0  0  0  0  0  3  0  0  0  0  0  0
  -16.5520  -29.8730   23.6880 C   0  0  0  0  0  3  0  0  0  0  0  0
  -16.7510  -28.6060   23.1110 C   0  0  0  0  0  3  0  0  0  0  0  0
  -25.8960  -32.5170   23.8630 C   0  0  0  0  0  3  0  0  0  0  0  0
  -26.4200  -31.7510   25.1410 C   0  0  1  0  0  0  0  0  0  0  0  0
  -25.3300  -31.5180   26.2110 C   0  0  0  0  0  1  0  0  0  0  0  0
  -27.0090  -30.3720   24.7560 C   0  0  0  0  0  1  0  0  0  0  0  0
  -27.5690  -32.5520   25.7980 C   0  0  0  0  0  1  0  0  0  0  0  0
  -25.5820  -33.9160   24.1890 N   0  0  0  0  0  0  0  0  0  0  0  0
  -25.9120  -34.9650   23.4260 C   0  0  0  0  0  0  0  0  0  0  0  0
  -26.5870  -34.8630   22.3970 O   0  0  0  0  0  0  0  0  0  0  0  0
  -24.9850  -34.0730   24.9870 H   0  0  0  0  0  0  0  0  0  0  0  0
  -24.1780  -36.7520   23.0600 C   0  0  0  0  0  1  0  0  0  0  0  0
  -25.4170  -36.3520   23.8780 C   0  0  0  0  0  3  0  0  0  0  0  0
  -27.5470  -37.2410   24.7140 C   0  0  0  0  0  1  0  0  0  0  0  0
  -26.4440  -37.4090   23.7720 N   0  0  0  0  0  0  0  0  0  0  0  0
  -26.0310  -38.3240   23.9260 H   0  0  0  0  0  0  0  0  0  0  0  0
  -31.5890  -20.2570   18.7500 C   0  0  0  0  0  2  0  0  0  0  0  0
  -32.5270  -19.2340   18.2670 N   0  0  0  0  0  0  0  0  0  0  0  0
  -33.1460  -19.6640   17.5750 H   0  0  0  0  0  0  0  0  0  0  0  0
  -33.3390  -18.6510   19.3420 C   0  0  0  0  0  2  0  0  0  0  0  0
  -34.0250  -17.3380   18.9210 C   0  0  0  0  0  2  0  0  0  0  0  0
  -33.0160  -16.3040   18.6090 N   0  0  0  0  0  4  0  0  0  0  0  0
  -32.2510  -16.3370   19.2770 H   0  0  0  0  0  0  0  0  0  0  0  0
  -32.6260  -16.5510   17.7130 H   0  0  0  0  0  0  0  0  0  0  0  0
  -33.4980  -14.9040   18.5800 C   0  0  0  0  0  2  0  0  0  0  0  0
  -33.5360  -14.2260   19.9870 C   0  0  0  0  0  2  0  0  0  0  0  0
  -31.0660  -14.0310   20.3020 C   0  0  0  0  0  0  0  0  0  0  0  0
  -30.2170  -12.1640   19.1010 C   0  0  0  0  0  2  0  0  0  0  0  0
  -29.2520  -12.5820   17.9870 C   0  0  0  0  0  2  0  0  0  0  0  0
  -27.8220  -12.4540   18.5030 C   0  0  0  0  0  2  0  0  0  0  0  0
  -27.5870  -13.2840   19.7860 C   0  0  0  0  0  3  0  0  0  0  0  0
  -28.7310  -13.0940   20.8340 C   0  0  0  0  0  2  0  0  0  0  0  0
  -30.0880  -13.0980   20.2250 N   0  0  0  0  0  0  0  0  0  0  0  0
  -30.9820  -15.2170   20.0830 O   0  0  0  0  0  0  0  0  0  0  0  0
  -32.3010  -13.5200   20.3840 N   0  0  0  0  0  0  0  0  0  0  0  0
  -32.3630  -12.5230   20.5320 H   0  0  0  0  0  0  0  0  0  0  0  0
  -25.1890  -13.8820   20.5600 C   0  0  0  0  0  0  0  0  0  0  0  0
  -24.1220  -13.1110   20.9360 C   0  0  0  0  0  0  0  0  0  0  0  0
  -24.5760  -11.7560   20.8890 C   0  0  0  0  0  0  0  0  0  0  0  0
  -26.2400  -13.0080   20.3160 N   0  0  0  0  0  0  0  0  0  0  0  0
  -25.8670  -11.7220   20.5680 N   0  0  0  0  0  0  0  0  0  0  0  0
  -23.8410  -10.4940   21.0790 C   0  0  0  0  0  0  0  0  0  0  0  0
  -24.2930   -9.5070   21.9820 C   0  0  0  0  0  3  0  0  0  0  0  0
  -23.5630   -8.3140   22.1700 C   0  0  0  0  0  3  0  0  0  0  0  0
  -22.3630   -8.0960   21.4530 C   0  0  0  0  0  0  0  0  0  0  0  0
  -21.9230   -9.0700   20.5400 C   0  0  0  0  0  3  0  0  0  0  0  0
  -22.6550  -10.2560   20.3490 C   0  0  0  0  0  3  0  0  0  0  0  0
  -21.6050   -6.9520   21.5510 O   0  0  0  0  0  0  0  0  0  0  0  0
  -21.6060   -6.1820   22.6850 C   0  0  0  0  0  0  0  0  0  0  0  0
  -21.2650   -6.7100   23.9490 C   0  0  0  0  0  3  0  0  0  0  0  0
  -21.2100   -5.8650   25.0750 C   0  0  0  0  0  3  0  0  0  0  0  0
  -21.4900   -4.4930   24.9410 C   0  0  0  0  0  0  0  0  0  0  0  0
  -21.8250   -3.9620   23.6830 C   0  0  0  0  0  3  0  0  0  0  0  0
  -21.8800   -4.8030   22.5580 C   0  0  0  0  0  0  0  0  0  0  0  0
  -22.1830   -4.2830   21.3450 F   0  0  0  0  0  0  0  0  0  0  0  0
  -21.4310   -3.6780   26.0210 F   0  0  0  0  0  0  0  0  0  0  0  0
  -22.7300  -13.5880   21.2390 C   0  0  0  0  0  0  0  0  0  0  0  0
  -22.0170  -12.8860   22.1140 N   0  0  0  0  0  0  0  0  0  0  0  0
  -22.2830  -14.6190   20.7360 O   0  0  0  0  0  0  0  0  0  0  0  0
  -22.3910  -12.0470   22.5330 H   0  0  0  0  0  0  0  0  0  0  0  0
  -21.0900  -13.1940   22.3700 H   0  0  0  0  0  0  0  0  0  0  0  0
  -25.3540  -15.2540   20.3840 N   0  0  0  0  0  0  0  0  0  0  0  0
  -24.5930  -15.9150   20.4940 H   0  0  0  0  0  0  0  0  0  0  0  0
  -26.2160  -15.6850   20.0740 H   0  0  0  0  0  0  0  0  0  0  0  0
  1  2  1  0
  3  2  1  0
  4  2  1  0
  4  5  1  0
  6  5  1  0
  6  7  1  0
  8 10  1  0
  8  7  1  0
  9 20  2  0
 10 15  1  0
 11 19  1  0
 11 21  1  0
 12 18  1  0
 12 14  1  0
 13 19  1  0
 14 15  2  0
 14 13  1  0
 16 10  2  0
 17 16  1  0
 17 12  2  0
 18 11  1  0
 19  9  1  0
 21 23  2  0
 22 21  1  0
 24 22  1  0
 25 34  2  0
 25 30  1  0
 26 22  1  0
 26 30  1  0
 27 26  1  0
 28 29  1  0
 28 27  1  0
 29 25  1  0
 30 31  2  0
 31 32  1  0
 33 32  2  0
 34 33  1  0
 35  9  1  0
 35 40  1  0
 35 36  1  0
 36 39  1  1
 36 37  1  0
 38 36  1  0
 40 43  1  0
 41 45  1  0
 41 40  1  0
 42 41  2  0
 45 44  1  0
 47 45  1  0
 47 48  1  0
 47 46  1  0
 49  1  1  0
 50 49  1  0
 50 52  1  0
 51 50  1  0
 53 52  1  0
 54 53  1  0
 54 55  1  0
 56 54  1  0
 57 54  1  0
 57 58  1  0
 58 67  1  0
 59 67  1  0
 60 65  1  0
 61 62  1  0
 61 60  1  0
 63 62  1  0
 63 72  1  0
 63 64  1  0
 65 59  1  0
 65 64  1  0
 66 59  2  0
 67 68  1  0
 69 70  2  0
 70 89  1  0
 71 70  1  0
 71 74  1  0
 72 69  1  0
 72 73  1  0
 73 71  2  0
 74 75  1  0
 75 76  2  0
 77 80  1  0
 77 76  1  0
 78 77  2  0
 79 78  1  0
 79 74  2  0
 80 81  1  0
 81 82  1  0
 82 83  2  0
 84 83  1  0
 84 88  1  0
 85 84  2  0
 86 81  2  0
 86 85  1  0
 87 86  1  0
 89 90  1  0
 90 93  1  0
 90 92  1  0
 91 89  2  0
 94 95  1  0
 94 69  1  0
 96 94  1  0
M  ISO  4   7 101   8 101  59 100  67 100
M  END
>  <TORSDO>  (71) 
F 28

>  <SCORE>  (71) 
-11.132

>  <name>  (71) 
77

>  <ligand_id>  (71) 
77

>  <original_smiles>  (71) 
[H]c1c([H])c([H])c2c(c1[H])C([H])([H])C([H])([H])C([H])([H])C2([H])N([H])C(=O)C1([H])N(C(=O)C([H])(N([H])C(=O)C([H])(N([H])C([H])([H])[H])C([H])([H])[H])C(C([H])([H])[H])(C([H])([H])[H])C([H])([H])[H])C([H])([H])c2c([H])c(OC([H])([H])C([H])([H])C([H])([H])C([H])([H])N([H])C([H])([H])C([H])([H])N([H])C([H])([H])C([H])([H])[N+]([H])([H])C([H])([H])C([H])([H])N([H])C(=O)N3C([H])([H])C([H])([H])C([H])([H])C([H])(n4nc(-c5c([H])c([H])c(Oc6c([H])c([H])c(F)c([H])c6F)c([H])c5[H])c(C(=O)N([H])[H])c4N([H])[H])C3([H])[H])c([H])c([H])c2C1([H])[H]

>  <smiles>  (71) 
[H]c1c([H])c([H])c2c(c1[H])C([H])([H])C([H])([H])C([H])([H])C2([H])N([H])C(=O)C1([H])N(C(=O)C([H])(N([H])C(=O)C([H])(N([H])C([H])([H])[H])C([H])([H])[H])C(C([H])([H])[H])(C([H])([H])[H])C([H])([H])[H])C([H])([H])c2c([H])c(OC([H])([H])C([H])([H])C([H])([H])C([H])([H])N([H])C([H])([H])C([H])([H])N([H])C([H])([H])C([H])([H])[N+]([H])([H])C([H])([H])C([H])([H])N([H])C(=O)N3C([H])([H])C([H])([H])C([H])([H])C([H])(n4nc(-c5c([H])c([H])c(Oc6c([H])c([H])c(F)c([H])c6F)c([H])c5[H])c(C(=O)N([H])[H])c4N([H])[H])C3([H])[H])c([H])c([H])c2C1([H])[H]

$$$$
78:0:0
     RDKit          3D

105112  0  0  1  0  0  0  0  0999 V2000
  -23.0760  -23.2400   21.4120 N   0  0  0  0  0  4  0  0  0  0  0  0
  -23.0190  -22.4000   21.9650 H   0  0  0  0  0  0  0  0  0  0  0  0
  -22.3010  -23.2050   20.7660 H   0  0  0  0  0  0  0  0  0  0  0  0
  -22.8610  -24.4410   22.2490 C   0  0  0  0  0  2  0  0  0  0  0  0
  -23.3580  -24.2840   23.7000 C   0  0  0  0  0  2  0  0  0  0  0  0
  -23.8770  -25.6030   24.2910 C   0  0  0  0  0  2  0  0  0  0  0  0
  -25.2550  -25.7180   23.9560 O   0  0  0  0  0  0  0  0  0  0  0  0
  -25.9050  -26.7810   24.6400 C   0  0  0  0  0  2  0  0  0  0  0  0
  -27.4090  -26.6440   24.3610 C   0  0  0  0  0  2  0  0  0  0  0  0
  -27.6970  -26.6310   22.9070 N   0  0  0  0  0  4  0  0  0  0  0  0
  -27.0960  -25.9370   22.4860 H   0  0  0  0  0  0  0  0  0  0  0  0
  -27.4410  -27.5250   22.5100 H   0  0  0  0  0  0  0  0  0  0  0  0
  -29.1170  -26.3440   22.5770 C   0  0  0  0  0  2  0  0  0  0  0  0
  -29.3790  -26.1600   21.0660 C   0  0  0  0  0  2  0  0  0  0  0  0
  -29.3340  -27.4080   20.3710 O   0  0  0  0  0  0  0  0  0  0  0  0
  -24.8560  -31.9540   23.4410 C   0  0  0  0  0  0  0  0  0  0  0  0
  -28.1070  -28.0170   20.2960 C   0  0  0  0  0  0  0  0  0  0  0  0
  -23.9110  -30.6060   21.5960 C   0  0  0  0  0  3  0  0  0  0  0  0
  -25.6000  -29.3080   20.1980 C   0  0  0  0  0  0  0  0  0  0  0  0
  -26.4040  -31.1780   21.6540 C   0  0  0  0  0  2  0  0  0  0  0  0
  -26.6540  -29.8780   20.9220 C   0  0  0  0  0  0  0  0  0  0  0  0
  -27.9110  -29.2420   20.9650 C   0  0  0  0  0  3  0  0  0  0  0  0
  -27.0400  -27.4530   19.5620 C   0  0  0  0  0  3  0  0  0  0  0  0
  -25.7880  -28.0930   19.5140 C   0  0  0  0  0  3  0  0  0  0  0  0
  -24.2890  -30.0600   20.1940 C   0  0  0  0  0  2  0  0  0  0  0  0
  -25.0680  -31.2590   22.2900 N   0  0  0  0  0  0  0  0  0  0  0  0
  -23.7160  -32.0980   23.9010 O   0  0  0  0  0  0  0  0  0  0  0  0
  -23.2690  -29.4620   22.4130 C   0  0  0  0  0  0  0  0  0  0  0  0
  -21.9540  -29.2650   22.2250 N   0  0  0  0  0  0  0  0  0  0  0  0
  -23.9490  -28.7580   23.1660 O   0  0  0  0  0  0  0  0  0  0  0  0
  -21.4720  -29.8850   21.5890 H   0  0  0  0  0  0  0  0  0  0  0  0
  -18.5710  -28.0640   22.6300 C   0  0  0  0  0  0  0  0  0  0  0  0
  -21.1410  -28.2310   22.8610 C   0  0  0  0  0  3  0  0  0  0  0  0
  -21.1920  -26.9110   22.0580 C   0  0  0  0  0  2  0  0  0  0  0  0
  -20.0560  -26.7740   21.0390 C   0  0  0  0  0  2  0  0  0  0  0  0
  -18.6970  -26.8410   21.7400 C   0  0  0  0  0  2  0  0  0  0  0  0
  -19.7180  -28.7270   23.1430 C   0  0  0  0  0  0  0  0  0  0  0  0
  -19.5420  -29.8840   23.9330 C   0  0  0  0  0  3  0  0  0  0  0  0
  -18.2540  -30.3680   24.2240 C   0  0  0  0  0  3  0  0  0  0  0  0
  -17.1220  -29.6950   23.7330 C   0  0  0  0  0  3  0  0  0  0  0  0
  -17.2810  -28.5470   22.9380 C   0  0  0  0  0  3  0  0  0  0  0  0
  -26.0320  -32.6270   24.2200 C   0  0  0  0  0  3  0  0  0  0  0  0
  -25.7070  -34.0520   24.3670 N   0  0  0  0  0  0  0  0  0  0  0  0
  -26.2200  -35.0280   23.6060 C   0  0  0  0  0  0  0  0  0  0  0  0
  -27.0780  -34.8230   22.7430 O   0  0  0  0  0  0  0  0  0  0  0  0
  -24.9640  -34.2810   25.0120 H   0  0  0  0  0  0  0  0  0  0  0  0
  -24.6660  -36.8110   22.7550 C   0  0  0  0  0  1  0  0  0  0  0  0
  -25.6950  -36.4560   23.8410 C   0  0  0  0  0  3  0  0  0  0  0  0
  -27.6590  -37.3430   25.0150 C   0  0  0  0  0  1  0  0  0  0  0  0
  -26.7640  -37.4760   23.8680 N   0  0  0  0  0  0  0  0  0  0  0  0
  -26.3720  -38.4140   23.8730 H   0  0  0  0  0  0  0  0  0  0  0  0
  -26.3130  -31.9680   25.6250 C   0  0  1  0  0  0  0  0  0  0  0  0
  -25.0450  -31.7730   26.4870 C   0  0  0  0  0  1  0  0  0  0  0  0
  -27.0080  -30.5970   25.4560 C   0  0  0  0  0  1  0  0  0  0  0  0
  -27.2950  -32.8480   26.4330 C   0  0  0  0  0  1  0  0  0  0  0  0
  -24.3050  -23.2480   20.5830 C   0  0  0  0  0  2  0  0  0  0  0  0
  -25.6040  -23.2410   21.4150 C   0  0  0  0  0  2  0  0  0  0  0  0
  -26.8770  -23.1870   20.5520 C   0  0  0  0  0  2  0  0  0  0  0  0
  -28.1520  -23.0460   21.4020 C   0  0  0  0  0  2  0  0  0  0  0  0
  -29.3790  -23.1300   20.5810 N   0  0  0  0  0  4  0  0  0  0  0  0
  -29.3180  -22.4430   19.8450 H   0  0  0  0  0  0  0  0  0  0  0  0
  -29.4370  -24.0380   20.1500 H   0  0  0  0  0  0  0  0  0  0  0  0
  -30.6170  -22.8610   21.3390 C   0  0  0  0  0  2  0  0  0  0  0  0
  -31.8790  -23.1740   20.5180 C   0  0  0  0  0  2  0  0  0  0  0  0
  -33.0920  -22.3690   21.0030 C   0  0  0  0  0  2  0  0  0  0  0  0
  -34.3010  -22.4970   20.0610 C   0  0  0  0  0  2  0  0  0  0  0  0
  -34.8400  -21.1360   19.5990 C   0  0  0  0  0  2  0  0  0  0  0  0
  -33.3720  -20.1770   17.8250 C   0  0  0  0  0  0  0  0  0  0  0  0
  -32.9770  -18.3340   16.2570 C   0  0  0  0  0  2  0  0  0  0  0  0
  -31.6710  -18.3980   15.4550 C   0  0  0  0  0  2  0  0  0  0  0  0
  -30.5230  -17.7580   16.2510 C   0  0  0  0  0  2  0  0  0  0  0  0
  -30.4130  -18.3290   17.6880 C   0  0  0  0  0  3  0  0  0  0  0  0
  -31.7830  -18.3230   18.4040 C   0  0  0  0  0  2  0  0  0  0  0  0
  -32.7820  -18.9940   17.5520 N   0  0  0  0  0  0  0  0  0  0  0  0
  -33.7770  -20.9650   16.9640 O   0  0  0  0  0  0  0  0  0  0  0  0
  -33.7800  -20.2600   19.0980 N   0  0  0  0  0  0  0  0  0  0  0  0
  -33.4680  -19.5200   19.7090 H   0  0  0  0  0  0  0  0  0  0  0  0
  -28.2340  -18.0970   19.0450 C   0  0  0  0  0  0  0  0  0  0  0  0
  -27.5980  -17.0040   19.5760 C   0  0  0  0  0  0  0  0  0  0  0  0
  -28.4220  -15.8800   19.2660 C   0  0  0  0  0  0  0  0  0  0  0  0
  -29.3940  -17.6140   18.4580 N   0  0  0  0  0  0  0  0  0  0  0  0
  -29.5250  -16.2740   18.6410 N   0  0  0  0  0  0  0  0  0  0  0  0
  -28.1990  -14.4430   19.4780 C   0  0  0  0  0  0  0  0  0  0  0  0
  -29.1820  -13.6220   20.0710 C   0  0  0  0  0  3  0  0  0  0  0  0
  -28.9360  -12.2480   20.2820 C   0  0  0  0  0  3  0  0  0  0  0  0
  -27.6960  -11.6820   19.9010 C   0  0  0  0  0  0  0  0  0  0  0  0
  -26.7290  -12.5000   19.2900 C   0  0  0  0  0  3  0  0  0  0  0  0
  -26.9770  -13.8660   19.0770 C   0  0  0  0  0  3  0  0  0  0  0  0
  -27.3790  -10.3530   20.0440 O   0  0  0  0  0  0  0  0  0  0  0  0
  -27.9800   -9.5660   20.9940 C   0  0  0  0  0  0  0  0  0  0  0  0
  -27.9130   -9.8780   22.3700 C   0  0  0  0  0  3  0  0  0  0  0  0
  -28.4840   -9.0050   23.3180 C   0  0  0  0  0  3  0  0  0  0  0  0
  -29.1150   -7.8210   22.8940 C   0  0  0  0  0  0  0  0  0  0  0  0
  -29.1790   -7.5060   21.5260 C   0  0  0  0  0  3  0  0  0  0  0  0
  -28.6100   -8.3760   20.5790 C   0  0  0  0  0  0  0  0  0  0  0  0
  -28.6550   -8.0590   19.2630 F   0  0  0  0  0  0  0  0  0  0  0  0
  -29.6580   -6.9790   23.8050 F   0  0  0  0  0  0  0  0  0  0  0  0
  -26.2560  -16.9900   20.2470 C   0  0  0  0  0  0  0  0  0  0  0  0
  -26.0110  -16.0040   21.1060 N   0  0  0  0  0  0  0  0  0  0  0  0
  -25.4310  -17.8810   20.0510 O   0  0  0  0  0  0  0  0  0  0  0  0
  -26.6940  -15.2840   21.2820 H   0  0  0  0  0  0  0  0  0  0  0  0
  -25.1270  -15.9710   21.5920 H   0  0  0  0  0  0  0  0  0  0  0  0
  -27.9170  -19.4500   18.9980 N   0  0  0  0  0  0  0  0  0  0  0  0
  -27.0470  -19.8170   19.3670 H   0  0  0  0  0  0  0  0  0  0  0  0
  -28.4730  -20.1490   18.5220 H   0  0  0  0  0  0  0  0  0  0  0  0
  1  2  1  0
  1  4  1  0
  3  1  1  0
  4  5  1  0
  5  6  1  0
  7  6  1  0
  7  8  1  0
  9  8  1  0
 10  9  1  0
 11 10  1  0
 12 10  1  0
 13 10  1  0
 14 13  1  0
 15 14  1  0
 16 27  2  0
 17 15  1  0
 17 22  1  0
 18 26  1  0
 18 28  1  0
 19 21  1  0
 20 26  1  0
 21 22  2  0
 21 20  1  0
 23 17  2  0
 24 23  1  0
 24 19  2  0
 25 19  1  0
 25 18  1  0
 26 16  1  0
 28 30  2  0
 29 28  1  0
 31 29  1  0
 32 41  2  0
 32 37  1  0
 33 29  1  0
 33 37  1  0
 34 33  1  0
 35 36  1  0
 35 34  1  0
 36 32  1  0
 37 38  2  0
 38 39  1  0
 40 39  2  0
 41 40  1  0
 42 16  1  0
 42 43  1  0
 42 52  1  0
 43 46  1  0
 44 48  1  0
 44 43  1  0
 45 44  2  0
 48 47  1  0
 48 50  1  0
 50 51  1  0
 50 49  1  0
 52 55  1  1
 52 53  1  0
 54 52  1  0
 56  1  1  0
 56 57  1  0
 58 59  1  0
 58 57  1  0
 60 63  1  0
 60 59  1  0
 61 60  1  0
 62 60  1  0
 64 65  1  0
 64 63  1  0
 66 65  1  0
 67 66  1  0
 68 76  1  0
 69 74  1  0
 70 71  1  0
 70 69  1  0
 72 71  1  0
 72 73  1  0
 72 81  1  0
 74 68  1  0
 74 73  1  0
 75 68  2  0
 76 67  1  0
 76 77  1  0
 78 79  2  0
 79 98  1  0
 80 83  1  0
 80 79  1  0
 81 82  1  0
 81 78  1  0
 82 80  2  0
 83 84  1  0
 84 85  2  0
 86 89  1  0
 86 85  1  0
 87 86  2  0
 88 87  1  0
 88 83  2  0
 89 90  1  0
 90 91  1  0
 91 92  2  0
 93 92  1  0
 93 97  1  0
 94 93  2  0
 95 90  2  0
 95 94  1  0
 96 95  1  0
 98 99  1  0
 99101  1  0
 99102  1  0
100 98  2  0
103 78  1  0
103104  1  0
105103  1  0
M  ISO  4  14 101  15 101  68 100  76 100
M  END
>  <TORSDO>  (72) 
F 35

>  <SCORE>  (72) 
-4.739

>  <name>  (72) 
78

>  <ligand_id>  (72) 
78

>  <original_smiles>  (72) 
[H]c1c([H])c([H])c2c(c1[H])C([H])([H])C([H])([H])C([H])([H])C2([H])N([H])C(=O)C1([H])N(C(=O)C([H])(N([H])C(=O)C([H])(N([H])C([H])([H])[H])C([H])([H])[H])C(C([H])([H])[H])(C([H])([H])[H])C([H])([H])[H])C([H])([H])c2c([H])c(OC([H])([H])C([H])([H])[N+]([H])([H])C([H])([H])C([H])([H])OC([H])([H])C([H])([H])C([H])([H])[N+]([H])([H])C([H])([H])C([H])([H])C([H])([H])C([H])([H])[N+]([H])([H])C([H])([H])C([H])([H])C([H])([H])C([H])([H])C([H])([H])N([H])C(=O)N3C([H])([H])C([H])([H])C([H])([H])C([H])(n4nc(-c5c([H])c([H])c(Oc6c([H])c([H])c(F)c([H])c6F)c([H])c5[H])c(C(=O)N([H])[H])c4N([H])[H])C3([H])[H])c([H])c([H])c2C1([H])[H]

>  <smiles>  (72) 
[H]c1c([H])c([H])c2c(c1[H])C([H])([H])C([H])([H])C([H])([H])C2([H])N([H])C(=O)C1([H])N(C(=O)C([H])(N([H])C(=O)C([H])(N([H])C([H])([H])[H])C([H])([H])[H])C(C([H])([H])[H])(C([H])([H])[H])C([H])([H])[H])C([H])([H])c2c([H])c(OC([H])([H])C([H])([H])[N+]([H])([H])C([H])([H])C([H])([H])OC([H])([H])C([H])([H])C([H])([H])[N+]([H])([H])C([H])([H])C([H])([H])C([H])([H])C([H])([H])[N+]([H])([H])C([H])([H])C([H])([H])C([H])([H])C([H])([H])C([H])([H])N([H])C(=O)N3C([H])([H])C([H])([H])C([H])([H])C([H])(n4nc(-c5c([H])c([H])c(Oc6c([H])c([H])c(F)c([H])c6F)c([H])c5[H])c(C(=O)N([H])[H])c4N([H])[H])C3([H])[H])c([H])c([H])c2C1([H])[H]

$$$$
80:0:0
     RDKit          3D

106113  0  0  1  0  0  0  0  0999 V2000
  -30.5380  -19.3180   25.2620 C   0  0  0  0  0  2  0  0  0  0  0  0
  -29.1510  -18.8630   25.3230 N   0  0  0  0  0  0  0  0  0  0  0  0
  -28.9300  -18.3060   24.5050 H   0  0  0  0  0  0  0  0  0  0  0  0
  -28.9900  -18.0880   26.5540 C   0  0  0  0  0  2  0  0  0  0  0  0
  -27.6000  -17.4320   26.7020 C   0  0  0  0  0  2  0  0  0  0  0  0
  -27.6790  -16.1930   27.5130 N   0  0  0  0  0  4  0  0  0  0  0  0
  -28.6070  -16.0960   27.8890 H   0  0  0  0  0  0  0  0  0  0  0  0
  -27.0720  -16.3460   28.3050 H   0  0  0  0  0  0  0  0  0  0  0  0
  -27.2340  -14.9200   26.8800 C   0  0  0  0  0  2  0  0  0  0  0  0
  -28.3580  -14.1350   26.1370 C   0  0  0  0  0  2  0  0  0  0  0  0
  -28.4040  -14.3750   24.6110 C   0  0  0  0  0  2  0  0  0  0  0  0
  -29.5370  -13.6940   23.9220 N   0  0  0  0  0  4  0  0  0  0  0  0
  -29.3560  -12.7030   23.8680 H   0  0  0  0  0  0  0  0  0  0  0  0
  -30.3760  -13.8120   24.4670 H   0  0  0  0  0  0  0  0  0  0  0  0
  -29.8000  -14.2280   22.5620 C   0  0  0  0  0  2  0  0  0  0  0  0
  -30.7480  -13.3540   21.7080 C   0  0  0  0  0  2  0  0  0  0  0  0
  -30.6980  -13.3460   19.1550 C   0  0  0  0  0  0  0  0  0  0  0  0
  -29.8530  -11.3610   17.9650 C   0  0  0  0  0  2  0  0  0  0  0  0
  -28.7640  -11.6420   16.9160 C   0  0  0  0  0  2  0  0  0  0  0  0
  -27.3800  -11.6060   17.5770 C   0  0  0  0  0  2  0  0  0  0  0  0
  -27.3030  -12.5170   18.8250 C   0  0  0  0  0  3  0  0  0  0  0  0
  -28.4970  -12.2960   19.7790 C   0  0  0  0  0  2  0  0  0  0  0  0
  -29.7760  -12.3510   19.0480 N   0  0  0  0  0  0  0  0  0  0  0  0
  -31.4410  -13.6740   18.2310 O   0  0  0  0  0  0  0  0  0  0  0  0
  -30.8760  -13.9200   20.3580 N   0  0  0  0  0  0  0  0  0  0  0  0
  -31.5130  -14.6990   20.3030 H   0  0  0  0  0  0  0  0  0  0  0  0
  -25.1250  -13.3190   19.9390 C   0  0  0  0  0  0  0  0  0  0  0  0
  -24.0780  -12.6370   20.4960 C   0  0  0  0  0  0  0  0  0  0  0  0
  -24.4150  -11.2510   20.4090 C   0  0  0  0  0  0  0  0  0  0  0  0
  -26.0340  -12.3560   19.5350 N   0  0  0  0  0  0  0  0  0  0  0  0
  -25.6250  -11.1080   19.8870 N   0  0  0  0  0  0  0  0  0  0  0  0
  -23.6310  -10.0550   20.7380 C   0  0  0  0  0  0  0  0  0  0  0  0
  -24.1120   -9.0850   21.6460 C   0  0  0  0  0  3  0  0  0  0  0  0
  -23.3340   -7.9480   21.9590 C   0  0  0  0  0  3  0  0  0  0  0  0
  -22.0590   -7.7760   21.3660 C   0  0  0  0  0  0  0  0  0  0  0  0
  -21.5950   -8.7360   20.4470 C   0  0  0  0  0  3  0  0  0  0  0  0
  -22.3710   -9.8620   20.1350 C   0  0  0  0  0  3  0  0  0  0  0  0
  -21.2410   -6.6960   21.5930 O   0  0  0  0  0  0  0  0  0  0  0  0
  -21.2750   -6.0040   22.7770 C   0  0  0  0  0  0  0  0  0  0  0  0
  -21.0430   -6.6390   24.0180 C   0  0  0  0  0  3  0  0  0  0  0  0
  -21.0140   -5.8780   25.2030 C   0  0  0  0  0  3  0  0  0  0  0  0
  -21.2090   -4.4840   25.1520 C   0  0  0  0  0  0  0  0  0  0  0  0
  -21.4330   -3.8500   23.9180 C   0  0  0  0  0  3  0  0  0  0  0  0
  -21.4630   -4.6080   22.7350 C   0  0  0  0  0  0  0  0  0  0  0  0
  -21.6590   -3.9880   21.5450 F   0  0  0  0  0  0  0  0  0  0  0  0
  -21.1730   -3.7540   26.2910 F   0  0  0  0  0  0  0  0  0  0  0  0
  -22.7910  -13.2280   20.9950 C   0  0  0  0  0  0  0  0  0  0  0  0
  -22.1670  -12.6060   21.9910 N   0  0  0  0  0  0  0  0  0  0  0  0
  -22.3550  -14.2830   20.5360 O   0  0  0  0  0  0  0  0  0  0  0  0
  -22.5260  -11.7480   22.3820 H   0  0  0  0  0  0  0  0  0  0  0  0
  -21.3180  -13.0050   22.3690 H   0  0  0  0  0  0  0  0  0  0  0  0
  -25.3750  -14.6730   19.7260 N   0  0  0  0  0  0  0  0  0  0  0  0
  -24.6870  -15.3950   19.9140 H   0  0  0  0  0  0  0  0  0  0  0  0
  -26.1990  -15.0270   19.2610 H   0  0  0  0  0  0  0  0  0  0  0  0
  -30.9650  -19.6980   23.8370 C   0  0  0  0  0  2  0  0  0  0  0  0
  -30.2260  -20.9170   23.2660 C   0  0  0  0  0  2  0  0  0  0  0  0
  -30.9530  -21.5470   22.0640 C   0  0  0  0  0  2  0  0  0  0  0  0
  -30.1060  -22.5620   21.4070 N   0  0  0  0  0  4  0  0  0  0  0  0
  -29.6520  -23.1000   22.1280 H   0  0  0  0  0  0  0  0  0  0  0  0
  -29.3900  -22.0840   20.8840 H   0  0  0  0  0  0  0  0  0  0  0  0
  -30.8100  -23.5140   20.5200 C   0  0  0  0  0  2  0  0  0  0  0  0
  -29.7970  -24.3670   19.7270 C   0  0  0  0  0  2  0  0  0  0  0  0
  -30.3860  -25.6850   19.1740 C   0  0  0  0  0  2  0  0  0  0  0  0
  -29.3440  -26.6760   18.9070 N   0  0  0  0  0  0  0  0  0  0  0  0
  -28.5920  -26.2640   18.3640 H   0  0  0  0  0  0  0  0  0  0  0  0
  -28.7820  -26.9790   20.2030 O   0  0  0  0  0  0  0  0  0  0  0  0
  -24.6250  -31.8590   23.2400 C   0  0  0  0  0  0  0  0  0  0  0  0
  -27.5860  -27.6500   20.1300 C   0  0  0  0  0  0  0  0  0  0  0  0
  -23.5370  -30.4450   21.5240 C   0  0  0  0  0  3  0  0  0  0  0  0
  -25.1100  -29.0040   20.1170 C   0  0  0  0  0  0  0  0  0  0  0  0
  -26.0450  -30.9290   21.4170 C   0  0  0  0  0  2  0  0  0  0  0  0
  -26.2180  -29.5800   20.7500 C   0  0  0  0  0  0  0  0  0  0  0  0
  -27.4590  -28.9070   20.7560 C   0  0  0  0  0  3  0  0  0  0  0  0
  -26.4600  -27.0670   19.5130 C   0  0  0  0  0  3  0  0  0  0  0  0
  -25.2230  -27.7440   19.4980 C   0  0  0  0  0  3  0  0  0  0  0  0
  -23.8220  -29.7990   20.1400 C   0  0  0  0  0  2  0  0  0  0  0  0
  -24.7510  -31.0910   22.1220 N   0  0  0  0  0  0  0  0  0  0  0  0
  -23.5160  -32.0730   23.7490 O   0  0  0  0  0  0  0  0  0  0  0  0
  -22.8950  -29.3800   22.4420 C   0  0  0  0  0  0  0  0  0  0  0  0
  -21.5880  -29.1390   22.2540 N   0  0  0  0  0  0  0  0  0  0  0  0
  -23.5730  -28.7730   23.2740 O   0  0  0  0  0  0  0  0  0  0  0  0
  -21.1010  -29.6850   21.5570 H   0  0  0  0  0  0  0  0  0  0  0  0
  -18.2630  -27.7580   22.5630 C   0  0  0  0  0  0  0  0  0  0  0  0
  -20.7850  -28.1470   22.9710 C   0  0  0  0  0  3  0  0  0  0  0  0
  -20.9950  -26.7320   22.3840 C   0  0  0  0  0  2  0  0  0  0  0  0
  -19.9650  -26.3670   21.3100 C   0  0  0  0  0  2  0  0  0  0  0  0
  -18.5460  -26.4290   21.8840 C   0  0  0  0  0  2  0  0  0  0  0  0
  -19.3150  -28.5720   23.0590 C   0  0  0  0  0  0  0  0  0  0  0  0
  -18.9990  -29.8150   23.6500 C   0  0  0  0  0  3  0  0  0  0  0  0
  -17.6630  -30.2450   23.7530 C   0  0  0  0  0  3  0  0  0  0  0  0
  -16.6250  -29.4270   23.2740 C   0  0  0  0  0  3  0  0  0  0  0  0
  -16.9240  -28.1860   22.6860 C   0  0  0  0  0  3  0  0  0  0  0  0
  -25.8610  -32.5290   23.9200 C   0  0  0  0  0  3  0  0  0  0  0  0
  -25.4880  -33.9060   24.2620 N   0  0  0  0  0  0  0  0  0  0  0  0
  -25.8180  -34.9860   23.5400 C   0  0  0  0  0  0  0  0  0  0  0  0
  -26.5400  -34.9260   22.5400 O   0  0  0  0  0  0  0  0  0  0  0  0
  -24.8520  -34.0240   25.0370 H   0  0  0  0  0  0  0  0  0  0  0  0
  -24.0450  -36.7220   23.1340 C   0  0  0  0  0  1  0  0  0  0  0  0
  -25.2600  -36.3460   23.9980 C   0  0  0  0  0  3  0  0  0  0  0  0
  -27.3230  -37.2860   24.9420 C   0  0  0  0  0  1  0  0  0  0  0  0
  -26.2570  -37.4360   23.9540 N   0  0  0  0  0  0  0  0  0  0  0  0
  -25.8120  -38.3380   24.1020 H   0  0  0  0  0  0  0  0  0  0  0  0
  -26.3630  -31.7510   25.1990 C   0  0  1  0  0  0  0  0  0  0  0  0
  -25.2440  -31.4460   26.2200 C   0  0  0  0  0  1  0  0  0  0  0  0
  -27.0190  -30.4090   24.7970 C   0  0  0  0  0  1  0  0  0  0  0  0
  -27.4550  -32.5770   25.9210 C   0  0  0  0  0  1  0  0  0  0  0  0
  1  2  1  0
  2  4  1  0
  3  2  1  0
  4  5  1  0
  5  6  1  0
  6  7  1  0
  6  8  1  0
  9  6  1  0
 10  9  1  0
 11 10  1  0
 12 14  1  0
 12 11  1  0
 13 12  1  0
 15 12  1  0
 16 15  1  0
 17 25  1  0
 18 23  1  0
 19 20  1  0
 19 18  1  0
 21 20  1  0
 21 30  1  0
 21 22  1  0
 23 17  1  0
 23 22  1  0
 24 17  2  0
 25 16  1  0
 26 25  1  0
 27 28  2  0
 28 47  1  0
 29 28  1  0
 29 32  1  0
 30 31  1  0
 30 27  1  0
 31 29  2  0
 32 33  1  0
 33 34  2  0
 35 38  1  0
 35 34  1  0
 36 35  2  0
 37 36  1  0
 37 32  2  0
 38 39  1  0
 39 40  1  0
 40 41  2  0
 42 41  1  0
 42 46  1  0
 43 42  2  0
 44 39  2  0
 44 43  1  0
 45 44  1  0
 47 48  1  0
 48 51  1  0
 48 50  1  0
 49 47  2  0
 52 53  1  0
 52 27  1  0
 54 52  1  0
 55  1  1  0
 56 55  1  0
 57 56  1  0
 58 57  1  0
 58 59  1  0
 60 58  1  0
 61 58  1  0
 62 61  1  0
 63 62  1  0
 64 63  1  0
 64 66  1  0
 65 64  1  0
 67 78  2  0
 68 66  1  0
 68 73  1  0
 69 77  1  0
 69 79  1  0
 70 76  1  0
 70 72  1  0
 71 77  1  0
 72 73  2  0
 72 71  1  0
 74 68  2  0
 75 74  1  0
 75 70  2  0
 76 69  1  0
 77 67  1  0
 79 81  2  0
 80 79  1  0
 82 80  1  0
 83 92  2  0
 83 88  1  0
 84 80  1  0
 84 88  1  0
 85 84  1  0
 86 87  1  0
 86 85  1  0
 87 83  1  0
 88 89  2  0
 89 90  1  0
 91 90  2  0
 92 91  1  0
 93 67  1  0
 93 94  1  0
 93103  1  0
 94 97  1  0
 95 99  1  0
 95 94  1  0
 96 95  2  0
 99 98  1  0
101 99  1  0
101102  1  0
101100  1  0
103106  1  1
103104  1  0
105103  1  0
M  ISO  4  17 100  25 100  64 101  66 101
M  END
>  <TORSDO>  (73) 
F 34

>  <SCORE>  (73) 
24.807

>  <name>  (73) 
80

>  <ligand_id>  (73) 
80

>  <original_smiles>  (73) 
[H]c1c([H])c([H])c2c(c1[H])C([H])([H])C([H])([H])C([H])([H])C2([H])N([H])C(=O)C1([H])N(C(=O)C([H])(N([H])C(=O)C([H])(N([H])C([H])([H])[H])C([H])([H])[H])C(C([H])([H])[H])(C([H])([H])[H])C([H])([H])[H])C([H])([H])c2c([H])c(ON([H])C([H])([H])C([H])([H])C([H])([H])[N+]([H])([H])C([H])([H])C([H])([H])C([H])([H])C([H])([H])N([H])C([H])([H])C([H])([H])[N+]([H])([H])C([H])([H])C([H])([H])C([H])([H])[N+]([H])([H])C([H])([H])C([H])([H])N([H])C(=O)N3C([H])([H])C([H])([H])C([H])([H])C([H])(n4nc(-c5c([H])c([H])c(Oc6c([H])c([H])c(F)c([H])c6F)c([H])c5[H])c(C(=O)N([H])[H])c4N([H])[H])C3([H])[H])c([H])c([H])c2C1([H])[H]

>  <smiles>  (73) 
[H]c1c([H])c([H])c2c(c1[H])C([H])([H])C([H])([H])C([H])([H])C2([H])N([H])C(=O)C1([H])N(C(=O)C([H])(N([H])C(=O)C([H])(N([H])C([H])([H])[H])C([H])([H])[H])C(C([H])([H])[H])(C([H])([H])[H])C([H])([H])[H])C([H])([H])c2c([H])c(ON([H])C([H])([H])C([H])([H])C([H])([H])[N+]([H])([H])C([H])([H])C([H])([H])C([H])([H])C([H])([H])N([H])C([H])([H])C([H])([H])[N+]([H])([H])C([H])([H])C([H])([H])C([H])([H])[N+]([H])([H])C([H])([H])C([H])([H])N([H])C(=O)N3C([H])([H])C([H])([H])C([H])([H])C([H])(n4nc(-c5c([H])c([H])c(Oc6c([H])c([H])c(F)c([H])c6F)c([H])c5[H])c(C(=O)N([H])[H])c4N([H])[H])C3([H])[H])c([H])c([H])c2C1([H])[H]

$$$$
81:0:0
     RDKit          3D

101108  0  0  1  0  0  0  0  0999 V2000
  -25.2950  -23.4930   23.3570 C   0  0  0  0  0  1  0  0  0  0  0  0
  -25.6890  -23.6840   21.8830 C   0  0  0  0  0  3  0  0  0  0  0  0
  -27.3100  -22.2440   20.5040 C   0  0  0  0  0  0  0  0  0  0  0  0
  -26.3030  -22.4520   21.3660 N   0  0  0  0  0  0  0  0  0  0  0  0
  -27.9940  -23.1250   19.9730 O   0  0  0  0  0  0  0  0  0  0  0  0
  -25.8680  -21.5840   21.6580 H   0  0  0  0  0  0  0  0  0  0  0  0
  -27.5840  -20.7460   20.1970 C   0  0  0  0  0  0  0  0  0  0  0  0
  -28.4190  -20.5530   19.1740 N   0  0  0  0  0  0  0  0  0  0  0  0
  -27.0660  -19.8440   20.8640 O   0  0  0  0  0  0  0  0  0  0  0  0
  -28.7400  -21.4030   18.7250 H   0  0  0  0  0  0  0  0  0  0  0  0
  -28.8650  -19.2710   18.6530 C   0  0  0  0  0  2  0  0  0  0  0  0
  -29.7700  -19.4850   17.4310 C   0  0  0  0  0  2  0  0  0  0  0  0
  -31.0670  -18.6610   17.4760 C   0  0  0  0  0  2  0  0  0  0  0  0
  -31.5120  -16.2400   17.9150 C   0  0  0  0  0  0  0  0  0  0  0  0
  -31.8760  -13.9510   18.7550 C   0  0  0  0  0  2  0  0  0  0  0  0
  -31.0570  -12.9120   17.9680 C   0  0  0  0  0  2  0  0  0  0  0  0
  -29.6440  -12.7720   18.5610 C   0  0  0  0  0  2  0  0  0  0  0  0
  -28.9410  -14.1440   18.7330 C   0  0  0  0  0  3  0  0  0  0  0  0
  -29.8670  -15.1360   19.4670 C   0  0  0  0  0  2  0  0  0  0  0  0
  -31.1480  -15.2250   18.7360 N   0  0  0  0  0  0  0  0  0  0  0  0
  -32.4120  -16.1580   17.0720 O   0  0  0  0  0  0  0  0  0  0  0  0
  -30.8850  -17.3910   18.1740 N   0  0  0  0  0  0  0  0  0  0  0  0
  -30.2440  -17.3750   18.9540 H   0  0  0  0  0  0  0  0  0  0  0  0
  -26.7850  -14.9820   19.8690 C   0  0  0  0  0  0  0  0  0  0  0  0
  -25.7050  -14.3140   20.3820 C   0  0  0  0  0  0  0  0  0  0  0  0
  -25.9840  -12.9230   20.2080 C   0  0  0  0  0  0  0  0  0  0  0  0
  -27.6580  -14.0020   19.4190 N   0  0  0  0  0  0  0  0  0  0  0  0
  -27.1860  -12.7560   19.6760 N   0  0  0  0  0  0  0  0  0  0  0  0
  -25.1480  -11.7430   20.4630 C   0  0  0  0  0  0  0  0  0  0  0  0
  -25.5630  -10.7180   21.3430 C   0  0  0  0  0  3  0  0  0  0  0  0
  -24.7330   -9.6030   21.5840 C   0  0  0  0  0  3  0  0  0  0  0  0
  -23.4730   -9.5040   20.9460 C   0  0  0  0  0  0  0  0  0  0  0  0
  -23.0760  -10.5140   20.0530 C   0  0  0  0  0  3  0  0  0  0  0  0
  -23.9050  -11.6220   19.8100 C   0  0  0  0  0  3  0  0  0  0  0  0
  -22.6120   -8.4450   21.1030 O   0  0  0  0  0  0  0  0  0  0  0  0
  -22.2910   -7.9540   22.3430 C   0  0  0  0  0  0  0  0  0  0  0  0
  -21.7170   -8.7710   23.3420 C   0  0  0  0  0  3  0  0  0  0  0  0
  -21.3380   -8.2110   24.5780 C   0  0  0  0  0  3  0  0  0  0  0  0
  -21.5230   -6.8350   24.8140 C   0  0  0  0  0  0  0  0  0  0  0  0
  -22.0890   -6.0190   23.8190 C   0  0  0  0  0  3  0  0  0  0  0  0
  -22.4700   -6.5780   22.5860 C   0  0  0  0  0  0  0  0  0  0  0  0
  -22.9950   -5.7830   21.6230 F   0  0  0  0  0  0  0  0  0  0  0  0
  -21.1510   -6.2940   25.9980 F   0  0  0  0  0  0  0  0  0  0  0  0
  -24.4440  -14.9290   20.9180 C   0  0  0  0  0  0  0  0  0  0  0  0
  -23.8330  -14.2920   21.9120 N   0  0  0  0  0  0  0  0  0  0  0  0
  -24.0250  -16.0030   20.4940 O   0  0  0  0  0  0  0  0  0  0  0  0
  -24.1930  -13.4220   22.2730 H   0  0  0  0  0  0  0  0  0  0  0  0
  -22.9920  -14.6800   22.3200 H   0  0  0  0  0  0  0  0  0  0  0  0
  -27.0880  -16.3330   19.7320 N   0  0  0  0  0  0  0  0  0  0  0  0
  -26.4350  -17.0600   20.0000 H   0  0  0  0  0  0  0  0  0  0  0  0
  -27.9250  -16.6920   19.2890 H   0  0  0  0  0  0  0  0  0  0  0  0
  -26.4680  -25.0080   21.6170 C   0  0  0  0  0  3  0  0  0  0  0  0
  -25.9300  -26.0520   22.4100 O   0  0  0  0  0  0  0  0  0  0  0  0
  -25.0110  -26.1460   22.1760 H   0  0  0  0  0  0  0  0  0  0  0  0
  -28.0010  -24.9550   21.8380 C   0  0  0  0  0  2  0  0  0  0  0  0
  -28.6850  -25.5630   20.6770 N   0  0  0  0  0  4  0  0  0  0  0  0
  -28.1710  -25.2290   19.8760 H   0  0  0  0  0  0  0  0  0  0  0  0
  -28.5560  -26.5630   20.7150 H   0  0  0  0  0  0  0  0  0  0  0  0
  -30.1110  -25.1930   20.4710 C   0  0  0  0  0  2  0  0  0  0  0  0
  -31.1240  -26.1740   21.0990 C   0  0  0  0  0  2  0  0  0  0  0  0
  -31.0060  -27.4980   20.5700 O   0  0  0  0  0  0  0  0  0  0  0  0
  -25.9150  -29.8930   24.9240 C   0  0  0  0  0  0  0  0  0  0  0  0
  -29.7670  -28.0690   20.7030 C   0  0  0  0  0  0  0  0  0  0  0  0
  -25.3010  -29.7090   22.5330 C   0  0  0  0  0  3  0  0  0  0  0  0
  -27.2330  -29.2750   20.9260 C   0  0  0  0  0  0  0  0  0  0  0  0
  -27.7240  -30.1170   23.2290 C   0  0  0  0  0  2  0  0  0  0  0  0
  -28.1440  -29.3590   21.9880 C   0  0  0  0  0  0  0  0  0  0  0  0
  -29.4130  -28.7530   21.8850 C   0  0  0  0  0  3  0  0  0  0  0  0
  -28.8560  -28.0150   19.6290 C   0  0  0  0  0  3  0  0  0  0  0  0
  -27.5820  -28.6000   19.7410 C   0  0  0  0  0  3  0  0  0  0  0  0
  -25.8950  -29.9510   21.1180 C   0  0  0  0  0  2  0  0  0  0  0  0
  -26.3150  -29.8840   23.6220 N   0  0  0  0  0  0  0  0  0  0  0  0
  -24.7180  -29.8020   25.2260 O   0  0  0  0  0  0  0  0  0  0  0  0
  -24.6220  -28.3210   22.5490 C   0  0  0  0  0  0  0  0  0  0  0  0
  -23.3980  -28.2450   22.0020 N   0  0  0  0  0  0  0  0  0  0  0  0
  -25.2050  -27.3400   23.0190 O   0  0  0  0  0  0  0  0  0  0  0  0
  -22.9870  -29.0960   21.6440 H   0  0  0  0  0  0  0  0  0  0  0  0
  -20.1310  -27.0170   21.0640 C   0  0  0  0  0  0  0  0  0  0  0  0
  -22.5880  -27.0320   21.8710 C   0  0  0  0  0  3  0  0  0  0  0  0
  -22.9150  -26.2810   20.5610 C   0  0  0  0  0  2  0  0  0  0  0  0
  -22.0000  -26.6730   19.3960 C   0  0  0  0  0  2  0  0  0  0  0  0
  -20.5360  -26.3860   19.7430 C   0  0  0  0  0  2  0  0  0  0  0  0
  -21.0960  -27.3310   22.0580 C   0  0  0  0  0  0  0  0  0  0  0  0
  -20.6700  -27.9430   23.2570 C   0  0  0  0  0  3  0  0  0  0  0  0
  -19.3100  -28.2370   23.4700 C   0  0  0  0  0  3  0  0  0  0  0  0
  -18.3590  -27.9110   22.4880 C   0  0  0  0  0  3  0  0  0  0  0  0
  -18.7690  -27.2970   21.2920 C   0  0  0  0  0  3  0  0  0  0  0  0
  -26.9390  -30.0460   26.0940 C   0  0  0  0  0  3  0  0  0  0  0  0
  -26.8580  -31.4310   26.5720 N   0  0  0  0  0  0  0  0  0  0  0  0
  -27.7740  -32.3770   26.3160 C   0  0  0  0  0  0  0  0  0  0  0  0
  -28.8230  -32.1480   25.7060 O   0  0  0  0  0  0  0  0  0  0  0  0
  -26.0010  -31.7030   27.0310 H   0  0  0  0  0  0  0  0  0  0  0  0
  -27.0630  -34.6880   25.6290 C   0  0  0  0  0  1  0  0  0  0  0  0
  -27.4780  -33.8010   26.8150 C   0  0  0  0  0  3  0  0  0  0  0  0
  -28.9050  -33.7930   28.8120 C   0  0  0  0  0  1  0  0  0  0  0  0
  -28.6150  -34.4230   27.5270 N   0  0  0  0  0  0  0  0  0  0  0  0
  -28.4390  -35.4110   27.6920 H   0  0  0  0  0  0  0  0  0  0  0  0
  -26.6920  -29.0290   27.2730 C   0  0  1  0  0  0  0  0  0  0  0  0
  -25.2320  -29.0110   27.7780 C   0  0  0  0  0  1  0  0  0  0  0  0
  -27.0600  -27.5890   26.8430 C   0  0  0  0  0  1  0  0  0  0  0  0
  -27.6070  -29.3790   28.4700 C   0  0  0  0  0  1  0  0  0  0  0  0
  2  1  1  0
  3  4  1  0
  4  6  1  0
  4  2  1  0
  5  3  2  0
  7  3  1  0
  7  9  2  0
  8  7  1  0
 10  8  1  0
 11  8  1  0
 12 13  1  0
 12 11  1  0
 13 22  1  0
 14 22  1  0
 14 20  1  0
 16 17  1  0
 16 15  1  0
 18 17  1  0
 18 27  1  0
 18 19  1  0
 20 15  1  0
 20 19  1  0
 21 14  2  0
 22 23  1  0
 24 25  2  0
 25 44  1  0
 26 25  1  0
 26 29  1  0
 27 28  1  0
 27 24  1  0
 28 26  2  0
 29 30  1  0
 30 31  2  0
 32 35  1  0
 32 31  1  0
 33 32  2  0
 34 33  1  0
 34 29  2  0
 35 36  1  0
 36 41  2  0
 36 37  1  0
 37 38  2  0
 38 39  1  0
 39 43  1  0
 40 39  2  0
 41 40  1  0
 42 41  1  0
 44 45  1  0
 45 47  1  0
 45 48  1  0
 46 44  2  0
 49 24  1  0
 49 50  1  0
 51 49  1  0
 52 55  1  0
 52  2  1  0
 52 53  1  0
 54 53  1  0
 56 58  1  0
 56 55  1  0
 57 56  1  0
 59 56  1  0
 59 60  1  0
 61 63  1  0
 61 60  1  0
 62 73  2  0
 63 68  1  0
 64 74  1  0
 64 72  1  0
 65 71  1  0
 65 67  1  0
 66 72  1  0
 67 66  1  0
 68 67  2  0
 69 70  1  0
 69 63  2  0
 70 65  2  0
 71 64  1  0
 72 62  1  0
 74 76  2  0
 75 74  1  0
 77 75  1  0
 78 87  2  0
 78 83  1  0
 79 75  1  0
 79 83  1  0
 80 79  1  0
 81 82  1  0
 81 80  1  0
 82 78  1  0
 83 84  2  0
 84 85  1  0
 86 85  2  0
 87 86  1  0
 88 62  1  0
 88 89  1  0
 88 98  1  0
 89 92  1  0
 90 89  1  0
 90 94  1  0
 91 90  2  0
 94 93  1  0
 94 96  1  0
 96 97  1  0
 96 95  1  0
 98 99  1  1
 98101  1  0
100 98  1  0
M  ISO  4  14 100  22 100  60 101  61 101
M  END
>  <TORSDO>  (74) 
F 27

>  <SCORE>  (74) 
-4.333

>  <name>  (74) 
81

>  <ligand_id>  (74) 
81

>  <original_smiles>  (74) 
[H]OC([H])(C([H])(N([H])C(=O)C(=O)N([H])C([H])([H])C([H])([H])C([H])([H])N([H])C(=O)N1C([H])([H])C([H])([H])C([H])([H])C([H])(n2nc(-c3c([H])c([H])c(Oc4c([H])c([H])c(F)c([H])c4F)c([H])c3[H])c(C(=O)N([H])[H])c2N([H])[H])C1([H])[H])C([H])([H])[H])C([H])([H])[N+]([H])([H])C([H])([H])C([H])([H])Oc1c([H])c([H])c2c(c1[H])C([H])([H])N(C(=O)C([H])(N([H])C(=O)C([H])(N([H])C([H])([H])[H])C([H])([H])[H])C(C([H])([H])[H])(C([H])([H])[H])C([H])([H])[H])C([H])(C(=O)N([H])C1([H])c3c([H])c([H])c([H])c([H])c3C([H])([H])C([H])([H])C1([H])[H])C2([H])[H]

>  <smiles>  (74) 
[H]OC([H])(C([H])(N([H])C(=O)C(=O)N([H])C([H])([H])C([H])([H])C([H])([H])N([H])C(=O)N1C([H])([H])C([H])([H])C([H])([H])C([H])(n2nc(-c3c([H])c([H])c(Oc4c([H])c([H])c(F)c([H])c4F)c([H])c3[H])c(C(=O)N([H])[H])c2N([H])[H])C1([H])[H])C([H])([H])[H])C([H])([H])[N+]([H])([H])C([H])([H])C([H])([H])Oc1c([H])c([H])c2c(c1[H])C([H])([H])N(C(=O)C([H])(N([H])C(=O)C([H])(N([H])C([H])([H])[H])C([H])([H])[H])C(C([H])([H])[H])(C([H])([H])[H])C([H])([H])[H])C([H])(C(=O)N([H])C1([H])c3c([H])c([H])c([H])c([H])c3C([H])([H])C([H])([H])C1([H])[H])C2([H])[H]

$$$$
82:0:0
     RDKit          3D

 95102  0  0  1  0  0  0  0  0999 V2000
  -29.7980  -20.7600   21.3200 C   0  0  0  0  0  3  0  0  0  0  0  0
  -29.4920  -21.8950   20.3020 C   0  0  0  0  0  0  0  0  0  0  0  0
  -29.1090  -23.1100   20.7470 N   0  0  0  0  0  0  0  0  0  0  0  0
  -29.5890  -21.6600   19.0950 O   0  0  0  0  0  0  0  0  0  0  0  0
  -29.0490  -23.2530   21.7460 H   0  0  0  0  0  0  0  0  0  0  0  0
  -28.8000  -24.2610   19.8760 C   0  0  0  0  0  2  0  0  0  0  0  0
  -28.2000  -25.4710   20.6370 C   0  0  0  0  0  2  0  0  0  0  0  0
  -28.2410  -26.6880   19.8610 O   0  0  0  0  0  0  0  0  0  0  0  0
  -24.5130  -31.7880   23.1650 C   0  0  0  0  0  0  0  0  0  0  0  0
  -27.0860  -27.4420   19.8990 C   0  0  0  0  0  0  0  0  0  0  0  0
  -23.2700  -30.4280   21.5160 C   0  0  0  0  0  3  0  0  0  0  0  0
  -24.6910  -28.9410   20.0070 C   0  0  0  0  0  0  0  0  0  0  0  0
  -25.7880  -30.8080   21.2590 C   0  0  0  0  0  2  0  0  0  0  0  0
  -25.8650  -29.4580   20.5740 C   0  0  0  0  0  0  0  0  0  0  0  0
  -27.0690  -28.7180   20.5100 C   0  0  0  0  0  3  0  0  0  0  0  0
  -25.9000  -26.9440   19.3180 C   0  0  0  0  0  3  0  0  0  0  0  0
  -24.7050  -27.6860   19.3730 C   0  0  0  0  0  3  0  0  0  0  0  0
  -23.4460  -29.7910   20.1120 C   0  0  0  0  0  2  0  0  0  0  0  0
  -24.5440  -31.0200   22.0390 N   0  0  0  0  0  0  0  0  0  0  0  0
  -23.4470  -32.0370   23.7430 O   0  0  0  0  0  0  0  0  0  0  0  0
  -22.6490  -29.3760   22.4630 C   0  0  0  0  0  0  0  0  0  0  0  0
  -21.3300  -29.1550   22.3320 N   0  0  0  0  0  0  0  0  0  0  0  0
  -23.3490  -28.7630   23.2740 O   0  0  0  0  0  0  0  0  0  0  0  0
  -20.8250  -29.7040   21.6510 H   0  0  0  0  0  0  0  0  0  0  0  0
  -18.0100  -27.7900   22.7430 C   0  0  0  0  0  0  0  0  0  0  0  0
  -20.5410  -28.1840   23.0890 C   0  0  0  0  0  3  0  0  0  0  0  0
  -20.7350  -26.7540   22.5330 C   0  0  0  0  0  2  0  0  0  0  0  0
  -19.6840  -26.3640   21.4900 C   0  0  0  0  0  2  0  0  0  0  0  0
  -18.2780  -26.4440   22.0900 C   0  0  0  0  0  2  0  0  0  0  0  0
  -19.0740  -28.6130   23.1970 C   0  0  0  0  0  0  0  0  0  0  0  0
  -18.7710  -29.8700   23.7650 C   0  0  0  0  0  3  0  0  0  0  0  0
  -17.4370  -30.3050   23.8860 C   0  0  0  0  0  3  0  0  0  0  0  0
  -16.3880  -29.4780   23.4500 C   0  0  0  0  0  3  0  0  0  0  0  0
  -16.6750  -28.2230   22.8830 C   0  0  0  0  0  3  0  0  0  0  0  0
  -25.8120  -32.4080   23.7690 C   0  0  0  0  0  3  0  0  0  0  0  0
  -25.5130  -33.8000   24.1300 N   0  0  0  0  0  0  0  0  0  0  0  0
  -25.8440  -34.8650   23.3870 C   0  0  0  0  0  0  0  0  0  0  0  0
  -26.5010  -34.7790   22.3450 O   0  0  0  0  0  0  0  0  0  0  0  0
  -24.9280  -33.9430   24.9390 H   0  0  0  0  0  0  0  0  0  0  0  0
  -24.1140  -36.6660   23.0940 C   0  0  0  0  0  1  0  0  0  0  0  0
  -25.3690  -36.2470   23.8760 C   0  0  0  0  0  3  0  0  0  0  0  0
  -27.5220  -37.1100   24.6820 C   0  0  0  0  0  1  0  0  0  0  0  0
  -26.4020  -37.3000   23.7640 N   0  0  0  0  0  0  0  0  0  0  0  0
  -26.0010  -38.2170   23.9400 H   0  0  0  0  0  0  0  0  0  0  0  0
  -26.3590  -31.6140   25.0180 C   0  0  1  0  0  0  0  0  0  0  0  0
  -25.2940  -31.3590   26.1090 C   0  0  0  0  0  1  0  0  0  0  0  0
  -26.9260  -30.2420   24.5830 C   0  0  0  0  0  1  0  0  0  0  0  0
  -27.5300  -32.3920   25.6620 C   0  0  0  0  0  1  0  0  0  0  0  0
  -30.0220  -19.4780   20.5890 N   0  0  0  0  0  4  0  0  0  0  0  0
  -29.3820  -19.5060   19.8100 H   0  0  0  0  0  0  0  0  0  0  0  0
  -30.9450  -19.5190   20.1880 H   0  0  0  0  0  0  0  0  0  0  0  0
  -29.8410  -18.2000   21.3350 C   0  0  0  0  0  2  0  0  0  0  0  0
  -30.5030  -17.0100   20.5930 C   0  0  0  0  0  2  0  0  0  0  0  0
  -30.8970  -14.5810   20.8590 C   0  0  0  0  0  0  0  0  0  0  0  0
  -30.7190  -12.2980   19.9620 C   0  0  0  0  0  2  0  0  0  0  0  0
  -29.8920  -12.3520   18.6610 C   0  0  0  0  0  2  0  0  0  0  0  0
  -28.3870  -12.2320   18.9710 C   0  0  0  0  0  2  0  0  0  0  0  0
  -27.9240  -13.1970   20.0950 C   0  0  0  0  0  3  0  0  0  0  0  0
  -28.8770  -13.1340   21.3120 C   0  0  0  0  0  2  0  0  0  0  0  0
  -30.2460  -13.3870   20.8340 N   0  0  0  0  0  0  0  0  0  0  0  0
  -32.0650  -14.7140   20.4860 O   0  0  0  0  0  0  0  0  0  0  0  0
  -30.1370  -15.6680   21.0900 N   0  0  0  0  0  0  0  0  0  0  0  0
  -29.1860  -15.5130   21.3910 H   0  0  0  0  0  0  0  0  0  0  0  0
  -25.4850  -13.8340   20.6070 C   0  0  0  0  0  0  0  0  0  0  0  0
  -24.3860  -13.0770   20.9130 C   0  0  0  0  0  0  0  0  0  0  0  0
  -24.8380  -11.7220   20.9460 C   0  0  0  0  0  0  0  0  0  0  0  0
  -26.5370  -12.9410   20.4760 N   0  0  0  0  0  0  0  0  0  0  0  0
  -26.1470  -11.6670   20.7370 N   0  0  0  0  0  0  0  0  0  0  0  0
  -24.0890  -10.4690   21.1080 C   0  0  0  0  0  0  0  0  0  0  0  0
  -24.4580   -9.5080   22.0740 C   0  0  0  0  0  3  0  0  0  0  0  0
  -23.7110   -8.3190   22.2230 C   0  0  0  0  0  3  0  0  0  0  0  0
  -22.5810   -8.0840   21.4040 C   0  0  0  0  0  0  0  0  0  0  0  0
  -22.2330   -9.0330   20.4260 C   0  0  0  0  0  3  0  0  0  0  0  0
  -22.9810  -10.2120   20.2750 C   0  0  0  0  0  3  0  0  0  0  0  0
  -21.8120   -6.9470   21.4600 O   0  0  0  0  0  0  0  0  0  0  0  0
  -21.7080   -6.2050   22.6090 C   0  0  0  0  0  0  0  0  0  0  0  0
  -21.2380   -6.7640   23.8170 C   0  0  0  0  0  3  0  0  0  0  0  0
  -21.0820   -5.9480   24.9550 C   0  0  0  0  0  3  0  0  0  0  0  0
  -21.3850   -4.5740   24.8860 C   0  0  0  0  0  0  0  0  0  0  0  0
  -21.8480   -4.0150   23.6810 C   0  0  0  0  0  3  0  0  0  0  0  0
  -22.0060   -4.8290   22.5450 C   0  0  0  0  0  0  0  0  0  0  0  0
  -22.4320   -4.2810   21.3820 F   0  0  0  0  0  0  0  0  0  0  0  0
  -21.2280   -3.7880   25.9770 F   0  0  0  0  0  0  0  0  0  0  0  0
  -22.9770  -13.5700   21.0730 C   0  0  0  0  0  0  0  0  0  0  0  0
  -22.1850  -12.9010   21.9040 N   0  0  0  0  0  0  0  0  0  0  0  0
  -22.5850  -14.5820   20.4950 O   0  0  0  0  0  0  0  0  0  0  0  0
  -22.5170  -12.0840   22.3960 H   0  0  0  0  0  0  0  0  0  0  0  0
  -21.2360  -13.2110   22.0540 H   0  0  0  0  0  0  0  0  0  0  0  0
  -25.6770  -15.1990   20.4080 N   0  0  0  0  0  0  0  0  0  0  0  0
  -24.9110  -15.8630   20.4340 H   0  0  0  0  0  0  0  0  0  0  0  0
  -26.5510  -15.6100   20.1080 H   0  0  0  0  0  0  0  0  0  0  0  0
  -31.0090  -21.0970   22.2410 C   0  0  0  0  0  2  0  0  0  0  0  0
  -30.2970  -22.3060   24.3650 C   0  0  0  0  0  1  0  0  0  0  0  0
  -31.8970  -20.3540   24.5210 C   0  0  0  0  0  1  0  0  0  0  0  0
  -30.7090  -20.9590   23.7530 C   0  0  0  0  0  3  0  0  0  0  0  0
  1 92  1  0
  2  3  1  0
  2  1  1  0
  3  5  1  0
  4  2  2  0
  6  7  1  0
  6  3  1  0
  8 10  1  0
  8  7  1  0
  9 20  2  0
 10 15  1  0
 11 19  1  0
 11 21  1  0
 12 18  1  0
 12 14  1  0
 13 19  1  0
 14 13  1  0
 15 14  2  0
 16 17  1  0
 16 10  2  0
 17 12  2  0
 18 11  1  0
 19  9  1  0
 21 23  2  0
 22 21  1  0
 24 22  1  0
 25 34  2  0
 25 30  1  0
 26 22  1  0
 26 30  1  0
 27 26  1  0
 28 29  1  0
 28 27  1  0
 29 25  1  0
 30 31  2  0
 31 32  1  0
 33 32  2  0
 34 33  1  0
 35  9  1  0
 35 36  1  0
 35 45  1  0
 36 39  1  0
 37 41  1  0
 37 36  1  0
 38 37  2  0
 41 40  1  0
 43 41  1  0
 43 44  1  0
 43 42  1  0
 45 48  1  1
 45 46  1  0
 47 45  1  0
 49  1  1  0
 49 52  1  0
 50 49  1  0
 51 49  1  0
 53 62  1  0
 53 52  1  0
 54 62  1  0
 55 60  1  0
 56 57  1  0
 56 55  1  0
 58 57  1  0
 58 67  1  0
 58 59  1  0
 60 54  1  0
 60 59  1  0
 61 54  2  0
 62 63  1  0
 64 65  2  0
 65 66  1  0
 65 84  1  0
 66 69  1  0
 67 64  1  0
 67 68  1  0
 68 66  2  0
 69 70  1  0
 70 71  2  0
 72 75  1  0
 72 71  1  0
 73 72  2  0
 74 73  1  0
 74 69  2  0
 75 76  1  0
 76 77  1  0
 77 78  2  0
 79 78  1  0
 79 83  1  0
 80 79  2  0
 81 76  2  0
 81 80  1  0
 82 81  1  0
 84 85  1  0
 85 88  1  0
 85 87  1  0
 86 84  2  0
 89 90  1  0
 89 64  1  0
 91 89  1  0
 92 95  1  0
 95 93  1  0
 95 94  1  0
M  ISO  4   7 101   8 101  54 100  62 100
M  END
>  <TORSDO>  (75) 
F 24

>  <SCORE>  (75) 
-11.811

>  <name>  (75) 
82

>  <ligand_id>  (75) 
82

>  <original_smiles>  (75) 
[H]c1c([H])c([H])c2c(c1[H])C([H])([H])C([H])([H])C([H])([H])C2([H])N([H])C(=O)C1([H])N(C(=O)C([H])(N([H])C(=O)C([H])(N([H])C([H])([H])[H])C([H])([H])[H])C(C([H])([H])[H])(C([H])([H])[H])C([H])([H])[H])C([H])([H])c2c([H])c(OC([H])([H])C([H])([H])N([H])C(=O)C([H])(C([H])([H])C([H])(C([H])([H])[H])C([H])([H])[H])[N+]([H])([H])C([H])([H])C([H])([H])N([H])C(=O)N3C([H])([H])C([H])([H])C([H])([H])C([H])(n4nc(-c5c([H])c([H])c(Oc6c([H])c([H])c(F)c([H])c6F)c([H])c5[H])c(C(=O)N([H])[H])c4N([H])[H])C3([H])[H])c([H])c([H])c2C1([H])[H]

>  <smiles>  (75) 
[H]c1c([H])c([H])c2c(c1[H])C([H])([H])C([H])([H])C([H])([H])C2([H])N([H])C(=O)C1([H])N(C(=O)C([H])(N([H])C(=O)C([H])(N([H])C([H])([H])[H])C([H])([H])[H])C(C([H])([H])[H])(C([H])([H])[H])C([H])([H])[H])C([H])([H])c2c([H])c(OC([H])([H])C([H])([H])N([H])C(=O)C([H])(C([H])([H])C([H])(C([H])([H])[H])C([H])([H])[H])[N+]([H])([H])C([H])([H])C([H])([H])N([H])C(=O)N3C([H])([H])C([H])([H])C([H])([H])C([H])(n4nc(-c5c([H])c([H])c(Oc6c([H])c([H])c(F)c([H])c6F)c([H])c5[H])c(C(=O)N([H])[H])c4N([H])[H])C3([H])[H])c([H])c([H])c2C1([H])[H]

$$$$
83:0:0
     RDKit          3D

103112  0  0  1  0  0  0  0  0999 V2000
  -29.9320  -22.3150   22.5190 O   0  0  0  0  0  0  0  0  0  0  0  0
  -29.2600  -22.2080   21.2660 C   0  0  0  0  0  2  0  0  0  0  0  0
  -28.6490  -20.8050   21.0700 C   0  0  0  0  0  2  0  0  0  0  0  0
  -33.1670  -17.0330   19.5950 C   0  0  0  0  0  3  0  0  0  0  0  0
  -31.1130  -17.2940   20.5270 C   0  0  0  0  0  0  0  0  0  0  0  0
  -32.1310  -16.3610   20.1870 C   0  0  0  0  0  0  0  0  0  0  0  0
  -31.5440  -18.5120   20.0970 C   0  0  0  0  0  0  0  0  0  0  0  0
  -29.7870  -17.1250   21.2140 C   0  0  0  0  0  2  0  0  0  0  0  0
  -30.7710  -19.7940   20.1790 C   0  0  0  0  0  2  0  0  0  0  0  0
  -28.8880  -18.3550   20.9380 C   0  0  0  0  0  2  0  0  0  0  0  0
  -33.6070  -19.4430   18.9700 C   0  0  0  0  0  1  0  0  0  0  0  0
  -32.8070  -18.3720   19.5370 N   0  0  0  0  0  0  0  0  0  0  0  0
  -29.6050  -19.6590   21.1040 N   0  0  2  0  0  4  0  0  0  0  0  0
  -30.0000  -19.6420   22.0330 H   0  0  0  0  0  0  0  0  0  0  0  0
  -32.4360  -13.9660   19.6130 C   0  0  0  0  0  0  0  0  0  0  0  0
  -31.8260  -11.7900   18.6260 C   0  0  0  0  0  2  0  0  0  0  0  0
  -30.8140  -12.0140   17.4830 C   0  0  0  0  0  2  0  0  0  0  0  0
  -29.3730  -12.0620   18.0290 C   0  0  0  0  0  2  0  0  0  0  0  0
  -29.2270  -13.0220   19.2390 C   0  0  0  0  0  3  0  0  0  0  0  0
  -30.3320  -12.7480   20.2830 C   0  0  0  0  0  2  0  0  0  0  0  0
  -31.6440  -12.8620   19.6150 N   0  0  0  0  0  0  0  0  0  0  0  0
  -33.4660  -14.0570   18.9370 O   0  0  0  0  0  0  0  0  0  0  0  0
  -32.0040  -14.9640   20.4030 N   0  0  0  0  0  0  0  0  0  0  0  0
  -31.2820  -14.6890   21.0520 H   0  0  0  0  0  0  0  0  0  0  0  0
  -26.9990  -13.9510   20.1410 C   0  0  0  0  0  0  0  0  0  0  0  0
  -25.8720  -13.3280   20.6070 C   0  0  0  0  0  0  0  0  0  0  0  0
  -26.1420  -11.9280   20.5450 C   0  0  0  0  0  0  0  0  0  0  0  0
  -27.8920  -12.9360   19.8290 N   0  0  0  0  0  0  0  0  0  0  0  0
  -27.3820  -11.7140   20.1270 N   0  0  0  0  0  0  0  0  0  0  0  0
  -25.2720  -10.7740   20.8070 C   0  0  0  0  0  0  0  0  0  0  0  0
  -25.5460   -9.8660   21.8540 C   0  0  0  0  0  3  0  0  0  0  0  0
  -24.6840   -8.7730   22.0990 C   0  0  0  0  0  3  0  0  0  0  0  0
  -23.5350   -8.5810   21.2960 C   0  0  0  0  0  0  0  0  0  0  0  0
  -23.2800   -9.4760   20.2400 C   0  0  0  0  0  3  0  0  0  0  0  0
  -24.1400  -10.5590   19.9960 C   0  0  0  0  0  3  0  0  0  0  0  0
  -22.6580   -7.5340   21.4440 O   0  0  0  0  0  0  0  0  0  0  0  0
  -22.2110   -7.1370   22.6780 C   0  0  0  0  0  0  0  0  0  0  0  0
  -21.6130   -8.0430   23.5810 C   0  0  0  0  0  3  0  0  0  0  0  0
  -21.1050   -7.5790   24.8100 C   0  0  0  0  0  3  0  0  0  0  0  0
  -21.1850   -6.2110   25.1350 C   0  0  0  0  0  0  0  0  0  0  0  0
  -21.7770   -5.3070   24.2350 C   0  0  0  0  0  3  0  0  0  0  0  0
  -22.2860   -5.7690   23.0090 C   0  0  0  0  0  0  0  0  0  0  0  0
  -22.8350   -4.8910   22.1350 F   0  0  0  0  0  0  0  0  0  0  0  0
  -20.6910   -5.7630   26.3130 F   0  0  0  0  0  0  0  0  0  0  0  0
  -24.5800  -13.9880   20.9970 C   0  0  0  0  0  0  0  0  0  0  0  0
  -23.8710  -13.4180   21.9660 N   0  0  0  0  0  0  0  0  0  0  0  0
  -24.2160  -15.0410   20.4760 O   0  0  0  0  0  0  0  0  0  0  0  0
  -24.1810  -12.5660   22.4080 H   0  0  0  0  0  0  0  0  0  0  0  0
  -23.0050  -13.8430   22.2700 H   0  0  0  0  0  0  0  0  0  0  0  0
  -27.3330  -15.2860   19.9410 N   0  0  0  0  0  0  0  0  0  0  0  0
  -26.6730  -16.0390   20.0990 H   0  0  0  0  0  0  0  0  0  0  0  0
  -28.2060  -15.6030   19.5390 H   0  0  0  0  0  0  0  0  0  0  0  0
  -30.7140  -23.5070   22.5860 C   0  0  0  0  0  2  0  0  0  0  0  0
  -32.1290  -23.2220   22.0690 C   0  0  0  0  0  2  0  0  0  0  0  0
  -32.1250  -22.4620   20.7940 N   0  0  0  0  0  4  0  0  0  0  0  0
  -31.4010  -21.7610   20.8140 H   0  0  0  0  0  0  0  0  0  0  0  0
  -32.9990  -21.9590   20.7700 H   0  0  0  0  0  0  0  0  0  0  0  0
  -32.0720  -23.2570   19.5390 C   0  0  0  0  0  2  0  0  0  0  0  0
  -30.6750  -23.3180   18.8950 C   0  0  0  0  0  2  0  0  0  0  0  0
  -29.9400  -24.4220   19.4150 O   0  0  0  0  0  0  0  0  0  0  0  0
  -28.8420  -24.7840   18.5810 C   0  0  0  0  0  2  0  0  0  0  0  0
  -28.1920  -26.0820   19.0900 C   0  0  0  0  0  2  0  0  0  0  0  0
  -26.9520  -26.2970   18.4140 O   0  0  0  0  0  0  0  0  0  0  0  0
  -25.3870  -31.0530   23.5190 C   0  0  0  0  0  0  0  0  0  0  0  0
  -26.1040  -27.2550   18.9240 C   0  0  0  0  0  0  0  0  0  0  0  0
  -23.5650  -30.5150   21.9300 C   0  0  0  0  0  3  0  0  0  0  0  0
  -24.2540  -29.1750   19.8700 C   0  0  0  0  0  0  0  0  0  0  0  0
  -26.0120  -30.3380   21.2190 C   0  0  0  0  0  2  0  0  0  0  0  0
  -25.5940  -29.2300   20.2780 C   0  0  0  0  0  0  0  0  0  0  0  0
  -26.5190  -28.2730   19.8160 C   0  0  0  0  0  3  0  0  0  0  0  0
  -24.7560  -27.2200   18.5130 C   0  0  0  0  0  3  0  0  0  0  0  0
  -23.8260  -28.1650   18.9910 C   0  0  0  0  0  3  0  0  0  0  0  0
  -23.3300  -30.2390   20.4180 C   0  0  0  0  0  2  0  0  0  0  0  0
  -25.0190  -30.6270   22.2770 N   0  0  0  0  0  0  0  0  0  0  0  0
  -24.5400  -31.3930   24.3560 O   0  0  0  0  0  0  0  0  0  0  0  0
  -22.8220  -29.4340   22.7480 C   0  0  0  0  0  0  0  0  0  0  0  0
  -21.4880  -29.3920   22.6110 N   0  0  0  0  0  0  0  0  0  0  0  0
  -23.4460  -28.6420   23.4590 O   0  0  0  0  0  0  0  0  0  0  0  0
  -21.0540  -30.0840   22.0160 H   0  0  0  0  0  0  0  0  0  0  0  0
  -18.0770  -28.2060   22.6810 C   0  0  0  0  0  0  0  0  0  0  0  0
  -20.5870  -28.4350   23.2530 C   0  0  0  0  0  3  0  0  0  0  0  0
  -20.7490  -27.0240   22.6440 C   0  0  0  0  0  2  0  0  0  0  0  0
  -19.7700  -26.7430   21.5000 C   0  0  0  0  0  2  0  0  0  0  0  0
  -18.3240  -26.8780   21.9870 C   0  0  0  0  0  2  0  0  0  0  0  0
  -19.1410  -28.9450   23.2620 C   0  0  0  0  0  0  0  0  0  0  0  0
  -18.8620  -30.1910   23.8630 C   0  0  0  0  0  3  0  0  0  0  0  0
  -17.5480  -30.6980   23.8900 C   0  0  0  0  0  3  0  0  0  0  0  0
  -16.4960  -29.9540   23.3300 C   0  0  0  0  0  3  0  0  0  0  0  0
  -16.7600  -28.7090   22.7310 C   0  0  0  0  0  3  0  0  0  0  0  0
  -26.8870  -31.1540   23.9400 C   0  0  0  0  0  3  0  0  0  0  0  0
  -27.0590  -32.4200   24.6630 N   0  0  0  0  0  0  0  0  0  0  0  0
  -27.6360  -33.5170   24.1520 C   0  0  0  0  0  0  0  0  0  0  0  0
  -28.1510  -33.5430   23.0310 O   0  0  0  0  0  0  0  0  0  0  0  0
  -26.6120  -32.4910   25.5660 H   0  0  0  0  0  0  0  0  0  0  0  0
  -26.5760  -35.7700   24.5120 C   0  0  0  0  0  1  0  0  0  0  0  0
  -27.6410  -34.7860   25.0240 C   0  0  0  0  0  3  0  0  0  0  0  0
  -29.9710  -34.7000   25.7930 C   0  0  0  0  0  1  0  0  0  0  0  0
  -28.9560  -35.4620   25.0700 N   0  0  0  0  0  0  0  0  0  0  0  0
  -28.8750  -36.3750   25.5080 H   0  0  0  0  0  0  0  0  0  0  0  0
  -27.3740  -29.9370   24.8170 C   0  0  1  0  0  0  0  0  0  0  0  0
  -26.4670  -29.6440   26.0340 C   0  0  0  0  0  1  0  0  0  0  0  0
  -27.4540  -28.6500   23.9640 C   0  0  0  0  0  1  0  0  0  0  0  0
  -28.8040  -30.2100   25.3440 C   0  0  0  0  0  1  0  0  0  0  0  0
  1 53  1  0
  2  1  1  0
  3 13  1  0
  3  2  1  0
  4  6  2  0
  5  8  1  0
  6 23  1  0
  6  5  1  0
  7  9  1  0
  7  5  2  0
  9 13  1  0
 10 13  1  0
 10  8  1  0
 11 12  1  0
 12  4  1  0
 12  7  1  0
 13 14  1  1
 15 21  1  0
 15 23  1  0
 16 21  1  0
 17 18  1  0
 17 16  1  0
 19 18  1  0
 19 28  1  0
 19 20  1  0
 21 20  1  0
 22 15  2  0
 23 24  1  0
 25 26  2  0
 26 45  1  0
 27 26  1  0
 27 30  1  0
 28 29  1  0
 28 25  1  0
 29 27  2  0
 30 31  1  0
 31 32  2  0
 33 36  1  0
 33 32  1  0
 34 33  2  0
 35 34  1  0
 35 30  2  0
 36 37  1  0
 37 42  2  0
 37 38  1  0
 38 39  2  0
 39 40  1  0
 40 44  1  0
 41 40  2  0
 42 41  1  0
 43 42  1  0
 45 46  1  0
 46 49  1  0
 46 48  1  0
 47 45  2  0
 50 51  1  0
 50 25  1  0
 52 50  1  0
 54 53  1  0
 55 56  1  0
 55 54  1  0
 57 55  1  0
 58 55  1  0
 59 60  1  0
 59 58  1  0
 61 62  1  0
 61 60  1  0
 63 65  1  0
 63 62  1  0
 64 75  2  0
 65 70  1  0
 66 74  1  0
 66 76  1  0
 67 69  1  0
 67 73  1  0
 68 74  1  0
 69 68  1  0
 70 69  2  0
 71 65  2  0
 71 72  1  0
 72 67  2  0
 73 66  1  0
 74 64  1  0
 76 78  2  0
 77 76  1  0
 79 77  1  0
 80 89  2  0
 80 85  1  0
 81 77  1  0
 81 85  1  0
 82 81  1  0
 83 84  1  0
 83 82  1  0
 84 80  1  0
 85 86  2  0
 86 87  1  0
 88 87  2  0
 89 88  1  0
 90 64  1  0
 90 91  1  0
 90100  1  0
 91 94  1  0
 92 91  1  0
 92 96  1  0
 93 92  2  0
 96 95  1  0
 96 98  1  0
 98 99  1  0
 98 97  1  0
100103  1  1
100101  1  0
102100  1  0
M  ISO  4  15 100  23 100  62 101  63 101
M  END
>  <TORSDO>  (76) 
F 27

>  <SCORE>  (76) 
-6.632

>  <name>  (76) 
83

>  <ligand_id>  (76) 
83

>  <original_smiles>  (76) 
[H]c1c([H])c([H])c2c(c1[H])C([H])([H])C([H])([H])C([H])([H])C2([H])N([H])C(=O)C1([H])N(C(=O)C([H])(N([H])C(=O)C([H])(N([H])C([H])([H])[H])C([H])([H])[H])C(C([H])([H])[H])(C([H])([H])[H])C([H])([H])[H])C([H])([H])c2c([H])c(OC([H])([H])C([H])([H])OC([H])([H])C([H])([H])[N+]([H])([H])C([H])([H])C([H])([H])OC([H])([H])C([H])([H])[N+]3([H])C([H])([H])c4c(c(N([H])C(=O)N5C([H])([H])C([H])([H])C([H])([H])C([H])(n6nc(-c7c([H])c([H])c(Oc8c([H])c([H])c(F)c([H])c8F)c([H])c7[H])c(C(=O)N([H])[H])c6N([H])[H])C5([H])[H])c([H])n4C([H])([H])[H])C([H])([H])C3([H])[H])c([H])c([H])c2C1([H])[H]

>  <smiles>  (76) 
[H]c1c([H])c([H])c2c(c1[H])C([H])([H])C([H])([H])C([H])([H])C2([H])N([H])C(=O)C1([H])N(C(=O)C([H])(N([H])C(=O)C([H])(N([H])C([H])([H])[H])C([H])([H])[H])C(C([H])([H])[H])(C([H])([H])[H])C([H])([H])[H])C([H])([H])c2c([H])c(OC([H])([H])C([H])([H])OC([H])([H])C([H])([H])[N+]([H])([H])C([H])([H])C([H])([H])OC([H])([H])C([H])([H])[N+]3([H])C([H])([H])c4c(c(N([H])C(=O)N5C([H])([H])C([H])([H])C([H])([H])C([H])(n6nc(-c7c([H])c([H])c(Oc8c([H])c([H])c(F)c([H])c8F)c([H])c7[H])c(C(=O)N([H])[H])c6N([H])[H])C5([H])[H])c([H])n4C([H])([H])[H])C([H])([H])C3([H])[H])c([H])c([H])c2C1([H])[H]

$$$$
84:0:0
     RDKit          3D

110111  0  0  1  0  0  0  0  0999 V2000
  -19.1830  -23.2580   17.7510 C   0  0  0  0  0  3  0  0  0  0  0  0
  -18.1790  -23.8130   18.3040 N   0  0  0  0  0  0  0  0  0  0  0  0
  -21.4940  -22.3820   17.8980 C   0  0  0  0  0  3  0  0  0  0  0  0
  -20.4860  -23.1000   18.4260 C   0  0  0  0  0  3  0  0  0  0  0  0
  -22.8030  -22.3100   18.5360 C   0  0  0  0  0  3  0  0  0  0  0  0
  -23.9220  -21.8650   17.9220 C   0  0  0  0  0  3  0  0  0  0  0  0
  -25.1960  -21.8670   18.6370 C   0  0  0  0  0  0  0  0  0  0  0  0
  -26.2490  -22.0270   17.8200 N   0  0  0  0  0  0  0  0  0  0  0  0
  -25.3050  -21.7590   19.8550 O   0  0  0  0  0  0  0  0  0  0  0  0
  -26.0200  -22.0440   16.8350 H   0  0  0  0  0  0  0  0  0  0  0  0
  -27.6990  -22.0640   18.1150 C   0  0  0  0  0  2  0  0  0  0  0  0
  -28.1890  -22.4660   19.5360 C   0  0  0  0  0  2  0  0  0  0  0  0
  -28.1220  -23.8740   19.7580 O   0  0  0  0  0  0  0  0  0  0  0  0
  -28.7420  -24.2590   20.9890 C   0  0  0  0  0  2  0  0  0  0  0  0
  -28.8080  -25.7950   21.1560 C   0  0  0  0  0  2  0  0  0  0  0  0
  -28.4870  -26.4790   19.9440 O   0  0  0  0  0  0  0  0  0  0  0  0
  -24.7150  -31.7260   23.0180 C   0  0  0  0  0  0  0  0  0  0  0  0
  -27.3430  -27.2270   19.9900 C   0  0  0  0  0  0  0  0  0  0  0  0
  -23.5930  -30.4210   21.2790 C   0  0  0  0  0  3  0  0  0  0  0  0
  -25.0050  -28.7930   19.9290 C   0  0  0  0  0  0  0  0  0  0  0  0
  -26.1000  -30.6480   21.2200 C   0  0  0  0  0  2  0  0  0  0  0  0
  -26.1480  -29.2740   20.5840 C   0  0  0  0  0  0  0  0  0  0  0  0
  -27.3140  -28.4860   20.6160 C   0  0  0  0  0  3  0  0  0  0  0  0
  -26.1870  -26.7470   19.3450 C   0  0  0  0  0  3  0  0  0  0  0  0
  -25.0020  -27.5170   19.3210 C   0  0  0  0  0  3  0  0  0  0  0  0
  -23.8180  -29.7280   19.9010 C   0  0  0  0  0  2  0  0  0  0  0  0
  -24.8240  -30.9590   21.8940 N   0  0  0  0  0  0  0  0  0  0  0  0
  -23.6100  -32.0040   23.5170 O   0  0  0  0  0  0  0  0  0  0  0  0
  -22.9620  -29.3890   22.1830 C   0  0  0  0  0  0  0  0  0  0  0  0
  -21.7250  -29.1690   21.8360 N   0  0  0  0  0  0  0  0  0  0  0  0
  -23.5730  -28.7600   23.0560 O   0  0  0  0  0  0  0  0  0  0  0  0
  -21.3000  -29.7370   21.1160 H   0  0  0  0  0  0  0  0  0  0  0  0
  -18.4650  -27.3450   21.8610 C   0  0  0  0  0  3  0  0  0  0  0  0
  -21.0860  -27.9970   22.2400 C   0  0  0  0  0  3  0  0  0  0  0  0
  -21.2500  -26.8170   21.3250 C   0  0  0  0  0  2  0  0  0  0  0  0
  -20.0540  -26.2800   20.5000 C   0  0  0  0  0  2  0  0  0  0  0  0
  -18.6570  -26.2150   21.0330 C   0  0  0  0  0  2  0  0  0  0  0  0
  -19.7350  -28.3590   22.3730 C   0  0  1  0  0  0  0  0  0  0  0  0
  -19.5920  -29.1710   23.7590 C   0  0  0  0  0  3  0  0  0  0  0  0
  -18.3150  -29.0050   24.6280 C   0  0  0  0  0  3  0  0  0  0  0  0
  -17.1350  -28.0680   24.1980 C   0  0  0  0  0  3  0  0  0  0  0  0
  -17.1780  -27.2100   22.8630 C   0  0  0  0  0  3  0  0  0  0  0  0
  -25.9760  -32.3000   23.7070 C   0  0  0  0  0  3  0  0  0  0  0  0
  -26.4490  -31.4520   24.9510 C   0  0  1  0  0  0  0  0  0  0  0  0
  -25.3290  -31.1750   25.9820 C   0  0  0  0  0  1  0  0  0  0  0  0
  -27.0190  -30.0870   24.4990 C   0  0  0  0  0  1  0  0  0  0  0  0
  -27.5960  -32.1940   25.6730 C   0  0  0  0  0  1  0  0  0  0  0  0
  -25.6630  -33.6770   24.0970 N   0  0  0  0  0  0  0  0  0  0  0  0
  -25.9980  -34.7570   23.3800 C   0  0  0  0  0  0  0  0  0  0  0  0
  -26.6770  -34.6890   22.3500 O   0  0  0  0  0  0  0  0  0  0  0  0
  -25.0690  -33.7970   24.9060 H   0  0  0  0  0  0  0  0  0  0  0  0
  -24.2770  -36.5580   23.0730 C   0  0  0  0  0  1  0  0  0  0  0  0
  -25.5060  -36.1240   23.8840 C   0  0  0  0  0  3  0  0  0  0  0  0
  -27.6400  -36.9600   24.7630 C   0  0  0  0  0  1  0  0  0  0  0  0
  -26.5430  -37.1760   23.8270 N   0  0  0  0  0  0  0  0  0  0  0  0
  -26.1440  -38.0950   24.0110 H   0  0  0  0  0  0  0  0  0  0  0  0
  -16.9440  -23.9310   17.5310 C   0  0  0  0  0  2  0  0  0  0  0  0
  -16.4890  -25.4060   17.4410 C   0  0  0  0  0  2  0  0  0  0  0  0
  -15.9670  -25.9940   18.7710 C   0  0  0  0  0  2  0  0  0  0  0  0
  -16.0780  -27.4820   18.7800 N   0  0  0  0  0  4  0  0  0  0  0  0
  -15.4210  -27.8520   18.1070 H   0  0  0  0  0  0  0  0  0  0  0  0
  -16.9990  -27.7120   18.4450 H   0  0  0  0  0  0  0  0  0  0  0  0
  -15.8750  -28.1700   20.0880 C   0  0  0  0  0  2  0  0  0  0  0  0
  -16.9040  -29.3230   20.3220 C   0  0  0  0  0  2  0  0  0  0  0  0
  -16.9670  -29.7550   21.6950 O   0  0  0  0  0  0  0  0  0  0  0  0
  -18.2970  -29.8760   22.3450 C   0  0  0  0  0  1  0  0  0  0  0  0
  -20.0100  -27.1950   23.7390 C   0  0  0  0  0  1  0  0  0  0  0  0
  -21.2530  -25.6460   23.0350 O   0  0  0  0  0 15  0  0  0  0  0  0
  -22.8040  -24.2400   22.9810 C   0  0  0  0  0 15  0  0  0  0  0  0
  -24.1270  -22.5690   22.0050 C   0  0  0  0  0 15  0  0  0  0  0  0
  -25.8020  -20.9380   21.9130 C   0  0  0  0  0 15  0  0  0  0  0  0
  -27.0970  -19.3210   20.8550 C   0  0  0  0  0 15  0  0  0  0  0  0
  -29.7230  -16.6040   20.2420 C   0  0  0  0  0  0  0  0  0  0  0  0
  -30.8900  -14.1450   19.2270 C   0  0  0  0  0  2  0  0  0  0  0  0
  -30.2460  -13.3870   17.9960 C   0  0  0  0  0  2  0  0  0  0  0  0
  -28.8980  -12.7450   18.3630 C   0  0  0  0  0  2  0  0  0  0  0  0
  -28.2280  -13.6960   19.3640 C   0  0  0  0  0  3  0  0  0  0  0  0
  -29.0730  -14.0480   20.5810 C   0  0  0  0  0  2  0  0  0  0  0  0
  -29.8920  -15.0990   20.0460 N   0  0  0  0  0  0  0  0  0  0  0  0
  -30.9340  -16.8670   19.8920 O   0  0  0  0  0  0  0  0  0  0  0  0
  -28.3570  -17.6480   20.6780 N   0  0  0  0  0  2  0  0  0  0  0  0
  -27.6500  -16.9160   20.7070 H   0  0  0  0  0  0  0  0  0  0  0  0
  -25.9670  -14.2110   20.1870 C   0  0  0  0  0  0  0  0  0  0  0  0
  -24.9620  -13.4150   20.6310 C   0  0  0  0  0  0  0  0  0  0  0  0
  -25.4680  -12.0770   20.5920 C   0  0  0  0  0  0  0  0  0  0  0  0
  -26.9670  -13.3290   19.8530 N   0  0  0  0  0  0  0  0  0  0  0  0
  -26.7190  -12.0500   20.1800 N   0  0  0  0  0  0  0  0  0  0  0  0
  -24.8080  -10.8020   20.8390 C   0  0  0  0  0  0  0  0  0  0  0  0
  -25.3580   -9.8420   21.7150 C   0  0  0  0  0  3  0  0  0  0  0  0
  -24.6820   -8.6280   21.9450 C   0  0  0  0  0  3  0  0  0  0  0  0
  -23.4520   -8.3730   21.2950 C   0  0  0  0  0  0  0  0  0  0  0  0
  -22.9290   -9.3230   20.4030 C   0  0  0  0  0  3  0  0  0  0  0  0
  -23.6020  -10.5280   20.1700 C   0  0  0  0  0  3  0  0  0  0  0  0
  -22.7320   -7.2150   21.4400 O   0  0  0  0  0  0  0  0  0  0  0  0
  -22.8370   -6.4450   22.5690 C   0  0  0  0  0  0  0  0  0  0  0  0
  -22.6060   -6.9710   23.8590 C   0  0  0  0  0  3  0  0  0  0  0  0
  -22.6570   -6.1230   24.9820 C   0  0  0  0  0  3  0  0  0  0  0  0
  -22.9290   -4.7520   24.8180 C   0  0  0  0  0  0  0  0  0  0  0  0
  -23.1540   -4.2260   23.5340 C   0  0  0  0  0  3  0  0  0  0  0  0
  -23.1020   -5.0710   22.4120 C   0  0  0  0  0  0  0  0  0  0  0  0
  -23.3000   -4.5590   21.1730 F   0  0  0  0  0  0  0  0  0  0  0  0
  -22.9670   -3.9340   25.8950 F   0  0  0  0  0  0  0  0  0  0  0  0
  -23.5810  -13.8700   20.9660 C   0  0  0  0  0  0  0  0  0  0  0  0
  -22.9280  -13.1780   21.8870 N   0  0  0  0  0  0  0  0  0  0  0  0
  -23.0980  -14.8760   20.4450 O   0  0  0  0  0  0  0  0  0  0  0  0
  -23.3480  -12.3660   22.3180 H   0  0  0  0  0  0  0  0  0  0  0  0
  -21.9950  -13.4490   22.1650 H   0  0  0  0  0  0  0  0  0  0  0  0
  -26.1130  -15.5910   20.0100 N   0  0  0  0  0  0  0  0  0  0  0  0
  -25.2820  -16.1670   20.0930 H   0  0  0  0  0  0  0  0  0  0  0  0
  -26.7890  -15.9800   19.3730 H   0  0  0  0  0  0  0  0  0  0  0  0
  1  2  2  0
  1  4  1  0
  3  4  2  0
  3  5  1  0
  6  5  2  0
  6  7  1  0
  7  9  2  0
  8 11  1  0
  8  7  1  0
 10  8  1  0
 11 12  1  0
 12 13  1  0
 13 14  1  0
 14 15  1  0
 16 18  1  0
 16 15  1  0
 17 28  2  0
 18 23  1  0
 19 27  1  0
 19 29  1  0
 20 22  1  0
 21 27  1  0
 22 23  2  0
 22 21  1  0
 24 18  2  0
 25 24  1  0
 25 20  2  0
 26 20  1  0
 26 19  1  0
 27 17  1  0
 29 31  2  0
 30 29  1  0
 32 30  1  0
 33 37  1  0
 33 38  1  0
 33 42  1  0
 34 30  1  0
 34 38  1  0
 35 34  1  0
 36 37  1  0
 36 35  1  0
 38 67  1  1
 38 39  1  0
 39 40  2  0
 41 40  1  0
 42 41  2  0
 43 17  1  0
 43 48  1  0
 43 44  1  0
 44 47  1  1
 44 45  1  0
 46 44  1  0
 48 51  1  0
 49 53  1  0
 49 48  1  0
 50 49  2  0
 53 52  1  0
 55 53  1  0
 55 56  1  0
 55 54  1  0
 57  2  1  0
 58 57  1  0
 58 59  1  0
 59 60  1  0
 60 63  1  0
 61 60  1  0
 62 60  1  0
 63 64  1  0
 64 65  1  0
 65 66  1  0
 73 81  1  0
 74 79  1  0
 75 76  1  0
 75 74  1  0
 77 76  1  0
 77 86  1  0
 77 78  1  0
 79 73  1  0
 79 78  1  0
 80 73  2  0
 81 82  1  0
 83 84  2  0
 84103  1  0
 85 84  1  0
 85 88  1  0
 86 87  1  0
 86 83  1  0
 87 85  2  0
 88 89  1  0
 89 90  2  0
 91 94  1  0
 91 90  1  0
 92 91  2  0
 93 92  1  0
 93 88  2  0
 94 95  1  0
 95 96  1  0
 96 97  2  0
 98 97  1  0
 98102  1  0
 99 98  2  0
100 95  2  0
100 99  1  0
101100  1  0
103104  1  0
104107  1  0
104106  1  0
105103  2  0
108109  1  0
108 83  1  0
110108  1  0
M  ISO  4  15 101  16 101  73 100  81 100
M  END
>  <TORSDO>  (77) 
F 38

>  <SCORE>  (77) 
11.152

>  <name>  (77) 
84

>  <ligand_id>  (77) 
84

>  <original_smiles>  (77) 
[H]C(=NC([H])([H])C([H])([H])C([H])([H])[N+]([H])([H])C([H])([H])C([H])([H])OC([H])([H])C([H])([H])OC([H])([H])C([H])([H])C([H])([H])C([H])([H])N([H])C(=O)N1C([H])([H])C([H])([H])C([H])([H])C([H])(n2nc(-c3c([H])c([H])c(Oc4c([H])c([H])c(F)c([H])c4F)c([H])c3[H])c(C(=O)N([H])[H])c2N([H])[H])C1([H])[H])C([H])=C([H])C([H])=C([H])C(=O)N([H])C([H])([H])C([H])([H])OC([H])([H])C([H])([H])Oc1c([H])c([H])c2c(c1[H])C([H])([H])N(C(=O)C([H])(N([H])C(=O)C([H])(N([H])C([H])([H])[H])C([H])([H])[H])C(C([H])([H])[H])(C([H])([H])[H])C([H])([H])[H])C([H])(C(=O)N([H])C1([H])c3c([H])c([H])c([H])c([H])c3C([H])([H])C([H])([H])C1([H])[H])C2([H])[H]

>  <smiles>  (77) 
[H]C(=NC([H])([H])C([H])([H])C([H])([H])[N+]([H])([H])C([H])([H])C([H])([H])OC([H])([H])C([H])([H])OC([H])([H])C([H])([H])C([H])([H])C([H])([H])N([H])C(=O)N1C([H])([H])C([H])([H])C([H])([H])C([H])(n2nc(-c3c([H])c([H])c(Oc4c([H])c([H])c(F)c([H])c4F)c([H])c3[H])c(C(=O)N([H])[H])c2N([H])[H])C1([H])[H])C([H])=C([H])C([H])=C([H])C(=O)N([H])C([H])([H])C([H])([H])OC([H])([H])C([H])([H])Oc1c([H])c([H])c2c(c1[H])C([H])([H])N(C(=O)C([H])(N([H])C(=O)C([H])(N([H])C([H])([H])[H])C([H])([H])[H])C(C([H])([H])[H])(C([H])([H])[H])C([H])([H])[H])C([H])(C(=O)N([H])C1([H])c3c([H])c([H])c([H])c([H])c3C([H])([H])C([H])([H])C1([H])[H])C2([H])[H]

$$$$
85:0:0
     RDKit          3D

 97104  0  0  1  0  0  0  0  0999 V2000
  -30.1550  -21.9480   23.3690 C   0  0  0  0  0  0  0  0  0  0  0  0
  -29.0770  -22.0900   22.5980 N   0  0  0  0  0  0  0  0  0  0  0  0
  -30.7840  -22.9080   23.8170 O   0  0  0  0  0  0  0  0  0  0  0  0
  -28.6150  -21.2510   22.2690 H   0  0  0  0  0  0  0  0  0  0  0  0
  -31.7070  -20.1240   23.0670 C   0  0  0  0  0  3  0  0  0  0  0  0
  -30.5150  -20.5570   23.5170 C   0  0  0  0  0  3  0  0  0  0  0  0
  -32.0180  -18.7200   23.1390 C   0  0  0  0  0  0  0  0  0  0  0  0
  -32.6140  -18.3190   22.0130 N   0  0  0  0  0  0  0  0  0  0  0  0
  -31.7190  -17.9620   24.0640 O   0  0  0  0  0  0  0  0  0  0  0  0
  -32.8360  -19.0350   21.3330 H   0  0  0  0  0  0  0  0  0  0  0  0
  -32.8400  -16.9340   21.6180 C   0  0  0  0  0  2  0  0  0  0  0  0
  -31.5230  -16.1940   21.3140 C   0  0  0  0  0  2  0  0  0  0  0  0
  -30.9250  -16.4820   19.9200 C   0  0  0  0  0  2  0  0  0  0  0  0
  -30.1160  -14.6420   18.4310 C   0  0  0  0  0  0  0  0  0  0  0  0
  -29.9060  -12.3000   17.6850 C   0  0  0  0  0  2  0  0  0  0  0  0
  -28.6970  -12.0220   16.7800 C   0  0  0  0  0  2  0  0  0  0  0  0
  -27.4420  -11.7360   17.6230 C   0  0  0  0  0  2  0  0  0  0  0  0
  -27.2010  -12.8120   18.7120 C   0  0  0  0  0  3  0  0  0  0  0  0
  -28.4860  -13.0670   19.5230 C   0  0  0  0  0  2  0  0  0  0  0  0
  -29.5760  -13.4110   18.5880 N   0  0  0  0  0  0  0  0  0  0  0  0
  -30.7700  -14.9920   17.4440 O   0  0  0  0  0  0  0  0  0  0  0  0
  -30.0580  -15.3730   19.5480 N   0  0  0  0  0  0  0  0  0  0  0  0
  -29.4960  -14.9740   20.2850 H   0  0  0  0  0  0  0  0  0  0  0  0
  -25.2560  -13.2620   20.3400 C   0  0  0  0  0  0  0  0  0  0  0  0
  -24.3280  -12.4300   20.9080 C   0  0  0  0  0  0  0  0  0  0  0  0
  -24.6430  -11.1160   20.4460 C   0  0  0  0  0  0  0  0  0  0  0  0
  -26.0830  -12.4480   19.5800 N   0  0  0  0  0  0  0  0  0  0  0  0
  -25.7350  -11.1410   19.6930 N   0  0  0  0  0  0  0  0  0  0  0  0
  -23.9350   -9.8430   20.6310 C   0  0  0  0  0  0  0  0  0  0  0  0
  -24.3960   -8.8660   21.5420 C   0  0  0  0  0  3  0  0  0  0  0  0
  -23.6890   -7.6580   21.7150 C   0  0  0  0  0  3  0  0  0  0  0  0
  -22.5050   -7.4160   20.9760 C   0  0  0  0  0  0  0  0  0  0  0  0
  -22.0630   -8.3810   20.0550 C   0  0  0  0  0  3  0  0  0  0  0  0
  -22.7720   -9.5820   19.8810 C   0  0  0  0  0  3  0  0  0  0  0  0
  -21.7670   -6.2600   21.0600 O   0  0  0  0  0  0  0  0  0  0  0  0
  -21.5090   -5.6570   22.2640 C   0  0  0  0  0  0  0  0  0  0  0  0
  -20.7880   -6.3110   23.2880 C   0  0  0  0  0  3  0  0  0  0  0  0
  -20.4850   -5.6290   24.4830 C   0  0  0  0  0  3  0  0  0  0  0  0
  -20.8910   -4.2910   24.6530 C   0  0  0  0  0  0  0  0  0  0  0  0
  -21.6030   -3.6360   23.6330 C   0  0  0  0  0  3  0  0  0  0  0  0
  -21.9080   -4.3160   22.4410 C   0  0  0  0  0  0  0  0  0  0  0  0
  -22.5760   -3.6730   21.4530 F   0  0  0  0  0  0  0  0  0  0  0  0
  -20.5930   -3.6330   25.7970 F   0  0  0  0  0  0  0  0  0  0  0  0
  -23.1570  -12.8410   21.7530 C   0  0  0  0  0  0  0  0  0  0  0  0
  -22.7250  -11.9760   22.6650 N   0  0  0  0  0  0  0  0  0  0  0  0
  -22.6460  -13.9540   21.6410 O   0  0  0  0  0  0  0  0  0  0  0  0
  -23.1570  -11.0700   22.7700 H   0  0  0  0  0  0  0  0  0  0  0  0
  -21.9530  -12.2240   23.2670 H   0  0  0  0  0  0  0  0  0  0  0  0
  -25.4550  -14.6390   20.3910 N   0  0  0  0  0  0  0  0  0  0  0  0
  -24.8340  -15.2600   20.8970 H   0  0  0  0  0  0  0  0  0  0  0  0
  -26.1810  -15.1310   19.8830 H   0  0  0  0  0  0  0  0  0  0  0  0
  -28.6560  -23.3590   22.0260 C   0  0  0  0  0  2  0  0  0  0  0  0
  -27.6330  -23.1540   20.8950 C   0  0  0  0  0  2  0  0  0  0  0  0
  -27.9860  -23.9430   19.7660 O   0  0  0  0  0  0  0  0  0  0  0  0
  -27.7290  -25.3300   19.9350 C   0  0  0  0  0  2  0  0  0  0  0  0
  -28.3030  -26.1030   18.7330 C   0  0  0  0  0  2  0  0  0  0  0  0
  -28.3030  -27.5090   18.9770 O   0  0  0  0  0  0  0  0  0  0  0  0
  -24.6680  -31.8160   23.2890 C   0  0  0  0  0  0  0  0  0  0  0  0
  -27.1020  -28.1480   19.1960 C   0  0  0  0  0  0  0  0  0  0  0  0
  -23.3490  -30.7450   21.4920 C   0  0  0  0  0  3  0  0  0  0  0  0
  -24.6980  -29.5480   19.6930 C   0  0  0  0  0  0  0  0  0  0  0  0
  -25.8490  -31.1890   21.1880 C   0  0  0  0  0  2  0  0  0  0  0  0
  -25.8910  -29.9760   20.2840 C   0  0  0  0  0  0  0  0  0  0  0  0
  -27.0940  -29.2840   20.0330 C   0  0  0  0  0  3  0  0  0  0  0  0
  -25.8830  -27.7270   18.6070 C   0  0  0  0  0  3  0  0  0  0  0  0
  -24.6860  -28.4220   18.8530 C   0  0  0  0  0  3  0  0  0  0  0  0
  -23.4580  -30.3560   19.9930 C   0  0  0  0  0  2  0  0  0  0  0  0
  -24.6440  -31.2520   22.0490 N   0  0  0  0  0  0  0  0  0  0  0  0
  -23.6290  -31.9540   23.9500 O   0  0  0  0  0  0  0  0  0  0  0  0
  -22.7790  -29.5400   22.2730 C   0  0  0  0  0  0  0  0  0  0  0  0
  -21.4820  -29.2550   22.0700 N   0  0  0  0  0  0  0  0  0  0  0  0
  -23.4980  -28.8710   23.0180 O   0  0  0  0  0  0  0  0  0  0  0  0
  -20.9560  -29.8570   21.4510 H   0  0  0  0  0  0  0  0  0  0  0  0
  -18.2760  -27.5930   22.1320 C   0  0  0  0  0  0  0  0  0  0  0  0
  -20.7430  -28.1460   22.6700 C   0  0  0  0  0  3  0  0  0  0  0  0
  -21.0880  -26.8080   21.9760 C   0  0  0  0  0  2  0  0  0  0  0  0
  -20.1270  -26.4530   20.8370 C   0  0  0  0  0  2  0  0  0  0  0  0
  -18.6910  -26.3540   21.3570 C   0  0  0  0  0  2  0  0  0  0  0  0
  -19.2410  -28.4420   22.7360 C   0  0  0  0  0  0  0  0  0  0  0  0
  -18.8030  -29.6000   23.4160 C   0  0  0  0  0  3  0  0  0  0  0  0
  -17.4330  -29.9110   23.5000 C   0  0  0  0  0  3  0  0  0  0  0  0
  -16.4830  -29.0600   22.9110 C   0  0  0  0  0  3  0  0  0  0  0  0
  -16.9040  -27.9020   22.2350 C   0  0  0  0  0  3  0  0  0  0  0  0
  -25.9940  -32.3360   23.9250 C   0  0  0  0  0  3  0  0  0  0  0  0
  -26.4370  -31.5180   25.1990 C   0  0  1  0  0  0  0  0  0  0  0  0
  -25.3060  -31.3200   26.2340 C   0  0  0  0  0  1  0  0  0  0  0  0
  -26.9580  -30.1180   24.7980 C   0  0  0  0  0  1  0  0  0  0  0  0
  -27.6080  -32.2400   25.9060 C   0  0  0  0  0  1  0  0  0  0  0  0
  -25.7980  -33.7530   24.2590 N   0  0  0  0  0  0  0  0  0  0  0  0
  -26.2630  -34.7780   23.5330 C   0  0  0  0  0  0  0  0  0  0  0  0
  -26.9750  -34.6240   22.5370 O   0  0  0  0  0  0  0  0  0  0  0  0
  -25.1770  -33.9530   25.0310 H   0  0  0  0  0  0  0  0  0  0  0  0
  -24.7440  -36.7340   23.0920 C   0  0  0  0  0  1  0  0  0  0  0  0
  -25.8760  -36.2000   23.9840 C   0  0  0  0  0  3  0  0  0  0  0  0
  -28.0190  -36.8580   24.9840 C   0  0  0  0  0  1  0  0  0  0  0  0
  -27.0090  -37.1500   23.9690 N   0  0  0  0  0  0  0  0  0  0  0  0
  -26.6820  -38.1020   24.1120 H   0  0  0  0  0  0  0  0  0  0  0  0
  1  6  1  0
  1  3  2  0
  2  1  1  0
  4  2  1  0
  5  7  1  0
  5  6  2  0
  7  9  2  0
  8  7  1  0
 10  8  1  0
 11  8  1  0
 12 11  1  0
 13 12  1  0
 14 20  1  0
 14 22  1  0
 15 20  1  0
 16 17  1  0
 16 15  1  0
 18 17  1  0
 18 19  1  0
 18 27  1  0
 20 19  1  0
 21 14  2  0
 22 13  1  0
 22 23  1  0
 24 49  1  0
 24 25  2  0
 25 44  1  0
 26 29  1  0
 26 25  1  0
 27 28  1  0
 27 24  1  0
 28 26  2  0
 29 30  1  0
 30 31  2  0
 32 35  1  0
 32 31  1  0
 33 32  2  0
 34 33  1  0
 34 29  2  0
 35 36  1  0
 36 41  2  0
 36 37  1  0
 37 38  2  0
 38 39  1  0
 39 43  1  0
 40 39  2  0
 41 40  1  0
 42 41  1  0
 44 45  1  0
 45 47  1  0
 45 48  1  0
 46 44  2  0
 49 50  1  0
 51 49  1  0
 52  2  1  0
 53 52  1  0
 54 55  1  0
 54 53  1  0
 56 57  1  0
 56 55  1  0
 57 59  1  0
 58 69  2  0
 59 64  1  0
 60 68  1  0
 60 70  1  0
 61 67  1  0
 61 63  1  0
 62 68  1  0
 63 62  1  0
 64 63  2  0
 65 66  1  0
 65 59  2  0
 66 61  2  0
 67 60  1  0
 68 58  1  0
 70 72  2  0
 71 70  1  0
 73 71  1  0
 74 83  2  0
 74 79  1  0
 75 71  1  0
 75 79  1  0
 76 75  1  0
 77 78  1  0
 77 76  1  0
 78 74  1  0
 79 80  2  0
 80 81  1  0
 82 81  2  0
 83 82  1  0
 84 58  1  0
 84 89  1  0
 84 85  1  0
 85 88  1  1
 85 86  1  0
 87 85  1  0
 89 92  1  0
 90 94  1  0
 90 89  1  0
 91 90  2  0
 94 93  1  0
 96 94  1  0
 96 97  1  0
 96 95  1  0
M  ISO  4  14 100  22 100  56 101  57 101
M  END
>  <TORSDO>  (78) 
F 26

>  <SCORE>  (78) 
-0.795

>  <name>  (78) 
85

>  <ligand_id>  (78) 
85

>  <original_smiles>  (78) 
[H]C(C(=O)N([H])C([H])([H])C([H])([H])OC([H])([H])C([H])([H])Oc1c([H])c([H])c2c(c1[H])C([H])([H])N(C(=O)C([H])(N([H])C(=O)C([H])(N([H])C([H])([H])[H])C([H])([H])[H])C(C([H])([H])[H])(C([H])([H])[H])C([H])([H])[H])C([H])(C(=O)N([H])C1([H])c3c([H])c([H])c([H])c([H])c3C([H])([H])C([H])([H])C1([H])[H])C2([H])[H])=C([H])C(=O)N([H])C([H])([H])C([H])([H])C([H])([H])N([H])C(=O)N1C([H])([H])C([H])([H])C([H])([H])C([H])(n2nc(-c3c([H])c([H])c(Oc4c([H])c([H])c(F)c([H])c4F)c([H])c3[H])c(C(=O)N([H])[H])c2N([H])[H])C1([H])[H]

>  <smiles>  (78) 
[H]C(C(=O)N([H])C([H])([H])C([H])([H])OC([H])([H])C([H])([H])Oc1c([H])c([H])c2c(c1[H])C([H])([H])N(C(=O)C([H])(N([H])C(=O)C([H])(N([H])C([H])([H])[H])C([H])([H])[H])C(C([H])([H])[H])(C([H])([H])[H])C([H])([H])[H])C([H])(C(=O)N([H])C1([H])c3c([H])c([H])c([H])c([H])c3C([H])([H])C([H])([H])C1([H])[H])C2([H])[H])=C([H])C(=O)N([H])C([H])([H])C([H])([H])C([H])([H])N([H])C(=O)N1C([H])([H])C([H])([H])C([H])([H])C([H])(n2nc(-c3c([H])c([H])c(Oc4c([H])c([H])c(F)c([H])c4F)c([H])c3[H])c(C(=O)N([H])[H])c2N([H])[H])C1([H])[H]

$$$$
86:0:0
     RDKit          3D

108110  0  0  1  0  0  0  0  0999 V2000
  -28.7990  -11.8470   20.1270 C   0  0  0  0  0  1  0  0  0  0  0  0
  -29.4510  -14.6320   20.0120 C   0  0  0  0  0  3  0  0  0  0  0  0
  -29.3850  -13.9480   18.9150 C   0  0  0  0  0  0  0  0  0  0  0  0
  -29.7510  -16.0530   20.0310 C   0  0  0  0  0  0  0  0  0  0  0  0
  -29.4460  -16.1830   17.8580 C   0  0  0  0  0  0  0  0  0  0  0  0
  -29.2360  -13.1570   19.5200 N   0  0  0  0  0  2  0  0  0  0  0  0
  -29.3000  -14.8750   17.7410 N   0  0  0  0  0  4  0  0  0  0  0  0
  -29.8150  -16.7790   18.9360 N   0  0  0  0  0  2  0  0  0  0  0  0
  -29.2400  -11.9950   19.2510 N   0  0  0  0  0  0  0  0  0  0  0  0
  -30.0620  -16.8420   21.1050 N   0  0  0  0  0  0  0  0  0  0  0  0
  -28.9990  -17.0150   16.8460 N   0  0  0  0  0  0  0  0  0  0  0  0
  -30.4830  -17.7430   20.9050 H   0  0  0  0  0  0  0  0  0  0  0  0
  -28.5480  -16.5640   16.0570 H   0  0  0  0  0  0  0  0  0  0  0  0
  -29.0900  -18.4940   16.8460 C   0  0  0  0  0  2  0  0  0  0  0  0
  -28.3980  -19.2380   18.0370 C   0  0  0  0  0  2  0  0  0  0  0  0
  -28.6100  -20.6530   17.9540 O   0  0  0  0  0  0  0  0  0  0  0  0
  -28.3080  -21.3880   19.1560 C   0  0  0  0  0  2  0  0  0  0  0  0
  -28.6610  -22.8880   18.9720 C   0  0  0  0  0  2  0  0  0  0  0  0
  -28.7890  -23.5910   20.2150 O   0  0  0  0  0  0  0  0  0  0  0  0
  -29.0810  -24.9880   20.0550 C   0  0  0  0  0  2  0  0  0  0  0  0
  -29.6810  -25.5780   21.3530 C   0  0  0  0  0  2  0  0  0  0  0  0
  -29.6160  -27.0170   21.4440 O   0  0  0  0  0  0  0  0  0  0  0  0
  -28.3660  -31.8390   26.5580 C   0  0  0  0  0  0  0  0  0  0  0  0
  -28.7010  -27.5550   22.3260 C   0  0  0  0  0  0  0  0  0  0  0  0
  -26.6190  -30.1230   26.2340 C   0  0  0  0  0  3  0  0  0  0  0  0
  -26.8450  -28.6890   24.1380 C   0  0  0  0  0  0  0  0  0  0  0  0
  -28.1370  -30.8230   24.2940 C   0  0  0  0  0  2  0  0  0  0  0  0
  -27.9630  -29.4260   23.7340 C   0  0  0  0  0  0  0  0  0  0  0  0
  -28.8910  -28.8670   22.8240 C   0  0  0  0  0  3  0  0  0  0  0  0
  -27.5580  -26.8320   22.7410 C   0  0  0  0  0  3  0  0  0  0  0  0
  -26.6360  -27.3920   23.6420 C   0  0  0  0  0  3  0  0  0  0  0  0
  -25.8900  -29.3500   25.1050 C   0  0  0  0  0  2  0  0  0  0  0  0
  -27.7580  -30.9530   25.7220 N   0  0  0  0  0  0  0  0  0  0  0  0
  -27.9750  -32.0000   27.7220 O   0  0  0  0  0  0  0  0  0  0  0  0
  -27.0400  -29.1130   27.3250 C   0  0  0  0  0  0  0  0  0  0  0  0
  -26.1100  -28.7960   28.2390 N   0  0  0  0  0  0  0  0  0  0  0  0
  -28.1690  -28.6120   27.3210 O   0  0  0  0  0  0  0  0  0  0  0  0
  -25.2090  -29.2500   28.1750 H   0  0  0  0  0  0  0  0  0  0  0  0
  -24.4760  -27.3860   31.1360 C   0  0  0  0  0  0  0  0  0  0  0  0
  -26.2730  -27.8440   29.3360 C   0  0  0  0  0  3  0  0  0  0  0  0
  -26.0180  -26.3970   28.8560 C   0  0  0  0  0  2  0  0  0  0  0  0
  -24.5700  -25.9410   29.0570 C   0  0  0  0  0  2  0  0  0  0  0  0
  -24.1840  -26.0190   30.5370 C   0  0  0  0  0  2  0  0  0  0  0  0
  -25.4470  -28.2490   30.5610 C   0  0  0  0  0  0  0  0  0  0  0  0
  -25.6570  -29.5220   31.1350 C   0  0  0  0  0  3  0  0  0  0  0  0
  -24.9200  -29.9350   32.2610 C   0  0  0  0  0  3  0  0  0  0  0  0
  -23.9720  -29.0710   32.8340 C   0  0  0  0  0  3  0  0  0  0  0  0
  -23.7540  -27.8000   32.2740 C   0  0  0  0  0  3  0  0  0  0  0  0
  -29.5740  -32.7100   26.0860 C   0  0  0  0  0  3  0  0  0  0  0  0
  -29.3870  -34.0590   26.6370 N   0  0  0  0  0  0  0  0  0  0  0  0
  -28.8800  -35.0940   25.9530 C   0  0  0  0  0  0  0  0  0  0  0  0
  -28.5890  -35.0280   24.7550 O   0  0  0  0  0  0  0  0  0  0  0  0
  -29.5560  -34.1730   27.6270 H   0  0  0  0  0  0  0  0  0  0  0  0
  -27.1870  -36.5450   27.1140 C   0  0  0  0  0  1  0  0  0  0  0  0
  -28.6660  -36.4140   26.7180 C   0  0  0  0  0  3  0  0  0  0  0  0
  -30.5330  -37.6910   25.7600 C   0  0  0  0  0  1  0  0  0  0  0  0
  -29.0870  -37.6100   25.9550 N   0  0  0  0  0  0  0  0  0  0  0  0
  -28.7820  -38.4600   26.4220 H   0  0  0  0  0  0  0  0  0  0  0  0
  -30.9730  -32.1200   26.5160 C   0  0  1  0  0  0  0  0  0  0  0  0
  -31.0680  -31.7830   28.0210 C   0  0  0  0  0  1  0  0  0  0  0  0
  -31.2900  -30.8310   25.7250 C   0  0  0  0  0  1  0  0  0  0  0  0
  -32.0930  -33.1300   26.1690 C   0  0  0  0  0  1  0  0  0  0  0  0
  -30.2060  -16.5100   22.5320 C   0  0  0  0  0  2  0  0  0  0  0  0
  -31.5250  -15.8080   22.9210 C   0  0  0  0  0  2  0  0  0  0  0  0
  -31.7780  -13.9430   21.4090 C   0  0  0  0  0  0  0  0  0  0  0  0
  -31.6520  -12.5470   19.0080 C   0  0  0  0  0 15  0  0  0  0  0  0
  -30.0930  -12.4750   17.0890 C   0  0  0  0  0 15  0  0  0  0  0  0
  -27.7740  -12.8750   17.7980 C   0  0  0  0  0 15  0  0  0  0  0  0
  -27.3450  -13.5640   20.0170 C   0  0  0  0  0  1  0  0  0  0  0  0
  -29.0420  -13.3260   21.7260 C   0  0  0  0  0 15  0  0  0  0  0  0
  -31.0200  -12.9140   21.0100 N   0  0  0  0  0  1  0  0  0  0  0  0
  -32.5050  -14.5620   20.6310 O   0  0  0  0  0  0  0  0  0  0  0  0
  -31.4710  -14.3910   22.6200 N   0  0  0  0  0  0  0  0  0  0  0  0
  -30.8080  -13.8390   23.1450 H   0  0  0  0  0  0  0  0  0  0  0  0
  -25.2440  -14.0500   20.8650 C   0  0  0  0  0  0  0  0  0  0  0  0
  -24.1980  -13.2370   21.0710 C   0  0  0  0  0  0  0  0  0  0  0  0
  -24.6490  -11.8930   20.8520 C   0  0  0  0  0  0  0  0  0  0  0  0
  -26.1820  -13.1680   20.4850 N   0  0  0  0  0  0  0  0  0  0  0  0
  -25.9210  -11.8630   20.5360 N   0  0  0  0  0  0  0  0  0  0  0  0
  -23.9270  -10.6390   20.8370 C   0  0  0  0  0  0  0  0  0  0  0  0
  -24.3460   -9.5360   21.6080 C   0  0  0  0  0  3  0  0  0  0  0  0
  -23.5780   -8.3550   21.6150 C   0  0  0  0  0  3  0  0  0  0  0  0
  -22.3940   -8.2870   20.8420 C   0  0  0  0  0  0  0  0  0  0  0  0
  -22.0160   -9.3770   20.0390 C   0  0  0  0  0  3  0  0  0  0  0  0
  -22.7830  -10.5460   20.0290 C   0  0  0  0  0  3  0  0  0  0  0  0
  -21.5810   -7.1840   20.7760 O   0  0  0  0  0  0  0  0  0  0  0  0
  -21.5130   -6.2920   21.8090 C   0  0  0  0  0  0  0  0  0  0  0  0
  -21.1780   -6.6930   23.1210 C   0  0  0  0  0  3  0  0  0  0  0  0
  -21.0490   -5.7280   24.1380 C   0  0  0  0  0  3  0  0  0  0  0  0
  -21.2440   -4.3650   23.8420 C   0  0  0  0  0  0  0  0  0  0  0  0
  -21.5690   -3.9650   22.5330 C   0  0  0  0  0  3  0  0  0  0  0  0
  -21.7040   -4.9290   21.5200 C   0  0  0  0  0  0  0  0  0  0  0  0
  -22.0040   -4.5420   20.2570 F   0  0  0  0  0  0  0  0  0  0  0  0
  -21.1080   -3.4340   24.8150 F   0  0  0  0  0  0  0  0  0  0  0  0
  -22.8410  -13.7410   21.3450 C   0  0  0  0  0  0  0  0  0  0  0  0
  -22.0720  -12.9890   22.1070 N   0  0  0  0  0  0  0  0  0  0  0  0
  -22.4870  -14.8450   20.9260 O   0  0  0  0  0  0  0  0  0  0  0  0
  -22.4020  -12.1080   22.4690 H   0  0  0  0  0  0  0  0  0  0  0  0
  -21.1480  -13.3100   22.3600 H   0  0  0  0  0  0  0  0  0  0  0  0
  -25.4660  -15.4320   20.9090 N   0  0  0  0  0  0  0  0  0  0  0  0
  -24.7090  -16.0780   21.1030 H   0  0  0  0  0  0  0  0  0  0  0  0
  -26.3280  -15.9020   20.6660 H   0  0  0  0  0  0  0  0  0  0  0  0
  -29.5610  -10.5210   18.7600 C   0  0  0  0  0  2  0  0  0  0  0  0
  -28.3600   -9.5510   18.5300 C   0  0  0  0  0  2  0  0  0  0  0  0
  -27.7070   -7.9730   16.7410 C   0  0  0  0  0  1  0  0  0  0  0  0
  -27.9740   -9.3800   17.1140 N   0  0  0  0  0  4  0  0  0  0  0  0
  -27.1370   -9.9140   16.9450 H   0  0  0  0  0  0  0  0  0  0  0  0
  -28.6920   -9.7370   16.5040 H   0  0  0  0  0  0  0  0  0  0  0  0
  2  4  2  0
  3  6  1  0
  3  2  1  0
  4 10  1  0
  5  8  1  0
  7  5  2  0
  7  3  2  0
  8  4  1  0
  9  6  1  0
  9  1  1  0
 10 63  1  0
 11  5  1  0
 12 10  1  0
 13 11  1  0
 14 11  1  0
 14 15  1  0
 16 15  1  0
 16 17  1  0
 18 17  1  0
 18 19  1  0
 20 19  1  0
 20 21  1  0
 21 22  1  0
 22 24  1  0
 23 34  2  0
 24 30  2  0
 24 29  1  0
 25 35  1  0
 26 32  1  0
 27 33  1  0
 28 26  1  0
 28 27  1  0
 29 28  2  0
 30 31  1  0
 31 26  2  0
 32 25  1  0
 33 25  1  0
 33 23  1  0
 35 36  1  0
 37 35  2  0
 38 36  1  0
 39 48  1  0
 40 36  1  0
 40 44  1  0
 41 42  1  0
 41 40  1  0
 42 43  1  0
 43 39  1  0
 44 45  1  0
 44 39  2  0
 45 46  2  0
 46 47  1  0
 48 47  2  0
 49 59  1  0
 49 23  1  0
 49 50  1  0
 50 53  1  0
 51 50  1  0
 51 55  1  0
 52 51  2  0
 55 54  1  0
 56 57  1  0
 57 58  1  0
 57 55  1  0
 59 60  1  1
 61 59  1  0
 62 59  1  0
 63 64  1  0
 65 73  1  0
 69 78  1  0
 71 65  1  0
 72 65  2  0
 73 64  1  0
 73 74  1  0
 75100  1  0
 75 76  2  0
 76 95  1  0
 77 76  1  0
 78 79  1  0
 78 75  1  0
 79 77  2  0
 80 77  1  0
 80 81  1  0
 81 82  2  0
 83 82  1  0
 84 83  2  0
 85 84  1  0
 85 80  2  0
 86 83  1  0
 86 87  1  0
 87 88  1  0
 88 89  2  0
 90 89  1  0
 90 94  1  0
 91 90  2  0
 92 87  2  0
 92 91  1  0
 93 92  1  0
 95 96  1  0
 96 99  1  0
 96 98  1  0
 97 95  2  0
100101  1  0
102100  1  0
103  9  1  0
104103  1  0
105106  1  0
106104  1  0
107106  1  0
108106  1  0
M  ISO  4  21 101  22 101  65 100  73 100
M  END
>  <TORSDO>  (79) 
F 29

>  <SCORE>  (79) 
1.528

>  <name>  (79) 
86

>  <ligand_id>  (79) 
86

>  <original_smiles>  (79) 
[H]c1c([H])c([H])c2c(c1[H])C([H])([H])C([H])([H])C([H])([H])C2([H])N([H])C(=O)C1([H])N(C(=O)C([H])(N([H])C(=O)C([H])(N([H])C([H])([H])[H])C([H])([H])[H])C(C([H])([H])[H])(C([H])([H])[H])C([H])([H])[H])C([H])([H])c2c([H])c(OC([H])([H])C([H])([H])OC([H])([H])C([H])([H])OC([H])([H])C([H])([H])N([H])c3nc(N([H])C([H])([H])C([H])([H])N([H])C(=O)N4C([H])([H])C([H])([H])C([H])([H])C([H])(n5nc(-c6c([H])c([H])c(Oc7c([H])c([H])c(F)c([H])c7F)c([H])c6[H])c(C(=O)N([H])[H])c5N([H])[H])C4([H])[H])c4nc([H])n(C([H])([H])C([H])([H])[N+]([H])([H])C([H])([H])[H])c4n3)c([H])c([H])c2C1([H])[H]

>  <smiles>  (79) 
[H]c1c([H])c([H])c2c(c1[H])C([H])([H])C([H])([H])C([H])([H])C2([H])N([H])C(=O)C1([H])N(C(=O)C([H])(N([H])C(=O)C([H])(N([H])C([H])([H])[H])C([H])([H])[H])C(C([H])([H])[H])(C([H])([H])[H])C([H])([H])[H])C([H])([H])c2c([H])c(OC([H])([H])C([H])([H])OC([H])([H])C([H])([H])OC([H])([H])C([H])([H])N([H])c3nc(N([H])C([H])([H])C([H])([H])N([H])C(=O)N4C([H])([H])C([H])([H])C([H])([H])C([H])(n5nc(-c6c([H])c([H])c(Oc7c([H])c([H])c(F)c([H])c7F)c([H])c6[H])c(C(=O)N([H])[H])c5N([H])[H])C4([H])[H])c4nc([H])n(C([H])([H])C([H])([H])[N+]([H])([H])C([H])([H])[H])c4n3)c([H])c([H])c2C1([H])[H]

$$$$
87:0:0
     RDKit          3D

109116  0  0  1  0  0  0  0  0999 V2000
  -20.4520  -20.7180   21.1600 C   0  0  0  0  0  3  0  0  0  0  0  0
  -20.4070  -21.7940   21.8370 N   0  0  0  0  0  0  0  0  0  0  0  0
  -19.3360  -22.7280   21.5200 C   0  0  0  0  0  2  0  0  0  0  0  0
  -19.7740  -23.6770   20.3690 C   0  0  0  0  0  2  0  0  0  0  0  0
  -21.2500  -23.7630   20.2680 N   0  0  0  0  0  4  0  0  0  0  0  0
  -21.5850  -22.8780   19.9120 H   0  0  0  0  0  0  0  0  0  0  0  0
  -21.6340  -23.8430   21.1980 H   0  0  0  0  0  0  0  0  0  0  0  0
  -21.7820  -24.8600   19.4340 C   0  0  0  0  0  2  0  0  0  0  0  0
  -23.2130  -24.5550   18.9610 C   0  0  0  0  0  2  0  0  0  0  0  0
  -25.3000  -23.9850   19.7650 C   0  0  0  0  0  2  0  0  0  0  0  0
  -24.0830  -24.2630   20.0880 N   0  0  0  0  0  2  0  0  0  0  0  0
  -26.3010  -23.7350   20.6770 N   0  0  0  0  0  0  0  0  0  0  0  0
  -26.0080  -23.2150   21.4990 H   0  0  0  0  0  0  0  0  0  0  0  0
  -27.1600  -24.8230   21.1330 C   0  0  0  0  0  2  0  0  0  0  0  0
  -28.0050  -25.5140   20.0250 C   0  0  0  0  0  2  0  0  0  0  0  0
  -28.1370  -26.9250   20.2340 O   0  0  0  0  0  0  0  0  0  0  0  0
  -24.5600  -32.0890   23.5070 C   0  0  0  0  0  0  0  0  0  0  0  0
  -26.9920  -27.6970   20.2040 C   0  0  0  0  0  0  0  0  0  0  0  0
  -23.2900  -30.8440   21.7860 C   0  0  0  0  0  3  0  0  0  0  0  0
  -24.6710  -29.3100   20.2890 C   0  0  0  0  0  0  0  0  0  0  0  0
  -25.8310  -31.0810   21.6150 C   0  0  0  0  0  2  0  0  0  0  0  0
  -25.8500  -29.7450   20.9070 C   0  0  0  0  0  0  0  0  0  0  0  0
  -27.0130  -28.9450   20.8590 C   0  0  0  0  0  3  0  0  0  0  0  0
  -25.8010  -27.2870   19.5620 C   0  0  0  0  0  3  0  0  0  0  0  0
  -24.6400  -28.0780   19.6160 C   0  0  0  0  0  3  0  0  0  0  0  0
  -23.4760  -30.2310   20.3740 C   0  0  0  0  0  2  0  0  0  0  0  0
  -24.5780  -31.3510   22.3600 N   0  0  0  0  0  0  0  0  0  0  0  0
  -23.4910  -32.3880   24.0570 O   0  0  0  0  0  0  0  0  0  0  0  0
  -22.5790  -29.8110   22.6910 C   0  0  0  0  0  0  0  0  0  0  0  0
  -21.2520  -29.6810   22.5260 N   0  0  0  0  0  0  0  0  0  0  0  0
  -23.2190  -29.1330   23.4990 O   0  0  0  0  0  0  0  0  0  0  0  0
  -20.8010  -30.2650   21.8360 H   0  0  0  0  0  0  0  0  0  0  0  0
  -17.8240  -28.6110   22.9190 C   0  0  0  0  0  0  0  0  0  0  0  0
  -20.3830  -28.7650   23.2660 C   0  0  0  0  0  3  0  0  0  0  0  0
  -20.4380  -27.3440   22.6700 C   0  0  0  0  0  2  0  0  0  0  0  0
  -19.3670  -27.1010   21.6060 C   0  0  0  0  0  2  0  0  0  0  0  0
  -17.9690  -27.2800   22.2010 C   0  0  0  0  0  2  0  0  0  0  0  0
  -18.9590  -29.3150   23.3990 C   0  0  0  0  0  0  0  0  0  0  0  0
  -18.7730  -30.5660   24.0250 C   0  0  0  0  0  3  0  0  0  0  0  0
  -17.4870  -31.1120   24.1800 C   0  0  0  0  0  3  0  0  0  0  0  0
  -16.3630  -30.3990   23.7250 C   0  0  0  0  0  3  0  0  0  0  0  0
  -16.5330  -29.1480   23.1030 C   0  0  0  0  0  3  0  0  0  0  0  0
  -25.8740  -32.6160   24.1650 C   0  0  0  0  0  3  0  0  0  0  0  0
  -26.2560  -31.8580   25.4960 C   0  0  1  0  0  0  0  0  0  0  0  0
  -25.1040  -31.7830   26.5240 C   0  0  0  0  0  1  0  0  0  0  0  0
  -26.7050  -30.4100   25.1850 C   0  0  0  0  0  1  0  0  0  0  0  0
  -27.4620  -32.5590   26.1680 C   0  0  0  0  0  1  0  0  0  0  0  0
  -25.6960  -34.0520   24.4190 N   0  0  0  0  0  0  0  0  0  0  0  0
  -26.1450  -35.0260   23.6170 C   0  0  0  0  0  0  0  0  0  0  0  0
  -26.8280  -34.8080   22.6130 O   0  0  0  0  0  0  0  0  0  0  0  0
  -25.1040  -34.3020   25.1960 H   0  0  0  0  0  0  0  0  0  0  0  0
  -24.6020  -36.9530   23.1300 C   0  0  0  0  0  1  0  0  0  0  0  0
  -25.7820  -36.4760   23.9920 C   0  0  0  0  0  3  0  0  0  0  0  0
  -27.9680  -37.2090   24.8370 C   0  0  0  0  0  1  0  0  0  0  0  0
  -26.9110  -37.4220   23.8530 N   0  0  0  0  0  0  0  0  0  0  0  0
  -26.5880  -38.3840   23.9280 H   0  0  0  0  0  0  0  0  0  0  0  0
  -21.6900  -19.8520   21.0890 C   0  0  0  0  0  2  0  0  0  0  0  0
  -22.4710  -20.1600   19.8240 C   0  0  0  0  0  3  0  0  0  0  0  0
  -23.1900  -21.2070   19.6720 N   0  0  0  0  0  0  0  0  0  0  0  0
  -23.8750  -21.3860   18.3970 C   0  0  0  0  0  2  0  0  0  0  0  0
  -25.4010  -21.5030   18.5870 C   0  0  0  0  0  2  0  0  0  0  0  0
  -26.0410  -20.1640   18.9630 C   0  0  0  0  0  2  0  0  0  0  0  0
  -27.4930  -20.2610   19.0330 N   0  0  0  0  0  0  0  0  0  0  0  0
  -27.7470  -21.0900   19.5650 H   0  0  0  0  0  0  0  0  0  0  0  0
  -27.9720  -19.0760   19.7330 C   0  0  0  0  0  2  0  0  0  0  0  0
  -29.5050  -19.0460   19.8370 C   0  0  0  0  0  2  0  0  0  0  0  0
  -29.9160  -17.9770   20.7660 N   0  0  0  0  0  4  0  0  0  0  0  0
  -29.6340  -18.2120   21.7050 H   0  0  0  0  0  0  0  0  0  0  0  0
  -29.4260  -17.1390   20.5050 H   0  0  0  0  0  0  0  0  0  0  0  0
  -31.3510  -17.6370   20.7590 C   0  0  0  0  0  2  0  0  0  0  0  0
  -31.6020  -16.3390   21.5500 C   0  0  0  0  0  2  0  0  0  0  0  0
  -30.8770  -14.5660   19.9520 C   0  0  0  0  0  0  0  0  0  0  0  0
  -30.4810  -12.3620   18.9260 C   0  0  0  0  0  2  0  0  0  0  0  0
  -29.4550  -12.3770   17.7810 C   0  0  0  0  0  2  0  0  0  0  0  0
  -28.0270  -12.2250   18.3320 C   0  0  0  0  0  2  0  0  0  0  0  0
  -27.7290  -13.2250   19.4760 C   0  0  0  0  0  3  0  0  0  0  0  0
  -28.8490  -13.1990   20.5430 C   0  0  0  0  0  2  0  0  0  0  0  0
  -30.1510  -13.4250   19.8840 N   0  0  0  0  0  0  0  0  0  0  0  0
  -31.7190  -14.8990   19.1150 O   0  0  0  0  0  0  0  0  0  0  0  0
  -30.7410  -15.2350   21.1070 N   0  0  0  0  0  0  0  0  0  0  0  0
  -30.1330  -14.8120   21.7940 H   0  0  0  0  0  0  0  0  0  0  0  0
  -25.4490  -13.8780   20.4870 C   0  0  0  0  0  0  0  0  0  0  0  0
  -24.3810  -13.1250   20.8950 C   0  0  0  0  0  0  0  0  0  0  0  0
  -24.7570  -11.7630   20.6900 C   0  0  0  0  0  0  0  0  0  0  0  0
  -26.4140  -12.9740   20.0680 N   0  0  0  0  0  0  0  0  0  0  0  0
  -26.0050  -11.6920   20.2430 N   0  0  0  0  0  0  0  0  0  0  0  0
  -23.9830  -10.5240   20.8390 C   0  0  0  0  0  0  0  0  0  0  0  0
  -24.3240   -9.5520   21.8040 C   0  0  0  0  0  3  0  0  0  0  0  0
  -23.5530   -8.3760   21.9410 C   0  0  0  0  0  3  0  0  0  0  0  0
  -22.4280   -8.1670   21.1100 C   0  0  0  0  0  0  0  0  0  0  0  0
  -22.1060   -9.1260   20.1350 C   0  0  0  0  0  3  0  0  0  0  0  0
  -22.8760  -10.2930   19.9970 C   0  0  0  0  0  3  0  0  0  0  0  0
  -21.6370   -7.0430   21.1520 O   0  0  0  0  0  0  0  0  0  0  0  0
  -21.3270   -6.4270   22.3380 C   0  0  0  0  0  0  0  0  0  0  0  0
  -20.6350   -7.0980   23.3690 C   0  0  0  0  0  3  0  0  0  0  0  0
  -20.2760   -6.4050   24.5420 C   0  0  0  0  0  3  0  0  0  0  0  0
  -20.5990   -5.0430   24.6830 C   0  0  0  0  0  0  0  0  0  0  0  0
  -21.2820   -4.3700   23.6550 C   0  0  0  0  0  3  0  0  0  0  0  0
  -21.6430   -5.0600   22.4840 C   0  0  0  0  0  0  0  0  0  0  0  0
  -22.2830   -4.4030   21.4880 F   0  0  0  0  0  0  0  0  0  0  0  0
  -20.2460   -4.3750   25.8070 F   0  0  0  0  0  0  0  0  0  0  0  0
  -23.0500  -13.6420   21.3590 C   0  0  0  0  0  0  0  0  0  0  0  0
  -22.3670  -12.8920   22.2190 N   0  0  0  0  0  0  0  0  0  0  0  0
  -22.6270  -14.7390   20.9990 O   0  0  0  0  0  0  0  0  0  0  0  0
  -22.7220  -12.0010   22.5310 H   0  0  0  0  0  0  0  0  0  0  0  0
  -21.4770  -13.2150   22.5710 H   0  0  0  0  0  0  0  0  0  0  0  0
  -25.6700  -15.2470   20.4140 N   0  0  0  0  0  0  0  0  0  0  0  0
  -24.9300  -15.9090   20.6140 H   0  0  0  0  0  0  0  0  0  0  0  0
  -26.4670  -15.6610   19.9480 H   0  0  0  0  0  0  0  0  0  0  0  0
  1  2  2  0
  3  2  1  0
  4  3  1  0
  5  4  1  0
  5  7  1  0
  6  5  1  0
  8  5  1  0
  9  8  1  0
  9 11  1  0
 10 11  1  0
 10 12  1  0
 12 14  1  0
 12 13  1  0
 15 16  1  0
 15 14  1  0
 17 28  2  0
 18 16  1  0
 18 23  1  0
 19 27  1  0
 19 29  1  0
 20 26  1  0
 20 22  1  0
 21 27  1  0
 22 21  1  0
 23 22  2  0
 24 25  1  0
 24 18  2  0
 25 20  2  0
 26 19  1  0
 27 17  1  0
 29 31  2  0
 30 29  1  0
 32 30  1  0
 33 42  2  0
 33 38  1  0
 34 30  1  0
 34 38  1  0
 35 34  1  0
 36 37  1  0
 36 35  1  0
 37 33  1  0
 38 39  2  0
 39 40  1  0
 41 40  2  0
 42 41  1  0
 43 17  1  0
 43 48  1  0
 43 44  1  0
 44 47  1  1
 44 45  1  0
 46 44  1  0
 48 51  1  0
 49 53  1  0
 49 48  1  0
 50 49  2  0
 53 52  1  0
 55 56  1  0
 55 53  1  0
 55 54  1  0
 57  1  1  0
 58 57  1  0
 59 58  2  0
 60 61  1  0
 60 59  1  0
 61 62  1  0
 62 63  1  0
 63 64  1  0
 63 65  1  0
 65 66  1  0
 66 67  1  0
 67 68  1  0
 69 67  1  0
 70 67  1  0
 70 71  1  0
 72 80  1  0
 73 78  1  0
 74 75  1  0
 74 73  1  0
 76 75  1  0
 76 85  1  0
 76 77  1  0
 78 72  1  0
 78 77  1  0
 79 72  2  0
 80 71  1  0
 80 81  1  0
 82 83  2  0
 83102  1  0
 84 87  1  0
 84 83  1  0
 85 86  1  0
 85 82  1  0
 86 84  2  0
 87 88  1  0
 88 89  2  0
 90 93  1  0
 90 89  1  0
 91 90  2  0
 92 91  1  0
 92 87  2  0
 93 94  1  0
 94 99  2  0
 94 95  1  0
 95 96  2  0
 96 97  1  0
 97101  1  0
 98 97  2  0
 99 98  1  0
100 99  1  0
102103  1  0
103105  1  0
103106  1  0
104102  2  0
107 82  1  0
107108  1  0
109107  1  0
M  ISO  4  15 101  16 101  72 100  80 100
M  END
>  <TORSDO>  (80) 
F 35

>  <SCORE>  (80) 
5.543

>  <name>  (80) 
87

>  <ligand_id>  (80) 
87

>  <original_smiles>  (80) 
[H]C(=NC([H])([H])C([H])([H])[N+]([H])([H])C([H])([H])C([H])([H])N=C([H])C([H])([H])C([H])=NC([H])([H])C([H])([H])C([H])([H])N([H])C([H])([H])C([H])([H])[N+]([H])([H])C([H])([H])C([H])([H])N([H])C(=O)N1C([H])([H])C([H])([H])C([H])([H])C([H])(n2nc(-c3c([H])c([H])c(Oc4c([H])c([H])c(F)c([H])c4F)c([H])c3[H])c(C(=O)N([H])[H])c2N([H])[H])C1([H])[H])N([H])C([H])([H])C([H])([H])Oc1c([H])c([H])c2c(c1[H])C([H])([H])N(C(=O)C([H])(N([H])C(=O)C([H])(N([H])C([H])([H])[H])C([H])([H])[H])C(C([H])([H])[H])(C([H])([H])[H])C([H])([H])[H])C([H])(C(=O)N([H])C1([H])c3c([H])c([H])c([H])c([H])c3C([H])([H])C([H])([H])C1([H])[H])C2([H])[H]

>  <smiles>  (80) 
[H]C(=NC([H])([H])C([H])([H])[N+]([H])([H])C([H])([H])C([H])([H])N=C([H])C([H])([H])C([H])=NC([H])([H])C([H])([H])C([H])([H])N([H])C([H])([H])C([H])([H])[N+]([H])([H])C([H])([H])C([H])([H])N([H])C(=O)N1C([H])([H])C([H])([H])C([H])([H])C([H])(n2nc(-c3c([H])c([H])c(Oc4c([H])c([H])c(F)c([H])c4F)c([H])c3[H])c(C(=O)N([H])[H])c2N([H])[H])C1([H])[H])N([H])C([H])([H])C([H])([H])Oc1c([H])c([H])c2c(c1[H])C([H])([H])N(C(=O)C([H])(N([H])C(=O)C([H])(N([H])C([H])([H])[H])C([H])([H])[H])C(C([H])([H])[H])(C([H])([H])[H])C([H])([H])[H])C([H])(C(=O)N([H])C1([H])c3c([H])c([H])c([H])c([H])c3C([H])([H])C([H])([H])C1([H])[H])C2([H])[H]

$$$$
88:0:0
     RDKit          3D

117124  0  0  1  0  0  0  0  0999 V2000
  -23.1700  -23.5730   21.6050 C   0  0  0  0  0  0  0  0  0  0  0  0
  -24.0900  -23.6470   22.4910 N   0  0  0  0  0  2  0  0  0  0  0  0
  -21.7950  -24.0790   21.8060 C   0  0  0  0  0  3  0  0  0  0  0  0
  -20.9440  -24.3150   20.7900 C   0  0  0  0  0  2  0  0  0  0  0  0
  -19.5990  -24.7900   21.0410 C   0  0  0  0  0  0  0  0  0  0  0  0
  -18.9680  -25.0710   19.8990 N   0  0  0  0  0  0  0  0  0  0  0  0
  -19.0760  -24.9230   22.1480 O   0  0  0  0  0  0  0  0  0  0  0  0
  -19.4760  -24.9180   19.0390 H   0  0  0  0  0  0  0  0  0  0  0  0
  -17.5840  -25.5170   19.7610 C   0  0  0  0  0  2  0  0  0  0  0  0
  -16.7570  -25.0930   20.9800 C   0  0  0  0  0  2  0  0  0  0  0  0
  -15.9620  -26.1990   21.3860 O   0  0  0  0  0  0  0  0  0  0  0  0
  -15.5220  -26.1090   22.7350 C   0  0  0  0  0  2  0  0  0  0  0  0
  -15.1470  -24.6520   23.0370 C   0  0  0  0  0  2  0  0  0  0  0  0
  -15.3080  -24.4030   24.4280 O   0  0  0  0  0  0  0  0  0  0  0  0
  -15.1810  -23.0280   24.7640 C   0  0  0  0  0  2  0  0  0  0  0  0
  -13.9280  -22.8170   25.6290 C   0  0  0  0  0  2  0  0  0  0  0  0
  -12.7710  -24.9070   26.3340 C   0  0  0  0  0  3  0  0  0  0  0  0
  -13.6850  -23.9520   26.5150 N   0  0  0  0  0  0  0  0  0  0  0  0
  -12.0120  -24.9660   25.3650 O   0  0  0  0  0  0  0  0  0  0  0  0
  -14.2320  -23.9920   27.3660 H   0  0  0  0  0  0  0  0  0  0  0  0
  -24.4960  -21.9970   20.2440 C   0  0  0  0  0  3  0  0  0  0  0  0
  -23.6330  -23.0240   20.3170 C   0  0  0  0  0  3  0  0  0  0  0  0
  -25.6260  -20.4680   18.7610 C   0  0  0  0  0  3  0  0  0  0  0  0
  -25.2520  -21.7210   19.0480 C   0  0  0  0  0  2  0  0  0  0  0  0
  -26.7150  -20.2040   17.8580 C   0  0  0  0  0  3  0  0  0  0  0  0
  -27.2690  -18.9880   17.7610 C   0  0  0  0  0  2  0  0  0  0  0  0
  -28.5820  -18.8430   17.1880 C   0  0  0  0  0  3  0  0  0  0  0  0
  -29.6710  -18.4800   17.8800 C   0  0  0  0  0  3  0  0  0  0  0  0
  -30.9680  -18.6140   17.2660 C   0  0  0  0  0  3  0  0  0  0  0  0
  -32.0700  -19.1090   17.8460 C   0  0  0  0  0  3  0  0  0  0  0  0
  -33.3840  -19.2050   17.0950 C   0  0  0  0  0  2  0  0  0  0  0  0
  -34.1200  -17.8570   17.0480 C   0  0  0  0  0  2  0  0  0  0  0  0
  -33.8820  -15.5870   18.1090 C   0  0  0  0  0  0  0  0  0  0  0  0
  -34.3310  -14.9160   20.3990 C   0  0  0  0  0  2  0  0  0  0  0  0
  -34.1550  -13.4550   20.8110 C   0  0  0  0  0  2  0  0  0  0  0  0
  -32.6960  -13.1890   21.2090 C   0  0  0  0  0  2  0  0  0  0  0  0
  -31.6940  -13.6500   20.1180 C   0  0  0  0  0  3  0  0  0  0  0  0
  -31.9810  -15.0970   19.6580 C   0  0  0  0  0  2  0  0  0  0  0  0
  -33.4070  -15.2170   19.3090 N   0  0  0  0  0  0  0  0  0  0  0  0
  -34.8780  -15.1060   17.5590 O   0  0  0  0  0  0  0  0  0  0  0  0
  -33.4580  -16.8290   17.8530 N   0  0  0  0  0  0  0  0  0  0  0  0
  -32.7140  -17.1490   18.4560 H   0  0  0  0  0  0  0  0  0  0  0  0
  -29.4110  -14.4450   21.0060 C   0  0  0  0  0  0  0  0  0  0  0  0
  -28.2380  -13.7750   21.2460 C   0  0  0  0  0  0  0  0  0  0  0  0
  -28.4950  -12.4050   20.9340 C   0  0  0  0  0  0  0  0  0  0  0  0
  -30.3160  -13.4830   20.5820 N   0  0  0  0  0  0  0  0  0  0  0  0
  -29.7670  -12.2400   20.5910 N   0  0  0  0  0  0  0  0  0  0  0  0
  -27.5890  -11.2490   20.8880 C   0  0  0  0  0  0  0  0  0  0  0  0
  -27.3370  -10.4640   22.0340 C   0  0  0  0  0  3  0  0  0  0  0  0
  -26.4500   -9.3680   21.9710 C   0  0  0  0  0  3  0  0  0  0  0  0
  -25.8000   -9.0500   20.7530 C   0  0  0  0  0  0  0  0  0  0  0  0
  -26.0740   -9.8200   19.6090 C   0  0  0  0  0  3  0  0  0  0  0  0
  -26.9610  -10.9080   19.6740 C   0  0  0  0  0  3  0  0  0  0  0  0
  -24.9410   -7.9890   20.5910 O   0  0  0  0  0  0  0  0  0  0  0  0
  -23.8650   -7.8030   21.4190 C   0  0  0  0  0  0  0  0  0  0  0  0
  -22.7980   -8.7280   21.4760 C   0  0  0  0  0  3  0  0  0  0  0  0
  -21.6780   -8.4620   22.2890 C   0  0  0  0  0  3  0  0  0  0  0  0
  -21.6170   -7.2700   23.0370 C   0  0  0  0  0  0  0  0  0  0  0  0
  -22.6740   -6.3460   22.9770 C   0  0  0  0  0  3  0  0  0  0  0  0
  -23.7930   -6.6110   22.1680 C   0  0  0  0  0  0  0  0  0  0  0  0
  -24.8000   -5.7070   22.0980 F   0  0  0  0  0  0  0  0  0  0  0  0
  -20.5370   -7.0100   23.8110 F   0  0  0  0  0  0  0  0  0  0  0  0
  -26.9270  -14.3890   21.6450 C   0  0  0  0  0  0  0  0  0  0  0  0
  -26.0370  -13.5980   22.2380 N   0  0  0  0  0  0  0  0  0  0  0  0
  -26.7010  -15.5850   21.4750 O   0  0  0  0  0  0  0  0  0  0  0  0
  -26.2290  -12.6190   22.3930 H   0  0  0  0  0  0  0  0  0  0  0  0
  -25.1550  -13.9800   22.5440 H   0  0  0  0  0  0  0  0  0  0  0  0
  -29.7700  -15.7850   21.0850 N   0  0  0  0  0  0  0  0  0  0  0  0
  -29.0930  -16.5060   21.3020 H   0  0  0  0  0  0  0  0  0  0  0  0
  -30.6630  -16.1530   20.7820 H   0  0  0  0  0  0  0  0  0  0  0  0
  -24.0350  -24.5400   23.6310 C   0  0  0  0  0  2  0  0  0  0  0  0
  -25.4560  -25.1140   23.8980 C   0  0  0  0  0  2  0  0  0  0  0  0
  -26.5030  -24.7900   22.8020 C   0  0  0  0  0  2  0  0  0  0  0  0
  -27.8330  -25.1010   23.2470 O   0  0  0  0  0  0  0  0  0  0  0  0
  -28.6950  -25.5440   22.1930 C   0  0  0  0  0  2  0  0  0  0  0  0
  -30.0870  -26.0260   22.7200 C   0  0  0  0  0  2  0  0  0  0  0  0
  -30.3900  -27.4330   22.5570 O   0  0  0  0  0  0  0  0  0  0  0  0
  -25.5580  -28.4990   27.5960 C   0  0  0  0  0  0  0  0  0  0  0  0
  -29.3530  -28.2200   22.9720 C   0  0  0  0  0  0  0  0  0  0  0  0
  -25.0270  -29.4140   25.3570 C   0  0  0  0  0  3  0  0  0  0  0  0
  -26.9790  -29.5250   23.7160 C   0  0  0  0  0  0  0  0  0  0  0  0
  -27.4490  -29.2120   26.1490 C   0  0  0  0  0  2  0  0  0  0  0  0
  -27.8460  -29.0340   24.7030 C   0  0  0  0  0  0  0  0  0  0  0  0
  -29.0350  -28.3680   24.3400 C   0  0  0  0  0  3  0  0  0  0  0  0
  -28.5250  -28.7990   21.9940 C   0  0  0  0  0  3  0  0  0  0  0  0
  -27.3160  -29.4100   22.3560 C   0  0  0  0  0  3  0  0  0  0  0  0
  -25.6980  -30.1760   24.1820 C   0  0  0  0  0  2  0  0  0  0  0  0
  -26.0080  -28.9980   26.4110 N   0  0  0  0  0  0  0  0  0  0  0  0
  -24.3450  -28.4260   27.8420 O   0  0  0  0  0  0  0  0  0  0  0  0
  -24.2110  -28.2340   24.7850 C   0  0  0  0  0  0  0  0  0  0  0  0
  -23.1290  -28.5540   24.0570 N   0  0  0  0  0  0  0  0  0  0  0  0
  -24.5700  -27.0690   24.9710 O   0  0  0  0  0  0  0  0  0  0  0  0
  -22.9090  -29.5340   23.9440 H   0  0  0  0  0  0  0  0  0  0  0  0
  -20.2940  -28.3190   21.8320 C   0  0  0  0  0  0  0  0  0  0  0  0
  -22.2390  -27.6120   23.3810 C   0  0  0  0  0  3  0  0  0  0  0  0
  -22.9100  -27.0360   22.1130 C   0  0  0  0  0  2  0  0  0  0  0  0
  -22.5640  -27.8250   20.8470 C   0  0  0  0  0  2  0  0  0  0  0  0
  -21.0520  -27.8270   20.6110 C   0  0  0  0  0  2  0  0  0  0  0  0
  -20.8580  -28.2290   23.1320 C   0  0  0  0  0  0  0  0  0  0  0  0
  -20.1300  -28.7370   24.2290 C   0  0  0  0  0  3  0  0  0  0  0  0
  -18.8700  -29.3310   24.0410 C   0  0  0  0  0  3  0  0  0  0  0  0
  -18.3110  -29.4050   22.7540 C   0  0  0  0  0  3  0  0  0  0  0  0
  -19.0220  -28.8950   21.6530 C   0  0  0  0  0  3  0  0  0  0  0  0
  -26.5420  -28.0260   28.7130 C   0  0  0  0  0  3  0  0  0  0  0  0
  -26.7260  -29.1470   29.6420 N   0  0  0  0  0  0  0  0  0  0  0  0
  -27.8070  -29.9390   29.6760 C   0  0  0  0  0  0  0  0  0  0  0  0
  -28.7970  -29.7530   28.9620 O   0  0  0  0  0  0  0  0  0  0  0  0
  -25.9340  -29.3870   30.2220 H   0  0  0  0  0  0  0  0  0  0  0  0
  -27.5670  -32.4320   29.8750 C   0  0  0  0  0  1  0  0  0  0  0  0
  -27.7830  -31.1280   30.6560 C   0  0  0  0  0  3  0  0  0  0  0  0
  -29.1350  -30.1630   32.4630 C   0  0  0  0  0  1  0  0  0  0  0  0
  -29.0070  -31.2320   31.4760 N   0  0  0  0  0  0  0  0  0  0  0  0
  -29.0400  -32.1210   31.9690 H   0  0  0  0  0  0  0  0  0  0  0  0
  -26.0440  -26.7370   29.4780 C   0  0  1  0  0  0  0  0  0  0  0  0
  -24.6010  -26.8640   30.0180 C   0  0  0  0  0  1  0  0  0  0  0  0
  -26.1000  -25.4930   28.5590 C   0  0  0  0  0  1  0  0  0  0  0  0
  -26.9820  -26.4390   30.6740 C   0  0  0  0  0  1  0  0  0  0  0  0
  1  3  2  0
  1  2  1  0
  2 71  1  0
  4  5  1  0
  4  3  1  0
  5  7  2  0
  6  5  1  0
  8  6  1  0
  9  6  1  0
  9 10  1  0
 10 11  1  0
 11 12  1  0
 12 13  1  0
 13 14  1  0
 14 15  1  0
 15 16  1  0
 16 18  1  0
 17 18  1  0
 18 20  1  0
 19 17  2  0
 21 22  2  0
 22  1  1  0
 23 24  1  0
 24 21  1  0
 25 23  2  0
 26 25  1  0
 27 26  1  0
 27 28  2  0
 29 30  2  0
 29 28  1  0
 31 30  1  0
 32 31  1  0
 32 41  1  0
 33 39  1  0
 34 35  1  0
 35 36  1  0
 37 38  1  0
 37 46  1  0
 37 36  1  0
 39 38  1  0
 39 34  1  0
 40 33  2  0
 41 33  1  0
 41 42  1  0
 43 68  1  0
 43 44  2  0
 44 63  1  0
 45 44  1  0
 46 47  1  0
 46 43  1  0
 47 45  2  0
 48 45  1  0
 48 49  1  0
 50 49  2  0
 51 50  1  0
 52 53  1  0
 52 51  2  0
 53 48  2  0
 54 51  1  0
 54 55  1  0
 55 56  2  0
 55 60  1  0
 56 57  1  0
 57 58  2  0
 58 62  1  0
 59 58  1  0
 60 59  2  0
 61 60  1  0
 63 64  1  0
 64 66  1  0
 64 67  1  0
 65 63  2  0
 68 69  1  0
 70 68  1  0
 71 72  1  0
 73 74  1  0
 73 72  1  0
 75 76  1  0
 75 74  1  0
 77 76  1  0
 77 79  1  0
 78 89  2  0
 79 84  1  0
 80 90  1  0
 80 88  1  0
 81 87  1  0
 81 83  1  0
 82 88  1  0
 83 82  1  0
 84 83  2  0
 85 86  1  0
 85 79  2  0
 86 81  2  0
 87 80  1  0
 88 78  1  0
 90 92  2  0
 91 90  1  0
 93 91  1  0
 94 99  1  0
 95 91  1  0
 96 95  1  0
 97 96  1  0
 98 97  1  0
 98 94  1  0
 99 95  1  0
 99100  2  0
101100  1  0
102101  2  0
103 94  2  0
103102  1  0
104 78  1  0
104114  1  0
104105  1  0
105106  1  0
105108  1  0
106110  1  0
107106  2  0
110109  1  0
110112  1  0
112113  1  0
112111  1  0
114115  1  1
114117  1  0
116114  1  0
M  ISO  4  33 100  41 100  76 101  77 101
M  END
>  <TORSDO>  (81) 
F 40

>  <SCORE>  (81) 
1.115

>  <name>  (81) 
88

>  <ligand_id>  (81) 
88

>  <original_smiles>  (81) 
[H]C(=O)N([H])C([H])([H])C([H])([H])OC([H])([H])C([H])([H])OC([H])([H])C([H])([H])N([H])C(=O)C([H])=C([H])C(=NC([H])([H])C([H])([H])C([H])([H])OC([H])([H])C([H])([H])Oc1c([H])c([H])c2c(c1[H])C([H])([H])N(C(=O)C([H])(N([H])C(=O)C([H])(N([H])C([H])([H])[H])C([H])([H])[H])C(C([H])([H])[H])(C([H])([H])[H])C([H])([H])[H])C([H])(C(=O)N([H])C1([H])c3c([H])c([H])c([H])c([H])c3C([H])([H])C([H])([H])C1([H])[H])C2([H])[H])C([H])=C([H])C([H])=C([H])C([H])=C([H])C([H])=C([H])C([H])=C([H])C([H])([H])C([H])([H])N([H])C(=O)N1C([H])([H])C([H])([H])C([H])([H])C([H])(n2nc(-c3c([H])c([H])c(Oc4c([H])c([H])c(F)c([H])c4F)c([H])c3[H])c(C(=O)N([H])[H])c2N([H])[H])C1([H])[H]

>  <smiles>  (81) 
[H]C(=O)N([H])C([H])([H])C([H])([H])OC([H])([H])C([H])([H])OC([H])([H])C([H])([H])N([H])C(=O)C([H])=C([H])C(=NC([H])([H])C([H])([H])C([H])([H])OC([H])([H])C([H])([H])Oc1c([H])c([H])c2c(c1[H])C([H])([H])N(C(=O)C([H])(N([H])C(=O)C([H])(N([H])C([H])([H])[H])C([H])([H])[H])C(C([H])([H])[H])(C([H])([H])[H])C([H])([H])[H])C([H])(C(=O)N([H])C1([H])c3c([H])c([H])c([H])c([H])c3C([H])([H])C([H])([H])C1([H])[H])C2([H])[H])C([H])=C([H])C([H])=C([H])C([H])=C([H])C([H])=C([H])C([H])=C([H])C([H])([H])C([H])([H])N([H])C(=O)N1C([H])([H])C([H])([H])C([H])([H])C([H])(n2nc(-c3c([H])c([H])c(Oc4c([H])c([H])c(F)c([H])c4F)c([H])c3[H])c(C(=O)N([H])[H])c2N([H])[H])C1([H])[H]

$$$$
89:0:0
     RDKit          3D

 89 96  0  0  1  0  0  0  0  0999 V2000
  -28.8490  -21.2580   20.6850 C   0  0  0  0  0  0  0  0  0  0  0  0
  -29.1010  -22.5300   20.1980 N   0  0  0  0  0  0  0  0  0  0  0  0
  -27.9490  -21.1050   21.5110 O   0  0  0  0  0  0  0  0  0  0  0  0
  -29.8230  -22.5820   19.4930 H   0  0  0  0  0  0  0  0  0  0  0  0
  -30.8370  -20.3620   19.5530 C   0  0  0  0  0  2  0  0  0  0  0  0
  -29.6930  -20.0920   20.2180 C   0  0  0  0  0  0  0  0  0  0  0  0
  -29.2700  -18.5800   20.5110 C   0  0  0  0  0  3  0  0  0  0  0  0
  -30.2980  -17.3650   20.2240 C   0  0  0  0  0  3  0  0  0  0  0  0
  -30.6330  -14.7790   20.2640 C   0  0  0  0  0  0  0  0  0  0  0  0
  -30.4010  -12.5250   19.2310 C   0  0  0  0  0  2  0  0  0  0  0  0
  -29.4520  -12.6350   18.0160 C   0  0  0  0  0  2  0  0  0  0  0  0
  -27.9850  -12.4650   18.4550 C   0  0  0  0  0  2  0  0  0  0  0  0
  -27.6320  -13.3310   19.6950 C   0  0  0  0  0  3  0  0  0  0  0  0
  -28.7010  -13.2200   20.8040 C   0  0  0  0  0  2  0  0  0  0  0  0
  -29.9940  -13.5640   20.2010 N   0  0  0  0  0  0  0  0  0  0  0  0
  -31.8160  -14.8760   19.9250 O   0  0  0  0  0  0  0  0  0  0  0  0
  -29.8780  -15.9190   20.4730 N   0  0  0  0  0  0  0  0  0  0  0  0
  -28.9090  -15.7580   20.7010 H   0  0  0  0  0  0  0  0  0  0  0  0
  -25.2470  -13.9150   20.4400 C   0  0  0  0  0  0  0  0  0  0  0  0
  -24.1890  -13.1370   20.8230 C   0  0  0  0  0  0  0  0  0  0  0  0
  -24.6600  -11.7870   20.7960 C   0  0  0  0  0  0  0  0  0  0  0  0
  -26.2930  -13.0380   20.1970 N   0  0  0  0  0  0  0  0  0  0  0  0
  -25.9480  -11.7550   20.4740 N   0  0  0  0  0  0  0  0  0  0  0  0
  -23.9400  -10.5210   20.9950 C   0  0  0  0  0  0  0  0  0  0  0  0
  -24.3810   -9.5590   21.9280 C   0  0  0  0  0  3  0  0  0  0  0  0
  -23.6630   -8.3590   22.1160 C   0  0  0  0  0  3  0  0  0  0  0  0
  -22.4860   -8.1150   21.3690 C   0  0  0  0  0  0  0  0  0  0  0  0
  -22.0640   -9.0650   20.4220 C   0  0  0  0  0  3  0  0  0  0  0  0
  -22.7840  -10.2560   20.2330 C   0  0  0  0  0  3  0  0  0  0  0  0
  -21.7350   -6.9690   21.4670 O   0  0  0  0  0  0  0  0  0  0  0  0
  -21.6950   -6.2280   22.6230 C   0  0  0  0  0  0  0  0  0  0  0  0
  -21.2730   -6.7860   23.8500 C   0  0  0  0  0  3  0  0  0  0  0  0
  -21.1790   -5.9740   24.9970 C   0  0  0  0  0  3  0  0  0  0  0  0
  -21.5000   -4.6050   24.9190 C   0  0  0  0  0  0  0  0  0  0  0  0
  -21.9140   -4.0460   23.6980 C   0  0  0  0  0  3  0  0  0  0  0  0
  -22.0080   -4.8560   22.5510 C   0  0  0  0  0  0  0  0  0  0  0  0
  -22.3880   -4.3070   21.3730 F   0  0  0  0  0  0  0  0  0  0  0  0
  -21.4020   -3.8240   26.0200 F   0  0  0  0  0  0  0  0  0  0  0  0
  -22.7910  -13.6070   21.1040 C   0  0  0  0  0  0  0  0  0  0  0  0
  -22.0730  -12.9100   21.9800 N   0  0  0  0  0  0  0  0  0  0  0  0
  -22.3430  -14.6270   20.5820 O   0  0  0  0  0  0  0  0  0  0  0  0
  -22.4450  -12.0840   22.4240 H   0  0  0  0  0  0  0  0  0  0  0  0
  -21.1350  -13.2080   22.2090 H   0  0  0  0  0  0  0  0  0  0  0  0
  -25.4050  -15.2870   20.2550 N   0  0  0  0  0  0  0  0  0  0  0  0
  -24.6450  -15.9470   20.3830 H   0  0  0  0  0  0  0  0  0  0  0  0
  -26.2580  -15.7260   19.9340 H   0  0  0  0  0  0  0  0  0  0  0  0
  -28.5600  -23.8680   20.7060 C   0  0  0  0  0  3  0  0  0  0  0  0
  -28.5400  -25.1460   19.7230 C   0  0  0  0  0  3  0  0  0  0  0  0
  -28.4180  -26.5420   20.2490 O   0  0  0  0  0  0  0  0  0  0  0  0
  -24.6230  -31.8980   23.2540 C   0  0  0  0  0  0  0  0  0  0  0  0
  -27.2620  -27.3470   20.1780 C   0  0  0  0  0  0  0  0  0  0  0  0
  -23.4230  -30.4990   21.6060 C   0  0  0  0  0  3  0  0  0  0  0  0
  -24.8810  -28.9530   20.1750 C   0  0  0  0  0  0  0  0  0  0  0  0
  -25.9610  -30.8290   21.4220 C   0  0  0  0  0  2  0  0  0  0  0  0
  -26.0470  -29.4500   20.7710 C   0  0  0  0  0  0  0  0  0  0  0  0
  -27.2350  -28.6580   20.7610 C   0  0  0  0  0  3  0  0  0  0  0  0
  -26.0670  -26.9020   19.5690 C   0  0  0  0  0  3  0  0  0  0  0  0
  -24.8950  -27.6870   19.5650 C   0  0  0  0  0  3  0  0  0  0  0  0
  -23.6410  -29.8220   20.2250 C   0  0  0  0  0  2  0  0  0  0  0  0
  -24.6870  -31.0950   22.1510 N   0  0  0  0  0  0  0  0  0  0  0  0
  -23.5390  -32.1680   23.7910 O   0  0  0  0  0  0  0  0  0  0  0  0
  -22.7660  -29.4810   22.5670 C   0  0  0  0  0  0  0  0  0  0  0  0
  -21.4400  -29.2990   22.4410 N   0  0  0  0  0  0  0  0  0  0  0  0
  -23.4470  -28.8580   23.3860 O   0  0  0  0  0  0  0  0  0  0  0  0
  -20.9470  -29.8560   21.7570 H   0  0  0  0  0  0  0  0  0  0  0  0
  -18.0700  -28.0680   22.9250 C   0  0  0  0  0  0  0  0  0  0  0  0
  -20.6250  -28.3510   23.2070 C   0  0  0  0  0  3  0  0  0  0  0  0
  -20.7410  -26.9200   22.6340 C   0  0  0  0  0  2  0  0  0  0  0  0
  -19.6480  -26.5870   21.6130 C   0  0  0  0  0  2  0  0  0  0  0  0
  -18.2620  -26.7190   22.2500 C   0  0  0  0  0  2  0  0  0  0  0  0
  -19.1800  -28.8410   23.3600 C   0  0  0  0  0  0  0  0  0  0  0  0
  -18.9460  -30.1020   23.9500 C   0  0  0  0  0  3  0  0  0  0  0  0
  -17.6360  -30.5920   24.1080 C   0  0  0  0  0  3  0  0  0  0  0  0
  -16.5410  -29.8160   23.6900 C   0  0  0  0  0  3  0  0  0  0  0  0
  -16.7590  -28.5560   23.1050 C   0  0  0  0  0  3  0  0  0  0  0  0
  -25.9040  -32.5330   23.8790 C   0  0  0  0  0  3  0  0  0  0  0  0
  -25.5950  -33.9340   24.1980 N   0  0  0  0  0  0  0  0  0  0  0  0
  -25.9300  -34.9840   23.4370 C   0  0  0  0  0  0  0  0  0  0  0  0
  -26.6010  -34.8730   22.4050 O   0  0  0  0  0  0  0  0  0  0  0  0
  -24.9990  -34.0940   24.9980 H   0  0  0  0  0  0  0  0  0  0  0  0
  -24.2070  -36.7810   23.0710 C   0  0  0  0  0  1  0  0  0  0  0  0
  -25.4440  -36.3760   23.8860 C   0  0  0  0  0  3  0  0  0  0  0  0
  -27.5810  -37.2600   24.7150 C   0  0  0  0  0  1  0  0  0  0  0  0
  -26.4780  -37.4260   23.7720 N   0  0  0  0  0  0  0  0  0  0  0  0
  -26.0730  -38.3460   23.9190 H   0  0  0  0  0  0  0  0  0  0  0  0
  -26.4140  -31.7710   25.1630 C   0  0  1  0  0  0  0  0  0  0  0  0
  -25.3190  -31.5450   26.2320 C   0  0  0  0  0  1  0  0  0  0  0  0
  -26.9930  -30.3870   24.7850 C   0  0  0  0  0  1  0  0  0  0  0  0
  -27.5650  -32.5660   25.8240 C   0  0  0  0  0  1  0  0  0  0  0  0
  1  3  2  0
  2  1  1  0
  2 47  1  0
  4  2  1  0
  5  6  2  0
  6  7  1  0
  6  1  1  0
  8 17  1  0
  8  7  2  0
  9 17  1  0
 10 15  1  0
 11 12  1  0
 11 10  1  0
 13 12  1  0
 13 22  1  0
 13 14  1  0
 15  9  1  0
 15 14  1  0
 16  9  2  0
 17 18  1  0
 19 20  2  0
 20 39  1  0
 21 20  1  0
 21 24  1  0
 22 19  1  0
 22 23  1  0
 23 21  2  0
 24 25  1  0
 25 26  2  0
 27 30  1  0
 27 26  1  0
 28 27  2  0
 29 28  1  0
 29 24  2  0
 30 31  1  0
 31 32  1  0
 32 33  2  0
 34 33  1  0
 34 38  1  0
 35 34  2  0
 36 31  2  0
 36 35  1  0
 37 36  1  0
 39 40  1  0
 40 43  1  0
 40 42  1  0
 41 39  2  0
 44 45  1  0
 44 19  1  0
 46 44  1  0
 48 49  1  0
 48 47  2  0
 50 61  2  0
 51 49  1  0
 51 56  1  0
 52 60  1  0
 52 62  1  0
 53 59  1  0
 53 55  1  0
 54 60  1  0
 55 54  1  0
 56 55  2  0
 57 51  2  0
 58 57  1  0
 58 53  2  0
 59 52  1  0
 60 50  1  0
 62 64  2  0
 63 62  1  0
 65 63  1  0
 66 75  2  0
 66 71  1  0
 67 63  1  0
 67 71  1  0
 68 67  1  0
 69 70  1  0
 69 68  1  0
 70 66  1  0
 71 72  2  0
 72 73  1  0
 74 73  2  0
 75 74  1  0
 76 50  1  0
 76 77  1  0
 76 86  1  0
 77 80  1  0
 78 82  1  0
 78 77  1  0
 79 78  2  0
 82 81  1  0
 84 82  1  0
 84 85  1  0
 84 83  1  0
 86 89  1  1
 86 87  1  0
 88 86  1  0
M  ISO  4   9 100  17 100  48 101  49 101
M  END
>  <TORSDO>  (82) 
F 21

>  <SCORE>  (82) 
-13.215

>  <name>  (82) 
89

>  <ligand_id>  (82) 
89

>  <original_smiles>  (82) 
[H]C([H])=C(C(=O)N([H])C([H])([H])C([H])([H])Oc1c([H])c([H])c2c(c1[H])C([H])([H])N(C(=O)C([H])(N([H])C(=O)C([H])(N([H])C([H])([H])[H])C([H])([H])[H])C(C([H])([H])[H])(C([H])([H])[H])C([H])([H])[H])C([H])(C(=O)N([H])C1([H])c3c([H])c([H])c([H])c([H])c3C([H])([H])C([H])([H])C1([H])[H])C2([H])[H])C([H])([H])C([H])([H])N([H])C(=O)N1C([H])([H])C([H])([H])C([H])([H])C([H])(n2nc(-c3c([H])c([H])c(Oc4c([H])c([H])c(F)c([H])c4F)c([H])c3[H])c(C(=O)N([H])[H])c2N([H])[H])C1([H])[H]

>  <smiles>  (82) 
[H]C([H])=C(C(=O)N([H])C([H])([H])C([H])([H])Oc1c([H])c([H])c2c(c1[H])C([H])([H])N(C(=O)C([H])(N([H])C(=O)C([H])(N([H])C([H])([H])[H])C([H])([H])[H])C(C([H])([H])[H])(C([H])([H])[H])C([H])([H])[H])C([H])(C(=O)N([H])C1([H])c3c([H])c([H])c([H])c([H])c3C([H])([H])C([H])([H])C1([H])[H])C2([H])[H])C([H])([H])C([H])([H])N([H])C(=O)N1C([H])([H])C([H])([H])C([H])([H])C([H])(n2nc(-c3c([H])c([H])c(Oc4c([H])c([H])c(F)c([H])c4F)c([H])c3[H])c(C(=O)N([H])[H])c2N([H])[H])C1([H])[H]

$$$$
90:0:0
     RDKit          3D

109116  0  0  1  0  0  0  0  0999 V2000
  -28.3320  -21.4130   23.9520 C   0  0  0  0  0  2  0  0  0  0  0  0
  -27.6830  -21.4840   22.5570 C   0  0  0  0  0  2  0  0  0  0  0  0
  -28.4760  -20.7300   21.5950 N   0  0  0  0  0  0  0  0  0  0  0  0
  -28.0170  -19.8390   21.4100 H   0  0  0  0  0  0  0  0  0  0  0  0
  -28.6420  -21.4860   20.3590 C   0  0  0  0  0  2  0  0  0  0  0  0
  -29.3120  -20.6260   19.2680 C   0  0  0  0  0  2  0  0  0  0  0  0
  -29.5970  -21.4000   18.0380 N   0  0  0  0  0  4  0  0  0  0  0  0
  -30.4510  -21.9190   18.1750 H   0  0  0  0  0  0  0  0  0  0  0  0
  -28.8580  -22.0720   17.8880 H   0  0  0  0  0  0  0  0  0  0  0  0
  -29.7420  -20.5780   16.8110 C   0  0  0  0  0  2  0  0  0  0  0  0
  -31.2170  -20.4050   16.4280 C   0  0  0  0  0  2  0  0  0  0  0  0
  -31.8150  -19.6430   17.4710 O   0  0  0  0  0  0  0  0  0  0  0  0
  -33.1790  -19.3470   17.2260 C   0  0  0  0  0  2  0  0  0  0  0  0
  -33.7180  -18.3820   18.2970 C   0  0  0  0  0  2  0  0  0  0  0  0
  -32.9230  -17.0700   18.3870 C   0  0  0  0  0  2  0  0  0  0  0  0
  -32.0560  -16.9210   19.6600 C   0  0  0  0  0  2  0  0  0  0  0  0
  -30.9580  -15.8550   19.4750 C   0  0  0  0  0  2  0  0  0  0  0  0
  -31.5400  -13.7340   20.5240 C   0  0  0  0  0  0  0  0  0  0  0  0
  -31.1030  -11.6240   19.3870 C   0  0  0  0  0  2  0  0  0  0  0  0
  -30.2730  -11.9760   18.1320 C   0  0  0  0  0  2  0  0  0  0  0  0
  -28.7640  -11.9890   18.4620 C   0  0  0  0  0  2  0  0  0  0  0  0
  -28.4370  -12.8340   19.7250 C   0  0  0  0  0  3  0  0  0  0  0  0
  -29.3890  -12.4750   20.8920 C   0  0  0  0  0  2  0  0  0  0  0  0
  -30.7760  -12.6180   20.4170 N   0  0  0  0  0  0  0  0  0  0  0  0
  -32.7370  -13.7710   20.2330 O   0  0  0  0  0  0  0  0  0  0  0  0
  -30.8210  -14.8670   20.5520 N   0  0  0  0  0  0  0  0  0  0  0  0
  -29.8780  -14.7530   20.8900 H   0  0  0  0  0  0  0  0  0  0  0  0
  -26.0630  -13.6940   20.2400 C   0  0  0  0  0  0  0  0  0  0  0  0
  -24.9080  -13.0400   20.5660 C   0  0  0  0  0  0  0  0  0  0  0  0
  -25.2430  -11.6500   20.6240 C   0  0  0  0  0  0  0  0  0  0  0  0
  -27.0350  -12.7110   20.1180 N   0  0  0  0  0  0  0  0  0  0  0  0
  -26.5410  -11.4800   20.4090 N   0  0  0  0  0  0  0  0  0  0  0  0
  -24.3950  -10.4670   20.8100 C   0  0  0  0  0  0  0  0  0  0  0  0
  -24.6750   -9.5080   21.8080 C   0  0  0  0  0  3  0  0  0  0  0  0
  -23.8360   -8.3870   21.9820 C   0  0  0  0  0  3  0  0  0  0  0  0
  -22.7020   -8.2160   21.1520 C   0  0  0  0  0  0  0  0  0  0  0  0
  -22.4420   -9.1600   20.1420 C   0  0  0  0  0  3  0  0  0  0  0  0
  -23.2810  -10.2720   19.9700 C   0  0  0  0  0  3  0  0  0  0  0  0
  -21.8480   -7.1430   21.2270 O   0  0  0  0  0  0  0  0  0  0  0  0
  -21.5590   -6.5340   22.4200 C   0  0  0  0  0  0  0  0  0  0  0  0
  -21.0540   -7.2580   23.5210 C   0  0  0  0  0  3  0  0  0  0  0  0
  -20.7050   -6.5830   24.7090 C   0  0  0  0  0  3  0  0  0  0  0  0
  -20.8480   -5.1850   24.7920 C   0  0  0  0  0  0  0  0  0  0  0  0
  -21.3450   -4.4620   23.6950 C   0  0  0  0  0  3  0  0  0  0  0  0
  -21.6950   -5.1330   22.5100 C   0  0  0  0  0  0  0  0  0  0  0  0
  -22.1510   -4.4270   21.4480 F   0  0  0  0  0  0  0  0  0  0  0  0
  -20.5060   -4.5370   25.9300 F   0  0  0  0  0  0  0  0  0  0  0  0
  -23.5440  -13.6490   20.7170 C   0  0  0  0  0  0  0  0  0  0  0  0
  -22.7110  -13.0690   21.5720 N   0  0  0  0  0  0  0  0  0  0  0  0
  -23.2270  -14.6750   20.1140 O   0  0  0  0  0  0  0  0  0  0  0  0
  -22.9830  -12.2460   22.0850 H   0  0  0  0  0  0  0  0  0  0  0  0
  -21.7890  -13.4560   21.7170 H   0  0  0  0  0  0  0  0  0  0  0  0
  -26.3640  -15.0360   20.0160 N   0  0  0  0  0  0  0  0  0  0  0  0
  -25.6520  -15.7590   20.0220 H   0  0  0  0  0  0  0  0  0  0  0  0
  -27.2670  -15.3810   19.7170 H   0  0  0  0  0  0  0  0  0  0  0  0
  -29.8290  -21.8080   24.0150 C   0  0  0  0  0  2  0  0  0  0  0  0
  -30.2900  -23.5770   22.3170 C   0  0  0  0  0  0  0  0  0  0  0  0
  -30.3400  -22.3130   22.7440 N   0  0  0  0  0  0  0  0  0  0  0  0
  -29.8610  -24.4980   23.0140 O   0  0  0  0  0  0  0  0  0  0  0  0
  -30.7010  -21.6160   22.1070 H   0  0  0  0  0  0  0  0  0  0  0  0
  -30.7630  -23.6930   20.9540 C   0  0  0  0  0  3  0  0  0  0  0  0
  -30.7040  -24.8810   20.3140 C   0  0  0  0  0  3  0  0  0  0  0  0
  -31.1140  -25.0500   18.9320 C   0  0  0  0  0  0  0  0  0  0  0  0
  -30.5470  -24.1680   18.0970 N   0  0  0  0  0  0  0  0  0  0  0  0
  -31.8590  -25.9440   18.5360 O   0  0  0  0  0  0  0  0  0  0  0  0
  -29.9160  -23.4930   18.5020 H   0  0  0  0  0  0  0  0  0  0  0  0
  -30.5630  -24.2580   16.6410 C   0  0  0  0  0  2  0  0  0  0  0  0
  -29.6690  -25.4160   16.1910 C   0  0  0  0  0  2  0  0  0  0  0  0
  -28.3060  -25.0040   16.1240 O   0  0  0  0  0  0  0  0  0  0  0  0
  -25.6670  -28.0140   22.0360 C   0  0  0  0  0  0  0  0  0  0  0  0
  -27.3660  -25.8170   16.7250 C   0  0  0  0  0  0  0  0  0  0  0  0
  -24.2260  -28.1380   20.0220 C   0  0  0  0  0  3  0  0  0  0  0  0
  -25.3460  -27.4560   17.8360 C   0  0  0  0  0  0  0  0  0  0  0  0
  -26.7690  -28.0240   19.8120 C   0  0  0  0  0  2  0  0  0  0  0  0
  -26.5680  -27.3020   18.4990 C   0  0  0  0  0  0  0  0  0  0  0  0
  -27.5780  -26.4900   17.9530 C   0  0  0  0  0  3  0  0  0  0  0  0
  -26.1250  -25.9710   16.0740 C   0  0  0  0  0  3  0  0  0  0  0  0
  -25.1130  -26.7840   16.6250 C   0  0  0  0  0  3  0  0  0  0  0  0
  -24.3280  -28.3620   18.4890 C   0  0  0  0  0  2  0  0  0  0  0  0
  -25.5710  -28.0320   20.6780 N   0  0  0  0  0  0  0  0  0  0  0  0
  -24.6600  -28.1330   22.7470 O   0  0  0  0  0  0  0  0  0  0  0  0
  -23.3240  -26.9090   20.2800 C   0  0  0  0  0  0  0  0  0  0  0  0
  -22.0000  -27.1170   20.1930 N   0  0  0  0  0  0  0  0  0  0  0  0
  -23.8120  -25.8020   20.5190 O   0  0  0  0  0  0  0  0  0  0  0  0
  -21.6790  -28.0560   20.0020 H   0  0  0  0  0  0  0  0  0  0  0  0
  -18.4300  -26.6040   20.2100 C   0  0  0  0  0  0  0  0  0  0  0  0
  -20.9600  -26.1050   20.3560 C   0  0  0  0  0  3  0  0  0  0  0  0
  -20.7740  -25.2870   19.0590 C   0  0  0  0  0  2  0  0  0  0  0  0
  -19.6850  -25.8500   18.1410 C   0  0  0  0  0  2  0  0  0  0  0  0
  -18.3380  -25.8890   18.8710 C   0  0  0  0  0  2  0  0  0  0  0  0
  -19.6670  -26.7170   20.8980 C   0  0  0  0  0  0  0  0  0  0  0  0
  -19.7120  -27.4150   22.1230 C   0  0  0  0  0  3  0  0  0  0  0  0
  -18.5520  -27.9990   22.6610 C   0  0  0  0  0  3  0  0  0  0  0  0
  -17.3250  -27.8710   21.9860 C   0  0  0  0  0  3  0  0  0  0  0  0
  -17.2640  -27.1710   20.7670 C   0  0  0  0  0  3  0  0  0  0  0  0
  -27.0440  -27.8690   22.7620 C   0  0  0  0  0  3  0  0  0  0  0  0
  -27.3680  -26.3880   23.2000 C   0  0  1  0  0  0  0  0  0  0  0  0
  -26.2260  -25.7180   23.9980 C   0  0  0  0  0  1  0  0  0  0  0  0
  -27.6650  -25.5030   21.9700 C   0  0  0  0  0  1  0  0  0  0  0  0
  -28.6410  -26.3610   24.0800 C   0  0  0  0  0  1  0  0  0  0  0  0
  -27.0240  -28.7610   23.9270 N   0  0  0  0  0  0  0  0  0  0  0  0
  -27.6990  -29.9130   24.0120 C   0  0  0  0  0  0  0  0  0  0  0  0
  -28.4680  -30.3090   23.1310 O   0  0  0  0  0  0  0  0  0  0  0  0
  -26.3770  -28.5300   24.6650 H   0  0  0  0  0  0  0  0  0  0  0  0
  -26.5600  -31.9470   24.9460 C   0  0  0  0  0  1  0  0  0  0  0  0
  -27.4790  -30.7610   25.2770 C   0  0  0  0  0  3  0  0  0  0  0  0
  -29.5530  -30.1980   26.4650 C   0  0  0  0  0  1  0  0  0  0  0  0
  -28.7350  -31.2580   25.8810 N   0  0  0  0  0  0  0  0  0  0  0  0
  -28.5400  -31.9460   26.6030 H   0  0  0  0  0  0  0  0  0  0  0  0
  1 56  1  0
  2  1  1  0
  3  2  1  0
  4  3  1  0
  5  3  1  0
  6  5  1  0
  7  8  1  0
  7  6  1  0
  9  7  1  0
 10  7  1  0
 11 10  1  0
 11 12  1  0
 13 12  1  0
 13 14  1  0
 14 15  1  0
 15 16  1  0
 17 16  1  0
 17 26  1  0
 18 26  1  0
 19 24  1  0
 20 21  1  0
 20 19  1  0
 22 21  1  0
 22 31  1  0
 22 23  1  0
 24 18  1  0
 24 23  1  0
 25 18  2  0
 26 27  1  0
 28 29  2  0
 29 30  1  0
 29 48  1  0
 30 33  1  0
 31 28  1  0
 31 32  1  0
 32 30  2  0
 33 34  1  0
 34 35  2  0
 36 39  1  0
 36 35  1  0
 37 36  2  0
 38 37  1  0
 38 33  2  0
 39 40  1  0
 40 45  2  0
 40 41  1  0
 41 42  2  0
 42 43  1  0
 43 47  1  0
 44 43  2  0
 45 44  1  0
 46 45  1  0
 48 49  1  0
 49 52  1  0
 49 51  1  0
 50 48  2  0
 53 54  1  0
 53 28  1  0
 55 53  1  0
 57 58  1  0
 57 59  2  0
 58 56  1  0
 60 58  1  0
 61 57  1  0
 62 61  2  0
 63 62  1  0
 64 66  1  0
 64 63  1  0
 65 63  2  0
 67 64  1  0
 68 67  1  0
 69 68  1  0
 69 71  1  0
 70 81  2  0
 71 76  1  0
 72 82  1  0
 72 80  1  0
 73 79  1  0
 73 75  1  0
 74 80  1  0
 75 74  1  0
 76 75  2  0
 77 78  1  0
 77 71  2  0
 78 73  2  0
 79 72  1  0
 80 70  1  0
 82 84  2  0
 83 82  1  0
 85 83  1  0
 86 95  2  0
 86 91  1  0
 87 83  1  0
 87 91  1  0
 88 87  1  0
 89 90  1  0
 89 88  1  0
 90 86  1  0
 91 92  2  0
 92 93  1  0
 94 93  2  0
 95 94  1  0
 96 70  1  0
 96 97  1  0
 96101  1  0
 97 98  1  1
 97100  1  0
 99 97  1  0
101102  1  0
101104  1  0
102106  1  0
103102  2  0
106105  1  0
106108  1  0
108107  1  0
108109  1  0
M  ISO  4  18 100  26 100  68 101  69 101
M  END
>  <TORSDO>  (83) 
F 35

>  <SCORE>  (83) 
-3.382

>  <name>  (83) 
90

>  <ligand_id>  (83) 
90

>  <original_smiles>  (83) 
[H]C(C(=O)N([H])C([H])([H])C([H])([H])Oc1c([H])c([H])c2c(c1[H])C([H])([H])N(C(=O)C([H])(N([H])C(=O)C([H])(N([H])C([H])([H])[H])C([H])([H])[H])C(C([H])([H])[H])(C([H])([H])[H])C([H])([H])[H])C([H])(C(=O)N([H])C1([H])c3c([H])c([H])c([H])c([H])c3C([H])([H])C([H])([H])C1([H])[H])C2([H])[H])=C([H])C(=O)N([H])C([H])([H])C([H])([H])C([H])([H])N([H])C([H])([H])C([H])([H])[N+]([H])([H])C([H])([H])C([H])([H])OC([H])([H])C([H])([H])C([H])([H])C([H])([H])C([H])([H])N([H])C(=O)N1C([H])([H])C([H])([H])C([H])([H])C([H])(n2nc(-c3c([H])c([H])c(Oc4c([H])c([H])c(F)c([H])c4F)c([H])c3[H])c(C(=O)N([H])[H])c2N([H])[H])C1([H])[H]

>  <smiles>  (83) 
[H]C(C(=O)N([H])C([H])([H])C([H])([H])Oc1c([H])c([H])c2c(c1[H])C([H])([H])N(C(=O)C([H])(N([H])C(=O)C([H])(N([H])C([H])([H])[H])C([H])([H])[H])C(C([H])([H])[H])(C([H])([H])[H])C([H])([H])[H])C([H])(C(=O)N([H])C1([H])c3c([H])c([H])c([H])c([H])c3C([H])([H])C([H])([H])C1([H])[H])C2([H])[H])=C([H])C(=O)N([H])C([H])([H])C([H])([H])C([H])([H])N([H])C([H])([H])C([H])([H])[N+]([H])([H])C([H])([H])C([H])([H])OC([H])([H])C([H])([H])C([H])([H])C([H])([H])C([H])([H])N([H])C(=O)N1C([H])([H])C([H])([H])C([H])([H])C([H])(n2nc(-c3c([H])c([H])c(Oc4c([H])c([H])c(F)c([H])c4F)c([H])c3[H])c(C(=O)N([H])[H])c2N([H])[H])C1([H])[H]

$$$$
91:0:0
     RDKit          3D

109116  0  0  1  0  0  0  0  0999 V2000
  -24.8560  -25.1100   14.1680 C   0  0  0  0  0  2  0  0  0  0  0  0
  -25.6780  -24.0300   14.8970 C   0  0  0  0  0  2  0  0  0  0  0  0
  -24.9070  -23.3220   15.9430 N   0  0  0  0  0  4  0  0  0  0  0  0
  -25.4360  -22.5030   16.2090 H   0  0  0  0  0  0  0  0  0  0  0  0
  -24.0320  -22.9910   15.5600 H   0  0  0  0  0  0  0  0  0  0  0  0
  -24.6620  -24.0870   17.1860 C   0  0  0  0  0  2  0  0  0  0  0  0
  -24.7430  -23.1590   18.4010 C   0  0  0  0  0  2  0  0  0  0  0  0
  -25.9580  -22.4330   18.2560 O   0  0  0  0  0  0  0  0  0  0  0  0
  -26.0930  -21.3670   19.1810 C   0  0  0  0  0  2  0  0  0  0  0  0
  -27.5390  -20.8680   19.0840 C   0  0  0  0  0  2  0  0  0  0  0  0
  -27.8600  -19.7240   20.0580 C   0  0  0  0  0  2  0  0  0  0  0  0
  -29.2910  -19.3550   20.0000 N   0  0  0  0  0  4  0  0  0  0  0  0
  -29.5180  -19.1270   19.0460 H   0  0  0  0  0  0  0  0  0  0  0  0
  -29.8520  -20.1480   20.2680 H   0  0  0  0  0  0  0  0  0  0  0  0
  -29.6510  -18.1990   20.8470 C   0  0  0  0  0  2  0  0  0  0  0  0
  -31.1110  -17.7660   20.6140 C   0  0  0  0  0  2  0  0  0  0  0  0
  -31.5090  -16.4800   21.3650 C   0  0  0  0  0  2  0  0  0  0  0  0
  -31.0010  -14.6150   19.7810 C   0  0  0  0  0  0  0  0  0  0  0  0
  -30.4760  -12.5580   18.5290 C   0  0  0  0  0  2  0  0  0  0  0  0
  -29.4290  -12.7880   17.4250 C   0  0  0  0  0  2  0  0  0  0  0  0
  -28.0040  -12.6570   17.9910 C   0  0  0  0  0  2  0  0  0  0  0  0
  -27.7960  -13.5030   19.2730 C   0  0  0  0  0  3  0  0  0  0  0  0
  -28.9370  -13.2570   20.2860 C   0  0  0  0  0  2  0  0  0  0  0  0
  -30.2290  -13.5120   19.6200 N   0  0  0  0  0  0  0  0  0  0  0  0
  -31.9070  -14.9370   19.0060 O   0  0  0  0  0  0  0  0  0  0  0  0
  -30.7670  -15.3050   20.9060 N   0  0  0  0  0  0  0  0  0  0  0  0
  -30.0570  -14.9320   21.5190 H   0  0  0  0  0  0  0  0  0  0  0  0
  -25.4970  -14.1530   20.2370 C   0  0  0  0  0  0  0  0  0  0  0  0
  -24.4420  -13.3960   20.6760 C   0  0  0  0  0  0  0  0  0  0  0  0
  -24.8490  -12.0340   20.5370 C   0  0  0  0  0  0  0  0  0  0  0  0
  -26.4830  -13.2510   19.8670 N   0  0  0  0  0  0  0  0  0  0  0  0
  -26.1000  -11.9690   20.1000 N   0  0  0  0  0  0  0  0  0  0  0  0
  -24.1010  -10.7870   20.7410 C   0  0  0  0  0  0  0  0  0  0  0  0
  -24.5120   -9.8250   21.6900 C   0  0  0  0  0  3  0  0  0  0  0  0
  -23.7670   -8.6420   21.8800 C   0  0  0  0  0  3  0  0  0  0  0  0
  -22.5950   -8.4110   21.1200 C   0  0  0  0  0  0  0  0  0  0  0  0
  -22.2040   -9.3610   20.1600 C   0  0  0  0  0  3  0  0  0  0  0  0
  -22.9490  -10.5360   19.9690 C   0  0  0  0  0  3  0  0  0  0  0  0
  -21.8230   -7.2800   21.2180 O   0  0  0  0  0  0  0  0  0  0  0  0
  -21.6750   -6.6100   22.4060 C   0  0  0  0  0  0  0  0  0  0  0  0
  -21.1150   -7.2270   23.5450 C   0  0  0  0  0  3  0  0  0  0  0  0
  -20.9180   -6.4820   24.7250 C   0  0  0  0  0  3  0  0  0  0  0  0
  -21.2700   -5.1190   24.7660 C   0  0  0  0  0  0  0  0  0  0  0  0
  -21.8240   -4.5010   23.6300 C   0  0  0  0  0  3  0  0  0  0  0  0
  -22.0230   -5.2450   22.4530 C   0  0  0  0  0  0  0  0  0  0  0  0
  -22.5360   -4.6380   21.3550 F   0  0  0  0  0  0  0  0  0  0  0  0
  -21.0740   -4.4000   25.8960 F   0  0  0  0  0  0  0  0  0  0  0  0
  -23.0960  -13.9020   21.1080 C   0  0  0  0  0  0  0  0  0  0  0  0
  -22.4340  -13.1870   22.0120 N   0  0  0  0  0  0  0  0  0  0  0  0
  -22.6440  -14.9640   20.6810 O   0  0  0  0  0  0  0  0  0  0  0  0
  -22.8130  -12.3280   22.3780 H   0  0  0  0  0  0  0  0  0  0  0  0
  -21.5340  -13.5070   22.3440 H   0  0  0  0  0  0  0  0  0  0  0  0
  -25.6920  -15.5240   20.1040 N   0  0  0  0  0  0  0  0  0  0  0  0
  -24.9580  -16.1940   20.3000 H   0  0  0  0  0  0  0  0  0  0  0  0
  -26.5100  -15.9380   19.6770 H   0  0  0  0  0  0  0  0  0  0  0  0
  -25.6510  -25.8580   13.0820 C   0  0  0  0  0  2  0  0  0  0  0  0
  -27.6190  -27.3450   13.0860 C   0  0  0  0  0  2  0  0  0  0  0  0
  -28.3780  -28.3680   13.5280 N   0  0  0  0  0  0  0  0  0  0  0  0
  -26.4440  -26.9720   13.6260 N   0  0  0  0  0  0  0  0  0  0  0  0
  -29.2250  -28.5560   13.0050 H   0  0  0  0  0  0  0  0  0  0  0  0
  -25.9510  -27.5990   14.2440 H   0  0  0  0  0  0  0  0  0  0  0  0
  -28.1320  -29.2630   14.6710 C   0  0  0  0  0  2  0  0  0  0  0  0
  -28.9620  -28.8530   15.9020 C   0  0  0  0  0  2  0  0  0  0  0  0
  -28.3010  -27.7870   16.6890 N   0  0  0  0  0  4  0  0  0  0  0  0
  -27.8400  -27.1620   16.0490 H   0  0  0  0  0  0  0  0  0  0  0  0
  -27.5980  -28.2140   17.2740 H   0  0  0  0  0  0  0  0  0  0  0  0
  -29.2250  -26.9830   17.5290 C   0  0  0  0  0  2  0  0  0  0  0  0
  -28.5010  -25.9010   18.3630 C   0  0  0  0  0  2  0  0  0  0  0  0
  -28.0970  -26.4250   19.6290 O   0  0  0  0  0  0  0  0  0  0  0  0
  -24.3120  -31.4340   22.9520 C   0  0  0  0  0  0  0  0  0  0  0  0
  -26.9180  -27.1270   19.6740 C   0  0  0  0  0  0  0  0  0  0  0  0
  -23.1040  -30.1480   21.2180 C   0  0  0  0  0  3  0  0  0  0  0  0
  -24.5470  -28.6510   19.7410 C   0  0  0  0  0  0  0  0  0  0  0  0
  -25.6350  -30.4650   21.0790 C   0  0  0  0  0  2  0  0  0  0  0  0
  -25.7020  -29.1240   20.3780 C   0  0  0  0  0  0  0  0  0  0  0  0
  -26.8860  -28.3600   20.3590 C   0  0  0  0  0  3  0  0  0  0  0  0
  -25.7430  -26.6490   19.0560 C   0  0  0  0  0  3  0  0  0  0  0  0
  -24.5580  -27.4080   19.0850 C   0  0  0  0  0  3  0  0  0  0  0  0
  -23.3230  -29.5350   19.8080 C   0  0  0  0  0  2  0  0  0  0  0  0
  -24.3680  -30.6920   21.8100 N   0  0  0  0  0  0  0  0  0  0  0  0
  -23.2280  -31.7040   23.4850 O   0  0  0  0  0  0  0  0  0  0  0  0
  -22.4120  -29.0940   22.1110 C   0  0  0  0  0  0  0  0  0  0  0  0
  -21.0750  -29.0070   22.0080 N   0  0  0  0  0  0  0  0  0  0  0  0
  -23.0740  -28.3620   22.8510 O   0  0  0  0  0  0  0  0  0  0  0  0
  -20.6030  -29.6530   21.3900 H   0  0  0  0  0  0  0  0  0  0  0  0
  -17.6370  -28.0630   22.5890 C   0  0  0  0  0  0  0  0  0  0  0  0
  -20.2190  -28.0620   22.7240 C   0  0  0  0  0  3  0  0  0  0  0  0
  -20.1550  -26.7020   21.9910 C   0  0  0  0  0  2  0  0  0  0  0  0
  -18.9740  -26.5930   21.0200 C   0  0  0  0  0  2  0  0  0  0  0  0
  -17.6500  -26.7880   21.7630 C   0  0  0  0  0  2  0  0  0  0  0  0
  -18.8440  -28.6700   23.0270 C   0  0  0  0  0  0  0  0  0  0  0  0
  -18.7800  -29.8750   23.7610 C   0  0  0  0  0  3  0  0  0  0  0  0
  -17.5400  -30.4680   24.0610 C   0  0  0  0  0  3  0  0  0  0  0  0
  -16.3480  -29.8560   23.6400 C   0  0  0  0  0  3  0  0  0  0  0  0
  -16.3970  -28.6550   22.9090 C   0  0  0  0  0  3  0  0  0  0  0  0
  -25.6020  -31.9990   23.6260 C   0  0  0  0  0  3  0  0  0  0  0  0
  -25.3210  -33.3830   24.0310 N   0  0  0  0  0  0  0  0  0  0  0  0
  -25.6930  -34.4670   23.3380 C   0  0  0  0  0  0  0  0  0  0  0  0
  -26.3800  -34.4060   22.3140 O   0  0  0  0  0  0  0  0  0  0  0  0
  -24.7150  -33.5100   24.8310 H   0  0  0  0  0  0  0  0  0  0  0  0
  -24.0140  -36.3160   23.0530 C   0  0  0  0  0  1  0  0  0  0  0  0
  -25.2290  -35.8380   23.8650 C   0  0  0  0  0  3  0  0  0  0  0  0
  -27.3600  -36.6280   24.7940 C   0  0  0  0  0  1  0  0  0  0  0  0
  -26.2870  -36.8710   23.8330 N   0  0  0  0  0  0  0  0  0  0  0  0
  -25.8970  -37.7910   24.0180 H   0  0  0  0  0  0  0  0  0  0  0  0
  -26.0890  -31.1410   24.8570 C   0  0  1  0  0  0  0  0  0  0  0  0
  -24.9790  -30.8680   25.9000 C   0  0  0  0  0  1  0  0  0  0  0  0
  -26.6420  -29.7760   24.3880 C   0  0  0  0  0  1  0  0  0  0  0  0
  -27.2540  -31.8660   25.5730 C   0  0  0  0  0  1  0  0  0  0  0  0
  1  2  1  0
  2  3  1  0
  3  4  1  0
  3  6  1  0
  5  3  1  0
  6  7  1  0
  8  7  1  0
  8  9  1  0
 10  9  1  0
 10 11  1  0
 12 11  1  0
 12 14  1  0
 12 15  1  0
 13 12  1  0
 16 15  1  0
 16 17  1  0
 18 26  1  0
 19 24  1  0
 20 21  1  0
 20 19  1  0
 22 21  1  0
 22 31  1  0
 22 23  1  0
 24 18  1  0
 24 23  1  0
 25 18  2  0
 26 17  1  0
 26 27  1  0
 28 29  2  0
 29 48  1  0
 30 29  1  0
 30 33  1  0
 31 32  1  0
 31 28  1  0
 32 30  2  0
 33 34  1  0
 34 35  2  0
 36 39  1  0
 36 35  1  0
 37 36  2  0
 38 37  1  0
 38 33  2  0
 39 40  1  0
 40 45  2  0
 40 41  1  0
 41 42  2  0
 42 43  1  0
 43 47  1  0
 44 43  2  0
 45 44  1  0
 46 45  1  0
 48 49  1  0
 49 52  1  0
 49 51  1  0
 50 48  2  0
 53 28  1  0
 53 54  1  0
 55 53  1  0
 56 59  1  0
 56  1  1  0
 57 58  1  0
 57 59  1  0
 58 62  1  0
 59 61  1  0
 60 58  1  0
 62 63  1  0
 63 64  1  0
 64 66  1  0
 64 67  1  0
 65 64  1  0
 67 68  1  0
 68 69  1  0
 69 71  1  0
 70 81  2  0
 71 76  1  0
 72 80  1  0
 72 82  1  0
 73 79  1  0
 73 75  1  0
 74 80  1  0
 75 74  1  0
 76 75  2  0
 77 78  1  0
 77 71  2  0
 78 73  2  0
 79 72  1  0
 80 70  1  0
 82 84  2  0
 83 82  1  0
 85 83  1  0
 86 95  2  0
 86 91  1  0
 87 83  1  0
 87 91  1  0
 88 87  1  0
 89 90  1  0
 89 88  1  0
 90 86  1  0
 91 92  2  0
 92 93  1  0
 94 93  2  0
 95 94  1  0
 96 70  1  0
 96 97  1  0
 96106  1  0
 97100  1  0
 98102  1  0
 98 97  1  0
 99 98  2  0
102101  1  0
104102  1  0
104105  1  0
104103  1  0
106109  1  1
106107  1  0
108106  1  0
M  ISO  4  18 100  26 100  68 101  69 101
M  END
>  <TORSDO>  (84) 
F 35

>  <SCORE>  (84) 
-7.548

>  <name>  (84) 
91

>  <ligand_id>  (84) 
91

>  <original_smiles>  (84) 
[H]C(N([H])C([H])([H])C([H])([H])[N+]([H])([H])C([H])([H])C([H])([H])Oc1c([H])c([H])c2c(c1[H])C([H])([H])N(C(=O)C([H])(N([H])C(=O)C([H])(N([H])C([H])([H])[H])C([H])([H])[H])C(C([H])([H])[H])(C([H])([H])[H])C([H])([H])[H])C([H])(C(=O)N([H])C1([H])c3c([H])c([H])c([H])c([H])c3C([H])([H])C([H])([H])C1([H])[H])C2([H])[H])=[N+]([H])C([H])([H])C([H])([H])C([H])([H])[N+]([H])([H])C([H])([H])C([H])([H])OC([H])([H])C([H])([H])C([H])([H])[N+]([H])([H])C([H])([H])C([H])([H])C([H])([H])N([H])C(=O)N1C([H])([H])C([H])([H])C([H])([H])C([H])(n2nc(-c3c([H])c([H])c(Oc4c([H])c([H])c(F)c([H])c4F)c([H])c3[H])c(C(=O)N([H])[H])c2N([H])[H])C1([H])[H]

>  <smiles>  (84) 
[H]C(N([H])C([H])([H])C([H])([H])[N+]([H])([H])C([H])([H])C([H])([H])Oc1c([H])c([H])c2c(c1[H])C([H])([H])N(C(=O)C([H])(N([H])C(=O)C([H])(N([H])C([H])([H])[H])C([H])([H])[H])C(C([H])([H])[H])(C([H])([H])[H])C([H])([H])[H])C([H])(C(=O)N([H])C1([H])c3c([H])c([H])c([H])c([H])c3C([H])([H])C([H])([H])C1([H])[H])C2([H])[H])=[N+]([H])C([H])([H])C([H])([H])C([H])([H])[N+]([H])([H])C([H])([H])C([H])([H])OC([H])([H])C([H])([H])C([H])([H])[N+]([H])([H])C([H])([H])C([H])([H])C([H])([H])N([H])C(=O)N1C([H])([H])C([H])([H])C([H])([H])C([H])(n2nc(-c3c([H])c([H])c(Oc4c([H])c([H])c(F)c([H])c4F)c([H])c3[H])c(C(=O)N([H])[H])c2N([H])[H])C1([H])[H]

$$$$
92:0:0
     RDKit          3D

 98105  0  0  1  0  0  0  0  0999 V2000
  -33.1410  -19.8920   21.7270 N   0  0  0  0  0  4  0  0  0  0  0  0
  -32.3220  -19.4300   22.0850 H   0  0  0  0  0  0  0  0  0  0  0  0
  -33.2440  -19.6300   20.7600 H   0  0  0  0  0  0  0  0  0  0  0  0
  -34.3030  -19.3960   22.4880 C   0  0  0  0  0  2  0  0  0  0  0  0
  -33.8360  -17.1000   23.4310 C   0  0  0  0  0  3  0  0  0  0  0  0
  -34.2860  -17.8840   22.4350 C   0  0  0  0  0  3  0  0  0  0  0  0
  -33.7680  -15.6650   23.2510 C   0  0  0  0  0  0  0  0  0  0  0  0
  -32.7770  -15.1450   23.9800 N   0  0  0  0  0  0  0  0  0  0  0  0
  -34.4580  -15.0020   22.4750 O   0  0  0  0  0  0  0  0  0  0  0  0
  -32.2960  -15.7680   24.6150 H   0  0  0  0  0  0  0  0  0  0  0  0
  -32.2040  -13.8110   23.8190 C   0  0  0  0  0  2  0  0  0  0  0  0
  -30.7770  -13.9030   23.2430 C   0  0  0  0  0  2  0  0  0  0  0  0
  -30.8520  -14.2460   20.7800 C   0  0  0  0  0  0  0  0  0  0  0  0
  -30.4070  -12.2750   19.3730 C   0  0  0  0  0  2  0  0  0  0  0  0
  -29.4710  -12.5350   18.1830 C   0  0  0  0  0  2  0  0  0  0  0  0
  -28.0020  -12.3800   18.6070 C   0  0  0  0  0  2  0  0  0  0  0  0
  -27.6660  -13.2050   19.8720 C   0  0  0  0  0  3  0  0  0  0  0  0
  -28.7000  -12.9610   20.9910 C   0  0  0  0  0  2  0  0  0  0  0  0
  -30.0630  -13.1870   20.4710 N   0  0  0  0  0  0  0  0  0  0  0  0
  -31.7040  -14.7120   20.0210 O   0  0  0  0  0  0  0  0  0  0  0  0
  -30.7360  -14.7240   22.0260 N   0  0  0  0  0  0  0  0  0  0  0  0
  -31.1890  -15.6170   22.1430 H   0  0  0  0  0  0  0  0  0  0  0  0
  -25.2610  -13.8160   20.5660 C   0  0  0  0  0  0  0  0  0  0  0  0
  -24.1850  -13.0440   20.9160 C   0  0  0  0  0  0  0  0  0  0  0  0
  -24.6390  -11.6900   20.8720 C   0  0  0  0  0  0  0  0  0  0  0  0
  -26.3050  -12.9330   20.3330 N   0  0  0  0  0  0  0  0  0  0  0  0
  -25.9320  -11.6490   20.5740 N   0  0  0  0  0  0  0  0  0  0  0  0
  -23.9050  -10.4290   21.0400 C   0  0  0  0  0  0  0  0  0  0  0  0
  -24.3610   -9.4210   21.9180 C   0  0  0  0  0  3  0  0  0  0  0  0
  -23.6290   -8.2240   22.0760 C   0  0  0  0  0  3  0  0  0  0  0  0
  -22.4270   -8.0270   21.3550 C   0  0  0  0  0  0  0  0  0  0  0  0
  -21.9910   -9.0240   20.4640 C   0  0  0  0  0  3  0  0  0  0  0  0
  -22.7220  -10.2120   20.3050 C   0  0  0  0  0  3  0  0  0  0  0  0
  -21.6640   -6.8870   21.4240 O   0  0  0  0  0  0  0  0  0  0  0  0
  -21.6860   -6.0740   22.5280 C   0  0  0  0  0  0  0  0  0  0  0  0
  -21.4020   -6.5640   23.8220 C   0  0  0  0  0  3  0  0  0  0  0  0
  -21.3660   -5.6800   24.9180 C   0  0  0  0  0  3  0  0  0  0  0  0
  -21.6030   -4.3060   24.7230 C   0  0  0  0  0  0  0  0  0  0  0  0
  -21.8820   -3.8150   23.4360 C   0  0  0  0  0  3  0  0  0  0  0  0
  -21.9200   -4.6960   22.3410 C   0  0  0  0  0  0  0  0  0  0  0  0
  -22.1670   -4.2140   21.1000 F   0  0  0  0  0  0  0  0  0  0  0  0
  -21.5620   -3.4540   25.7750 F   0  0  0  0  0  0  0  0  0  0  0  0
  -22.7880  -13.5240   21.1850 C   0  0  0  0  0  0  0  0  0  0  0  0
  -22.0520  -12.8220   22.0390 N   0  0  0  0  0  0  0  0  0  0  0  0
  -22.3570  -14.5560   20.6720 O   0  0  0  0  0  0  0  0  0  0  0  0
  -22.4150  -11.9870   22.4730 H   0  0  0  0  0  0  0  0  0  0  0  0
  -21.1140  -13.1240   22.2610 H   0  0  0  0  0  0  0  0  0  0  0  0
  -25.4370  -15.1870   20.4100 N   0  0  0  0  0  0  0  0  0  0  0  0
  -24.6810  -15.8520   20.5270 H   0  0  0  0  0  0  0  0  0  0  0  0
  -26.3040  -15.6190   20.1120 H   0  0  0  0  0  0  0  0  0  0  0  0
  -32.9060  -21.3430   21.8050 C   0  0  0  0  0  2  0  0  0  0  0  0
  -31.5540  -21.7010   21.1600 C   0  0  0  0  0  2  0  0  0  0  0  0
  -31.3160  -23.1380   21.2010 N   0  0  0  0  0  0  0  0  0  0  0  0
  -31.3480  -23.4560   22.1680 H   0  0  0  0  0  0  0  0  0  0  0  0
  -30.0020  -23.4410   20.6450 C   0  0  0  0  0  2  0  0  0  0  0  0
  -29.8090  -24.9610   20.6180 C   0  0  0  0  0  2  0  0  0  0  0  0
  -28.4470  -25.3950   20.0610 C   0  0  0  0  0  2  0  0  0  0  0  0
  -28.4470  -26.8140   20.0870 O   0  0  0  0  0  0  0  0  0  0  0  0
  -24.6110  -31.8700   23.2110 C   0  0  0  0  0  0  0  0  0  0  0  0
  -27.2420  -27.4720   20.0920 C   0  0  0  0  0  0  0  0  0  0  0  0
  -23.3960  -30.4920   21.5510 C   0  0  0  0  0  3  0  0  0  0  0  0
  -24.8410  -28.9570   20.1180 C   0  0  0  0  0  0  0  0  0  0  0  0
  -25.9190  -30.8480   21.3560 C   0  0  0  0  0  2  0  0  0  0  0  0
  -25.9970  -29.4830   20.7070 C   0  0  0  0  0  0  0  0  0  0  0  0
  -27.1980  -28.7480   20.6880 C   0  0  0  0  0  3  0  0  0  0  0  0
  -26.0680  -26.9440   19.5060 C   0  0  0  0  0  3  0  0  0  0  0  0
  -24.8700  -27.6850   19.5170 C   0  0  0  0  0  3  0  0  0  0  0  0
  -23.6010  -29.8200   20.1670 C   0  0  0  0  0  2  0  0  0  0  0  0
  -24.6600  -31.0840   22.0990 N   0  0  0  0  0  0  0  0  0  0  0  0
  -23.5310  -32.1430   23.7540 O   0  0  0  0  0  0  0  0  0  0  0  0
  -22.7380  -29.4660   22.5010 C   0  0  0  0  0  0  0  0  0  0  0  0
  -21.4120  -29.3020   22.3750 N   0  0  0  0  0  0  0  0  0  0  0  0
  -23.4170  -28.8220   23.3050 O   0  0  0  0  0  0  0  0  0  0  0  0
  -20.9270  -29.8750   21.6980 H   0  0  0  0  0  0  0  0  0  0  0  0
  -18.0260  -28.1370   22.8490 C   0  0  0  0  0  0  0  0  0  0  0  0
  -20.5850  -28.3650   23.1340 C   0  0  0  0  0  3  0  0  0  0  0  0
  -20.6750  -26.9390   22.5430 C   0  0  0  0  0  2  0  0  0  0  0  0
  -19.5740  -26.6380   21.5210 C   0  0  0  0  0  2  0  0  0  0  0  0
  -18.1910  -26.7920   22.1610 C   0  0  0  0  0  2  0  0  0  0  0  0
  -19.1510  -28.8830   23.2910 C   0  0  0  0  0  0  0  0  0  0  0  0
  -18.9440  -30.1430   23.8920 C   0  0  0  0  0  3  0  0  0  0  0  0
  -17.6450  -30.6580   24.0570 C   0  0  0  0  0  3  0  0  0  0  0  0
  -16.5340  -29.9080   23.6330 C   0  0  0  0  0  3  0  0  0  0  0  0
  -16.7260  -28.6500   23.0340 C   0  0  0  0  0  3  0  0  0  0  0  0
  -25.9020  -32.4830   23.8400 C   0  0  0  0  0  3  0  0  0  0  0  0
  -25.5890  -33.8630   24.2330 N   0  0  0  0  0  0  0  0  0  0  0  0
  -25.9030  -34.9480   23.5130 C   0  0  0  0  0  0  0  0  0  0  0  0
  -26.5590  -34.8930   22.4700 O   0  0  0  0  0  0  0  0  0  0  0  0
  -25.0060  -33.9800   25.0490 H   0  0  0  0  0  0  0  0  0  0  0  0
  -24.1480  -36.7310   23.2640 C   0  0  0  0  0  1  0  0  0  0  0  0
  -25.4100  -36.3120   24.0340 C   0  0  0  0  0  3  0  0  0  0  0  0
  -27.5580  -37.1810   24.8460 C   0  0  0  0  0  1  0  0  0  0  0  0
  -26.4290  -37.3800   23.9410 N   0  0  0  0  0  0  0  0  0  0  0  0
  -26.0180  -38.2880   24.1420 H   0  0  0  0  0  0  0  0  0  0  0  0
  -26.4470  -31.6600   25.0700 C   0  0  1  0  0  0  0  0  0  0  0  0
  -25.3750  -31.3670   26.1460 C   0  0  0  0  0  1  0  0  0  0  0  0
  -27.0300  -30.3050   24.6040 C   0  0  0  0  0  1  0  0  0  0  0  0
  -27.6050  -32.4310   25.7470 C   0  0  0  0  0  1  0  0  0  0  0  0
  1 51  1  0
  1  2  1  0
  1  4  1  0
  3  1  1  0
  6  4  1  0
  6  5  2  0
  7  5  1  0
  7  8  1  0
  8 10  1  0
  9  7  2  0
 11  8  1  0
 12 11  1  0
 13 21  1  0
 14 19  1  0
 15 16  1  0
 15 14  1  0
 17 16  1  0
 17 26  1  0
 17 18  1  0
 19 13  1  0
 19 18  1  0
 20 13  2  0
 21 22  1  0
 21 12  1  0
 23 24  2  0
 24 43  1  0
 25 24  1  0
 25 28  1  0
 26 23  1  0
 26 27  1  0
 27 25  2  0
 28 29  1  0
 29 30  2  0
 31 34  1  0
 31 30  1  0
 32 31  2  0
 33 32  1  0
 33 28  2  0
 34 35  1  0
 35 36  1  0
 36 37  2  0
 38 37  1  0
 38 42  1  0
 39 38  2  0
 40 35  2  0
 40 39  1  0
 41 40  1  0
 43 44  1  0
 44 47  1  0
 44 46  1  0
 45 43  2  0
 48 49  1  0
 48 23  1  0
 50 48  1  0
 52 53  1  0
 52 51  1  0
 53 54  1  0
 55 53  1  0
 56 55  1  0
 57 58  1  0
 57 56  1  0
 58 60  1  0
 59 70  2  0
 60 65  1  0
 61 69  1  0
 61 71  1  0
 62 68  1  0
 62 64  1  0
 63 69  1  0
 64 63  1  0
 65 64  2  0
 66 67  1  0
 66 60  2  0
 67 62  2  0
 68 61  1  0
 69 59  1  0
 71 73  2  0
 72 71  1  0
 74 72  1  0
 75 84  2  0
 75 80  1  0
 76 72  1  0
 76 80  1  0
 77 76  1  0
 78 79  1  0
 78 77  1  0
 79 75  1  0
 80 81  2  0
 81 82  1  0
 83 82  2  0
 84 83  1  0
 85 59  1  0
 85 86  1  0
 85 95  1  0
 86 89  1  0
 87 91  1  0
 87 86  1  0
 88 87  2  0
 91 90  1  0
 93 91  1  0
 93 94  1  0
 93 92  1  0
 95 98  1  1
 95 96  1  0
 97 95  1  0
M  ISO  4  13 100  21 100  57 101  58 101
M  END
>  <TORSDO>  (85) 
F 27

>  <SCORE>  (85) 
23.922

>  <name>  (85) 
92

>  <ligand_id>  (85) 
92

>  <original_smiles>  (85) 
[H]C(C(=O)N([H])C([H])([H])C([H])([H])N([H])C(=O)N1C([H])([H])C([H])([H])C([H])([H])C([H])(n2nc(-c3c([H])c([H])c(Oc4c([H])c([H])c(F)c([H])c4F)c([H])c3[H])c(C(=O)N([H])[H])c2N([H])[H])C1([H])[H])=C([H])C([H])([H])[N+]([H])([H])C([H])([H])C([H])([H])N([H])C([H])([H])C([H])([H])C([H])([H])Oc1c([H])c([H])c2c(c1[H])C([H])([H])N(C(=O)C([H])(N([H])C(=O)C([H])(N([H])C([H])([H])[H])C([H])([H])[H])C(C([H])([H])[H])(C([H])([H])[H])C([H])([H])[H])C([H])(C(=O)N([H])C1([H])c3c([H])c([H])c([H])c([H])c3C([H])([H])C([H])([H])C1([H])[H])C2([H])[H]

>  <smiles>  (85) 
[H]C(C(=O)N([H])C([H])([H])C([H])([H])N([H])C(=O)N1C([H])([H])C([H])([H])C([H])([H])C([H])(n2nc(-c3c([H])c([H])c(Oc4c([H])c([H])c(F)c([H])c4F)c([H])c3[H])c(C(=O)N([H])[H])c2N([H])[H])C1([H])[H])=C([H])C([H])([H])[N+]([H])([H])C([H])([H])C([H])([H])N([H])C([H])([H])C([H])([H])C([H])([H])Oc1c([H])c([H])c2c(c1[H])C([H])([H])N(C(=O)C([H])(N([H])C(=O)C([H])(N([H])C([H])([H])[H])C([H])([H])[H])C(C([H])([H])[H])(C([H])([H])[H])C([H])([H])[H])C([H])(C(=O)N([H])C1([H])c3c([H])c([H])c([H])c([H])c3C([H])([H])C([H])([H])C1([H])[H])C2([H])[H]

$$$$
94:0:0
     RDKit          3D

101108  0  0  1  0  0  0  0  0999 V2000
  -28.4720  -21.7490   21.0890 C   0  0  0  0  0  3  0  0  0  0  0  0
  -29.6500  -22.3580   21.3560 C   0  0  0  0  0  3  0  0  0  0  0  0
  -29.8410  -23.7880   21.4680 C   0  0  0  0  0  0  0  0  0  0  0  0
  -28.7180  -24.5170   21.4240 N   0  0  0  0  0  0  0  0  0  0  0  0
  -30.9540  -24.2990   21.5920 O   0  0  0  0  0  0  0  0  0  0  0  0
  -27.8370  -24.0260   21.3550 H   0  0  0  0  0  0  0  0  0  0  0  0
  -28.6940  -25.9710   21.2560 C   0  0  0  0  0  2  0  0  0  0  0  0
  -28.1230  -26.3300   19.8780 C   0  0  0  0  0  2  0  0  0  0  0  0
  -28.7180  -25.4580   18.9140 O   0  0  0  0  0  0  0  0  0  0  0  0
  -28.0430  -25.3970   17.6660 C   0  0  0  0  0  2  0  0  0  0  0  0
  -28.4040  -26.5780   16.7490 C   0  0  0  0  0  2  0  0  0  0  0  0
  -27.2910  -26.8230   15.8940 O   0  0  0  0  0  0  0  0  0  0  0  0
  -24.8190  -29.7920   21.8330 C   0  0  0  0  0  0  0  0  0  0  0  0
  -26.2070  -27.3220   16.5660 C   0  0  0  0  0  0  0  0  0  0  0  0
  -23.1000  -28.9720   20.2470 C   0  0  0  0  0  3  0  0  0  0  0  0
  -23.9630  -28.3080   17.9440 C   0  0  0  0  0  0  0  0  0  0  0  0
  -25.3910  -29.7410   19.4180 C   0  0  0  0  0  2  0  0  0  0  0  0
  -25.2470  -28.7450   18.2940 C   0  0  0  0  0  0  0  0  0  0  0  0
  -26.3720  -28.2550   17.6070 C   0  0  0  0  0  3  0  0  0  0  0  0
  -24.9120  -26.8960   16.2050 C   0  0  0  0  0  3  0  0  0  0  0  0
  -23.7870  -27.3780   16.9020 C   0  0  0  0  0  3  0  0  0  0  0  0
  -22.8120  -28.8980   18.7230 C   0  0  0  0  0  2  0  0  0  0  0  0
  -24.4730  -29.4940   20.5500 N   0  0  0  0  0  0  0  0  0  0  0  0
  -23.9980  -29.6870   22.7560 O   0  0  0  0  0  0  0  0  0  0  0  0
  -22.8240  -27.5840   20.8670 C   0  0  0  0  0  0  0  0  0  0  0  0
  -21.5370  -27.2100   20.9440 N   0  0  0  0  0  0  0  0  0  0  0  0
  -23.7530  -26.8620   21.2390 O   0  0  0  0  0  0  0  0  0  0  0  0
  -20.8350  -27.8620   20.6260 H   0  0  0  0  0  0  0  0  0  0  0  0
  -18.5500  -25.2320   21.3980 C   0  0  0  0  0  0  0  0  0  0  0  0
  -21.0370  -25.9360   21.4570 C   0  0  0  0  0  3  0  0  0  0  0  0
  -21.2810  -24.7950   20.4410 C   0  0  0  0  0  2  0  0  0  0  0  0
  -20.0910  -24.5570   19.5050 C   0  0  0  0  0  2  0  0  0  0  0  0
  -18.8350  -24.2100   20.3090 C   0  0  0  0  0  2  0  0  0  0  0  0
  -19.5820  -26.0520   21.9250 C   0  0  0  0  0  0  0  0  0  0  0  0
  -19.2560  -27.0130   22.9110 C   0  0  0  0  0  3  0  0  0  0  0  0
  -17.9320  -27.1570   23.3660 C   0  0  0  0  0  3  0  0  0  0  0  0
  -16.9190  -26.3300   22.8510 C   0  0  0  0  0  3  0  0  0  0  0  0
  -17.2280  -25.3660   21.8740 C   0  0  0  0  0  3  0  0  0  0  0  0
  -26.2470  -30.3070   22.2020 C   0  0  0  0  0  3  0  0  0  0  0  0
  -26.0930  -31.3450   23.2300 N   0  0  0  0  0  0  0  0  0  0  0  0
  -26.2190  -32.6610   23.0030 C   0  0  0  0  0  0  0  0  0  0  0  0
  -26.5560  -33.1230   21.9110 O   0  0  0  0  0  0  0  0  0  0  0  0
  -25.7710  -31.0470   24.1390 H   0  0  0  0  0  0  0  0  0  0  0  0
  -24.5410  -34.2470   23.9930 C   0  0  0  0  0  1  0  0  0  0  0  0
  -25.9290  -33.6150   24.1780 C   0  0  0  0  0  3  0  0  0  0  0  0
  -28.2400  -34.1740   24.7880 C   0  0  0  0  0  1  0  0  0  0  0  0
  -26.9460  -34.6780   24.3380 N   0  0  0  0  0  0  0  0  0  0  0  0
  -26.6290  -35.3770   25.0030 H   0  0  0  0  0  0  0  0  0  0  0  0
  -27.2120  -29.1610   22.6990 C   0  0  1  0  0  0  0  0  0  0  0  0
  -26.6080  -28.2840   23.8200 C   0  0  0  0  0  1  0  0  0  0  0  0
  -27.5970  -28.2300   21.5250 C   0  0  0  0  0  1  0  0  0  0  0  0
  -28.5320  -29.7760   23.2240 C   0  0  0  0  0  1  0  0  0  0  0  0
  -28.4710  -20.3050   21.0120 C   0  0  0  0  0  0  0  0  0  0  0  0
  -27.6530  -19.8130   20.0720 N   0  0  0  0  0  0  0  0  0  0  0  0
  -29.1940  -19.5670   21.6810 O   0  0  0  0  0  0  0  0  0  0  0  0
  -27.0740  -20.4660   19.5590 H   0  0  0  0  0  0  0  0  0  0  0  0
  -27.5040  -18.3940   19.7360 C   0  0  0  0  0  2  0  0  0  0  0  0
  -28.8100  -17.7450   19.2130 C   0  0  0  0  0  2  0  0  0  0  0  0
  -29.7660  -17.4850   20.3080 N   0  0  0  0  0  4  0  0  0  0  0  0
  -29.4970  -16.6370   20.7760 H   0  0  0  0  0  0  0  0  0  0  0  0
  -29.6580  -18.2150   21.0080 H   0  0  0  0  0  0  0  0  0  0  0  0
  -31.1830  -17.3410   19.9360 C   0  0  0  0  0  2  0  0  0  0  0  0
  -31.8340  -16.2560   20.8170 C   0  0  0  0  0  2  0  0  0  0  0  0
  -31.3520  -14.0950   19.7090 C   0  0  0  0  0  0  0  0  0  0  0  0
  -30.8350  -11.8680   18.8150 C   0  0  0  0  0  2  0  0  0  0  0  0
  -29.8140  -11.9200   17.6650 C   0  0  0  0  0  2  0  0  0  0  0  0
  -28.3790  -11.8790   18.2160 C   0  0  0  0  0  2  0  0  0  0  0  0
  -28.1440  -12.9220   19.3370 C   0  0  0  0  0  3  0  0  0  0  0  0
  -29.2660  -12.8570   20.4010 C   0  0  0  0  0  2  0  0  0  0  0  0
  -30.5760  -12.9870   19.7320 N   0  0  0  0  0  0  0  0  0  0  0  0
  -32.2460  -14.2910   18.8840 O   0  0  0  0  0  0  0  0  0  0  0  0
  -31.1300  -14.9740   20.6940 N   0  0  0  0  0  0  0  0  0  0  0  0
  -30.4790  -14.7040   21.4200 H   0  0  0  0  0  0  0  0  0  0  0  0
  -25.8930  -13.7310   20.3020 C   0  0  0  0  0  0  0  0  0  0  0  0
  -24.7930  -13.0510   20.7530 C   0  0  0  0  0  0  0  0  0  0  0  0
  -25.1080  -11.6650   20.6210 C   0  0  0  0  0  0  0  0  0  0  0  0
  -26.8180  -12.7640   19.9370 N   0  0  0  0  0  0  0  0  0  0  0  0
  -26.3500  -11.5130   20.1830 N   0  0  0  0  0  0  0  0  0  0  0  0
  -24.2790  -10.4720   20.8360 C   0  0  0  0  0  0  0  0  0  0  0  0
  -24.6530   -9.4670   21.7550 C   0  0  0  0  0  3  0  0  0  0  0  0
  -23.8280   -8.3390   21.9570 C   0  0  0  0  0  3  0  0  0  0  0  0
  -22.6170   -8.2080   21.2380 C   0  0  0  0  0  0  0  0  0  0  0  0
  -22.2610   -9.2000   20.3070 C   0  0  0  0  0  3  0  0  0  0  0  0
  -23.0840  -10.3190   20.1030 C   0  0  0  0  0  3  0  0  0  0  0  0
  -21.7670   -7.1340   21.3500 O   0  0  0  0  0  0  0  0  0  0  0  0
  -21.6340   -6.4420   22.5260 C   0  0  0  0  0  0  0  0  0  0  0  0
  -21.2040   -7.0690   23.7160 C   0  0  0  0  0  3  0  0  0  0  0  0
  -21.0140   -6.3060   24.8850 C   0  0  0  0  0  3  0  0  0  0  0  0
  -21.2440   -4.9170   24.8670 C   0  0  0  0  0  0  0  0  0  0  0  0
  -21.6670   -4.2890   23.6810 C   0  0  0  0  0  3  0  0  0  0  0  0
  -21.8590   -5.0510   22.5140 C   0  0  0  0  0  0  0  0  0  0  0  0
  -22.2460   -4.4370   21.3700 F   0  0  0  0  0  0  0  0  0  0  0  0
  -21.0540   -4.1820   25.9870 F   0  0  0  0  0  0  0  0  0  0  0  0
  -23.4860  -13.6510   21.1840 C   0  0  0  0  0  0  0  0  0  0  0  0
  -22.7870  -12.9960   22.1070 N   0  0  0  0  0  0  0  0  0  0  0  0
  -23.0990  -14.7310   20.7430 O   0  0  0  0  0  0  0  0  0  0  0  0
  -23.1130  -12.1200   22.4860 H   0  0  0  0  0  0  0  0  0  0  0  0
  -21.9110  -13.3780   22.4370 H   0  0  0  0  0  0  0  0  0  0  0  0
  -26.1740  -15.0840   20.1480 N   0  0  0  0  0  0  0  0  0  0  0  0
  -25.4650  -15.7910   20.3100 H   0  0  0  0  0  0  0  0  0  0  0  0
  -26.9650  -15.4210   19.6200 H   0  0  0  0  0  0  0  0  0  0  0  0
  1  2  2  0
  2  3  1  0
  3  5  2  0
  4  3  1  0
  6  4  1  0
  7  4  1  0
  8  7  1  0
  9  8  1  0
 10  9  1  0
 11 10  1  0
 12 14  1  0
 12 11  1  0
 13 24  2  0
 14 19  1  0
 15 23  1  0
 15 25  1  0
 16 18  1  0
 16 22  1  0
 17 23  1  0
 18 17  1  0
 19 18  2  0
 20 14  2  0
 20 21  1  0
 21 16  2  0
 22 15  1  0
 23 13  1  0
 25 26  1  0
 25 27  2  0
 28 26  1  0
 29 38  2  0
 29 34  1  0
 30 26  1  0
 30 34  1  0
 31 30  1  0
 32 33  1  0
 32 31  1  0
 33 29  1  0
 34 35  2  0
 35 36  1  0
 37 36  2  0
 38 37  1  0
 39 13  1  0
 39 49  1  0
 39 40  1  0
 40 43  1  0
 41 40  1  0
 41 45  1  0
 42 41  2  0
 45 44  1  0
 45 47  1  0
 47 46  1  0
 47 48  1  0
 49 52  1  1
 49 50  1  0
 51 49  1  0
 53  1  1  0
 53 55  2  0
 54 53  1  0
 56 54  1  0
 57 54  1  0
 58 57  1  0
 58 59  1  0
 59 60  1  0
 59 61  1  0
 62 59  1  0
 62 63  1  0
 64 70  1  0
 64 72  1  0
 65 70  1  0
 66 67  1  0
 66 65  1  0
 68 67  1  0
 68 77  1  0
 68 69  1  0
 70 69  1  0
 71 64  2  0
 72 63  1  0
 72 73  1  0
 74 75  2  0
 75 94  1  0
 76 75  1  0
 76 79  1  0
 77 78  1  0
 77 74  1  0
 78 76  2  0
 79 80  1  0
 80 81  2  0
 82 85  1  0
 82 81  1  0
 83 82  2  0
 84 83  1  0
 84 79  2  0
 85 86  1  0
 86 87  1  0
 87 88  2  0
 89 88  1  0
 89 93  1  0
 90 89  2  0
 91 86  2  0
 91 90  1  0
 92 91  1  0
 94 95  1  0
 95 98  1  0
 95 97  1  0
 96 94  2  0
 99 74  1  0
 99100  1  0
101 99  1  0
M  ISO  4  11 101  12 101  64 100  72 100
M  END
>  <TORSDO>  (86) 
F 28

>  <SCORE>  (86) 
-7.634

>  <name>  (86) 
94

>  <ligand_id>  (86) 
94

>  <original_smiles>  (86) 
[H]C(C(=O)N([H])C([H])([H])C([H])([H])OC([H])([H])C([H])([H])Oc1c([H])c([H])c2c(c1[H])C([H])([H])N(C(=O)C([H])(N([H])C(=O)C([H])(N([H])C([H])([H])[H])C([H])([H])[H])C(C([H])([H])[H])(C([H])([H])[H])C([H])([H])[H])C([H])(C(=O)N([H])C1([H])c3c([H])c([H])c([H])c([H])c3C([H])([H])C([H])([H])C1([H])[H])C2([H])[H])=C([H])C(=O)N([H])C([H])([H])C([H])([H])[N+]([H])([H])C([H])([H])C([H])([H])N([H])C(=O)N1C([H])([H])C([H])([H])C([H])([H])C([H])(n2nc(-c3c([H])c([H])c(Oc4c([H])c([H])c(F)c([H])c4F)c([H])c3[H])c(C(=O)N([H])[H])c2N([H])[H])C1([H])[H]

>  <smiles>  (86) 
[H]C(C(=O)N([H])C([H])([H])C([H])([H])OC([H])([H])C([H])([H])Oc1c([H])c([H])c2c(c1[H])C([H])([H])N(C(=O)C([H])(N([H])C(=O)C([H])(N([H])C([H])([H])[H])C([H])([H])[H])C(C([H])([H])[H])(C([H])([H])[H])C([H])([H])[H])C([H])(C(=O)N([H])C1([H])c3c([H])c([H])c([H])c([H])c3C([H])([H])C([H])([H])C1([H])[H])C2([H])[H])=C([H])C(=O)N([H])C([H])([H])C([H])([H])[N+]([H])([H])C([H])([H])C([H])([H])N([H])C(=O)N1C([H])([H])C([H])([H])C([H])([H])C([H])(n2nc(-c3c([H])c([H])c(Oc4c([H])c([H])c(F)c([H])c4F)c([H])c3[H])c(C(=O)N([H])[H])c2N([H])[H])C1([H])[H]

$$$$
95:0:0
     RDKit          3D

112119  0  0  1  0  0  0  0  0999 V2000
  -18.6150  -23.3490   19.2510 N   0  0  0  0  0  4  0  0  0  0  0  0
  -19.6050  -23.4360   19.4430 H   0  0  0  0  0  0  0  0  0  0  0  0
  -18.5040  -22.5520   18.6390 H   0  0  0  0  0  0  0  0  0  0  0  0
  -18.2440  -24.5770   18.5060 C   0  0  0  0  0  2  0  0  0  0  0  0
  -19.2160  -24.7560   17.3310 C   0  0  0  0  0  2  0  0  0  0  0  0
  -20.5120  -24.5450   17.8920 O   0  0  0  0  0  0  0  0  0  0  0  0
  -21.5230  -24.1970   16.9570 C   0  0  0  0  0  2  0  0  0  0  0  0
  -22.4470  -23.2250   17.7030 C   0  0  0  0  0  2  0  0  0  0  0  0
  -23.5610  -22.6160   16.8410 C   0  0  0  0  0  2  0  0  0  0  0  0
  -24.2520  -21.4510   17.5660 C   0  0  0  0  0  2  0  0  0  0  0  0
  -25.2920  -20.7360   16.6940 C   0  0  0  0  0  2  0  0  0  0  0  0
  -25.7980  -19.4170   17.3050 C   0  0  0  0  0  2  0  0  0  0  0  0
  -26.7240  -19.6130   18.4470 N   0  0  0  0  0  4  0  0  0  0  0  0
  -26.3040  -20.2190   19.1330 H   0  0  0  0  0  0  0  0  0  0  0  0
  -27.5590  -20.0600   18.1040 H   0  0  0  0  0  0  0  0  0  0  0  0
  -27.0790  -18.3300   19.0900 C   0  0  0  0  0  2  0  0  0  0  0  0
  -28.3640  -18.3510   19.9460 C   0  0  0  0  0  2  0  0  0  0  0  0
  -28.7030  -16.9150   20.3720 C   0  0  0  0  0  2  0  0  0  0  0  0
  -29.9930  -16.7010   21.1820 C   0  0  0  0  0  2  0  0  0  0  0  0
  -30.7260  -14.3880   20.6490 C   0  0  0  0  0  0  0  0  0  0  0  0
  -30.4410  -12.2790   19.4120 C   0  0  0  0  0  2  0  0  0  0  0  0
  -29.5070  -12.5200   18.2050 C   0  0  0  0  0  2  0  0  0  0  0  0
  -28.0250  -12.3900   18.6100 C   0  0  0  0  0  2  0  0  0  0  0  0
  -27.6780  -13.1910   19.8950 C   0  0  0  0  0  3  0  0  0  0  0  0
  -28.7190  -12.9110   21.0070 C   0  0  0  0  0  2  0  0  0  0  0  0
  -30.0660  -13.2140   20.4820 N   0  0  0  0  0  0  0  0  0  0  0  0
  -31.7610  -14.6860   20.0420 O   0  0  0  0  0  0  0  0  0  0  0  0
  -30.0960  -15.2680   21.4390 N   0  0  0  0  0  0  0  0  0  0  0  0
  -29.3570  -14.8730   22.0040 H   0  0  0  0  0  0  0  0  0  0  0  0
  -25.2650  -13.8100   20.5660 C   0  0  0  0  0  0  0  0  0  0  0  0
  -24.1880  -13.0430   20.9170 C   0  0  0  0  0  0  0  0  0  0  0  0
  -24.6410  -11.6900   20.8740 C   0  0  0  0  0  0  0  0  0  0  0  0
  -26.3110  -12.9270   20.3420 N   0  0  0  0  0  0  0  0  0  0  0  0
  -25.9340  -11.6440   20.5800 N   0  0  0  0  0  0  0  0  0  0  0  0
  -23.9070  -10.4310   21.0410 C   0  0  0  0  0  0  0  0  0  0  0  0
  -24.3630   -9.4230   21.9190 C   0  0  0  0  0  3  0  0  0  0  0  0
  -23.6300   -8.2280   22.0770 C   0  0  0  0  0  3  0  0  0  0  0  0
  -22.4260   -8.0350   21.3580 C   0  0  0  0  0  0  0  0  0  0  0  0
  -21.9900   -9.0310   20.4660 C   0  0  0  0  0  3  0  0  0  0  0  0
  -22.7250  -10.2170   20.3060 C   0  0  0  0  0  3  0  0  0  0  0  0
  -21.6660   -6.8920   21.4270 O   0  0  0  0  0  0  0  0  0  0  0  0
  -21.6850   -6.0770   22.5300 C   0  0  0  0  0  0  0  0  0  0  0  0
  -21.4020   -6.5660   23.8240 C   0  0  0  0  0  3  0  0  0  0  0  0
  -21.3640   -5.6790   24.9190 C   0  0  0  0  0  3  0  0  0  0  0  0
  -21.6030   -4.3060   24.7220 C   0  0  0  0  0  0  0  0  0  0  0  0
  -21.8830   -3.8180   23.4340 C   0  0  0  0  0  3  0  0  0  0  0  0
  -21.9190   -4.7010   22.3410 C   0  0  0  0  0  0  0  0  0  0  0  0
  -22.1670   -4.2210   21.0980 F   0  0  0  0  0  0  0  0  0  0  0  0
  -21.5600   -3.4540   25.7720 F   0  0  0  0  0  0  0  0  0  0  0  0
  -22.7910  -13.5300   21.1810 C   0  0  0  0  0  0  0  0  0  0  0  0
  -22.0460  -12.8340   22.0340 N   0  0  0  0  0  0  0  0  0  0  0  0
  -22.3640  -14.5630   20.6660 O   0  0  0  0  0  0  0  0  0  0  0  0
  -22.4030  -12.0060   22.4850 H   0  0  0  0  0  0  0  0  0  0  0  0
  -21.1080  -13.1450   22.2460 H   0  0  0  0  0  0  0  0  0  0  0  0
  -25.4340  -15.1810   20.4100 N   0  0  0  0  0  0  0  0  0  0  0  0
  -24.6660  -15.8290   20.5470 H   0  0  0  0  0  0  0  0  0  0  0  0
  -26.3060  -15.6210   20.1530 H   0  0  0  0  0  0  0  0  0  0  0  0
  -17.9010  -23.1020   20.5230 C   0  0  0  0  0  2  0  0  0  0  0  0
  -18.5930  -21.9950   21.3420 C   0  0  0  0  0  2  0  0  0  0  0  0
  -19.8740  -22.4610   21.7780 O   0  0  0  0  0  0  0  0  0  0  0  0
  -20.4990  -21.5600   22.6950 C   0  0  0  0  0  2  0  0  0  0  0  0
  -21.8000  -22.1790   23.2590 C   0  0  0  0  0  2  0  0  0  0  0  0
  -22.8870  -22.2660   22.2460 N   0  0  0  0  0  4  0  0  0  0  0  0
  -23.0490  -21.3480   21.8630 H   0  0  0  0  0  0  0  0  0  0  0  0
  -22.5650  -22.8610   21.5000 H   0  0  0  0  0  0  0  0  0  0  0  0
  -24.1820  -22.7930   22.7500 C   0  0  0  0  0  2  0  0  0  0  0  0
  -25.2350  -22.9120   21.6150 C   0  0  0  0  0  2  0  0  0  0  0  0
  -26.4720  -23.6130   22.0080 N   0  0  0  0  0  0  0  0  0  0  0  0
  -26.3270  -24.0770   22.9000 H   0  0  0  0  0  0  0  0  0  0  0  0
  -26.7800  -24.6310   20.9980 C   0  0  0  0  0  3  0  0  0  0  0  0
  -28.0290  -25.5420   21.2390 C   0  0  0  0  0  3  0  0  0  0  0  0
  -28.2510  -26.5690   20.2310 O   0  0  0  0  0  0  0  0  0  0  0  0
  -24.6120  -31.8760   23.2170 C   0  0  0  0  0  0  0  0  0  0  0  0
  -27.1920  -27.4370   20.1080 C   0  0  0  0  0  0  0  0  0  0  0  0
  -23.4000  -30.5040   21.5540 C   0  0  0  0  0  3  0  0  0  0  0  0
  -24.8460  -28.9900   20.0940 C   0  0  0  0  0  0  0  0  0  0  0  0
  -25.9300  -30.8350   21.3780 C   0  0  0  0  0  2  0  0  0  0  0  0
  -26.0030  -29.4760   20.7180 C   0  0  0  0  0  0  0  0  0  0  0  0
  -27.1840  -28.6980   20.7400 C   0  0  0  0  0  3  0  0  0  0  0  0
  -26.0580  -27.0170   19.3860 C   0  0  0  0  0  3  0  0  0  0  0  0
  -24.8690  -27.7610   19.4180 C   0  0  0  0  0  3  0  0  0  0  0  0
  -23.6090  -29.8540   20.1600 C   0  0  0  0  0  2  0  0  0  0  0  0
  -24.6660  -31.0840   22.1090 N   0  0  0  0  0  0  0  0  0  0  0  0
  -23.5330  -32.1540   23.7580 O   0  0  0  0  0  0  0  0  0  0  0  0
  -22.7450  -29.4660   22.4960 C   0  0  0  0  0  0  0  0  0  0  0  0
  -21.4170  -29.3080   22.3720 N   0  0  0  0  0  0  0  0  0  0  0  0
  -23.4250  -28.8100   23.2890 O   0  0  0  0  0  0  0  0  0  0  0  0
  -20.9310  -29.9030   21.7170 H   0  0  0  0  0  0  0  0  0  0  0  0
  -18.0290  -28.1380   22.8450 C   0  0  0  0  0  0  0  0  0  0  0  0
  -20.5890  -28.3670   23.1220 C   0  0  0  0  0  3  0  0  0  0  0  0
  -20.6840  -26.9410   22.5260 C   0  0  0  0  0  2  0  0  0  0  0  0
  -19.5750  -26.6350   21.5140 C   0  0  0  0  0  2  0  0  0  0  0  0
  -18.1940  -26.7930   22.1610 C   0  0  0  0  0  2  0  0  0  0  0  0
  -19.1550  -28.8840   23.2820 C   0  0  0  0  0  0  0  0  0  0  0  0
  -18.9460  -30.1440   23.8850 C   0  0  0  0  0  3  0  0  0  0  0  0
  -17.6450  -30.6560   24.0540 C   0  0  0  0  0  3  0  0  0  0  0  0
  -16.5340  -29.9030   23.6390 C   0  0  0  0  0  3  0  0  0  0  0  0
  -16.7270  -28.6440   23.0390 C   0  0  0  0  0  3  0  0  0  0  0  0
  -25.9060  -32.4870   23.8430 C   0  0  0  0  0  3  0  0  0  0  0  0
  -26.4510  -31.6630   25.0720 C   0  0  1  0  0  0  0  0  0  0  0  0
  -25.3800  -31.3760   26.1490 C   0  0  0  0  0  1  0  0  0  0  0  0
  -27.0310  -30.3060   24.6080 C   0  0  0  0  0  1  0  0  0  0  0  0
  -27.6100  -32.4330   25.7500 C   0  0  0  0  0  1  0  0  0  0  0  0
  -25.5960  -33.8650   24.2370 N   0  0  0  0  0  0  0  0  0  0  0  0
  -25.9030  -34.9490   23.5110 C   0  0  0  0  0  0  0  0  0  0  0  0
  -26.5540  -34.8940   22.4650 O   0  0  0  0  0  0  0  0  0  0  0  0
  -25.0320  -33.9850   25.0650 H   0  0  0  0  0  0  0  0  0  0  0  0
  -24.1480  -36.7280   23.2630 C   0  0  0  0  0  1  0  0  0  0  0  0
  -25.4110  -36.3110   24.0350 C   0  0  0  0  0  3  0  0  0  0  0  0
  -27.5580  -37.1800   24.8480 C   0  0  0  0  0  1  0  0  0  0  0  0
  -26.4300  -37.3780   23.9430 N   0  0  0  0  0  0  0  0  0  0  0  0
  -26.0200  -38.2850   24.1470 H   0  0  0  0  0  0  0  0  0  0  0  0
  1  2  1  0
  1 58  1  0
  3  1  1  0
  4  1  1  0
  5  6  1  0
  5  4  1  0
  7  8  1  0
  7  6  1  0
  9 10  1  0
  9  8  1  0
 11 12  1  0
 11 10  1  0
 12 13  1  0
 13 16  1  0
 13 14  1  0
 15 13  1  0
 16 17  1  0
 17 18  1  0
 18 19  1  0
 19 28  1  0
 20 28  1  0
 21 26  1  0
 22 23  1  0
 22 21  1  0
 24 23  1  0
 24 33  1  0
 24 25  1  0
 26 20  1  0
 26 25  1  0
 27 20  2  0
 28 29  1  0
 30 31  2  0
 31 50  1  0
 32 31  1  0
 32 35  1  0
 33 30  1  0
 33 34  1  0
 34 32  2  0
 35 36  1  0
 36 37  2  0
 38 41  1  0
 38 37  1  0
 39 38  2  0
 40 39  1  0
 40 35  2  0
 41 42  1  0
 42 43  1  0
 43 44  2  0
 45 44  1  0
 45 49  1  0
 46 45  2  0
 47 42  2  0
 47 46  1  0
 48 47  1  0
 50 51  1  0
 51 54  1  0
 51 53  1  0
 52 50  2  0
 55 56  1  0
 55 30  1  0
 57 55  1  0
 58 59  1  0
 59 60  1  0
 60 61  1  0
 61 62  1  0
 63 66  1  0
 63 62  1  0
 64 63  1  0
 65 63  1  0
 67 68  1  0
 67 66  1  0
 68 69  1  0
 70 71  2  0
 70 68  1  0
 72 71  1  0
 73 84  2  0
 74 72  1  0
 74 79  1  0
 75 83  1  0
 75 85  1  0
 76 82  1  0
 76 78  1  0
 77 83  1  0
 78 79  2  0
 78 77  1  0
 80 81  1  0
 80 74  2  0
 81 76  2  0
 82 75  1  0
 83 73  1  0
 85 87  2  0
 86 85  1  0
 88 86  1  0
 89 98  2  0
 89 94  1  0
 90 86  1  0
 90 94  1  0
 91 90  1  0
 92 93  1  0
 92 91  1  0
 93 89  1  0
 94 95  2  0
 95 96  1  0
 97 96  2  0
 98 97  1  0
 99 73  1  0
 99104  1  0
 99100  1  0
100103  1  1
100101  1  0
102100  1  0
104107  1  0
105109  1  0
105104  1  0
106105  2  0
109108  1  0
111109  1  0
111112  1  0
111110  1  0
M  ISO  4  20 100  28 100  71 101  72 101
M  END
>  <TORSDO>  (87) 
F 41

>  <SCORE>  (87) 
-0.702

>  <name>  (87) 
95

>  <ligand_id>  (87) 
95

>  <original_smiles>  (87) 
[H]c1c([H])c([H])c2c(c1[H])C([H])([H])C([H])([H])C([H])([H])C2([H])N([H])C(=O)C1([H])N(C(=O)C([H])(N([H])C(=O)C([H])(N([H])C([H])([H])[H])C([H])([H])[H])C(C([H])([H])[H])(C([H])([H])[H])C([H])([H])[H])C([H])([H])c2c([H])c(OC([H])([H])C([H])([H])N([H])C([H])([H])C([H])([H])[N+]([H])([H])C([H])([H])C([H])([H])OC([H])([H])C([H])([H])[N+]([H])([H])C([H])([H])C([H])([H])OC([H])([H])C([H])([H])C([H])([H])C([H])([H])C([H])([H])C([H])([H])[N+]([H])([H])C([H])([H])C([H])([H])C([H])([H])C([H])([H])N([H])C(=O)N3C([H])([H])C([H])([H])C([H])([H])C([H])(n4nc(-c5c([H])c([H])c(Oc6c([H])c([H])c(F)c([H])c6F)c([H])c5[H])c(C(=O)N([H])[H])c4N([H])[H])C3([H])[H])c([H])c([H])c2C1([H])[H]

>  <smiles>  (87) 
[H]c1c([H])c([H])c2c(c1[H])C([H])([H])C([H])([H])C([H])([H])C2([H])N([H])C(=O)C1([H])N(C(=O)C([H])(N([H])C(=O)C([H])(N([H])C([H])([H])[H])C([H])([H])[H])C(C([H])([H])[H])(C([H])([H])[H])C([H])([H])[H])C([H])([H])c2c([H])c(OC([H])([H])C([H])([H])N([H])C([H])([H])C([H])([H])[N+]([H])([H])C([H])([H])C([H])([H])OC([H])([H])C([H])([H])[N+]([H])([H])C([H])([H])C([H])([H])OC([H])([H])C([H])([H])C([H])([H])C([H])([H])C([H])([H])C([H])([H])[N+]([H])([H])C([H])([H])C([H])([H])C([H])([H])C([H])([H])N([H])C(=O)N3C([H])([H])C([H])([H])C([H])([H])C([H])(n4nc(-c5c([H])c([H])c(Oc6c([H])c([H])c(F)c([H])c6F)c([H])c5[H])c(C(=O)N([H])[H])c4N([H])[H])C3([H])[H])c([H])c([H])c2C1([H])[H]

$$$$
96:0:0
     RDKit          3D

103110  0  0  1  0  0  0  0  0999 V2000
  -31.9180  -20.0810   16.9060 C   0  0  0  0  0  3  0  0  0  0  0  0
  -30.8300  -20.5860   16.2880 C   0  0  0  0  0  3  0  0  0  0  0  0
  -29.5600  -19.8990   16.4240 C   0  0  0  0  0  0  0  0  0  0  0  0
  -28.5200  -20.7350   16.3800 N   0  0  0  0  0  0  0  0  0  0  0  0
  -29.4220  -18.6940   16.6420 O   0  0  0  0  0  0  0  0  0  0  0  0
  -28.7080  -21.7080   16.1930 H   0  0  0  0  0  0  0  0  0  0  0  0
  -27.2120  -20.4430   16.9630 C   0  0  0  0  0  2  0  0  0  0  0  0
  -27.2170  -20.8890   18.4330 C   0  0  0  0  0  2  0  0  0  0  0  0
  -27.6670  -22.2380   18.4640 O   0  0  0  0  0  0  0  0  0  0  0  0
  -27.8830  -22.7180   19.7800 C   0  0  0  0  0  2  0  0  0  0  0  0
  -28.3550  -24.1720   19.6950 C   0  0  0  0  0  2  0  0  0  0  0  0
  -28.4050  -24.8190   21.0890 C   0  0  0  0  0  2  0  0  0  0  0  0
  -28.4820  -26.2420   21.0400 O   0  0  0  0  0  0  0  0  0  0  0  0
  -24.5210  -31.6580   23.3740 C   0  0  0  0  0  0  0  0  0  0  0  0
  -27.3040  -26.9450   20.8850 C   0  0  0  0  0  0  0  0  0  0  0  0
  -23.4170  -30.1460   21.7570 C   0  0  0  0  0  3  0  0  0  0  0  0
  -24.9450  -28.4750   20.5900 C   0  0  0  0  0  0  0  0  0  0  0  0
  -25.9560  -30.4500   21.7380 C   0  0  0  0  0  2  0  0  0  0  0  0
  -26.0640  -29.0300   21.2220 C   0  0  0  0  0  0  0  0  0  0  0  0
  -27.2500  -28.2770   21.3510 C   0  0  0  0  0  3  0  0  0  0  0  0
  -26.1490  -26.3940   20.2740 C   0  0  0  0  0  3  0  0  0  0  0  0
  -24.9820  -27.1570   20.1120 C   0  0  0  0  0  3  0  0  0  0  0  0
  -23.7220  -29.3500   20.4600 C   0  0  0  0  0  2  0  0  0  0  0  0
  -24.6450  -30.7690   22.3470 N   0  0  0  0  0  0  0  0  0  0  0  0
  -23.4060  -31.9920   23.7980 O   0  0  0  0  0  0  0  0  0  0  0  0
  -22.6670  -29.2180   22.7370 C   0  0  0  0  0  0  0  0  0  0  0  0
  -21.3520  -29.0610   22.5230 N   0  0  0  0  0  0  0  0  0  0  0  0
  -23.2670  -28.6370   23.6440 O   0  0  0  0  0  0  0  0  0  0  0  0
  -20.9310  -29.5790   21.7660 H   0  0  0  0  0  0  0  0  0  0  0  0
  -17.9050  -28.0320   22.8710 C   0  0  0  0  0  0  0  0  0  0  0  0
  -20.4490  -28.2110   23.2970 C   0  0  0  0  0  3  0  0  0  0  0  0
  -20.5270  -26.7390   22.8260 C   0  0  0  0  0  2  0  0  0  0  0  0
  -19.4820  -26.3890   21.7640 C   0  0  0  0  0  2  0  0  0  0  0  0
  -18.0690  -26.6330   22.3000 C   0  0  0  0  0  2  0  0  0  0  0  0
  -19.0250  -28.7800   23.3220 C   0  0  0  0  0  0  0  0  0  0  0  0
  -18.8230  -30.0920   23.8060 C   0  0  0  0  0  3  0  0  0  0  0  0
  -17.5320  -30.6530   23.8470 C   0  0  0  0  0  3  0  0  0  0  0  0
  -16.4250  -29.9030   23.4070 C   0  0  0  0  0  3  0  0  0  0  0  0
  -16.6140  -28.5970   22.9280 C   0  0  0  0  0  3  0  0  0  0  0  0
  -25.7670  -32.3150   24.0450 C   0  0  0  0  0  3  0  0  0  0  0  0
  -25.4350  -33.7190   24.3220 N   0  0  0  0  0  0  0  0  0  0  0  0
  -25.7960  -34.7510   23.5480 C   0  0  0  0  0  0  0  0  0  0  0  0
  -26.5180  -34.6250   22.5540 O   0  0  0  0  0  0  0  0  0  0  0  0
  -24.8050  -33.8940   25.0910 H   0  0  0  0  0  0  0  0  0  0  0  0
  -24.0670  -36.5080   23.0580 C   0  0  0  0  0  1  0  0  0  0  0  0
  -25.2740  -36.1470   23.9410 C   0  0  0  0  0  3  0  0  0  0  0  0
  -27.3560  -37.0770   24.8440 C   0  0  0  0  0  1  0  0  0  0  0  0
  -26.2990  -37.2080   23.8430 N   0  0  0  0  0  0  0  0  0  0  0  0
  -25.8780  -38.1280   23.9490 H   0  0  0  0  0  0  0  0  0  0  0  0
  -26.2230  -31.5770   25.3620 C   0  0  1  0  0  0  0  0  0  0  0  0
  -25.0790  -31.3480   26.3770 C   0  0  0  0  0  1  0  0  0  0  0  0
  -26.8360  -30.2000   25.0260 C   0  0  0  0  0  1  0  0  0  0  0  0
  -27.3350  -32.3920   26.0630 C   0  0  0  0  0  1  0  0  0  0  0  0
  -33.2110  -20.7310   16.8320 C   0  0  0  0  0  0  0  0  0  0  0  0
  -34.0380  -20.3020   17.7940 N   0  0  0  0  0  0  0  0  0  0  0  0
  -33.5440  -21.5740   15.9930 O   0  0  0  0  0  0  0  0  0  0  0  0
  -33.6750  -19.6500   18.4760 H   0  0  0  0  0  0  0  0  0  0  0  0
  -35.4400  -20.6950   17.9320 C   0  0  0  0  0  2  0  0  0  0  0  0
  -35.9850  -20.4180   19.3480 C   0  0  0  0  0  2  0  0  0  0  0  0
  -35.0930  -20.9430   20.3270 O   0  0  0  0  0  0  0  0  0  0  0  0
  -35.3670  -20.5200   21.6640 C   0  0  0  0  0  2  0  0  0  0  0  0
  -34.0240  -20.3290   22.3880 C   0  0  0  0  0  2  0  0  0  0  0  0
  -33.1920  -19.2110   21.7290 C   0  0  0  0  0  2  0  0  0  0  0  0
  -31.7020  -19.1970   22.0940 C   0  0  0  0  0  2  0  0  0  0  0  0
  -30.8810  -18.2560   21.1780 C   0  0  0  0  0  2  0  0  0  0  0  0
  -31.6720  -15.8560   21.0540 C   0  0  0  0  0  0  0  0  0  0  0  0
  -31.7240  -13.4910   20.3370 C   0  0  0  0  0  2  0  0  0  0  0  0
  -30.9860  -13.3490   18.9900 C   0  0  0  0  0  2  0  0  0  0  0  0
  -29.4690  -13.1680   19.1950 C   0  0  0  0  0  2  0  0  0  0  0  0
  -28.8730  -14.2060   20.1800 C   0  0  0  0  0  3  0  0  0  0  0  0
  -29.7290  -14.3000   21.4650 C   0  0  0  0  0  2  0  0  0  0  0  0
  -31.1180  -14.6120   21.0740 N   0  0  0  0  0  0  0  0  0  0  0  0
  -32.7780  -16.0900   20.5570 O   0  0  0  0  0  0  0  0  0  0  0  0
  -30.8850  -16.8330   21.5440 N   0  0  0  0  0  0  0  0  0  0  0  0
  -30.0310  -16.5010   21.9680 H   0  0  0  0  0  0  0  0  0  0  0  0
  -26.4000  -14.7910   20.5850 C   0  0  0  0  0  0  0  0  0  0  0  0
  -25.2990  -14.0110   20.8200 C   0  0  0  0  0  0  0  0  0  0  0  0
  -25.7690  -12.6630   20.8310 C   0  0  0  0  0  0  0  0  0  0  0  0
  -27.4710  -13.9190   20.4800 N   0  0  0  0  0  0  0  0  0  0  0  0
  -27.0870  -12.6320   20.6790 N   0  0  0  0  0  0  0  0  0  0  0  0
  -25.0300  -11.3960   20.9250 C   0  0  0  0  0  0  0  0  0  0  0  0
  -25.3150  -10.4530   21.9380 C   0  0  0  0  0  3  0  0  0  0  0  0
  -24.5860   -9.2480   22.0210 C   0  0  0  0  0  3  0  0  0  0  0  0
  -23.5540   -8.9760   21.0910 C   0  0  0  0  0  0  0  0  0  0  0  0
  -23.2900   -9.9060   20.0710 C   0  0  0  0  0  3  0  0  0  0  0  0
  -24.0220  -11.1030   19.9860 C   0  0  0  0  0  3  0  0  0  0  0  0
  -22.8130   -7.8180   21.0750 O   0  0  0  0  0  0  0  0  0  0  0  0
  -22.4490   -7.1820   22.2350 C   0  0  0  0  0  0  0  0  0  0  0  0
  -21.7320   -7.8430   23.2560 C   0  0  0  0  0  3  0  0  0  0  0  0
  -21.3170   -7.1320   24.4010 C   0  0  0  0  0  3  0  0  0  0  0  0
  -21.6100   -5.7600   24.5230 C   0  0  0  0  0  0  0  0  0  0  0  0
  -22.3190   -5.0980   23.5040 C   0  0  0  0  0  3  0  0  0  0  0  0
  -22.7340   -5.8070   22.3640 C   0  0  0  0  0  0  0  0  0  0  0  0
  -23.3990   -5.1600   21.3770 F   0  0  0  0  0  0  0  0  0  0  0  0
  -21.2040   -5.0770   25.6170 F   0  0  0  0  0  0  0  0  0  0  0  0
  -23.8780  -14.4740   20.9370 C   0  0  0  0  0  0  0  0  0  0  0  0
  -23.0640  -13.7750   21.7210 N   0  0  0  0  0  0  0  0  0  0  0  0
  -23.4900  -15.4930   20.3630 O   0  0  0  0  0  0  0  0  0  0  0  0
  -23.3870  -12.9540   22.2100 H   0  0  0  0  0  0  0  0  0  0  0  0
  -22.1030  -14.0640   21.8270 H   0  0  0  0  0  0  0  0  0  0  0  0
  -26.5740  -16.1660   20.4340 N   0  0  0  0  0  0  0  0  0  0  0  0
  -25.7970  -16.8190   20.4620 H   0  0  0  0  0  0  0  0  0  0  0  0
  -27.4540  -16.6170   20.2160 H   0  0  0  0  0  0  0  0  0  0  0  0
  2  3  1  0
  2  1  2  0
  3  5  2  0
  4  3  1  0
  4  7  1  0
  6  4  1  0
  7  8  1  0
  8  9  1  0
  9 10  1  0
 11 10  1  0
 11 12  1  0
 13 12  1  0
 14 25  2  0
 15 13  1  0
 15 20  1  0
 16 24  1  0
 16 26  1  0
 17 19  1  0
 18 24  1  0
 19 20  2  0
 19 18  1  0
 21 15  2  0
 22 21  1  0
 22 17  2  0
 23 17  1  0
 23 16  1  0
 24 14  1  0
 26 28  2  0
 27 26  1  0
 29 27  1  0
 30 39  2  0
 30 35  1  0
 31 27  1  0
 31 35  1  0
 32 31  1  0
 33 34  1  0
 33 32  1  0
 34 30  1  0
 35 36  2  0
 36 37  1  0
 38 37  2  0
 39 38  1  0
 40 14  1  0
 40 41  1  0
 40 50  1  0
 41 44  1  0
 42 46  1  0
 42 41  1  0
 43 42  2  0
 46 45  1  0
 48 46  1  0
 48 49  1  0
 48 47  1  0
 50 53  1  1
 50 51  1  0
 52 50  1  0
 54  1  1  0
 54 55  1  0
 55 58  1  0
 55 57  1  0
 56 54  2  0
 58 59  1  0
 59 60  1  0
 60 61  1  0
 61 62  1  0
 63 64  1  0
 63 62  1  0
 65 74  1  0
 65 64  1  0
 66 72  1  0
 66 74  1  0
 67 72  1  0
 68 69  1  0
 68 67  1  0
 70 69  1  0
 70 79  1  0
 70 71  1  0
 72 71  1  0
 73 66  2  0
 74 75  1  0
 76 77  2  0
 77 78  1  0
 77 96  1  0
 78 81  1  0
 79 76  1  0
 79 80  1  0
 80 78  2  0
 81 82  1  0
 82 83  2  0
 84 83  1  0
 85 84  2  0
 86 85  1  0
 86 81  2  0
 87 84  1  0
 87 88  1  0
 88 93  2  0
 88 89  1  0
 89 90  2  0
 90 91  1  0
 91 95  1  0
 92 91  2  0
 93 92  1  0
 94 93  1  0
 96 97  1  0
 97100  1  0
 97 99  1  0
 98 96  2  0
101102  1  0
101 76  1  0
103101  1  0
M  ISO  4  12 101  13 101  66 100  74 100
M  END
>  <TORSDO>  (88) 
F 32

>  <SCORE>  (88) 
-8.031

>  <name>  (88) 
96

>  <ligand_id>  (88) 
96

>  <original_smiles>  (88) 
[H]C(C(=O)N([H])C([H])([H])C([H])([H])OC([H])([H])C([H])([H])C([H])([H])Oc1c([H])c([H])c2c(c1[H])C([H])([H])N(C(=O)C([H])(N([H])C(=O)C([H])(N([H])C([H])([H])[H])C([H])([H])[H])C(C([H])([H])[H])(C([H])([H])[H])C([H])([H])[H])C([H])(C(=O)N([H])C1([H])c3c([H])c([H])c([H])c([H])c3C([H])([H])C([H])([H])C1([H])[H])C2([H])[H])=C([H])C(=O)N([H])C([H])([H])C([H])([H])OC([H])([H])C([H])([H])C([H])([H])C([H])([H])C([H])([H])N([H])C(=O)N1C([H])([H])C([H])([H])C([H])([H])C([H])(n2nc(-c3c([H])c([H])c(Oc4c([H])c([H])c(F)c([H])c4F)c([H])c3[H])c(C(=O)N([H])[H])c2N([H])[H])C1([H])[H]

>  <smiles>  (88) 
[H]C(C(=O)N([H])C([H])([H])C([H])([H])OC([H])([H])C([H])([H])C([H])([H])Oc1c([H])c([H])c2c(c1[H])C([H])([H])N(C(=O)C([H])(N([H])C(=O)C([H])(N([H])C([H])([H])[H])C([H])([H])[H])C(C([H])([H])[H])(C([H])([H])[H])C([H])([H])[H])C([H])(C(=O)N([H])C1([H])c3c([H])c([H])c([H])c([H])c3C([H])([H])C([H])([H])C1([H])[H])C2([H])[H])=C([H])C(=O)N([H])C([H])([H])C([H])([H])OC([H])([H])C([H])([H])C([H])([H])C([H])([H])C([H])([H])N([H])C(=O)N1C([H])([H])C([H])([H])C([H])([H])C([H])(n2nc(-c3c([H])c([H])c(Oc4c([H])c([H])c(F)c([H])c4F)c([H])c3[H])c(C(=O)N([H])[H])c2N([H])[H])C1([H])[H]

$$$$
