0:0:0
     RDKit          3D

 97104  0  0  1  0  0  0  0  0999 V2000
  -26.0380  -22.5770   20.8450 C   0  0  0  0  0  2  0  0  0  0  0  0
  -26.5050  -21.6270   19.7410 C   0  0  0  0  0  0  0  0  0  0  0  0
  -27.7230  -21.0890   19.8890 N   0  0  0  0  0  0  0  0  0  0  0  0
  -25.7930  -21.4230   18.7560 O   0  0  0  0  0  0  0  0  0  0  0  0
  -28.2340  -21.3250   20.7290 H   0  0  0  0  0  0  0  0  0  0  0  0
  -28.4350  -20.2940   18.8960 C   0  0  0  0  0  2  0  0  0  0  0  0
  -29.5280  -21.1460   18.2320 C   0  0  0  0  0  2  0  0  0  0  0  0
  -30.9410  -20.8090   18.7140 C   0  0  0  0  0  2  0  0  0  0  0  0
  -31.9900  -21.3740   17.7410 C   0  0  0  0  0  2  0  0  0  0  0  0
  -33.2960  -21.8030   18.4230 C   0  0  0  0  0  2  0  0  0  0  0  0
  -34.2330  -22.6600   17.5320 C   0  0  0  0  0  2  0  0  0  0  0  0
  -36.4640  -21.5350   17.4170 C   0  0  0  0  0  0  0  0  0  0  0  0
  -37.6230  -20.2720   19.2050 C   0  0  0  0  0  2  0  0  0  0  0  0
  -37.8840  -18.8140   18.7750 C   0  0  0  0  0  2  0  0  0  0  0  0
  -36.6640  -17.9310   19.0960 C   0  0  0  0  0  2  0  0  0  0  0  0
  -35.3430  -18.5380   18.5610 C   0  0  0  0  0  3  0  0  0  0  0  0
  -35.2250  -20.0040   19.0000 C   0  0  0  0  0  2  0  0  0  0  0  0
  -36.4060  -20.7480   18.5260 N   0  0  0  0  0  0  0  0  0  0  0  0
  -37.5300  -21.8620   16.8880 O   0  0  0  0  0  0  0  0  0  0  0  0
  -35.2980  -21.9040   16.8580 N   0  0  0  0  0  0  0  0  0  0  0  0
  -35.4330  -22.2070   15.9030 H   0  0  0  0  0  0  0  0  0  0  0  0
  -32.8820  -18.1950   19.2430 C   0  0  0  0  0  0  0  0  0  0  0  0
  -32.1680  -17.0690   19.5560 C   0  0  0  0  0  0  0  0  0  0  0  0
  -33.0830  -15.9800   19.4600 C   0  0  0  0  0  0  0  0  0  0  0  0
  -34.1770  -17.7650   18.9870 N   0  0  0  0  0  0  0  0  0  0  0  0
  -34.3010  -16.4250   19.1700 N   0  0  0  0  0  0  0  0  0  0  0  0
  -32.8610  -14.5320   19.5710 C   0  0  0  0  0  0  0  0  0  0  0  0
  -33.1760  -13.8320   20.7540 C   0  0  0  0  0  3  0  0  0  0  0  0
  -32.9470  -12.4420   20.8450 C   0  0  0  0  0  3  0  0  0  0  0  0
  -32.3930  -11.7420   19.7490 C   0  0  0  0  0  0  0  0  0  0  0  0
  -32.0940  -12.4410   18.5670 C   0  0  0  0  0  3  0  0  0  0  0  0
  -32.3290  -13.8220   18.4750 C   0  0  0  0  0  3  0  0  0  0  0  0
  -32.1620  -10.3880   19.7360 O   0  0  0  0  0  0  0  0  0  0  0  0
  -31.4590   -9.7670   20.7380 C   0  0  0  0  0  0  0  0  0  0  0  0
  -30.1290  -10.1270   21.0470 C   0  0  0  0  0  3  0  0  0  0  0  0
  -29.4220   -9.4230   22.0410 C   0  0  0  0  0  3  0  0  0  0  0  0
  -30.0320   -8.3460   22.7120 C   0  0  0  0  0  0  0  0  0  0  0  0
  -31.3530   -7.9800   22.4010 C   0  0  0  0  0  3  0  0  0  0  0  0
  -32.0630   -8.6890   21.4160 C   0  0  0  0  0  0  0  0  0  0  0  0
  -33.3310   -8.3240   21.1090 F   0  0  0  0  0  0  0  0  0  0  0  0
  -29.3500   -7.6630   23.6600 F   0  0  0  0  0  0  0  0  0  0  0  0
  -30.6900  -16.9950   19.8310 C   0  0  0  0  0  0  0  0  0  0  0  0
  -30.2790  -16.1110   20.7340 N   0  0  0  0  0  0  0  0  0  0  0  0
  -29.8970  -17.7520   19.2780 O   0  0  0  0  0  0  0  0  0  0  0  0
  -30.9270  -15.4910   21.1960 H   0  0  0  0  0  0  0  0  0  0  0  0
  -29.2950  -16.0510   20.9560 H   0  0  0  0  0  0  0  0  0  0  0  0
  -32.5410  -19.5380   19.1410 N   0  0  0  0  0  0  0  0  0  0  0  0
  -31.5970  -19.8730   19.2920 H   0  0  0  0  0  0  0  0  0  0  0  0
  -33.1780  -20.2680   18.8440 H   0  0  0  0  0  0  0  0  0  0  0  0
  -26.4040  -24.0300   20.5110 C   0  0  0  0  0  2  0  0  0  0  0  0
  -28.5410  -25.1720   19.8300 C   0  0  0  0  0  0  0  0  0  0  0  0
  -27.8000  -24.0850   20.0710 N   0  0  0  0  0  0  0  0  0  0  0  0
  -29.7290  -25.0710   19.5290 O   0  0  0  0  0  0  0  0  0  0  0  0
  -28.2700  -23.1980   19.9620 H   0  0  0  0  0  0  0  0  0  0  0  0
  -27.8710  -26.5390   19.9490 C   0  0  0  0  0  2  0  0  0  0  0  0
  -28.7880  -27.7470   19.6840 C   0  0  0  0  0  2  0  0  0  0  0  0
  -27.9920  -28.8130   19.1820 O   0  0  0  0  0  0  0  0  0  0  0  0
  -24.3610  -27.7230   25.1750 C   0  0  0  0  0  0  0  0  0  0  0  0
  -26.7910  -28.9130   19.8320 C   0  0  0  0  0  0  0  0  0  0  0  0
  -23.0040  -28.2520   23.1710 C   0  0  0  0  0  3  0  0  0  0  0  0
  -24.3110  -29.0780   21.1380 C   0  0  0  0  0  0  0  0  0  0  0  0
  -25.4050  -29.0970   23.3870 C   0  0  0  0  0  2  0  0  0  0  0  0
  -25.4970  -29.0310   21.8840 C   0  0  0  0  0  0  0  0  0  0  0  0
  -26.7430  -28.9400   21.2360 C   0  0  0  0  0  3  0  0  0  0  0  0
  -25.5980  -28.9760   19.0830 C   0  0  0  0  0  3  0  0  0  0  0  0
  -24.3520  -29.0500   19.7320 C   0  0  0  0  0  3  0  0  0  0  0  0
  -23.0190  -29.1690   21.9170 C   0  0  0  0  0  2  0  0  0  0  0  0
  -24.2840  -28.3130   23.9500 N   0  0  0  0  0  0  0  0  0  0  0  0
  -23.3730  -27.1720   25.6820 O   0  0  0  0  0  0  0  0  0  0  0  0
  -22.6350  -26.8210   22.7300 C   0  0  0  0  0  0  0  0  0  0  0  0
  -21.4510  -26.6820   22.1140 N   0  0  0  0  0  0  0  0  0  0  0  0
  -23.4110  -25.8790   22.9130 O   0  0  0  0  0  0  0  0  0  0  0  0
  -20.8770  -27.5060   22.0090 H   0  0  0  0  0  0  0  0  0  0  0  0
  -18.8070  -25.3200   20.0630 C   0  0  0  0  0  0  0  0  0  0  0  0
  -20.9000  -25.4400   21.5750 C   0  0  0  0  0  3  0  0  0  0  0  0
  -21.6980  -24.9700   20.3400 C   0  0  0  0  0  2  0  0  0  0  0  0
  -21.1060  -25.4670   19.0170 C   0  0  0  0  0  2  0  0  0  0  0  0
  -19.6620  -24.9790   18.8550 C   0  0  0  0  0  2  0  0  0  0  0  0
  -19.3890  -25.5500   21.3370 C   0  0  0  0  0  0  0  0  0  0  0  0
  -18.5530  -25.9030   22.4180 C   0  0  0  0  0  3  0  0  0  0  0  0
  -17.1610  -26.0230   22.2430 C   0  0  0  0  0  3  0  0  0  0  0  0
  -16.5870  -25.7760   20.9850 C   0  0  0  0  0  3  0  0  0  0  0  0
  -17.4080  -25.4200   19.9000 C   0  0  0  0  0  3  0  0  0  0  0  0
  -25.6820  -27.7360   26.0100 C   0  0  0  0  0  3  0  0  0  0  0  0
  -25.3300  -28.0610   27.3970 N   0  0  0  0  0  0  0  0  0  0  0  0
  -25.6060  -29.2280   27.9950 C   0  0  0  0  0  0  0  0  0  0  0  0
  -26.2660  -30.1190   27.4540 O   0  0  0  0  0  0  0  0  0  0  0  0
  -24.7460  -27.3960   27.8840 H   0  0  0  0  0  0  0  0  0  0  0  0
  -23.8260  -30.3340   29.3790 C   0  0  0  0  0  1  0  0  0  0  0  0
  -25.0700  -29.4350   29.4230 C   0  0  0  0  0  3  0  0  0  0  0  0
  -27.1720  -29.0940   30.6450 C   0  0  0  0  0  1  0  0  0  0  0  0
  -26.0690  -30.0060   30.3510 N   0  0  0  0  0  0  0  0  0  0  0  0
  -25.6330  -30.2680   31.2300 H   0  0  0  0  0  0  0  0  0  0  0  0
  -26.4770  -26.3760   25.9350 C   0  0  1  0  0  0  0  0  0  0  0  0
  -25.6000  -25.1310   26.2010 C   0  0  0  0  0  1  0  0  0  0  0  0
  -27.1320  -26.2060   24.5440 C   0  0  0  0  0  1  0  0  0  0  0  0
  -27.6320  -26.3840   26.9660 C   0  0  0  0  0  1  0  0  0  0  0  0
  2  3  1  0
  2  1  1  0
  3  5  1  0
  4  2  2  0
  6  3  1  0
  7  8  1  0
  7  6  1  0
  9 10  1  0
  9  8  1  0
 11 10  1  0
 12 18  1  0
 14 15  1  0
 14 13  1  0
 16 25  1  0
 16 17  1  0
 16 15  1  0
 18 17  1  0
 18 13  1  0
 19 12  2  0
 20 12  1  0
 20 11  1  0
 21 20  1  0
 22 23  2  0
 23 42  1  0
 24 23  1  0
 24 27  1  0
 25 26  1  0
 25 22  1  0
 26 24  2  0
 27 28  1  0
 28 29  2  0
 30 29  1  0
 31 30  2  0
 32 31  1  0
 32 27  2  0
 33 30  1  0
 33 34  1  0
 34 35  2  0
 34 39  1  0
 35 36  1  0
 36 37  2  0
 37 41  1  0
 38 37  1  0
 39 38  2  0
 40 39  1  0
 42 43  1  0
 43 46  1  0
 43 45  1  0
 44 42  2  0
 47 22  1  0
 47 48  1  0
 49 47  1  0
 50  1  1  0
 51 55  1  0
 51 52  1  0
 52 50  1  0
 53 51  2  0
 54 52  1  0
 56 55  1  0
 57 56  1  0
 57 59  1  0
 58 69  2  0
 59 64  1  0
 60 70  1  0
 60 68  1  0
 61 63  1  0
 61 67  1  0
 62 68  1  0
 63 62  1  0
 64 63  2  0
 65 66  1  0
 65 59  2  0
 66 61  2  0
 67 60  1  0
 68 58  1  0
 70 72  2  0
 71 70  1  0
 73 71  1  0
 74 79  1  0
 75 71  1  0
 76 75  1  0
 77 76  1  0
 78 77  1  0
 78 74  1  0
 79 75  1  0
 79 80  2  0
 81 80  1  0
 82 81  2  0
 83 74  2  0
 83 82  1  0
 84 58  1  0
 84 85  1  0
 85 88  1  0
 85 86  1  0
 86 90  1  0
 87 86  2  0
 90 89  1  0
 90 92  1  0
 92 91  1  0
 92 93  1  0
 94 84  1  0
 94 95  1  1
 94 97  1  0
 96 94  1  0
M  ISO  4  12 100  20 100  56 101  57 101
M  END
>  <TORSDO>  (1) 
F 27

>  <SCORE>  (1) 
-1.624

>  <name>  (1) 
0

>  <ligand_id>  (1) 
0

>  <original_smiles>  (1) 
[H]c1c([H])c([H])c2c(c1[H])C([H])([H])C([H])([H])C([H])([H])C2([H])N([H])C(=O)C1([H])N(C(=O)C([H])(N([H])C(=O)C([H])(N([H])C([H])([H])[H])C([H])([H])[H])C(C([H])([H])[H])(C([H])([H])[H])C([H])([H])[H])C([H])([H])c2c([H])c(OC([H])([H])C([H])([H])C(=O)N([H])C([H])([H])C([H])([H])C(=O)N([H])C([H])([H])C([H])([H])C([H])([H])C([H])([H])C([H])([H])C([H])([H])N([H])C(=O)N3C([H])([H])C([H])([H])C([H])([H])C([H])(n4nc(-c5c([H])c([H])c(Oc6c([H])c([H])c(F)c([H])c6F)c([H])c5[H])c(C(=O)N([H])[H])c4N([H])[H])C3([H])[H])c([H])c([H])c2C1([H])[H]

>  <smiles>  (1) 
[H]c1c([H])c([H])c2c(c1[H])C([H])([H])C([H])([H])C([H])([H])C2([H])N([H])C(=O)C1([H])N(C(=O)C([H])(N([H])C(=O)C([H])(N([H])C([H])([H])[H])C([H])([H])[H])C(C([H])([H])[H])(C([H])([H])[H])C([H])([H])[H])C([H])([H])c2c([H])c(OC([H])([H])C([H])([H])C(=O)N([H])C([H])([H])C([H])([H])C(=O)N([H])C([H])([H])C([H])([H])C([H])([H])C([H])([H])C([H])([H])C([H])([H])N([H])C(=O)N3C([H])([H])C([H])([H])C([H])([H])C([H])(n4nc(-c5c([H])c([H])c(Oc6c([H])c([H])c(F)c([H])c6F)c([H])c5[H])c(C(=O)N([H])[H])c4N([H])[H])C3([H])[H])c([H])c([H])c2C1([H])[H]

$$$$
1:0:0
     RDKit          3D

103110  0  0  1  0  0  0  0  0999 V2000
  -28.4110  -23.1190   16.4900 N   0  0  0  0  0  4  0  0  0  0  0  0
  -27.9940  -23.8970   16.0070 H   0  0  0  0  0  0  0  0  0  0  0  0
  -29.3980  -23.1570   16.2940 H   0  0  0  0  0  0  0  0  0  0  0  0
  -28.1500  -23.3400   17.9320 C   0  0  0  0  0  2  0  0  0  0  0  0
  -29.3240  -22.9180   18.8420 C   0  0  0  0  0  2  0  0  0  0  0  0
  -28.9610  -22.9070   20.3420 C   0  0  0  0  0  2  0  0  0  0  0  0
  -29.6340  -25.0780   21.3770 C   0  0  0  0  0  0  0  0  0  0  0  0
  -28.7170  -24.2550   20.8510 N   0  0  0  0  0  0  0  0  0  0  0  0
  -30.7900  -24.7220   21.6190 O   0  0  0  0  0  0  0  0  0  0  0  0
  -27.7870  -24.6400   20.7390 H   0  0  0  0  0  0  0  0  0  0  0  0
  -29.1930  -26.5260   21.6100 C   0  0  0  0  0  2  0  0  0  0  0  0
  -28.7470  -27.0470   20.3600 O   0  0  0  0  0  0  0  0  0  0  0  0
  -24.6950  -32.0600   23.4090 C   0  0  0  0  0  0  0  0  0  0  0  0
  -27.5660  -27.7370   20.3990 C   0  0  0  0  0  0  0  0  0  0  0  0
  -23.5820  -30.6330   21.7200 C   0  0  0  0  0  3  0  0  0  0  0  0
  -25.1270  -29.1410   20.3440 C   0  0  0  0  0  0  0  0  0  0  0  0
  -26.0970  -31.0690   21.6080 C   0  0  0  0  0  2  0  0  0  0  0  0
  -26.2440  -29.7020   20.9780 C   0  0  0  0  0  0  0  0  0  0  0  0
  -27.4690  -29.0010   21.0130 C   0  0  0  0  0  3  0  0  0  0  0  0
  -26.4400  -27.1820   19.7580 C   0  0  0  0  0  3  0  0  0  0  0  0
  -25.2160  -27.8770   19.7380 C   0  0  0  0  0  3  0  0  0  0  0  0
  -23.8570  -29.9620   20.3470 C   0  0  0  0  0  2  0  0  0  0  0  0
  -24.8060  -31.2680   22.3050 N   0  0  0  0  0  0  0  0  0  0  0  0
  -23.5910  -32.3000   23.9140 O   0  0  0  0  0  0  0  0  0  0  0  0
  -22.9300  -29.5890   22.6540 C   0  0  0  0  0  0  0  0  0  0  0  0
  -21.6150  -29.3750   22.4850 N   0  0  0  0  0  0  0  0  0  0  0  0
  -23.6050  -28.9730   23.4830 O   0  0  0  0  0  0  0  0  0  0  0  0
  -21.1330  -29.9230   21.7860 H   0  0  0  0  0  0  0  0  0  0  0  0
  -18.2570  -28.1050   22.8720 C   0  0  0  0  0  0  0  0  0  0  0  0
  -20.7980  -28.4150   23.2240 C   0  0  0  0  0  3  0  0  0  0  0  0
  -20.9490  -26.9910   22.6390 C   0  0  0  0  0  2  0  0  0  0  0  0
  -19.8860  -26.6540   21.5900 C   0  0  0  0  0  2  0  0  0  0  0  0
  -18.4820  -26.7650   22.1920 C   0  0  0  0  0  2  0  0  0  0  0  0
  -19.3460  -28.8870   23.3420 C   0  0  0  0  0  0  0  0  0  0  0  0
  -19.0830  -30.1410   23.9350 C   0  0  0  0  0  3  0  0  0  0  0  0
  -17.7640  -30.6150   24.0630 C   0  0  0  0  0  3  0  0  0  0  0  0
  -16.6890  -29.8290   23.6110 C   0  0  0  0  0  3  0  0  0  0  0  0
  -16.9360  -28.5760   23.0230 C   0  0  0  0  0  3  0  0  0  0  0  0
  -25.9450  -32.7210   24.0720 C   0  0  0  0  0  3  0  0  0  0  0  0
  -25.6150  -34.1290   24.3310 N   0  0  0  0  0  0  0  0  0  0  0  0
  -25.9930  -35.1530   23.5550 C   0  0  0  0  0  0  0  0  0  0  0  0
  -26.7250  -35.0140   22.5700 O   0  0  0  0  0  0  0  0  0  0  0  0
  -24.9730  -34.3110   25.0890 H   0  0  0  0  0  0  0  0  0  0  0  0
  -24.2800  -36.9160   23.0310 C   0  0  0  0  0  1  0  0  0  0  0  0
  -25.4740  -36.5540   23.9270 C   0  0  0  0  0  3  0  0  0  0  0  0
  -27.5570  -37.4800   24.8410 C   0  0  0  0  0  1  0  0  0  0  0  0
  -26.5070  -37.6080   23.8330 N   0  0  0  0  0  0  0  0  0  0  0  0
  -26.0900  -38.5310   23.9250 H   0  0  0  0  0  0  0  0  0  0  0  0
  -26.4020  -31.9970   25.3970 C   0  0  1  0  0  0  0  0  0  0  0  0
  -25.2540  -31.7800   26.4110 C   0  0  0  0  0  1  0  0  0  0  0  0
  -27.0200  -30.6160   25.0790 C   0  0  0  0  0  1  0  0  0  0  0  0
  -27.5060  -32.8270   26.0930 C   0  0  0  0  0  1  0  0  0  0  0  0
  -27.8130  -21.9030   15.8870 C   0  0  0  0  0  2  0  0  0  0  0  0
  -28.7800  -20.7020   15.8810 C   0  0  0  0  0  2  0  0  0  0  0  0
  -28.2420  -19.4330   16.5640 C   0  0  0  0  0  2  0  0  0  0  0  0
  -28.1690  -19.5370   18.0960 C   0  0  0  0  0  2  0  0  0  0  0  0
  -27.5380  -18.3060   18.7540 C   0  0  0  0  0  2  0  0  0  0  0  0
  -27.5170  -18.3690   20.2940 C   0  0  0  0  0  2  0  0  0  0  0  0
  -29.5270  -17.0600   20.9780 C   0  0  0  0  0  0  0  0  0  0  0  0
  -28.8260  -18.1990   20.9200 N   0  0  0  0  0  0  0  0  0  0  0  0
  -29.2410  -16.0680   20.3060 O   0  0  0  0  0  0  0  0  0  0  0  0
  -29.1550  -18.9670   21.4880 H   0  0  0  0  0  0  0  0  0  0  0  0
  -30.5650  -17.1280   21.9910 C   0  0  0  0  0  3  0  0  0  0  0  0
  -31.6490  -16.3270   22.0110 C   0  0  0  0  0  3  0  0  0  0  0  0
  -32.0580  -15.2850   20.9840 C   0  0  0  0  0  2  0  0  0  0  0  0
  -31.8980  -12.8440   20.7350 C   0  0  0  0  0  0  0  0  0  0  0  0
  -31.1680  -10.7820   19.6200 C   0  0  0  0  0  2  0  0  0  0  0  0
  -30.3240  -11.1650   18.3860 C   0  0  0  0  0  2  0  0  0  0  0  0
  -28.8430  -11.3220   18.7840 C   0  0  0  0  0  2  0  0  0  0  0  0
  -28.6500  -12.2440   20.0190 C   0  0  0  0  0  3  0  0  0  0  0  0
  -29.6190  -11.8490   21.1590 C   0  0  0  0  0  2  0  0  0  0  0  0
  -30.9920  -11.8410   20.6210 N   0  0  0  0  0  0  0  0  0  0  0  0
  -33.0390  -12.7870   20.2660 O   0  0  0  0  0  0  0  0  0  0  0  0
  -31.4310  -13.9910   21.2380 N   0  0  0  0  0  0  0  0  0  0  0  0
  -30.4720  -13.9930   21.5520 H   0  0  0  0  0  0  0  0  0  0  0  0
  -26.4320  -13.3330   20.7560 C   0  0  0  0  0  0  0  0  0  0  0  0
  -25.2130  -12.8020   21.0770 C   0  0  0  0  0  0  0  0  0  0  0  0
  -25.3620  -11.3870   20.9700 C   0  0  0  0  0  0  0  0  0  0  0  0
  -27.2590  -12.2550   20.4720 N   0  0  0  0  0  0  0  0  0  0  0  0
  -26.6140  -11.0750   20.6610 N   0  0  0  0  0  0  0  0  0  0  0  0
  -24.3710  -10.3120   21.0840 C   0  0  0  0  0  0  0  0  0  0  0  0
  -24.5770   -9.2070   21.9370 C   0  0  0  0  0  3  0  0  0  0  0  0
  -23.5980   -8.1950   22.0440 C   0  0  0  0  0  3  0  0  0  0  0  0
  -22.3980   -8.2870   21.2970 C   0  0  0  0  0  0  0  0  0  0  0  0
  -22.2110   -9.3810   20.4330 C   0  0  0  0  0  3  0  0  0  0  0  0
  -23.1880  -10.3830   20.3230 C   0  0  0  0  0  3  0  0  0  0  0  0
  -21.3990   -7.3460   21.3190 O   0  0  0  0  0  0  0  0  0  0  0  0
  -21.1940   -6.5420   22.4130 C   0  0  0  0  0  0  0  0  0  0  0  0
  -20.9250   -7.0770   23.6900 C   0  0  0  0  0  3  0  0  0  0  0  0
  -20.6460   -6.2160   24.7690 C   0  0  0  0  0  3  0  0  0  0  0  0
  -20.6410   -4.8230   24.5740 C   0  0  0  0  0  0  0  0  0  0  0  0
  -20.9120   -4.2870   23.3010 C   0  0  0  0  0  3  0  0  0  0  0  0
  -21.1820   -5.1460   22.2230 C   0  0  0  0  0  0  0  0  0  0  0  0
  -21.4200   -4.6280   20.9940 F   0  0  0  0  0  0  0  0  0  0  0  0
  -20.3630   -3.9940   25.6070 F   0  0  0  0  0  0  0  0  0  0  0  0
  -23.9550  -13.5710   21.3670 C   0  0  0  0  0  0  0  0  0  0  0  0
  -23.0820  -13.0320   22.2120 N   0  0  0  0  0  0  0  0  0  0  0  0
  -23.7610  -14.6850   20.8820 O   0  0  0  0  0  0  0  0  0  0  0  0
  -23.2390  -12.1300   22.6320 H   0  0  0  0  0  0  0  0  0  0  0  0
  -22.2380  -13.5390   22.4420 H   0  0  0  0  0  0  0  0  0  0  0  0
  -26.8860  -14.6420   20.6710 N   0  0  0  0  0  0  0  0  0  0  0  0
  -27.8200  -14.9350   20.3810 H   0  0  0  0  0  0  0  0  0  0  0  0
  -26.2920  -15.4240   20.9190 H   0  0  0  0  0  0  0  0  0  0  0  0
  1  4  1  0
  2  1  1  0
  3  1  1  0
  4  5  1  0
  5  6  1  0
  6  8  1  0
  7 11  1  0
  7  9  2  0
  8  7  1  0
 10  8  1  0
 12 14  1  0
 12 11  1  0
 13 24  2  0
 14 19  1  0
 15 23  1  0
 15 25  1  0
 16 22  1  0
 16 18  1  0
 17 23  1  0
 18 19  2  0
 18 17  1  0
 20 14  2  0
 21 20  1  0
 21 16  2  0
 22 15  1  0
 23 13  1  0
 25 27  2  0
 26 25  1  0
 28 26  1  0
 29 38  2  0
 29 34  1  0
 30 26  1  0
 30 34  1  0
 31 30  1  0
 32 33  1  0
 32 31  1  0
 33 29  1  0
 34 35  2  0
 35 36  1  0
 37 36  2  0
 38 37  1  0
 39 13  1  0
 39 40  1  0
 39 49  1  0
 40 43  1  0
 41 45  1  0
 41 40  1  0
 42 41  2  0
 45 44  1  0
 47 48  1  0
 47 45  1  0
 47 46  1  0
 49 52  1  1
 49 50  1  0
 51 49  1  0
 53  1  1  0
 54 53  1  0
 54 55  1  0
 55 56  1  0
 56 57  1  0
 57 58  1  0
 58 60  1  0
 59 63  1  0
 60 59  1  0
 60 62  1  0
 61 59  2  0
 63 64  2  0
 65 74  1  0
 65 64  1  0
 66 74  1  0
 67 72  1  0
 68 69  1  0
 68 67  1  0
 70 69  1  0
 70 79  1  0
 70 71  1  0
 72 66  1  0
 72 71  1  0
 73 66  2  0
 74 75  1  0
 76 77  2  0
 77 96  1  0
 78 77  1  0
 78 81  1  0
 79 80  1  0
 79 76  1  0
 80 78  2  0
 81 82  1  0
 82 83  2  0
 84 87  1  0
 84 83  1  0
 85 84  2  0
 86 85  1  0
 86 81  2  0
 87 88  1  0
 88 89  1  0
 89 90  2  0
 91 90  1  0
 91 95  1  0
 92 91  2  0
 93 88  2  0
 93 92  1  0
 94 93  1  0
 96 97  1  0
 97100  1  0
 97 99  1  0
 98 96  2  0
101 76  1  0
101103  1  0
102101  1  0
M  ISO  4  11 101  12 101  66 100  74 100
M  END
>  <TORSDO>  (2) 
F 30

>  <SCORE>  (2) 
-7.307

>  <name>  (2) 
1

>  <ligand_id>  (2) 
1

>  <original_smiles>  (2) 
[H]C(C(=O)N([H])C([H])([H])C([H])([H])C([H])([H])C([H])([H])C([H])([H])C([H])([H])[N+]([H])([H])C([H])([H])C([H])([H])C([H])([H])N([H])C(=O)C([H])([H])Oc1c([H])c([H])c2c(c1[H])C([H])([H])N(C(=O)C([H])(N([H])C(=O)C([H])(N([H])C([H])([H])[H])C([H])([H])[H])C(C([H])([H])[H])(C([H])([H])[H])C([H])([H])[H])C([H])(C(=O)N([H])C1([H])c3c([H])c([H])c([H])c([H])c3C([H])([H])C([H])([H])C1([H])[H])C2([H])[H])=C([H])C([H])([H])N([H])C(=O)N1C([H])([H])C([H])([H])C([H])([H])C([H])(n2nc(-c3c([H])c([H])c(Oc4c([H])c([H])c(F)c([H])c4F)c([H])c3[H])c(C(=O)N([H])[H])c2N([H])[H])C1([H])[H]

>  <smiles>  (2) 
[H]C(C(=O)N([H])C([H])([H])C([H])([H])C([H])([H])C([H])([H])C([H])([H])C([H])([H])[N+]([H])([H])C([H])([H])C([H])([H])C([H])([H])N([H])C(=O)C([H])([H])Oc1c([H])c([H])c2c(c1[H])C([H])([H])N(C(=O)C([H])(N([H])C(=O)C([H])(N([H])C([H])([H])[H])C([H])([H])[H])C(C([H])([H])[H])(C([H])([H])[H])C([H])([H])[H])C([H])(C(=O)N([H])C1([H])c3c([H])c([H])c([H])c([H])c3C([H])([H])C([H])([H])C1([H])[H])C2([H])[H])=C([H])C([H])([H])N([H])C(=O)N1C([H])([H])C([H])([H])C([H])([H])C([H])(n2nc(-c3c([H])c([H])c(Oc4c([H])c([H])c(F)c([H])c4F)c([H])c3[H])c(C(=O)N([H])[H])c2N([H])[H])C1([H])[H]

$$$$
2:0:0
     RDKit          3D

103110  0  0  1  0  0  0  0  0999 V2000
  -36.8270  -26.6960   22.3910 C   0  0  0  0  0  0  0  0  0  0  0  0
  -36.5660  -26.1470   23.5860 N   0  0  0  0  0  0  0  0  0  0  0  0
  -37.9460  -26.6520   21.8760 O   0  0  0  0  0  0  0  0  0  0  0  0
  -35.6270  -26.2440   23.9550 H   0  0  0  0  0  0  0  0  0  0  0  0
  -37.5280  -25.4200   24.4120 C   0  0  0  0  0  2  0  0  0  0  0  0
  -38.1540  -24.2420   23.6410 C   0  0  0  0  0  2  0  0  0  0  0  0
  -37.6890  -22.8580   24.1470 C   0  0  0  0  0  2  0  0  0  0  0  0
  -38.7950  -21.7840   24.1250 C   0  0  0  0  0  2  0  0  0  0  0  0
  -39.2290  -21.4980   22.7420 N   0  0  0  0  0  4  0  0  0  0  0  0
  -38.4090  -21.3320   22.1810 H   0  0  0  0  0  0  0  0  0  0  0  0
  -39.6940  -22.3140   22.3780 H   0  0  0  0  0  0  0  0  0  0  0  0
  -40.1340  -20.3410   22.5820 C   0  0  0  0  0  2  0  0  0  0  0  0
  -40.7400  -20.3200   21.1650 C   0  0  0  0  0  2  0  0  0  0  0  0
  -41.3170  -18.9590   20.7340 C   0  0  0  0  0  2  0  0  0  0  0  0
  -41.9860  -19.0550   19.3520 C   0  0  0  0  0  2  0  0  0  0  0  0
  -42.1540  -17.7100   18.6270 C   0  0  0  0  0  2  0  0  0  0  0  0
  -42.9020  -17.8960   17.2940 C   0  0  0  0  0  2  0  0  0  0  0  0
  -43.1890  -15.7720   16.0110 C   0  0  0  0  0  0  0  0  0  0  0  0
  -43.4160  -13.9010   14.4140 C   0  0  0  0  0  2  0  0  0  0  0  0
  -44.3180  -14.2980   13.2310 C   0  0  0  0  0  2  0  0  0  0  0  0
  -43.4980  -14.9940   12.1290 C   0  0  0  0  0  2  0  0  0  0  0  0
  -42.6060  -16.1370   12.6860 C   0  0  0  0  0  3  0  0  0  0  0  0
  -41.7990  -15.6430   13.9080 C   0  0  0  0  0  2  0  0  0  0  0  0
  -42.7460  -15.1120   14.9090 N   0  0  0  0  0  0  0  0  0  0  0  0
  -44.1270  -15.3770   16.7110 O   0  0  0  0  0  0  0  0  0  0  0  0
  -42.5340  -16.9040   16.2890 N   0  0  0  0  0  0  0  0  0  0  0  0
  -41.7780  -17.1440   15.6630 H   0  0  0  0  0  0  0  0  0  0  0  0
  -41.1060  -17.9210   11.5870 C   0  0  0  0  0  0  0  0  0  0  0  0
  -40.4630  -17.9560   10.3790 C   0  0  0  0  0  0  0  0  0  0  0  0
  -40.7480  -16.7080    9.7440 C   0  0  0  0  0  0  0  0  0  0  0  0
  -41.7320  -16.6860   11.6500 N   0  0  0  0  0  0  0  0  0  0  0  0
  -41.4690  -15.9370   10.5480 N   0  0  0  0  0  0  0  0  0  0  0  0
  -40.4240  -16.2250    8.3970 C   0  0  0  0  0  0  0  0  0  0  0  0
  -39.5550  -15.1310    8.1930 C   0  0  0  0  0  3  0  0  0  0  0  0
  -39.2450  -14.6950    6.8870 C   0  0  0  0  0  3  0  0  0  0  0  0
  -39.8040  -15.3570    5.7670 C   0  0  0  0  0  0  0  0  0  0  0  0
  -40.6890  -16.4290    5.9750 C   0  0  0  0  0  3  0  0  0  0  0  0
  -40.9990  -16.8590    7.2770 C   0  0  0  0  0  3  0  0  0  0  0  0
  -39.5820  -14.9870    4.4630 O   0  0  0  0  0  0  0  0  0  0  0  0
  -38.3590  -14.5300    4.0420 C   0  0  0  0  0  0  0  0  0  0  0  0
  -37.2020  -15.3390    4.0970 C   0  0  0  0  0  3  0  0  0  0  0  0
  -35.9800  -14.8530    3.5910 C   0  0  0  0  0  3  0  0  0  0  0  0
  -35.9130  -13.5670    3.0220 C   0  0  0  0  0  0  0  0  0  0  0  0
  -37.0650  -12.7620    2.9630 C   0  0  0  0  0  3  0  0  0  0  0  0
  -38.2850  -13.2440    3.4700 C   0  0  0  0  0  0  0  0  0  0  0  0
  -39.3960  -12.4730    3.3900 F   0  0  0  0  0  0  0  0  0  0  0  0
  -34.7410  -13.1040    2.5290 F   0  0  0  0  0  0  0  0  0  0  0  0
  -39.7060  -19.1160    9.8000 C   0  0  0  0  0  0  0  0  0  0  0  0
  -38.6620  -18.8430    9.0240 N   0  0  0  0  0  0  0  0  0  0  0  0
  -40.0070  -20.2780   10.0730 O   0  0  0  0  0  0  0  0  0  0  0  0
  -38.4010  -17.8900    8.8170 H   0  0  0  0  0  0  0  0  0  0  0  0
  -38.1150  -19.5970    8.6320 H   0  0  0  0  0  0  0  0  0  0  0  0
  -41.2220  -18.8370   12.6280 N   0  0  0  0  0  0  0  0  0  0  0  0
  -40.8150  -19.7650   12.5830 H   0  0  0  0  0  0  0  0  0  0  0  0
  -41.7670  -18.6850   13.4680 H   0  0  0  0  0  0  0  0  0  0  0  0
  -35.6570  -27.3550   21.6540 C   0  0  0  0  0  2  0  0  0  0  0  0
  -35.8520  -27.4260   20.1240 C   0  0  0  0  0  2  0  0  0  0  0  0
  -36.3060  -25.6370   18.4490 C   0  0  0  0  0  0  0  0  0  0  0  0
  -35.6470  -26.1130   19.5130 N   0  0  0  0  0  0  0  0  0  0  0  0
  -37.1730  -26.2870   17.8600 O   0  0  0  0  0  0  0  0  0  0  0  0
  -34.9540  -25.5080   19.9330 H   0  0  0  0  0  0  0  0  0  0  0  0
  -35.9160  -24.2260   17.9910 C   0  0  0  0  0  2  0  0  0  0  0  0
  -37.0350  -23.5580   17.4030 O   0  0  0  0  0  0  0  0  0  0  0  0
  -33.1410  -21.3600   11.8680 C   0  0  0  0  0  0  0  0  0  0  0  0
  -36.7070  -22.5500   16.5360 C   0  0  0  0  0  0  0  0  0  0  0  0
  -34.3790  -19.5980   13.0910 C   0  0  0  0  0  3  0  0  0  0  0  0
  -36.0960  -20.4280   14.7820 C   0  0  0  0  0  0  0  0  0  0  0  0
  -35.2490  -21.9990   13.0290 C   0  0  0  0  0  2  0  0  0  0  0  0
  -35.8430  -21.7510   14.3970 C   0  0  0  0  0  0  0  0  0  0  0  0
  -36.1410  -22.8160   15.2690 C   0  0  0  0  0  3  0  0  0  0  0  0
  -36.9670  -21.2170   16.9120 C   0  0  0  0  0  3  0  0  0  0  0  0
  -36.6530  -20.1520   16.0430 C   0  0  0  0  0  3  0  0  0  0  0  0
  -35.7490  -19.3510   13.7800 C   0  0  0  0  0  2  0  0  0  0  0  0
  -34.2040  -21.0210   12.6520 N   0  0  0  0  0  0  0  0  0  0  0  0
  -32.3390  -20.5040   11.4720 O   0  0  0  0  0  0  0  0  0  0  0  0
  -33.2590  -19.1100   14.0370 C   0  0  0  0  0  0  0  0  0  0  0  0
  -33.5170  -17.9950   14.7400 N   0  0  0  0  0  0  0  0  0  0  0  0
  -32.2020  -19.7380   14.1460 O   0  0  0  0  0  0  0  0  0  0  0  0
  -34.4030  -17.5330   14.5840 H   0  0  0  0  0  0  0  0  0  0  0  0
  -33.3950  -15.6130   17.4500 C   0  0  0  0  0  0  0  0  0  0  0  0
  -32.6280  -17.3700   15.7180 C   0  0  0  0  0  3  0  0  0  0  0  0
  -32.3830  -18.3030   16.9250 C   0  0  0  0  0  2  0  0  0  0  0  0
  -33.3590  -18.0640   18.0820 C   0  0  0  0  0  2  0  0  0  0  0  0
  -33.2590  -16.6190   18.5810 C   0  0  0  0  0  2  0  0  0  0  0  0
  -33.1150  -15.9690   16.1060 C   0  0  0  0  0  0  0  0  0  0  0  0
  -33.2930  -15.0080   15.0900 C   0  0  0  0  0  3  0  0  0  0  0  0
  -33.7410  -13.7080   15.3980 C   0  0  0  0  0  3  0  0  0  0  0  0
  -34.0040  -13.3550   16.7320 C   0  0  0  0  0  3  0  0  0  0  0  0
  -33.8270  -14.3030   17.7560 C   0  0  0  0  0  3  0  0  0  0  0  0
  -32.8970  -22.8320   11.4100 C   0  0  0  0  0  3  0  0  0  0  0  0
  -31.4700  -23.3790   11.8010 C   0  0  1  0  0  0  0  0  0  0  0  0
  -30.3060  -22.4980   11.2910 C   0  0  0  0  0  1  0  0  0  0  0  0
  -31.3370  -23.5020   13.3360 C   0  0  0  0  0  1  0  0  0  0  0  0
  -31.2810  -24.8010   11.2230 C   0  0  0  0  0  1  0  0  0  0  0  0
  -33.0980  -22.8800    9.9550 N   0  0  0  0  0  0  0  0  0  0  0  0
  -34.1060  -23.5170    9.3480 C   0  0  0  0  0  0  0  0  0  0  0  0
  -34.9350  -24.1970    9.9610 O   0  0  0  0  0  0  0  0  0  0  0  0
  -32.4930  -22.2960    9.3960 H   0  0  0  0  0  0  0  0  0  0  0  0
  -35.4030  -22.4830    7.4590 C   0  0  0  0  0  1  0  0  0  0  0  0
  -34.2110  -23.3850    7.8170 C   0  0  0  0  0  3  0  0  0  0  0  0
  -33.1450  -25.5150    7.2240 C   0  0  0  0  0  1  0  0  0  0  0  0
  -34.3400  -24.6820    7.1210 N   0  0  0  0  0  0  0  0  0  0  0  0
  -34.5450  -24.5430    6.1350 H   0  0  0  0  0  0  0  0  0  0  0  0
  1  2  1  0
  2  4  1  0
  2  5  1  0
  3  1  2  0
  6  7  1  0
  6  5  1  0
  8  7  1  0
  9  8  1  0
 10  9  1  0
 11  9  1  0
 12  9  1  0
 13 12  1  0
 14 13  1  0
 15 14  1  0
 16 15  1  0
 17 16  1  0
 18 26  1  0
 18 25  2  0
 19 24  1  0
 20 19  1  0
 21 22  1  0
 21 20  1  0
 22 31  1  0
 22 23  1  0
 23 24  1  0
 24 18  1  0
 26 17  1  0
 27 26  1  0
 28 31  1  0
 28 53  1  0
 29 28  2  0
 30 29  1  0
 30 32  2  0
 32 31  1  0
 33 30  1  0
 34 33  1  0
 35 34  2  0
 36 37  2  0
 36 35  1  0
 37 38  1  0
 38 33  2  0
 39 36  1  0
 40 41  1  0
 40 39  1  0
 42 41  2  0
 43 42  1  0
 44 43  2  0
 44 45  1  0
 45 40  2  0
 46 45  1  0
 47 43  1  0
 48 50  2  0
 48 29  1  0
 49 48  1  0
 51 49  1  0
 52 49  1  0
 53 55  1  0
 54 53  1  0
 56  1  1  0
 57 56  1  0
 58 59  1  0
 59 61  1  0
 59 57  1  0
 60 58  2  0
 62 58  1  0
 63 62  1  0
 64 74  1  0
 65 71  1  0
 65 63  1  0
 66 73  1  0
 66 76  1  0
 67 72  1  0
 68 69  1  0
 69 67  2  0
 69 70  1  0
 70 65  2  0
 72 71  2  0
 73 67  1  0
 74 68  1  0
 74 66  1  0
 75 64  2  0
 76 78  2  0
 76 77  1  0
 79 77  1  0
 80 89  1  0
 80 84  1  0
 81 77  1  0
 81 85  1  0
 81 82  1  0
 82 83  1  0
 83 84  1  0
 85 80  2  0
 86 87  2  0
 86 85  1  0
 87 88  1  0
 88 89  2  0
 90 91  1  0
 90 64  1  0
 91 93  1  1
 92 91  1  0
 94 91  1  0
 95 90  1  0
 96 95  1  0
 96 97  2  0
 98 95  1  0
100 99  1  0
100 96  1  0
102101  1  0
102100  1  0
103102  1  0
M  ISO  4  18 100  26 100  62 101  63 101
M  END
>  <TORSDO>  (3) 
F 31

>  <SCORE>  (3) 
-1.063

>  <name>  (3) 
2

>  <ligand_id>  (3) 
2

>  <original_smiles>  (3) 
[H]c1c([H])c([H])c2c(c1[H])C([H])([H])C([H])([H])C([H])([H])C2([H])N([H])C(=O)C1([H])N(C(=O)C([H])(N([H])C(=O)C([H])(N([H])C([H])([H])[H])C([H])([H])[H])C(C([H])([H])[H])(C([H])([H])[H])C([H])([H])[H])C([H])([H])c2c([H])c(OC([H])([H])C(=O)N([H])C([H])([H])C([H])([H])C(=O)N([H])C([H])([H])C([H])([H])C([H])([H])C([H])([H])[N+]([H])([H])C([H])([H])C([H])([H])C([H])([H])C([H])([H])C([H])([H])C([H])([H])N([H])C(=O)N3C([H])([H])C([H])([H])C([H])([H])C([H])(n4nc(-c5c([H])c([H])c(Oc6c([H])c([H])c(F)c([H])c6F)c([H])c5[H])c(C(=O)N([H])[H])c4N([H])[H])C3([H])[H])c([H])c([H])c2C1([H])[H]

>  <smiles>  (3) 
[H]c1c([H])c([H])c2c(c1[H])C([H])([H])C([H])([H])C([H])([H])C2([H])N([H])C(=O)C1([H])N(C(=O)C([H])(N([H])C(=O)C([H])(N([H])C([H])([H])[H])C([H])([H])[H])C(C([H])([H])[H])(C([H])([H])[H])C([H])([H])[H])C([H])([H])c2c([H])c(OC([H])([H])C(=O)N([H])C([H])([H])C([H])([H])C(=O)N([H])C([H])([H])C([H])([H])C([H])([H])C([H])([H])[N+]([H])([H])C([H])([H])C([H])([H])C([H])([H])C([H])([H])C([H])([H])C([H])([H])N([H])C(=O)N3C([H])([H])C([H])([H])C([H])([H])C([H])(n4nc(-c5c([H])c([H])c(Oc6c([H])c([H])c(F)c([H])c6F)c([H])c5[H])c(C(=O)N([H])[H])c4N([H])[H])C3([H])[H])c([H])c([H])c2C1([H])[H]

$$$$
3:0:0
     RDKit          3D

102 99  0  0  1  0  0  0  0  0999 V2000
  -23.1130  -22.4470   25.4970 C   0  0  0  0  0  2  0  0  0  0  0  0
  -25.3400  -23.1890   24.5290 C   0  0  0  0  0  0  0  0  0  0  0  0
  -24.1660  -23.4200   25.1460 N   0  0  0  0  0  0  0  0  0  0  0  0
  -25.7680  -22.0580   24.2880 O   0  0  0  0  0  0  0  0  0  0  0  0
  -23.9770  -24.3840   25.3690 H   0  0  0  0  0  0  0  0  0  0  0  0
  -26.1390  -24.4240   24.0870 C   0  0  0  0  0  2  0  0  0  0  0  0
  -26.9550  -24.2050   22.8550 N   0  0  0  0  0  4  0  0  0  0  0  0
  -26.3270  -23.7990   22.1780 H   0  0  0  0  0  0  0  0  0  0  0  0
  -27.6530  -23.4980   23.0470 H   0  0  0  0  0  0  0  0  0  0  0  0
  -27.5430  -25.4670   22.3040 C   0  0  0  0  0  2  0  0  0  0  0  0
  -28.1580  -25.3700   20.8680 C   0  0  0  0  0  2  0  0  0  0  0  0
  -28.3450  -26.6570   20.2280 O   0  0  0  0  0  0  0  0  0  0  0  0
  -24.6420  -31.9070   23.1890 C   0  0  0  0  0  0  0  0  0  0  0  0
  -27.2170  -27.4380   20.1150 C   0  0  0  0  0  0  0  0  0  0  0  0
  -23.4720  -30.5130   21.5430 C   0  0  0  0  0  3  0  0  0  0  0  0
  -24.8730  -29.0040   20.0750 C   0  0  0  0  0  0  0  0  0  0  0  0
  -25.9790  -30.8740   21.3360 C   0  0  0  0  0  2  0  0  0  0  0  0
  -26.0340  -29.5060   20.6780 C   0  0  0  0  0  0  0  0  0  0  0  0
  -27.2160  -28.7380   20.6710 C   0  0  0  0  0  3  0  0  0  0  0  0
  -26.0390  -26.9410   19.5160 C   0  0  0  0  0  3  0  0  0  0  0  0
  -24.8690  -27.7250   19.4870 C   0  0  0  0  0  3  0  0  0  0  0  0
  -23.6510  -29.8910   20.1340 C   0  0  0  0  0  2  0  0  0  0  0  0
  -24.7170  -31.1470   22.0630 N   0  0  0  0  0  0  0  0  0  0  0  0
  -23.5580  -32.1580   23.7330 O   0  0  0  0  0  0  0  0  0  0  0  0
  -23.0630  -29.3880   22.4850 C   0  0  0  0  0  0  0  0  0  0  0  0
  -21.8960  -28.8580   22.2790 N   0  0  0  0  0  0  0  0  0  0  0  0
  -23.7950  -28.9400   23.3670 O   0  0  0  0  0  0  0  0  0  0  0  0
  -21.2800  -29.2520   21.5820 H   0  0  0  0  0  0  0  0  0  0  0  0
  -18.3430  -27.6160   22.2890 C   0  0  0  0  0  3  0  0  0  0  0  0
  -21.3680  -27.9600   23.2470 C   0  0  0  0  0  2  0  0  0  0  0  0
  -21.9990  -25.7300   23.4460 C   0  0  0  0  0 15  0  0  0  0  0  0
  -20.0650  -24.2660   22.5000 C   0  0  0  0  0 15  0  0  0  0  0  0
  -18.3700  -25.6890   21.8450 C   0  0  0  0  0 15  0  0  0  0  0  0
  -19.5840  -28.5290   22.8400 C   0  0  0  0  0  0  0  0  0  0  0  0
  -19.2260  -29.7890   23.4920 C   0  0  0  0  0  3  0  0  0  0  0  0
  -17.9120  -30.2660   23.7260 C   0  0  0  0  0  3  0  0  0  0  0  0
  -16.8320  -29.4790   23.3120 C   0  0  0  0  0  3  0  0  0  0  0  0
  -17.0540  -28.2250   22.6440 C   0  0  0  0  0  3  0  0  0  0  0  0
  -25.9280  -32.5040   23.8410 C   0  0  0  0  0  3  0  0  0  0  0  0
  -25.6070  -33.8770   24.2380 N   0  0  0  0  0  0  0  0  0  0  0  0
  -25.9090  -34.9610   23.5130 C   0  0  0  0  0  0  0  0  0  0  0  0
  -26.5580  -34.9050   22.4630 O   0  0  0  0  0  0  0  0  0  0  0  0
  -25.0290  -33.9890   25.0580 H   0  0  0  0  0  0  0  0  0  0  0  0
  -24.1490  -36.7350   23.2620 C   0  0  0  0  0  1  0  0  0  0  0  0
  -25.4130  -36.3210   24.0340 C   0  0  0  0  0  3  0  0  0  0  0  0
  -27.5600  -37.1850   24.8470 C   0  0  0  0  0  1  0  0  0  0  0  0
  -26.4310  -37.3890   23.9420 N   0  0  0  0  0  0  0  0  0  0  0  0
  -26.0210  -38.2960   24.1460 H   0  0  0  0  0  0  0  0  0  0  0  0
  -26.4470  -31.6700   25.0720 C   0  0  1  0  0  0  0  0  0  0  0  0
  -25.3610  -31.3790   26.1330 C   0  0  0  0  0  1  0  0  0  0  0  0
  -27.0280  -30.3140   24.6080 C   0  0  0  0  0  1  0  0  0  0  0  0
  -27.6020  -32.4340   25.7600 C   0  0  0  0  0  1  0  0  0  0  0  0
  -21.7070  -22.8930   24.9890 C   0  0  0  0  0  3  0  0  0  0  0  0
  -20.9190  -23.8340   25.9530 C   0  0  0  0  0  3  0  0  0  0  0  0
  -19.4070  -24.2120   25.6980 C   0  0  0  0  0  2  0  0  0  0  0  0
  -18.7950  -25.1330   24.5520 C   0  0  0  0  0  2  0  0  0  0  0  0
  -19.7360  -26.2020   23.7820 C   0  0  0  0  0  2  0  0  0  0  0  0
  -20.6280  -26.2670   21.8400 N   0  0  0  0  0  1  0  0  0  0  0  0
  -19.8520  -26.9160   24.8150 O   0  0  0  0  0  1  0  0  0  0  0  0
  -20.8570  -27.1960   21.5280 H   0  0  0  0  0  0  0  0  0  0  0  0
  -22.0560  -24.7670   21.0460 C   0  0  0  0  0 15  0  0  0  0  0  0
  -23.6090  -22.9810   21.2840 C   0  0  0  0  0 15  0  0  0  0  0  0
  -24.7490  -20.9480   20.7980 C   0  0  0  0  0 15  0  0  0  0  0  0
  -26.5890  -19.4280   20.8160 C   0  0  0  0  0 15  0  0  0  0  0  0
  -28.9290  -16.3220   20.4560 C   0  0  0  0  0  0  0  0  0  0  0  0
  -30.0770  -13.7940   19.6130 C   0  0  0  0  0  2  0  0  0  0  0  0
  -29.4910  -12.8900   18.4530 C   0  0  0  0  0  2  0  0  0  0  0  0
  -28.1560  -12.2560   18.8690 C   0  0  0  0  0  2  0  0  0  0  0  0
  -27.4360  -13.2580   19.7820 C   0  0  0  0  0  3  0  0  0  0  0  0
  -28.2510  -13.7570   20.9680 C   0  0  0  0  0  2  0  0  0  0  0  0
  -29.0370  -14.7870   20.3200 N   0  0  0  0  0  0  0  0  0  0  0  0
  -30.2060  -16.4500   20.3340 O   0  0  0  0  0  0  0  0  0  0  0  0
  -27.6430  -17.5840   20.5950 N   0  0  0  0  0  2  0  0  0  0  0  0
  -28.4690  -18.1690   20.5710 H   0  0  0  0  0  0  0  0  0  0  0  0
  -25.1570  -13.7990   20.5620 C   0  0  0  0  0  0  0  0  0  0  0  0
  -24.1110  -13.0210   20.9330 C   0  0  0  0  0  0  0  0  0  0  0  0
  -24.5840  -11.6720   20.8840 C   0  0  0  0  0  0  0  0  0  0  0  0
  -26.1610  -12.9040   20.2670 N   0  0  0  0  0  0  0  0  0  0  0  0
  -25.8610  -11.6240   20.5480 N   0  0  0  0  0  0  0  0  0  0  0  0
  -23.8730  -10.4150   21.0510 C   0  0  0  0  0  0  0  0  0  0  0  0
  -24.3410   -9.4100   21.9250 C   0  0  0  0  0  3  0  0  0  0  0  0
  -23.6170   -8.2120   22.0790 C   0  0  0  0  0  3  0  0  0  0  0  0
  -22.4190   -8.0150   21.3550 C   0  0  0  0  0  0  0  0  0  0  0  0
  -21.9740   -9.0070   20.4660 C   0  0  0  0  0  3  0  0  0  0  0  0
  -22.6970  -10.1970   20.3080 C   0  0  0  0  0  3  0  0  0  0  0  0
  -21.6540   -6.8760   21.4270 O   0  0  0  0  0  0  0  0  0  0  0  0
  -21.6780   -6.0680   22.5320 C   0  0  0  0  0  0  0  0  0  0  0  0
  -21.3950   -6.5600   23.8240 C   0  0  0  0  0  3  0  0  0  0  0  0
  -21.3640   -5.6770   24.9210 C   0  0  0  0  0  3  0  0  0  0  0  0
  -21.6040   -4.3040   24.7260 C   0  0  0  0  0  0  0  0  0  0  0  0
  -21.8820   -3.8120   23.4390 C   0  0  0  0  0  3  0  0  0  0  0  0
  -21.9180   -4.6930   22.3440 C   0  0  0  0  0  0  0  0  0  0  0  0
  -22.1660   -4.2110   21.1020 F   0  0  0  0  0  0  0  0  0  0  0  0
  -21.5640   -3.4530   25.7780 F   0  0  0  0  0  0  0  0  0  0  0  0
  -22.7250  -13.5090   21.2040 C   0  0  0  0  0  0  0  0  0  0  0  0
  -21.9910  -12.8150   22.0620 N   0  0  0  0  0  0  0  0  0  0  0  0
  -22.3060  -14.5420   20.6840 O   0  0  0  0  0  0  0  0  0  0  0  0
  -22.3450  -11.9800   22.5040 H   0  0  0  0  0  0  0  0  0  0  0  0
  -21.0550  -13.1270   22.2790 H   0  0  0  0  0  0  0  0  0  0  0  0
  -25.3300  -15.1770   20.4190 N   0  0  0  0  0  0  0  0  0  0  0  0
  -24.5640  -15.8210   20.5850 H   0  0  0  0  0  0  0  0  0  0  0  0
  -26.1730  -15.6460   20.1160 H   0  0  0  0  0  0  0  0  0  0  0  0
  2  3  1  0
  3  5  1  0
  3  1  1  0
  4  2  2  0
  6  2  1  0
  7  9  1  0
  7  6  1  0
  8  7  1  0
 10  7  1  0
 11 10  1  0
 12 11  1  0
 13 24  2  0
 14 12  1  0
 14 19  1  0
 15 23  1  0
 15 25  1  0
 16 22  1  0
 16 18  1  0
 17 23  1  0
 18 17  1  0
 19 18  2  0
 20 14  2  0
 21 20  1  0
 21 16  2  0
 22 15  1  0
 23 13  1  0
 25 27  2  0
 26 25  1  0
 26 30  1  0
 28 26  1  0
 29 38  2  0
 29 34  1  0
 34 30  1  0
 34 35  2  0
 35 36  1  0
 37 36  2  0
 38 37  1  0
 39 13  1  0
 39 40  1  0
 39 49  1  0
 40 43  1  0
 41 45  1  0
 41 40  1  0
 42 41  2  0
 45 44  1  0
 47 45  1  0
 47 48  1  0
 47 46  1  0
 49 52  1  1
 49 50  1  0
 51 49  1  0
 53  1  1  0
 53 54  2  0
 55 54  1  0
 56 55  1  0
 57 56  1  0
 57 59  1  0
 60 58  1  0
 65 73  1  0
 66 71  1  0
 67 68  1  0
 67 66  1  0
 69 68  1  0
 69 78  1  0
 69 70  1  0
 71 65  1  0
 71 70  1  0
 72 65  2  0
 74 73  1  0
 75 76  2  0
 76 95  1  0
 77 76  1  0
 77 80  1  0
 78 79  1  0
 78 75  1  0
 79 77  2  0
 80 81  1  0
 81 82  2  0
 83 86  1  0
 83 82  1  0
 84 83  2  0
 85 84  1  0
 85 80  2  0
 86 87  1  0
 87 88  1  0
 88 89  2  0
 90 89  1  0
 90 94  1  0
 91 90  2  0
 92 87  2  0
 92 91  1  0
 93 92  1  0
 95 96  1  0
 96 99  1  0
 96 98  1  0
 97 95  2  0
100 75  1  0
100101  1  0
102100  1  0
M  ISO  4  11 101  12 101  65 100  73 100
M  END
>  <TORSDO>  (4) 
F 30

>  <SCORE>  (4) 
52.137

>  <name>  (4) 
3

>  <ligand_id>  (4) 
3

>  <original_smiles>  (4) 
[H]c1c([H])c([H])c2c(c1[H])C([H])([H])C([H])([H])C([H])([H])C2([H])N([H])C(=O)C1([H])N(C(=O)C([H])(N([H])C(=O)C([H])(N([H])C([H])([H])[H])C([H])([H])[H])C(C([H])([H])[H])(C([H])([H])[H])C([H])([H])[H])C([H])([H])c2c([H])c(OC([H])([H])C([H])([H])[N+]([H])([H])C([H])([H])C(=O)N([H])C([H])([H])C([H])([H])C([H])([H])C([H])([H])C([H])([H])C(=O)N([H])C([H])([H])C([H])([H])C([H])([H])C([H])([H])N([H])C(=O)N3C([H])([H])C([H])([H])C([H])([H])C([H])(n4nc(-c5c([H])c([H])c(Oc6c([H])c([H])c(F)c([H])c6F)c([H])c5[H])c(C(=O)N([H])[H])c4N([H])[H])C3([H])[H])c([H])c([H])c2C1([H])[H]

>  <smiles>  (4) 
[H]c1c([H])c([H])c2c(c1[H])C([H])([H])C([H])([H])C([H])([H])C2([H])N([H])C(=O)C1([H])N(C(=O)C([H])(N([H])C(=O)C([H])(N([H])C([H])([H])[H])C([H])([H])[H])C(C([H])([H])[H])(C([H])([H])[H])C([H])([H])[H])C([H])([H])c2c([H])c(OC([H])([H])C([H])([H])[N+]([H])([H])C([H])([H])C(=O)N([H])C([H])([H])C([H])([H])C([H])([H])C([H])([H])C([H])([H])C(=O)N([H])C([H])([H])C([H])([H])C([H])([H])C([H])([H])N([H])C(=O)N3C([H])([H])C([H])([H])C([H])([H])C([H])(n4nc(-c5c([H])c([H])c(Oc6c([H])c([H])c(F)c([H])c6F)c([H])c5[H])c(C(=O)N([H])[H])c4N([H])[H])C3([H])[H])c([H])c([H])c2C1([H])[H]

$$$$
4:0:0
     RDKit          3D

 94101  0  0  1  0  0  0  0  0999 V2000
  -30.5350  -22.8780   23.3430 C   0  0  0  0  0  2  0  0  0  0  0  0
  -30.5450  -21.6090   24.2160 C   0  0  0  0  0  2  0  0  0  0  0  0
  -30.2500  -20.2660   23.5140 C   0  0  0  0  0  2  0  0  0  0  0  0
  -31.2560  -19.8850   22.4100 C   0  0  0  0  0  2  0  0  0  0  0  0
  -30.8220  -17.4690   21.8560 C   0  0  0  0  0  0  0  0  0  0  0  0
  -31.5440  -18.4510   22.4090 N   0  0  0  0  0  0  0  0  0  0  0  0
  -29.7870  -17.6680   21.2150 O   0  0  0  0  0  0  0  0  0  0  0  0
  -32.3840  -18.1690   22.8980 H   0  0  0  0  0  0  0  0  0  0  0  0
  -31.3500  -16.0500   22.0950 C   0  0  0  0  0  2  0  0  0  0  0  0
  -30.7390  -14.4340   20.2970 C   0  0  0  0  0  0  0  0  0  0  0  0
  -30.2620  -12.4140   18.9580 C   0  0  0  0  0  2  0  0  0  0  0  0
  -29.2510  -12.6620   17.8260 C   0  0  0  0  0  2  0  0  0  0  0  0
  -27.8090  -12.5080   18.3410 C   0  0  0  0  0  2  0  0  0  0  0  0
  -27.5530  -13.3270   19.6320 C   0  0  0  0  0  3  0  0  0  0  0  0
  -28.6580  -13.0620   20.6780 C   0  0  0  0  0  2  0  0  0  0  0  0
  -29.9710  -13.3410   20.0620 N   0  0  0  0  0  0  0  0  0  0  0  0
  -31.6620  -14.7930   19.5580 O   0  0  0  0  0  0  0  0  0  0  0  0
  -30.5270  -15.0070   21.4860 N   0  0  0  0  0  0  0  0  0  0  0  0
  -29.7610  -14.6500   22.0350 H   0  0  0  0  0  0  0  0  0  0  0  0
  -25.2040  -13.9510   20.4860 C   0  0  0  0  0  0  0  0  0  0  0  0
  -24.1470  -13.1840   20.8970 C   0  0  0  0  0  0  0  0  0  0  0  0
  -24.5870  -11.8270   20.8100 C   0  0  0  0  0  0  0  0  0  0  0  0
  -26.2240  -13.0620   20.1790 N   0  0  0  0  0  0  0  0  0  0  0  0
  -25.8570  -11.7780   20.4270 N   0  0  0  0  0  0  0  0  0  0  0  0
  -23.8560  -10.5700   21.0140 C   0  0  0  0  0  0  0  0  0  0  0  0
  -24.3190   -9.5830   21.9110 C   0  0  0  0  0  3  0  0  0  0  0  0
  -23.5890   -8.3910   22.1030 C   0  0  0  0  0  3  0  0  0  0  0  0
  -22.3820   -8.1760   21.3980 C   0  0  0  0  0  0  0  0  0  0  0  0
  -21.9360   -9.1520   20.4880 C   0  0  0  0  0  3  0  0  0  0  0  0
  -22.6670  -10.3360   20.2950 C   0  0  0  0  0  3  0  0  0  0  0  0
  -21.6200   -7.0380   21.5000 O   0  0  0  0  0  0  0  0  0  0  0  0
  -21.6100   -6.2790   22.6420 C   0  0  0  0  0  0  0  0  0  0  0  0
  -21.2590   -6.8230   23.8980 C   0  0  0  0  0  3  0  0  0  0  0  0
  -21.1960   -5.9910   25.0330 C   0  0  0  0  0  3  0  0  0  0  0  0
  -21.4720   -4.6170   24.9160 C   0  0  0  0  0  0  0  0  0  0  0  0
  -21.8170   -4.0710   23.6660 C   0  0  0  0  0  3  0  0  0  0  0  0
  -21.8830   -4.8990   22.5320 C   0  0  0  0  0  0  0  0  0  0  0  0
  -22.1940   -4.3650   21.3270 F   0  0  0  0  0  0  0  0  0  0  0  0
  -21.4040   -3.8150   26.0050 F   0  0  0  0  0  0  0  0  0  0  0  0
  -22.7750  -13.6720   21.2620 C   0  0  0  0  0  0  0  0  0  0  0  0
  -22.0900  -12.9650   22.1540 N   0  0  0  0  0  0  0  0  0  0  0  0
  -22.3200  -14.7130   20.7900 O   0  0  0  0  0  0  0  0  0  0  0  0
  -22.4710  -12.1230   22.5580 H   0  0  0  0  0  0  0  0  0  0  0  0
  -21.1710  -13.2730   22.4380 H   0  0  0  0  0  0  0  0  0  0  0  0
  -25.3780  -15.3230   20.3320 N   0  0  0  0  0  0  0  0  0  0  0  0
  -24.6320  -15.9880   20.5080 H   0  0  0  0  0  0  0  0  0  0  0  0
  -26.2290  -15.7600   19.9980 H   0  0  0  0  0  0  0  0  0  0  0  0
  -29.1940  -23.1470   22.6320 C   0  0  0  0  0  2  0  0  0  0  0  0
  -29.6920  -25.3030   21.4340 C   0  0  0  0  0  0  0  0  0  0  0  0
  -28.9930  -24.5580   22.3000 N   0  0  0  0  0  0  0  0  0  0  0  0
  -30.6650  -24.8690   20.8120 O   0  0  0  0  0  0  0  0  0  0  0  0
  -28.2020  -25.0130   22.7400 H   0  0  0  0  0  0  0  0  0  0  0  0
  -29.2020  -26.7400   21.2080 C   0  0  0  0  0  2  0  0  0  0  0  0
  -28.3420  -26.7340   20.0690 O   0  0  0  0  0  0  0  0  0  0  0  0
  -24.5190  -31.8900   23.2120 C   0  0  0  0  0  0  0  0  0  0  0  0
  -27.2010  -27.4960   20.1300 C   0  0  0  0  0  0  0  0  0  0  0  0
  -23.3190  -30.4810   21.5680 C   0  0  0  0  0  3  0  0  0  0  0  0
  -24.7840  -28.9560   20.1430 C   0  0  0  0  0  0  0  0  0  0  0  0
  -25.8380  -30.8670   21.3660 C   0  0  0  0  0  2  0  0  0  0  0  0
  -25.9340  -29.4960   20.7330 C   0  0  0  0  0  0  0  0  0  0  0  0
  -27.1450  -28.7740   20.7320 C   0  0  0  0  0  3  0  0  0  0  0  0
  -26.0410  -26.9690   19.5280 C   0  0  0  0  0  3  0  0  0  0  0  0
  -24.8310  -27.6870   19.5380 C   0  0  0  0  0  3  0  0  0  0  0  0
  -23.5310  -29.8000   20.1880 C   0  0  0  0  0  2  0  0  0  0  0  0
  -24.5770  -31.0940   22.1080 N   0  0  0  0  0  0  0  0  0  0  0  0
  -23.4380  -32.1530   23.7550 O   0  0  0  0  0  0  0  0  0  0  0  0
  -22.6780  -29.4550   22.5290 C   0  0  0  0  0  0  0  0  0  0  0  0
  -21.3540  -29.2680   22.4070 N   0  0  0  0  0  0  0  0  0  0  0  0
  -23.3680  -28.8290   23.3370 O   0  0  0  0  0  0  0  0  0  0  0  0
  -20.8600  -29.8230   21.7210 H   0  0  0  0  0  0  0  0  0  0  0  0
  -17.9850  -28.0740   22.9210 C   0  0  0  0  0  0  0  0  0  0  0  0
  -20.5430  -28.3280   23.1790 C   0  0  0  0  0  3  0  0  0  0  0  0
  -20.6430  -26.9000   22.5930 C   0  0  0  0  0  2  0  0  0  0  0  0
  -19.5330  -26.5850   21.5850 C   0  0  0  0  0  2  0  0  0  0  0  0
  -18.1560  -26.7280   22.2370 C   0  0  0  0  0  2  0  0  0  0  0  0
  -19.1060  -28.8330   23.3490 C   0  0  0  0  0  0  0  0  0  0  0  0
  -18.8930  -30.0940   23.9460 C   0  0  0  0  0  3  0  0  0  0  0  0
  -17.5910  -30.5960   24.1230 C   0  0  0  0  0  3  0  0  0  0  0  0
  -16.4830  -29.8340   23.7120 C   0  0  0  0  0  3  0  0  0  0  0  0
  -16.6810  -28.5760   23.1160 C   0  0  0  0  0  3  0  0  0  0  0  0
  -25.8050  -32.5260   23.8300 C   0  0  0  0  0  3  0  0  0  0  0  0
  -25.4920  -33.9220   24.1590 N   0  0  0  0  0  0  0  0  0  0  0  0
  -25.8230  -34.9740   23.3970 C   0  0  0  0  0  0  0  0  0  0  0  0
  -26.4950  -34.8700   22.3670 O   0  0  0  0  0  0  0  0  0  0  0  0
  -24.8980  -34.0760   24.9590 H   0  0  0  0  0  0  0  0  0  0  0  0
  -24.0900  -36.7590   23.0330 C   0  0  0  0  0  1  0  0  0  0  0  0
  -25.3280  -36.3600   23.8510 C   0  0  0  0  0  3  0  0  0  0  0  0
  -27.4570  -37.2510   24.6880 C   0  0  0  0  0  1  0  0  0  0  0  0
  -26.3580  -37.4170   23.7420 N   0  0  0  0  0  0  0  0  0  0  0  0
  -25.9500  -38.3350   23.8900 H   0  0  0  0  0  0  0  0  0  0  0  0
  -26.3320  -31.7560   25.1020 C   0  0  1  0  0  0  0  0  0  0  0  0
  -25.2450  -31.5100   26.1740 C   0  0  0  0  0  1  0  0  0  0  0  0
  -26.9230  -30.3830   24.7030 C   0  0  0  0  0  1  0  0  0  0  0  0
  -27.4790  -32.5560   25.7620 C   0  0  0  0  0  1  0  0  0  0  0  0
  1  2  1  0
  3  2  1  0
  4  3  1  0
  5  9  1  0
  5  6  1  0
  6  4  1  0
  6  8  1  0
  7  5  2  0
 10 18  1  0
 11 16  1  0
 12 13  1  0
 12 11  1  0
 14 13  1  0
 14 23  1  0
 14 15  1  0
 16 10  1  0
 16 15  1  0
 17 10  2  0
 18 19  1  0
 18  9  1  0
 20 21  2  0
 21 40  1  0
 22 21  1  0
 22 25  1  0
 23 24  1  0
 23 20  1  0
 24 22  2  0
 25 26  1  0
 26 27  2  0
 28 31  1  0
 28 27  1  0
 29 28  2  0
 30 29  1  0
 30 25  2  0
 31 32  1  0
 32 33  1  0
 33 34  2  0
 35 34  1  0
 35 39  1  0
 36 35  2  0
 37 32  2  0
 37 36  1  0
 38 37  1  0
 40 41  1  0
 41 44  1  0
 41 43  1  0
 42 40  2  0
 45 20  1  0
 45 46  1  0
 47 45  1  0
 48  1  1  0
 49 50  1  0
 50 48  1  0
 50 52  1  0
 51 49  2  0
 53 49  1  0
 54 56  1  0
 54 53  1  0
 55 66  2  0
 56 61  1  0
 57 65  1  0
 57 67  1  0
 58 64  1  0
 58 60  1  0
 59 65  1  0
 60 59  1  0
 61 60  2  0
 62 63  1  0
 62 56  2  0
 63 58  2  0
 64 57  1  0
 65 55  1  0
 67 69  2  0
 68 67  1  0
 70 68  1  0
 71 80  2  0
 71 76  1  0
 72 68  1  0
 72 76  1  0
 73 72  1  0
 74 75  1  0
 74 73  1  0
 75 71  1  0
 76 77  2  0
 77 78  1  0
 79 78  2  0
 80 79  1  0
 81 55  1  0
 81 82  1  0
 81 91  1  0
 82 85  1  0
 83 87  1  0
 83 82  1  0
 84 83  2  0
 87 86  1  0
 89 87  1  0
 89 90  1  0
 89 88  1  0
 91 94  1  1
 91 92  1  0
 93 91  1  0
M  ISO  4  10 100  18 100  53 101  54 101
M  END
>  <TORSDO>  (5) 
F 24

>  <SCORE>  (5) 
-11.745

>  <name>  (5) 
4

>  <ligand_id>  (5) 
4

>  <original_smiles>  (5) 
[H]c1c([H])c([H])c2c(c1[H])C([H])([H])C([H])([H])C([H])([H])C2([H])N([H])C(=O)C1([H])N(C(=O)C([H])(N([H])C(=O)C([H])(N([H])C([H])([H])[H])C([H])([H])[H])C(C([H])([H])[H])(C([H])([H])[H])C([H])([H])[H])C([H])([H])c2c([H])c(OC([H])([H])C(=O)N([H])C([H])([H])C([H])([H])C([H])([H])C([H])([H])C([H])([H])N([H])C(=O)C([H])([H])N([H])C(=O)N3C([H])([H])C([H])([H])C([H])([H])C([H])(n4nc(-c5c([H])c([H])c(Oc6c([H])c([H])c(F)c([H])c6F)c([H])c5[H])c(C(=O)N([H])[H])c4N([H])[H])C3([H])[H])c([H])c([H])c2C1([H])[H]

>  <smiles>  (5) 
[H]c1c([H])c([H])c2c(c1[H])C([H])([H])C([H])([H])C([H])([H])C2([H])N([H])C(=O)C1([H])N(C(=O)C([H])(N([H])C(=O)C([H])(N([H])C([H])([H])[H])C([H])([H])[H])C(C([H])([H])[H])(C([H])([H])[H])C([H])([H])[H])C([H])([H])c2c([H])c(OC([H])([H])C(=O)N([H])C([H])([H])C([H])([H])C([H])([H])C([H])([H])C([H])([H])N([H])C(=O)C([H])([H])N([H])C(=O)N3C([H])([H])C([H])([H])C([H])([H])C([H])(n4nc(-c5c([H])c([H])c(Oc6c([H])c([H])c(F)c([H])c6F)c([H])c5[H])c(C(=O)N([H])[H])c4N([H])[H])C3([H])[H])c([H])c([H])c2C1([H])[H]

$$$$
5:0:0
     RDKit          3D

102106  0  0  1  0  0  0  0  0999 V2000
  -25.8520  -17.7470   18.8350 C   0  0  0  0  0  2  0  0  0  0  0  0
  -25.1900  -16.5110   19.4980 C   0  0  0  0  0  2  0  0  0  0  0  0
  -25.4620  -15.2290   18.7890 N   0  0  0  0  0  4  0  0  0  0  0  0
  -25.7880  -15.4250   17.8560 H   0  0  0  0  0  0  0  0  0  0  0  0
  -24.5750  -14.7650   18.7060 H   0  0  0  0  0  0  0  0  0  0  0  0
  -26.3630  -14.2680   19.4690 C   0  0  0  0  0  2  0  0  0  0  0  0
  -26.9760  -13.1980   18.5250 C   0  0  0  0  0  2  0  0  0  0  0  0
  -27.0480  -11.8150   19.2230 C   0  0  0  0  0  2  0  0  0  0  0  0
  -27.9240  -10.6940   18.5880 C   0  0  0  0  0  2  0  0  0  0  0  0
  -29.8690   -9.3320   19.5080 C   0  0  0  0  0  0  0  0  0  0  0  0
  -28.6830   -9.9590   19.6140 N   0  0  0  0  0  0  0  0  0  0  0  0
  -30.3620   -9.0750   18.4090 O   0  0  0  0  0  0  0  0  0  0  0  0
  -28.4010  -10.1050   20.5830 H   0  0  0  0  0  0  0  0  0  0  0  0
  -30.5910   -8.8900   20.8200 C   0  0  0  0  0  2  0  0  0  0  0  0
  -32.5320  -10.8750   22.1800 C   0  0  2  0  0  0  0  0  0  0  0  0
  -33.6440  -10.0950   21.3090 C   0  0  0  0  0  1  0  0  0  0  0  0
  -32.7340  -10.8850   19.8380 C   0  0  0  0  0  1  0  0  0  0  0  0
  -31.2240  -11.7880   20.1620 C   0  0  0  0  0  2  0  0  0  0  0  0
  -30.4890  -12.0100   21.7670 C   0  0  0  0  0  2  0  0  0  0  0  0
  -31.3950  -11.3140   23.2540 C   0  0  0  0  0  1  0  0  0  0  0  0
  -32.8740  -10.3570   22.9330 N   0  0  0  0  0  1  0  0  0  0  0  0
  -33.1720  -12.1020   22.0710 O   0  0  0  0  0  1  0  0  0  0  0  0
  -31.5120   -9.6460   21.7630 N   0  0  0  0  0  2  0  0  0  0  0  0
  -31.6310   -9.0180   22.5430 H   0  0  0  0  0  0  0  0  0  0  0  0
  -28.1100  -12.9420   21.9240 C   0  0  0  0  0  0  0  0  0  0  0  0
  -26.8550  -12.4050   21.9830 C   0  0  0  0  0  0  0  0  0  0  0  0
  -27.0220  -10.9900   21.9590 C   0  0  0  0  0  0  0  0  0  0  0  0
  -29.0050  -11.8930   21.8540 N   0  0  0  0  0  0  0  0  0  0  0  0
  -28.3300  -10.7050   21.9410 N   0  0  0  0  0  0  0  0  0  0  0  0
  -26.0070   -9.9190   21.9050 C   0  0  0  0  0  0  0  0  0  0  0  0
  -25.9640   -8.8790   22.8580 C   0  0  0  0  0  3  0  0  0  0  0  0
  -24.9550   -7.8920   22.7970 C   0  0  0  0  0  3  0  0  0  0  0  0
  -23.9600   -7.9410   21.7900 C   0  0  0  0  0  0  0  0  0  0  0  0
  -24.0170   -8.9680   20.8300 C   0  0  0  0  0  3  0  0  0  0  0  0
  -25.0310   -9.9410   20.8860 C   0  0  0  0  0  3  0  0  0  0  0  0
  -22.9580   -7.0110   21.6430 O   0  0  0  0  0  0  0  0  0  0  0  0
  -22.0950   -6.7060   22.6680 C   0  0  0  0  0  0  0  0  0  0  0  0
  -21.3310   -7.7010   23.3140 C   0  0  0  0  0  3  0  0  0  0  0  0
  -20.4060   -7.3390   24.3100 C   0  0  0  0  0  3  0  0  0  0  0  0
  -20.2380   -5.9840   24.6560 C   0  0  0  0  0  0  0  0  0  0  0  0
  -20.9910   -4.9880   24.0080 C   0  0  0  0  0  3  0  0  0  0  0  0
  -21.9150   -5.3490   23.0080 C   0  0  0  0  0  0  0  0  0  0  0  0
  -22.6160   -4.3850   22.3640 F   0  0  0  0  0  0  0  0  0  0  0  0
  -19.3500   -5.6320   25.6140 F   0  0  0  0  0  0  0  0  0  0  0  0
  -25.5690  -13.1810   21.9990 C   0  0  0  0  0  0  0  0  0  0  0  0
  -24.5700  -12.6970   22.7230 N   0  0  0  0  0  0  0  0  0  0  0  0
  -25.4720  -14.2580   21.4130 O   0  0  0  0  0  0  0  0  0  0  0  0
  -24.6520  -11.8260   23.2230 H   0  0  0  0  0  0  0  0  0  0  0  0
  -23.7040  -13.2160   22.7880 H   0  0  0  0  0  0  0  0  0  0  0  0
  -28.5700  -14.2530   21.9260 N   0  0  0  0  0  0  0  0  0  0  0  0
  -27.9420  -15.0360   22.0690 H   0  0  0  0  0  0  0  0  0  0  0  0
  -29.5400  -14.4800   22.1020 H   0  0  0  0  0  0  0  0  0  0  0  0
  -25.2650  -19.1220   19.2650 C   0  0  0  0  0  2  0  0  0  0  0  0
  -26.1810  -20.3110   18.8830 C   0  0  0  0  0  2  0  0  0  0  0  0
  -25.7920  -21.7010   19.4540 C   0  0  0  0  0  2  0  0  0  0  0  0
  -27.0270  -22.6370   19.4990 C   0  0  0  0  0  2  0  0  0  0  0  0
  -26.8580  -23.9220   20.2280 N   0  0  0  0  0  4  0  0  0  0  0  0
  -26.4470  -23.7390   21.1320 H   0  0  0  0  0  0  0  0  0  0  0  0
  -26.2200  -24.5150   19.7190 H   0  0  0  0  0  0  0  0  0  0  0  0
  -28.1720  -24.6080   20.4040 C   0  0  0  0  0  2  0  0  0  0  0  0
  -28.1430  -25.9150   21.2270 C   0  0  0  0  0  2  0  0  0  0  0  0
  -28.2080  -27.0660   20.3770 O   0  0  0  0  0  0  0  0  0  0  0  0
  -24.5500  -32.0920   23.8030 C   0  0  0  0  0  0  0  0  0  0  0  0
  -27.0750  -27.8290   20.4260 C   0  0  0  0  0  0  0  0  0  0  0  0
  -23.3060  -30.8250   22.0780 C   0  0  0  0  0  3  0  0  0  0  0  0
  -24.7160  -29.3490   20.5480 C   0  0  0  0  0  0  0  0  0  0  0  0
  -25.8330  -31.1420   21.8940 C   0  0  0  0  0  2  0  0  0  0  0  0
  -25.8850  -29.8190   21.1630 C   0  0  0  0  0  0  0  0  0  0  0  0
  -27.0740  -29.0660   21.1000 C   0  0  0  0  0  3  0  0  0  0  0  0
  -25.8980  -27.3620   19.8110 C   0  0  0  0  0  3  0  0  0  0  0  0
  -24.7130  -28.1150   19.8710 C   0  0  0  0  0  3  0  0  0  0  0  0
  -23.4940  -30.2330   20.6550 C   0  0  0  0  0  2  0  0  0  0  0  0
  -24.5810  -31.3630   22.6520 N   0  0  0  0  0  0  0  0  0  0  0  0
  -23.4780  -32.3580   24.3640 O   0  0  0  0  0  0  0  0  0  0  0  0
  -22.6360  -29.7600   22.9750 C   0  0  0  0  0  0  0  0  0  0  0  0
  -21.3320  -29.5300   22.7570 N   0  0  0  0  0  0  0  0  0  0  0  0
  -23.2920  -29.1440   23.8200 O   0  0  0  0  0  0  0  0  0  0  0  0
  -20.8650  -30.0890   22.0550 H   0  0  0  0  0  0  0  0  0  0  0  0
  -18.0350  -28.0610   22.8830 C   0  0  0  0  0  0  0  0  0  0  0  0
  -20.5080  -28.5460   23.4550 C   0  0  0  0  0  3  0  0  0  0  0  0
  -20.7970  -27.1150   22.9480 C   0  0  0  0  0  2  0  0  0  0  0  0
  -19.8600  -26.6720   21.8190 C   0  0  0  0  0  2  0  0  0  0  0  0
  -18.4050  -26.7150   22.2860 C   0  0  0  0  0  2  0  0  0  0  0  0
  -19.0250  -28.9290   23.4180 C   0  0  0  0  0  0  0  0  0  0  0  0
  -18.6330  -30.1840   23.9300 C   0  0  0  0  0  3  0  0  0  0  0  0
  -17.2800  -30.5750   23.9180 C   0  0  0  0  0  3  0  0  0  0  0  0
  -16.3040  -29.7100   23.3970 C   0  0  0  0  0  3  0  0  0  0  0  0
  -16.6810  -28.4550   22.8870 C   0  0  0  0  0  3  0  0  0  0  0  0
  -25.8530  -32.6500   24.4510 C   0  0  0  0  0  3  0  0  0  0  0  0
  -26.1860  -31.9980   25.8500 C   0  0  1  0  0  0  0  0  0  0  0  0
  -25.0070  -32.0260   26.8470 C   0  0  0  0  0  1  0  0  0  0  0  0
  -26.6180  -30.5220   25.6760 C   0  0  0  0  0  1  0  0  0  0  0  0
  -27.3750  -32.7390   26.5040 C   0  0  0  0  0  1  0  0  0  0  0  0
  -25.6920  -34.1060   24.5800 N   0  0  0  0  0  0  0  0  0  0  0  0
  -26.2040  -35.0070   23.7290 C   0  0  0  0  0  0  0  0  0  0  0  0
  -26.9310  -34.6960   22.7810 O   0  0  0  0  0  0  0  0  0  0  0  0
  -25.0640  -34.4300   25.2990 H   0  0  0  0  0  0  0  0  0  0  0  0
  -24.7290  -36.9130   23.0120 C   0  0  0  0  0  1  0  0  0  0  0  0
  -25.8530  -36.4870   23.9690 C   0  0  0  0  0  3  0  0  0  0  0  0
  -28.0100  -37.2440   24.8660 C   0  0  0  0  0  1  0  0  0  0  0  0
  -27.0090  -37.3970   23.8130 N   0  0  0  0  0  0  0  0  0  0  0  0
  -26.7040  -38.3660   23.8050 H   0  0  0  0  0  0  0  0  0  0  0  0
  1 53  1  0
  1  2  1  0
  3  6  1  0
  3  2  1  0
  4  3  1  0
  5  3  1  0
  7  8  1  0
  7  6  1  0
  9  8  1  0
  9 11  1  0
 10 11  1  0
 10 14  1  0
 11 13  1  0
 12 10  2  0
 14 23  1  0
 15 21  1  0
 15 20  1  6
 16 15  1  0
 17 18  1  0
 18 19  1  0
 19 28  1  0
 22 15  1  0
 23 24  1  0
 25 50  1  0
 25 26  2  0
 26 45  1  0
 27 26  1  0
 28 25  1  0
 28 29  1  0
 29 27  2  0
 30 27  1  0
 30 31  1  0
 32 31  2  0
 33 32  1  0
 34 35  1  0
 34 33  2  0
 35 30  2  0
 36 33  1  0
 36 37  1  0
 37 42  2  0
 37 38  1  0
 38 39  2  0
 39 40  1  0
 40 44  1  0
 41 40  2  0
 42 41  1  0
 43 42  1  0
 45 46  1  0
 46 49  1  0
 46 48  1  0
 47 45  2  0
 50 51  1  0
 50 52  1  0
 54 53  1  0
 54 55  1  0
 55 56  1  0
 56 57  1  0
 57 60  1  0
 57 58  1  0
 59 57  1  0
 60 61  1  0
 62 64  1  0
 62 61  1  0
 63 74  2  0
 64 69  1  0
 65 73  1  0
 65 75  1  0
 66 72  1  0
 66 68  1  0
 67 73  1  0
 68 67  1  0
 69 68  2  0
 70 71  1  0
 70 64  2  0
 71 66  2  0
 72 65  1  0
 73 63  1  0
 75 77  2  0
 76 75  1  0
 78 76  1  0
 79 88  2  0
 79 84  1  0
 80 76  1  0
 81 80  1  0
 82 83  1  0
 82 81  1  0
 83 79  1  0
 84 80  1  0
 84 85  2  0
 86 85  1  0
 87 86  2  0
 88 87  1  0
 89 63  1  0
 89 94  1  0
 89 90  1  0
 90 93  1  1
 90 91  1  0
 92 90  1  0
 94 97  1  0
 95 99  1  0
 95 94  1  0
 96 95  2  0
 99 98  1  0
101 99  1  0
101100  1  0
102101  1  0
M  ISO  4  15 100  23 100  61 101  62 101
M  END
>  <TORSDO>  (6) 
F 31

>  <SCORE>  (6) 
1.445

>  <name>  (6) 
5

>  <ligand_id>  (6) 
5

>  <original_smiles>  (6) 
[H]c1c([H])c([H])c2c(c1[H])C([H])([H])C([H])([H])C([H])([H])C2([H])N([H])C(=O)C1([H])N(C(=O)C([H])(N([H])C(=O)C([H])(N([H])C([H])([H])[H])C([H])([H])[H])C(C([H])([H])[H])(C([H])([H])[H])C([H])([H])[H])C([H])([H])c2c([H])c(OC([H])([H])C([H])([H])[N+]([H])([H])C([H])([H])C([H])([H])C([H])([H])C([H])([H])C([H])([H])C([H])([H])[N+]([H])([H])C([H])([H])C([H])([H])C([H])([H])C([H])([H])N([H])C(=O)C([H])([H])N([H])C(=O)N3C([H])([H])C([H])([H])C([H])([H])C([H])(n4nc(-c5c([H])c([H])c(Oc6c([H])c([H])c(F)c([H])c6F)c([H])c5[H])c(C(=O)N([H])[H])c4N([H])[H])C3([H])[H])c([H])c([H])c2C1([H])[H]

>  <smiles>  (6) 
[H]c1c([H])c([H])c2c(c1[H])C([H])([H])C([H])([H])C([H])([H])C2([H])N([H])C(=O)C1([H])N(C(=O)C([H])(N([H])C(=O)C([H])(N([H])C([H])([H])[H])C([H])([H])[H])C(C([H])([H])[H])(C([H])([H])[H])C([H])([H])[H])C([H])([H])c2c([H])c(OC([H])([H])C([H])([H])[N+]([H])([H])C([H])([H])C([H])([H])C([H])([H])C([H])([H])C([H])([H])C([H])([H])[N+]([H])([H])C([H])([H])C([H])([H])C([H])([H])C([H])([H])N([H])C(=O)C([H])([H])N([H])C(=O)N3C([H])([H])C([H])([H])C([H])([H])C([H])(n4nc(-c5c([H])c([H])c(Oc6c([H])c([H])c(F)c([H])c6F)c([H])c5[H])c(C(=O)N([H])[H])c4N([H])[H])C3([H])[H])c([H])c([H])c2C1([H])[H]

$$$$
6:0:0
     RDKit          3D

 98105  0  0  1  0  0  0  0  0999 V2000
  -27.1560  -23.6020   26.2130 C   0  0  0  0  0  2  0  0  0  0  0  0
  -26.8500  -23.1780   24.7590 C   0  0  0  0  0  2  0  0  0  0  0  0
  -27.8870  -22.1900   24.1890 C   0  0  0  0  0  2  0  0  0  0  0  0
  -27.4430  -21.5530   22.8600 C   0  0  0  0  0  2  0  0  0  0  0  0
  -28.4750  -19.2990   22.8250 C   0  0  0  0  0  0  0  0  0  0  0  0
  -28.4090  -20.5620   22.3930 N   0  0  0  0  0  0  0  0  0  0  0  0
  -27.7180  -18.8560   23.6920 O   0  0  0  0  0  0  0  0  0  0  0  0
  -29.0630  -20.8500   21.6780 H   0  0  0  0  0  0  0  0  0  0  0  0
  -29.5130  -18.5460   22.1520 C   0  0  0  0  0  3  0  0  0  0  0  0
  -29.8810  -17.3390   22.6190 C   0  0  0  0  0  3  0  0  0  0  0  0
  -30.9170  -16.4570   21.9650 C   0  0  0  0  0  2  0  0  0  0  0  0
  -30.7830  -14.3560   20.6680 C   0  0  0  0  0  0  0  0  0  0  0  0
  -30.4130  -12.2820   19.3970 C   0  0  0  0  0  2  0  0  0  0  0  0
  -29.4830  -12.5280   18.1950 C   0  0  0  0  0  2  0  0  0  0  0  0
  -28.0080  -12.3900   18.6060 C   0  0  0  0  0  2  0  0  0  0  0  0
  -27.6660  -13.2060   19.8810 C   0  0  0  0  0  3  0  0  0  0  0  0
  -28.7080  -12.9520   20.9980 C   0  0  0  0  0  2  0  0  0  0  0  0
  -30.0540  -13.2300   20.4600 N   0  0  0  0  0  0  0  0  0  0  0  0
  -31.8070  -14.6310   20.0390 O   0  0  0  0  0  0  0  0  0  0  0  0
  -30.3260  -15.1700   21.6240 N   0  0  0  0  0  0  0  0  0  0  0  0
  -29.5040  -14.8780   22.1300 H   0  0  0  0  0  0  0  0  0  0  0  0
  -25.2610  -13.8170   20.5660 C   0  0  0  0  0  0  0  0  0  0  0  0
  -24.1870  -13.0460   20.9180 C   0  0  0  0  0  0  0  0  0  0  0  0
  -24.6420  -11.6920   20.8750 C   0  0  0  0  0  0  0  0  0  0  0  0
  -26.3050  -12.9350   20.3390 N   0  0  0  0  0  0  0  0  0  0  0  0
  -25.9350  -11.6510   20.5790 N   0  0  0  0  0  0  0  0  0  0  0  0
  -23.9070  -10.4300   21.0390 C   0  0  0  0  0  0  0  0  0  0  0  0
  -24.3620   -9.4220   21.9170 C   0  0  0  0  0  3  0  0  0  0  0  0
  -23.6300   -8.2250   22.0740 C   0  0  0  0  0  3  0  0  0  0  0  0
  -22.4280   -8.0280   21.3540 C   0  0  0  0  0  0  0  0  0  0  0  0
  -21.9910   -9.0250   20.4630 C   0  0  0  0  0  3  0  0  0  0  0  0
  -22.7240  -10.2130   20.3040 C   0  0  0  0  0  3  0  0  0  0  0  0
  -21.6650   -6.8880   21.4240 O   0  0  0  0  0  0  0  0  0  0  0  0
  -21.6850   -6.0740   22.5270 C   0  0  0  0  0  0  0  0  0  0  0  0
  -21.4010   -6.5640   23.8210 C   0  0  0  0  0  3  0  0  0  0  0  0
  -21.3660   -5.6790   24.9170 C   0  0  0  0  0  3  0  0  0  0  0  0
  -21.6050   -4.3050   24.7210 C   0  0  0  0  0  0  0  0  0  0  0  0
  -21.8830   -3.8140   23.4330 C   0  0  0  0  0  3  0  0  0  0  0  0
  -21.9190   -4.6970   22.3390 C   0  0  0  0  0  0  0  0  0  0  0  0
  -22.1660   -4.2160   21.0960 F   0  0  0  0  0  0  0  0  0  0  0  0
  -21.5620   -3.4520   25.7720 F   0  0  0  0  0  0  0  0  0  0  0  0
  -22.7880  -13.5240   21.1820 C   0  0  0  0  0  0  0  0  0  0  0  0
  -22.0520  -12.8250   22.0380 N   0  0  0  0  0  0  0  0  0  0  0  0
  -22.3560  -14.5530   20.6660 O   0  0  0  0  0  0  0  0  0  0  0  0
  -22.4120  -11.9920   22.4800 H   0  0  0  0  0  0  0  0  0  0  0  0
  -21.1120  -13.1250   22.2530 H   0  0  0  0  0  0  0  0  0  0  0  0
  -25.4350  -15.1880   20.4040 N   0  0  0  0  0  0  0  0  0  0  0  0
  -24.6770  -15.8520   20.5150 H   0  0  0  0  0  0  0  0  0  0  0  0
  -26.3010  -15.6230   20.1080 H   0  0  0  0  0  0  0  0  0  0  0  0
  -27.7010  -25.0310   26.4210 C   0  0  0  0  0  2  0  0  0  0  0  0
  -29.0280  -25.3360   25.6990 C   0  0  0  0  0  2  0  0  0  0  0  0
  -28.7840  -25.8830   24.3460 N   0  0  0  0  0  4  0  0  0  0  0  0
  -28.4670  -26.8340   24.4520 H   0  0  0  0  0  0  0  0  0  0  0  0
  -28.0350  -25.3520   23.9330 H   0  0  0  0  0  0  0  0  0  0  0  0
  -29.9540  -25.8630   23.4380 C   0  0  0  0  0  2  0  0  0  0  0  0
  -29.6840  -26.6130   22.1150 C   0  0  0  0  0  2  0  0  0  0  0  0
  -28.6330  -25.9490   21.2030 C   0  0  0  0  0  2  0  0  0  0  0  0
  -28.4020  -26.7460   20.0440 O   0  0  0  0  0  0  0  0  0  0  0  0
  -24.6100  -31.8700   23.2120 C   0  0  0  0  0  0  0  0  0  0  0  0
  -27.2430  -27.4770   20.0890 C   0  0  0  0  0  0  0  0  0  0  0  0
  -23.3980  -30.4920   21.5500 C   0  0  0  0  0  3  0  0  0  0  0  0
  -24.8490  -28.9600   20.1160 C   0  0  0  0  0  0  0  0  0  0  0  0
  -25.9210  -30.8500   21.3570 C   0  0  0  0  0  2  0  0  0  0  0  0
  -26.0040  -29.4840   20.7100 C   0  0  0  0  0  0  0  0  0  0  0  0
  -27.2070  -28.7500   20.6950 C   0  0  0  0  0  3  0  0  0  0  0  0
  -26.0780  -26.9540   19.4960 C   0  0  0  0  0  3  0  0  0  0  0  0
  -24.8770  -27.6910   19.5090 C   0  0  0  0  0  3  0  0  0  0  0  0
  -23.6070  -29.8210   20.1640 C   0  0  0  0  0  2  0  0  0  0  0  0
  -24.6610  -31.0820   22.1010 N   0  0  0  0  0  0  0  0  0  0  0  0
  -23.5310  -32.1450   23.7530 O   0  0  0  0  0  0  0  0  0  0  0  0
  -22.7380  -29.4680   22.5020 C   0  0  0  0  0  0  0  0  0  0  0  0
  -21.4120  -29.3040   22.3740 N   0  0  0  0  0  0  0  0  0  0  0  0
  -23.4160  -28.8240   23.3070 O   0  0  0  0  0  0  0  0  0  0  0  0
  -20.9270  -29.8760   21.6970 H   0  0  0  0  0  0  0  0  0  0  0  0
  -18.0270  -28.1390   22.8480 C   0  0  0  0  0  0  0  0  0  0  0  0
  -20.5850  -28.3670   23.1330 C   0  0  0  0  0  3  0  0  0  0  0  0
  -20.6770  -26.9420   22.5420 C   0  0  0  0  0  2  0  0  0  0  0  0
  -19.5760  -26.6400   21.5200 C   0  0  0  0  0  2  0  0  0  0  0  0
  -18.1930  -26.7930   22.1610 C   0  0  0  0  0  2  0  0  0  0  0  0
  -19.1510  -28.8850   23.2900 C   0  0  0  0  0  0  0  0  0  0  0  0
  -18.9450  -30.1450   23.8920 C   0  0  0  0  0  3  0  0  0  0  0  0
  -17.6460  -30.6590   24.0570 C   0  0  0  0  0  3  0  0  0  0  0  0
  -16.5350  -29.9110   23.6310 C   0  0  0  0  0  3  0  0  0  0  0  0
  -16.7250  -28.6530   23.0330 C   0  0  0  0  0  3  0  0  0  0  0  0
  -25.9000  -32.4830   23.8410 C   0  0  0  0  0  3  0  0  0  0  0  0
  -25.5880  -33.8630   24.2360 N   0  0  0  0  0  0  0  0  0  0  0  0
  -25.9010  -34.9480   23.5150 C   0  0  0  0  0  0  0  0  0  0  0  0
  -26.5550  -34.8910   22.4710 O   0  0  0  0  0  0  0  0  0  0  0  0
  -25.0080  -33.9800   25.0540 H   0  0  0  0  0  0  0  0  0  0  0  0
  -24.1480  -36.7320   23.2640 C   0  0  0  0  0  1  0  0  0  0  0  0
  -25.4110  -36.3120   24.0350 C   0  0  0  0  0  3  0  0  0  0  0  0
  -27.5590  -37.1820   24.8460 C   0  0  0  0  0  1  0  0  0  0  0  0
  -26.4300  -37.3800   23.9410 N   0  0  0  0  0  0  0  0  0  0  0  0
  -26.0180  -38.2870   24.1430 H   0  0  0  0  0  0  0  0  0  0  0  0
  -26.4420  -31.6560   25.0710 C   0  0  1  0  0  0  0  0  0  0  0  0
  -25.3680  -31.3620   26.1430 C   0  0  0  0  0  1  0  0  0  0  0  0
  -27.0250  -30.3010   24.6020 C   0  0  0  0  0  1  0  0  0  0  0  0
  -27.6030  -32.4230   25.7470 C   0  0  0  0  0  1  0  0  0  0  0  0
  1 50  1  0
  2  1  1  0
  3  2  1  0
  4  3  1  0
  5  7  2  0
  6  5  1  0
  6  4  1  0
  8  6  1  0
  9 10  2  0
  9  5  1  0
 11 10  1  0
 12 20  1  0
 13 18  1  0
 14 15  1  0
 14 13  1  0
 16 15  1  0
 16 25  1  0
 16 17  1  0
 18 12  1  0
 18 17  1  0
 19 12  2  0
 20 11  1  0
 20 21  1  0
 22 23  2  0
 23 42  1  0
 24 23  1  0
 24 27  1  0
 25 22  1  0
 25 26  1  0
 26 24  2  0
 27 28  1  0
 28 29  2  0
 30 33  1  0
 30 29  1  0
 31 30  2  0
 32 31  1  0
 32 27  2  0
 33 34  1  0
 34 35  1  0
 35 36  2  0
 37 36  1  0
 37 41  1  0
 38 37  2  0
 39 34  2  0
 39 38  1  0
 40 39  1  0
 42 43  1  0
 43 46  1  0
 43 45  1  0
 44 42  2  0
 47 48  1  0
 47 22  1  0
 49 47  1  0
 51 50  1  0
 52 53  1  0
 52 51  1  0
 54 52  1  0
 55 52  1  0
 56 55  1  0
 57 56  1  0
 58 60  1  0
 58 57  1  0
 59 70  2  0
 60 65  1  0
 61 69  1  0
 61 71  1  0
 62 68  1  0
 62 64  1  0
 63 69  1  0
 64 63  1  0
 65 64  2  0
 66 67  1  0
 66 60  2  0
 67 62  2  0
 68 61  1  0
 69 59  1  0
 71 73  2  0
 72 71  1  0
 74 72  1  0
 75 84  2  0
 75 80  1  0
 76 72  1  0
 76 80  1  0
 77 76  1  0
 78 79  1  0
 78 77  1  0
 79 75  1  0
 80 81  2  0
 81 82  1  0
 83 82  2  0
 84 83  1  0
 85 59  1  0
 85 86  1  0
 85 95  1  0
 86 89  1  0
 87 91  1  0
 87 86  1  0
 88 87  2  0
 91 90  1  0
 93 91  1  0
 93 94  1  0
 93 92  1  0
 95 98  1  1
 95 96  1  0
 97 95  1  0
M  ISO  4  12 100  20 100  57 101  58 101
M  END
>  <TORSDO>  (7) 
F 28

>  <SCORE>  (7) 
23.687

>  <name>  (7) 
6

>  <ligand_id>  (7) 
6

>  <original_smiles>  (7) 
[H]C(C(=O)N([H])C([H])([H])C([H])([H])C([H])([H])C([H])([H])C([H])([H])C([H])([H])[N+]([H])([H])C([H])([H])C([H])([H])C([H])([H])Oc1c([H])c([H])c2c(c1[H])C([H])([H])N(C(=O)C([H])(N([H])C(=O)C([H])(N([H])C([H])([H])[H])C([H])([H])[H])C(C([H])([H])[H])(C([H])([H])[H])C([H])([H])[H])C([H])(C(=O)N([H])C1([H])c3c([H])c([H])c([H])c([H])c3C([H])([H])C([H])([H])C1([H])[H])C2([H])[H])=C([H])C([H])([H])N([H])C(=O)N1C([H])([H])C([H])([H])C([H])([H])C([H])(n2nc(-c3c([H])c([H])c(Oc4c([H])c([H])c(F)c([H])c4F)c([H])c3[H])c(C(=O)N([H])[H])c2N([H])[H])C1([H])[H]

>  <smiles>  (7) 
[H]C(C(=O)N([H])C([H])([H])C([H])([H])C([H])([H])C([H])([H])C([H])([H])C([H])([H])[N+]([H])([H])C([H])([H])C([H])([H])C([H])([H])Oc1c([H])c([H])c2c(c1[H])C([H])([H])N(C(=O)C([H])(N([H])C(=O)C([H])(N([H])C([H])([H])[H])C([H])([H])[H])C(C([H])([H])[H])(C([H])([H])[H])C([H])([H])[H])C([H])(C(=O)N([H])C1([H])c3c([H])c([H])c([H])c([H])c3C([H])([H])C([H])([H])C1([H])[H])C2([H])[H])=C([H])C([H])([H])N([H])C(=O)N1C([H])([H])C([H])([H])C([H])([H])C([H])(n2nc(-c3c([H])c([H])c(Oc4c([H])c([H])c(F)c([H])c4F)c([H])c3[H])c(C(=O)N([H])[H])c2N([H])[H])C1([H])[H]

$$$$
7:0:0
     RDKit          3D

102109  0  0  1  0  0  0  0  0999 V2000
  -28.3540  -22.1520   16.3250 C   0  0  0  0  0  0  0  0  0  0  0  0
  -29.5240  -22.0490   15.6860 N   0  0  0  0  0  0  0  0  0  0  0  0
  -27.6420  -23.1570   16.2600 O   0  0  0  0  0  0  0  0  0  0  0  0
  -30.0310  -21.1780   15.7770 H   0  0  0  0  0  0  0  0  0  0  0  0
  -30.1350  -23.0790   14.8510 C   0  0  0  0  0  2  0  0  0  0  0  0
  -30.7050  -24.2510   15.6770 C   0  0  0  0  0  2  0  0  0  0  0  0
  -31.6400  -23.8030   16.8180 C   0  0  0  0  0  2  0  0  0  0  0  0
  -32.2080  -24.9530   17.6730 C   0  0  0  0  0  2  0  0  0  0  0  0
  -31.1620  -25.7120   18.3920 N   0  0  0  0  0  4  0  0  0  0  0  0
  -30.4750  -25.0720   18.7610 H   0  0  0  0  0  0  0  0  0  0  0  0
  -30.6910  -26.3140   17.7350 H   0  0  0  0  0  0  0  0  0  0  0  0
  -31.6690  -26.5280   19.5220 C   0  0  0  0  0  2  0  0  0  0  0  0
  -30.5740  -27.4300   20.1060 C   0  0  0  0  0  2  0  0  0  0  0  0
  -29.4380  -26.6160   20.3860 O   0  0  0  0  0  0  0  0  0  0  0  0
  -25.0000  -31.4120   23.2890 C   0  0  0  0  0  0  0  0  0  0  0  0
  -28.2200  -27.2530   20.3990 C   0  0  0  0  0  0  0  0  0  0  0  0
  -24.0110  -29.8720   21.6220 C   0  0  0  0  0  3  0  0  0  0  0  0
  -25.6740  -28.4660   20.2960 C   0  0  0  0  0  0  0  0  0  0  0  0
  -26.4880  -30.4900   21.5200 C   0  0  0  0  0  2  0  0  0  0  0  0
  -26.7410  -29.1270   20.9160 C   0  0  0  0  0  0  0  0  0  0  0  0
  -28.0160  -28.5300   20.9690 C   0  0  0  0  0  3  0  0  0  0  0  0
  -27.1320  -26.5830   19.8050 C   0  0  0  0  0  3  0  0  0  0  0  0
  -25.8600  -27.1870   19.7420 C   0  0  0  0  0  3  0  0  0  0  0  0
  -24.3480  -29.1910   20.2680 C   0  0  0  0  0  2  0  0  0  0  0  0
  -25.1800  -30.6080   22.2030 N   0  0  0  0  0  0  0  0  0  0  0  0
  -23.8750  -31.5830   23.7790 O   0  0  0  0  0  0  0  0  0  0  0  0
  -23.4220  -28.8070   22.5730 C   0  0  0  0  0  0  0  0  0  0  0  0
  -22.1650  -28.4090   22.3190 N   0  0  0  0  0  0  0  0  0  0  0  0
  -24.0980  -28.3390   23.4940 O   0  0  0  0  0  0  0  0  0  0  0  0
  -21.6780  -28.8470   21.5500 H   0  0  0  0  0  0  0  0  0  0  0  0
  -19.0120  -26.6550   22.4730 C   0  0  0  0  0  0  0  0  0  0  0  0
  -21.4200  -27.3910   23.0560 C   0  0  0  0  0  3  0  0  0  0  0  0
  -21.8500  -25.9680   22.6280 C   0  0  0  0  0  2  0  0  0  0  0  0
  -20.9790  -25.3850   21.5110 C   0  0  0  0  0  2  0  0  0  0  0  0
  -19.5140  -25.3190   21.9510 C   0  0  0  0  0  2  0  0  0  0  0  0
  -19.9090  -27.6340   22.9770 C   0  0  0  0  0  0  0  0  0  0  0  0
  -19.3950  -28.8730   23.4160 C   0  0  0  0  0  3  0  0  0  0  0  0
  -18.0140  -29.1380   23.3620 C   0  0  0  0  0  3  0  0  0  0  0  0
  -17.1280  -28.1600   22.8760 C   0  0  0  0  0  3  0  0  0  0  0  0
  -17.6280  -26.9210   22.4370 C   0  0  0  0  0  3  0  0  0  0  0  0
  -26.1920  -32.1730   23.9520 C   0  0  0  0  0  3  0  0  0  0  0  0
  -26.7150  -31.4850   25.2710 C   0  0  1  0  0  0  0  0  0  0  0  0
  -25.5900  -31.1080   26.2640 C   0  0  0  0  0  1  0  0  0  0  0  0
  -27.5010  -30.1950   24.9370 C   0  0  0  0  0  1  0  0  0  0  0  0
  -27.7010  -32.4270   26.0000 C   0  0  0  0  0  1  0  0  0  0  0  0
  -25.7430  -33.5450   24.2230 N   0  0  0  0  0  0  0  0  0  0  0  0
  -26.0340  -34.6050   23.4550 C   0  0  0  0  0  0  0  0  0  0  0  0
  -26.7770  -34.5360   22.4730 O   0  0  0  0  0  0  0  0  0  0  0  0
  -25.0870  -33.6670   24.9800 H   0  0  0  0  0  0  0  0  0  0  0  0
  -24.1840  -36.2270   22.9350 C   0  0  0  0  0  1  0  0  0  0  0  0
  -25.3980  -35.9540   23.8380 C   0  0  0  0  0  3  0  0  0  0  0  0
  -27.3790  -37.0490   24.7910 C   0  0  0  0  0  1  0  0  0  0  0  0
  -26.3420  -37.0910   23.7630 N   0  0  0  0  0  0  0  0  0  0  0  0
  -25.8480  -37.9760   23.8480 H   0  0  0  0  0  0  0  0  0  0  0  0
  -27.9320  -20.9640   17.1830 C   0  0  0  0  0  2  0  0  0  0  0  0
  -27.2100  -21.4270   18.3820 N   0  0  0  0  0  4  0  0  0  0  0  0
  -26.3140  -21.7640   18.0690 H   0  0  0  0  0  0  0  0  0  0  0  0
  -27.6900  -22.2290   18.7530 H   0  0  0  0  0  0  0  0  0  0  0  0
  -26.9850  -20.4240   19.4420 C   0  0  0  0  0  2  0  0  0  0  0  0
  -28.2210  -20.1590   20.3330 C   0  0  0  0  0  2  0  0  0  0  0  0
  -29.1030  -18.9680   19.9070 C   0  0  0  0  0  2  0  0  0  0  0  0
  -29.9850  -18.4350   21.0550 C   0  0  0  0  0  2  0  0  0  0  0  0
  -30.7380  -17.1360   20.6340 C   0  0  0  0  0  2  0  0  0  0  0  0
  -32.0580  -16.4860   21.1660 C   0  0  0  0  0  2  0  0  0  0  0  0
  -32.3520  -14.1940   20.2650 C   0  0  0  0  0  0  0  0  0  0  0  0
  -31.6870  -12.3970   18.7180 C   0  0  0  0  0  2  0  0  0  0  0  0
  -30.7850  -12.9870   17.6130 C   0  0  0  0  0  2  0  0  0  0  0  0
  -29.3120  -13.0540   18.0650 C   0  0  0  0  0  2  0  0  0  0  0  0
  -29.1450  -13.6840   19.4730 C   0  0  0  0  0  3  0  0  0  0  0  0
  -30.1300  -13.0310   20.4700 C   0  0  0  0  0  2  0  0  0  0  0  0
  -31.5000  -13.1900   19.9400 N   0  0  0  0  0  0  0  0  0  0  0  0
  -33.4280  -14.3980   19.6890 O   0  0  0  0  0  0  0  0  0  0  0  0
  -31.8700  -15.0350   21.1850 N   0  0  0  0  0  0  0  0  0  0  0  0
  -31.0490  -14.7060   21.6720 H   0  0  0  0  0  0  0  0  0  0  0  0
  -26.8330  -14.5940   20.1550 C   0  0  0  0  0  0  0  0  0  0  0  0
  -25.6750  -13.9630   20.5240 C   0  0  0  0  0  0  0  0  0  0  0  0
  -25.9650  -12.5640   20.5000 C   0  0  0  0  0  0  0  0  0  0  0  0
  -27.7630  -13.5870   19.9390 N   0  0  0  0  0  0  0  0  0  0  0  0
  -27.2400  -12.3630   20.1990 N   0  0  0  0  0  0  0  0  0  0  0  0
  -25.0880  -11.4010   20.6950 C   0  0  0  0  0  0  0  0  0  0  0  0
  -25.3620  -10.4240   21.6790 C   0  0  0  0  0  3  0  0  0  0  0  0
  -24.4950   -9.3250   21.8560 C   0  0  0  0  0  3  0  0  0  0  0  0
  -23.3400   -9.1950   21.0490 C   0  0  0  0  0  0  0  0  0  0  0  0
  -23.0830  -10.1570   20.0570 C   0  0  0  0  0  3  0  0  0  0  0  0
  -23.9500  -11.2480   19.8790 C   0  0  0  0  0  3  0  0  0  0  0  0
  -22.4540   -8.1470   21.1340 O   0  0  0  0  0  0  0  0  0  0  0  0
  -22.2040   -7.5100   22.3220 C   0  0  0  0  0  0  0  0  0  0  0  0
  -21.6720   -8.1940   23.4370 C   0  0  0  0  0  3  0  0  0  0  0  0
  -21.3670   -7.4870   24.6170 C   0  0  0  0  0  3  0  0  0  0  0  0
  -21.5840   -6.0970   24.6800 C   0  0  0  0  0  0  0  0  0  0  0  0
  -22.1100   -5.4140   23.5690 C   0  0  0  0  0  3  0  0  0  0  0  0
  -22.4160   -6.1190   22.3910 C   0  0  0  0  0  0  0  0  0  0  0  0
  -22.9030   -5.4540   21.3170 F   0  0  0  0  0  0  0  0  0  0  0  0
  -21.2810   -5.4150   25.8090 F   0  0  0  0  0  0  0  0  0  0  0  0
  -24.3470  -14.6100   20.7910 C   0  0  0  0  0  0  0  0  0  0  0  0
  -23.5390  -14.0180   21.6640 N   0  0  0  0  0  0  0  0  0  0  0  0
  -24.0380  -15.6760   20.2590 O   0  0  0  0  0  0  0  0  0  0  0  0
  -23.7960  -13.1570   22.1220 H   0  0  0  0  0  0  0  0  0  0  0  0
  -22.6440  -14.4350   21.8760 H   0  0  0  0  0  0  0  0  0  0  0  0
  -27.1680  -15.9300   19.9670 N   0  0  0  0  0  0  0  0  0  0  0  0
  -26.4780  -16.6700   20.0480 H   0  0  0  0  0  0  0  0  0  0  0  0
  -28.0670  -16.2550   19.6360 H   0  0  0  0  0  0  0  0  0  0  0  0
  1 55  1  0
  2  4  1  0
  2  1  1  0
  3  1  2  0
  5  6  1  0
  5  2  1  0
  6  7  1  0
  7  8  1  0
  8  9  1  0
  9 10  1  0
  9 12  1  0
 11  9  1  0
 12 13  1  0
 13 14  1  0
 14 16  1  0
 15 26  2  0
 16 21  1  0
 17 25  1  0
 17 27  1  0
 18 20  1  0
 19 25  1  0
 20 21  2  0
 20 19  1  0
 22 16  2  0
 23 22  1  0
 23 18  2  0
 24 18  1  0
 24 17  1  0
 25 15  1  0
 27 29  2  0
 28 27  1  0
 30 28  1  0
 31 36  1  0
 32 28  1  0
 33 32  1  0
 34 35  1  0
 34 33  1  0
 35 31  1  0
 36 32  1  0
 36 37  2  0
 38 37  1  0
 39 38  2  0
 40 31  2  0
 40 39  1  0
 41 15  1  0
 41 46  1  0
 41 42  1  0
 42 45  1  1
 42 43  1  0
 44 42  1  0
 46 49  1  0
 47 51  1  0
 47 46  1  0
 48 47  2  0
 51 50  1  0
 53 51  1  0
 53 54  1  0
 53 52  1  0
 55 56  1  0
 56 58  1  0
 56 59  1  0
 57 56  1  0
 59 60  1  0
 61 60  1  0
 61 62  1  0
 63 62  1  0
 63 64  1  0
 64 73  1  0
 65 73  1  0
 66 71  1  0
 67 68  1  0
 67 66  1  0
 69 68  1  0
 69 78  1  0
 69 70  1  0
 71 65  1  0
 71 70  1  0
 72 65  2  0
 73 74  1  0
 75 76  2  0
 76 95  1  0
 77 76  1  0
 77 80  1  0
 78 75  1  0
 78 79  1  0
 79 77  2  0
 80 81  1  0
 81 82  2  0
 83 86  1  0
 83 82  1  0
 84 83  2  0
 85 84  1  0
 85 80  2  0
 86 87  1  0
 87 92  2  0
 87 88  1  0
 88 89  2  0
 89 90  1  0
 90 94  1  0
 91 90  2  0
 92 91  1  0
 93 92  1  0
 95 96  1  0
 96 99  1  0
 96 98  1  0
 97 95  2  0
100101  1  0
100 75  1  0
102100  1  0
M  ISO  4  13 101  14 101  65 100  73 100
M  END
>  <TORSDO>  (8) 
F 31

>  <SCORE>  (8) 
-6.018

>  <name>  (8) 
7

>  <ligand_id>  (8) 
7

>  <original_smiles>  (8) 
[H]c1c([H])c([H])c2c(c1[H])C([H])([H])C([H])([H])C([H])([H])C2([H])N([H])C(=O)C1([H])N(C(=O)C([H])(N([H])C(=O)C([H])(N([H])C([H])([H])[H])C([H])([H])[H])C(C([H])([H])[H])(C([H])([H])[H])C([H])([H])[H])C([H])([H])c2c([H])c(OC([H])([H])C([H])([H])[N+]([H])([H])C([H])([H])C([H])([H])C([H])([H])C([H])([H])N([H])C(=O)C([H])([H])[N+]([H])([H])C([H])([H])C([H])([H])C([H])([H])C([H])([H])C([H])([H])C([H])([H])N([H])C(=O)N3C([H])([H])C([H])([H])C([H])([H])C([H])(n4nc(-c5c([H])c([H])c(Oc6c([H])c([H])c(F)c([H])c6F)c([H])c5[H])c(C(=O)N([H])[H])c4N([H])[H])C3([H])[H])c([H])c([H])c2C1([H])[H]

>  <smiles>  (8) 
[H]c1c([H])c([H])c2c(c1[H])C([H])([H])C([H])([H])C([H])([H])C2([H])N([H])C(=O)C1([H])N(C(=O)C([H])(N([H])C(=O)C([H])(N([H])C([H])([H])[H])C([H])([H])[H])C(C([H])([H])[H])(C([H])([H])[H])C([H])([H])[H])C([H])([H])c2c([H])c(OC([H])([H])C([H])([H])[N+]([H])([H])C([H])([H])C([H])([H])C([H])([H])C([H])([H])N([H])C(=O)C([H])([H])[N+]([H])([H])C([H])([H])C([H])([H])C([H])([H])C([H])([H])C([H])([H])C([H])([H])N([H])C(=O)N3C([H])([H])C([H])([H])C([H])([H])C([H])(n4nc(-c5c([H])c([H])c(Oc6c([H])c([H])c(F)c([H])c6F)c([H])c5[H])c(C(=O)N([H])[H])c4N([H])[H])C3([H])[H])c([H])c([H])c2C1([H])[H]

$$$$
8:0:0
     RDKit          3D

 92 99  0  0  1  0  0  0  0  0999 V2000
  -26.7070  -22.3220   19.5100 C   0  0  0  0  0  2  0  0  0  0  0  0
  -26.3920  -23.1210   20.7770 C   0  0  0  0  0  2  0  0  0  0  0  0
  -27.6510  -23.4730   21.6000 C   0  0  0  0  0  2  0  0  0  0  0  0
  -28.0060  -24.9690   21.5610 C   0  0  0  0  0  2  0  0  0  0  0  0
  -28.4900  -25.4700   20.1850 C   0  0  0  0  0  2  0  0  0  0  0  0
  -28.4960  -26.8940   20.1420 O   0  0  0  0  0  0  0  0  0  0  0  0
  -24.5840  -31.9200   23.2540 C   0  0  0  0  0  0  0  0  0  0  0  0
  -27.2830  -27.5500   20.1410 C   0  0  0  0  0  0  0  0  0  0  0  0
  -23.3930  -30.5200   21.5950 C   0  0  0  0  0  3  0  0  0  0  0  0
  -24.8650  -29.0090   20.1670 C   0  0  0  0  0  0  0  0  0  0  0  0
  -25.9120  -30.9120   21.4040 C   0  0  0  0  0  2  0  0  0  0  0  0
  -26.0140  -29.5480   20.7580 C   0  0  0  0  0  0  0  0  0  0  0  0
  -27.2250  -28.8270   20.7350 C   0  0  0  0  0  3  0  0  0  0  0  0
  -26.1120  -27.0160   19.5560 C   0  0  0  0  0  3  0  0  0  0  0  0
  -24.9060  -27.7410   19.5620 C   0  0  0  0  0  3  0  0  0  0  0  0
  -23.6120  -29.8520   20.2110 C   0  0  0  0  0  2  0  0  0  0  0  0
  -24.6480  -31.1320   22.1430 N   0  0  0  0  0  0  0  0  0  0  0  0
  -23.4980  -32.1770   23.7930 O   0  0  0  0  0  0  0  0  0  0  0  0
  -22.7510  -29.4830   22.5450 C   0  0  0  0  0  0  0  0  0  0  0  0
  -21.4270  -29.3010   22.4170 N   0  0  0  0  0  0  0  0  0  0  0  0
  -23.4380  -28.8470   23.3500 O   0  0  0  0  0  0  0  0  0  0  0  0
  -20.9370  -29.8740   21.7440 H   0  0  0  0  0  0  0  0  0  0  0  0
  -18.0530  -28.1050   22.8980 C   0  0  0  0  0  0  0  0  0  0  0  0
  -20.6100  -28.3510   23.1690 C   0  0  0  0  0  3  0  0  0  0  0  0
  -20.7070  -26.9270   22.5710 C   0  0  0  0  0  2  0  0  0  0  0  0
  -19.6030  -26.6240   21.5540 C   0  0  0  0  0  2  0  0  0  0  0  0
  -18.2240  -26.7640   22.2030 C   0  0  0  0  0  2  0  0  0  0  0  0
  -19.1740  -28.8570   23.3360 C   0  0  0  0  0  0  0  0  0  0  0  0
  -18.9610  -30.1150   23.9420 C   0  0  0  0  0  3  0  0  0  0  0  0
  -17.6560  -30.6190   24.1170 C   0  0  0  0  0  3  0  0  0  0  0  0
  -16.5500  -29.8600   23.6970 C   0  0  0  0  0  3  0  0  0  0  0  0
  -16.7480  -28.6040   23.0940 C   0  0  0  0  0  3  0  0  0  0  0  0
  -25.8640  -32.5510   23.8840 C   0  0  0  0  0  3  0  0  0  0  0  0
  -26.3740  -31.7800   25.1620 C   0  0  1  0  0  0  0  0  0  0  0  0
  -25.2750  -31.5400   26.2220 C   0  0  0  0  0  1  0  0  0  0  0  0
  -26.9620  -30.4060   24.7680 C   0  0  0  0  0  1  0  0  0  0  0  0
  -27.5190  -32.5740   25.8310 C   0  0  0  0  0  1  0  0  0  0  0  0
  -25.5550  -33.9500   24.2080 N   0  0  0  0  0  0  0  0  0  0  0  0
  -25.8980  -35.0000   23.4510 C   0  0  0  0  0  0  0  0  0  0  0  0
  -26.5820  -34.8920   22.4280 O   0  0  0  0  0  0  0  0  0  0  0  0
  -24.9530  -34.1080   25.0030 H   0  0  0  0  0  0  0  0  0  0  0  0
  -24.1870  -36.7960   23.0490 C   0  0  0  0  0  1  0  0  0  0  0  0
  -25.4020  -36.3890   23.8960 C   0  0  0  0  0  3  0  0  0  0  0  0
  -27.5160  -37.2650   24.7850 C   0  0  0  0  0  1  0  0  0  0  0  0
  -26.4420  -37.4370   23.8120 N   0  0  0  0  0  0  0  0  0  0  0  0
  -26.0350  -38.3600   23.9460 H   0  0  0  0  0  0  0  0  0  0  0  0
  -27.1410  -21.0170   19.8630 O   0  0  0  0  0  0  0  0  0  0  0  0
  -27.7060  -20.3330   18.7500 C   0  0  0  0  0  2  0  0  0  0  0  0
  -27.8150  -18.8430   19.0700 C   0  0  0  0  0  0  0  0  0  0  0  0
  -28.7680  -18.4600   19.9310 N   0  0  0  0  0  0  0  0  0  0  0  0
  -27.0370  -18.0400   18.5490 O   0  0  0  0  0  0  0  0  0  0  0  0
  -29.3530  -19.1750   20.3450 H   0  0  0  0  0  0  0  0  0  0  0  0
  -28.9590  -17.0680   20.3060 C   0  0  0  0  0  2  0  0  0  0  0  0
  -30.2190  -16.8050   21.1460 C   0  0  0  0  0  2  0  0  0  0  0  0
  -30.9010  -14.4930   20.5990 C   0  0  0  0  0  0  0  0  0  0  0  0
  -30.6030  -12.3970   19.3430 C   0  0  0  0  0  2  0  0  0  0  0  0
  -29.6600  -12.6390   18.1480 C   0  0  0  0  0  2  0  0  0  0  0  0
  -28.1820  -12.5040   18.5680 C   0  0  0  0  0  2  0  0  0  0  0  0
  -27.8440  -13.3140   19.8470 C   0  0  0  0  0  3  0  0  0  0  0  0
  -28.8860  -13.0200   20.9510 C   0  0  0  0  0  2  0  0  0  0  0  0
  -30.2320  -13.3250   20.4240 N   0  0  0  0  0  0  0  0  0  0  0  0
  -31.9380  -14.7880   20.0000 O   0  0  0  0  0  0  0  0  0  0  0  0
  -30.2780  -15.3680   21.3960 N   0  0  0  0  0  0  0  0  0  0  0  0
  -29.5200  -14.9880   21.9430 H   0  0  0  0  0  0  0  0  0  0  0  0
  -25.4240  -13.9270   20.4980 C   0  0  0  0  0  0  0  0  0  0  0  0
  -24.3530  -13.1540   20.8590 C   0  0  0  0  0  0  0  0  0  0  0  0
  -24.8160  -11.8020   20.8380 C   0  0  0  0  0  0  0  0  0  0  0  0
  -26.4790  -13.0480   20.2960 N   0  0  0  0  0  0  0  0  0  0  0  0
  -26.1110  -11.7660   20.5530 N   0  0  0  0  0  0  0  0  0  0  0  0
  -24.0900  -10.5400   21.0230 C   0  0  0  0  0  0  0  0  0  0  0  0
  -24.5060   -9.5780   21.9700 C   0  0  0  0  0  3  0  0  0  0  0  0
  -23.7800   -8.3810   22.1410 C   0  0  0  0  0  3  0  0  0  0  0  0
  -22.6220   -8.1360   21.3660 C   0  0  0  0  0  0  0  0  0  0  0  0
  -22.2260   -9.0860   20.4080 C   0  0  0  0  0  3  0  0  0  0  0  0
  -22.9530  -10.2750   20.2350 C   0  0  0  0  0  3  0  0  0  0  0  0
  -21.8670   -6.9900   21.4480 O   0  0  0  0  0  0  0  0  0  0  0  0
  -21.7890   -6.2600   22.6050 C   0  0  0  0  0  0  0  0  0  0  0  0
  -21.3080   -6.8240   23.8080 C   0  0  0  0  0  3  0  0  0  0  0  0
  -21.1800   -6.0210   24.9580 C   0  0  0  0  0  3  0  0  0  0  0  0
  -21.5210   -4.6560   24.9070 C   0  0  0  0  0  0  0  0  0  0  0  0
  -21.9900   -4.0920   23.7080 C   0  0  0  0  0  3  0  0  0  0  0  0
  -22.1200   -4.8910   22.5600 C   0  0  0  0  0  0  0  0  0  0  0  0
  -22.5560   -4.3400   21.4020 F   0  0  0  0  0  0  0  0  0  0  0  0
  -21.3880   -3.8830   26.0100 F   0  0  0  0  0  0  0  0  0  0  0  0
  -22.9500  -13.6270   21.1100 C   0  0  0  0  0  0  0  0  0  0  0  0
  -22.2140  -12.9320   21.9700 N   0  0  0  0  0  0  0  0  0  0  0  0
  -22.5160  -14.6490   20.5800 O   0  0  0  0  0  0  0  0  0  0  0  0
  -22.5770  -12.1020   22.4180 H   0  0  0  0  0  0  0  0  0  0  0  0
  -21.2720  -13.2310   22.1820 H   0  0  0  0  0  0  0  0  0  0  0  0
  -25.5740  -15.2960   20.2980 N   0  0  0  0  0  0  0  0  0  0  0  0
  -24.7710  -15.9140   20.3380 H   0  0  0  0  0  0  0  0  0  0  0  0
  -26.3660  -15.7300   19.8400 H   0  0  0  0  0  0  0  0  0  0  0  0
  1 47  1  0
  1  2  1  0
  2  3  1  0
  4  3  1  0
  5  4  1  0
  6  5  1  0
  7 18  2  0
  8  6  1  0
  8 13  1  0
  9 17  1  0
  9 19  1  0
 10 16  1  0
 10 12  1  0
 11 17  1  0
 12 11  1  0
 13 12  2  0
 14 15  1  0
 14  8  2  0
 15 10  2  0
 16  9  1  0
 17  7  1  0
 19 21  2  0
 20 19  1  0
 22 20  1  0
 23 32  2  0
 23 28  1  0
 24 20  1  0
 24 28  1  0
 25 24  1  0
 26 27  1  0
 26 25  1  0
 27 23  1  0
 28 29  2  0
 29 30  1  0
 31 30  2  0
 32 31  1  0
 33  7  1  0
 33 38  1  0
 33 34  1  0
 34 37  1  1
 34 35  1  0
 36 34  1  0
 38 41  1  0
 39 43  1  0
 39 38  1  0
 40 39  2  0
 43 42  1  0
 45 43  1  0
 45 46  1  0
 45 44  1  0
 48 49  1  0
 48 47  1  0
 49 50  1  0
 50 53  1  0
 50 52  1  0
 51 49  2  0
 53 54  1  0
 54 63  1  0
 55 63  1  0
 56 61  1  0
 57 58  1  0
 57 56  1  0
 59 58  1  0
 59 68  1  0
 59 60  1  0
 61 55  1  0
 61 60  1  0
 62 55  2  0
 63 64  1  0
 65 66  2  0
 66 85  1  0
 67 66  1  0
 67 70  1  0
 68 65  1  0
 68 69  1  0
 69 67  2  0
 70 71  1  0
 71 72  2  0
 73 76  1  0
 73 72  1  0
 74 73  2  0
 75 74  1  0
 75 70  2  0
 76 77  1  0
 77 78  1  0
 78 79  2  0
 80 79  1  0
 80 84  1  0
 81 80  2  0
 82 77  2  0
 82 81  1  0
 83 82  1  0
 85 86  1  0
 86 89  1  0
 86 88  1  0
 87 85  2  0
 90 91  1  0
 90 65  1  0
 92 90  1  0
M  ISO  4   5 101   6 101  55 100  63 100
M  END
>  <TORSDO>  (9) 
F 25

>  <SCORE>  (9) 
-11.931

>  <name>  (9) 
8

>  <ligand_id>  (9) 
8

>  <original_smiles>  (9) 
[H]c1c([H])c([H])c2c(c1[H])C([H])([H])C([H])([H])C([H])([H])C2([H])N([H])C(=O)C1([H])N(C(=O)C([H])(N([H])C(=O)C([H])(N([H])C([H])([H])[H])C([H])([H])[H])C(C([H])([H])[H])(C([H])([H])[H])C([H])([H])[H])C([H])([H])c2c([H])c(OC([H])([H])C([H])([H])C([H])([H])C([H])([H])C([H])([H])OC([H])([H])C(=O)N([H])C([H])([H])C([H])([H])N([H])C(=O)N3C([H])([H])C([H])([H])C([H])([H])C([H])(n4nc(-c5c([H])c([H])c(Oc6c([H])c([H])c(F)c([H])c6F)c([H])c5[H])c(C(=O)N([H])[H])c4N([H])[H])C3([H])[H])c([H])c([H])c2C1([H])[H]

>  <smiles>  (9) 
[H]c1c([H])c([H])c2c(c1[H])C([H])([H])C([H])([H])C([H])([H])C2([H])N([H])C(=O)C1([H])N(C(=O)C([H])(N([H])C(=O)C([H])(N([H])C([H])([H])[H])C([H])([H])[H])C(C([H])([H])[H])(C([H])([H])[H])C([H])([H])[H])C([H])([H])c2c([H])c(OC([H])([H])C([H])([H])C([H])([H])C([H])([H])C([H])([H])OC([H])([H])C(=O)N([H])C([H])([H])C([H])([H])N([H])C(=O)N3C([H])([H])C([H])([H])C([H])([H])C([H])(n4nc(-c5c([H])c([H])c(Oc6c([H])c([H])c(F)c([H])c6F)c([H])c5[H])c(C(=O)N([H])[H])c4N([H])[H])C3([H])[H])c([H])c([H])c2C1([H])[H]

$$$$
9:0:0
     RDKit          3D

 99106  0  0  1  0  0  0  0  0999 V2000
  -23.0520  -22.0240   18.1700 C   0  0  0  0  0  2  0  0  0  0  0  0
  -23.6010  -22.5250   19.4930 C   0  0  0  0  0  0  0  0  0  0  0  0
  -23.6210  -23.8570   19.6760 N   0  0  0  0  0  0  0  0  0  0  0  0
  -24.0000  -21.7180   20.3350 O   0  0  0  0  0  0  0  0  0  0  0  0
  -23.2400  -24.4620   18.9610 H   0  0  0  0  0  0  0  0  0  0  0  0
  -24.0210  -24.4850   20.9270 C   0  0  0  0  0  2  0  0  0  0  0  0
  -25.3710  -25.2290   20.8800 C   0  0  0  0  0  2  0  0  0  0  0  0
  -25.2890  -26.5810   21.6370 C   0  0  0  0  0  2  0  0  0  0  0  0
  -24.5440  -27.7190   20.8890 C   0  0  0  0  0  2  0  0  0  0  0  0
  -25.0880  -29.0290   21.1300 O   0  0  0  0  0  0  0  0  0  0  0  0
  -27.2690  -34.2120   25.4820 C   0  0  0  0  0  0  0  0  0  0  0  0
  -24.8930  -29.6460   22.3530 C   0  0  0  0  0  0  0  0  0  0  0  0
  -25.7030  -32.5770   26.4810 C   0  0  0  0  0  3  0  0  0  0  0  0
  -24.5720  -30.9790   24.8410 C   0  0  0  0  0  0  0  0  0  0  0  0
  -25.6480  -33.0560   23.9720 C   0  0  0  0  0  2  0  0  0  0  0  0
  -25.1770  -31.6340   23.7630 C   0  0  0  0  0  0  0  0  0  0  0  0
  -25.3320  -30.9770   22.5200 C   0  0  0  0  0  3  0  0  0  0  0  0
  -24.2640  -29.0130   23.4450 C   0  0  0  0  0  3  0  0  0  0  0  0
  -24.1210  -29.6580   24.6880 C   0  0  0  0  0  3  0  0  0  0  0  0
  -24.4320  -31.7620   26.1290 C   0  0  0  0  0  2  0  0  0  0  0  0
  -26.2670  -33.3040   25.2980 N   0  0  0  0  0  0  0  0  0  0  0  0
  -27.6920  -34.4770   26.6150 O   0  0  0  0  0  0  0  0  0  0  0  0
  -26.7180  -31.6290   27.1580 C   0  0  0  0  0  0  0  0  0  0  0  0
  -27.6020  -32.1960   27.9970 N   0  0  0  0  0  0  0  0  0  0  0  0
  -26.6840  -30.4130   26.9490 O   0  0  0  0  0  0  0  0  0  0  0  0
  -27.5760  -33.2000   28.1130 H   0  0  0  0  0  0  0  0  0  0  0  0
  -31.1270  -32.1080   28.7880 C   0  0  0  0  0  0  0  0  0  0  0  0
  -28.6180  -31.4850   28.7700 C   0  0  0  0  0  3  0  0  0  0  0  0
  -28.6010  -31.9320   30.2490 C   0  0  0  0  0  2  0  0  0  0  0  0
  -29.5810  -33.0720   30.5460 C   0  0  0  0  0  2  0  0  0  0  0  0
  -31.0110  -32.6390   30.2090 C   0  0  0  0  0  2  0  0  0  0  0  0
  -29.9980  -31.5790   28.1100 C   0  0  0  0  0  0  0  0  0  0  0  0
  -30.1440  -31.1210   26.7830 C   0  0  0  0  0  3  0  0  0  0  0  0
  -31.3870  -31.1910   26.1310 C   0  0  0  0  0  3  0  0  0  0  0  0
  -32.5060  -31.7060   26.8090 C   0  0  0  0  0  3  0  0  0  0  0  0
  -32.3770  -32.1590   28.1370 C   0  0  0  0  0  3  0  0  0  0  0  0
  -27.9150  -34.9860   24.2930 C   0  0  0  0  0  3  0  0  0  0  0  0
  -28.7800  -36.0270   24.8620 N   0  0  0  0  0  0  0  0  0  0  0  0
  -28.3910  -37.2790   25.1430 C   0  0  0  0  0  0  0  0  0  0  0  0
  -27.2630  -37.7040   24.8750 O   0  0  0  0  0  0  0  0  0  0  0  0
  -29.7010  -35.7340   25.1540 H   0  0  0  0  0  0  0  0  0  0  0  0
  -29.1800  -38.2250   27.3410 C   0  0  0  0  0  1  0  0  0  0  0  0
  -29.4170  -38.2100   25.8230 C   0  0  0  0  0  3  0  0  0  0  0  0
  -30.0970  -39.7600   24.0420 C   0  0  0  0  0  1  0  0  0  0  0  0
  -29.3840  -39.5950   25.3050 N   0  0  0  0  0  0  0  0  0  0  0  0
  -29.7820  -40.2430   25.9800 H   0  0  0  0  0  0  0  0  0  0  0  0
  -28.7330  -34.0570   23.3130 C   0  0  1  0  0  0  0  0  0  0  0  0
  -29.9800  -33.4090   23.9590 C   0  0  0  0  0  1  0  0  0  0  0  0
  -27.8330  -32.9230   22.7680 C   0  0  0  0  0  1  0  0  0  0  0  0
  -29.2090  -34.8780   22.0870 C   0  0  0  0  0  1  0  0  0  0  0  0
  -23.7530  -22.6760   17.0470 N   0  0  0  0  0  4  0  0  0  0  0  0
  -24.7400  -22.4710   17.0870 H   0  0  0  0  0  0  0  0  0  0  0  0
  -23.6610  -23.6710   17.1860 H   0  0  0  0  0  0  0  0  0  0  0  0
  -23.2000  -22.3470   15.7130 C   0  0  0  0  0  2  0  0  0  0  0  0
  -22.6910  -23.6060   14.9970 C   0  0  0  0  0  2  0  0  0  0  0  0
  -21.7860  -23.2410   13.9510 O   0  0  0  0  0  0  0  0  0  0  0  0
  -22.1710  -23.7610   12.6840 C   0  0  0  0  0  2  0  0  0  0  0  0
  -21.0350  -24.5350   11.9870 C   0  0  0  0  0  2  0  0  0  0  0  0
  -21.6950  -25.6830   11.2170 C   0  0  0  0  0  2  0  0  0  0  0  0
  -21.0720  -27.0860   11.2120 C   0  0  0  0  0  2  0  0  0  0  0  0
  -21.4420  -27.7270    9.8570 C   0  0  0  0  0  2  0  0  0  0  0  0
  -19.6770  -29.4460    9.8420 C   0  0  0  0  0  0  0  0  0  0  0  0
  -17.2800  -29.0070    9.4210 C   0  0  0  0  0  2  0  0  0  0  0  0
  -16.8250  -27.6930   10.0920 C   0  0  0  0  0  2  0  0  0  0  0  0
  -17.0870  -26.4880    9.1680 C   0  0  0  0  0  2  0  0  0  0  0  0
  -18.5340  -26.4790    8.6140 C   0  0  0  0  0  3  0  0  0  0  0  0
  -18.8740  -27.8680    8.0150 C   0  0  0  0  0  2  0  0  0  0  0  0
  -18.7040  -28.8740    9.0760 N   0  0  0  0  0  0  0  0  0  0  0  0
  -19.4330  -30.2940   10.7050 O   0  0  0  0  0  0  0  0  0  0  0  0
  -20.9550  -29.0870    9.6190 N   0  0  0  0  0  0  0  0  0  0  0  0
  -21.6010  -29.7850    9.9570 H   0  0  0  0  0  0  0  0  0  0  0  0
  -18.0920  -25.1420    6.4550 C   0  0  0  0  0  0  0  0  0  0  0  0
  -18.7230  -24.0600    5.9000 C   0  0  0  0  0  0  0  0  0  0  0  0
  -19.7730  -23.7250    6.8030 C   0  0  0  0  0  0  0  0  0  0  0  0
  -18.7490  -25.4020    7.6490 N   0  0  0  0  0  0  0  0  0  0  0  0
  -19.7370  -24.5020    7.8780 N   0  0  0  0  0  0  0  0  0  0  0  0
  -20.8560  -22.7430    6.6820 C   0  0  0  0  0  0  0  0  0  0  0  0
  -20.8030  -21.7120    5.7190 C   0  0  0  0  0  3  0  0  0  0  0  0
  -21.8600  -20.7870    5.6080 C   0  0  0  0  0  3  0  0  0  0  0  0
  -22.9840  -20.8930    6.4590 C   0  0  0  0  0  0  0  0  0  0  0  0
  -23.0260  -21.9110    7.4270 C   0  0  0  0  0  3  0  0  0  0  0  0
  -21.9680  -22.8260    7.5430 C   0  0  0  0  0  3  0  0  0  0  0  0
  -24.0480  -20.0240    6.4410 O   0  0  0  0  0  0  0  0  0  0  0  0
  -25.3020  -20.4180    6.8250 C   0  0  0  0  0  0  0  0  0  0  0  0
  -25.6490  -20.5930    8.1820 C   0  0  0  0  0  3  0  0  0  0  0  0
  -26.9700  -20.9300    8.5310 C   0  0  0  0  0  3  0  0  0  0  0  0
  -27.9490  -21.0830    7.5300 C   0  0  0  0  0  0  0  0  0  0  0  0
  -27.6050  -20.9040    6.1790 C   0  0  0  0  0  3  0  0  0  0  0  0
  -26.2870  -20.5690    5.8280 C   0  0  0  0  0  0  0  0  0  0  0  0
  -25.9650  -20.3740    4.5260 F   0  0  0  0  0  0  0  0  0  0  0  0
  -29.2210  -21.4010    7.8650 F   0  0  0  0  0  0  0  0  0  0  0  0
  -18.4290  -23.4470    4.5610 C   0  0  0  0  0  0  0  0  0  0  0  0
  -18.5160  -22.1230    4.4610 N   0  0  0  0  0  0  0  0  0  0  0  0
  -18.0640  -24.1340    3.6070 O   0  0  0  0  0  0  0  0  0  0  0  0
  -18.7830  -21.5490    5.2480 H   0  0  0  0  0  0  0  0  0  0  0  0
  -18.3040  -21.6720    3.5830 H   0  0  0  0  0  0  0  0  0  0  0  0
  -17.0370  -25.9290    6.0230 N   0  0  0  0  0  0  0  0  0  0  0  0
  -16.6100  -25.7880    5.1150 H   0  0  0  0  0  0  0  0  0  0  0  0
  -16.6720  -26.7240    6.5260 H   0  0  0  0  0  0  0  0  0  0  0  0
  1  2  1  0
  2  3  1  0
  2  4  2  0
  3  6  1  0
  5  3  1  0
  7  6  1  0
  7  8  1  0
  9 10  1  0
  9  8  1  0
 10 12  1  0
 11 22  2  0
 12 17  2  0
 12 18  1  0
 13 23  1  0
 14 20  1  0
 15 21  1  0
 16 15  1  0
 16 14  2  0
 17 16  1  0
 18 19  2  0
 19 14  1  0
 20 13  1  0
 21 11  1  0
 21 13  1  0
 23 24  1  0
 24 26  1  0
 25 23  2  0
 27 31  1  0
 28 24  1  0
 28 29  1  0
 29 30  1  0
 31 30  1  0
 32 28  1  0
 32 27  2  0
 33 32  1  0
 34 33  2  0
 34 35  1  0
 35 36  2  0
 36 27  1  0
 37 38  1  0
 37 11  1  0
 38 39  1  0
 38 41  1  0
 39 43  1  0
 40 39  2  0
 43 42  1  0
 44 45  1  0
 45 43  1  0
 45 46  1  0
 47 48  1  1
 47 37  1  0
 49 47  1  0
 50 47  1  0
 51 52  1  0
 51 53  1  0
 51  1  1  0
 54 51  1  0
 55 54  1  0
 56 55  1  0
 57 56  1  0
 58 57  1  0
 59 58  1  0
 60 59  1  0
 61 60  1  0
 62 69  2  0
 63 64  1  0
 65 64  1  0
 66 75  1  0
 66 65  1  0
 67 66  1  0
 67 68  1  0
 68 63  1  0
 68 62  1  0
 70 62  1  0
 70 61  1  0
 70 71  1  0
 72 75  1  0
 73 72  2  0
 73 74  1  0
 74 76  2  0
 75 76  1  0
 77 74  1  0
 77 82  1  0
 78 77  2  0
 79 78  1  0
 79 80  2  0
 80 81  1  0
 81 82  2  0
 83 80  1  0
 83 84  1  0
 84 85  1  0
 85 86  2  0
 87 91  1  0
 87 86  1  0
 88 87  2  0
 89 88  1  0
 89 84  2  0
 90 89  1  0
 92 73  1  0
 93 92  1  0
 93 95  1  0
 94 92  2  0
 96 93  1  0
 97 72  1  0
 97 99  1  0
 98 97  1  0
M  ISO  4   9 101  10 101  62 100  70 100
M  END
>  <TORSDO>  (10) 
F 30

>  <SCORE>  (10) 
0.337

>  <name>  (10) 
9

>  <ligand_id>  (10) 
9

>  <original_smiles>  (10) 
[H]c1c([H])c([H])c2c(c1[H])C([H])([H])C([H])([H])C([H])([H])C2([H])N([H])C(=O)C1([H])N(C(=O)C([H])(N([H])C(=O)C([H])(N([H])C([H])([H])[H])C([H])([H])[H])C(C([H])([H])[H])(C([H])([H])[H])C([H])([H])[H])C([H])([H])c2c([H])c(OC([H])([H])C([H])([H])C([H])([H])C([H])([H])N([H])C(=O)C([H])([H])[N+]([H])([H])C([H])([H])C([H])([H])OC([H])([H])C([H])([H])C([H])([H])C([H])([H])C([H])([H])N([H])C(=O)N3C([H])([H])C([H])([H])C([H])([H])C([H])(n4nc(-c5c([H])c([H])c(Oc6c([H])c([H])c(F)c([H])c6F)c([H])c5[H])c(C(=O)N([H])[H])c4N([H])[H])C3([H])[H])c([H])c([H])c2C1([H])[H]

>  <smiles>  (10) 
[H]c1c([H])c([H])c2c(c1[H])C([H])([H])C([H])([H])C([H])([H])C2([H])N([H])C(=O)C1([H])N(C(=O)C([H])(N([H])C(=O)C([H])(N([H])C([H])([H])[H])C([H])([H])[H])C(C([H])([H])[H])(C([H])([H])[H])C([H])([H])[H])C([H])([H])c2c([H])c(OC([H])([H])C([H])([H])C([H])([H])C([H])([H])N([H])C(=O)C([H])([H])[N+]([H])([H])C([H])([H])C([H])([H])OC([H])([H])C([H])([H])C([H])([H])C([H])([H])C([H])([H])N([H])C(=O)N3C([H])([H])C([H])([H])C([H])([H])C([H])(n4nc(-c5c([H])c([H])c(Oc6c([H])c([H])c(F)c([H])c6F)c([H])c5[H])c(C(=O)N([H])[H])c4N([H])[H])C3([H])[H])c([H])c([H])c2C1([H])[H]

$$$$
10:0:0
     RDKit          3D

100107  0  0  1  0  0  0  0  0999 V2000
  -28.8200  -23.8110   23.0120 C   0  0  0  0  0  2  0  0  0  0  0  0
  -29.1480  -22.5150   23.7850 C   0  0  0  0  0  2  0  0  0  0  0  0
  -29.8550  -21.4070   22.9770 C   0  0  0  0  0  2  0  0  0  0  0  0
  -31.1160  -21.8360   22.3330 N   0  0  0  0  0  4  0  0  0  0  0  0
  -31.7650  -21.0750   22.4550 H   0  0  0  0  0  0  0  0  0  0  0  0
  -31.5010  -22.6250   22.8260 H   0  0  0  0  0  0  0  0  0  0  0  0
  -31.0530  -22.1390   20.8870 C   0  0  0  0  0  2  0  0  0  0  0  0
  -32.1160  -21.3400   20.1000 C   0  0  0  0  0  2  0  0  0  0  0  0
  -31.8400  -19.8240   19.9940 C   0  0  0  0  0  2  0  0  0  0  0  0
  -31.0190  -19.4390   18.7550 C   0  0  0  0  0  2  0  0  0  0  0  0
  -30.8470  -18.0270   18.7200 O   0  0  0  0  0  0  0  0  0  0  0  0
  -29.8080  -17.5850   17.8550 C   0  0  0  0  0  2  0  0  0  0  0  0
  -28.4410  -17.5700   18.5780 C   0  0  0  0  0  2  0  0  0  0  0  0
  -29.3560  -15.7620   20.0050 C   0  0  0  0  0  0  0  0  0  0  0  0
  -29.9530  -13.6020   21.0140 C   0  0  0  0  0  2  0  0  0  0  0  0
  -29.5500  -12.4580   20.0640 C   0  0  0  0  0  2  0  0  0  0  0  0
  -28.0940  -12.0310   20.3230 C   0  0  0  0  0  2  0  0  0  0  0  0
  -27.1160  -13.2360   20.3610 C   0  0  0  0  0  3  0  0  0  0  0  0
  -27.6590  -14.3690   21.2630 C   0  0  0  0  0  2  0  0  0  0  0  0
  -29.0170  -14.7180   20.8060 N   0  0  0  0  0  0  0  0  0  0  0  0
  -30.4830  -15.9060   19.5290 O   0  0  0  0  0  0  0  0  0  0  0  0
  -28.3680  -16.6030   19.6780 N   0  0  0  0  0  0  0  0  0  0  0  0
  -27.4710  -16.4540   20.1150 H   0  0  0  0  0  0  0  0  0  0  0  0
  -24.6320  -13.5780   20.9460 C   0  0  0  0  0  0  0  0  0  0  0  0
  -23.6340  -12.6930   21.2570 C   0  0  0  0  0  0  0  0  0  0  0  0
  -24.2370  -11.3980   21.2410 C   0  0  0  0  0  0  0  0  0  0  0  0
  -25.7750  -12.8160   20.7680 N   0  0  0  0  0  0  0  0  0  0  0  0
  -25.5370  -11.4990   20.9970 N   0  0  0  0  0  0  0  0  0  0  0  0
  -23.6400  -10.0640   21.3890 C   0  0  0  0  0  0  0  0  0  0  0  0
  -23.7360   -9.3420   22.5990 C   0  0  0  0  0  3  0  0  0  0  0  0
  -23.1390   -8.0690   22.7220 C   0  0  0  0  0  3  0  0  0  0  0  0
  -22.4350   -7.5060   21.6310 C   0  0  0  0  0  0  0  0  0  0  0  0
  -22.3630   -8.2200   20.4210 C   0  0  0  0  0  3  0  0  0  0  0  0
  -22.9620   -9.4840   20.2980 C   0  0  0  0  0  3  0  0  0  0  0  0
  -21.8460   -6.2650   21.6510 O   0  0  0  0  0  0  0  0  0  0  0  0
  -21.0220   -5.8770   22.6770 C   0  0  0  0  0  0  0  0  0  0  0  0
  -19.8440   -6.5870   22.9960 C   0  0  0  0  0  3  0  0  0  0  0  0
  -18.9900   -6.1120   24.0110 C   0  0  0  0  0  3  0  0  0  0  0  0
  -19.3040   -4.9270   24.7010 C   0  0  0  0  0  0  0  0  0  0  0  0
  -20.4740   -4.2150   24.3800 C   0  0  0  0  0  3  0  0  0  0  0  0
  -21.3280   -4.6880   23.3680 C   0  0  0  0  0  0  0  0  0  0  0  0
  -22.4420   -3.9860   23.0490 F   0  0  0  0  0  0  0  0  0  0  0  0
  -18.4800   -4.4660   25.6710 F   0  0  0  0  0  0  0  0  0  0  0  0
  -22.1820  -13.0170   21.4650 C   0  0  0  0  0  0  0  0  0  0  0  0
  -21.5070  -12.2710   22.3320 N   0  0  0  0  0  0  0  0  0  0  0  0
  -21.6500  -13.9680   20.8940 O   0  0  0  0  0  0  0  0  0  0  0  0
  -21.9500  -11.5030   22.8170 H   0  0  0  0  0  0  0  0  0  0  0  0
  -20.5330  -12.4690   22.5150 H   0  0  0  0  0  0  0  0  0  0  0  0
  -24.6600  -14.9600   20.7850 N   0  0  0  0  0  0  0  0  0  0  0  0
  -23.8260  -15.5330   20.8530 H   0  0  0  0  0  0  0  0  0  0  0  0
  -25.4790  -15.4850   20.5040 H   0  0  0  0  0  0  0  0  0  0  0  0
  -29.3490  -25.0980   23.6750 C   0  0  0  0  0  2  0  0  0  0  0  0
  -29.1180  -26.3900   22.8630 C   0  0  0  0  0  2  0  0  0  0  0  0
  -29.7850  -26.4370   21.4740 C   0  0  0  0  0  2  0  0  0  0  0  0
  -28.9080  -25.8680   19.2070 C   0  0  0  0  0  0  0  0  0  0  0  0
  -28.7770  -26.4270   20.4150 N   0  0  0  0  0  0  0  0  0  0  0  0
  -29.9390  -25.3010   18.8380 O   0  0  0  0  0  0  0  0  0  0  0  0
  -27.9070  -26.9110   20.5990 H   0  0  0  0  0  0  0  0  0  0  0  0
  -27.6910  -25.9600   18.2820 C   0  0  0  0  0  2  0  0  0  0  0  0
  -27.4430  -27.3370   17.9830 O   0  0  0  0  0  0  0  0  0  0  0  0
  -24.2530  -31.5580   22.6990 C   0  0  0  0  0  0  0  0  0  0  0  0
  -26.2530  -27.9080   18.3740 C   0  0  0  0  0  0  0  0  0  0  0  0
  -22.7430  -30.3640   21.1500 C   0  0  0  0  0  3  0  0  0  0  0  0
  -23.8720  -29.1870   19.1920 C   0  0  0  0  0  0  0  0  0  0  0  0
  -25.1320  -30.9420   20.4510 C   0  0  0  0  0  2  0  0  0  0  0  0
  -25.1140  -29.6990   19.5830 C   0  0  0  0  0  0  0  0  0  0  0  0
  -26.3050  -29.0690   19.1710 C   0  0  0  0  0  3  0  0  0  0  0  0
  -24.9910  -27.4060   17.9770 C   0  0  0  0  0  3  0  0  0  0  0  0
  -23.8030  -28.0370   18.3840 C   0  0  0  0  0  3  0  0  0  0  0  0
  -22.6460  -29.9360   19.6620 C   0  0  0  0  0  2  0  0  0  0  0  0
  -24.0740  -30.9610   21.4870 N   0  0  0  0  0  0  0  0  0  0  0  0
  -23.3220  -31.6590   23.5110 O   0  0  0  0  0  0  0  0  0  0  0  0
  -22.3720  -29.1530   22.0380 C   0  0  0  0  0  0  0  0  0  0  0  0
  -21.0760  -28.8020   22.0560 N   0  0  0  0  0  0  0  0  0  0  0  0
  -23.2390  -28.5360   22.6610 O   0  0  0  0  0  0  0  0  0  0  0  0
  -20.4270  -29.3560   21.5160 H   0  0  0  0  0  0  0  0  0  0  0  0
  -18.0130  -26.9880   22.6570 C   0  0  0  0  0  0  0  0  0  0  0  0
  -20.5020  -27.6760   22.7900 C   0  0  0  0  0  3  0  0  0  0  0  0
  -20.8070  -26.3370   22.0810 C   0  0  0  0  0  2  0  0  0  0  0  0
  -19.7010  -25.9030   21.1130 C   0  0  0  0  0  2  0  0  0  0  0  0
  -18.3690  -25.7490   21.8530 C   0  0  0  0  0  2  0  0  0  0  0  0
  -19.0140  -27.9000   23.0840 C   0  0  0  0  0  0  0  0  0  0  0  0
  -18.6280  -29.0560   23.7970 C   0  0  0  0  0  3  0  0  0  0  0  0
  -17.2740  -29.3010   24.0930 C   0  0  0  0  0  3  0  0  0  0  0  0
  -16.2890  -28.3850   23.6840 C   0  0  0  0  0  3  0  0  0  0  0  0
  -16.6590  -27.2330   22.9690 C   0  0  0  0  0  3  0  0  0  0  0  0
  -25.6270  -32.1710   23.1130 C   0  0  0  0  0  3  0  0  0  0  0  0
  -26.4390  -31.2580   24.1110 C   0  0  1  0  0  0  0  0  0  0  0  0
  -25.6240  -30.8090   25.3470 C   0  0  0  0  0  1  0  0  0  0  0  0
  -26.9450  -29.9880   23.3890 C   0  0  0  0  0  1  0  0  0  0  0  0
  -27.6910  -32.0140   24.6120 C   0  0  0  0  0  1  0  0  0  0  0  0
  -25.3600  -33.4870   23.7060 N   0  0  0  0  0  0  0  0  0  0  0  0
  -25.5820  -34.6600   23.0950 C   0  0  0  0  0  0  0  0  0  0  0  0
  -26.1060  -34.7440   21.9800 O   0  0  0  0  0  0  0  0  0  0  0  0
  -24.8720  -33.4910   24.5900 H   0  0  0  0  0  0  0  0  0  0  0  0
  -23.8200  -36.4440   23.2640 C   0  0  0  0  0  1  0  0  0  0  0  0
  -25.1530  -35.9370   23.8380 C   0  0  0  0  0  3  0  0  0  0  0  0
  -27.3710  -36.7180   24.5410 C   0  0  0  0  0  1  0  0  0  0  0  0
  -26.1620  -37.0180   23.7790 N   0  0  0  0  0  0  0  0  0  0  0  0
  -25.7760  -37.8900   24.1310 H   0  0  0  0  0  0  0  0  0  0  0  0
  1 52  1  0
  1  2  1  0
  3  2  1  0
  4  5  1  0
  4  6  1  0
  4  3  1  0
  7  4  1  0
  8  7  1  0
  9  8  1  0
 10  9  1  0
 11 10  1  0
 12 13  1  0
 12 11  1  0
 13 22  1  0
 14 20  1  0
 16 17  1  0
 16 15  1  0
 18 17  1  0
 18 27  1  0
 18 19  1  0
 20 15  1  0
 20 19  1  0
 21 14  2  0
 22 14  1  0
 22 23  1  0
 24 25  2  0
 25 44  1  0
 26 25  1  0
 26 29  1  0
 27 24  1  0
 27 28  1  0
 28 26  2  0
 29 30  1  0
 30 31  2  0
 32 35  1  0
 32 31  1  0
 33 32  2  0
 34 33  1  0
 34 29  2  0
 35 36  1  0
 36 37  2  0
 36 41  1  0
 37 38  1  0
 38 39  2  0
 39 43  1  0
 40 39  1  0
 41 40  2  0
 42 41  1  0
 44 45  1  0
 45 48  1  0
 45 47  1  0
 46 44  2  0
 49 50  1  0
 49 24  1  0
 51 49  1  0
 53 52  1  0
 54 53  1  0
 55 56  1  0
 56 58  1  0
 56 54  1  0
 57 55  2  0
 59 55  1  0
 60 59  1  0
 60 62  1  0
 61 72  2  0
 62 67  1  0
 63 71  1  0
 63 73  1  0
 64 66  1  0
 64 70  1  0
 65 71  1  0
 66 65  1  0
 67 66  2  0
 68 62  2  0
 68 69  1  0
 69 64  2  0
 70 63  1  0
 71 61  1  0
 73 74  1  0
 73 75  2  0
 76 74  1  0
 77 86  2  0
 77 82  1  0
 78 74  1  0
 78 82  1  0
 79 78  1  0
 80 81  1  0
 80 79  1  0
 81 77  1  0
 82 83  2  0
 83 84  1  0
 85 84  2  0
 86 85  1  0
 87 61  1  0
 87 92  1  0
 87 88  1  0
 88 91  1  1
 88 89  1  0
 90 88  1  0
 92 95  1  0
 93 92  1  0
 93 97  1  0
 94 93  2  0
 97 96  1  0
 99 97  1  0
 99100  1  0
 99 98  1  0
M  ISO  4  14 100  22 100  59 101  60 101
M  END
>  <TORSDO>  (11) 
F 31

>  <SCORE>  (11) 
-6.323

>  <name>  (11) 
10

>  <ligand_id>  (11) 
10

>  <original_smiles>  (11) 
[H]c1c([H])c([H])c2c(c1[H])C([H])([H])C([H])([H])C([H])([H])C2([H])N([H])C(=O)C1([H])N(C(=O)C([H])(N([H])C(=O)C([H])(N([H])C([H])([H])[H])C([H])([H])[H])C(C([H])([H])[H])(C([H])([H])[H])C([H])([H])[H])C([H])([H])c2c([H])c(OC([H])([H])C(=O)N([H])C([H])([H])C([H])([H])C([H])([H])C([H])([H])C([H])([H])C([H])([H])[N+]([H])([H])C([H])([H])C([H])([H])C([H])([H])C([H])([H])OC([H])([H])C([H])([H])N([H])C(=O)N3C([H])([H])C([H])([H])C([H])([H])C([H])(n4nc(-c5c([H])c([H])c(Oc6c([H])c([H])c(F)c([H])c6F)c([H])c5[H])c(C(=O)N([H])[H])c4N([H])[H])C3([H])[H])c([H])c([H])c2C1([H])[H]

>  <smiles>  (11) 
[H]c1c([H])c([H])c2c(c1[H])C([H])([H])C([H])([H])C([H])([H])C2([H])N([H])C(=O)C1([H])N(C(=O)C([H])(N([H])C(=O)C([H])(N([H])C([H])([H])[H])C([H])([H])[H])C(C([H])([H])[H])(C([H])([H])[H])C([H])([H])[H])C([H])([H])c2c([H])c(OC([H])([H])C(=O)N([H])C([H])([H])C([H])([H])C([H])([H])C([H])([H])C([H])([H])C([H])([H])[N+]([H])([H])C([H])([H])C([H])([H])C([H])([H])C([H])([H])OC([H])([H])C([H])([H])N([H])C(=O)N3C([H])([H])C([H])([H])C([H])([H])C([H])(n4nc(-c5c([H])c([H])c(Oc6c([H])c([H])c(F)c([H])c6F)c([H])c5[H])c(C(=O)N([H])[H])c4N([H])[H])C3([H])[H])c([H])c([H])c2C1([H])[H]

$$$$
11:0:0
     RDKit          3D

 97104  0  0  1  0  0  0  0  0999 V2000
  -32.7710  -23.9610   18.5000 N   0  0  0  0  0  4  0  0  0  0  0  0
  -33.1600  -23.5590   17.6620 H   0  0  0  0  0  0  0  0  0  0  0  0
  -33.4360  -23.8020   19.2410 H   0  0  0  0  0  0  0  0  0  0  0  0
  -34.0150  -26.0200   17.9030 C   0  0  0  0  0  1  0  0  0  0  0  0
  -32.6450  -25.4210   18.2660 C   0  0  0  0  0  3  0  0  0  0  0  0
  -32.0260  -26.1500   19.4590 C   0  0  0  0  0  3  0  0  0  0  0  0
  -31.1190  -27.0350   19.3360 N   0  0  0  0  0  0  0  0  0  0  0  0
  -30.5800  -27.6400   20.5490 C   0  0  0  0  0  2  0  0  0  0  0  0
  -29.3720  -26.8430   21.0810 C   0  0  0  0  0  2  0  0  0  0  0  0
  -28.3810  -26.6840   20.0640 O   0  0  0  0  0  0  0  0  0  0  0  0
  -24.6080  -31.8710   23.2110 C   0  0  0  0  0  0  0  0  0  0  0  0
  -27.2570  -27.4780   20.1090 C   0  0  0  0  0  0  0  0  0  0  0  0
  -23.3990  -30.4940   21.5460 C   0  0  0  0  0  3  0  0  0  0  0  0
  -24.8570  -28.9650   20.1150 C   0  0  0  0  0  0  0  0  0  0  0  0
  -25.9230  -30.8540   21.3620 C   0  0  0  0  0  2  0  0  0  0  0  0
  -26.0080  -29.4910   20.7120 C   0  0  0  0  0  0  0  0  0  0  0  0
  -27.2110  -28.7580   20.7100 C   0  0  0  0  0  3  0  0  0  0  0  0
  -26.0930  -26.9650   19.5030 C   0  0  0  0  0  3  0  0  0  0  0  0
  -24.8900  -27.6990   19.5080 C   0  0  0  0  0  3  0  0  0  0  0  0
  -23.6150  -29.8260   20.1620 C   0  0  0  0  0  2  0  0  0  0  0  0
  -24.6610  -31.0870   22.0990 N   0  0  0  0  0  0  0  0  0  0  0  0
  -23.5290  -32.1440   23.7550 O   0  0  0  0  0  0  0  0  0  0  0  0
  -22.7400  -29.4670   22.4950 C   0  0  0  0  0  0  0  0  0  0  0  0
  -21.4130  -29.3040   22.3710 N   0  0  0  0  0  0  0  0  0  0  0  0
  -23.4190  -28.8200   23.2970 O   0  0  0  0  0  0  0  0  0  0  0  0
  -20.9270  -29.8830   21.7000 H   0  0  0  0  0  0  0  0  0  0  0  0
  -18.0260  -28.1390   22.8480 C   0  0  0  0  0  0  0  0  0  0  0  0
  -20.5860  -28.3670   23.1310 C   0  0  0  0  0  3  0  0  0  0  0  0
  -20.6760  -26.9410   22.5420 C   0  0  0  0  0  2  0  0  0  0  0  0
  -19.5740  -26.6390   21.5210 C   0  0  0  0  0  2  0  0  0  0  0  0
  -18.1920  -26.7930   22.1620 C   0  0  0  0  0  2  0  0  0  0  0  0
  -19.1520  -28.8850   23.2890 C   0  0  0  0  0  0  0  0  0  0  0  0
  -18.9450  -30.1450   23.8900 C   0  0  0  0  0  3  0  0  0  0  0  0
  -17.6470  -30.6600   24.0580 C   0  0  0  0  0  3  0  0  0  0  0  0
  -16.5350  -29.9120   23.6310 C   0  0  0  0  0  3  0  0  0  0  0  0
  -16.7260  -28.6540   23.0310 C   0  0  0  0  0  3  0  0  0  0  0  0
  -25.8980  -32.4850   23.8400 C   0  0  0  0  0  3  0  0  0  0  0  0
  -26.4430  -31.6580   25.0690 C   0  0  1  0  0  0  0  0  0  0  0  0
  -25.3730  -31.3690   26.1460 C   0  0  0  0  0  1  0  0  0  0  0  0
  -27.0210  -30.3020   24.5980 C   0  0  0  0  0  1  0  0  0  0  0  0
  -27.6000  -32.4290   25.7450 C   0  0  0  0  0  1  0  0  0  0  0  0
  -25.5820  -33.8630   24.2340 N   0  0  0  0  0  0  0  0  0  0  0  0
  -25.9020  -34.9490   23.5160 C   0  0  0  0  0  0  0  0  0  0  0  0
  -26.5620  -34.8940   22.4740 O   0  0  0  0  0  0  0  0  0  0  0  0
  -24.9830  -33.9780   25.0380 H   0  0  0  0  0  0  0  0  0  0  0  0
  -24.1490  -36.7330   23.2640 C   0  0  0  0  0  1  0  0  0  0  0  0
  -25.4100  -36.3110   24.0350 C   0  0  0  0  0  3  0  0  0  0  0  0
  -27.5580  -37.1820   24.8460 C   0  0  0  0  0  1  0  0  0  0  0  0
  -26.4300  -37.3790   23.9410 N   0  0  0  0  0  0  0  0  0  0  0  0
  -26.0200  -38.2880   24.1390 H   0  0  0  0  0  0  0  0  0  0  0  0
  -31.5260  -23.2230   18.8130 C   0  0  0  0  0  2  0  0  0  0  0  0
  -31.7190  -21.7050   18.6250 C   0  0  0  0  0  2  0  0  0  0  0  0
  -30.9380  -20.8350   19.6250 C   0  0  0  0  0  2  0  0  0  0  0  0
  -31.0690  -19.3390   19.2910 C   0  0  0  0  0  2  0  0  0  0  0  0
  -30.2410  -17.4580   20.7020 C   0  0  0  0  0  0  0  0  0  0  0  0
  -31.0480  -18.5000   20.4860 N   0  0  0  0  0  0  0  0  0  0  0  0
  -29.2660  -17.2030   19.9920 O   0  0  0  0  0  0  0  0  0  0  0  0
  -31.8050  -18.6320   21.1460 H   0  0  0  0  0  0  0  0  0  0  0  0
  -30.6000  -16.5470   21.8830 C   0  0  0  0  0  2  0  0  0  0  0  0
  -30.7360  -14.3620   20.6920 C   0  0  0  0  0  0  0  0  0  0  0  0
  -30.4250  -12.2880   19.3870 C   0  0  0  0  0  2  0  0  0  0  0  0
  -29.4820  -12.5250   18.1910 C   0  0  0  0  0  2  0  0  0  0  0  0
  -28.0050  -12.3840   18.6000 C   0  0  0  0  0  2  0  0  0  0  0  0
  -27.6680  -13.1940   19.8800 C   0  0  0  0  0  3  0  0  0  0  0  0
  -28.7030  -12.9060   20.9890 C   0  0  0  0  0  2  0  0  0  0  0  0
  -30.0470  -13.2130   20.4650 N   0  0  0  0  0  0  0  0  0  0  0  0
  -31.7710  -14.6680   20.0850 O   0  0  0  0  0  0  0  0  0  0  0  0
  -30.2050  -15.1610   21.6270 N   0  0  0  0  0  0  0  0  0  0  0  0
  -29.3690  -14.8320   22.0870 H   0  0  0  0  0  0  0  0  0  0  0  0
  -25.2680  -13.8170   20.5690 C   0  0  0  0  0  0  0  0  0  0  0  0
  -24.1890  -13.0480   20.9170 C   0  0  0  0  0  0  0  0  0  0  0  0
  -24.6380  -11.6930   20.8690 C   0  0  0  0  0  0  0  0  0  0  0  0
  -26.3060  -12.9280   20.3380 N   0  0  0  0  0  0  0  0  0  0  0  0
  -25.9300  -11.6450   20.5720 N   0  0  0  0  0  0  0  0  0  0  0  0
  -23.9010  -10.4330   21.0350 C   0  0  0  0  0  0  0  0  0  0  0  0
  -24.3570   -9.4270   21.9160 C   0  0  0  0  0  3  0  0  0  0  0  0
  -23.6290   -8.2280   22.0720 C   0  0  0  0  0  3  0  0  0  0  0  0
  -22.4270   -8.0280   21.3500 C   0  0  0  0  0  0  0  0  0  0  0  0
  -21.9880   -9.0240   20.4610 C   0  0  0  0  0  3  0  0  0  0  0  0
  -22.7170  -10.2150   20.3020 C   0  0  0  0  0  3  0  0  0  0  0  0
  -21.6650   -6.8870   21.4220 O   0  0  0  0  0  0  0  0  0  0  0  0
  -21.6870   -6.0740   22.5270 C   0  0  0  0  0  0  0  0  0  0  0  0
  -21.4030   -6.5650   23.8200 C   0  0  0  0  0  3  0  0  0  0  0  0
  -21.3650   -5.6790   24.9160 C   0  0  0  0  0  3  0  0  0  0  0  0
  -21.6020   -4.3060   24.7220 C   0  0  0  0  0  0  0  0  0  0  0  0
  -21.8840   -3.8160   23.4340 C   0  0  0  0  0  3  0  0  0  0  0  0
  -21.9220   -4.6970   22.3400 C   0  0  0  0  0  0  0  0  0  0  0  0
  -22.1690   -4.2150   21.0980 F   0  0  0  0  0  0  0  0  0  0  0  0
  -21.5590   -3.4540   25.7730 F   0  0  0  0  0  0  0  0  0  0  0  0
  -22.7920  -13.5290   21.1830 C   0  0  0  0  0  0  0  0  0  0  0  0
  -22.0530  -12.8290   22.0370 N   0  0  0  0  0  0  0  0  0  0  0  0
  -22.3610  -14.5590   20.6680 O   0  0  0  0  0  0  0  0  0  0  0  0
  -22.4080  -11.9920   22.4740 H   0  0  0  0  0  0  0  0  0  0  0  0
  -21.1140  -13.1320   22.2500 H   0  0  0  0  0  0  0  0  0  0  0  0
  -25.4570  -15.1870   20.4120 N   0  0  0  0  0  0  0  0  0  0  0  0
  -24.7200  -15.8740   20.5230 H   0  0  0  0  0  0  0  0  0  0  0  0
  -26.3370  -15.5980   20.1190 H   0  0  0  0  0  0  0  0  0  0  0  0
  1 51  1  0
  1  3  1  0
  2  1  1  0
  5  4  1  0
  5  1  1  0
  5  6  1  0
  7  6  2  0
  7  8  1  0
  8  9  1  0
 10 12  1  0
 10  9  1  0
 11 22  2  0
 12 17  1  0
 13 21  1  0
 13 23  1  0
 14 20  1  0
 14 16  1  0
 15 21  1  0
 16 15  1  0
 17 16  2  0
 18 19  1  0
 18 12  2  0
 19 14  2  0
 20 13  1  0
 21 11  1  0
 23 25  2  0
 24 23  1  0
 26 24  1  0
 27 36  2  0
 27 32  1  0
 28 24  1  0
 28 32  1  0
 29 28  1  0
 30 31  1  0
 30 29  1  0
 31 27  1  0
 32 33  2  0
 33 34  1  0
 35 34  2  0
 36 35  1  0
 37 11  1  0
 37 42  1  0
 37 38  1  0
 38 41  1  1
 38 39  1  0
 40 38  1  0
 42 45  1  0
 43 47  1  0
 43 42  1  0
 44 43  2  0
 47 46  1  0
 49 47  1  0
 49 50  1  0
 49 48  1  0
 52 51  1  0
 52 53  1  0
 54 53  1  0
 54 56  1  0
 55 59  1  0
 56 55  1  0
 56 58  1  0
 57 55  2  0
 60 68  1  0
 61 66  1  0
 62 63  1  0
 62 61  1  0
 64 63  1  0
 64 73  1  0
 64 65  1  0
 66 60  1  0
 66 65  1  0
 67 60  2  0
 68 59  1  0
 68 69  1  0
 70 71  2  0
 71 90  1  0
 72 71  1  0
 72 75  1  0
 73 70  1  0
 73 74  1  0
 74 72  2  0
 75 76  1  0
 76 77  2  0
 78 81  1  0
 78 77  1  0
 79 78  2  0
 80 79  1  0
 80 75  2  0
 81 82  1  0
 82 83  1  0
 83 84  2  0
 85 84  1  0
 85 89  1  0
 86 85  2  0
 87 82  2  0
 87 86  1  0
 88 87  1  0
 90 91  1  0
 91 94  1  0
 91 93  1  0
 92 90  2  0
 95 96  1  0
 95 70  1  0
 97 95  1  0
M  ISO  4   9 101  10 101  60 100  68 100
M  END
>  <TORSDO>  (12) 
F 26

>  <SCORE>  (12) 
-11.713

>  <name>  (12) 
11

>  <ligand_id>  (12) 
11

>  <original_smiles>  (12) 
[H]C(=NC([H])([H])C([H])([H])Oc1c([H])c([H])c2c(c1[H])C([H])([H])N(C(=O)C([H])(N([H])C(=O)C([H])(N([H])C([H])([H])[H])C([H])([H])[H])C(C([H])([H])[H])(C([H])([H])[H])C([H])([H])[H])C([H])(C(=O)N([H])C1([H])c3c([H])c([H])c([H])c([H])c3C([H])([H])C([H])([H])C1([H])[H])C2([H])[H])C([H])(C([H])([H])[H])[N+]([H])([H])C([H])([H])C([H])([H])C([H])([H])C([H])([H])N([H])C(=O)C([H])([H])N([H])C(=O)N1C([H])([H])C([H])([H])C([H])([H])C([H])(n2nc(-c3c([H])c([H])c(Oc4c([H])c([H])c(F)c([H])c4F)c([H])c3[H])c(C(=O)N([H])[H])c2N([H])[H])C1([H])[H]

>  <smiles>  (12) 
[H]C(=NC([H])([H])C([H])([H])Oc1c([H])c([H])c2c(c1[H])C([H])([H])N(C(=O)C([H])(N([H])C(=O)C([H])(N([H])C([H])([H])[H])C([H])([H])[H])C(C([H])([H])[H])(C([H])([H])[H])C([H])([H])[H])C([H])(C(=O)N([H])C1([H])c3c([H])c([H])c([H])c([H])c3C([H])([H])C([H])([H])C1([H])[H])C2([H])[H])C([H])(C([H])([H])[H])[N+]([H])([H])C([H])([H])C([H])([H])C([H])([H])C([H])([H])N([H])C(=O)C([H])([H])N([H])C(=O)N1C([H])([H])C([H])([H])C([H])([H])C([H])(n2nc(-c3c([H])c([H])c(Oc4c([H])c([H])c(F)c([H])c4F)c([H])c3[H])c(C(=O)N([H])[H])c2N([H])[H])C1([H])[H]

$$$$
12:0:0
     RDKit          3D

101108  0  0  1  0  0  0  0  0999 V2000
  -24.7620  -22.4400   27.0570 N   0  0  0  0  0  4  0  0  0  0  0  0
  -24.5000  -21.6940   27.6800 H   0  0  0  0  0  0  0  0  0  0  0  0
  -23.9810  -22.5930   26.4290 H   0  0  0  0  0  0  0  0  0  0  0  0
  -25.0480  -23.6770   27.8220 C   0  0  0  0  0  2  0  0  0  0  0  0
  -24.4980  -24.9230   27.1070 C   0  0  0  0  0  2  0  0  0  0  0  0
  -24.8980  -24.9300   25.7400 O   0  0  0  0  0  0  0  0  0  0  0  0
  -26.0760  -25.6730   25.4560 C   0  0  0  0  0  2  0  0  0  0  0  0
  -26.4560  -25.3560   24.0020 C   0  0  0  0  0  2  0  0  0  0  0  0
  -27.6240  -26.1790   23.4400 C   0  0  0  0  0  2  0  0  0  0  0  0
  -28.2140  -25.5330   22.1700 C   0  0  0  0  0  2  0  0  0  0  0  0
  -29.0480  -26.4850   21.2870 C   0  0  0  0  0  2  0  0  0  0  0  0
  -28.3870  -26.7280   20.0460 O   0  0  0  0  0  0  0  0  0  0  0  0
  -24.6060  -31.8700   23.2140 C   0  0  0  0  0  0  0  0  0  0  0  0
  -27.2400  -27.4810   20.1010 C   0  0  0  0  0  0  0  0  0  0  0  0
  -23.3930  -30.4910   21.5550 C   0  0  0  0  0  3  0  0  0  0  0  0
  -24.8430  -28.9620   20.1170 C   0  0  0  0  0  0  0  0  0  0  0  0
  -25.9110  -30.8540   21.3540 C   0  0  0  0  0  2  0  0  0  0  0  0
  -25.9950  -29.4850   20.7170 C   0  0  0  0  0  0  0  0  0  0  0  0
  -27.1960  -28.7490   20.7180 C   0  0  0  0  0  3  0  0  0  0  0  0
  -26.0780  -26.9660   19.4920 C   0  0  0  0  0  3  0  0  0  0  0  0
  -24.8750  -27.6990   19.5020 C   0  0  0  0  0  3  0  0  0  0  0  0
  -23.5990  -29.8180   20.1700 C   0  0  0  0  0  2  0  0  0  0  0  0
  -24.6560  -31.0840   22.1010 N   0  0  0  0  0  0  0  0  0  0  0  0
  -23.5290  -32.1420   23.7590 O   0  0  0  0  0  0  0  0  0  0  0  0
  -22.7380  -29.4630   22.5030 C   0  0  0  0  0  0  0  0  0  0  0  0
  -21.4120  -29.2990   22.3750 N   0  0  0  0  0  0  0  0  0  0  0  0
  -23.4160  -28.8150   23.3050 O   0  0  0  0  0  0  0  0  0  0  0  0
  -20.9280  -29.8700   21.6970 H   0  0  0  0  0  0  0  0  0  0  0  0
  -18.0270  -28.1350   22.8510 C   0  0  0  0  0  0  0  0  0  0  0  0
  -20.5860  -28.3630   23.1340 C   0  0  0  0  0  3  0  0  0  0  0  0
  -20.6770  -26.9380   22.5420 C   0  0  0  0  0  2  0  0  0  0  0  0
  -19.5750  -26.6390   21.5220 C   0  0  0  0  0  2  0  0  0  0  0  0
  -18.1920  -26.7910   22.1620 C   0  0  0  0  0  2  0  0  0  0  0  0
  -19.1520  -28.8810   23.2910 C   0  0  0  0  0  0  0  0  0  0  0  0
  -18.9450  -30.1420   23.8930 C   0  0  0  0  0  3  0  0  0  0  0  0
  -17.6450  -30.6570   24.0580 C   0  0  0  0  0  3  0  0  0  0  0  0
  -16.5350  -29.9080   23.6320 C   0  0  0  0  0  3  0  0  0  0  0  0
  -16.7260  -28.6490   23.0360 C   0  0  0  0  0  3  0  0  0  0  0  0
  -25.8980  -32.4830   23.8400 C   0  0  0  0  0  3  0  0  0  0  0  0
  -26.4460  -31.6560   25.0670 C   0  0  1  0  0  0  0  0  0  0  0  0
  -25.3750  -31.3640   26.1440 C   0  0  0  0  0  1  0  0  0  0  0  0
  -27.0240  -30.3000   24.5940 C   0  0  0  0  0  1  0  0  0  0  0  0
  -27.6100  -32.4240   25.7380 C   0  0  0  0  0  1  0  0  0  0  0  0
  -25.5850  -33.8620   24.2340 N   0  0  0  0  0  0  0  0  0  0  0  0
  -25.9030  -34.9490   23.5160 C   0  0  0  0  0  0  0  0  0  0  0  0
  -26.5590  -34.8930   22.4720 O   0  0  0  0  0  0  0  0  0  0  0  0
  -24.9930  -33.9780   25.0420 H   0  0  0  0  0  0  0  0  0  0  0  0
  -24.1490  -36.7350   23.2630 C   0  0  0  0  0  1  0  0  0  0  0  0
  -25.4110  -36.3130   24.0340 C   0  0  0  0  0  3  0  0  0  0  0  0
  -27.5590  -37.1820   24.8460 C   0  0  0  0  0  1  0  0  0  0  0  0
  -26.4300  -37.3800   23.9410 N   0  0  0  0  0  0  0  0  0  0  0  0
  -26.0200  -38.2890   24.1390 H   0  0  0  0  0  0  0  0  0  0  0  0
  -25.8510  -21.9650   26.1790 C   0  0  0  0  0  2  0  0  0  0  0  0
  -25.3310  -21.8000   24.7560 C   0  0  0  0  0  0  0  0  0  0  0  0
  -26.2520  -21.6650   23.7950 N   0  0  0  0  0  0  0  0  0  0  0  0
  -24.1170  -21.8250   24.5400 O   0  0  0  0  0  0  0  0  0  0  0  0
  -27.2230  -21.6550   24.0780 H   0  0  0  0  0  0  0  0  0  0  0  0
  -25.9960  -21.6050   22.3590 C   0  0  0  0  0  2  0  0  0  0  0  0
  -26.1870  -20.1840   21.8040 C   0  0  0  0  0  2  0  0  0  0  0  0
  -27.5870  -19.5860   22.0490 C   0  0  0  0  0  2  0  0  0  0  0  0
  -27.7000  -18.1680   21.4740 C   0  0  0  0  0  2  0  0  0  0  0  0
  -29.0150  -17.4490   21.8150 C   0  0  0  0  0  2  0  0  0  0  0  0
  -29.0060  -16.0370   21.2170 C   0  0  0  0  0  2  0  0  0  0  0  0
  -30.7410  -14.3920   20.6520 C   0  0  0  0  0  0  0  0  0  0  0  0
  -30.4240  -12.2970   19.3870 C   0  0  0  0  0  2  0  0  0  0  0  0
  -29.4840  -12.5270   18.1860 C   0  0  0  0  0  2  0  0  0  0  0  0
  -28.0060  -12.3790   18.6020 C   0  0  0  0  0  2  0  0  0  0  0  0
  -27.6650  -13.1840   19.8820 C   0  0  0  0  0  3  0  0  0  0  0  0
  -28.7120  -12.9050   20.9860 C   0  0  0  0  0  2  0  0  0  0  0  0
  -30.0410  -13.2430   20.4460 N   0  0  0  0  0  0  0  0  0  0  0  0
  -31.8340  -14.6190   20.1310 O   0  0  0  0  0  0  0  0  0  0  0  0
  -30.2260  -15.2840   21.5120 N   0  0  0  0  0  0  0  0  0  0  0  0
  -30.9450  -15.8720   21.9100 H   0  0  0  0  0  0  0  0  0  0  0  0
  -25.2630  -13.8100   20.5670 C   0  0  0  0  0  0  0  0  0  0  0  0
  -24.1860  -13.0400   20.9180 C   0  0  0  0  0  0  0  0  0  0  0  0
  -24.6400  -11.6870   20.8750 C   0  0  0  0  0  0  0  0  0  0  0  0
  -26.3050  -12.9220   20.3410 N   0  0  0  0  0  0  0  0  0  0  0  0
  -25.9310  -11.6400   20.5800 N   0  0  0  0  0  0  0  0  0  0  0  0
  -23.9050  -10.4270   21.0420 C   0  0  0  0  0  0  0  0  0  0  0  0
  -24.3610   -9.4180   21.9200 C   0  0  0  0  0  3  0  0  0  0  0  0
  -23.6290   -8.2220   22.0760 C   0  0  0  0  0  3  0  0  0  0  0  0
  -22.4260   -8.0280   21.3550 C   0  0  0  0  0  0  0  0  0  0  0  0
  -21.9910   -9.0260   20.4650 C   0  0  0  0  0  3  0  0  0  0  0  0
  -22.7230  -10.2140   20.3060 C   0  0  0  0  0  3  0  0  0  0  0  0
  -21.6620   -6.8890   21.4250 O   0  0  0  0  0  0  0  0  0  0  0  0
  -21.6850   -6.0750   22.5290 C   0  0  0  0  0  0  0  0  0  0  0  0
  -21.4000   -6.5660   23.8230 C   0  0  0  0  0  3  0  0  0  0  0  0
  -21.3660   -5.6800   24.9180 C   0  0  0  0  0  3  0  0  0  0  0  0
  -21.6040   -4.3060   24.7230 C   0  0  0  0  0  0  0  0  0  0  0  0
  -21.8820   -3.8160   23.4350 C   0  0  0  0  0  3  0  0  0  0  0  0
  -21.9190   -4.6980   22.3410 C   0  0  0  0  0  0  0  0  0  0  0  0
  -22.1660   -4.2170   21.0970 F   0  0  0  0  0  0  0  0  0  0  0  0
  -21.5620   -3.4540   25.7740 F   0  0  0  0  0  0  0  0  0  0  0  0
  -22.7900  -13.5230   21.1850 C   0  0  0  0  0  0  0  0  0  0  0  0
  -22.0530  -12.8210   22.0390 N   0  0  0  0  0  0  0  0  0  0  0  0
  -22.3590  -14.5530   20.6700 O   0  0  0  0  0  0  0  0  0  0  0  0
  -22.4130  -11.9860   22.4780 H   0  0  0  0  0  0  0  0  0  0  0  0
  -21.1160  -13.1290   22.2570 H   0  0  0  0  0  0  0  0  0  0  0  0
  -25.4300  -15.1810   20.4040 N   0  0  0  0  0  0  0  0  0  0  0  0
  -24.6550  -15.8280   20.5080 H   0  0  0  0  0  0  0  0  0  0  0  0
  -26.2730  -15.6260   20.0680 H   0  0  0  0  0  0  0  0  0  0  0  0
  1  2  1  0
  1  4  1  0
  3  1  1  0
  5  4  1  0
  6  5  1  0
  7  6  1  0
  8  7  1  0
  9  8  1  0
 10  9  1  0
 11 10  1  0
 12 14  1  0
 12 11  1  0
 13 24  2  0
 14 19  1  0
 15 23  1  0
 15 25  1  0
 16 22  1  0
 16 18  1  0
 17 23  1  0
 18 19  2  0
 18 17  1  0
 20 21  1  0
 20 14  2  0
 21 16  2  0
 22 15  1  0
 23 13  1  0
 25 27  2  0
 26 25  1  0
 28 26  1  0
 29 38  2  0
 29 34  1  0
 30 26  1  0
 30 34  1  0
 31 30  1  0
 32 33  1  0
 32 31  1  0
 33 29  1  0
 34 35  2  0
 35 36  1  0
 37 36  2  0
 38 37  1  0
 39 13  1  0
 39 44  1  0
 39 40  1  0
 40 43  1  1
 40 41  1  0
 42 40  1  0
 44 47  1  0
 45 49  1  0
 45 44  1  0
 46 45  2  0
 49 48  1  0
 51 49  1  0
 51 52  1  0
 51 50  1  0
 53  1  1  0
 54 53  1  0
 55 57  1  0
 55 54  1  0
 56 54  2  0
 58 55  1  0
 59 60  1  0
 59 58  1  0
 61 62  1  0
 61 60  1  0
 63 72  1  0
 63 62  1  0
 64 72  1  0
 65 70  1  0
 66 67  1  0
 66 65  1  0
 68 67  1  0
 68 77  1  0
 68 69  1  0
 70 64  1  0
 70 69  1  0
 71 64  2  0
 72 73  1  0
 74 75  2  0
 75 94  1  0
 76 75  1  0
 76 79  1  0
 77 74  1  0
 77 78  1  0
 78 76  2  0
 79 80  1  0
 80 81  2  0
 82 85  1  0
 82 81  1  0
 83 82  2  0
 84 83  1  0
 84 79  2  0
 85 86  1  0
 86 87  1  0
 87 88  2  0
 89 88  1  0
 89 93  1  0
 90 89  2  0
 91 86  2  0
 91 90  1  0
 92 91  1  0
 94 95  1  0
 95 98  1  0
 95 97  1  0
 96 94  2  0
 99100  1  0
 99 74  1  0
101 99  1  0
M  ISO  4  11 101  12 101  64 100  72 100
M  END
>  <TORSDO>  (13) 
F 32

>  <SCORE>  (13) 
30.729

>  <name>  (13) 
12

>  <ligand_id>  (13) 
12

>  <original_smiles>  (13) 
[H]c1c([H])c([H])c2c(c1[H])C([H])([H])C([H])([H])C([H])([H])C2([H])N([H])C(=O)C1([H])N(C(=O)C([H])(N([H])C(=O)C([H])(N([H])C([H])([H])[H])C([H])([H])[H])C(C([H])([H])[H])(C([H])([H])[H])C([H])([H])[H])C([H])([H])c2c([H])c(OC([H])([H])C([H])([H])C([H])([H])C([H])([H])C([H])([H])OC([H])([H])C([H])([H])[N+]([H])([H])C([H])([H])C(=O)N([H])C([H])([H])C([H])([H])C([H])([H])C([H])([H])C([H])([H])C([H])([H])N([H])C(=O)N3C([H])([H])C([H])([H])C([H])([H])C([H])(n4nc(-c5c([H])c([H])c(Oc6c([H])c([H])c(F)c([H])c6F)c([H])c5[H])c(C(=O)N([H])[H])c4N([H])[H])C3([H])[H])c([H])c([H])c2C1([H])[H]

>  <smiles>  (13) 
[H]c1c([H])c([H])c2c(c1[H])C([H])([H])C([H])([H])C([H])([H])C2([H])N([H])C(=O)C1([H])N(C(=O)C([H])(N([H])C(=O)C([H])(N([H])C([H])([H])[H])C([H])([H])[H])C(C([H])([H])[H])(C([H])([H])[H])C([H])([H])[H])C([H])([H])c2c([H])c(OC([H])([H])C([H])([H])C([H])([H])C([H])([H])C([H])([H])OC([H])([H])C([H])([H])[N+]([H])([H])C([H])([H])C(=O)N([H])C([H])([H])C([H])([H])C([H])([H])C([H])([H])C([H])([H])C([H])([H])N([H])C(=O)N3C([H])([H])C([H])([H])C([H])([H])C([H])(n4nc(-c5c([H])c([H])c(Oc6c([H])c([H])c(F)c([H])c6F)c([H])c5[H])c(C(=O)N([H])[H])c4N([H])[H])C3([H])[H])c([H])c([H])c2C1([H])[H]

$$$$
13:0:0
     RDKit          3D

 88 95  0  0  1  0  0  0  0  0999 V2000
  -29.1220  -21.1830   20.9520 C   0  0  0  0  0  0  0  0  0  0  0  0
  -29.0000  -22.3570   20.2290 N   0  0  0  0  0  0  0  0  0  0  0  0
  -28.9780  -21.2090   22.1750 O   0  0  0  0  0  0  0  0  0  0  0  0
  -29.0950  -22.2590   19.2270 H   0  0  0  0  0  0  0  0  0  0  0  0
  -29.5040  -19.9250   20.2140 C   0  0  0  0  0  3  0  0  0  0  0  0
  -29.7080  -18.6780   20.7930 C   0  0  0  0  0  3  0  0  0  0  0  0
  -30.2780  -17.3600   20.1080 C   0  0  0  0  0  2  0  0  0  0  0  0
  -30.6170  -14.7850   20.3000 C   0  0  0  0  0  0  0  0  0  0  0  0
  -30.3680  -12.5220   19.2800 C   0  0  0  0  0  2  0  0  0  0  0  0
  -29.4290  -12.6220   18.0590 C   0  0  0  0  0  2  0  0  0  0  0  0
  -27.9570  -12.4700   18.4910 C   0  0  0  0  0  2  0  0  0  0  0  0
  -27.6030  -13.3440   19.7260 C   0  0  0  0  0  3  0  0  0  0  0  0
  -28.6670  -13.2370   20.8390 C   0  0  0  0  0  2  0  0  0  0  0  0
  -29.9640  -13.5740   20.2410 N   0  0  0  0  0  0  0  0  0  0  0  0
  -31.7920  -14.8630   19.9320 O   0  0  0  0  0  0  0  0  0  0  0  0
  -29.8890  -15.9430   20.5380 N   0  0  0  0  0  0  0  0  0  0  0  0
  -28.9320  -15.8060   20.8260 H   0  0  0  0  0  0  0  0  0  0  0  0
  -25.2180  -13.9350   20.4650 C   0  0  0  0  0  0  0  0  0  0  0  0
  -24.1550  -13.1620   20.8450 C   0  0  0  0  0  0  0  0  0  0  0  0
  -24.6180  -11.8100   20.8140 C   0  0  0  0  0  0  0  0  0  0  0  0
  -26.2610  -13.0560   20.2250 N   0  0  0  0  0  0  0  0  0  0  0  0
  -25.9070  -11.7730   20.4980 N   0  0  0  0  0  0  0  0  0  0  0  0
  -23.8920  -10.5490   21.0120 C   0  0  0  0  0  0  0  0  0  0  0  0
  -24.3300   -9.5810   21.9420 C   0  0  0  0  0  3  0  0  0  0  0  0
  -23.6030   -8.3860   22.1290 C   0  0  0  0  0  3  0  0  0  0  0  0
  -22.4220   -8.1500   21.3850 C   0  0  0  0  0  0  0  0  0  0  0  0
  -22.0020   -9.1060   20.4440 C   0  0  0  0  0  3  0  0  0  0  0  0
  -22.7310  -10.2940   20.2560 C   0  0  0  0  0  3  0  0  0  0  0  0
  -21.6660   -7.0060   21.4810 O   0  0  0  0  0  0  0  0  0  0  0  0
  -21.6300   -6.2610   22.6320 C   0  0  0  0  0  0  0  0  0  0  0  0
  -21.2200   -6.8140   23.8650 C   0  0  0  0  0  3  0  0  0  0  0  0
  -21.1310   -5.9930   25.0080 C   0  0  0  0  0  3  0  0  0  0  0  0
  -21.4410   -4.6240   24.9190 C   0  0  0  0  0  0  0  0  0  0  0  0
  -21.8450   -4.0710   23.6920 C   0  0  0  0  0  3  0  0  0  0  0  0
  -21.9350   -4.8880   22.5500 C   0  0  0  0  0  0  0  0  0  0  0  0
  -22.3030   -4.3450   21.3640 F   0  0  0  0  0  0  0  0  0  0  0  0
  -21.3510   -3.8350   26.0160 F   0  0  0  0  0  0  0  0  0  0  0  0
  -22.7590  -13.6410   21.1210 C   0  0  0  0  0  0  0  0  0  0  0  0
  -22.0350  -12.9500   21.9940 N   0  0  0  0  0  0  0  0  0  0  0  0
  -22.3190  -14.6630   20.5970 O   0  0  0  0  0  0  0  0  0  0  0  0
  -22.4040  -12.1250   22.4430 H   0  0  0  0  0  0  0  0  0  0  0  0
  -21.0980  -13.2540   22.2210 H   0  0  0  0  0  0  0  0  0  0  0  0
  -25.3790  -15.3050   20.2830 N   0  0  0  0  0  0  0  0  0  0  0  0
  -24.6090  -15.9570   20.3980 H   0  0  0  0  0  0  0  0  0  0  0  0
  -26.2190  -15.7460   19.9300 H   0  0  0  0  0  0  0  0  0  0  0  0
  -28.9870  -23.8060   20.7370 C   0  0  0  0  0  3  0  0  0  0  0  0
  -28.0570  -24.9270   20.0310 C   0  0  0  0  0  3  0  0  0  0  0  0
  -28.2680  -26.4040   20.2680 O   0  0  0  0  0  0  0  0  0  0  0  0
  -24.6040  -31.9140   23.2220 C   0  0  0  0  0  0  0  0  0  0  0  0
  -27.1810  -27.3060   20.1740 C   0  0  0  0  0  0  0  0  0  0  0  0
  -23.3950  -30.5240   21.5800 C   0  0  0  0  0  3  0  0  0  0  0  0
  -24.8390  -28.9720   20.1450 C   0  0  0  0  0  0  0  0  0  0  0  0
  -25.9380  -30.8230   21.3990 C   0  0  0  0  0  2  0  0  0  0  0  0
  -26.0110  -29.4410   20.7510 C   0  0  0  0  0  0  0  0  0  0  0  0
  -27.1840  -28.6180   20.7580 C   0  0  0  0  0  3  0  0  0  0  0  0
  -25.9910  -26.9150   19.5180 C   0  0  0  0  0  3  0  0  0  0  0  0
  -24.8340  -27.7180   19.5180 C   0  0  0  0  0  3  0  0  0  0  0  0
  -23.6080  -29.8560   20.1970 C   0  0  0  0  0  2  0  0  0  0  0  0
  -24.6650  -31.1060   22.1230 N   0  0  0  0  0  0  0  0  0  0  0  0
  -23.5210  -32.1960   23.7560 O   0  0  0  0  0  0  0  0  0  0  0  0
  -22.7300  -29.5060   22.5390 C   0  0  0  0  0  0  0  0  0  0  0  0
  -21.4020  -29.3320   22.4180 N   0  0  0  0  0  0  0  0  0  0  0  0
  -23.4080  -28.8780   23.3560 O   0  0  0  0  0  0  0  0  0  0  0  0
  -20.9110  -29.8920   21.7350 H   0  0  0  0  0  0  0  0  0  0  0  0
  -18.0240  -28.1470   22.9350 C   0  0  0  0  0  0  0  0  0  0  0  0
  -20.5850  -28.3960   23.1910 C   0  0  0  0  0  3  0  0  0  0  0  0
  -20.6770  -26.9650   22.6100 C   0  0  0  0  0  2  0  0  0  0  0  0
  -19.5670  -26.6500   21.6020 C   0  0  0  0  0  2  0  0  0  0  0  0
  -18.1900  -26.7990   22.2530 C   0  0  0  0  0  2  0  0  0  0  0  0
  -19.1480  -28.9030   23.3610 C   0  0  0  0  0  0  0  0  0  0  0  0
  -18.9370  -30.1640   23.9590 C   0  0  0  0  0  3  0  0  0  0  0  0
  -17.6340  -30.6700   24.1330 C   0  0  0  0  0  3  0  0  0  0  0  0
  -16.5250  -29.9120   23.7210 C   0  0  0  0  0  3  0  0  0  0  0  0
  -16.7210  -28.6510   23.1270 C   0  0  0  0  0  3  0  0  0  0  0  0
  -25.8870  -32.5440   23.8430 C   0  0  0  0  0  3  0  0  0  0  0  0
  -26.3980  -31.7750   25.1240 C   0  0  1  0  0  0  0  0  0  0  0  0
  -25.3030  -31.5510   26.1920 C   0  0  0  0  0  1  0  0  0  0  0  0
  -26.9730  -30.3910   24.7400 C   0  0  0  0  0  1  0  0  0  0  0  0
  -27.5520  -32.5650   25.7850 C   0  0  0  0  0  1  0  0  0  0  0  0
  -25.5820  -33.9440   24.1700 N   0  0  0  0  0  0  0  0  0  0  0  0
  -25.9120  -34.9940   23.4060 C   0  0  0  0  0  0  0  0  0  0  0  0
  -26.5760  -34.8850   22.3710 O   0  0  0  0  0  0  0  0  0  0  0  0
  -24.9920  -34.1010   24.9730 H   0  0  0  0  0  0  0  0  0  0  0  0
  -24.1860  -36.7920   23.0620 C   0  0  0  0  0  1  0  0  0  0  0  0
  -25.4320  -36.3850   23.8640 C   0  0  0  0  0  3  0  0  0  0  0  0
  -27.5750  -37.2700   24.6750 C   0  0  0  0  0  1  0  0  0  0  0  0
  -26.4660  -37.4360   23.7390 N   0  0  0  0  0  0  0  0  0  0  0  0
  -26.0620  -38.3560   23.8870 H   0  0  0  0  0  0  0  0  0  0  0  0
  1  3  2  0
  2 46  1  0
  2  1  1  0
  4  2  1  0
  5  6  2  0
  5  1  1  0
  7 16  1  0
  7  6  1  0
  8 16  1  0
  9 14  1  0
 10 11  1  0
 10  9  1  0
 12 11  1  0
 12 21  1  0
 12 13  1  0
 14  8  1  0
 14 13  1  0
 15  8  2  0
 16 17  1  0
 18 19  2  0
 19 38  1  0
 20 19  1  0
 20 23  1  0
 21 18  1  0
 21 22  1  0
 22 20  2  0
 23 24  1  0
 24 25  2  0
 26 29  1  0
 26 25  1  0
 27 26  2  0
 28 27  1  0
 28 23  2  0
 29 30  1  0
 30 31  1  0
 31 32  2  0
 33 32  1  0
 33 37  1  0
 34 33  2  0
 35 30  2  0
 35 34  1  0
 36 35  1  0
 38 39  1  0
 39 42  1  0
 39 41  1  0
 40 38  2  0
 43 44  1  0
 43 18  1  0
 45 43  1  0
 47 48  1  0
 47 46  2  0
 49 60  2  0
 50 48  1  0
 50 55  1  0
 51 59  1  0
 51 61  1  0
 52 58  1  0
 52 54  1  0
 53 59  1  0
 54 55  2  0
 54 53  1  0
 56 50  2  0
 57 56  1  0
 57 52  2  0
 58 51  1  0
 59 49  1  0
 61 63  2  0
 62 61  1  0
 64 62  1  0
 65 74  2  0
 65 70  1  0
 66 62  1  0
 66 70  1  0
 67 66  1  0
 68 69  1  0
 68 67  1  0
 69 65  1  0
 70 71  2  0
 71 72  1  0
 73 72  2  0
 74 73  1  0
 75 49  1  0
 75 80  1  0
 75 76  1  0
 76 79  1  1
 76 77  1  0
 78 76  1  0
 80 83  1  0
 81 85  1  0
 81 80  1  0
 82 81  2  0
 85 84  1  0
 87 85  1  0
 87 88  1  0
 87 86  1  0
M  ISO  4   8 100  16 100  47 101  48 101
M  END
>  <TORSDO>  (14) 
F 20

>  <SCORE>  (14) 
-13.638

>  <name>  (14) 
13

>  <ligand_id>  (14) 
13

>  <original_smiles>  (14) 
[H]C(C(=O)N([H])C([H])([H])C([H])([H])Oc1c([H])c([H])c2c(c1[H])C([H])([H])N(C(=O)C([H])(N([H])C(=O)C([H])(N([H])C([H])([H])[H])C([H])([H])[H])C(C([H])([H])[H])(C([H])([H])[H])C([H])([H])[H])C([H])(C(=O)N([H])C1([H])c3c([H])c([H])c([H])c([H])c3C([H])([H])C([H])([H])C1([H])[H])C2([H])[H])=C([H])C([H])([H])N([H])C(=O)N1C([H])([H])C([H])([H])C([H])([H])C([H])(n2nc(-c3c([H])c([H])c(Oc4c([H])c([H])c(F)c([H])c4F)c([H])c3[H])c(C(=O)N([H])[H])c2N([H])[H])C1([H])[H]

>  <smiles>  (14) 
[H]C(C(=O)N([H])C([H])([H])C([H])([H])Oc1c([H])c([H])c2c(c1[H])C([H])([H])N(C(=O)C([H])(N([H])C(=O)C([H])(N([H])C([H])([H])[H])C([H])([H])[H])C(C([H])([H])[H])(C([H])([H])[H])C([H])([H])[H])C([H])(C(=O)N([H])C1([H])c3c([H])c([H])c([H])c([H])c3C([H])([H])C([H])([H])C1([H])[H])C2([H])[H])=C([H])C([H])([H])N([H])C(=O)N1C([H])([H])C([H])([H])C([H])([H])C([H])(n2nc(-c3c([H])c([H])c(Oc4c([H])c([H])c(F)c([H])c4F)c([H])c3[H])c(C(=O)N([H])[H])c2N([H])[H])C1([H])[H]

$$$$
14:0:0
     RDKit          3D

102109  0  0  1  0  0  0  0  0999 V2000
  -28.2060  -23.1700   15.1910 C   0  0  0  0  0  2  0  0  0  0  0  0
  -26.7260  -22.9330   15.5560 C   0  0  0  0  0  2  0  0  0  0  0  0
  -26.7900  -21.4350   17.5400 C   0  0  0  0  0  0  0  0  0  0  0  0
  -26.5450  -22.6250   16.9730 N   0  0  0  0  0  0  0  0  0  0  0  0
  -27.1970  -20.4690   16.8880 O   0  0  0  0  0  0  0  0  0  0  0  0
  -26.1770  -23.3590   17.5650 H   0  0  0  0  0  0  0  0  0  0  0  0
  -26.5550  -21.3140   19.0520 C   0  0  0  0  0  2  0  0  0  0  0  0
  -27.0450  -20.0560   19.5070 O   0  0  0  0  0  0  0  0  0  0  0  0
  -26.9570  -19.8860   20.9130 C   0  0  0  0  0  2  0  0  0  0  0  0
  -27.4830  -18.4870   21.2710 C   0  0  0  0  0  2  0  0  0  0  0  0
  -28.9520  -18.2740   20.8700 C   0  0  0  0  0  2  0  0  0  0  0  0
  -29.4550  -16.8540   21.1710 C   0  0  0  0  0  2  0  0  0  0  0  0
  -30.9140  -16.6510   20.7280 C   0  0  0  0  0  2  0  0  0  0  0  0
  -31.4910  -15.2680   21.0800 C   0  0  0  0  0  2  0  0  0  0  0  0
  -30.8300  -13.5950   19.3450 C   0  0  0  0  0  0  0  0  0  0  0  0
  -30.1200  -11.6890   17.9440 C   0  0  0  0  0  2  0  0  0  0  0  0
  -29.0120  -12.0740   16.9480 C   0  0  0  0  0  2  0  0  0  0  0  0
  -27.6230  -11.9630   17.6040 C   0  0  0  0  0  2  0  0  0  0  0  0
  -27.5550  -12.6930   18.9710 C   0  0  0  0  0  3  0  0  0  0  0  0
  -28.7430  -12.2820   19.8660 C   0  0  0  0  0  2  0  0  0  0  0  0
  -29.9980  -12.5440   19.1330 N   0  0  0  0  0  0  0  0  0  0  0  0
  -31.7130  -13.9400   18.5510 O   0  0  0  0  0  0  0  0  0  0  0  0
  -30.6830  -14.1810   20.5380 N   0  0  0  0  0  0  0  0  0  0  0  0
  -29.9650  -13.7980   21.1360 H   0  0  0  0  0  0  0  0  0  0  0  0
  -25.3410  -13.3710   20.1020 C   0  0  0  0  0  0  0  0  0  0  0  0
  -24.2920  -12.6280   20.5750 C   0  0  0  0  0  0  0  0  0  0  0  0
  -24.6490  -11.2620   20.3610 C   0  0  0  0  0  0  0  0  0  0  0  0
  -26.2750  -12.4570   19.6360 N   0  0  0  0  0  0  0  0  0  0  0  0
  -25.8680  -11.1790   19.8450 N   0  0  0  0  0  0  0  0  0  0  0  0
  -23.8780  -10.0290   20.5640 C   0  0  0  0  0  0  0  0  0  0  0  0
  -24.4080   -8.9340   21.2840 C   0  0  0  0  0  3  0  0  0  0  0  0
  -23.6400   -7.7670   21.4810 C   0  0  0  0  0  3  0  0  0  0  0  0
  -22.3280   -7.6850   20.9590 C   0  0  0  0  0  0  0  0  0  0  0  0
  -21.8120   -8.7670   20.2240 C   0  0  0  0  0  3  0  0  0  0  0  0
  -22.5790   -9.9260   20.0250 C   0  0  0  0  0  3  0  0  0  0  0  0
  -21.5180   -6.5810   21.0790 O   0  0  0  0  0  0  0  0  0  0  0  0
  -21.6680   -5.6870   22.1080 C   0  0  0  0  0  0  0  0  0  0  0  0
  -21.6240   -6.0930   23.4600 C   0  0  0  0  0  3  0  0  0  0  0  0
  -21.7110   -5.1310   24.4860 C   0  0  0  0  0  3  0  0  0  0  0  0
  -21.8340   -3.7660   24.1660 C   0  0  0  0  0  0  0  0  0  0  0  0
  -21.8730   -3.3590   22.8200 C   0  0  0  0  0  3  0  0  0  0  0  0
  -21.7870   -4.3170   21.7950 C   0  0  0  0  0  0  0  0  0  0  0  0
  -21.8030   -3.9190   20.5000 F   0  0  0  0  0  0  0  0  0  0  0  0
  -21.9120   -2.8420   25.1520 F   0  0  0  0  0  0  0  0  0  0  0  0
  -22.9920  -13.1540   21.1110 C   0  0  0  0  0  0  0  0  0  0  0  0
  -22.3660  -12.4240   22.0260 N   0  0  0  0  0  0  0  0  0  0  0  0
  -22.5450  -14.2430   20.7500 O   0  0  0  0  0  0  0  0  0  0  0  0
  -22.7400  -11.5390   22.3370 H   0  0  0  0  0  0  0  0  0  0  0  0
  -21.4970  -12.7540   22.4250 H   0  0  0  0  0  0  0  0  0  0  0  0
  -25.5700  -14.7400   20.0100 N   0  0  0  0  0  0  0  0  0  0  0  0
  -24.8810  -15.4260   20.2950 H   0  0  0  0  0  0  0  0  0  0  0  0
  -26.3960  -15.1550   19.5980 H   0  0  0  0  0  0  0  0  0  0  0  0
  -28.7660  -24.4870   15.7560 C   0  0  0  0  0  2  0  0  0  0  0  0
  -30.2950  -24.6400   15.6030 C   0  0  0  0  0  2  0  0  0  0  0  0
  -31.1500  -23.7860   16.5660 C   0  0  0  0  0  2  0  0  0  0  0  0
  -30.8120  -24.9510   18.7520 C   0  0  0  0  0  0  0  0  0  0  0  0
  -30.7080  -23.8810   17.9540 N   0  0  0  0  0  0  0  0  0  0  0  0
  -31.4120  -25.9780   18.4240 O   0  0  0  0  0  0  0  0  0  0  0  0
  -30.2270  -23.0740   18.3270 H   0  0  0  0  0  0  0  0  0  0  0  0
  -30.1260  -24.8490   20.1130 C   0  0  0  0  0  2  0  0  0  0  0  0
  -28.6720  -25.3510   20.0640 C   0  0  0  0  0  2  0  0  0  0  0  0
  -28.6700  -26.7740   20.0860 O   0  0  0  0  0  0  0  0  0  0  0  0
  -24.8820  -31.8350   23.2690 C   0  0  0  0  0  0  0  0  0  0  0  0
  -27.4590  -27.4260   20.1200 C   0  0  0  0  0  0  0  0  0  0  0  0
  -23.6320  -30.4380   21.6530 C   0  0  0  0  0  3  0  0  0  0  0  0
  -25.0510  -28.9030   20.1940 C   0  0  0  0  0  0  0  0  0  0  0  0
  -26.1480  -30.8070   21.3870 C   0  0  0  0  0  2  0  0  0  0  0  0
  -26.2190  -29.4370   20.7500 C   0  0  0  0  0  0  0  0  0  0  0  0
  -27.4240  -28.7060   20.7070 C   0  0  0  0  0  3  0  0  0  0  0  0
  -26.2710  -26.8900   19.5710 C   0  0  0  0  0  3  0  0  0  0  0  0
  -25.0710  -27.6260   19.6020 C   0  0  0  0  0  3  0  0  0  0  0  0
  -23.8090  -29.7590   20.2670 C   0  0  0  0  0  2  0  0  0  0  0  0
  -24.9070  -31.0400   22.1630 N   0  0  0  0  0  0  0  0  0  0  0  0
  -23.8150  -32.1070   23.8370 O   0  0  0  0  0  0  0  0  0  0  0  0
  -23.0080  -29.4140   22.6270 C   0  0  0  0  0  0  0  0  0  0  0  0
  -21.6800  -29.2370   22.5370 N   0  0  0  0  0  0  0  0  0  0  0  0
  -23.7120  -28.7820   23.4200 O   0  0  0  0  0  0  0  0  0  0  0  0
  -21.1740  -29.8030   21.8700 H   0  0  0  0  0  0  0  0  0  0  0  0
  -18.3190  -28.0380   23.0910 C   0  0  0  0  0  0  0  0  0  0  0  0
  -20.8810  -28.2980   23.3220 C   0  0  0  0  0  3  0  0  0  0  0  0
  -20.9760  -26.8660   22.7470 C   0  0  0  0  0  2  0  0  0  0  0  0
  -19.8570  -26.5390   21.7530 C   0  0  0  0  0  2  0  0  0  0  0  0
  -18.4860  -26.6860   22.4190 C   0  0  0  0  0  2  0  0  0  0  0  0
  -19.4440  -28.8020   23.5010 C   0  0  0  0  0  0  0  0  0  0  0  0
  -19.2360  -30.0670   24.0920 C   0  0  0  0  0  3  0  0  0  0  0  0
  -17.9340  -30.5710   24.2750 C   0  0  0  0  0  3  0  0  0  0  0  0
  -16.8240  -29.8040   23.8810 C   0  0  0  0  0  3  0  0  0  0  0  0
  -17.0160  -28.5410   23.2940 C   0  0  0  0  0  3  0  0  0  0  0  0
  -26.1860  -32.4620   23.8580 C   0  0  0  0  0  3  0  0  0  0  0  0
  -26.7630  -31.6560   25.0850 C   0  0  1  0  0  0  0  0  0  0  0  0
  -25.7180  -31.3760   26.1910 C   0  0  0  0  0  1  0  0  0  0  0  0
  -27.3420  -30.3000   24.6180 C   0  0  0  0  0  1  0  0  0  0  0  0
  -27.9350  -32.4400   25.7240 C   0  0  0  0  0  1  0  0  0  0  0  0
  -25.8760  -33.8450   24.2420 N   0  0  0  0  0  0  0  0  0  0  0  0
  -26.1660  -34.9230   23.5000 C   0  0  0  0  0  0  0  0  0  0  0  0
  -26.7970  -34.8570   22.4410 O   0  0  0  0  0  0  0  0  0  0  0  0
  -25.3130  -33.9690   25.0700 H   0  0  0  0  0  0  0  0  0  0  0  0
  -24.3960  -36.6930   23.2700 C   0  0  0  0  0  1  0  0  0  0  0  0
  -25.6780  -36.2890   24.0160 C   0  0  0  0  0  3  0  0  0  0  0  0
  -27.8430  -37.1750   24.7610 C   0  0  0  0  0  1  0  0  0  0  0  0
  -26.6860  -37.3630   23.8900 N   0  0  0  0  0  0  0  0  0  0  0  0
  -26.2740  -38.2670   24.1050 H   0  0  0  0  0  0  0  0  0  0  0  0
  1  2  1  0
  1 53  1  0
  2  4  1  0
  3  7  1  0
  4  3  1  0
  4  6  1  0
  5  3  2  0
  7  8  1  0
  8  9  1  0
  9 10  1  0
 11 12  1  0
 11 10  1  0
 13 14  1  0
 13 12  1  0
 15 23  1  0
 16 21  1  0
 17 18  1  0
 17 16  1  0
 19 18  1  0
 19 28  1  0
 19 20  1  0
 21 15  1  0
 21 20  1  0
 22 15  2  0
 23 14  1  0
 23 24  1  0
 25 26  2  0
 26 45  1  0
 27 30  1  0
 27 26  1  0
 28 29  1  0
 28 25  1  0
 29 27  2  0
 30 31  1  0
 31 32  2  0
 33 36  1  0
 33 32  1  0
 34 33  2  0
 35 34  1  0
 35 30  2  0
 36 37  1  0
 37 38  1  0
 38 39  2  0
 40 39  1  0
 40 44  1  0
 41 40  2  0
 42 37  2  0
 42 41  1  0
 43 42  1  0
 45 46  1  0
 46 48  1  0
 46 49  1  0
 47 45  2  0
 50 25  1  0
 50 51  1  0
 52 50  1  0
 54 53  1  0
 54 55  1  0
 55 57  1  0
 56 60  1  0
 57 59  1  0
 57 56  1  0
 58 56  2  0
 61 62  1  0
 61 60  1  0
 62 64  1  0
 63 74  2  0
 64 69  1  0
 65 73  1  0
 65 75  1  0
 66 72  1  0
 66 68  1  0
 67 73  1  0
 68 67  1  0
 69 68  2  0
 70 71  1  0
 70 64  2  0
 71 66  2  0
 72 65  1  0
 73 63  1  0
 75 77  2  0
 76 75  1  0
 78 76  1  0
 79 88  2  0
 79 84  1  0
 80 76  1  0
 80 84  1  0
 81 80  1  0
 82 83  1  0
 82 81  1  0
 83 79  1  0
 84 85  2  0
 85 86  1  0
 87 86  2  0
 88 87  1  0
 89 63  1  0
 89 94  1  0
 89 90  1  0
 90 93  1  1
 90 91  1  0
 92 90  1  0
 94 97  1  0
 95 99  1  0
 95 94  1  0
 96 95  2  0
 99 98  1  0
101 99  1  0
101102  1  0
101100  1  0
M  ISO  4  15 100  23 100  61 101  62 101
M  END
>  <TORSDO>  (15) 
F 32

>  <SCORE>  (15) 
0.052

>  <name>  (15) 
14

>  <ligand_id>  (15) 
14

>  <original_smiles>  (15) 
[H]c1c([H])c([H])c2c(c1[H])C([H])([H])C([H])([H])C([H])([H])C2([H])N([H])C(=O)C1([H])N(C(=O)C([H])(N([H])C(=O)C([H])(N([H])C([H])([H])[H])C([H])([H])[H])C(C([H])([H])[H])(C([H])([H])[H])C([H])([H])[H])C([H])([H])c2c([H])c(OC([H])([H])C([H])([H])C(=O)N([H])C([H])([H])C([H])([H])C([H])([H])C([H])([H])C([H])([H])N([H])C(=O)C([H])([H])OC([H])([H])C([H])([H])C([H])([H])C([H])([H])C([H])([H])C([H])([H])N([H])C(=O)N3C([H])([H])C([H])([H])C([H])([H])C([H])(n4nc(-c5c([H])c([H])c(Oc6c([H])c([H])c(F)c([H])c6F)c([H])c5[H])c(C(=O)N([H])[H])c4N([H])[H])C3([H])[H])c([H])c([H])c2C1([H])[H]

>  <smiles>  (15) 
[H]c1c([H])c([H])c2c(c1[H])C([H])([H])C([H])([H])C([H])([H])C2([H])N([H])C(=O)C1([H])N(C(=O)C([H])(N([H])C(=O)C([H])(N([H])C([H])([H])[H])C([H])([H])[H])C(C([H])([H])[H])(C([H])([H])[H])C([H])([H])[H])C([H])([H])c2c([H])c(OC([H])([H])C([H])([H])C(=O)N([H])C([H])([H])C([H])([H])C([H])([H])C([H])([H])C([H])([H])N([H])C(=O)C([H])([H])OC([H])([H])C([H])([H])C([H])([H])C([H])([H])C([H])([H])C([H])([H])N([H])C(=O)N3C([H])([H])C([H])([H])C([H])([H])C([H])(n4nc(-c5c([H])c([H])c(Oc6c([H])c([H])c(F)c([H])c6F)c([H])c5[H])c(C(=O)N([H])[H])c4N([H])[H])C3([H])[H])c([H])c([H])c2C1([H])[H]

$$$$
15:0:0
     RDKit          3D

101108  0  0  1  0  0  0  0  0999 V2000
  -28.3470  -22.6500   20.7210 C   0  0  0  0  0  2  0  0  0  0  0  0
  -29.4980  -23.6640   20.8820 C   0  0  0  0  0  2  0  0  0  0  0  0
  -29.0820  -25.1430   20.8440 C   0  0  0  0  0  2  0  0  0  0  0  0
  -29.3990  -25.9070   18.4940 C   0  0  0  0  0  0  0  0  0  0  0  0
  -28.6270  -25.5480   19.5200 N   0  0  0  0  0  0  0  0  0  0  0  0
  -30.6300  -25.9450   18.5510 O   0  0  0  0  0  0  0  0  0  0  0  0
  -27.6280  -25.6010   19.3810 H   0  0  0  0  0  0  0  0  0  0  0  0
  -28.5890  -26.2450   17.3420 C   0  0  0  0  0  3  0  0  0  0  0  0
  -28.9740  -27.2200   16.4970 C   0  0  0  0  0  3  0  0  0  0  0  0
  -28.1870  -27.6660   15.2790 C   0  0  0  0  0  2  0  0  0  0  0  0
  -26.8880  -27.0780   15.2360 O   0  0  0  0  0  0  0  0  0  0  0  0
  -24.7010  -29.2850   21.7030 C   0  0  0  0  0  0  0  0  0  0  0  0
  -25.8960  -27.4820   16.1070 C   0  0  0  0  0  0  0  0  0  0  0  0
  -22.9260  -28.6720   20.0930 C   0  0  0  0  0  3  0  0  0  0  0  0
  -23.6970  -28.2970   17.6940 C   0  0  0  0  0  0  0  0  0  0  0  0
  -25.1820  -29.5430   19.2700 C   0  0  0  0  0  2  0  0  0  0  0  0
  -24.9980  -28.6740   18.0470 C   0  0  0  0  0  0  0  0  0  0  0  0
  -26.0990  -28.2640   17.2680 C   0  0  0  0  0  3  0  0  0  0  0  0
  -24.5790  -27.1040   15.7710 C   0  0  0  0  0  3  0  0  0  0  0  0
  -23.4830  -27.4980   16.5580 C   0  0  0  0  0  3  0  0  0  0  0  0
  -22.5820  -28.7970   18.5850 C   0  0  0  0  0  2  0  0  0  0  0  0
  -24.3110  -29.1530   20.4040 N   0  0  0  0  0  0  0  0  0  0  0  0
  -23.9170  -29.0580   22.6330 O   0  0  0  0  0  0  0  0  0  0  0  0
  -22.6660  -27.2150   20.5360 C   0  0  0  0  0  0  0  0  0  0  0  0
  -21.3840  -26.8170   20.5710 N   0  0  0  0  0  0  0  0  0  0  0  0
  -23.6040  -26.4640   20.8180 O   0  0  0  0  0  0  0  0  0  0  0  0
  -20.6720  -27.4940   20.3340 H   0  0  0  0  0  0  0  0  0  0  0  0
  -18.4330  -24.7420   20.7530 C   0  0  0  0  0  0  0  0  0  0  0  0
  -20.9050  -25.4810   20.9250 C   0  0  0  0  0  3  0  0  0  0  0  0
  -21.1810  -24.4690   19.7870 C   0  0  0  0  0  2  0  0  0  0  0  0
  -20.0070  -24.3220   18.8170 C   0  0  0  0  0  2  0  0  0  0  0  0
  -18.7480  -23.8600   19.5550 C   0  0  0  0  0  2  0  0  0  0  0  0
  -19.4420  -25.5130   21.3860 C   0  0  0  0  0  0  0  0  0  0  0  0
  -19.0850  -26.3440   22.4690 C   0  0  0  0  0  3  0  0  0  0  0  0
  -17.7540  -26.4080   22.9210 C   0  0  0  0  0  3  0  0  0  0  0  0
  -16.7630  -25.6230   22.3040 C   0  0  0  0  0  3  0  0  0  0  0  0
  -17.1050  -24.7910   21.2230 C   0  0  0  0  0  3  0  0  0  0  0  0
  -26.1420  -29.7500   22.0830 C   0  0  0  0  0  3  0  0  0  0  0  0
  -26.0170  -30.8000   23.1010 N   0  0  0  0  0  0  0  0  0  0  0  0
  -26.2220  -32.1050   22.8750 C   0  0  0  0  0  0  0  0  0  0  0  0
  -26.6170  -32.5420   21.7910 O   0  0  0  0  0  0  0  0  0  0  0  0
  -25.6490  -30.5190   23.9980 H   0  0  0  0  0  0  0  0  0  0  0  0
  -24.6080  -33.7960   23.7990 C   0  0  0  0  0  1  0  0  0  0  0  0
  -25.9470  -33.0780   24.0360 C   0  0  0  0  0  3  0  0  0  0  0  0
  -28.2600  -33.4990   24.7490 C   0  0  0  0  0  1  0  0  0  0  0  0
  -27.0210  -34.0780   24.2330 N   0  0  0  0  0  0  0  0  0  0  0  0
  -26.7220  -34.8080   24.8730 H   0  0  0  0  0  0  0  0  0  0  0  0
  -27.0610  -28.5740   22.5950 C   0  0  1  0  0  0  0  0  0  0  0  0
  -26.4250  -27.7290   23.7230 C   0  0  0  0  0  1  0  0  0  0  0  0
  -27.4120  -27.6210   21.4290 C   0  0  0  0  0  1  0  0  0  0  0  0
  -28.4010  -29.1460   23.1110 C   0  0  0  0  0  1  0  0  0  0  0  0
  -28.7950  -21.4520   19.8610 C   0  0  0  0  0  2  0  0  0  0  0  0
  -27.8810  -21.0930   18.6660 C   0  0  0  0  0  2  0  0  0  0  0  0
  -28.2840  -21.7190   17.3160 C   0  0  0  0  0  2  0  0  0  0  0  0
  -29.8900  -21.1560   15.5130 C   0  0  0  0  0  0  0  0  0  0  0  0
  -29.3810  -20.9630   16.7300 N   0  0  0  0  0  0  0  0  0  0  0  0
  -29.2880  -21.7440   14.6130 O   0  0  0  0  0  0  0  0  0  0  0  0
  -29.9410  -20.4240   17.3770 H   0  0  0  0  0  0  0  0  0  0  0  0
  -31.3250  -20.6760   15.3080 C   0  0  0  0  0  2  0  0  0  0  0  0
  -31.4970  -19.1560   15.4480 C   0  0  0  0  0  2  0  0  0  0  0  0
  -31.1920  -18.6150   16.8580 C   0  0  0  0  0  2  0  0  0  0  0  0
  -32.1650  -17.4980   17.2560 C   0  0  0  0  0  2  0  0  0  0  0  0
  -32.2510  -17.2550   18.7740 C   0  0  0  0  0  2  0  0  0  0  0  0
  -32.2610  -14.8500   19.4230 C   0  0  0  0  0  0  0  0  0  0  0  0
  -32.3880  -12.9470   20.9800 C   0  0  0  0  0  2  0  0  0  0  0  0
  -31.9920  -11.6010   20.3570 C   0  0  0  0  0  2  0  0  0  0  0  0
  -30.4710  -11.3910   20.4590 C   0  0  0  0  0  2  0  0  0  0  0  0
  -29.6700  -12.6090   19.9300 C   0  0  0  0  0  3  0  0  0  0  0  0
  -30.1930  -13.9300   20.5340 C   0  0  0  0  0  2  0  0  0  0  0  0
  -31.6480  -14.0210   20.3030 N   0  0  0  0  0  0  0  0  0  0  0  0
  -33.4030  -14.6620   18.9930 O   0  0  0  0  0  0  0  0  0  0  0  0
  -31.6260  -16.0110   19.2280 N   0  0  0  0  0  0  0  0  0  0  0  0
  -30.7130  -16.0910   19.6480 H   0  0  0  0  0  0  0  0  0  0  0  0
  -27.1800  -13.2590   19.7950 C   0  0  0  0  0  0  0  0  0  0  0  0
  -26.0430  -12.6060   20.1870 C   0  0  0  0  0  0  0  0  0  0  0  0
  -26.4750  -11.3840   20.7890 C   0  0  0  0  0  0  0  0  0  0  0  0
  -28.2360  -12.4390   20.1640 N   0  0  0  0  0  0  0  0  0  0  0  0
  -27.8010  -11.3280   20.8140 N   0  0  0  0  0  0  0  0  0  0  0  0
  -25.7050  -10.2380   21.2900 C   0  0  0  0  0  0  0  0  0  0  0  0
  -25.2870  -10.1620   22.6370 C   0  0  0  0  0  3  0  0  0  0  0  0
  -24.5310   -9.0590   23.0900 C   0  0  0  0  0  3  0  0  0  0  0  0
  -24.1820   -8.0220   22.1950 C   0  0  0  0  0  0  0  0  0  0  0  0
  -24.6200   -8.0920   20.8610 C   0  0  0  0  0  3  0  0  0  0  0  0
  -25.3770   -9.1860   20.4110 C   0  0  0  0  0  3  0  0  0  0  0  0
  -23.4730   -6.9000   22.5520 O   0  0  0  0  0  0  0  0  0  0  0  0
  -22.2130   -6.9840   23.0870 C   0  0  0  0  0  0  0  0  0  0  0  0
  -21.1460   -7.5910   22.3890 C   0  0  0  0  0  3  0  0  0  0  0  0
  -19.8510   -7.5940   22.9470 C   0  0  0  0  0  3  0  0  0  0  0  0
  -19.6210   -6.9860   24.1950 C   0  0  0  0  0  0  0  0  0  0  0  0
  -20.6820   -6.3770   24.8900 C   0  0  0  0  0  3  0  0  0  0  0  0
  -21.9740   -6.3750   24.3360 C   0  0  0  0  0  0  0  0  0  0  0  0
  -22.9870   -5.7680   24.9980 F   0  0  0  0  0  0  0  0  0  0  0  0
  -18.3770   -6.9820   24.7280 F   0  0  0  0  0  0  0  0  0  0  0  0
  -24.6270  -13.0440   19.9380 C   0  0  0  0  0  0  0  0  0  0  0  0
  -23.7240  -12.7520   20.8670 N   0  0  0  0  0  0  0  0  0  0  0  0
  -24.3260  -13.6910   18.9360 O   0  0  0  0  0  0  0  0  0  0  0  0
  -23.9750  -12.2370   21.6980 H   0  0  0  0  0  0  0  0  0  0  0  0
  -22.7660  -13.0490   20.7460 H   0  0  0  0  0  0  0  0  0  0  0  0
  -27.4070  -14.4650   19.1390 N   0  0  0  0  0  0  0  0  0  0  0  0
  -26.6500  -15.0580   18.8140 H   0  0  0  0  0  0  0  0  0  0  0  0
  -28.3230  -14.8220   18.8950 H   0  0  0  0  0  0  0  0  0  0  0  0
  1  2  1  0
  3  2  1  0
  4  6  2  0
  4  5  1  0
  5  3  1  0
  7  5  1  0
  8  4  1  0
  9  8  2  0
 10  9  1  0
 11 10  1  0
 11 13  1  0
 12 23  2  0
 13 18  1  0
 14 22  1  0
 14 24  1  0
 15 17  1  0
 15 21  1  0
 16 22  1  0
 17 16  1  0
 18 17  2  0
 19 13  2  0
 19 20  1  0
 20 15  2  0
 21 14  1  0
 22 12  1  0
 24 25  1  0
 24 26  2  0
 27 25  1  0
 28 37  2  0
 28 33  1  0
 29 25  1  0
 29 33  1  0
 30 29  1  0
 31 32  1  0
 31 30  1  0
 32 28  1  0
 33 34  2  0
 34 35  1  0
 36 35  2  0
 37 36  1  0
 38 12  1  0
 38 48  1  0
 38 39  1  0
 39 42  1  0
 40 39  1  0
 40 44  1  0
 41 40  2  0
 44 43  1  0
 44 46  1  0
 46 45  1  0
 46 47  1  0
 48 51  1  1
 48 49  1  0
 50 48  1  0
 52  1  1  0
 53 52  1  0
 54 53  1  0
 55 56  1  0
 56 54  1  0
 56 58  1  0
 57 55  2  0
 59 60  1  0
 59 55  1  0
 60 61  1  0
 61 62  1  0
 62 63  1  0
 63 72  1  0
 64 70  1  0
 66 67  1  0
 66 65  1  0
 68 77  1  0
 68 67  1  0
 68 69  1  0
 70 69  1  0
 70 65  1  0
 71 64  2  0
 72 64  1  0
 72 73  1  0
 74 77  1  0
 74 75  2  0
 75 76  1  0
 76 78  2  0
 76 79  1  0
 77 78  1  0
 79 80  1  0
 80 81  2  0
 82 85  1  0
 82 81  1  0
 83 82  2  0
 84 83  1  0
 84 79  2  0
 85 86  1  0
 86 91  1  0
 87 88  1  0
 87 86  2  0
 88 89  2  0
 89 93  1  0
 89 90  1  0
 91 90  2  0
 91 92  1  0
 94 75  1  0
 94 95  1  0
 95 97  1  0
 96 94  2  0
 98 95  1  0
 99 74  1  0
100 99  1  0
101 99  1  0
M  ISO  4  10 101  11 101  64 100  72 100
M  END
>  <TORSDO>  (16) 
F 30

>  <SCORE>  (16) 
-2.085

>  <name>  (16) 
15

>  <ligand_id>  (16) 
15

>  <original_smiles>  (16) 
[H]C(C(=O)N([H])C([H])([H])C([H])([H])C([H])([H])C([H])([H])C([H])([H])C([H])([H])N([H])C(=O)C([H])([H])C([H])([H])C([H])([H])C([H])([H])C([H])([H])N([H])C(=O)N1C([H])([H])C([H])([H])C([H])([H])C([H])(n2nc(-c3c([H])c([H])c(Oc4c([H])c([H])c(F)c([H])c4F)c([H])c3[H])c(C(=O)N([H])[H])c2N([H])[H])C1([H])[H])=C([H])C([H])([H])Oc1c([H])c([H])c2c(c1[H])C([H])([H])N(C(=O)C([H])(N([H])C(=O)C([H])(N([H])C([H])([H])[H])C([H])([H])[H])C(C([H])([H])[H])(C([H])([H])[H])C([H])([H])[H])C([H])(C(=O)N([H])C1([H])c3c([H])c([H])c([H])c([H])c3C([H])([H])C([H])([H])C1([H])[H])C2([H])[H]

>  <smiles>  (16) 
[H]C(C(=O)N([H])C([H])([H])C([H])([H])C([H])([H])C([H])([H])C([H])([H])C([H])([H])N([H])C(=O)C([H])([H])C([H])([H])C([H])([H])C([H])([H])C([H])([H])N([H])C(=O)N1C([H])([H])C([H])([H])C([H])([H])C([H])(n2nc(-c3c([H])c([H])c(Oc4c([H])c([H])c(F)c([H])c4F)c([H])c3[H])c(C(=O)N([H])[H])c2N([H])[H])C1([H])[H])=C([H])C([H])([H])Oc1c([H])c([H])c2c(c1[H])C([H])([H])N(C(=O)C([H])(N([H])C(=O)C([H])(N([H])C([H])([H])[H])C([H])([H])[H])C(C([H])([H])[H])(C([H])([H])[H])C([H])([H])[H])C([H])(C(=O)N([H])C1([H])c3c([H])c([H])c([H])c([H])c3C([H])([H])C([H])([H])C1([H])[H])C2([H])[H]

$$$$
16:0:0
     RDKit          3D

 95102  0  0  1  0  0  0  0  0999 V2000
  -25.4200  -23.4920   20.4310 C   0  0  0  0  0  2  0  0  0  0  0  0
  -25.0120  -22.2370   19.6400 C   0  0  0  0  0  2  0  0  0  0  0  0
  -26.2100  -21.5790   18.9250 C   0  0  0  0  0  2  0  0  0  0  0  0
  -26.7390  -20.3180   19.6340 C   0  0  0  0  0  2  0  0  0  0  0  0
  -28.1740  -19.9560   19.2120 C   0  0  0  0  0  2  0  0  0  0  0  0
  -29.6450  -18.0610   19.9720 C   0  0  0  0  0  0  0  0  0  0  0  0
  -28.4740  -18.5880   19.6000 N   0  0  0  0  0  0  0  0  0  0  0  0
  -30.6750  -18.7060   20.1800 O   0  0  0  0  0  0  0  0  0  0  0  0
  -27.7110  -17.9340   19.5000 H   0  0  0  0  0  0  0  0  0  0  0  0
  -29.6240  -16.5430   20.0590 C   0  0  0  0  0  2  0  0  0  0  0  0
  -31.4000  -14.8740   19.8940 C   0  0  0  0  0  0  0  0  0  0  0  0
  -31.0370  -12.6180   18.9610 C   0  0  0  0  0  2  0  0  0  0  0  0
  -30.0600  -12.6630   17.7680 C   0  0  0  0  0  2  0  0  0  0  0  0
  -28.6020  -12.5350   18.2510 C   0  0  0  0  0  2  0  0  0  0  0  0
  -28.2820  -13.5350   19.3850 C   0  0  0  0  0  3  0  0  0  0  0  0
  -29.3640  -13.4760   20.4940 C   0  0  0  0  0  2  0  0  0  0  0  0
  -30.6820  -13.7160   19.8740 N   0  0  0  0  0  0  0  0  0  0  0  0
  -32.5040  -14.9920   19.3620 O   0  0  0  0  0  0  0  0  0  0  0  0
  -30.8640  -15.9280   20.5250 N   0  0  0  0  0  0  0  0  0  0  0  0
  -31.5470  -16.6430   20.7390 H   0  0  0  0  0  0  0  0  0  0  0  0
  -25.9630  -14.3030   20.1930 C   0  0  0  0  0  0  0  0  0  0  0  0
  -24.8660  -13.5960   20.6080 C   0  0  0  0  0  0  0  0  0  0  0  0
  -25.2460  -12.2190   20.5520 C   0  0  0  0  0  0  0  0  0  0  0  0
  -26.9390  -13.3550   19.9190 N   0  0  0  0  0  0  0  0  0  0  0  0
  -26.5140  -12.1000   20.1920 N   0  0  0  0  0  0  0  0  0  0  0  0
  -24.4590  -10.9990   20.7610 C   0  0  0  0  0  0  0  0  0  0  0  0
  -24.8300  -10.0420   21.7290 C   0  0  0  0  0  3  0  0  0  0  0  0
  -24.0500   -8.8820   21.9220 C   0  0  0  0  0  3  0  0  0  0  0  0
  -22.8870   -8.6710   21.1430 C   0  0  0  0  0  0  0  0  0  0  0  0
  -22.5370   -9.6170   20.1650 C   0  0  0  0  0  3  0  0  0  0  0  0
  -23.3170  -10.7690   19.9710 C   0  0  0  0  0  3  0  0  0  0  0  0
  -22.0840   -7.5610   21.2430 O   0  0  0  0  0  0  0  0  0  0  0  0
  -21.9090   -6.9050   22.4350 C   0  0  0  0  0  0  0  0  0  0  0  0
  -21.4020   -7.5600   23.5790 C   0  0  0  0  0  3  0  0  0  0  0  0
  -21.1760   -6.8310   24.7630 C   0  0  0  0  0  3  0  0  0  0  0  0
  -21.4470   -5.4490   24.8030 C   0  0  0  0  0  0  0  0  0  0  0  0
  -21.9470   -4.7950   23.6640 C   0  0  0  0  0  3  0  0  0  0  0  0
  -22.1760   -5.5220   22.4820 C   0  0  0  0  0  0  0  0  0  0  0  0
  -22.6390   -4.8840   21.3800 F   0  0  0  0  0  0  0  0  0  0  0  0
  -21.2250   -4.7470   25.9380 F   0  0  0  0  0  0  0  0  0  0  0  0
  -23.5110  -14.1510   20.9370 C   0  0  0  0  0  0  0  0  0  0  0  0
  -22.7770  -13.4870   21.8260 N   0  0  0  0  0  0  0  0  0  0  0  0
  -23.1110  -15.2020   20.4370 O   0  0  0  0  0  0  0  0  0  0  0  0
  -23.1090  -12.6320   22.2440 H   0  0  0  0  0  0  0  0  0  0  0  0
  -21.8690  -13.8430   22.0920 H   0  0  0  0  0  0  0  0  0  0  0  0
  -26.2070  -15.6600   19.9960 N   0  0  0  0  0  0  0  0  0  0  0  0
  -25.4520  -16.3340   20.0710 H   0  0  0  0  0  0  0  0  0  0  0  0
  -26.9430  -15.9600   19.3750 H   0  0  0  0  0  0  0  0  0  0  0  0
  -26.4080  -23.2150   21.5800 C   0  0  0  0  0  2  0  0  0  0  0  0
  -28.3240  -24.7590   21.3170 C   0  0  0  0  0  0  0  0  0  0  0  0
  -27.1730  -24.4120   21.9100 N   0  0  0  0  0  0  0  0  0  0  0  0
  -28.9110  -24.0270   20.5130 O   0  0  0  0  0  0  0  0  0  0  0  0
  -26.7760  -25.0510   22.5880 H   0  0  0  0  0  0  0  0  0  0  0  0
  -28.8720  -26.1580   21.6030 C   0  0  0  0  0  2  0  0  0  0  0  0
  -28.6800  -26.9570   20.4380 O   0  0  0  0  0  0  0  0  0  0  0  0
  -24.6440  -31.9760   23.4270 C   0  0  0  0  0  0  0  0  0  0  0  0
  -27.4920  -27.6380   20.4280 C   0  0  0  0  0  0  0  0  0  0  0  0
  -23.5190  -30.5440   21.7490 C   0  0  0  0  0  3  0  0  0  0  0  0
  -25.0520  -29.0400   20.3750 C   0  0  0  0  0  0  0  0  0  0  0  0
  -26.0350  -30.9750   21.6230 C   0  0  0  0  0  2  0  0  0  0  0  0
  -26.1730  -29.6050   20.9970 C   0  0  0  0  0  0  0  0  0  0  0  0
  -27.3970  -28.9080   21.0300 C   0  0  0  0  0  3  0  0  0  0  0  0
  -26.3650  -27.0760   19.7960 C   0  0  0  0  0  3  0  0  0  0  0  0
  -25.1390  -27.7700   19.7760 C   0  0  0  0  0  3  0  0  0  0  0  0
  -23.7840  -29.8630   20.3790 C   0  0  0  0  0  2  0  0  0  0  0  0
  -24.7470  -31.1810   22.3250 N   0  0  0  0  0  0  0  0  0  0  0  0
  -23.5440  -32.2220   23.9400 O   0  0  0  0  0  0  0  0  0  0  0  0
  -22.8660  -29.5110   22.6920 C   0  0  0  0  0  0  0  0  0  0  0  0
  -21.5470  -29.3080   22.5330 N   0  0  0  0  0  0  0  0  0  0  0  0
  -23.5420  -28.8940   23.5190 O   0  0  0  0  0  0  0  0  0  0  0  0
  -21.0670  -29.8610   21.8380 H   0  0  0  0  0  0  0  0  0  0  0  0
  -18.1790  -28.0820   22.9670 C   0  0  0  0  0  0  0  0  0  0  0  0
  -20.7310  -28.3470   23.2770 C   0  0  0  0  0  3  0  0  0  0  0  0
  -20.8520  -26.9280   22.6760 C   0  0  0  0  0  2  0  0  0  0  0  0
  -19.7610  -26.6170   21.6450 C   0  0  0  0  0  2  0  0  0  0  0  0
  -18.3730  -26.7440   22.2760 C   0  0  0  0  0  2  0  0  0  0  0  0
  -19.2870  -28.8430   23.4240 C   0  0  0  0  0  0  0  0  0  0  0  0
  -19.0550  -30.0980   24.0230 C   0  0  0  0  0  3  0  0  0  0  0  0
  -17.7460  -30.5940   24.1760 C   0  0  0  0  0  3  0  0  0  0  0  0
  -16.6520  -29.8290   23.7410 C   0  0  0  0  0  3  0  0  0  0  0  0
  -16.8690  -28.5750   23.1410 C   0  0  0  0  0  3  0  0  0  0  0  0
  -25.9000  -32.6320   24.0820 C   0  0  0  0  0  3  0  0  0  0  0  0
  -26.3580  -31.9140   25.4100 C   0  0  1  0  0  0  0  0  0  0  0  0
  -25.2150  -31.7050   26.4290 C   0  0  0  0  0  1  0  0  0  0  0  0
  -26.9700  -30.5280   25.0960 C   0  0  0  0  0  1  0  0  0  0  0  0
  -27.4690  -32.7420   26.0970 C   0  0  0  0  0  1  0  0  0  0  0  0
  -25.5770  -34.0430   24.3340 N   0  0  0  0  0  0  0  0  0  0  0  0
  -25.9350  -35.0590   23.5370 C   0  0  0  0  0  0  0  0  0  0  0  0
  -26.6460  -34.9080   22.5400 O   0  0  0  0  0  0  0  0  0  0  0  0
  -24.9480  -34.2310   25.1010 H   0  0  0  0  0  0  0  0  0  0  0  0
  -24.2080  -36.8150   23.0430 C   0  0  0  0  0  1  0  0  0  0  0  0
  -25.4270  -36.4630   23.9090 C   0  0  0  0  0  3  0  0  0  0  0  0
  -27.5300  -37.4070   24.7570 C   0  0  0  0  0  1  0  0  0  0  0  0
  -26.4570  -37.5160   23.7720 N   0  0  0  0  0  0  0  0  0  0  0  0
  -26.0410  -38.4400   23.8590 H   0  0  0  0  0  0  0  0  0  0  0  0
  1 49  1  0
  2  1  1  0
  3  4  1  0
  3  2  1  0
  5  7  1  0
  5  4  1  0
  6 10  1  0
  6  8  2  0
  7  6  1  0
  9  7  1  0
 10 19  1  0
 11 19  1  0
 12 17  1  0
 13 14  1  0
 13 12  1  0
 15 14  1  0
 15 24  1  0
 15 16  1  0
 17 11  1  0
 17 16  1  0
 18 11  2  0
 19 20  1  0
 21 22  2  0
 22 41  1  0
 23 22  1  0
 23 26  1  0
 24 25  1  0
 24 21  1  0
 25 23  2  0
 26 27  1  0
 27 28  2  0
 29 32  1  0
 29 28  1  0
 30 29  2  0
 31 30  1  0
 31 26  2  0
 32 33  1  0
 33 38  2  0
 33 34  1  0
 34 35  2  0
 35 36  1  0
 36 40  1  0
 37 36  2  0
 38 37  1  0
 39 38  1  0
 41 42  1  0
 42 45  1  0
 42 44  1  0
 43 41  2  0
 46 47  1  0
 46 21  1  0
 48 46  1  0
 49 51  1  0
 50 54  1  0
 50 51  1  0
 51 53  1  0
 52 50  2  0
 55 54  1  0
 56 67  2  0
 57 55  1  0
 57 62  1  0
 58 66  1  0
 58 68  1  0
 59 65  1  0
 59 61  1  0
 60 66  1  0
 61 62  2  0
 61 60  1  0
 63 57  2  0
 64 63  1  0
 64 59  2  0
 65 58  1  0
 66 56  1  0
 68 70  2  0
 69 68  1  0
 71 69  1  0
 72 81  2  0
 72 77  1  0
 73 69  1  0
 73 77  1  0
 74 73  1  0
 75 76  1  0
 75 74  1  0
 76 72  1  0
 77 78  2  0
 78 79  1  0
 80 79  2  0
 81 80  1  0
 82 56  1  0
 82 87  1  0
 82 83  1  0
 83 86  1  1
 83 84  1  0
 85 83  1  0
 87 90  1  0
 88 92  1  0
 88 87  1  0
 89 88  2  0
 92 91  1  0
 94 95  1  0
 94 92  1  0
 94 93  1  0
M  ISO  4  11 100  19 100  54 101  55 101
M  END
>  <TORSDO>  (17) 
F 25

>  <SCORE>  (17) 
-10.731

>  <name>  (17) 
16

>  <ligand_id>  (17) 
16

>  <original_smiles>  (17) 
[H]c1c([H])c([H])c2c(c1[H])C([H])([H])C([H])([H])C([H])([H])C2([H])N([H])C(=O)C1([H])N(C(=O)C([H])(N([H])C(=O)C([H])(N([H])C([H])([H])[H])C([H])([H])[H])C(C([H])([H])[H])(C([H])([H])[H])C([H])([H])[H])C([H])([H])c2c([H])c(OC([H])([H])C(=O)N([H])C([H])([H])C([H])([H])C([H])([H])C([H])([H])C([H])([H])C([H])([H])N([H])C(=O)C([H])([H])N([H])C(=O)N3C([H])([H])C([H])([H])C([H])([H])C([H])(n4nc(-c5c([H])c([H])c(Oc6c([H])c([H])c(F)c([H])c6F)c([H])c5[H])c(C(=O)N([H])[H])c4N([H])[H])C3([H])[H])c([H])c([H])c2C1([H])[H]

>  <smiles>  (17) 
[H]c1c([H])c([H])c2c(c1[H])C([H])([H])C([H])([H])C([H])([H])C2([H])N([H])C(=O)C1([H])N(C(=O)C([H])(N([H])C(=O)C([H])(N([H])C([H])([H])[H])C([H])([H])[H])C(C([H])([H])[H])(C([H])([H])[H])C([H])([H])[H])C([H])([H])c2c([H])c(OC([H])([H])C(=O)N([H])C([H])([H])C([H])([H])C([H])([H])C([H])([H])C([H])([H])C([H])([H])N([H])C(=O)C([H])([H])N([H])C(=O)N3C([H])([H])C([H])([H])C([H])([H])C([H])(n4nc(-c5c([H])c([H])c(Oc6c([H])c([H])c(F)c([H])c6F)c([H])c5[H])c(C(=O)N([H])[H])c4N([H])[H])C3([H])[H])c([H])c([H])c2C1([H])[H]

$$$$
17:0:0
     RDKit          3D

 91 98  0  0  1  0  0  0  0  0999 V2000
  -29.3540  -21.5570   21.9640 O   0  0  0  0  0  0  0  0  0  0  0  0
  -28.3010  -22.4280   21.5720 C   0  0  0  0  0  2  0  0  0  0  0  0
  -28.8520  -23.8530   21.4430 C   0  0  0  0  0  2  0  0  0  0  0  0
  -27.9050  -24.7920   20.6790 C   0  0  0  0  0  2  0  0  0  0  0  0
  -28.4710  -26.2140   20.5160 C   0  0  0  0  0  2  0  0  0  0  0  0
  -27.9170  -26.8710   19.3810 O   0  0  0  0  0  0  0  0  0  0  0  0
  -24.5530  -31.9130   23.1330 C   0  0  0  0  0  0  0  0  0  0  0  0
  -26.7740  -27.5920   19.6110 C   0  0  0  0  0  0  0  0  0  0  0  0
  -23.1550  -30.6140   21.5560 C   0  0  0  0  0  3  0  0  0  0  0  0
  -24.4240  -29.1110   19.9340 C   0  0  0  0  0  0  0  0  0  0  0  0
  -25.6520  -30.9360   21.1250 C   0  0  0  0  0  2  0  0  0  0  0  0
  -25.6430  -29.5930   20.4290 C   0  0  0  0  0  0  0  0  0  0  0  0
  -26.8240  -28.8360   20.2730 C   0  0  0  0  0  3  0  0  0  0  0  0
  -25.5450  -27.1170   19.1130 C   0  0  0  0  0  3  0  0  0  0  0  0
  -24.3670  -27.8680   19.2780 C   0  0  0  0  0  3  0  0  0  0  0  0
  -23.2100  -29.9900   20.1360 C   0  0  0  0  0  2  0  0  0  0  0  0
  -24.4770  -31.1660   21.9960 N   0  0  0  0  0  0  0  0  0  0  0  0
  -23.5370  -32.1820   23.7890 O   0  0  0  0  0  0  0  0  0  0  0  0
  -22.5770  -29.5630   22.5310 C   0  0  0  0  0  0  0  0  0  0  0  0
  -21.2560  -29.3390   22.4540 N   0  0  0  0  0  0  0  0  0  0  0  0
  -23.3130  -28.9500   23.3100 O   0  0  0  0  0  0  0  0  0  0  0  0
  -20.7210  -29.8870   21.7940 H   0  0  0  0  0  0  0  0  0  0  0  0
  -17.9640  -27.9430   22.9700 C   0  0  0  0  0  0  0  0  0  0  0  0
  -20.4980  -28.3690   23.2430 C   0  0  0  0  0  3  0  0  0  0  0  0
  -20.6940  -26.9350   22.7000 C   0  0  0  0  0  2  0  0  0  0  0  0
  -19.6190  -26.5190   21.6910 C   0  0  0  0  0  2  0  0  0  0  0  0
  -18.2280  -26.5920   22.3290 C   0  0  0  0  0  2  0  0  0  0  0  0
  -19.0310  -28.7840   23.3860 C   0  0  0  0  0  0  0  0  0  0  0  0
  -18.7300  -30.0460   23.9440 C   0  0  0  0  0  3  0  0  0  0  0  0
  -17.3960  -30.4670   24.0950 C   0  0  0  0  0  3  0  0  0  0  0  0
  -16.3440  -29.6240   23.6960 C   0  0  0  0  0  3  0  0  0  0  0  0
  -16.6290  -28.3640   23.1410 C   0  0  0  0  0  3  0  0  0  0  0  0
  -25.9100  -32.4840   23.6480 C   0  0  0  0  0  3  0  0  0  0  0  0
  -25.6720  -33.8680   24.0780 N   0  0  0  0  0  0  0  0  0  0  0  0
  -26.0160  -34.9520   23.3690 C   0  0  0  0  0  0  0  0  0  0  0  0
  -26.6380  -34.8890   22.3050 O   0  0  0  0  0  0  0  0  0  0  0  0
  -25.1170  -33.9940   24.9110 H   0  0  0  0  0  0  0  0  0  0  0  0
  -24.3630  -36.8370   23.1770 C   0  0  0  0  0  1  0  0  0  0  0  0
  -25.6010  -36.3260   23.9290 C   0  0  0  0  0  3  0  0  0  0  0  0
  -27.7950  -37.0530   24.7590 C   0  0  0  0  0  1  0  0  0  0  0  0
  -26.6780  -37.3380   23.8620 N   0  0  0  0  0  0  0  0  0  0  0  0
  -26.3190  -38.2620   24.0860 H   0  0  0  0  0  0  0  0  0  0  0  0
  -26.5380  -31.6350   24.8210 C   0  0  1  0  0  0  0  0  0  0  0  0
  -25.5530  -31.3500   25.9780 C   0  0  0  0  0  1  0  0  0  0  0  0
  -27.0540  -30.2750   24.2930 C   0  0  0  0  0  1  0  0  0  0  0  0
  -27.7640  -32.3750   25.4060 C   0  0  0  0  0  1  0  0  0  0  0  0
  -28.8890  -20.2750   22.3660 C   0  0  0  0  0  2  0  0  0  0  0  0
  -30.0860  -19.3670   22.6870 C   0  0  0  0  0  2  0  0  0  0  0  0
  -31.6030  -17.8540   21.4390 C   0  0  0  0  0  0  0  0  0  0  0  0
  -30.4850  -18.5790   21.5240 N   0  0  0  0  0  0  0  0  0  0  0  0
  -32.4810  -17.8750   22.3050 O   0  0  0  0  0  0  0  0  0  0  0  0
  -29.8260  -18.5250   20.7590 H   0  0  0  0  0  0  0  0  0  0  0  0
  -31.7480  -16.9510   20.2120 C   0  0  0  0  0  2  0  0  0  0  0  0
  -32.8680  -14.8710   19.6200 C   0  0  0  0  0  0  0  0  0  0  0  0
  -32.1980  -12.7030   18.6400 C   0  0  0  0  0  2  0  0  0  0  0  0
  -31.2190  -12.8880   17.4660 C   0  0  0  0  0  2  0  0  0  0  0  0
  -29.7670  -12.9870   17.9700 C   0  0  0  0  0  2  0  0  0  0  0  0
  -29.6110  -14.0090   19.1260 C   0  0  0  0  0  3  0  0  0  0  0  0
  -30.6780  -13.7610   20.2150 C   0  0  0  0  0  2  0  0  0  0  0  0
  -32.0070  -13.8200   19.5780 N   0  0  0  0  0  0  0  0  0  0  0  0
  -33.8980  -14.9360   18.9460 O   0  0  0  0  0  0  0  0  0  0  0  0
  -32.5930  -15.8030   20.5330 N   0  0  0  0  0  0  0  0  0  0  0  0
  -33.4170  -16.1470   21.0090 H   0  0  0  0  0  0  0  0  0  0  0  0
  -27.4200  -15.0430   20.0030 C   0  0  0  0  0  0  0  0  0  0  0  0
  -26.2460  -14.4760   20.4190 C   0  0  0  0  0  0  0  0  0  0  0  0
  -26.4320  -13.0630   20.3170 C   0  0  0  0  0  0  0  0  0  0  0  0
  -28.2590  -13.9860   19.6800 N   0  0  0  0  0  0  0  0  0  0  0  0
  -27.6680  -12.7880   19.9230 N   0  0  0  0  0  0  0  0  0  0  0  0
  -25.4870  -11.9560   20.5140 C   0  0  0  0  0  0  0  0  0  0  0  0
  -25.7440  -10.9230   21.4430 C   0  0  0  0  0  3  0  0  0  0  0  0
  -24.8120   -9.8790   21.6270 C   0  0  0  0  0  3  0  0  0  0  0  0
  -23.6070   -9.8640   20.8850 C   0  0  0  0  0  0  0  0  0  0  0  0
  -23.3670  -10.8820   19.9460 C   0  0  0  0  0  3  0  0  0  0  0  0
  -24.2990  -11.9170   19.7590 C   0  0  0  0  0  3  0  0  0  0  0  0
  -22.6560   -8.8780   20.9790 O   0  0  0  0  0  0  0  0  0  0  0  0
  -22.4130   -8.2240   22.1600 C   0  0  0  0  0  0  0  0  0  0  0  0
  -22.0430   -8.9160   23.3340 C   0  0  0  0  0  3  0  0  0  0  0  0
  -21.7350   -8.1990   24.5080 C   0  0  0  0  0  3  0  0  0  0  0  0
  -21.7860   -6.7930   24.5080 C   0  0  0  0  0  0  0  0  0  0  0  0
  -22.1490   -6.1010   23.3380 C   0  0  0  0  0  3  0  0  0  0  0  0
  -22.4580   -6.8140   22.1670 C   0  0  0  0  0  0  0  0  0  0  0  0
  -22.7860   -6.1420   21.0380 F   0  0  0  0  0  0  0  0  0  0  0  0
  -21.4830   -6.1030   25.6320 F   0  0  0  0  0  0  0  0  0  0  0  0
  -24.9860  -15.2000   20.7970 C   0  0  0  0  0  0  0  0  0  0  0  0
  -24.2020  -14.6330   21.7090 N   0  0  0  0  0  0  0  0  0  0  0  0
  -24.7130  -16.3000   20.3200 O   0  0  0  0  0  0  0  0  0  0  0  0
  -24.4360  -13.7390   22.1150 H   0  0  0  0  0  0  0  0  0  0  0  0
  -23.3570  -15.0990   22.0050 H   0  0  0  0  0  0  0  0  0  0  0  0
  -27.8370  -16.3620   19.8510 N   0  0  0  0  0  0  0  0  0  0  0  0
  -27.2080  -17.1430   20.0060 H   0  0  0  0  0  0  0  0  0  0  0  0
  -28.7120  -16.6370   19.4250 H   0  0  0  0  0  0  0  0  0  0  0  0
  1 47  1  0
  2  1  1  0
  3  2  1  0
  4  3  1  0
  5  4  1  0
  6  8  1  0
  6  5  1  0
  7 18  2  0
  8 13  1  0
  9 17  1  0
  9 19  1  0
 10 16  1  0
 10 12  1  0
 11 17  1  0
 12 11  1  0
 13 12  2  0
 14 15  1  0
 14  8  2  0
 15 10  2  0
 16  9  1  0
 17  7  1  0
 19 21  2  0
 20 19  1  0
 22 20  1  0
 23 32  2  0
 23 28  1  0
 24 20  1  0
 24 28  1  0
 25 24  1  0
 26 27  1  0
 26 25  1  0
 27 23  1  0
 28 29  2  0
 29 30  1  0
 31 30  2  0
 32 31  1  0
 33  7  1  0
 33 34  1  0
 33 43  1  0
 34 37  1  0
 35 39  1  0
 35 34  1  0
 36 35  2  0
 39 38  1  0
 41 39  1  0
 41 42  1  0
 41 40  1  0
 43 46  1  1
 43 44  1  0
 45 43  1  0
 47 48  1  0
 49 50  1  0
 49 51  2  0
 50 48  1  0
 52 50  1  0
 53 62  1  0
 53 49  1  0
 54 62  1  0
 55 60  1  0
 56 57  1  0
 56 55  1  0
 58 57  1  0
 58 67  1  0
 58 59  1  0
 60 54  1  0
 60 59  1  0
 61 54  2  0
 62 63  1  0
 64 65  2  0
 65 84  1  0
 66 65  1  0
 66 69  1  0
 67 68  1  0
 67 64  1  0
 68 66  2  0
 69 70  1  0
 70 71  2  0
 72 75  1  0
 72 71  1  0
 73 72  2  0
 74 73  1  0
 74 69  2  0
 75 76  1  0
 76 81  2  0
 76 77  1  0
 77 78  2  0
 78 79  1  0
 79 83  1  0
 80 79  2  0
 81 80  1  0
 82 81  1  0
 84 85  1  0
 85 88  1  0
 85 87  1  0
 86 84  2  0
 89 64  1  0
 89 90  1  0
 91 89  1  0
M  ISO  4   5 101   6 101  54 100  62 100
M  END
>  <TORSDO>  (18) 
F 24

>  <SCORE>  (18) 
-6.164

>  <name>  (18) 
17

>  <ligand_id>  (18) 
17

>  <original_smiles>  (18) 
[H]c1c([H])c([H])c2c(c1[H])C([H])([H])C([H])([H])C([H])([H])C2([H])N([H])C(=O)C1([H])N(C(=O)C([H])(N([H])C(=O)C([H])(N([H])C([H])([H])[H])C([H])([H])[H])C(C([H])([H])[H])(C([H])([H])[H])C([H])([H])[H])C([H])([H])c2c([H])c(OC([H])([H])C([H])([H])C([H])([H])C([H])([H])OC([H])([H])C([H])([H])N([H])C(=O)C([H])([H])N([H])C(=O)N3C([H])([H])C([H])([H])C([H])([H])C([H])(n4nc(-c5c([H])c([H])c(Oc6c([H])c([H])c(F)c([H])c6F)c([H])c5[H])c(C(=O)N([H])[H])c4N([H])[H])C3([H])[H])c([H])c([H])c2C1([H])[H]

>  <smiles>  (18) 
[H]c1c([H])c([H])c2c(c1[H])C([H])([H])C([H])([H])C([H])([H])C2([H])N([H])C(=O)C1([H])N(C(=O)C([H])(N([H])C(=O)C([H])(N([H])C([H])([H])[H])C([H])([H])[H])C(C([H])([H])[H])(C([H])([H])[H])C([H])([H])[H])C([H])([H])c2c([H])c(OC([H])([H])C([H])([H])C([H])([H])C([H])([H])OC([H])([H])C([H])([H])N([H])C(=O)C([H])([H])N([H])C(=O)N3C([H])([H])C([H])([H])C([H])([H])C([H])(n4nc(-c5c([H])c([H])c(Oc6c([H])c([H])c(F)c([H])c6F)c([H])c5[H])c(C(=O)N([H])[H])c4N([H])[H])C3([H])[H])c([H])c([H])c2C1([H])[H]

$$$$
18:0:0
     RDKit          3D

103110  0  0  1  0  0  0  0  0999 V2000
  -23.8970  -28.3790   25.0500 C   0  0  0  0  0  0  0  0  0  0  0  0
  -24.3470  -27.0380   24.7510 N   0  0  0  0  0  0  0  0  0  0  0  0
  -24.3030  -28.7200   26.1520 O   0  0  0  0  0  0  0  0  0  0  0  0
  -23.9450  -26.7120   23.8800 H   0  0  0  0  0  0  0  0  0  0  0  0
  -25.7590  -26.3270   24.9910 C   0  0  0  0  0  2  0  0  0  0  0  0
  -26.4180  -24.9640   24.1930 C   0  0  0  0  0  3  0  0  0  0  0  0
  -28.0450  -24.7330   23.7020 C   0  0  0  0  0  3  0  0  0  0  0  0
  -28.8060  -23.3820   22.9690 C   0  0  0  0  0  3  0  0  0  0  0  0
  -30.2940  -23.3740   22.1230 C   0  0  0  0  0  3  0  0  0  0  0  0
  -32.0720  -21.9320   20.5210 C   0  0  0  0  0  0  0  0  0  0  0  0
  -31.1800  -22.1320   21.6280 N   0  0  0  0  0  0  0  0  0  0  0  0
  -32.0080  -22.7390   19.5950 O   0  0  0  0  0  0  0  0  0  0  0  0
  -31.2740  -21.4120   22.3330 H   0  0  0  0  0  0  0  0  0  0  0  0
  -33.2690  -20.7730   20.3610 C   0  0  0  0  0  2  0  0  0  0  0  0
  -35.3840  -19.8600   18.7010 C   0  0  0  0  0  0  0  0  0  0  0  0
  -36.9650  -19.4270   16.7170 C   0  0  0  0  0  2  0  0  0  0  0  0
  -37.1360  -20.6770   15.8110 C   0  0  0  0  0  2  0  0  0  0  0  0
  -35.9520  -20.8400   14.8360 C   0  0  0  0  0  2  0  0  0  0  0  0
  -34.5910  -20.6040   15.5410 C   0  0  0  0  0  3  0  0  0  0  0  0
  -34.5950  -19.3080   16.3690 C   0  0  0  0  0  2  0  0  0  0  0  0
  -35.6270  -19.4820   17.3840 N   0  0  0  0  0  0  0  0  0  0  0  0
  -36.3550  -19.8010   19.4750 O   0  0  0  0  0  0  0  0  0  0  0  0
  -34.0870  -20.3740   19.0490 N   0  0  0  0  0  0  0  0  0  0  0  0
  -33.4830  -20.4030   18.2420 H   0  0  0  0  0  0  0  0  0  0  0  0
  -32.2420  -21.2400   14.7750 C   0  0  0  0  0  0  0  0  0  0  0  0
  -31.5660  -21.0160   13.6130 C   0  0  0  0  0  0  0  0  0  0  0  0
  -32.4480  -20.2550   12.7810 C   0  0  0  0  0  0  0  0  0  0  0  0
  -33.4730  -20.6290   14.6190 N   0  0  0  0  0  0  0  0  0  0  0  0
  -33.5720  -19.9820   13.4310 N   0  0  0  0  0  0  0  0  0  0  0  0
  -32.3130  -19.8290   11.3850 C   0  0  0  0  0  0  0  0  0  0  0  0
  -32.4900  -18.4800   11.0020 C   0  0  0  0  0  3  0  0  0  0  0  0
  -32.3340  -18.0940    9.6530 C   0  0  0  0  0  3  0  0  0  0  0  0
  -31.9970  -19.0590    8.6740 C   0  0  0  0  0  0  0  0  0  0  0  0
  -31.8460  -20.4030    9.0570 C   0  0  0  0  0  3  0  0  0  0  0  0
  -32.0060  -20.7850   10.3980 C   0  0  0  0  0  3  0  0  0  0  0  0
  -31.8500  -18.7800    7.3370 O   0  0  0  0  0  0  0  0  0  0  0  0
  -31.4960  -17.5280    6.8970 C   0  0  0  0  0  0  0  0  0  0  0  0
  -30.3260  -16.8810    7.3490 C   0  0  0  0  0  3  0  0  0  0  0  0
  -29.9670  -15.6260    6.8190 C   0  0  0  0  0  3  0  0  0  0  0  0
  -30.7690  -15.0220    5.8320 C   0  0  0  0  0  0  0  0  0  0  0  0
  -31.9320  -15.6680    5.3780 C   0  0  0  0  0  3  0  0  0  0  0  0
  -32.2930  -16.9180    5.9070 C   0  0  0  0  0  0  0  0  0  0  0  0
  -33.4030  -17.5470    5.4500 F   0  0  0  0  0  0  0  0  0  0  0  0
  -30.4210  -13.8200    5.3170 F   0  0  0  0  0  0  0  0  0  0  0  0
  -30.2150  -21.5570   13.2480 C   0  0  0  0  0  0  0  0  0  0  0  0
  -29.4520  -20.8220   12.4510 N   0  0  0  0  0  0  0  0  0  0  0  0
  -29.8120  -22.6250   13.7140 O   0  0  0  0  0  0  0  0  0  0  0  0
  -29.7770  -19.9360   12.0890 H   0  0  0  0  0  0  0  0  0  0  0  0
  -28.5270  -21.1420   12.2040 H   0  0  0  0  0  0  0  0  0  0  0  0
  -31.9260  -21.9280   15.9460 N   0  0  0  0  0  0  0  0  0  0  0  0
  -31.0670  -22.4590   16.0310 H   0  0  0  0  0  0  0  0  0  0  0  0
  -32.5690  -22.1000   16.7080 H   0  0  0  0  0  0  0  0  0  0  0  0
  -22.7520  -29.4750   24.3070 C   0  0  0  0  0  3  0  0  0  0  0  0
  -22.2750  -30.4950   22.8550 C   0  0  0  0  0  3  0  0  0  0  0  0
  -22.6870  -31.2000   21.2460 C   0  0  0  0  0  2  0  0  0  0  0  0
  -24.0100  -31.3500   20.0690 C   0  0  0  0  0  2  0  0  0  0  0  0
  -24.5290  -30.5090   18.6300 C   0  0  0  0  0  2  0  0  0  0  0  0
  -25.8950  -29.6930   18.3990 N   0  0  0  0  0  4  0  0  0  0  0  0
  -25.9580  -29.1460   19.2390 H   0  0  0  0  0  0  0  0  0  0  0  0
  -26.6420  -30.3760   18.4550 H   0  0  0  0  0  0  0  0  0  0  0  0
  -26.3170  -28.6200   17.2650 C   0  0  0  0  0  2  0  0  0  0  0  0
  -27.7710  -27.6680   17.2360 C   0  0  0  0  0  2  0  0  0  0  0  0
  -28.1610  -26.1090   17.1920 O   0  0  0  0  0  0  0  0  0  0  0  0
  -26.6360  -28.9210   22.6050 C   0  0  0  0  0  0  0  0  0  0  0  0
  -27.6750  -25.2560   18.1200 C   0  0  0  0  0  3  0  0  0  0  0  0
  -24.6470  -27.9000   20.9750 C   0  0  0  0  0  3  0  0  0  0  0  0
  -25.5600  -26.5130   19.1610 C   0  0  0  0  0  0  0  0  0  0  0  0
  -27.1990  -27.7500   20.6780 C   0  0  0  0  0  2  0  0  0  0  0  0
  -26.8380  -26.6860   19.7240 C   0  0  0  0  0  0  0  0  0  0  0  0
  -27.8860  -25.8760   19.3270 C   0  0  0  0  0  2  0  0  0  0  0  0
  -26.4030  -24.7800   17.7580 C   0  0  0  0  0  3  0  0  0  0  0  0
  -25.3030  -25.4790   18.2570 C   0  0  0  0  0  3  0  0  0  0  0  0
  -24.4800  -27.4290   19.5320 C   0  0  0  0  0  2  0  0  0  0  0  0
  -26.1160  -28.2510   21.4800 N   0  0  0  0  0  0  0  0  0  0  0  0
  -26.0230  -29.3590   23.5470 O   0  0  0  0  0  0  0  0  0  0  0  0
  -23.9290  -26.7680   21.6400 C   0  0  0  0  0  0  0  0  0  0  0  0
  -22.5910  -26.6360   21.6100 N   0  0  0  0  0  0  0  0  0  0  0  0
  -24.6400  -25.9260   22.0860 O   0  0  0  0  0  0  0  0  0  0  0  0
  -22.0510  -27.3240   21.1080 H   0  0  0  0  0  0  0  0  0  0  0  0
  -19.3610  -25.1870   21.9040 C   0  0  0  0  0  0  0  0  0  0  0  0
  -21.8120  -25.7370   22.4690 C   0  0  0  0  0  3  0  0  0  0  0  0
  -22.1140  -24.2790   22.1040 C   0  0  0  0  0  2  0  0  0  0  0  0
  -21.2610  -23.8040   20.9370 C   0  0  0  0  0  2  0  0  0  0  0  0
  -19.7860  -23.8400   21.3350 C   0  0  0  0  0  2  0  0  0  0  0  0
  -20.3020  -26.0750   22.4800 C   0  0  0  0  0  0  0  0  0  0  0  0
  -19.7850  -27.2410   23.1040 C   0  0  0  0  0  3  0  0  0  0  0  0
  -18.4500  -27.6420   22.9550 C   0  0  0  0  0  3  0  0  0  0  0  0
  -17.5450  -26.7820   22.3220 C   0  0  0  0  0  3  0  0  0  0  0  0
  -17.9940  -25.5340   21.8580 C   0  0  0  0  0  3  0  0  0  0  0  0
  -28.1060  -29.3460   22.8730 C   0  0  0  0  0  3  0  0  0  0  0  0
  -28.9040  -28.1820   23.5840 C   0  0  1  0  0  0  0  0  0  0  0  0
  -28.3260  -27.6650   24.9240 C   0  0  0  0  0  1  0  0  0  0  0  0
  -29.1330  -26.9570   22.6720 C   0  0  0  0  0  1  0  0  0  0  0  0
  -30.3050  -28.7180   23.9420 C   0  0  0  0  0  1  0  0  0  0  0  0
  -28.0660  -30.5010   23.8180 N   0  0  0  0  0  0  0  0  0  0  0  0
  -28.2010  -31.7960   23.5260 C   0  0  0  0  0  0  0  0  0  0  0  0
  -28.5000  -32.1790   22.3960 O   0  0  0  0  0  0  0  0  0  0  0  0
  -27.7190  -30.2730   24.7390 H   0  0  0  0  0  0  0  0  0  0  0  0
  -26.6640  -33.5730   24.4760 C   0  0  0  0  0  1  0  0  0  0  0  0
  -27.9930  -32.8230   24.6630 C   0  0  0  0  0  3  0  0  0  0  0  0
  -30.3470  -33.2100   25.2210 C   0  0  0  0  0  1  0  0  0  0  0  0
  -29.0960  -33.8020   24.7610 N   0  0  0  0  0  0  0  0  0  0  0  0
  -28.8530  -34.5700   25.3820 H   0  0  0  0  0  0  0  0  0  0  0  0
  1  3  2  0
  2  5  1  0
  2  1  1  0
  4  2  1  0
  6  5  1  0
  7  6  2  0
  8  7  1  0
  9  8  2  0
 10 11  1  0
 11  9  1  0
 11 13  1  0
 12 10  2  0
 14 10  1  0
 15 23  1  0
 15 22  2  0
 16 21  1  0
 17 16  1  0
 18 19  1  0
 18 17  1  0
 19 28  1  0
 19 20  1  0
 20 21  1  0
 21 15  1  0
 23 14  1  0
 24 23  1  0
 25 50  1  0
 26 25  2  0
 27 29  2  0
 27 26  1  0
 28 25  1  0
 29 28  1  0
 30 27  1  0
 31 30  1  0
 32 31  2  0
 33 34  2  0
 33 32  1  0
 34 35  1  0
 35 30  2  0
 36 33  1  0
 37 36  1  0
 37 38  1  0
 39 38  2  0
 40 39  1  0
 41 40  2  0
 41 42  1  0
 42 37  2  0
 43 42  1  0
 44 40  1  0
 45 26  1  0
 45 47  2  0
 46 45  1  0
 48 46  1  0
 49 46  1  0
 50 51  1  0
 50 52  1  0
 53  1  1  0
 54 53  2  0
 55 54  1  0
 56 55  1  0
 57 56  1  0
 58 60  1  0
 58 57  1  0
 58 59  1  0
 61 58  1  0
 62 61  1  0
 63 62  1  0
 64 75  2  0
 65 63  1  0
 65 70  1  0
 66 74  1  0
 66 76  1  0
 67 73  1  0
 67 69  2  0
 68 74  1  0
 69 68  1  0
 70 69  1  0
 71 65  1  0
 71 72  2  0
 72 67  1  0
 73 66  1  0
 74 64  1  0
 76 78  2  0
 77 76  1  0
 79 77  1  0
 80 85  1  0
 81 77  1  0
 81 85  1  0
 82 81  1  0
 83 84  1  0
 83 82  1  0
 84 80  1  0
 85 86  2  0
 87 86  1  0
 88 87  2  0
 89 80  2  0
 89 88  1  0
 90 64  1  0
 90 91  1  0
 90 95  1  0
 91 94  1  1
 91 92  1  0
 93 91  1  0
 95 98  1  0
 96 95  1  0
 96100  1  0
 97 96  2  0
100 99  1  0
100102  1  0
102101  1  0
102103  1  0
M  ISO  4  15 100  23 100  62 101  63 101
M  END
>  <TORSDO>  (19) 
F 31

>  <SCORE>  (19) 
0.095

>  <name>  (19) 
18

>  <ligand_id>  (19) 
18

>  <original_smiles>  (19) 
[H]c1c([H])c([H])c2c(c1[H])C([H])([H])C([H])([H])C([H])([H])C2([H])N([H])C(=O)C1([H])N(C(=O)C([H])(N([H])C(=O)C([H])(N([H])C([H])([H])[H])C([H])([H])[H])C(C([H])([H])[H])(C([H])([H])[H])C([H])([H])[H])C([H])([H])c2c([H])c(OC([H])([H])C([H])([H])[N+]([H])([H])C([H])([H])C([H])([H])C([H])([H])C([H])([H])C([H])([H])C(=O)N([H])C([H])([H])C([H])([H])C([H])([H])C([H])([H])C([H])([H])N([H])C(=O)C([H])([H])N([H])C(=O)N3C([H])([H])C([H])([H])C([H])([H])C([H])(n4nc(-c5c([H])c([H])c(Oc6c([H])c([H])c(F)c([H])c6F)c([H])c5[H])c(C(=O)N([H])[H])c4N([H])[H])C3([H])[H])c([H])c([H])c2C1([H])[H]

>  <smiles>  (19) 
[H]c1c([H])c([H])c2c(c1[H])C([H])([H])C([H])([H])C([H])([H])C2([H])N([H])C(=O)C1([H])N(C(=O)C([H])(N([H])C(=O)C([H])(N([H])C([H])([H])[H])C([H])([H])[H])C(C([H])([H])[H])(C([H])([H])[H])C([H])([H])[H])C([H])([H])c2c([H])c(OC([H])([H])C([H])([H])[N+]([H])([H])C([H])([H])C([H])([H])C([H])([H])C([H])([H])C([H])([H])C(=O)N([H])C([H])([H])C([H])([H])C([H])([H])C([H])([H])C([H])([H])N([H])C(=O)C([H])([H])N([H])C(=O)N3C([H])([H])C([H])([H])C([H])([H])C([H])(n4nc(-c5c([H])c([H])c(Oc6c([H])c([H])c(F)c([H])c6F)c([H])c5[H])c(C(=O)N([H])[H])c4N([H])[H])C3([H])[H])c([H])c([H])c2C1([H])[H]

$$$$
19:0:0
     RDKit          3D

 96 98  0  0  1  0  0  0  0  0999 V2000
  -20.0790  -27.6580   20.8560 C   0  0  0  0  0  2  0  0  0  0  0  0
  -20.9630  -28.4670   20.0070 N   0  0  0  0  0  0  0  0  0  0  0  0
  -19.0080  -28.2920   20.8440 O   0  0  0  0  0  0  0  0  0  0  0  0
  -21.7050  -28.7000   20.6560 H   0  0  0  0  0  0  0  0  0  0  0  0
  -20.6390  -25.1800   21.9820 C   0  0  0  0  0  3  0  0  0  0  0  0
  -22.1910  -24.1560   21.6790 N   0  0  0  0  0  4  0  0  0  0  0  0
  -22.0280  -23.8640   20.7290 H   0  0  0  0  0  0  0  0  0  0  0  0
  -22.0270  -23.3220   22.2160 H   0  0  0  0  0  0  0  0  0  0  0  0
  -23.9990  -24.2460   21.6500 C   0  0  0  0  0  1  0  0  0  0  0  0
  -25.5640  -23.2660   20.9250 C   0  0  0  0  0 15  0  0  0  0  0  0
  -27.5470  -23.1840   20.9870 C   0  0  0  0  0 15  0  0  0  0  0  0
  -29.1520  -22.3540   20.1490 C   0  0  0  0  0 15  0  0  0  0  0  0
  -31.1190  -22.0840   20.3490 C   0  0  0  0  0  1  0  0  0  0  0  0
  -34.1210  -21.0220   19.4550 C   0  0  0  0  0  0  0  0  0  0  0  0
  -36.3710  -20.8810   17.9530 C   0  0  0  0  0  2  0  0  0  0  0  0
  -36.5960  -22.1740   17.1040 C   0  0  0  0  0  2  0  0  0  0  0  0
  -35.6030  -22.2630   15.9280 C   0  0  0  0  0  2  0  0  0  0  0  0
  -34.2150  -21.7440   16.3620 C   0  0  0  0  0  3  0  0  0  0  0  0
  -34.2720  -20.3730   17.0250 C   0  0  0  0  0  2  0  0  0  0  0  0
  -34.8800  -20.6940   18.2770 N   0  0  0  0  0  0  0  0  0  0  0  0
  -34.9610  -20.9820   20.3990 O   0  0  0  0  0  0  0  0  0  0  0  0
  -32.5790  -21.4470   19.4640 N   0  0  0  0  0  0  0  0  0  0  0  0
  -32.2680  -21.3120   18.5120 H   0  0  0  0  0  0  0  0  0  0  0  0
  -31.9300  -22.1680   15.4210 C   0  0  0  0  0  0  0  0  0  0  0  0
  -31.3890  -21.9100   14.1990 C   0  0  0  0  0  0  0  0  0  0  0  0
  -32.4100  -21.2560   13.4420 C   0  0  0  0  0  0  0  0  0  0  0  0
  -33.2250  -21.7040   15.3390 N   0  0  0  0  0  0  0  0  0  0  0  0
  -33.4960  -21.0780   14.1750 N   0  0  0  0  0  0  0  0  0  0  0  0
  -32.4500  -20.8590   12.0370 C   0  0  0  0  0  0  0  0  0  0  0  0
  -32.8180  -19.5540   11.6470 C   0  0  0  0  0  3  0  0  0  0  0  0
  -32.8260  -19.1960   10.2830 C   0  0  0  0  0  3  0  0  0  0  0  0
  -32.4670  -20.1480    9.3000 C   0  0  0  0  0  0  0  0  0  0  0  0
  -32.1300  -21.4540    9.6950 C   0  0  0  0  0  3  0  0  0  0  0  0
  -32.1260  -21.8100   11.0510 C   0  0  0  0  0  3  0  0  0  0  0  0
  -32.4690  -19.9000    7.9510 O   0  0  0  0  0  0  0  0  0  0  0  0
  -32.3120  -18.6310    7.4560 C   0  0  0  0  0  0  0  0  0  0  0  0
  -31.1940  -17.8350    7.7850 C   0  0  0  0  0  3  0  0  0  0  0  0
  -31.0410  -16.5610    7.2000 C   0  0  0  0  0  3  0  0  0  0  0  0
  -31.9970  -16.0900    6.2790 C   0  0  0  0  0  0  0  0  0  0  0  0
  -33.1080  -16.8840    5.9490 C   0  0  0  0  0  3  0  0  0  0  0  0
  -33.2640  -18.1530    6.5350 C   0  0  0  0  0  0  0  0  0  0  0  0
  -34.3270  -18.9240    6.1980 F   0  0  0  0  0  0  0  0  0  0  0  0
  -31.8470  -14.8710    5.7120 F   0  0  0  0  0  0  0  0  0  0  0  0
  -30.0420  -22.3530   13.7260 C   0  0  0  0  0  0  0  0  0  0  0  0
  -29.4320  -21.5910   12.8290 N   0  0  0  0  0  0  0  0  0  0  0  0
  -29.5080  -23.3630   14.1870 O   0  0  0  0  0  0  0  0  0  0  0  0
  -29.8770  -20.7570   12.4740 H   0  0  0  0  0  0  0  0  0  0  0  0
  -28.5150  -21.8430   12.4880 H   0  0  0  0  0  0  0  0  0  0  0  0
  -31.4420  -22.7820   16.5740 N   0  0  0  0  0  0  0  0  0  0  0  0
  -30.5420  -23.2440   16.5160 H   0  0  0  0  0  0  0  0  0  0  0  0
  -32.0520  -23.2150   17.2550 H   0  0  0  0  0  0  0  0  0  0  0  0
  -21.7150  -28.3600   18.5980 C   0  0  0  0  0  2  0  0  0  0  0  0
  -23.2230  -29.0500   18.2220 C   0  0  0  0  0  2  0  0  0  0  0  0
  -24.5600  -28.3030   17.4780 C   0  0  0  0  0  2  0  0  0  0  0  0
  -26.2110  -28.3110   17.9420 C   0  0  0  0  0  2  0  0  0  0  0  0
  -27.1820  -27.1650   18.4520 O   0  0  0  0  0  0  0  0  0  0  0  0
  -25.0000  -28.3630   25.1140 C   0  0  0  0  0  0  0  0  0  0  0  0
  -26.8300  -26.6690   19.6640 C   0  0  0  0  0  3  0  0  0  0  0  0
  -23.7900  -28.7870   23.0760 C   0  0  0  0  0  3  0  0  0  0  0  0
  -24.9760  -28.1650   21.0090 C   0  0  0  0  0  0  0  0  0  0  0  0
  -26.3540  -28.5940   22.9870 C   0  0  0  0  0  2  0  0  0  0  0  0
  -26.2150  -27.9930   21.6050 C   0  0  0  0  0  0  0  0  0  0  0  0
  -27.2150  -27.2930   20.8830 C   0  0  0  0  0  3  0  0  0  0  0  0
  -25.5100  -26.3460   19.4810 C   0  0  0  0  0  2  0  0  0  0  0  0
  -24.6200  -27.2570   20.0290 C   0  0  0  0  0  3  0  0  0  0  0  0
  -24.0420  -29.1700   21.6270 C   0  0  0  0  0  2  0  0  0  0  0  0
  -25.0750  -28.5540   23.7760 N   0  0  0  0  0  0  0  0  0  0  0  0
  -23.9230  -28.4480   25.7280 O   0  0  0  0  0  0  0  0  0  0  0  0
  -22.9220  -27.5220   23.0840 C   0  0  0  0  0  0  0  0  0  0  0  0
  -21.6590  -27.6760   22.7750 N   0  0  0  0  0  0  0  0  0  0  0  0
  -23.3860  -26.4020   23.2980 O   0  0  0  0  0  0  0  0  0  0  0  0
  -21.2490  -28.6010   22.6900 H   0  0  0  0  0  0  0  0  0  0  0  0
  -18.0000  -27.0300   21.4630 C   0  0  1  0  0  0  0  0  0  0  0  0
  -20.9050  -26.5270   22.3350 C   0  0  0  0  0  3  0  0  0  0  0  0
  -21.6490  -25.8910   20.4830 C   0  0  0  0  0  1  0  0  0  0  0  0
  -20.0640  -25.9970   18.8500 C   0  0  0  0  0 15  0  0  0  0  0  0
  -18.1940  -26.5650   19.6380 C   0  0  0  0  0  1  0  0  0  0  0  0
  -19.1530  -27.0440   22.5670 C   0  0  0  0  0  0  0  0  0  0  0  0
  -18.8760  -27.8190   23.7590 C   0  0  0  0  0  3  0  0  0  0  0  0
  -17.6670  -28.5130   24.0110 C   0  0  0  0  0  3  0  0  0  0  0  0
  -16.6350  -28.4620   23.0650 C   0  0  0  0  0  3  0  0  0  0  0  0
  -16.8100  -27.7490   21.8460 C   0  0  0  0  0  2  0  0  0  0  0  0
  -26.2680  -28.0380   25.9280 C   0  0  0  0  0  3  0  0  0  0  0  0
  -26.2380  -28.9070   27.1050 N   0  0  0  0  0  0  0  0  0  0  0  0
  -26.8930  -30.0730   27.1840 C   0  0  0  0  0  0  0  0  0  0  0  0
  -27.6570  -30.4690   26.3020 O   0  0  0  0  0  0  0  0  0  0  0  0
  -25.5960  -28.6580   27.8430 H   0  0  0  0  0  0  0  0  0  0  0  0
  -25.7060  -32.0790   28.1260 C   0  0  0  0  0  1  0  0  0  0  0  0
  -26.6720  -30.9260   28.4470 C   0  0  0  0  0  3  0  0  0  0  0  0
  -28.8060  -30.4250   29.5490 C   0  0  0  0  0  1  0  0  0  0  0  0
  -27.9300  -31.4620   29.0100 N   0  0  0  0  0  0  0  0  0  0  0  0
  -27.7380  -32.1340   29.7510 H   0  0  0  0  0  0  0  0  0  0  0  0
  -26.3590  -26.5200   26.3310 C   0  0  1  0  0  0  0  0  0  0  0  0
  -25.0820  -25.9590   27.0030 C   0  0  0  0  0  1  0  0  0  0  0  0
  -26.6600  -25.6550   25.0840 C   0  0  0  0  0  1  0  0  0  0  0  0
  -27.5410  -26.3300   27.3070 C   0  0  0  0  0  1  0  0  0  0  0  0
  2  4  1  0
  2  1  1  0
  3  1  1  0
  3 73  1  0
  5 75  1  0
  6  5  1  0
  6  8  1  0
  7  6  1  0
  9  6  1  0
 14 22  1  0
 14 21  2  0
 15 20  1  0
 16 15  1  0
 17 18  1  0
 17 16  1  0
 18 27  1  0
 18 19  1  0
 19 20  1  0
 20 14  1  0
 22 13  1  0
 23 22  1  0
 24 49  1  0
 25 24  2  0
 26 28  2  0
 26 25  1  0
 27 24  1  0
 28 27  1  0
 29 26  1  0
 30 29  1  0
 31 30  2  0
 32 33  2  0
 32 31  1  0
 33 34  1  0
 34 29  2  0
 35 32  1  0
 36 37  1  0
 36 35  1  0
 38 37  2  0
 39 38  1  0
 40 39  2  0
 40 41  1  0
 41 36  2  0
 42 41  1  0
 43 39  1  0
 44 46  2  0
 44 25  1  0
 45 44  1  0
 47 45  1  0
 48 45  1  0
 49 51  1  0
 50 49  1  0
 52  2  1  0
 53 52  1  0
 54 55  1  0
 54 53  1  0
 55 56  1  0
 56 58  1  0
 57 68  2  0
 58 64  1  0
 58 63  1  0
 59 66  1  0
 59 69  1  0
 59 67  1  0
 60 62  1  0
 60 66  1  0
 61 67  1  0
 62 61  1  0
 63 62  2  0
 64 65  1  0
 65 60  2  0
 67 57  1  0
 69 71  2  0
 70 69  1  0
 72 70  1  0
 73 77  1  6
 73 82  1  0
 73 78  1  0
 74  5  1  0
 74 78  1  0
 74 70  1  0
 78 79  2  0
 79 80  1  0
 81 80  2  0
 82 81  1  0
 83 57  1  0
 83 93  1  0
 83 84  1  0
 84 85  1  0
 84 87  1  0
 85 89  1  0
 86 85  2  0
 89 88  1  0
 89 91  1  0
 91 90  1  0
 91 92  1  0
 93 94  1  1
 93 96  1  0
 95 93  1  0
M  ISO  4  14 100  22 100  55 101  56 101
M  END
>  <TORSDO>  (20) 
F 27

>  <SCORE>  (20) 
-0.317

>  <name>  (20) 
19

>  <ligand_id>  (20) 
19

>  <original_smiles>  (20) 
[H]c1c([H])c([H])c2c(c1[H])C([H])([H])C([H])([H])C([H])([H])C2([H])N([H])C(=O)C1([H])N(C(=O)C([H])(N([H])C(=O)C([H])(N([H])C([H])([H])[H])C([H])([H])[H])C(C([H])([H])[H])(C([H])([H])[H])C([H])([H])[H])C([H])([H])c2c([H])c(OC([H])([H])C([H])([H])C([H])([H])C([H])([H])N([H])C(=O)C([H])([H])[N+]([H])([H])C([H])([H])C([H])([H])C([H])([H])C([H])([H])C([H])([H])N([H])C(=O)N3C([H])([H])C([H])([H])C([H])([H])C([H])(n4nc(-c5c([H])c([H])c(Oc6c([H])c([H])c(F)c([H])c6F)c([H])c5[H])c(C(=O)N([H])[H])c4N([H])[H])C3([H])[H])c([H])c([H])c2C1([H])[H]

>  <smiles>  (20) 
[H]c1c([H])c([H])c2c(c1[H])C([H])([H])C([H])([H])C([H])([H])C2([H])N([H])C(=O)C1([H])N(C(=O)C([H])(N([H])C(=O)C([H])(N([H])C([H])([H])[H])C([H])([H])[H])C(C([H])([H])[H])(C([H])([H])[H])C([H])([H])[H])C([H])([H])c2c([H])c(OC([H])([H])C([H])([H])C([H])([H])C([H])([H])N([H])C(=O)C([H])([H])[N+]([H])([H])C([H])([H])C([H])([H])C([H])([H])C([H])([H])C([H])([H])N([H])C(=O)N3C([H])([H])C([H])([H])C([H])([H])C([H])(n4nc(-c5c([H])c([H])c(Oc6c([H])c([H])c(F)c([H])c6F)c([H])c5[H])c(C(=O)N([H])[H])c4N([H])[H])C3([H])[H])c([H])c([H])c2C1([H])[H]

$$$$
20:0:0
     RDKit          3D

104107  0  0  1  0  0  0  0  0999 V2000
  -23.4500  -12.7520   23.1520 C   0  0  0  0  0  0  0  0  0  0  0  0
  -24.0290  -11.4280   23.2800 N   0  0  0  0  0  0  0  0  0  0  0  0
  -22.2430  -12.8210   23.3760 O   0  0  0  0  0  0  0  0  0  0  0  0
  -25.0270  -11.5290   23.0410 H   0  0  0  0  0  0  0  0  0  0  0  0
  -23.6220   -9.8210   23.3890 C   0  0  0  0  0  1  0  0  0  0  0  0
  -25.6770   -7.2670   22.9590 C   0  0  0  0  0  1  0  0  0  0  0  0
  -27.2800   -7.2380   22.7550 C   0  0  0  0  0  2  0  0  0  0  0  0
  -27.8820   -6.6570   21.4420 C   0  0  0  0  0  2  0  0  0  0  0  0
  -28.2630   -7.6360   20.3090 C   0  0  0  0  0  2  0  0  0  0  0  0
  -29.6200   -8.3140   20.4200 C   0  0  0  0  0  2  0  0  0  0  0  0
  -29.8830  -10.8600   20.1650 C   0  0  1  0  0  0  0  0  0  0  0  0
  -29.7590   -9.5760   19.6560 N   0  0  0  0  0  0  0  0  0  0  0  0
  -28.4190  -12.3610   21.6630 O   0  0  0  0  0 15  0  0  0  0  0  0
  -30.3750   -9.3880   18.8700 H   0  0  0  0  0  0  0  0  0  0  0  0
  -31.5840  -11.2760   19.5980 C   0  0  0  0  0  2  0  0  0  0  0  0
  -34.0100  -11.9720   21.3610 C   0  0  0  0  0  0  0  0  0  0  0  0
  -33.8950  -10.1430   22.8830 C   0  0  0  0  0  2  0  0  0  0  0  0
  -33.0760   -9.3130   21.9170 C   0  0  0  0  0  2  0  0  0  0  0  0
  -31.6920   -9.8930   22.0280 C   0  0  0  0  0  2  0  0  0  0  0  0
  -31.5890  -11.5160   22.2990 C   0  0  0  0  0  0  0  0  0  0  0  0
  -32.4520  -12.0660   23.2630 C   0  0  0  0  0  2  0  0  0  0  0  0
  -33.6020  -11.5410   22.5850 N   0  0  0  0  0  0  0  0  0  0  0  0
  -35.2040  -12.3120   21.4000 O   0  0  0  0  0  0  0  0  0  0  0  0
  -33.1310  -11.7800   20.1710 N   0  0  0  0  0  0  0  0  0  0  0  0
  -33.6580  -12.1180   19.3790 H   0  0  0  0  0  0  0  0  0  0  0  0
  -29.8780  -13.8150   20.6170 C   0  0  0  0  0  2  0  0  0  0  0  0
  -28.4700  -13.0880   19.4970 C   0  0  0  0  0  2  0  0  0  0  0  0
  -28.1650  -11.1070   19.9430 C   0  0  0  0  0  2  0  0  0  0  0  0
  -30.5400  -12.1270   21.9750 N   0  0  0  0  0  2  0  0  0  0  0  0
  -29.3830  -10.4990   21.3920 N   0  0  0  0  0  1  0  0  0  0  0  0
  -27.0180  -10.5730   20.3110 C   0  0  0  0  0  0  0  0  0  0  0  0
  -26.6490   -9.9570   21.8690 C   0  0  0  0  0  3  0  0  0  0  0  0
  -25.1370   -9.3130   22.0950 C   0  0  0  0  0  3  0  0  0  0  0  0
  -24.0730   -9.3010   20.8140 C   0  0  0  0  0  0  0  0  0  0  0  0
  -24.4640   -9.9400   19.3640 C   0  0  0  0  0  3  0  0  0  0  0  0
  -25.9330  -10.5710   19.1020 C   0  0  0  0  0  3  0  0  0  0  0  0
  -23.1830   -8.3020   20.6700 O   0  0  0  0  0  0  0  0  0  0  0  0
  -22.5480   -7.8950   21.7790 C   0  0  0  0  0  0  0  0  0  0  0  0
  -21.9220   -8.8610   22.5880 C   0  0  0  0  0  3  0  0  0  0  0  0
  -21.1750   -8.4430   23.6880 C   0  0  0  0  0  3  0  0  0  0  0  0
  -21.0550   -7.0720   23.9660 C   0  0  0  0  0  0  0  0  0  0  0  0
  -21.6970   -6.1100   23.1640 C   0  0  0  0  0  3  0  0  0  0  0  0
  -22.4550   -6.5210   22.0580 C   0  0  0  0  0  0  0  0  0  0  0  0
  -23.0620   -5.6040   21.2590 F   0  0  0  0  0  0  0  0  0  0  0  0
  -20.3050   -6.6840   25.0150 F   0  0  0  0  0  0  0  0  0  0  0  0
  -27.3520  -13.9010   18.9420 C   0  0  0  0  0  0  0  0  0  0  0  0
  -26.0950  -13.6250   19.2440 N   0  0  0  0  0  0  0  0  0  0  0  0
  -27.5940  -14.8430   18.2300 O   0  0  0  0  0  0  0  0  0  0  0  0
  -25.9170  -12.9350   19.9670 H   0  0  0  0  0  0  0  0  0  0  0  0
  -25.3600  -14.2330   18.9220 H   0  0  0  0  0  0  0  0  0  0  0  0
  -30.6840  -14.8480   20.2640 N   0  0  0  0  0  0  0  0  0  0  0  0
  -30.3950  -15.5990   19.6500 H   0  0  0  0  0  0  0  0  0  0  0  0
  -31.5210  -15.0700   20.7840 H   0  0  0  0  0  0  0  0  0  0  0  0
  -24.1830  -14.2370   22.7180 C   0  0  0  0  0  3  0  0  0  0  0  0
  -24.4690  -15.0050   21.1680 C   0  0  0  0  0  3  0  0  0  0  0  0
  -25.4400  -16.4070   20.7190 C   0  0  0  0  0  2  0  0  0  0  0  0
  -26.3840  -16.7410   19.2700 C   0  0  0  0  0  3  0  0  0  0  0  0
  -27.5250  -18.0160   18.8600 C   0  0  0  0  0  3  0  0  0  0  0  0
  -28.4670  -18.1250   17.5260 N   0  0  0  0  0  4  0  0  0  0  0  0
  -27.8240  -18.1290   16.7510 H   0  0  0  0  0  0  0  0  0  0  0  0
  -28.9430  -17.2370   17.4760 H   0  0  0  0  0  0  0  0  0  0  0  0
  -29.6210  -19.2340   17.1690 C   0  0  0  0  0  3  0  0  0  0  0  0
  -30.6930  -19.2370   15.7740 C   0  0  0  0  0  3  0  0  0  0  0  0
  -32.0720  -19.9990   15.3530 O   0  0  0  0  0  0  0  0  0  0  0  0
  -32.5440  -24.3340    9.5210 C   0  0  0  0  0  0  0  0  0  0  0  0
  -32.4480  -20.1030   13.9550 C   0  0  0  0  0  0  0  0  0  0  0  0
  -31.6930  -22.0410    9.2510 C   0  0  0  0  0  3  0  0  0  0  0  0
  -32.3320  -20.3560   11.0770 C   0  0  0  0  0  0  0  0  0  0  0  0
  -33.5380  -22.5250   10.9780 C   0  0  0  0  0  2  0  0  0  0  0  0
  -33.0160  -21.3390   11.8080 C   0  0  0  0  0  0  0  0  0  0  0  0
  -33.0980  -21.2050   13.2510 C   0  0  0  0  0  3  0  0  0  0  0  0
  -31.9850  -19.0680   13.1270 C   0  0  0  0  0  3  0  0  0  0  0  0
  -31.8750  -19.2050   11.7300 C   0  0  0  0  0  3  0  0  0  0  0  0
  -32.0900  -20.5820    9.5930 C   0  0  0  0  0  2  0  0  0  0  0  0
  -32.5990  -23.0280    9.9180 N   0  0  0  0  0  0  0  0  0  0  0  0
  -31.7680  -24.7100    8.6270 O   0  0  0  0  0  0  0  0  0  0  0  0
  -30.1950  -22.2780    9.5900 C   0  0  0  0  0  0  0  0  0  0  0  0
  -29.2870  -21.9490    8.6510 N   0  0  0  0  0  0  0  0  0  0  0  0
  -29.8700  -22.7350   10.6880 O   0  0  0  0  0  0  0  0  0  0  0  0
  -29.6320  -21.5860    7.7720 H   0  0  0  0  0  0  0  0  0  0  0  0
  -26.1430  -21.5490    6.8930 C   0  0  0  0  0  0  0  0  0  0  0  0
  -27.8320  -22.0570    8.7860 C   0  0  0  0  0  3  0  0  0  0  0  0
  -27.2450  -20.8180    9.4980 C   0  0  0  0  0  2  0  0  0  0  0  0
  -26.7800  -19.7230    8.5300 C   0  0  0  0  0  2  0  0  0  0  0  0
  -25.7040  -20.2680    7.5860 C   0  0  0  0  0  2  0  0  0  0  0  0
  -27.1530  -22.3780    7.4500 C   0  0  0  0  0  0  0  0  0  0  0  0
  -27.5470  -23.5390    6.7520 C   0  0  0  0  0  3  0  0  0  0  0  0
  -26.9550  -23.8770    5.5210 C   0  0  0  0  0  3  0  0  0  0  0  0
  -25.9450  -23.0620    4.9810 C   0  0  0  0  0  3  0  0  0  0  0  0
  -25.5390  -21.9040    5.6670 C   0  0  0  0  0  3  0  0  0  0  0  0
  -33.4710  -25.4170   10.1480 C   0  0  0  0  0  3  0  0  0  0  0  0
  -32.7570  -26.2710   11.2680 C   0  0  1  0  0  0  0  0  0  0  0  0
  -31.4070  -26.8800   10.8230 C   0  0  0  0  0  1  0  0  0  0  0  0
  -32.4900  -25.4240   12.5310 C   0  0  0  0  0  1  0  0  0  0  0  0
  -33.6780  -27.4350   11.7010 C   0  0  0  0  0  1  0  0  0  0  0  0
  -33.9360  -26.2920    9.0600 N   0  0  0  0  0  0  0  0  0  0  0  0
  -35.1270  -26.2000    8.4560 C   0  0  0  0  0  0  0  0  0  0  0  0
  -35.9940  -25.3980    8.8140 O   0  0  0  0  0  0  0  0  0  0  0  0
  -33.2550  -26.9350    8.6860 H   0  0  0  0  0  0  0  0  0  0  0  0
  -35.2080  -26.4010    5.9500 C   0  0  0  0  0  1  0  0  0  0  0  0
  -35.4070  -27.1500    7.2770 C   0  0  0  0  0  3  0  0  0  0  0  0
  -36.9480  -28.6940    8.4050 C   0  0  0  0  0  1  0  0  0  0  0  0
  -36.7600  -27.7490    7.3070 N   0  0  0  0  0  0  0  0  0  0  0  0
  -36.9590  -28.2370    6.4350 H   0  0  0  0  0  0  0  0  0  0  0  0
  1  2  1  0
  1  3  2  0
  2  5  1  0
  4  2  1  0
  7  6  1  0
  8  7  1  0
  9 10  1  0
  9  8  1  0
 11 30  1  1
 12 11  1  0
 12 10  1  0
 14 12  1  0
 15 11  1  0
 15 24  1  0
 16 23  2  0
 16 22  1  0
 18 19  1  0
 18 17  1  0
 19 20  1  0
 20 21  1  0
 22 17  1  0
 22 21  1  0
 24 16  1  0
 25 24  1  0
 27 26  1  0
 28 11  1  0
 28 31  1  0
 29 20  2  0
 31 32  1  0
 32 33  2  0
 34 33  1  0
 35 34  2  0
 36 35  1  0
 36 31  2  0
 37 34  1  0
 37 38  1  0
 38 43  2  0
 38 39  1  0
 39 40  2  0
 40 41  1  0
 41 45  1  0
 42 41  2  0
 43 42  1  0
 44 43  1  0
 46 47  1  0
 46 27  1  0
 47 49  1  0
 48 46  2  0
 50 47  1  0
 51 26  1  0
 51 53  1  0
 52 51  1  0
 54  1  1  0
 55 54  2  0
 56 55  1  0
 57 56  1  0
 58 57  2  0
 59 58  1  0
 60 59  1  0
 61 59  1  0
 62 59  1  0
 63 62  2  0
 64 63  1  0
 65 75  1  0
 66 64  1  0
 67 77  1  0
 67 74  1  0
 67 75  1  0
 68 73  2  0
 68 70  1  0
 69 70  1  0
 70 71  2  0
 71 66  1  0
 72 66  2  0
 73 72  1  0
 74 68  1  0
 75 69  1  0
 76 65  2  0
 77 79  2  0
 78 77  1  0
 80 78  1  0
 81 86  1  0
 81 85  1  0
 82 78  1  0
 82 83  1  0
 84 83  1  0
 85 84  1  0
 86 82  1  0
 87 86  2  0
 88 87  1  0
 89 88  2  0
 89 90  1  0
 90 81  2  0
 91 65  1  0
 91 92  1  0
 92 95  1  1
 92 94  1  0
 93 92  1  0
 96 91  1  0
 97 98  2  0
 97 96  1  0
 99 96  1  0
101100  1  0
101103  1  0
101 97  1  0
103102  1  0
104103  1  0
M  ISO  4  16 100  24 100  63 101  64 101
M  END
>  <TORSDO>  (21) 
F 32

>  <SCORE>  (21) 
11.406

>  <name>  (21) 
20

>  <ligand_id>  (21) 
20

>  <original_smiles>  (21) 
[H]c1c([H])c([H])c2c(c1[H])C([H])([H])C([H])([H])C([H])([H])C2([H])N([H])C(=O)C1([H])N(C(=O)C([H])(N([H])C(=O)C([H])(N([H])C([H])([H])[H])C([H])([H])[H])C(C([H])([H])[H])(C([H])([H])[H])C([H])([H])[H])C([H])([H])c2c([H])c(OC([H])([H])C([H])([H])[N+]([H])([H])C([H])([H])C([H])([H])C([H])([H])C([H])([H])C([H])([H])C(=O)N([H])C([H])([H])C([H])([H])C([H])([H])C([H])([H])C([H])([H])C([H])([H])N([H])C(=O)C([H])([H])N([H])C(=O)N3C([H])([H])C([H])([H])C([H])([H])C([H])(n4nc(-c5c([H])c([H])c(Oc6c([H])c([H])c(F)c([H])c6F)c([H])c5[H])c(C(=O)N([H])[H])c4N([H])[H])C3([H])[H])c([H])c([H])c2C1([H])[H]

>  <smiles>  (21) 
[H]c1c([H])c([H])c2c(c1[H])C([H])([H])C([H])([H])C([H])([H])C2([H])N([H])C(=O)C1([H])N(C(=O)C([H])(N([H])C(=O)C([H])(N([H])C([H])([H])[H])C([H])([H])[H])C(C([H])([H])[H])(C([H])([H])[H])C([H])([H])[H])C([H])([H])c2c([H])c(OC([H])([H])C([H])([H])[N+]([H])([H])C([H])([H])C([H])([H])C([H])([H])C([H])([H])C([H])([H])C(=O)N([H])C([H])([H])C([H])([H])C([H])([H])C([H])([H])C([H])([H])C([H])([H])N([H])C(=O)C([H])([H])N([H])C(=O)N3C([H])([H])C([H])([H])C([H])([H])C([H])(n4nc(-c5c([H])c([H])c(Oc6c([H])c([H])c(F)c([H])c6F)c([H])c5[H])c(C(=O)N([H])[H])c4N([H])[H])C3([H])[H])c([H])c([H])c2C1([H])[H]

$$$$
21:0:0
     RDKit          3D

 98105  0  0  1  0  0  0  0  0999 V2000
  -26.5080  -23.9380   23.6770 N   0  0  0  0  0  4  0  0  0  0  0  0
  -26.0770  -24.7500   24.1000 H   0  0  0  0  0  0  0  0  0  0  0  0
  -26.7090  -23.2690   24.4020 H   0  0  0  0  0  0  0  0  0  0  0  0
  -25.5640  -23.3550   22.6910 C   0  0  0  0  0  2  0  0  0  0  0  0
  -25.1360  -24.3900   21.6420 C   0  0  0  0  0  2  0  0  0  0  0  0
  -26.1680  -24.4740   20.6660 O   0  0  0  0  0  0  0  0  0  0  0  0
  -26.0340  -25.5880   19.7940 C   0  0  0  0  0  2  0  0  0  0  0  0
  -27.0850  -25.4720   18.6770 C   0  0  0  0  0  2  0  0  0  0  0  0
  -27.4390  -26.7920   17.9560 C   0  0  0  0  0  2  0  0  0  0  0  0
  -26.3530  -27.3000   17.1800 O   0  0  0  0  0  0  0  0  0  0  0  0
  -24.7470  -31.0380   23.0170 C   0  0  0  0  0  0  0  0  0  0  0  0
  -25.4350  -28.0540   17.8650 C   0  0  0  0  0  0  0  0  0  0  0  0
  -22.8480  -30.4530   21.5410 C   0  0  0  0  0  3  0  0  0  0  0  0
  -23.4730  -29.5320   19.2470 C   0  0  0  0  0  0  0  0  0  0  0  0
  -25.1980  -30.7480   20.5880 C   0  0  0  0  0  2  0  0  0  0  0  0
  -24.8300  -29.7300   19.5320 C   0  0  0  0  0  0  0  0  0  0  0  0
  -25.8160  -28.9940   18.8480 C   0  0  0  0  0  3  0  0  0  0  0  0
  -24.0700  -27.8810   17.5630 C   0  0  0  0  0  3  0  0  0  0  0  0
  -23.0860  -28.6070   18.2600 C   0  0  0  0  0  3  0  0  0  0  0  0
  -22.4810  -30.3540   20.0350 C   0  0  0  0  0  2  0  0  0  0  0  0
  -24.3030  -30.7350   21.7650 N   0  0  0  0  0  0  0  0  0  0  0  0
  -23.9620  -31.1270   23.9700 O   0  0  0  0  0  0  0  0  0  0  0  0
  -22.3580  -29.1690   22.2490 C   0  0  0  0  0  0  0  0  0  0  0  0
  -21.0320  -28.9540   22.2400 N   0  0  0  0  0  0  0  0  0  0  0  0
  -23.1590  -28.3820   22.7600 O   0  0  0  0  0  0  0  0  0  0  0  0
  -20.4410  -29.6490   21.8060 H   0  0  0  0  0  0  0  0  0  0  0  0
  -17.8310  -27.2960   22.4640 C   0  0  0  0  0  0  0  0  0  0  0  0
  -20.3440  -27.7960   22.8080 C   0  0  0  0  0  3  0  0  0  0  0  0
  -20.6070  -26.5240   21.9710 C   0  0  0  0  0  2  0  0  0  0  0  0
  -19.5380  -26.2760   20.9020 C   0  0  0  0  0  2  0  0  0  0  0  0
  -18.1570  -26.1300   21.5470 C   0  0  0  0  0  2  0  0  0  0  0  0
  -18.8580  -28.0890   23.0450 C   0  0  0  0  0  0  0  0  0  0  0  0
  -18.5000  -29.1840   23.8610 C   0  0  0  0  0  3  0  0  0  0  0  0
  -17.1480  -29.4880   24.1030 C   0  0  0  0  0  3  0  0  0  0  0  0
  -16.1360  -28.6890   23.5440 C   0  0  0  0  0  3  0  0  0  0  0  0
  -16.4790  -27.5950   22.7300 C   0  0  0  0  0  3  0  0  0  0  0  0
  -26.2570  -31.3090   23.3070 C   0  0  0  0  0  3  0  0  0  0  0  0
  -26.3530  -32.6180   23.9660 N   0  0  0  0  0  0  0  0  0  0  0  0
  -26.7870  -33.7360   23.3700 C   0  0  0  0  0  0  0  0  0  0  0  0
  -27.2210  -33.7570   22.2150 O   0  0  0  0  0  0  0  0  0  0  0  0
  -25.9660  -32.6870   24.8960 H   0  0  0  0  0  0  0  0  0  0  0  0
  -25.5340  -35.8890   23.7220 C   0  0  0  0  0  1  0  0  0  0  0  0
  -26.7290  -35.0420   24.1860 C   0  0  0  0  0  3  0  0  0  0  0  0
  -29.1040  -35.2220   24.7810 C   0  0  0  0  0  1  0  0  0  0  0  0
  -27.9690  -35.8450   24.1050 N   0  0  0  0  0  0  0  0  0  0  0  0
  -27.8280  -36.7670   24.5090 H   0  0  0  0  0  0  0  0  0  0  0  0
  -26.9330  -30.1870   24.1860 C   0  0  1  0  0  0  0  0  0  0  0  0
  -26.1460  -29.8490   25.4750 C   0  0  0  0  0  1  0  0  0  0  0  0
  -27.0930  -28.8800   23.3740 C   0  0  0  0  0  1  0  0  0  0  0  0
  -28.3580  -30.6290   24.5970 C   0  0  0  0  0  1  0  0  0  0  0  0
  -27.7660  -24.4770   23.1240 C   0  0  0  0  0  2  0  0  0  0  0  0
  -27.5380  -25.9420   22.7760 C   0  0  0  0  0  0  0  0  0  0  0  0
  -28.0480  -26.4000   21.6300 N   0  0  0  0  0  0  0  0  0  0  0  0
  -26.8710  -26.6430   23.5390 O   0  0  0  0  0  0  0  0  0  0  0  0
  -28.5870  -25.7630   21.0560 H   0  0  0  0  0  0  0  0  0  0  0  0
  -27.7960  -27.7360   21.1000 C   0  0  0  0  0  2  0  0  0  0  0  0
  -28.9380  -28.1670   20.1690 C   0  0  0  0  0  2  0  0  0  0  0  0
  -30.3100  -28.1420   20.8630 C   0  0  0  0  0  2  0  0  0  0  0  0
  -31.3130  -27.2390   20.1410 C   0  0  0  0  0  2  0  0  0  0  0  0
  -32.4380  -26.7590   21.0690 C   0  0  0  0  0  2  0  0  0  0  0  0
  -33.8070  -24.8290   20.2370 C   0  0  0  0  0  0  0  0  0  0  0  0
  -34.9260  -22.6860   19.7240 C   0  0  0  0  0  2  0  0  0  0  0  0
  -34.6530  -22.2080   18.2860 C   0  0  0  0  0  2  0  0  0  0  0  0
  -33.3300  -21.4230   18.2060 C   0  0  0  0  0  2  0  0  0  0  0  0
  -32.1530  -22.1710   18.8820 C   0  0  0  0  0  3  0  0  0  0  0  0
  -32.5600  -22.6410   20.2940 C   0  0  0  0  0  2  0  0  0  0  0  0
  -33.7750  -23.4730   20.1810 N   0  0  0  0  0  0  0  0  0  0  0  0
  -34.7600  -25.5150   19.8550 O   0  0  0  0  0  0  0  0  0  0  0  0
  -32.7370  -25.3560   20.8370 N   0  0  0  0  0  0  0  0  0  0  0  0
  -32.0520  -24.6900   21.1610 H   0  0  0  0  0  0  0  0  0  0  0  0
  -29.6210  -21.7120   18.7230 C   0  0  0  0  0  0  0  0  0  0  0  0
  -28.8980  -20.5510   18.7900 C   0  0  0  0  0  0  0  0  0  0  0  0
  -29.8460  -19.5090   19.0170 C   0  0  0  0  0  0  0  0  0  0  0  0
  -30.9460  -21.3470   18.9160 N   0  0  0  0  0  0  0  0  0  0  0  0
  -31.0670  -20.0130   19.1420 N   0  0  0  0  0  0  0  0  0  0  0  0
  -29.6720  -18.0500   19.0650 C   0  0  0  0  0  0  0  0  0  0  0  0
  -29.7680  -17.3350   20.2780 C   0  0  0  0  0  3  0  0  0  0  0  0
  -29.5790  -15.9360   20.3020 C   0  0  0  0  0  3  0  0  0  0  0  0
  -29.2880  -15.2390   19.1050 C   0  0  0  0  0  0  0  0  0  0  0  0
  -29.2190  -15.9520   17.8960 C   0  0  0  0  0  3  0  0  0  0  0  0
  -29.4110  -17.3440   17.8730 C   0  0  0  0  0  3  0  0  0  0  0  0
  -29.1160  -13.8780   19.0270 O   0  0  0  0  0  0  0  0  0  0  0  0
  -28.3250  -13.2010   19.9200 C   0  0  0  0  0  0  0  0  0  0  0  0
  -26.9500  -13.4880   20.0650 C   0  0  0  0  0  3  0  0  0  0  0  0
  -26.1610  -12.7230   20.9450 C   0  0  0  0  0  3  0  0  0  0  0  0
  -26.7380  -11.6630   21.6700 C   0  0  0  0  0  0  0  0  0  0  0  0
  -28.1050  -11.3710   21.5220 C   0  0  0  0  0  3  0  0  0  0  0  0
  -28.8950  -12.1360   20.6470 C   0  0  0  0  0  0  0  0  0  0  0  0
  -30.2070  -11.8380   20.4920 F   0  0  0  0  0  0  0  0  0  0  0  0
  -25.9770  -10.9220   22.5100 F   0  0  0  0  0  0  0  0  0  0  0  0
  -27.4210  -20.4010   18.5640 C   0  0  0  0  0  0  0  0  0  0  0  0
  -26.7880  -19.4540   19.2490 N   0  0  0  0  0  0  0  0  0  0  0  0
  -26.8080  -21.1570   17.8120 O   0  0  0  0  0  0  0  0  0  0  0  0
  -27.2860  -18.8460   19.8820 H   0  0  0  0  0  0  0  0  0  0  0  0
  -25.7910  -19.3370   19.1400 H   0  0  0  0  0  0  0  0  0  0  0  0
  -29.2690  -23.0390   18.4980 N   0  0  0  0  0  0  0  0  0  0  0  0
  -28.3160  -23.3290   18.3040 H   0  0  0  0  0  0  0  0  0  0  0  0
  -29.9320  -23.8020   18.4440 H   0  0  0  0  0  0  0  0  0  0  0  0
  1  2  1  0
  1  3  1  0
  4  1  1  0
  5  4  1  0
  6  5  1  0
  7  6  1  0
  8  7  1  0
  9  8  1  0
 10 12  1  0
 10  9  1  0
 11 22  2  0
 12 17  1  0
 13 21  1  0
 13 23  1  0
 14 16  1  0
 14 20  1  0
 15 21  1  0
 16 15  1  0
 17 16  2  0
 18 12  2  0
 18 19  1  0
 19 14  2  0
 20 13  1  0
 21 11  1  0
 23 25  2  0
 24 23  1  0
 26 24  1  0
 27 36  2  0
 27 32  1  0
 28 24  1  0
 28 32  1  0
 29 28  1  0
 30 31  1  0
 30 29  1  0
 31 27  1  0
 32 33  2  0
 33 34  1  0
 35 34  2  0
 36 35  1  0
 37 11  1  0
 37 38  1  0
 37 47  1  0
 38 41  1  0
 39 38  1  0
 39 43  1  0
 40 39  2  0
 43 42  1  0
 45 43  1  0
 45 46  1  0
 45 44  1  0
 47 50  1  1
 47 48  1  0
 49 47  1  0
 51  1  1  0
 52 51  1  0
 52 54  2  0
 53 52  1  0
 55 53  1  0
 56 53  1  0
 57 58  1  0
 57 56  1  0
 59 58  1  0
 59 60  1  0
 61 69  1  0
 62 67  1  0
 63 62  1  0
 64 63  1  0
 65 64  1  0
 65 74  1  0
 65 66  1  0
 67 61  1  0
 67 66  1  0
 68 61  2  0
 69 60  1  0
 69 70  1  0
 71 72  2  0
 71 74  1  0
 72 73  1  0
 73 76  1  0
 73 75  2  0
 74 75  1  0
 76 77  1  0
 77 78  2  0
 79 78  1  0
 80 79  2  0
 81 80  1  0
 81 76  2  0
 82 79  1  0
 82 83  1  0
 83 84  2  0
 83 88  1  0
 84 85  1  0
 85 86  2  0
 86 90  1  0
 87 86  1  0
 88 87  2  0
 89 88  1  0
 91 72  1  0
 91 92  1  0
 92 94  1  0
 93 91  2  0
 95 92  1  0
 96 71  1  0
 97 96  1  0
 98 96  1  0
M  ISO  4   9 101  10 101  61 100  69 100
M  END
>  <TORSDO>  (22) 
F 29

>  <SCORE>  (22) 
-0.382

>  <name>  (22) 
21

>  <ligand_id>  (22) 
21

>  <original_smiles>  (22) 
[H]c1c([H])c([H])c2c(c1[H])C([H])([H])C([H])([H])C([H])([H])C2([H])N([H])C(=O)C1([H])N(C(=O)C([H])(N([H])C(=O)C([H])(N([H])C([H])([H])[H])C([H])([H])[H])C(C([H])([H])[H])(C([H])([H])[H])C([H])([H])[H])C([H])([H])c2c([H])c(OC([H])([H])C([H])([H])C([H])([H])OC([H])([H])C([H])([H])[N+]([H])([H])C([H])([H])C(=O)N([H])C([H])([H])C([H])([H])C([H])([H])C([H])([H])C([H])([H])N([H])C(=O)N3C([H])([H])C([H])([H])C([H])([H])C([H])(n4nc(-c5c([H])c([H])c(Oc6c([H])c([H])c(F)c([H])c6F)c([H])c5[H])c(C(=O)N([H])[H])c4N([H])[H])C3([H])[H])c([H])c([H])c2C1([H])[H]

>  <smiles>  (22) 
[H]c1c([H])c([H])c2c(c1[H])C([H])([H])C([H])([H])C([H])([H])C2([H])N([H])C(=O)C1([H])N(C(=O)C([H])(N([H])C(=O)C([H])(N([H])C([H])([H])[H])C([H])([H])[H])C(C([H])([H])[H])(C([H])([H])[H])C([H])([H])[H])C([H])([H])c2c([H])c(OC([H])([H])C([H])([H])C([H])([H])OC([H])([H])C([H])([H])[N+]([H])([H])C([H])([H])C(=O)N([H])C([H])([H])C([H])([H])C([H])([H])C([H])([H])C([H])([H])N([H])C(=O)N3C([H])([H])C([H])([H])C([H])([H])C([H])(n4nc(-c5c([H])c([H])c(Oc6c([H])c([H])c(F)c([H])c6F)c([H])c5[H])c(C(=O)N([H])[H])c4N([H])[H])C3([H])[H])c([H])c([H])c2C1([H])[H]

$$$$
22:0:0
     RDKit          3D

 99106  0  0  1  0  0  0  0  0999 V2000
  -26.2660  -25.5180   23.3130 C   0  0  0  0  0  0  0  0  0  0  0  0
  -25.7290  -26.3410   22.4040 N   0  0  0  0  0  0  0  0  0  0  0  0
  -25.6070  -24.6530   23.8960 O   0  0  0  0  0  0  0  0  0  0  0  0
  -26.3230  -27.0610   22.0110 H   0  0  0  0  0  0  0  0  0  0  0  0
  -24.3310  -26.3140   21.9740 C   0  0  0  0  0  2  0  0  0  0  0  0
  -23.9370  -24.9700   21.3180 C   0  0  0  0  0  2  0  0  0  0  0  0
  -24.0540  -24.9580   19.7770 C   0  0  0  0  0  2  0  0  0  0  0  0
  -25.3000  -24.2500   19.1910 C   0  0  0  0  0  2  0  0  0  0  0  0
  -25.8450  -24.8830   17.8890 C   0  0  0  0  0  2  0  0  0  0  0  0
  -26.8370  -26.0460   18.1270 C   0  0  0  0  0  2  0  0  0  0  0  0
  -26.5330  -27.2420   17.3970 O   0  0  0  0  0  0  0  0  0  0  0  0
  -25.3890  -31.1990   23.1940 C   0  0  0  0  0  0  0  0  0  0  0  0
  -25.6780  -28.0830   18.0660 C   0  0  0  0  0  0  0  0  0  0  0  0
  -23.4070  -30.7260   21.7920 C   0  0  0  0  0  3  0  0  0  0  0  0
  -23.8940  -29.7240   19.5030 C   0  0  0  0  0  0  0  0  0  0  0  0
  -25.7460  -30.8280   20.7580 C   0  0  0  0  0  2  0  0  0  0  0  0
  -25.2720  -29.8210   19.7340 C   0  0  0  0  0  0  0  0  0  0  0  0
  -26.1740  -28.9970   19.0220 C   0  0  0  0  0  3  0  0  0  0  0  0
  -24.2900  -28.0240   17.8200 C   0  0  0  0  0  3  0  0  0  0  0  0
  -23.3970  -28.8260   18.5470 C   0  0  0  0  0  3  0  0  0  0  0  0
  -22.9910  -30.6360   20.3020 C   0  0  0  0  0  2  0  0  0  0  0  0
  -24.8870  -30.9010   21.9640 N   0  0  0  0  0  0  0  0  0  0  0  0
  -24.6380  -31.3670   24.1640 O   0  0  0  0  0  0  0  0  0  0  0  0
  -22.8480  -29.4940   22.5390 C   0  0  0  0  0  0  0  0  0  0  0  0
  -21.5200  -29.3070   22.4710 N   0  0  0  0  0  0  0  0  0  0  0  0
  -23.6000  -28.7210   23.1360 O   0  0  0  0  0  0  0  0  0  0  0  0
  -20.9730  -29.9800   21.9540 H   0  0  0  0  0  0  0  0  0  0  0  0
  -18.2870  -27.6940   22.5910 C   0  0  0  0  0  0  0  0  0  0  0  0
  -20.7760  -28.1980   23.0660 C   0  0  0  0  0  3  0  0  0  0  0  0
  -21.0870  -26.8730   22.3280 C   0  0  0  0  0  2  0  0  0  0  0  0
  -20.0780  -26.5470   21.2210 C   0  0  0  0  0  2  0  0  0  0  0  0
  -18.6620  -26.4550   21.7970 C   0  0  0  0  0  2  0  0  0  0  0  0
  -19.2820  -28.5200   23.1770 C   0  0  0  0  0  0  0  0  0  0  0  0
  -18.8830  -29.6760   23.8820 C   0  0  0  0  0  3  0  0  0  0  0  0
  -17.5210  -30.0120   24.0050 C   0  0  0  0  0  3  0  0  0  0  0  0
  -16.5380  -29.1830   23.4370 C   0  0  0  0  0  3  0  0  0  0  0  0
  -16.9210  -28.0250   22.7360 C   0  0  0  0  0  3  0  0  0  0  0  0
  -26.9240  -31.3650   23.4380 C   0  0  0  0  0  3  0  0  0  0  0  0
  -27.1060  -32.4880   24.3720 N   0  0  0  0  0  0  0  0  0  0  0  0
  -27.4630  -33.7270   24.0040 C   0  0  0  0  0  0  0  0  0  0  0  0
  -27.7490  -34.0260   22.8410 O   0  0  0  0  0  0  0  0  0  0  0  0
  -26.8480  -32.3190   25.3340 H   0  0  0  0  0  0  0  0  0  0  0  0
  -26.2530  -35.6860   25.0190 C   0  0  0  0  0  1  0  0  0  0  0  0
  -27.5140  -34.8090   25.1010 C   0  0  0  0  0  3  0  0  0  0  0  0
  -29.9520  -34.9620   25.3650 C   0  0  0  0  0  1  0  0  0  0  0  0
  -28.7180  -35.6650   25.0250 N   0  0  0  0  0  0  0  0  0  0  0  0
  -28.6270  -36.4630   25.6500 H   0  0  0  0  0  0  0  0  0  0  0  0
  -27.6100  -30.0550   23.9920 C   0  0  1  0  0  0  0  0  0  0  0  0
  -26.8520  -29.3970   25.1730 C   0  0  0  0  0  1  0  0  0  0  0  0
  -27.7390  -28.9920   22.8750 C   0  0  0  0  0  1  0  0  0  0  0  0
  -29.0520  -30.3800   24.4460 C   0  0  0  0  0  1  0  0  0  0  0  0
  -27.7630  -25.6820   23.6100 C   0  0  0  0  0  2  0  0  0  0  0  0
  -29.1940  -24.8600   21.7180 C   0  0  0  0  0  0  0  0  0  0  0  0
  -28.5880  -24.6980   22.9010 N   0  0  0  0  0  0  0  0  0  0  0  0
  -29.8180  -23.9270   21.2140 O   0  0  0  0  0  0  0  0  0  0  0  0
  -28.6430  -23.7790   23.3170 H   0  0  0  0  0  0  0  0  0  0  0  0
  -29.1240  -26.2280   21.0120 C   0  0  0  0  0  2  0  0  0  0  0  0
  -29.8210  -26.2710   19.6340 C   0  0  0  0  0  2  0  0  0  0  0  0
  -29.6810  -27.6380   18.9230 C   0  0  0  0  0  2  0  0  0  0  0  0
  -30.1860  -27.6090   17.4480 C   0  0  0  0  0  2  0  0  0  0  0  0
  -30.5980  -28.7990   16.5130 C   0  0  0  0  0  2  0  0  0  0  0  0
  -30.3450  -28.6110   14.0180 C   0  0  0  0  0  0  0  0  0  0  0  0
  -30.0180  -27.8770   11.6820 C   0  0  0  0  0  2  0  0  0  0  0  0
  -28.8610  -26.8610   11.5810 C   0  0  0  0  0  2  0  0  0  0  0  0
  -29.3350  -25.4270   11.8940 C   0  0  0  0  0  2  0  0  0  0  0  0
  -30.1670  -25.3460   13.1980 C   0  0  0  0  0  3  0  0  0  0  0  0
  -31.2710  -26.4250   13.1820 C   0  0  0  0  0  2  0  0  0  0  0  0
  -30.6240  -27.7460   13.0120 N   0  0  0  0  0  0  0  0  0  0  0  0
  -29.6640  -29.6370   13.8800 O   0  0  0  0  0  0  0  0  0  0  0  0
  -30.8460  -28.2330   15.1960 N   0  0  0  0  0  0  0  0  0  0  0  0
  -31.3910  -27.3820   15.1740 H   0  0  0  0  0  0  0  0  0  0  0  0
  -30.9850  -23.3220   14.5710 C   0  0  0  0  0  0  0  0  0  0  0  0
  -31.4360  -22.0860   14.1950 C   0  0  0  0  0  0  0  0  0  0  0  0
  -31.4160  -22.0780   12.7660 C   0  0  0  0  0  0  0  0  0  0  0  0
  -30.7230  -24.0070   13.3930 N   0  0  0  0  0  0  0  0  0  0  0  0
  -31.0370  -23.2620   12.3030 N   0  0  0  0  0  0  0  0  0  0  0  0
  -31.6830  -20.9940   11.8110 C   0  0  0  0  0  0  0  0  0  0  0  0
  -32.7130  -21.0970   10.8490 C   0  0  0  0  0  3  0  0  0  0  0  0
  -32.9630  -20.0360    9.9520 C   0  0  0  0  0  3  0  0  0  0  0  0
  -32.1830  -18.8540   10.0130 C   0  0  0  0  0  0  0  0  0  0  0  0
  -31.1480  -18.7660   10.9610 C   0  0  0  0  0  3  0  0  0  0  0  0
  -30.8980  -19.8250   11.8500 C   0  0  0  0  0  3  0  0  0  0  0  0
  -32.3400  -17.7840    9.1670 O   0  0  0  0  0  0  0  0  0  0  0  0
  -33.5630  -17.4570    8.6390 C   0  0  0  0  0  0  0  0  0  0  0  0
  -34.6370  -17.0290    9.4520 C   0  0  0  0  0  3  0  0  0  0  0  0
  -35.8540  -16.6370    8.8600 C   0  0  0  0  0  3  0  0  0  0  0  0
  -35.9960  -16.6610    7.4590 C   0  0  0  0  0  0  0  0  0  0  0  0
  -34.9260  -17.0830    6.6490 C   0  0  0  0  0  3  0  0  0  0  0  0
  -33.7110  -17.4760    7.2390 C   0  0  0  0  0  0  0  0  0  0  0  0
  -32.6760  -17.8610    6.4540 F   0  0  0  0  0  0  0  0  0  0  0  0
  -37.1610  -16.2770    6.8870 F   0  0  0  0  0  0  0  0  0  0  0  0
  -31.7760  -20.9390   15.1040 C   0  0  0  0  0  0  0  0  0  0  0  0
  -32.7530  -20.1250   14.7220 N   0  0  0  0  0  0  0  0  0  0  0  0
  -31.2020  -20.7830   16.1800 O   0  0  0  0  0  0  0  0  0  0  0  0
  -33.2400  -20.2630   13.8480 H   0  0  0  0  0  0  0  0  0  0  0  0
  -33.0240  -19.3530   15.3110 H   0  0  0  0  0  0  0  0  0  0  0  0
  -30.7570  -23.9120   15.8100 N   0  0  0  0  0  0  0  0  0  0  0  0
  -30.9160  -23.4200   16.6830 H   0  0  0  0  0  0  0  0  0  0  0  0
  -30.3860  -24.8440   15.9430 H   0  0  0  0  0  0  0  0  0  0  0  0
  1 52  1  0
  1  3  2  0
  2  1  1  0
  4  2  1  0
  5  2  1  0
  6  5  1  0
  7  6  1  0
  8  7  1  0
  9 10  1  0
  9  8  1  0
 11 13  1  0
 11 10  1  0
 12 23  2  0
 13 18  1  0
 14 22  1  0
 14 24  1  0
 15 17  1  0
 15 21  1  0
 16 22  1  0
 17 16  1  0
 18 17  2  0
 19 13  2  0
 19 20  1  0
 20 15  2  0
 21 14  1  0
 22 12  1  0
 24 26  2  0
 25 24  1  0
 27 25  1  0
 28 37  2  0
 28 33  1  0
 29 25  1  0
 29 33  1  0
 30 29  1  0
 31 32  1  0
 31 30  1  0
 32 28  1  0
 33 34  2  0
 34 35  1  0
 36 35  2  0
 37 36  1  0
 38 12  1  0
 38 48  1  0
 38 39  1  0
 39 42  1  0
 40 39  1  0
 40 44  1  0
 41 40  2  0
 44 43  1  0
 46 44  1  0
 46 45  1  0
 46 47  1  0
 48 51  1  1
 48 49  1  0
 50 48  1  0
 53 54  1  0
 54 56  1  0
 54 52  1  0
 55 53  2  0
 57 53  1  0
 58 57  1  0
 59 58  1  0
 60 59  1  0
 61 60  1  0
 62 70  1  0
 63 68  1  0
 64 63  1  0
 64 65  1  0
 66 65  1  0
 66 75  1  0
 67 66  1  0
 68 67  1  0
 68 62  1  0
 69 62  2  0
 70 61  1  0
 71 70  1  0
 72 97  1  0
 73 72  2  0
 73 92  1  0
 74 73  1  0
 75 72  1  0
 76 74  2  0
 76 75  1  0
 77 82  1  0
 77 74  1  0
 78 77  2  0
 79 80  2  0
 79 78  1  0
 80 81  1  0
 81 82  2  0
 83 80  1  0
 84 83  1  0
 84 85  1  0
 86 85  2  0
 87 86  1  0
 88 89  1  0
 88 87  2  0
 89 84  2  0
 90 89  1  0
 91 87  1  0
 92 94  2  0
 93 92  1  0
 93 96  1  0
 95 93  1  0
 97 99  1  0
 97 98  1  0
M  ISO  4  10 101  11 101  62 100  70 100
M  END
>  <TORSDO>  (23) 
F 29

>  <SCORE>  (23) 
-4.118

>  <name>  (23) 
22

>  <ligand_id>  (23) 
22

>  <original_smiles>  (23) 
[H]c1c([H])c([H])c2c(c1[H])C([H])([H])C([H])([H])C([H])([H])C2([H])N([H])C(=O)C1([H])N(C(=O)C([H])(N([H])C(=O)C([H])(N([H])C([H])([H])[H])C([H])([H])[H])C(C([H])([H])[H])(C([H])([H])[H])C([H])([H])[H])C([H])([H])c2c([H])c(OC([H])([H])C([H])([H])C([H])([H])C([H])([H])C([H])([H])C([H])([H])N([H])C(=O)C([H])([H])N([H])C(=O)C([H])([H])C([H])([H])C([H])([H])C([H])([H])C([H])([H])N([H])C(=O)N3C([H])([H])C([H])([H])C([H])([H])C([H])(n4nc(-c5c([H])c([H])c(Oc6c([H])c([H])c(F)c([H])c6F)c([H])c5[H])c(C(=O)N([H])[H])c4N([H])[H])C3([H])[H])c([H])c([H])c2C1([H])[H]

>  <smiles>  (23) 
[H]c1c([H])c([H])c2c(c1[H])C([H])([H])C([H])([H])C([H])([H])C2([H])N([H])C(=O)C1([H])N(C(=O)C([H])(N([H])C(=O)C([H])(N([H])C([H])([H])[H])C([H])([H])[H])C(C([H])([H])[H])(C([H])([H])[H])C([H])([H])[H])C([H])([H])c2c([H])c(OC([H])([H])C([H])([H])C([H])([H])C([H])([H])C([H])([H])C([H])([H])N([H])C(=O)C([H])([H])N([H])C(=O)C([H])([H])C([H])([H])C([H])([H])C([H])([H])C([H])([H])N([H])C(=O)N3C([H])([H])C([H])([H])C([H])([H])C([H])(n4nc(-c5c([H])c([H])c(Oc6c([H])c([H])c(F)c([H])c6F)c([H])c5[H])c(C(=O)N([H])[H])c4N([H])[H])C3([H])[H])c([H])c([H])c2C1([H])[H]

$$$$
23:0:0
     RDKit          3D

 99106  0  0  1  0  0  0  0  0999 V2000
  -29.1240  -20.6430   23.1470 C   0  0  0  0  0  2  0  0  0  0  0  0
  -30.4770  -20.5560   22.7030 O   0  0  0  0  0  0  0  0  0  0  0  0
  -31.2850  -21.6900   22.9610 C   0  0  0  0  0  2  0  0  0  0  0  0
  -31.8520  -22.2070   21.6290 C   0  0  0  0  0  2  0  0  0  0  0  0
  -32.5300  -21.1460   20.7340 C   0  0  0  0  0  2  0  0  0  0  0  0
  -31.7630  -20.7570   19.4470 C   0  0  0  0  0  2  0  0  0  0  0  0
  -30.5880  -19.7720   19.6050 C   0  0  0  0  0  2  0  0  0  0  0  0
  -30.0990  -17.6680   20.8240 C   0  0  0  0  0  0  0  0  0  0  0  0
  -30.9100  -18.6880   20.5250 N   0  0  0  0  0  0  0  0  0  0  0  0
  -28.9840  -17.5290   20.3170 O   0  0  0  0  0  0  0  0  0  0  0  0
  -31.8080  -18.7250   20.9900 H   0  0  0  0  0  0  0  0  0  0  0  0
  -30.6240  -16.6710   21.8640 C   0  0  0  0  0  2  0  0  0  0  0  0
  -30.4980  -14.3490   20.9570 C   0  0  0  0  0  0  0  0  0  0  0  0
  -30.4620  -11.8930   20.7230 C   0  0  0  0  0  2  0  0  0  0  0  0
  -29.7420  -11.3930   19.4600 C   0  0  0  0  0  2  0  0  0  0  0  0
  -28.2330  -11.2530   19.7190 C   0  0  0  0  0  2  0  0  0  0  0  0
  -27.6220  -12.5350   20.3420 C   0  0  0  0  0  3  0  0  0  0  0  0
  -28.4520  -13.0060   21.5560 C   0  0  0  0  0  2  0  0  0  0  0  0
  -29.8620  -13.1660   21.1430 N   0  0  0  0  0  0  0  0  0  0  0  0
  -31.5200  -14.4780   20.2750 O   0  0  0  0  0  0  0  0  0  0  0  0
  -30.0370  -15.3380   21.7310 N   0  0  0  0  0  0  0  0  0  0  0  0
  -29.2280  -15.1360   22.2980 H   0  0  0  0  0  0  0  0  0  0  0  0
  -25.2150  -13.2730   20.8910 C   0  0  0  0  0  0  0  0  0  0  0  0
  -24.0720  -12.5580   21.1320 C   0  0  0  0  0  0  0  0  0  0  0  0
  -24.4450  -11.1810   21.0600 C   0  0  0  0  0  0  0  0  0  0  0  0
  -26.2170  -12.3350   20.6950 N   0  0  0  0  0  0  0  0  0  0  0  0
  -25.7500  -11.0690   20.8510 N   0  0  0  0  0  0  0  0  0  0  0  0
  -23.6260   -9.9640   21.1240 C   0  0  0  0  0  0  0  0  0  0  0  0
  -23.8030   -9.0060   22.1460 C   0  0  0  0  0  3  0  0  0  0  0  0
  -22.9920   -7.8520   22.1950 C   0  0  0  0  0  3  0  0  0  0  0  0
  -21.9870   -7.6490   21.2190 C   0  0  0  0  0  0  0  0  0  0  0  0
  -21.8300   -8.5940   20.1900 C   0  0  0  0  0  3  0  0  0  0  0  0
  -22.6420   -9.7390   20.1390 C   0  0  0  0  0  3  0  0  0  0  0  0
  -21.1700   -6.5450   21.1710 O   0  0  0  0  0  0  0  0  0  0  0  0
  -20.7300   -5.9260   22.3130 C   0  0  0  0  0  0  0  0  0  0  0  0
  -19.9560   -6.6070   23.2790 C   0  0  0  0  0  3  0  0  0  0  0  0
  -19.4660   -5.9150   24.4030 C   0  0  0  0  0  3  0  0  0  0  0  0
  -19.7390   -4.5420   24.5620 C   0  0  0  0  0  0  0  0  0  0  0  0
  -20.5050   -3.8620   23.5990 C   0  0  0  0  0  3  0  0  0  0  0  0
  -20.9960   -4.5520   22.4760 C   0  0  0  0  0  0  0  0  0  0  0  0
  -21.7160   -3.8870   21.5410 F   0  0  0  0  0  0  0  0  0  0  0  0
  -19.2620   -3.8750   25.6380 F   0  0  0  0  0  0  0  0  0  0  0  0
  -22.6900  -13.1160   21.3240 C   0  0  0  0  0  0  0  0  0  0  0  0
  -21.8600  -12.4400   22.1090 N   0  0  0  0  0  0  0  0  0  0  0  0
  -22.3550  -14.1840   20.8130 O   0  0  0  0  0  0  0  0  0  0  0  0
  -22.1400  -11.5730   22.5450 H   0  0  0  0  0  0  0  0  0  0  0  0
  -20.9290  -12.7950   22.2790 H   0  0  0  0  0  0  0  0  0  0  0  0
  -25.4810  -14.6350   20.8040 N   0  0  0  0  0  0  0  0  0  0  0  0
  -24.7560  -15.3390   20.8940 H   0  0  0  0  0  0  0  0  0  0  0  0
  -26.3910  -15.0300   20.5920 H   0  0  0  0  0  0  0  0  0  0  0  0
  -28.3290  -21.6610   22.3060 C   0  0  0  0  0  2  0  0  0  0  0  0
  -28.6980  -22.7930   20.1160 C   0  0  0  0  0  0  0  0  0  0  0  0
  -28.9920  -21.8610   21.0250 N   0  0  0  0  0  0  0  0  0  0  0  0
  -27.6940  -23.5040   20.1900 O   0  0  0  0  0  0  0  0  0  0  0  0
  -29.8400  -21.3170   20.9040 H   0  0  0  0  0  0  0  0  0  0  0  0
  -29.7260  -22.9670   18.9940 C   0  0  0  0  0  2  0  0  0  0  0  0
  -29.6560  -24.3010   18.2280 C   0  0  0  0  0  2  0  0  0  0  0  0
  -28.5630  -24.3520   17.1500 C   0  0  0  0  0  2  0  0  0  0  0  0
  -28.3750  -25.7170   16.7820 O   0  0  0  0  0  0  0  0  0  0  0  0
  -25.5160  -28.6040   22.6150 C   0  0  0  0  0  0  0  0  0  0  0  0
  -27.2960  -26.3530   17.3420 C   0  0  0  0  0  0  0  0  0  0  0  0
  -24.0010  -28.3710   20.6710 C   0  0  0  0  0  3  0  0  0  0  0  0
  -25.1170  -27.7390   18.4700 C   0  0  0  0  0  0  0  0  0  0  0  0
  -26.5240  -28.6300   20.3390 C   0  0  0  0  0  2  0  0  0  0  0  0
  -26.3790  -27.8090   19.0740 C   0  0  0  0  0  0  0  0  0  0  0  0
  -27.4750  -27.1250   18.5080 C   0  0  0  0  0  3  0  0  0  0  0  0
  -26.0210  -26.2910   16.7400 C   0  0  0  0  0  3  0  0  0  0  0  0
  -24.9300  -26.9800   17.3020 C   0  0  0  0  0  3  0  0  0  0  0  0
  -24.0010  -28.5190   19.1270 C   0  0  0  0  0  2  0  0  0  0  0  0
  -25.3720  -28.5150   21.2620 N   0  0  0  0  0  0  0  0  0  0  0  0
  -24.5300  -28.6140   23.3630 O   0  0  0  0  0  0  0  0  0  0  0  0
  -23.3130  -27.0360   21.0380 C   0  0  0  0  0  0  0  0  0  0  0  0
  -21.9780  -26.9980   20.9030 N   0  0  0  0  0  0  0  0  0  0  0  0
  -23.9750  -26.0620   21.4090 O   0  0  0  0  0  0  0  0  0  0  0  0
  -21.5120  -27.8420   20.6020 H   0  0  0  0  0  0  0  0  0  0  0  0
  -18.5650  -25.8240   20.7690 C   0  0  0  0  0  0  0  0  0  0  0  0
  -21.1210  -25.8410   21.1530 C   0  0  0  0  0  3  0  0  0  0  0  0
  -21.2000  -24.8280   19.9870 C   0  0  0  0  0  2  0  0  0  0  0  0
  -20.1140  -25.0410   18.9270 C   0  0  0  0  0  2  0  0  0  0  0  0
  -18.7220  -24.9250   19.5540 C   0  0  0  0  0  2  0  0  0  0  0  0
  -19.6930  -26.2670   21.5090 C   0  0  0  0  0  0  0  0  0  0  0  0
  -19.4950  -27.1290   22.6080 C   0  0  0  0  0  3  0  0  0  0  0  0
  -18.2000  -27.5470   22.9740 C   0  0  0  0  0  3  0  0  0  0  0  0
  -17.0860  -27.0910   22.2490 C   0  0  0  0  0  3  0  0  0  0  0  0
  -17.2690  -26.2300   21.1520 C   0  0  0  0  0  3  0  0  0  0  0  0
  -26.9220  -28.7220   23.2830 C   0  0  0  0  0  3  0  0  0  0  0  0
  -26.8190  -29.7250   24.3500 N   0  0  0  0  0  0  0  0  0  0  0  0
  -27.3180  -30.9670   24.2790 C   0  0  0  0  0  0  0  0  0  0  0  0
  -27.9840  -31.3660   23.3200 O   0  0  0  0  0  0  0  0  0  0  0  0
  -26.2410  -29.4850   25.1430 H   0  0  0  0  0  0  0  0  0  0  0  0
  -25.9210  -32.9020   25.0670 C   0  0  0  0  0  1  0  0  0  0  0  0
  -27.0330  -31.9160   25.4580 C   0  0  0  0  0  3  0  0  0  0  0  0
  -29.2240  -31.8170   26.5590 C   0  0  0  0  0  1  0  0  0  0  0  0
  -28.2240  -32.6650   25.9130 N   0  0  0  0  0  0  0  0  0  0  0  0
  -27.9610  -33.3960   26.5670 H   0  0  0  0  0  0  0  0  0  0  0  0
  -27.4590  -27.3530   23.8510 C   0  0  1  0  0  0  0  0  0  0  0  0
  -26.4620  -26.6360   24.7910 C   0  0  0  0  0  1  0  0  0  0  0  0
  -27.8020  -26.3820   22.6970 C   0  0  0  0  0  1  0  0  0  0  0  0
  -28.7720  -27.5890   24.6340 C   0  0  0  0  0  1  0  0  0  0  0  0
  2  3  1  0
  2  1  1  0
  4  3  1  0
  5  4  1  0
  6  7  1  0
  6  5  1  0
  7  9  1  0
  8 12  1  0
  9  8  1  0
  9 11  1  0
 10  8  2  0
 13 19  1  0
 13 21  1  0
 14 19  1  0
 15 16  1  0
 15 14  1  0
 17 16  1  0
 17 26  1  0
 17 18  1  0
 19 18  1  0
 20 13  2  0
 21 12  1  0
 21 22  1  0
 23 24  2  0
 24 43  1  0
 25 28  1  0
 25 24  1  0
 26 27  1  0
 26 23  1  0
 27 25  2  0
 28 29  1  0
 29 30  2  0
 31 30  1  0
 32 31  2  0
 33 32  1  0
 33 28  2  0
 34 31  1  0
 34 35  1  0
 35 40  2  0
 35 36  1  0
 36 37  2  0
 37 38  1  0
 38 42  1  0
 39 38  2  0
 40 39  1  0
 41 40  1  0
 43 44  1  0
 44 47  1  0
 44 46  1  0
 45 43  2  0
 48 23  1  0
 48 49  1  0
 50 48  1  0
 51  1  1  0
 52 54  2  0
 52 53  1  0
 53 51  1  0
 55 53  1  0
 56 52  1  0
 57 56  1  0
 58 57  1  0
 59 58  1  0
 59 61  1  0
 60 71  2  0
 61 66  1  0
 62 72  1  0
 62 70  1  0
 63 65  1  0
 63 69  1  0
 64 70  1  0
 65 64  1  0
 66 65  2  0
 67 68  1  0
 67 61  2  0
 68 63  2  0
 69 62  1  0
 70 60  1  0
 72 74  2  0
 73 72  1  0
 75 73  1  0
 76 85  2  0
 76 81  1  0
 77 73  1  0
 77 81  1  0
 78 77  1  0
 79 80  1  0
 79 78  1  0
 80 76  1  0
 81 82  2  0
 82 83  1  0
 84 83  2  0
 85 84  1  0
 86 60  1  0
 86 96  1  0
 86 87  1  0
 87 90  1  0
 88 87  1  0
 88 92  1  0
 89 88  2  0
 92 91  1  0
 92 94  1  0
 94 93  1  0
 94 95  1  0
 96 99  1  1
 96 97  1  0
 98 96  1  0
M  ISO  4  13 100  21 100  58 101  59 101
M  END
>  <TORSDO>  (24) 
F 29

>  <SCORE>  (24) 
-5.975

>  <name>  (24) 
23

>  <ligand_id>  (24) 
23

>  <original_smiles>  (24) 
[H]c1c([H])c([H])c2c(c1[H])C([H])([H])C([H])([H])C([H])([H])C2([H])N([H])C(=O)C1([H])N(C(=O)C([H])(N([H])C(=O)C([H])(N([H])C([H])([H])[H])C([H])([H])[H])C(C([H])([H])[H])(C([H])([H])[H])C([H])([H])[H])C([H])([H])c2c([H])c(OC([H])([H])C([H])([H])C([H])([H])C(=O)N([H])C([H])([H])C([H])([H])OC([H])([H])C([H])([H])C([H])([H])C([H])([H])C([H])([H])N([H])C(=O)C([H])([H])N([H])C(=O)N3C([H])([H])C([H])([H])C([H])([H])C([H])(n4nc(-c5c([H])c([H])c(Oc6c([H])c([H])c(F)c([H])c6F)c([H])c5[H])c(C(=O)N([H])[H])c4N([H])[H])C3([H])[H])c([H])c([H])c2C1([H])[H]

>  <smiles>  (24) 
[H]c1c([H])c([H])c2c(c1[H])C([H])([H])C([H])([H])C([H])([H])C2([H])N([H])C(=O)C1([H])N(C(=O)C([H])(N([H])C(=O)C([H])(N([H])C([H])([H])[H])C([H])([H])[H])C(C([H])([H])[H])(C([H])([H])[H])C([H])([H])[H])C([H])([H])c2c([H])c(OC([H])([H])C([H])([H])C([H])([H])C(=O)N([H])C([H])([H])C([H])([H])OC([H])([H])C([H])([H])C([H])([H])C([H])([H])C([H])([H])N([H])C(=O)C([H])([H])N([H])C(=O)N3C([H])([H])C([H])([H])C([H])([H])C([H])(n4nc(-c5c([H])c([H])c(Oc6c([H])c([H])c(F)c([H])c6F)c([H])c5[H])c(C(=O)N([H])[H])c4N([H])[H])C3([H])[H])c([H])c([H])c2C1([H])[H]

$$$$
24:0:0
     RDKit          3D

 97104  0  0  1  0  0  0  0  0999 V2000
  -24.1170  -28.7290   24.4650 C   0  0  0  0  0  2  0  0  0  0  0  0
  -25.1130  -27.1130   24.6360 C   0  0  0  0  0  2  0  0  0  0  0  0
  -26.7550  -26.3340   24.2570 C   0  0  0  0  0  3  0  0  0  0  0  0
  -27.3020  -24.7000   23.5880 C   0  0  0  0  0  3  0  0  0  0  0  0
  -29.1490  -22.8590   22.1360 C   0  0  0  0  0  0  0  0  0  0  0  0
  -28.7600  -23.9790   23.0610 N   0  0  0  0  0  0  0  0  0  0  0  0
  -28.1830  -22.3660   21.5540 O   0  0  0  0  0  0  0  0  0  0  0  0
  -29.5700  -24.3780   23.5210 H   0  0  0  0  0  0  0  0  0  0  0  0
  -30.6150  -22.1840   21.7980 C   0  0  0  0  0  3  0  0  0  0  0  0
  -31.1340  -21.2310   20.7630 C   0  0  0  0  0  3  0  0  0  0  0  0
  -32.6510  -20.3870   20.3540 C   0  0  0  0  0  2  0  0  0  0  0  0
  -34.5180  -18.8460   18.5110 C   0  0  0  0  0  0  0  0  0  0  0  0
  -36.1310  -18.2110   16.5120 C   0  0  0  0  0  2  0  0  0  0  0  0
  -36.6220  -19.4150   15.6510 C   0  0  0  0  0  2  0  0  0  0  0  0
  -35.5530  -19.8390   14.6290 C   0  0  0  0  0  2  0  0  0  0  0  0
  -34.1500  -19.8640   15.2800 C   0  0  0  0  0  3  0  0  0  0  0  0
  -33.8270  -18.5740   16.0550 C   0  0  0  0  0  2  0  0  0  0  0  0
  -34.7830  -18.5160   17.1500 N   0  0  0  0  0  0  0  0  0  0  0  0
  -35.4690  -18.5030   19.2440 O   0  0  0  0  0  0  0  0  0  0  0  0
  -33.3020  -19.6140   18.9810 N   0  0  0  0  0  0  0  0  0  0  0  0
  -32.6860  -19.7480   18.1910 H   0  0  0  0  0  0  0  0  0  0  0  0
  -31.9480  -20.9090   14.5750 C   0  0  0  0  0  0  0  0  0  0  0  0
  -31.2930  -20.9550   13.3790 C   0  0  0  0  0  0  0  0  0  0  0  0
  -32.0930  -20.2070   12.4600 C   0  0  0  0  0  0  0  0  0  0  0  0
  -33.0920  -20.1710   14.3440 N   0  0  0  0  0  0  0  0  0  0  0  0
  -33.1460  -19.6870   13.0780 N   0  0  0  0  0  0  0  0  0  0  0  0
  -31.9500  -20.0100   11.0140 C   0  0  0  0  0  0  0  0  0  0  0  0
  -31.8500  -18.7200   10.4490 C   0  0  0  0  0  3  0  0  0  0  0  0
  -31.6930  -18.5610    9.0550 C   0  0  0  0  0  3  0  0  0  0  0  0
  -31.6290  -19.6980    8.2150 C   0  0  0  0  0  0  0  0  0  0  0  0
  -31.7520  -20.9790    8.7820 C   0  0  0  0  0  3  0  0  0  0  0  0
  -31.9140  -21.1350   10.1680 C   0  0  0  0  0  3  0  0  0  0  0  0
  -31.5030  -19.6420    6.8480 O   0  0  0  0  0  0  0  0  0  0  0  0
  -30.8570  -18.6010    6.2290 C   0  0  0  0  0  0  0  0  0  0  0  0
  -29.4930  -18.3230    6.4650 C   0  0  0  0  0  3  0  0  0  0  0  0
  -28.8540  -17.2880    5.7540 C   0  0  0  0  0  3  0  0  0  0  0  0
  -29.5710  -16.5380    4.8030 C   0  0  0  0  0  0  0  0  0  0  0  0
  -30.9290  -16.8170    4.5640 C   0  0  0  0  0  3  0  0  0  0  0  0
  -31.5680  -17.8480    5.2730 C   0  0  0  0  0  0  0  0  0  0  0  0
  -32.8710  -18.1260    5.0240 F   0  0  0  0  0  0  0  0  0  0  0  0
  -28.9550  -15.5490    4.1150 F   0  0  0  0  0  0  0  0  0  0  0  0
  -30.0470  -21.7330   13.0820 C   0  0  0  0  0  0  0  0  0  0  0  0
  -29.1950  -21.2140   12.2070 N   0  0  0  0  0  0  0  0  0  0  0  0
  -29.7990  -22.7860   13.6680 O   0  0  0  0  0  0  0  0  0  0  0  0
  -29.3910  -20.3400   11.7420 H   0  0  0  0  0  0  0  0  0  0  0  0
  -28.3330  -21.6980   11.9980 H   0  0  0  0  0  0  0  0  0  0  0  0
  -31.6840  -21.4490   15.8330 N   0  0  0  0  0  0  0  0  0  0  0  0
  -30.8850  -22.0510   15.9990 H   0  0  0  0  0  0  0  0  0  0  0  0
  -32.3200  -21.4130   16.6180 H   0  0  0  0  0  0  0  0  0  0  0  0
  -23.1720  -29.9910   23.3320 C   0  0  0  0  0  2  0  0  0  0  0  0
  -24.1450  -30.6560   20.2820 C   0  0  0  0  0  0  0  0  0  0  0  0
  -23.3140  -30.6070   21.6040 N   0  0  0  0  0  0  0  0  0  0  0  0
  -23.5370  -31.2760   19.4120 O   0  0  0  0  0  0  0  0  0  0  0  0
  -22.5180  -31.2100   21.4440 H   0  0  0  0  0  0  0  0  0  0  0  0
  -25.7990  -30.0680   19.6390 C   0  0  0  0  0  2  0  0  0  0  0  0
  -26.7320  -28.7260   18.5930 C   0  0  0  0  0  2  0  0  0  0  0  0
  -28.0420  -27.5400   18.5390 O   0  0  0  0  0  0  0  0  0  0  0  0
  -26.6110  -29.5310   23.2710 C   0  0  0  0  0  0  0  0  0  0  0  0
  -28.2380  -26.1740   18.9020 C   0  0  0  0  0  3  0  0  0  0  0  0
  -25.1230  -27.5450   21.7010 C   0  0  0  0  0  3  0  0  0  0  0  0
  -26.0450  -26.6090   20.0100 C   0  0  0  0  0  0  0  0  0  0  0  0
  -27.5400  -28.1740   21.5410 C   0  0  0  0  0  2  0  0  0  0  0  0
  -27.3110  -26.9550   20.6720 C   0  0  0  0  0  0  0  0  0  0  0  0
  -28.4500  -26.3260   20.2420 C   0  0  0  0  0  2  0  0  0  0  0  0
  -27.2060  -25.2840   18.5290 C   0  0  0  0  0  2  0  0  0  0  0  0
  -25.9660  -25.6390   19.0210 C   0  0  0  0  0  2  0  0  0  0  0  0
  -24.8440  -27.3480   20.2240 C   0  0  0  0  0  2  0  0  0  0  0  0
  -26.3580  -28.4980   22.2900 N   0  0  0  0  0  0  0  0  0  0  0  0
  -25.7950  -30.2580   23.8530 O   0  0  0  0  0  0  0  0  0  0  0  0
  -23.8580  -26.7270   22.1090 C   0  0  0  0  0  0  0  0  0  0  0  0
  -22.5640  -27.0130   21.8920 N   0  0  0  0  0  0  0  0  0  0  0  0
  -24.1050  -25.7600   22.7520 O   0  0  0  0  0  0  0  0  0  0  0  0
  -22.3080  -27.8510   21.3910 H   0  0  0  0  0  0  0  0  0  0  0  0
  -19.1140  -26.3120   22.4230 C   0  0  0  0  0  0  0  0  0  0  0  0
  -21.6160  -26.3820   22.8110 C   0  0  0  0  0  3  0  0  0  0  0  0
  -21.5450  -24.8520   22.5480 C   0  0  0  0  0  2  0  0  0  0  0  0
  -20.6290  -24.5580   21.3950 C   0  0  0  0  0  2  0  0  0  0  0  0
  -19.2240  -24.9030   21.8620 C   0  0  0  0  0  2  0  0  0  0  0  0
  -20.2480  -27.0490   22.8400 C   0  0  0  0  0  0  0  0  0  0  0  0
  -20.0710  -28.3770   23.3020 C   0  0  0  0  0  3  0  0  0  0  0  0
  -18.7900  -28.9500   23.3610 C   0  0  0  0  0  3  0  0  0  0  0  0
  -17.6700  -28.2000   22.9710 C   0  0  0  0  0  3  0  0  0  0  0  0
  -17.8340  -26.8850   22.5090 C   0  0  0  0  0  3  0  0  0  0  0  0
  -27.9750  -29.9720   23.8330 C   0  0  0  0  0  3  0  0  0  0  0  0
  -28.5390  -28.8530   24.7860 C   0  0  1  0  0  0  0  0  0  0  0  0
  -27.5380  -28.2790   25.8420 C   0  0  0  0  0  1  0  0  0  0  0  0
  -29.2250  -27.6950   24.0130 C   0  0  0  0  0  1  0  0  0  0  0  0
  -29.6910  -29.4760   25.5970 C   0  0  0  0  0  1  0  0  0  0  0  0
  -27.7860  -31.2060   24.6660 N   0  0  0  0  0  0  0  0  0  0  0  0
  -27.7670  -32.4670   24.2310 C   0  0  0  0  0  0  0  0  0  0  0  0
  -28.1220  -32.7600   23.0900 O   0  0  0  0  0  0  0  0  0  0  0  0
  -27.4340  -31.0430   25.5980 H   0  0  0  0  0  0  0  0  0  0  0  0
  -25.9560  -34.1400   24.8530 C   0  0  0  0  0  1  0  0  0  0  0  0
  -27.3400  -33.5770   25.2220 C   0  0  0  0  0  3  0  0  0  0  0  0
  -29.5900  -34.2930   25.8880 C   0  0  0  0  0  1  0  0  0  0  0  0
  -28.3150  -34.6850   25.2970 N   0  0  0  0  0  0  0  0  0  0  0  0
  -27.9390  -35.4590   25.8380 H   0  0  0  0  0  0  0  0  0  0  0  0
  1  2  1  0
  3  2  1  0
  4  3  2  0
  5  6  1  0
  6  8  1  0
  6  4  1  0
  7  5  2  0
  9  5  1  0
 10  9  2  0
 11 10  1  0
 12 20  1  0
 12 19  2  0
 13 18  1  0
 14 13  1  0
 15 16  1  0
 15 14  1  0
 16 25  1  0
 16 17  1  0
 17 18  1  0
 18 12  1  0
 20 11  1  0
 21 20  1  0
 22 47  1  0
 23 22  2  0
 24 26  2  0
 24 23  1  0
 25 22  1  0
 26 25  1  0
 27 24  1  0
 28 27  1  0
 29 28  2  0
 30 31  2  0
 30 29  1  0
 31 32  1  0
 32 27  2  0
 33 30  1  0
 34 35  1  0
 34 33  1  0
 36 35  2  0
 37 36  1  0
 38 37  2  0
 38 39  1  0
 39 34  2  0
 40 39  1  0
 41 37  1  0
 42 23  1  0
 42 44  2  0
 43 42  1  0
 45 43  1  0
 46 43  1  0
 47 48  1  0
 47 49  1  0
 50  1  1  0
 51 52  1  0
 52 50  1  0
 53 51  2  0
 54 52  1  0
 55 51  1  0
 56 55  1  0
 57 56  1  0
 58 69  2  0
 59 57  1  0
 59 64  1  0
 60 70  1  0
 60 68  1  0
 61 67  1  0
 61 63  2  0
 62 68  1  0
 63 62  1  0
 64 63  1  0
 65 59  1  0
 65 66  1  0
 66 61  1  0
 67 60  1  0
 68 58  1  0
 70 72  2  0
 71 70  1  0
 73 71  1  0
 74 83  2  0
 74 79  1  0
 75 71  1  0
 75 79  1  0
 76 75  1  0
 77 78  1  0
 77 76  1  0
 78 74  1  0
 79 80  2  0
 80 81  1  0
 82 81  2  0
 83 82  1  0
 84 58  1  0
 84 89  1  0
 84 85  1  0
 85 88  1  1
 85 86  1  0
 87 85  1  0
 89 92  1  0
 90 89  1  0
 90 94  1  0
 91 90  2  0
 94 93  1  0
 94 96  1  0
 96 97  1  0
 96 95  1  0
M  ISO  4  12 100  20 100  56 101  57 101
M  END
>  <TORSDO>  (25) 
F 26

>  <SCORE>  (25) 
-3.869

>  <name>  (25) 
24

>  <ligand_id>  (25) 
24

>  <original_smiles>  (25) 
[H]C(C(=O)N([H])C([H])([H])C([H])([H])C([H])([H])C([H])([H])C([H])([H])N([H])C(=O)C([H])([H])C([H])([H])Oc1c([H])c([H])c2c(c1[H])C([H])([H])N(C(=O)C([H])(N([H])C(=O)C([H])(N([H])C([H])([H])[H])C([H])([H])[H])C(C([H])([H])[H])(C([H])([H])[H])C([H])([H])[H])C([H])(C(=O)N([H])C1([H])c3c([H])c([H])c([H])c([H])c3C([H])([H])C([H])([H])C1([H])[H])C2([H])[H])=C([H])C([H])([H])N([H])C(=O)N1C([H])([H])C([H])([H])C([H])([H])C([H])(n2nc(-c3c([H])c([H])c(Oc4c([H])c([H])c(F)c([H])c4F)c([H])c3[H])c(C(=O)N([H])[H])c2N([H])[H])C1([H])[H]

>  <smiles>  (25) 
[H]C(C(=O)N([H])C([H])([H])C([H])([H])C([H])([H])C([H])([H])C([H])([H])N([H])C(=O)C([H])([H])C([H])([H])Oc1c([H])c([H])c2c(c1[H])C([H])([H])N(C(=O)C([H])(N([H])C(=O)C([H])(N([H])C([H])([H])[H])C([H])([H])[H])C(C([H])([H])[H])(C([H])([H])[H])C([H])([H])[H])C([H])(C(=O)N([H])C1([H])c3c([H])c([H])c([H])c([H])c3C([H])([H])C([H])([H])C1([H])[H])C2([H])[H])=C([H])C([H])([H])N([H])C(=O)N1C([H])([H])C([H])([H])C([H])([H])C([H])(n2nc(-c3c([H])c([H])c(Oc4c([H])c([H])c(F)c([H])c4F)c([H])c3[H])c(C(=O)N([H])[H])c2N([H])[H])C1([H])[H]

$$$$
25:0:0
     RDKit          3D

101108  0  0  1  0  0  0  0  0999 V2000
  -33.1990  -27.0420   17.3990 C   0  0  0  0  0  0  0  0  0  0  0  0
  -33.1630  -28.3460   17.1120 N   0  0  0  0  0  0  0  0  0  0  0  0
  -34.0740  -26.5510   18.1160 O   0  0  0  0  0  0  0  0  0  0  0  0
  -32.4160  -28.6740   16.5150 H   0  0  0  0  0  0  0  0  0  0  0  0
  -34.0330  -29.3670   17.6950 C   0  0  0  0  0  2  0  0  0  0  0  0
  -33.7280  -29.6030   19.1870 C   0  0  0  0  0  2  0  0  0  0  0  0
  -32.3130  -29.6110   19.3830 O   0  0  0  0  0  0  0  0  0  0  0  0
  -31.8350  -28.6140   20.2820 C   0  0  0  0  0  2  0  0  0  0  0  0
  -30.4240  -28.1970   19.8520 C   0  0  0  0  0  2  0  0  0  0  0  0
  -29.8000  -27.1490   20.7970 C   0  0  0  0  0  2  0  0  0  0  0  0
  -28.5880  -26.6050   20.2700 O   0  0  0  0  0  0  0  0  0  0  0  0
  -24.6930  -31.8260   23.2200 C   0  0  0  0  0  0  0  0  0  0  0  0
  -27.4330  -27.3590   20.3040 C   0  0  0  0  0  0  0  0  0  0  0  0
  -23.5170  -30.3810   21.5850 C   0  0  0  0  0  3  0  0  0  0  0  0
  -25.0030  -28.8110   20.2290 C   0  0  0  0  0  0  0  0  0  0  0  0
  -26.0360  -30.7530   21.4230 C   0  0  0  0  0  2  0  0  0  0  0  0
  -26.1370  -29.3660   20.8320 C   0  0  0  0  0  0  0  0  0  0  0  0
  -27.3430  -28.6450   20.8840 C   0  0  0  0  0  3  0  0  0  0  0  0
  -26.2810  -26.8040   19.7070 C   0  0  0  0  0  3  0  0  0  0  0  0
  -25.0660  -27.5200   19.6700 C   0  0  0  0  0  3  0  0  0  0  0  0
  -23.7530  -29.6620   20.2260 C   0  0  0  0  0  2  0  0  0  0  0  0
  -24.7640  -31.0040   22.1350 N   0  0  0  0  0  0  0  0  0  0  0  0
  -23.6020  -32.1090   23.7340 O   0  0  0  0  0  0  0  0  0  0  0  0
  -22.8500  -29.3850   22.5560 C   0  0  0  0  0  0  0  0  0  0  0  0
  -21.5250  -29.2160   22.4220 N   0  0  0  0  0  0  0  0  0  0  0  0
  -23.5210  -28.7630   23.3860 O   0  0  0  0  0  0  0  0  0  0  0  0
  -21.0480  -29.7670   21.7220 H   0  0  0  0  0  0  0  0  0  0  0  0
  -18.1270  -28.1000   22.9220 C   0  0  0  0  0  0  0  0  0  0  0  0
  -20.6890  -28.3030   23.1980 C   0  0  0  0  0  3  0  0  0  0  0  0
  -20.7620  -26.8650   22.6320 C   0  0  0  0  0  2  0  0  0  0  0  0
  -19.6550  -26.5600   21.6180 C   0  0  0  0  0  2  0  0  0  0  0  0
  -18.2750  -26.7410   22.2580 C   0  0  0  0  0  2  0  0  0  0  0  0
  -19.2620  -28.8400   23.3490 C   0  0  0  0  0  0  0  0  0  0  0  0
  -19.0720  -30.1140   23.9250 C   0  0  0  0  0  3  0  0  0  0  0  0
  -17.7780  -30.6480   24.0810 C   0  0  0  0  0  3  0  0  0  0  0  0
  -16.6580  -29.9040   23.6740 C   0  0  0  0  0  3  0  0  0  0  0  0
  -16.8340  -28.6320   23.1000 C   0  0  0  0  0  3  0  0  0  0  0  0
  -25.9690  -32.4670   23.8500 C   0  0  0  0  0  3  0  0  0  0  0  0
  -25.6480  -33.8610   24.1790 N   0  0  0  0  0  0  0  0  0  0  0  0
  -25.9790  -34.9160   23.4230 C   0  0  0  0  0  0  0  0  0  0  0  0
  -26.6620  -34.8180   22.3990 O   0  0  0  0  0  0  0  0  0  0  0  0
  -25.0450  -34.0100   24.9770 H   0  0  0  0  0  0  0  0  0  0  0  0
  -24.2370  -36.6870   23.0430 C   0  0  0  0  0  1  0  0  0  0  0  0
  -25.4710  -36.2990   23.8720 C   0  0  0  0  0  3  0  0  0  0  0  0
  -27.5880  -37.1990   24.7310 C   0  0  0  0  0  1  0  0  0  0  0  0
  -26.4950  -37.3620   23.7760 N   0  0  0  0  0  0  0  0  0  0  0  0
  -26.0780  -38.2770   23.9260 H   0  0  0  0  0  0  0  0  0  0  0  0
  -26.4920  -31.6940   25.1230 C   0  0  1  0  0  0  0  0  0  0  0  0
  -25.4010  -31.4380   26.1890 C   0  0  0  0  0  1  0  0  0  0  0  0
  -27.0900  -30.3270   24.7210 C   0  0  0  0  0  1  0  0  0  0  0  0
  -27.6320  -32.4960   25.7930 C   0  0  0  0  0  1  0  0  0  0  0  0
  -32.0700  -26.1780   16.8210 C   0  0  0  0  0  2  0  0  0  0  0  0
  -32.2610  -23.9080   17.8100 C   0  0  0  0  0  0  0  0  0  0  0  0
  -31.6930  -25.1150   17.7500 N   0  0  0  0  0  0  0  0  0  0  0  0
  -33.0560  -23.5060   16.9580 O   0  0  0  0  0  0  0  0  0  0  0  0
  -31.0470  -25.3640   18.4830 H   0  0  0  0  0  0  0  0  0  0  0  0
  -31.8380  -23.1760   18.9890 C   0  0  0  0  0  3  0  0  0  0  0  0
  -32.4240  -22.0080   19.3100 C   0  0  0  0  0  3  0  0  0  0  0  0
  -32.0680  -21.1660   20.5170 C   0  0  0  0  0  2  0  0  0  0  0  0
  -31.5000  -19.8070   20.0950 C   0  0  0  0  0  2  0  0  0  0  0  0
  -31.3250  -18.8430   21.2780 C   0  0  0  0  0  2  0  0  0  0  0  0
  -30.7150  -17.5070   20.8360 C   0  0  0  0  0  2  0  0  0  0  0  0
  -30.8320  -16.4080   21.9080 C   0  0  0  0  0  2  0  0  0  0  0  0
  -30.7320  -14.3330   20.5220 C   0  0  0  0  0  0  0  0  0  0  0  0
  -30.3500  -12.2790   19.2130 C   0  0  0  0  0  2  0  0  0  0  0  0
  -29.4000  -12.5450   18.0300 C   0  0  0  0  0  2  0  0  0  0  0  0
  -27.9290  -12.4110   18.4700 C   0  0  0  0  0  2  0  0  0  0  0  0
  -27.6170  -13.2130   19.7610 C   0  0  0  0  0  3  0  0  0  0  0  0
  -28.6700  -12.9200   20.8510 C   0  0  0  0  0  2  0  0  0  0  0  0
  -30.0050  -13.2100   20.2960 N   0  0  0  0  0  0  0  0  0  0  0  0
  -31.7710  -14.6030   19.9120 O   0  0  0  0  0  0  0  0  0  0  0  0
  -30.2430  -15.1470   21.4660 N   0  0  0  0  0  0  0  0  0  0  0  0
  -29.3960  -14.8440   21.9260 H   0  0  0  0  0  0  0  0  0  0  0  0
  -25.2150  -13.8330   20.4570 C   0  0  0  0  0  0  0  0  0  0  0  0
  -24.1460  -13.0650   20.8330 C   0  0  0  0  0  0  0  0  0  0  0  0
  -24.6060  -11.7130   20.8140 C   0  0  0  0  0  0  0  0  0  0  0  0
  -26.2600  -12.9490   20.2370 N   0  0  0  0  0  0  0  0  0  0  0  0
  -25.8950  -11.6690   20.5060 N   0  0  0  0  0  0  0  0  0  0  0  0
  -23.8790  -10.4530   21.0170 C   0  0  0  0  0  0  0  0  0  0  0  0
  -24.3230   -9.4860   21.9450 C   0  0  0  0  0  3  0  0  0  0  0  0
  -23.5980   -8.2900   22.1340 C   0  0  0  0  0  3  0  0  0  0  0  0
  -22.4150   -8.0530   21.3950 C   0  0  0  0  0  0  0  0  0  0  0  0
  -21.9900   -9.0090   20.4570 C   0  0  0  0  0  3  0  0  0  0  0  0
  -22.7150  -10.1960   20.2650 C   0  0  0  0  0  3  0  0  0  0  0  0
  -21.6600   -6.9090   21.4950 O   0  0  0  0  0  0  0  0  0  0  0  0
  -21.6420   -6.1550   22.6400 C   0  0  0  0  0  0  0  0  0  0  0  0
  -21.2670   -6.7040   23.8870 C   0  0  0  0  0  3  0  0  0  0  0  0
  -21.1950   -5.8770   25.0260 C   0  0  0  0  0  3  0  0  0  0  0  0
  -21.4870   -4.5040   24.9210 C   0  0  0  0  0  0  0  0  0  0  0  0
  -21.8550   -3.9560   23.6790 C   0  0  0  0  0  3  0  0  0  0  0  0
  -21.9290   -4.7790   22.5420 C   0  0  0  0  0  0  0  0  0  0  0  0
  -22.2640   -4.2410   21.3450 F   0  0  0  0  0  0  0  0  0  0  0  0
  -21.4110   -3.7080   26.0130 F   0  0  0  0  0  0  0  0  0  0  0  0
  -22.7490  -13.5460   21.1030 C   0  0  0  0  0  0  0  0  0  0  0  0
  -22.0230  -12.8590   21.9790 N   0  0  0  0  0  0  0  0  0  0  0  0
  -22.3090  -14.5650   20.5730 O   0  0  0  0  0  0  0  0  0  0  0  0
  -22.3910  -12.0350   22.4310 H   0  0  0  0  0  0  0  0  0  0  0  0
  -21.0860  -13.1640   22.2030 H   0  0  0  0  0  0  0  0  0  0  0  0
  -25.3820  -15.2020   20.2670 N   0  0  0  0  0  0  0  0  0  0  0  0
  -24.6190  -15.8620   20.3720 H   0  0  0  0  0  0  0  0  0  0  0  0
  -26.2420  -15.6360   19.9520 H   0  0  0  0  0  0  0  0  0  0  0  0
  1  3  2  0
  2  1  1  0
  2  5  1  0
  4  2  1  0
  5  6  1  0
  6  7  1  0
  7  8  1  0
  9  8  1  0
  9 10  1  0
 11 13  1  0
 11 10  1  0
 12 23  2  0
 13 18  1  0
 14 22  1  0
 14 24  1  0
 15 17  1  0
 16 22  1  0
 17 18  2  0
 17 16  1  0
 19 13  2  0
 20 19  1  0
 20 15  2  0
 21 15  1  0
 21 14  1  0
 22 12  1  0
 24 26  2  0
 25 24  1  0
 27 25  1  0
 28 37  2  0
 28 33  1  0
 29 25  1  0
 29 33  1  0
 30 29  1  0
 31 32  1  0
 31 30  1  0
 32 28  1  0
 33 34  2  0
 34 35  1  0
 36 35  2  0
 37 36  1  0
 38 12  1  0
 38 39  1  0
 38 48  1  0
 39 42  1  0
 40 44  1  0
 40 39  1  0
 41 40  2  0
 44 43  1  0
 46 44  1  0
 46 47  1  0
 46 45  1  0
 48 51  1  1
 48 49  1  0
 50 48  1  0
 52  1  1  0
 52 54  1  0
 53 57  1  0
 54 53  1  0
 54 56  1  0
 55 53  2  0
 57 58  2  0
 58 59  1  0
 60 59  1  0
 60 61  1  0
 62 61  1  0
 62 63  1  0
 64 72  1  0
 65 70  1  0
 66 67  1  0
 66 65  1  0
 68 67  1  0
 68 77  1  0
 68 69  1  0
 70 64  1  0
 70 69  1  0
 71 64  2  0
 72 63  1  0
 72 73  1  0
 74 75  2  0
 75 94  1  0
 76 75  1  0
 76 79  1  0
 77 74  1  0
 77 78  1  0
 78 76  2  0
 79 80  1  0
 80 81  2  0
 82 85  1  0
 82 81  1  0
 83 82  2  0
 84 83  1  0
 84 79  2  0
 85 86  1  0
 86 87  1  0
 87 88  2  0
 89 88  1  0
 89 93  1  0
 90 89  2  0
 91 86  2  0
 91 90  1  0
 92 91  1  0
 94 95  1  0
 95 98  1  0
 95 97  1  0
 96 94  2  0
 99100  1  0
 99 74  1  0
101 99  1  0
M  ISO  4  10 101  11 101  64 100  72 100
M  END
>  <TORSDO>  (26) 
F 30

>  <SCORE>  (26) 
-10.939

>  <name>  (26) 
25

>  <ligand_id>  (26) 
25

>  <original_smiles>  (26) 
[H]C(C(=O)N([H])C([H])([H])C(=O)N([H])C([H])([H])C([H])([H])OC([H])([H])C([H])([H])C([H])([H])Oc1c([H])c([H])c2c(c1[H])C([H])([H])N(C(=O)C([H])(N([H])C(=O)C([H])(N([H])C([H])([H])[H])C([H])([H])[H])C(C([H])([H])[H])(C([H])([H])[H])C([H])([H])[H])C([H])(C(=O)N([H])C1([H])c3c([H])c([H])c([H])c([H])c3C([H])([H])C([H])([H])C1([H])[H])C2([H])[H])=C([H])C([H])([H])C([H])([H])C([H])([H])C([H])([H])C([H])([H])N([H])C(=O)N1C([H])([H])C([H])([H])C([H])([H])C([H])(n2nc(-c3c([H])c([H])c(Oc4c([H])c([H])c(F)c([H])c4F)c([H])c3[H])c(C(=O)N([H])[H])c2N([H])[H])C1([H])[H]

>  <smiles>  (26) 
[H]C(C(=O)N([H])C([H])([H])C(=O)N([H])C([H])([H])C([H])([H])OC([H])([H])C([H])([H])C([H])([H])Oc1c([H])c([H])c2c(c1[H])C([H])([H])N(C(=O)C([H])(N([H])C(=O)C([H])(N([H])C([H])([H])[H])C([H])([H])[H])C(C([H])([H])[H])(C([H])([H])[H])C([H])([H])[H])C([H])(C(=O)N([H])C1([H])c3c([H])c([H])c([H])c([H])c3C([H])([H])C([H])([H])C1([H])[H])C2([H])[H])=C([H])C([H])([H])C([H])([H])C([H])([H])C([H])([H])C([H])([H])N([H])C(=O)N1C([H])([H])C([H])([H])C([H])([H])C([H])(n2nc(-c3c([H])c([H])c(Oc4c([H])c([H])c(F)c([H])c4F)c([H])c3[H])c(C(=O)N([H])[H])c2N([H])[H])C1([H])[H]

$$$$
26:0:0
     RDKit          3D

106113  0  0  1  0  0  0  0  0999 V2000
  -23.8090  -22.7650   20.7170 C   0  0  0  0  0  0  0  0  0  0  0  0
  -23.9130  -21.5440   20.1830 N   0  0  0  0  0  0  0  0  0  0  0  0
  -23.2080  -23.6850   20.1540 O   0  0  0  0  0  0  0  0  0  0  0  0
  -24.3860  -20.8280   20.7230 H   0  0  0  0  0  0  0  0  0  0  0  0
  -24.5560  -23.0380   22.0250 C   0  0  0  0  0  2  0  0  0  0  0  0
  -26.4960  -24.0510   20.8520 C   0  0  0  0  0  0  0  0  0  0  0  0
  -25.5490  -24.0900   21.7960 N   0  0  0  0  0  0  0  0  0  0  0  0
  -26.7570  -23.0230   20.2220 O   0  0  0  0  0  0  0  0  0  0  0  0
  -25.3680  -24.9750   22.2490 H   0  0  0  0  0  0  0  0  0  0  0  0
  -27.2010  -25.3700   20.5160 C   0  0  0  0  0  2  0  0  0  0  0  0
  -28.0430  -25.3220   19.2150 C   0  0  0  0  0  2  0  0  0  0  0  0
  -27.2150  -25.2100   17.9870 N   0  0  0  0  0  4  0  0  0  0  0  0
  -26.5460  -25.9650   17.9720 H   0  0  0  0  0  0  0  0  0  0  0  0
  -26.7060  -24.3390   18.0410 H   0  0  0  0  0  0  0  0  0  0  0  0
  -27.9900  -25.2070   16.7230 C   0  0  0  0  0  2  0  0  0  0  0  0
  -27.3280  -26.0330   15.5990 C   0  0  0  0  0  2  0  0  0  0  0  0
  -27.2090  -27.4060   15.9880 O   0  0  0  0  0  0  0  0  0  0  0  0
  -25.5350  -28.8670   22.7180 C   0  0  0  0  0  0  0  0  0  0  0  0
  -26.2100  -27.8290   16.8390 C   0  0  0  0  0  0  0  0  0  0  0  0
  -23.6420  -28.9250   21.1240 C   0  0  0  0  0  3  0  0  0  0  0  0
  -24.2790  -28.8210   18.6570 C   0  0  0  0  0  0  0  0  0  0  0  0
  -26.0220  -29.4380   20.3400 C   0  0  0  0  0  2  0  0  0  0  0  0
  -25.6380  -28.8590   18.9920 C   0  0  0  0  0  0  0  0  0  0  0  0
  -26.6020  -28.3730   18.0830 C   0  0  0  0  0  3  0  0  0  0  0  0
  -24.8310  -27.7870   16.5230 C   0  0  0  0  0  3  0  0  0  0  0  0
  -23.8710  -28.2800   17.4260 C   0  0  0  0  0  3  0  0  0  0  0  0
  -23.3060  -29.3740   19.6750 C   0  0  0  0  0  2  0  0  0  0  0  0
  -25.1030  -29.0490   21.4380 N   0  0  0  0  0  0  0  0  0  0  0  0
  -24.7330  -28.6430   23.6360 O   0  0  0  0  0  0  0  0  0  0  0  0
  -23.0910  -27.4950   21.3300 C   0  0  0  0  0  0  0  0  0  0  0  0
  -21.7560  -27.3600   21.2940 N   0  0  0  0  0  0  0  0  0  0  0  0
  -23.8550  -26.5380   21.4860 O   0  0  0  0  0  0  0  0  0  0  0  0
  -21.2010  -28.1960   21.1690 H   0  0  0  0  0  0  0  0  0  0  0  0
  -18.4620  -25.8970   21.0250 C   0  0  0  0  0  0  0  0  0  0  0  0
  -21.0090  -26.1090   21.4210 C   0  0  0  0  0  3  0  0  0  0  0  0
  -21.1750  -25.2280   20.1610 C   0  0  0  0  0  2  0  0  0  0  0  0
  -20.0690  -25.4470   19.1230 C   0  0  0  0  0  2  0  0  0  0  0  0
  -18.6950  -25.1420   19.7280 C   0  0  0  0  0  2  0  0  0  0  0  0
  -19.5490  -26.3670   21.8110 C   0  0  0  0  0  0  0  0  0  0  0  0
  -19.2740  -27.0980   22.9870 C   0  0  0  0  0  3  0  0  0  0  0  0
  -17.9480  -27.3570   23.3830 C   0  0  0  0  0  3  0  0  0  0  0  0
  -16.8780  -26.8740   22.6090 C   0  0  0  0  0  3  0  0  0  0  0  0
  -17.1360  -26.1430   21.4380 C   0  0  0  0  0  3  0  0  0  0  0  0
  -27.0470  -28.9520   23.0980 C   0  0  0  0  0  3  0  0  0  0  0  0
  -27.7210  -27.5380   23.2830 C   0  0  1  0  0  0  0  0  0  0  0  0
  -26.9410  -26.5960   24.2300 C   0  0  0  0  0  1  0  0  0  0  0  0
  -27.8690  -26.8280   21.9170 C   0  0  0  0  0  1  0  0  0  0  0  0
  -29.1450  -27.7040   23.8610 C   0  0  0  0  0  1  0  0  0  0  0  0
  -27.1500  -29.7440   24.3290 N   0  0  0  0  0  0  0  0  0  0  0  0
  -27.5750  -31.0120   24.3840 C   0  0  0  0  0  0  0  0  0  0  0  0
  -27.9930  -31.6220   23.3950 O   0  0  0  0  0  0  0  0  0  0  0  0
  -26.7730  -29.3260   25.1680 H   0  0  0  0  0  0  0  0  0  0  0  0
  -26.3210  -32.6620   25.8080 C   0  0  0  0  0  1  0  0  0  0  0  0
  -27.5310  -31.7160   25.7540 C   0  0  0  0  0  3  0  0  0  0  0  0
  -29.9230  -31.6050   26.2940 C   0  0  0  0  0  1  0  0  0  0  0  0
  -28.7640  -32.4670   26.0720 N   0  0  0  0  0  0  0  0  0  0  0  0
  -28.6310  -33.0360   26.9050 H   0  0  0  0  0  0  0  0  0  0  0  0
  -23.5730  -21.2400   18.7940 C   0  0  0  0  0  2  0  0  0  0  0  0
  -24.7480  -21.6230   17.8660 C   0  0  0  0  0  2  0  0  0  0  0  0
  -25.8730  -20.5730   17.8580 C   0  0  0  0  0  2  0  0  0  0  0  0
  -27.2980  -21.1590   17.8540 C   0  0  0  0  0  2  0  0  0  0  0  0
  -28.3250  -20.0930   17.4420 C   0  0  0  0  0  2  0  0  0  0  0  0
  -29.7330  -20.2680   18.0460 C   0  0  0  0  0  2  0  0  0  0  0  0
  -29.9530  -18.2480   19.4800 C   0  0  0  0  0  0  0  0  0  0  0  0
  -29.8940  -19.5800   19.3290 N   0  0  0  0  0  0  0  0  0  0  0  0
  -29.7940  -17.4800   18.5280 O   0  0  0  0  0  0  0  0  0  0  0  0
  -30.0480  -20.1540   20.1500 H   0  0  0  0  0  0  0  0  0  0  0  0
  -30.2320  -17.7060   20.8940 C   0  0  0  0  0  2  0  0  0  0  0  0
  -30.6820  -15.2740   20.5600 C   0  0  0  0  0  0  0  0  0  0  0  0
  -30.6460  -12.9150   19.8460 C   0  0  0  0  0  2  0  0  0  0  0  0
  -29.8110  -12.7630   18.5590 C   0  0  0  0  0  2  0  0  0  0  0  0
  -28.3210  -12.5690   18.8970 C   0  0  0  0  0  2  0  0  0  0  0  0
  -27.7950  -13.6260   19.9040 C   0  0  0  0  0  3  0  0  0  0  0  0
  -28.7470  -13.7500   21.1130 C   0  0  0  0  0  2  0  0  0  0  0  0
  -30.1010  -14.0490   20.6070 N   0  0  0  0  0  0  0  0  0  0  0  0
  -31.7960  -15.4810   20.0670 O   0  0  0  0  0  0  0  0  0  0  0  0
  -29.9320  -16.2770   21.0310 N   0  0  0  0  0  0  0  0  0  0  0  0
  -29.0290  -16.0340   21.4060 H   0  0  0  0  0  0  0  0  0  0  0  0
  -25.3670  -14.1920   20.5550 C   0  0  0  0  0  0  0  0  0  0  0  0
  -24.2910  -13.3990   20.8540 C   0  0  0  0  0  0  0  0  0  0  0  0
  -24.7630  -12.0520   20.7790 C   0  0  0  0  0  0  0  0  0  0  0  0
  -26.4250  -13.3280   20.3220 N   0  0  0  0  0  0  0  0  0  0  0  0
  -26.0620  -12.0320   20.5110 N   0  0  0  0  0  0  0  0  0  0  0  0
  -24.0400  -10.7780   20.8910 C   0  0  0  0  0  0  0  0  0  0  0  0
  -24.4290   -9.7890   21.8210 C   0  0  0  0  0  3  0  0  0  0  0  0
  -23.7070   -8.5800   21.9220 C   0  0  0  0  0  3  0  0  0  0  0  0
  -22.5840   -8.3520   21.0920 C   0  0  0  0  0  0  0  0  0  0  0  0
  -22.2150   -9.3320   20.1530 C   0  0  0  0  0  3  0  0  0  0  0  0
  -22.9380  -10.5320   20.0500 C   0  0  0  0  0  3  0  0  0  0  0  0
  -21.8390   -7.1980   21.1030 O   0  0  0  0  0  0  0  0  0  0  0  0
  -21.6990   -6.4410   22.2390 C   0  0  0  0  0  0  0  0  0  0  0  0
  -21.1530   -6.9730   23.4260 C   0  0  0  0  0  3  0  0  0  0  0  0
  -20.9630   -6.1430   24.5490 C   0  0  0  0  0  3  0  0  0  0  0  0
  -21.3100   -4.7800   24.4830 C   0  0  0  0  0  0  0  0  0  0  0  0
  -21.8490   -4.2460   23.3000 C   0  0  0  0  0  3  0  0  0  0  0  0
  -22.0400   -5.0730   22.1800 C   0  0  0  0  0  0  0  0  0  0  0  0
  -22.5410   -4.5500   21.0350 F   0  0  0  0  0  0  0  0  0  0  0  0
  -21.1200   -3.9800   25.5580 F   0  0  0  0  0  0  0  0  0  0  0  0
  -22.8830  -13.8550   21.1040 C   0  0  0  0  0  0  0  0  0  0  0  0
  -22.1360  -13.1210   21.9200 N   0  0  0  0  0  0  0  0  0  0  0  0
  -22.4520  -14.8970   20.6110 O   0  0  0  0  0  0  0  0  0  0  0  0
  -22.4960  -12.2770   22.3410 H   0  0  0  0  0  0  0  0  0  0  0  0
  -21.1900  -13.4070   22.1290 H   0  0  0  0  0  0  0  0  0  0  0  0
  -25.5280  -15.5710   20.4430 N   0  0  0  0  0  0  0  0  0  0  0  0
  -24.7560  -16.2170   20.5610 H   0  0  0  0  0  0  0  0  0  0  0  0
  -26.3890  -16.0250   20.1610 H   0  0  0  0  0  0  0  0  0  0  0  0
  1  5  1  0
  2  1  1  0
  2  4  1  0
  3  1  2  0
  6  7  1  0
  7  5  1  0
  7  9  1  0
  8  6  2  0
 10  6  1  0
 11 10  1  0
 12 14  1  0
 12 11  1  0
 13 12  1  0
 15 12  1  0
 16 17  1  0
 16 15  1  0
 17 19  1  0
 18 29  2  0
 19 24  1  0
 20 30  1  0
 20 28  1  0
 21 23  1  0
 21 27  1  0
 22 28  1  0
 23 22  1  0
 24 23  2  0
 25 19  2  0
 25 26  1  0
 26 21  2  0
 27 20  1  0
 28 18  1  0
 30 32  2  0
 31 30  1  0
 33 31  1  0
 34 43  2  0
 34 39  1  0
 35 31  1  0
 35 39  1  0
 36 35  1  0
 37 38  1  0
 37 36  1  0
 38 34  1  0
 39 40  2  0
 40 41  1  0
 42 41  2  0
 43 42  1  0
 44 18  1  0
 44 45  1  0
 44 49  1  0
 45 48  1  1
 45 46  1  0
 47 45  1  0
 49 50  1  0
 49 52  1  0
 50 54  1  0
 51 50  2  0
 54 53  1  0
 54 56  1  0
 56 55  1  0
 56 57  1  0
 58  2  1  0
 59 58  1  0
 60 59  1  0
 61 60  1  0
 62 61  1  0
 62 63  1  0
 63 65  1  0
 64 68  1  0
 65 64  1  0
 65 67  1  0
 66 64  2  0
 68 77  1  0
 69 75  1  0
 69 77  1  0
 70 75  1  0
 71 72  1  0
 71 70  1  0
 73 72  1  0
 73 82  1  0
 73 74  1  0
 75 74  1  0
 76 69  2  0
 77 78  1  0
 79 80  2  0
 80 99  1  0
 81 80  1  0
 81 84  1  0
 82 83  1  0
 82 79  1  0
 83 81  2  0
 84 85  1  0
 85 86  2  0
 87 90  1  0
 87 86  1  0
 88 87  2  0
 89 88  1  0
 89 84  2  0
 90 91  1  0
 91 92  1  0
 92 93  2  0
 94 93  1  0
 94 98  1  0
 95 94  2  0
 96 91  2  0
 96 95  1  0
 97 96  1  0
 99100  1  0
100103  1  0
100102  1  0
101 99  2  0
104 79  1  0
104105  1  0
106104  1  0
M  ISO  4  16 101  17 101  69 100  77 100
M  END
>  <TORSDO>  (27) 
F 31

>  <SCORE>  (27) 
-5.689

>  <name>  (27) 
26

>  <ligand_id>  (27) 
26

>  <original_smiles>  (27) 
[H]c1c([H])c([H])c2c(c1[H])C([H])([H])C([H])([H])C([H])([H])C2([H])N([H])C(=O)C1([H])N(C(=O)C([H])(N([H])C(=O)C([H])(N([H])C([H])([H])[H])C([H])([H])[H])C(C([H])([H])[H])(C([H])([H])[H])C([H])([H])[H])C([H])([H])c2c([H])c(OC([H])([H])C([H])([H])[N+]([H])([H])C([H])([H])C([H])([H])C(=O)N([H])C([H])([H])C(=O)N([H])C([H])([H])C([H])([H])C([H])([H])C([H])([H])C([H])([H])C([H])([H])N([H])C(=O)C([H])([H])N([H])C(=O)N3C([H])([H])C([H])([H])C([H])([H])C([H])(n4nc(-c5c([H])c([H])c(Oc6c([H])c([H])c(F)c([H])c6F)c([H])c5[H])c(C(=O)N([H])[H])c4N([H])[H])C3([H])[H])c([H])c([H])c2C1([H])[H]

>  <smiles>  (27) 
[H]c1c([H])c([H])c2c(c1[H])C([H])([H])C([H])([H])C([H])([H])C2([H])N([H])C(=O)C1([H])N(C(=O)C([H])(N([H])C(=O)C([H])(N([H])C([H])([H])[H])C([H])([H])[H])C(C([H])([H])[H])(C([H])([H])[H])C([H])([H])[H])C([H])([H])c2c([H])c(OC([H])([H])C([H])([H])[N+]([H])([H])C([H])([H])C([H])([H])C(=O)N([H])C([H])([H])C(=O)N([H])C([H])([H])C([H])([H])C([H])([H])C([H])([H])C([H])([H])C([H])([H])N([H])C(=O)C([H])([H])N([H])C(=O)N3C([H])([H])C([H])([H])C([H])([H])C([H])(n4nc(-c5c([H])c([H])c(Oc6c([H])c([H])c(F)c([H])c6F)c([H])c5[H])c(C(=O)N([H])[H])c4N([H])[H])C3([H])[H])c([H])c([H])c2C1([H])[H]

$$$$
27:0:0
     RDKit          3D

 98105  0  0  1  0  0  0  0  0999 V2000
  -34.1250  -23.1910   23.0960 C   0  0  0  0  0  0  0  0  0  0  0  0
  -33.3410  -24.1160   22.5250 N   0  0  0  0  0  0  0  0  0  0  0  0
  -34.3990  -23.2000   24.2970 O   0  0  0  0  0  0  0  0  0  0  0  0
  -33.1950  -24.0470   21.5270 H   0  0  0  0  0  0  0  0  0  0  0  0
  -34.6850  -22.1010   22.1730 C   0  0  0  0  0  2  0  0  0  0  0  0
  -35.0470  -20.7760   22.8810 C   0  0  0  0  0  2  0  0  0  0  0  0
  -33.8360  -19.9930   23.4210 C   0  0  0  0  0  2  0  0  0  0  0  0
  -34.2370  -18.6390   24.0370 C   0  0  0  0  0  2  0  0  0  0  0  0
  -33.0600  -17.8600   24.6490 C   0  0  0  0  0  2  0  0  0  0  0  0
  -31.8150  -16.4790   22.9840 C   0  0  0  0  0  0  0  0  0  0  0  0
  -32.0110  -17.6130   23.6640 N   0  0  0  0  0  0  0  0  0  0  0  0
  -32.4940  -15.4640   23.1600 O   0  0  0  0  0  0  0  0  0  0  0  0
  -31.3810  -18.3800   23.4700 H   0  0  0  0  0  0  0  0  0  0  0  0
  -30.6830  -16.5090   21.9530 C   0  0  0  0  0  2  0  0  0  0  0  0
  -30.7440  -14.3690   20.6750 C   0  0  0  0  0  0  0  0  0  0  0  0
  -30.4230  -12.2860   19.3910 C   0  0  0  0  0  2  0  0  0  0  0  0
  -29.4860  -12.5270   18.1920 C   0  0  0  0  0  2  0  0  0  0  0  0
  -28.0090  -12.3840   18.6070 C   0  0  0  0  0  2  0  0  0  0  0  0
  -27.6690  -13.1970   19.8830 C   0  0  0  0  0  3  0  0  0  0  0  0
  -28.7060  -12.9180   20.9930 C   0  0  0  0  0  2  0  0  0  0  0  0
  -30.0500  -13.2220   20.4610 N   0  0  0  0  0  0  0  0  0  0  0  0
  -31.7730  -14.6690   20.0620 O   0  0  0  0  0  0  0  0  0  0  0  0
  -30.2050  -15.1780   21.5920 N   0  0  0  0  0  0  0  0  0  0  0  0
  -29.3870  -14.8390   22.0730 H   0  0  0  0  0  0  0  0  0  0  0  0
  -25.2620  -13.8140   20.5670 C   0  0  0  0  0  0  0  0  0  0  0  0
  -24.1850  -13.0430   20.9160 C   0  0  0  0  0  0  0  0  0  0  0  0
  -24.6390  -11.6900   20.8720 C   0  0  0  0  0  0  0  0  0  0  0  0
  -26.3060  -12.9300   20.3390 N   0  0  0  0  0  0  0  0  0  0  0  0
  -25.9320  -11.6470   20.5760 N   0  0  0  0  0  0  0  0  0  0  0  0
  -23.9050  -10.4290   21.0400 C   0  0  0  0  0  0  0  0  0  0  0  0
  -24.3610   -9.4210   21.9180 C   0  0  0  0  0  3  0  0  0  0  0  0
  -23.6290   -8.2240   22.0750 C   0  0  0  0  0  3  0  0  0  0  0  0
  -22.4270   -8.0280   21.3550 C   0  0  0  0  0  0  0  0  0  0  0  0
  -21.9900   -9.0250   20.4650 C   0  0  0  0  0  3  0  0  0  0  0  0
  -22.7230  -10.2130   20.3050 C   0  0  0  0  0  3  0  0  0  0  0  0
  -21.6640   -6.8880   21.4240 O   0  0  0  0  0  0  0  0  0  0  0  0
  -21.6850   -6.0740   22.5280 C   0  0  0  0  0  0  0  0  0  0  0  0
  -21.4010   -6.5640   23.8210 C   0  0  0  0  0  3  0  0  0  0  0  0
  -21.3660   -5.6790   24.9170 C   0  0  0  0  0  3  0  0  0  0  0  0
  -21.6040   -4.3050   24.7230 C   0  0  0  0  0  0  0  0  0  0  0  0
  -21.8820   -3.8150   23.4350 C   0  0  0  0  0  3  0  0  0  0  0  0
  -21.9190   -4.6960   22.3400 C   0  0  0  0  0  0  0  0  0  0  0  0
  -22.1660   -4.2150   21.0980 F   0  0  0  0  0  0  0  0  0  0  0  0
  -21.5630   -3.4540   25.7740 F   0  0  0  0  0  0  0  0  0  0  0  0
  -22.7880  -13.5240   21.1830 C   0  0  0  0  0  0  0  0  0  0  0  0
  -22.0510  -12.8240   22.0380 N   0  0  0  0  0  0  0  0  0  0  0  0
  -22.3570  -14.5560   20.6690 O   0  0  0  0  0  0  0  0  0  0  0  0
  -22.4120  -11.9890   22.4760 H   0  0  0  0  0  0  0  0  0  0  0  0
  -21.1130  -13.1270   22.2590 H   0  0  0  0  0  0  0  0  0  0  0  0
  -25.4360  -15.1860   20.4090 N   0  0  0  0  0  0  0  0  0  0  0  0
  -24.6750  -15.8470   20.5190 H   0  0  0  0  0  0  0  0  0  0  0  0
  -26.2990  -15.6230   20.1070 H   0  0  0  0  0  0  0  0  0  0  0  0
  -32.6690  -25.2140   23.2180 C   0  0  0  0  0  2  0  0  0  0  0  0
  -31.1390  -25.0770   23.1390 C   0  0  0  0  0  2  0  0  0  0  0  0
  -30.5580  -25.2780   21.7270 C   0  0  0  0  0  2  0  0  0  0  0  0
  -29.0330  -25.0720   21.6970 C   0  0  0  0  0  2  0  0  0  0  0  0
  -28.3920  -25.3620   20.3310 C   0  0  0  0  0  2  0  0  0  0  0  0
  -28.4280  -26.7680   20.0760 O   0  0  0  0  0  0  0  0  0  0  0  0
  -24.6110  -31.8690   23.2130 C   0  0  0  0  0  0  0  0  0  0  0  0
  -27.2370  -27.4570   20.0950 C   0  0  0  0  0  0  0  0  0  0  0  0
  -23.3970  -30.4930   21.5530 C   0  0  0  0  0  3  0  0  0  0  0  0
  -24.8430  -28.9620   20.1170 C   0  0  0  0  0  0  0  0  0  0  0  0
  -25.9230  -30.8410   21.3630 C   0  0  0  0  0  2  0  0  0  0  0  0
  -26.0010  -29.4770   20.7120 C   0  0  0  0  0  0  0  0  0  0  0  0
  -27.2000  -28.7330   20.6970 C   0  0  0  0  0  3  0  0  0  0  0  0
  -26.0640  -26.9530   19.4880 C   0  0  0  0  0  3  0  0  0  0  0  0
  -24.8690  -27.6970   19.5030 C   0  0  0  0  0  3  0  0  0  0  0  0
  -23.6040  -29.8260   20.1680 C   0  0  0  0  0  2  0  0  0  0  0  0
  -24.6620  -31.0820   22.1010 N   0  0  0  0  0  0  0  0  0  0  0  0
  -23.5310  -32.1430   23.7540 O   0  0  0  0  0  0  0  0  0  0  0  0
  -22.7400  -29.4650   22.5020 C   0  0  0  0  0  0  0  0  0  0  0  0
  -21.4130  -29.3010   22.3760 N   0  0  0  0  0  0  0  0  0  0  0  0
  -23.4190  -28.8190   23.3050 O   0  0  0  0  0  0  0  0  0  0  0  0
  -20.9280  -29.8740   21.6990 H   0  0  0  0  0  0  0  0  0  0  0  0
  -18.0270  -28.1370   22.8490 C   0  0  0  0  0  0  0  0  0  0  0  0
  -20.5860  -28.3640   23.1340 C   0  0  0  0  0  3  0  0  0  0  0  0
  -20.6760  -26.9380   22.5430 C   0  0  0  0  0  2  0  0  0  0  0  0
  -19.5740  -26.6380   21.5230 C   0  0  0  0  0  2  0  0  0  0  0  0
  -18.1920  -26.7910   22.1630 C   0  0  0  0  0  2  0  0  0  0  0  0
  -19.1520  -28.8820   23.2910 C   0  0  0  0  0  0  0  0  0  0  0  0
  -18.9450  -30.1440   23.8910 C   0  0  0  0  0  3  0  0  0  0  0  0
  -17.6450  -30.6570   24.0570 C   0  0  0  0  0  3  0  0  0  0  0  0
  -16.5340  -29.9070   23.6330 C   0  0  0  0  0  3  0  0  0  0  0  0
  -16.7260  -28.6500   23.0330 C   0  0  0  0  0  3  0  0  0  0  0  0
  -25.9020  -32.4820   23.8410 C   0  0  0  0  0  3  0  0  0  0  0  0
  -25.5890  -33.8620   24.2340 N   0  0  0  0  0  0  0  0  0  0  0  0
  -25.9030  -34.9480   23.5140 C   0  0  0  0  0  0  0  0  0  0  0  0
  -26.5590  -34.8920   22.4700 O   0  0  0  0  0  0  0  0  0  0  0  0
  -25.0030  -33.9790   25.0470 H   0  0  0  0  0  0  0  0  0  0  0  0
  -24.1480  -36.7320   23.2640 C   0  0  0  0  0  1  0  0  0  0  0  0
  -25.4100  -36.3120   24.0340 C   0  0  0  0  0  3  0  0  0  0  0  0
  -27.5580  -37.1810   24.8460 C   0  0  0  0  0  1  0  0  0  0  0  0
  -26.4290  -37.3800   23.9410 N   0  0  0  0  0  0  0  0  0  0  0  0
  -26.0180  -38.2880   24.1410 H   0  0  0  0  0  0  0  0  0  0  0  0
  -26.4450  -31.6590   25.0730 C   0  0  1  0  0  0  0  0  0  0  0  0
  -25.3740  -31.3700   26.1490 C   0  0  0  0  0  1  0  0  0  0  0  0
  -27.0300  -30.3050   24.6070 C   0  0  0  0  0  1  0  0  0  0  0  0
  -27.6030  -32.4320   25.7480 C   0  0  0  0  0  1  0  0  0  0  0  0
  1  3  2  0
  2  1  1  0
  2 53  1  0
  4  2  1  0
  5  6  1  0
  5  1  1  0
  6  7  1  0
  7  8  1  0
  8  9  1  0
 10 12  2  0
 10 11  1  0
 11  9  1  0
 13 11  1  0
 14 10  1  0
 15 23  1  0
 16 21  1  0
 17 18  1  0
 17 16  1  0
 19 18  1  0
 19 28  1  0
 19 20  1  0
 21 15  1  0
 21 20  1  0
 22 15  2  0
 23 14  1  0
 23 24  1  0
 25 26  2  0
 26 45  1  0
 27 26  1  0
 27 30  1  0
 28 25  1  0
 28 29  1  0
 29 27  2  0
 30 31  1  0
 31 32  2  0
 33 36  1  0
 33 32  1  0
 34 33  2  0
 35 34  1  0
 35 30  2  0
 36 37  1  0
 37 38  1  0
 38 39  2  0
 40 39  1  0
 40 44  1  0
 41 40  2  0
 42 37  2  0
 42 41  1  0
 43 42  1  0
 45 46  1  0
 46 49  1  0
 46 48  1  0
 47 45  2  0
 50 51  1  0
 50 25  1  0
 52 50  1  0
 54 53  1  0
 55 54  1  0
 56 55  1  0
 57 56  1  0
 58 60  1  0
 58 57  1  0
 59 70  2  0
 60 65  1  0
 61 69  1  0
 61 71  1  0
 62 68  1  0
 62 64  1  0
 63 69  1  0
 64 63  1  0
 65 64  2  0
 66 67  1  0
 66 60  2  0
 67 62  2  0
 68 61  1  0
 69 59  1  0
 71 73  2  0
 72 71  1  0
 74 72  1  0
 75 84  2  0
 75 80  1  0
 76 72  1  0
 76 80  1  0
 77 76  1  0
 78 79  1  0
 78 77  1  0
 79 75  1  0
 80 81  2  0
 81 82  1  0
 83 82  2  0
 84 83  1  0
 85 59  1  0
 85 86  1  0
 85 95  1  0
 86 89  1  0
 87 91  1  0
 87 86  1  0
 88 87  2  0
 91 90  1  0
 93 91  1  0
 93 94  1  0
 93 92  1  0
 95 98  1  1
 95 96  1  0
 97 95  1  0
M  ISO  4  15 100  23 100  57 101  58 101
M  END
>  <TORSDO>  (28) 
F 28

>  <SCORE>  (28) 
28.244

>  <name>  (28) 
27

>  <ligand_id>  (28) 
27

>  <original_smiles>  (28) 
[H]c1c([H])c([H])c2c(c1[H])C([H])([H])C([H])([H])C([H])([H])C2([H])N([H])C(=O)C1([H])N(C(=O)C([H])(N([H])C(=O)C([H])(N([H])C([H])([H])[H])C([H])([H])[H])C(C([H])([H])[H])(C([H])([H])[H])C([H])([H])[H])C([H])([H])c2c([H])c(OC([H])([H])C([H])([H])C([H])([H])C([H])([H])C([H])([H])N([H])C(=O)C([H])([H])C([H])([H])C([H])([H])C([H])([H])C([H])([H])N([H])C(=O)C([H])([H])N([H])C(=O)N3C([H])([H])C([H])([H])C([H])([H])C([H])(n4nc(-c5c([H])c([H])c(Oc6c([H])c([H])c(F)c([H])c6F)c([H])c5[H])c(C(=O)N([H])[H])c4N([H])[H])C3([H])[H])c([H])c([H])c2C1([H])[H]

>  <smiles>  (28) 
[H]c1c([H])c([H])c2c(c1[H])C([H])([H])C([H])([H])C([H])([H])C2([H])N([H])C(=O)C1([H])N(C(=O)C([H])(N([H])C(=O)C([H])(N([H])C([H])([H])[H])C([H])([H])[H])C(C([H])([H])[H])(C([H])([H])[H])C([H])([H])[H])C([H])([H])c2c([H])c(OC([H])([H])C([H])([H])C([H])([H])C([H])([H])C([H])([H])N([H])C(=O)C([H])([H])C([H])([H])C([H])([H])C([H])([H])C([H])([H])N([H])C(=O)C([H])([H])N([H])C(=O)N3C([H])([H])C([H])([H])C([H])([H])C([H])(n4nc(-c5c([H])c([H])c(Oc6c([H])c([H])c(F)c([H])c6F)c([H])c5[H])c(C(=O)N([H])[H])c4N([H])[H])C3([H])[H])c([H])c([H])c2C1([H])[H]

$$$$
28:0:0
     RDKit          3D

 87 94  0  0  1  0  0  0  0  0999 V2000
  -28.6500  -23.0910   20.1680 C   0  0  0  0  0  3  0  0  0  0  0  0
  -29.1580  -24.3450   20.1620 C   0  0  0  0  0  3  0  0  0  0  0  0
  -29.2220  -21.9190   20.9700 C   0  0  0  0  0  2  0  0  0  0  0  0
  -29.1330  -20.5360   20.2640 C   0  0  0  0  0  2  0  0  0  0  0  0
  -29.8270  -19.3930   21.0560 C   0  0  0  0  0  2  0  0  0  0  0  0
  -29.5550  -17.9500   20.5470 C   0  0  0  0  0  2  0  0  0  0  0  0
  -30.3590  -16.8650   21.3200 C   0  0  0  0  0  2  0  0  0  0  0  0
  -30.6440  -14.4890   20.4760 C   0  0  0  0  0  0  0  0  0  0  0  0
  -30.3620  -12.3320   19.3030 C   0  0  0  0  0  2  0  0  0  0  0  0
  -29.4130  -12.5310   18.1020 C   0  0  0  0  0  2  0  0  0  0  0  0
  -27.9400  -12.3940   18.5360 C   0  0  0  0  0  2  0  0  0  0  0  0
  -27.6060  -13.2300   19.8000 C   0  0  0  0  0  3  0  0  0  0  0  0
  -28.6600  -12.9930   20.9040 C   0  0  0  0  0  2  0  0  0  0  0  0
  -29.9810  -13.3080   20.3360 N   0  0  0  0  0  0  0  0  0  0  0  0
  -31.7710  -14.6850   20.0130 O   0  0  0  0  0  0  0  0  0  0  0  0
  -29.9310  -15.4820   21.0450 N   0  0  0  0  0  0  0  0  0  0  0  0
  -29.0050  -15.2260   21.3560 H   0  0  0  0  0  0  0  0  0  0  0  0
  -25.2090  -13.8510   20.4980 C   0  0  0  0  0  0  0  0  0  0  0  0
  -24.1370  -13.0840   20.8690 C   0  0  0  0  0  0  0  0  0  0  0  0
  -24.5940  -11.7310   20.8480 C   0  0  0  0  0  0  0  0  0  0  0  0
  -26.2520  -12.9650   20.2760 N   0  0  0  0  0  0  0  0  0  0  0  0
  -25.8840  -11.6850   20.5430 N   0  0  0  0  0  0  0  0  0  0  0  0
  -23.8640  -10.4720   21.0440 C   0  0  0  0  0  0  0  0  0  0  0  0
  -24.3070   -9.4970   21.9640 C   0  0  0  0  0  3  0  0  0  0  0  0
  -23.5790   -8.3020   22.1470 C   0  0  0  0  0  3  0  0  0  0  0  0
  -22.3930   -8.0750   21.4100 C   0  0  0  0  0  0  0  0  0  0  0  0
  -21.9680   -9.0380   20.4790 C   0  0  0  0  0  3  0  0  0  0  0  0
  -22.6970  -10.2240   20.2940 C   0  0  0  0  0  3  0  0  0  0  0  0
  -21.6350   -6.9320   21.5040 O   0  0  0  0  0  0  0  0  0  0  0  0
  -21.6170   -6.1710   22.6450 C   0  0  0  0  0  0  0  0  0  0  0  0
  -21.2480   -6.7130   23.8960 C   0  0  0  0  0  3  0  0  0  0  0  0
  -21.1770   -5.8790   25.0300 C   0  0  0  0  0  3  0  0  0  0  0  0
  -21.4640   -4.5060   24.9140 C   0  0  0  0  0  0  0  0  0  0  0  0
  -21.8260   -3.9640   23.6680 C   0  0  0  0  0  3  0  0  0  0  0  0
  -21.8990   -4.7950   22.5360 C   0  0  0  0  0  0  0  0  0  0  0  0
  -22.2270   -4.2640   21.3340 F   0  0  0  0  0  0  0  0  0  0  0  0
  -21.3880   -3.7030   26.0010 F   0  0  0  0  0  0  0  0  0  0  0  0
  -22.7400  -13.5670   21.1360 C   0  0  0  0  0  0  0  0  0  0  0  0
  -22.0100  -12.8790   22.0060 N   0  0  0  0  0  0  0  0  0  0  0  0
  -22.3050  -14.5900   20.6070 O   0  0  0  0  0  0  0  0  0  0  0  0
  -22.3740  -12.0520   22.4540 H   0  0  0  0  0  0  0  0  0  0  0  0
  -21.0740  -13.1850   22.2280 H   0  0  0  0  0  0  0  0  0  0  0  0
  -25.3790  -15.2200   20.3130 N   0  0  0  0  0  0  0  0  0  0  0  0
  -24.6150  -15.8790   20.4150 H   0  0  0  0  0  0  0  0  0  0  0  0
  -26.2310  -15.6510   19.9750 H   0  0  0  0  0  0  0  0  0  0  0  0
  -28.6250  -25.5280   19.3520 C   0  0  0  0  0  2  0  0  0  0  0  0
  -28.4170  -26.7100   20.1520 O   0  0  0  0  0  0  0  0  0  0  0  0
  -24.6040  -31.8780   23.2470 C   0  0  0  0  0  0  0  0  0  0  0  0
  -27.2220  -27.4160   20.1300 C   0  0  0  0  0  0  0  0  0  0  0  0
  -23.3850  -30.4820   21.6120 C   0  0  0  0  0  3  0  0  0  0  0  0
  -24.8250  -28.9450   20.1750 C   0  0  0  0  0  0  0  0  0  0  0  0
  -25.9130  -30.8290   21.4000 C   0  0  0  0  0  2  0  0  0  0  0  0
  -25.9900  -29.4580   20.7550 C   0  0  0  0  0  0  0  0  0  0  0  0
  -27.1860  -28.6990   20.7330 C   0  0  0  0  0  3  0  0  0  0  0  0
  -26.0240  -26.9170   19.5640 C   0  0  0  0  0  3  0  0  0  0  0  0
  -24.8380  -27.6740   19.5810 C   0  0  0  0  0  3  0  0  0  0  0  0
  -23.5840  -29.8060   20.2300 C   0  0  0  0  0  2  0  0  0  0  0  0
  -24.6530  -31.0780   22.1440 N   0  0  0  0  0  0  0  0  0  0  0  0
  -23.5250  -32.1520   23.7930 O   0  0  0  0  0  0  0  0  0  0  0  0
  -22.7370  -29.4600   22.5730 C   0  0  0  0  0  0  0  0  0  0  0  0
  -21.4120  -29.2770   22.4480 N   0  0  0  0  0  0  0  0  0  0  0  0
  -23.4240  -28.8350   23.3860 O   0  0  0  0  0  0  0  0  0  0  0  0
  -20.9200  -29.8310   21.7620 H   0  0  0  0  0  0  0  0  0  0  0  0
  -18.0430  -28.0640   22.9390 C   0  0  0  0  0  0  0  0  0  0  0  0
  -20.5990  -28.3380   23.2210 C   0  0  0  0  0  3  0  0  0  0  0  0
  -20.7120  -26.9050   22.6540 C   0  0  0  0  0  2  0  0  0  0  0  0
  -19.6170  -26.5690   21.6370 C   0  0  0  0  0  2  0  0  0  0  0  0
  -18.2320  -26.7110   22.2740 C   0  0  0  0  0  2  0  0  0  0  0  0
  -19.1570  -28.8340   23.3700 C   0  0  0  0  0  0  0  0  0  0  0  0
  -18.9280  -30.1010   23.9520 C   0  0  0  0  0  3  0  0  0  0  0  0
  -17.6210  -30.5970   24.1080 C   0  0  0  0  0  3  0  0  0  0  0  0
  -16.5220  -29.8230   23.6930 C   0  0  0  0  0  3  0  0  0  0  0  0
  -16.7340  -28.5590   23.1160 C   0  0  0  0  0  3  0  0  0  0  0  0
  -25.8930  -32.5070   23.8590 C   0  0  0  0  0  3  0  0  0  0  0  0
  -26.4220  -31.7300   25.1270 C   0  0  1  0  0  0  0  0  0  0  0  0
  -25.3390  -31.4870   26.2050 C   0  0  0  0  0  1  0  0  0  0  0  0
  -27.0000  -30.3530   24.7220 C   0  0  0  0  0  1  0  0  0  0  0  0
  -27.5780  -32.5220   25.7820 C   0  0  0  0  0  1  0  0  0  0  0  0
  -25.5860  -33.9030   24.1970 N   0  0  0  0  0  0  0  0  0  0  0  0
  -25.9110  -34.9590   23.4390 C   0  0  0  0  0  0  0  0  0  0  0  0
  -26.5730  -34.8600   22.4020 O   0  0  0  0  0  0  0  0  0  0  0  0
  -24.9940  -34.0540   25.0020 H   0  0  0  0  0  0  0  0  0  0  0  0
  -24.1750  -36.7500   23.1070 C   0  0  0  0  0  1  0  0  0  0  0  0
  -25.4260  -36.3450   23.9050 C   0  0  0  0  0  3  0  0  0  0  0  0
  -27.5710  -37.2300   24.7100 C   0  0  0  0  0  1  0  0  0  0  0  0
  -26.4560  -37.4000   23.7820 N   0  0  0  0  0  0  0  0  0  0  0  0
  -26.0500  -38.3190   23.9390 H   0  0  0  0  0  0  0  0  0  0  0  0
  1  3  1  0
  2  1  2  0
  4  3  1  0
  4  5  1  0
  6  5  1  0
  6  7  1  0
  8 16  1  0
  9 14  1  0
 10 11  1  0
 10  9  1  0
 12 11  1  0
 12 21  1  0
 12 13  1  0
 14  8  1  0
 14 13  1  0
 15  8  2  0
 16  7  1  0
 16 17  1  0
 18 19  2  0
 19 38  1  0
 20 19  1  0
 20 23  1  0
 21 18  1  0
 21 22  1  0
 22 20  2  0
 23 24  1  0
 24 25  2  0
 26 29  1  0
 26 25  1  0
 27 26  2  0
 28 27  1  0
 28 23  2  0
 29 30  1  0
 30 31  1  0
 31 32  2  0
 33 32  1  0
 33 37  1  0
 34 33  2  0
 35 30  2  0
 35 34  1  0
 36 35  1  0
 38 39  1  0
 39 42  1  0
 39 41  1  0
 40 38  2  0
 43 44  1  0
 43 18  1  0
 45 43  1  0
 46 47  1  0
 46  2  1  0
 48 59  2  0
 49 47  1  0
 49 54  1  0
 50 58  1  0
 50 60  1  0
 51 57  1  0
 51 53  1  0
 52 58  1  0
 53 52  1  0
 54 53  2  0
 55 56  1  0
 55 49  2  0
 56 51  2  0
 57 50  1  0
 58 48  1  0
 60 62  2  0
 61 60  1  0
 63 61  1  0
 64 73  2  0
 64 69  1  0
 65 61  1  0
 65 69  1  0
 66 65  1  0
 67 68  1  0
 67 66  1  0
 68 64  1  0
 69 70  2  0
 70 71  1  0
 72 71  2  0
 73 72  1  0
 74 48  1  0
 74 79  1  0
 74 75  1  0
 75 78  1  1
 75 76  1  0
 77 75  1  0
 79 82  1  0
 80 84  1  0
 80 79  1  0
 81 80  2  0
 84 83  1  0
 86 84  1  0
 86 87  1  0
 86 85  1  0
M  ISO  4   8 100  16 100  46 101  47 101
M  END
>  <TORSDO>  (29) 
F 22

>  <SCORE>  (29) 
-12.934

>  <name>  (29) 
28

>  <ligand_id>  (29) 
28

>  <original_smiles>  (29) 
[H]C(=C([H])C([H])([H])C([H])([H])C([H])([H])C([H])([H])C([H])([H])N([H])C(=O)N1C([H])([H])C([H])([H])C([H])([H])C([H])(n2nc(-c3c([H])c([H])c(Oc4c([H])c([H])c(F)c([H])c4F)c([H])c3[H])c(C(=O)N([H])[H])c2N([H])[H])C1([H])[H])C([H])([H])Oc1c([H])c([H])c2c(c1[H])C([H])([H])N(C(=O)C([H])(N([H])C(=O)C([H])(N([H])C([H])([H])[H])C([H])([H])[H])C(C([H])([H])[H])(C([H])([H])[H])C([H])([H])[H])C([H])(C(=O)N([H])C1([H])c3c([H])c([H])c([H])c([H])c3C([H])([H])C([H])([H])C1([H])[H])C2([H])[H]

>  <smiles>  (29) 
[H]C(=C([H])C([H])([H])C([H])([H])C([H])([H])C([H])([H])C([H])([H])N([H])C(=O)N1C([H])([H])C([H])([H])C([H])([H])C([H])(n2nc(-c3c([H])c([H])c(Oc4c([H])c([H])c(F)c([H])c4F)c([H])c3[H])c(C(=O)N([H])[H])c2N([H])[H])C1([H])[H])C([H])([H])Oc1c([H])c([H])c2c(c1[H])C([H])([H])N(C(=O)C([H])(N([H])C(=O)C([H])(N([H])C([H])([H])[H])C([H])([H])[H])C(C([H])([H])[H])(C([H])([H])[H])C([H])([H])[H])C([H])(C(=O)N([H])C1([H])c3c([H])c([H])c([H])c([H])c3C([H])([H])C([H])([H])C1([H])[H])C2([H])[H]

$$$$
29:0:0
     RDKit          3D

105112  0  0  1  0  0  0  0  0999 V2000
  -27.3740  -21.3400   27.2800 C   0  0  0  0  0  2  0  0  0  0  0  0
  -28.8500  -22.5080   25.6700 C   0  0  0  0  0  0  0  0  0  0  0  0
  -28.2480  -21.4010   26.1130 N   0  0  0  0  0  0  0  0  0  0  0  0
  -28.6730  -23.6110   26.1990 O   0  0  0  0  0  0  0  0  0  0  0  0
  -28.4170  -20.5400   25.6070 H   0  0  0  0  0  0  0  0  0  0  0  0
  -29.7960  -22.3780   24.4710 C   0  0  0  0  0  2  0  0  0  0  0  0
  -29.7730  -23.5960   22.2960 C   0  0  0  0  0  0  0  0  0  0  0  0
  -29.6020  -23.5410   23.6180 N   0  0  0  0  0  0  0  0  0  0  0  0
  -30.2470  -22.6660   21.6430 O   0  0  0  0  0  0  0  0  0  0  0  0
  -29.2000  -24.3410   24.0920 H   0  0  0  0  0  0  0  0  0  0  0  0
  -29.3100  -24.8850   21.6190 C   0  0  0  0  0  2  0  0  0  0  0  0
  -30.2080  -25.3600   20.4600 C   0  0  0  0  0  2  0  0  0  0  0  0
  -30.0380  -26.7630   20.2590 O   0  0  0  0  0  0  0  0  0  0  0  0
  -25.2880  -31.2750   22.9950 C   0  0  0  0  0  0  0  0  0  0  0  0
  -28.7580  -27.2600   20.1710 C   0  0  0  0  0  0  0  0  0  0  0  0
  -24.4190  -29.7240   21.2760 C   0  0  0  0  0  3  0  0  0  0  0  0
  -26.1780  -28.3960   19.9980 C   0  0  0  0  0  0  0  0  0  0  0  0
  -26.8810  -30.4240   21.2810 C   0  0  0  0  0  2  0  0  0  0  0  0
  -27.2000  -29.0790   20.6680 C   0  0  0  0  0  0  0  0  0  0  0  0
  -28.4910  -28.5150   20.7540 C   0  0  0  0  0  3  0  0  0  0  0  0
  -27.7120  -26.5780   19.5030 C   0  0  0  0  0  3  0  0  0  0  0  0
  -26.4270  -27.1400   19.4220 C   0  0  0  0  0  3  0  0  0  0  0  0
  -24.8320  -29.0780   19.9270 C   0  0  0  0  0  2  0  0  0  0  0  0
  -25.5400  -30.4910   21.9110 N   0  0  0  0  0  0  0  0  0  0  0  0
  -24.1390  -31.4010   23.4400 O   0  0  0  0  0  0  0  0  0  0  0  0
  -23.8370  -28.6210   22.1880 C   0  0  0  0  0  0  0  0  0  0  0  0
  -22.5530  -28.2900   21.9790 N   0  0  0  0  0  0  0  0  0  0  0  0
  -24.5400  -28.0680   23.0370 O   0  0  0  0  0  0  0  0  0  0  0  0
  -22.0420  -28.7960   21.2680 H   0  0  0  0  0  0  0  0  0  0  0  0
  -19.2990  -26.7580   22.2910 C   0  0  0  0  0  0  0  0  0  0  0  0
  -21.8030  -27.2590   22.6940 C   0  0  0  0  0  3  0  0  0  0  0  0
  -22.0770  -25.8610   22.0960 C   0  0  0  0  0  2  0  0  0  0  0  0
  -21.0620  -25.4540   21.0240 C   0  0  0  0  0  2  0  0  0  0  0  0
  -19.6430  -25.4460   21.6020 C   0  0  0  0  0  2  0  0  0  0  0  0
  -20.3140  -27.6140   22.7900 C   0  0  0  0  0  0  0  0  0  0  0  0
  -19.9470  -28.8380   23.3890 C   0  0  0  0  0  3  0  0  0  0  0  0
  -18.5920  -29.2050   23.5020 C   0  0  0  0  0  3  0  0  0  0  0  0
  -17.5890  -28.3430   23.0260 C   0  0  0  0  0  3  0  0  0  0  0  0
  -17.9430  -27.1220   22.4230 C   0  0  0  0  0  3  0  0  0  0  0  0
  -26.4210  -32.0740   23.7110 C   0  0  0  0  0  3  0  0  0  0  0  0
  -26.9610  -31.3600   25.0100 C   0  0  1  0  0  0  0  0  0  0  0  0
  -25.8480  -30.9470   26.0020 C   0  0  0  0  0  1  0  0  0  0  0  0
  -27.7610  -30.0890   24.6390 C   0  0  0  0  0  1  0  0  0  0  0  0
  -27.9400  -32.2930   25.7580 C   0  0  0  0  0  1  0  0  0  0  0  0
  -25.8930  -33.4060   24.0330 N   0  0  0  0  0  0  0  0  0  0  0  0
  -26.1330  -34.5130   23.3170 C   0  0  0  0  0  0  0  0  0  0  0  0
  -26.8910  -34.5290   22.3430 O   0  0  0  0  0  0  0  0  0  0  0  0
  -25.2210  -33.4580   24.7830 H   0  0  0  0  0  0  0  0  0  0  0  0
  -24.1920  -36.0420   22.8440 C   0  0  0  0  0  1  0  0  0  0  0  0
  -25.4140  -35.8060   23.7460 C   0  0  0  0  0  3  0  0  0  0  0  0
  -27.3290  -36.9670   24.7480 C   0  0  0  0  0  1  0  0  0  0  0  0
  -26.2870  -37.0000   23.7270 N   0  0  0  0  0  0  0  0  0  0  0  0
  -25.7400  -37.8480   23.8550 H   0  0  0  0  0  0  0  0  0  0  0  0
  -27.6730  -20.0780   28.1020 C   0  0  0  0  0  2  0  0  0  0  0  0
  -26.9620  -20.0550   29.4670 C   0  0  0  0  0  2  0  0  0  0  0  0
  -27.4230  -18.8830   30.3510 C   0  0  0  0  0  2  0  0  0  0  0  0
  -28.8990  -18.9880   30.7810 C   0  0  0  0  0  2  0  0  0  0  0  0
  -29.7210  -17.7060   30.5180 C   0  0  0  0  0  2  0  0  0  0  0  0
  -29.5660  -17.2000   29.1340 N   0  0  0  0  0  4  0  0  0  0  0  0
  -28.5910  -17.0110   28.9720 H   0  0  0  0  0  0  0  0  0  0  0  0
  -30.0520  -16.3190   29.0680 H   0  0  0  0  0  0  0  0  0  0  0  0
  -30.0720  -18.0910   28.0650 C   0  0  0  0  0  2  0  0  0  0  0  0
  -29.5210  -17.6900   26.6860 C   0  0  0  0  0  2  0  0  0  0  0  0
  -30.1300  -18.5180   25.5450 C   0  0  0  0  0  2  0  0  0  0  0  0
  -29.6060  -18.0790   24.1750 C   0  0  0  0  0  2  0  0  0  0  0  0
  -30.3980  -18.6930   23.0100 C   0  0  0  0  0  2  0  0  0  0  0  0
  -29.8580  -18.2620   21.6390 C   0  0  0  0  0  2  0  0  0  0  0  0
  -30.4600  -15.8710   21.2960 C   0  0  0  0  0  0  0  0  0  0  0  0
  -30.6650  -13.5050   20.6590 C   0  0  0  0  0  2  0  0  0  0  0  0
  -30.0100  -13.2880   19.2810 C   0  0  0  0  0  2  0  0  0  0  0  0
  -28.5010  -13.0120   19.4290 C   0  0  0  0  0  2  0  0  0  0  0  0
  -27.7880  -14.0460   20.3430 C   0  0  0  0  0  3  0  0  0  0  0  0
  -28.5730  -14.2370   21.6590 C   0  0  0  0  0  2  0  0  0  0  0  0
  -29.9580  -14.6110   21.3160 N   0  0  0  0  0  0  0  0  0  0  0  0
  -31.6110  -16.1450   20.9470 O   0  0  0  0  0  0  0  0  0  0  0  0
  -29.5850  -16.8300   21.6090 N   0  0  0  0  0  0  0  0  0  0  0  0
  -28.6520  -16.5280   21.8450 H   0  0  0  0  0  0  0  0  0  0  0  0
  -25.2590  -14.4620   20.6080 C   0  0  0  0  0  0  0  0  0  0  0  0
  -24.2090  -13.6080   20.8140 C   0  0  0  0  0  0  0  0  0  0  0  0
  -24.7780  -12.3000   20.9060 C   0  0  0  0  0  0  0  0  0  0  0  0
  -26.3970  -13.6690   20.5900 N   0  0  0  0  0  0  0  0  0  0  0  0
  -26.1000  -12.3660   20.8220 N   0  0  0  0  0  0  0  0  0  0  0  0
  -24.1350  -10.9840   21.0080 C   0  0  0  0  0  0  0  0  0  0  0  0
  -24.4610  -10.0820   22.0450 C   0  0  0  0  0  3  0  0  0  0  0  0
  -23.8170   -8.8290   22.1340 C   0  0  0  0  0  3  0  0  0  0  0  0
  -22.8340   -8.4680   21.1830 C   0  0  0  0  0  0  0  0  0  0  0  0
  -22.5290   -9.3600   20.1400 C   0  0  0  0  0  3  0  0  0  0  0  0
  -23.1750  -10.6040   20.0490 C   0  0  0  0  0  3  0  0  0  0  0  0
  -22.1750   -7.2620   21.1750 O   0  0  0  0  0  0  0  0  0  0  0  0
  -21.9000   -6.5850   22.3350 C   0  0  0  0  0  0  0  0  0  0  0  0
  -21.2030   -7.1910   23.4050 C   0  0  0  0  0  3  0  0  0  0  0  0
  -20.8800   -6.4370   24.5520 C   0  0  0  0  0  3  0  0  0  0  0  0
  -21.2430   -5.0790   24.6280 C   0  0  0  0  0  0  0  0  0  0  0  0
  -21.9330   -4.4730   23.5620 C   0  0  0  0  0  3  0  0  0  0  0  0
  -22.2570   -5.2240   22.4190 C   0  0  0  0  0  0  0  0  0  0  0  0
  -22.9020   -4.6300   21.3850 F   0  0  0  0  0  0  0  0  0  0  0  0
  -20.9270   -4.3530   25.7250 F   0  0  0  0  0  0  0  0  0  0  0  0
  -22.7510  -13.9670   20.8300 C   0  0  0  0  0  0  0  0  0  0  0  0
  -21.9480  -13.2400   21.5990 N   0  0  0  0  0  0  0  0  0  0  0  0
  -22.3230  -14.9310   20.1970 O   0  0  0  0  0  0  0  0  0  0  0  0
  -22.3020  -12.4610   22.1350 H   0  0  0  0  0  0  0  0  0  0  0  0
  -20.9640  -13.4630   21.6510 H   0  0  0  0  0  0  0  0  0  0  0  0
  -25.3410  -15.8390   20.4190 N   0  0  0  0  0  0  0  0  0  0  0  0
  -24.5170  -16.4290   20.3690 H   0  0  0  0  0  0  0  0  0  0  0  0
  -26.1990  -16.3420   20.2300 H   0  0  0  0  0  0  0  0  0  0  0  0
  1 54  1  0
  2  3  1  0
  2  4  2  0
  3  1  1  0
  5  3  1  0
  6  2  1  0
  7  8  1  0
  8 10  1  0
  8  6  1  0
  9  7  2  0
 11  7  1  0
 12 11  1  0
 13 12  1  0
 14 25  2  0
 15 13  1  0
 15 20  1  0
 16 24  1  0
 16 26  1  0
 17 19  1  0
 18 24  1  0
 19 20  2  0
 19 18  1  0
 21 15  2  0
 22 21  1  0
 22 17  2  0
 23 17  1  0
 23 16  1  0
 24 14  1  0
 26 28  2  0
 27 26  1  0
 29 27  1  0
 30 39  2  0
 30 35  1  0
 31 27  1  0
 31 35  1  0
 32 31  1  0
 33 34  1  0
 33 32  1  0
 34 30  1  0
 35 36  2  0
 36 37  1  0
 38 37  2  0
 39 38  1  0
 40 14  1  0
 40 45  1  0
 40 41  1  0
 41 44  1  1
 41 42  1  0
 43 41  1  0
 45 48  1  0
 46 50  1  0
 46 45  1  0
 47 46  2  0
 50 49  1  0
 52 50  1  0
 52 53  1  0
 52 51  1  0
 54 55  1  0
 55 56  1  0
 56 57  1  0
 58 57  1  0
 59 58  1  0
 60 59  1  0
 61 59  1  0
 62 59  1  0
 63 62  1  0
 64 63  1  0
 65 64  1  0
 66 65  1  0
 67 66  1  0
 68 74  1  0
 68 76  1  0
 69 74  1  0
 70 71  1  0
 70 69  1  0
 72 71  1  0
 72 81  1  0
 72 73  1  0
 74 73  1  0
 75 68  2  0
 76 67  1  0
 76 77  1  0
 78 79  2  0
 79 98  1  0
 79 80  1  0
 80 83  1  0
 81 78  1  0
 81 82  1  0
 82 80  2  0
 83 84  1  0
 84 85  2  0
 86 85  1  0
 87 86  2  0
 88 87  1  0
 88 83  2  0
 89 86  1  0
 89 90  1  0
 90 95  2  0
 90 91  1  0
 91 92  2  0
 92 93  1  0
 93 97  1  0
 94 93  2  0
 95 94  1  0
 96 95  1  0
 98 99  1  0
 99102  1  0
 99101  1  0
100 98  2  0
103 78  1  0
104103  1  0
105103  1  0
M  ISO  4  12 101  13 101  68 100  76 100
M  END
>  <TORSDO>  (30) 
F 33

>  <SCORE>  (30) 
30.258

>  <name>  (30) 
29

>  <ligand_id>  (30) 
29

>  <original_smiles>  (30) 
[H]c1c([H])c([H])c2c(c1[H])C([H])([H])C([H])([H])C([H])([H])C2([H])N([H])C(=O)C1([H])N(C(=O)C([H])(N([H])C(=O)C([H])(N([H])C([H])([H])[H])C([H])([H])[H])C(C([H])([H])[H])(C([H])([H])[H])C([H])([H])[H])C([H])([H])c2c([H])c(OC([H])([H])C([H])([H])C(=O)N([H])C([H])([H])C(=O)N([H])C([H])([H])C([H])([H])C([H])([H])C([H])([H])C([H])([H])C([H])([H])[N+]([H])([H])C([H])([H])C([H])([H])C([H])([H])C([H])([H])C([H])([H])C([H])([H])N([H])C(=O)N3C([H])([H])C([H])([H])C([H])([H])C([H])(n4nc(-c5c([H])c([H])c(Oc6c([H])c([H])c(F)c([H])c6F)c([H])c5[H])c(C(=O)N([H])[H])c4N([H])[H])C3([H])[H])c([H])c([H])c2C1([H])[H]

>  <smiles>  (30) 
[H]c1c([H])c([H])c2c(c1[H])C([H])([H])C([H])([H])C([H])([H])C2([H])N([H])C(=O)C1([H])N(C(=O)C([H])(N([H])C(=O)C([H])(N([H])C([H])([H])[H])C([H])([H])[H])C(C([H])([H])[H])(C([H])([H])[H])C([H])([H])[H])C([H])([H])c2c([H])c(OC([H])([H])C([H])([H])C(=O)N([H])C([H])([H])C(=O)N([H])C([H])([H])C([H])([H])C([H])([H])C([H])([H])C([H])([H])C([H])([H])[N+]([H])([H])C([H])([H])C([H])([H])C([H])([H])C([H])([H])C([H])([H])C([H])([H])N([H])C(=O)N3C([H])([H])C([H])([H])C([H])([H])C([H])(n4nc(-c5c([H])c([H])c(Oc6c([H])c([H])c(F)c([H])c6F)c([H])c5[H])c(C(=O)N([H])[H])c4N([H])[H])C3([H])[H])c([H])c([H])c2C1([H])[H]

$$$$
30:0:0
     RDKit          3D

102109  0  0  1  0  0  0  0  0999 V2000
  -23.4010  -22.8390   20.9080 C   0  0  0  0  0  0  0  0  0  0  0  0
  -22.5110  -21.9430   20.4530 N   0  0  0  0  0  0  0  0  0  0  0  0
  -23.4990  -23.1480   22.0960 O   0  0  0  0  0  0  0  0  0  0  0  0
  -22.5220  -21.7690   19.4560 H   0  0  0  0  0  0  0  0  0  0  0  0
  -21.5260  -21.1520   21.2090 C   0  0  0  0  0  2  0  0  0  0  0  0
  -22.0280  -20.3730   22.4610 C   0  0  0  0  0  2  0  0  0  0  0  0
  -23.4280  -19.7540   22.3410 C   0  0  0  0  0  0  0  0  0  0  0  0
  -24.2090  -19.8110   23.4290 N   0  0  0  0  0  0  0  0  0  0  0  0
  -23.8290  -19.3180   21.2590 O   0  0  0  0  0  0  0  0  0  0  0  0
  -23.7760  -20.1310   24.2870 H   0  0  0  0  0  0  0  0  0  0  0  0
  -25.6660  -19.8660   23.3690 C   0  0  0  0  0  2  0  0  0  0  0  0
  -26.3430  -18.5070   23.1170 C   0  0  0  0  0  2  0  0  0  0  0  0
  -27.7790  -18.6950   22.6010 C   0  0  0  0  0  2  0  0  0  0  0  0
  -28.5630  -17.3810   22.4980 C   0  0  0  0  0  2  0  0  0  0  0  0
  -29.9380  -17.5730   21.8350 C   0  0  0  0  0  2  0  0  0  0  0  0
  -30.9150  -16.4100   22.0830 C   0  0  0  0  0  2  0  0  0  0  0  0
  -30.7730  -14.3520   20.6770 C   0  0  0  0  0  0  0  0  0  0  0  0
  -30.4040  -12.2850   19.3960 C   0  0  0  0  0  2  0  0  0  0  0  0
  -29.4810  -12.5600   18.1950 C   0  0  0  0  0  2  0  0  0  0  0  0
  -28.0030  -12.4050   18.5990 C   0  0  0  0  0  2  0  0  0  0  0  0
  -27.6620  -13.2080   19.8810 C   0  0  0  0  0  3  0  0  0  0  0  0
  -28.6990  -12.9460   20.9970 C   0  0  0  0  0  2  0  0  0  0  0  0
  -30.0490  -13.2240   20.4670 N   0  0  0  0  0  0  0  0  0  0  0  0
  -31.7770  -14.6490   20.0210 O   0  0  0  0  0  0  0  0  0  0  0  0
  -30.3470  -15.1210   21.6840 N   0  0  0  0  0  0  0  0  0  0  0  0
  -29.5690  -14.7700   22.2230 H   0  0  0  0  0  0  0  0  0  0  0  0
  -25.2570  -13.8190   20.5730 C   0  0  0  0  0  0  0  0  0  0  0  0
  -24.1820  -13.0480   20.9180 C   0  0  0  0  0  0  0  0  0  0  0  0
  -24.6350  -11.6940   20.8700 C   0  0  0  0  0  0  0  0  0  0  0  0
  -26.3000  -12.9370   20.3370 N   0  0  0  0  0  0  0  0  0  0  0  0
  -25.9270  -11.6510   20.5680 N   0  0  0  0  0  0  0  0  0  0  0  0
  -23.9010  -10.4330   21.0370 C   0  0  0  0  0  0  0  0  0  0  0  0
  -24.3570   -9.4250   21.9160 C   0  0  0  0  0  3  0  0  0  0  0  0
  -23.6270   -8.2280   22.0750 C   0  0  0  0  0  3  0  0  0  0  0  0
  -22.4240   -8.0280   21.3540 C   0  0  0  0  0  0  0  0  0  0  0  0
  -21.9850   -9.0260   20.4660 C   0  0  0  0  0  3  0  0  0  0  0  0
  -22.7170  -10.2150   20.3060 C   0  0  0  0  0  3  0  0  0  0  0  0
  -21.6650   -6.8850   21.4220 O   0  0  0  0  0  0  0  0  0  0  0  0
  -21.6860   -6.0720   22.5280 C   0  0  0  0  0  0  0  0  0  0  0  0
  -21.4020   -6.5630   23.8210 C   0  0  0  0  0  3  0  0  0  0  0  0
  -21.3670   -5.6780   24.9180 C   0  0  0  0  0  3  0  0  0  0  0  0
  -21.6050   -4.3050   24.7240 C   0  0  0  0  0  0  0  0  0  0  0  0
  -21.8820   -3.8130   23.4360 C   0  0  0  0  0  3  0  0  0  0  0  0
  -21.9190   -4.6940   22.3410 C   0  0  0  0  0  0  0  0  0  0  0  0
  -22.1650   -4.2130   21.0990 F   0  0  0  0  0  0  0  0  0  0  0  0
  -21.5640   -3.4540   25.7750 F   0  0  0  0  0  0  0  0  0  0  0  0
  -22.7830  -13.5280   21.1850 C   0  0  0  0  0  0  0  0  0  0  0  0
  -22.0430  -12.8330   22.0390 N   0  0  0  0  0  0  0  0  0  0  0  0
  -22.3520  -14.5570   20.6660 O   0  0  0  0  0  0  0  0  0  0  0  0
  -22.4000  -12.0070   22.4940 H   0  0  0  0  0  0  0  0  0  0  0  0
  -21.1040  -13.1390   22.2530 H   0  0  0  0  0  0  0  0  0  0  0  0
  -25.4350  -15.1930   20.4260 N   0  0  0  0  0  0  0  0  0  0  0  0
  -24.6840  -15.8610   20.5710 H   0  0  0  0  0  0  0  0  0  0  0  0
  -26.3140  -15.6300   20.1770 H   0  0  0  0  0  0  0  0  0  0  0  0
  -24.3350  -23.4740   19.8760 C   0  0  0  0  0  2  0  0  0  0  0  0
  -25.8430  -23.2680   20.1750 C   0  0  0  0  0  2  0  0  0  0  0  0
  -26.4490  -24.3840   20.9470 N   0  0  0  0  0  4  0  0  0  0  0  0
  -26.0950  -24.3820   21.8950 H   0  0  0  0  0  0  0  0  0  0  0  0
  -26.1600  -25.2490   20.5120 H   0  0  0  0  0  0  0  0  0  0  0  0
  -27.9360  -24.4050   20.9630 C   0  0  0  0  0  2  0  0  0  0  0  0
  -28.5220  -25.8170   21.2010 C   0  0  0  0  0  2  0  0  0  0  0  0
  -28.3580  -26.6840   20.0700 O   0  0  0  0  0  0  0  0  0  0  0  0
  -24.6120  -31.8730   23.2200 C   0  0  0  0  0  0  0  0  0  0  0  0
  -27.2200  -27.4490   20.0910 C   0  0  0  0  0  0  0  0  0  0  0  0
  -23.3970  -30.4980   21.5610 C   0  0  0  0  0  3  0  0  0  0  0  0
  -24.8420  -28.9630   20.1210 C   0  0  0  0  0  0  0  0  0  0  0  0
  -25.9250  -30.8280   21.3820 C   0  0  0  0  0  2  0  0  0  0  0  0
  -25.9980  -29.4610   20.7380 C   0  0  0  0  0  0  0  0  0  0  0  0
  -27.1890  -28.7010   20.7400 C   0  0  0  0  0  3  0  0  0  0  0  0
  -26.0680  -26.9830   19.4280 C   0  0  0  0  0  3  0  0  0  0  0  0
  -24.8700  -27.7200   19.4660 C   0  0  0  0  0  3  0  0  0  0  0  0
  -23.6080  -29.8370   20.1720 C   0  0  0  0  0  2  0  0  0  0  0  0
  -24.6620  -31.0800   22.1130 N   0  0  0  0  0  0  0  0  0  0  0  0
  -23.5330  -32.1550   23.7590 O   0  0  0  0  0  0  0  0  0  0  0  0
  -22.7390  -29.4680   22.5060 C   0  0  0  0  0  0  0  0  0  0  0  0
  -21.4120  -29.3110   22.3840 N   0  0  0  0  0  0  0  0  0  0  0  0
  -23.4180  -28.8130   23.3000 O   0  0  0  0  0  0  0  0  0  0  0  0
  -20.9250  -29.9030   21.7250 H   0  0  0  0  0  0  0  0  0  0  0  0
  -18.0300  -28.1330   22.8460 C   0  0  0  0  0  0  0  0  0  0  0  0
  -20.5870  -28.3680   23.1370 C   0  0  0  0  0  3  0  0  0  0  0  0
  -20.6840  -26.9400   22.5530 C   0  0  0  0  0  2  0  0  0  0  0  0
  -19.5870  -26.6390   21.5290 C   0  0  0  0  0  2  0  0  0  0  0  0
  -18.2030  -26.7870   22.1660 C   0  0  0  0  0  2  0  0  0  0  0  0
  -19.1520  -28.8800   23.2910 C   0  0  0  0  0  0  0  0  0  0  0  0
  -18.9470  -30.1370   23.8950 C   0  0  0  0  0  3  0  0  0  0  0  0
  -17.6500  -30.6540   24.0570 C   0  0  0  0  0  3  0  0  0  0  0  0
  -16.5390  -29.9050   23.6250 C   0  0  0  0  0  3  0  0  0  0  0  0
  -16.7280  -28.6450   23.0290 C   0  0  0  0  0  3  0  0  0  0  0  0
  -25.9060  -32.4860   23.8440 C   0  0  0  0  0  3  0  0  0  0  0  0
  -25.5950  -33.8660   24.2390 N   0  0  0  0  0  0  0  0  0  0  0  0
  -25.9030  -34.9510   23.5160 C   0  0  0  0  0  0  0  0  0  0  0  0
  -26.5560  -34.8950   22.4710 O   0  0  0  0  0  0  0  0  0  0  0  0
  -25.0180  -33.9820   25.0590 H   0  0  0  0  0  0  0  0  0  0  0  0
  -24.1470  -36.7310   23.2630 C   0  0  0  0  0  1  0  0  0  0  0  0
  -25.4100  -36.3140   24.0350 C   0  0  0  0  0  3  0  0  0  0  0  0
  -27.5590  -37.1800   24.8460 C   0  0  0  0  0  1  0  0  0  0  0  0
  -26.4300  -37.3830   23.9420 N   0  0  0  0  0  0  0  0  0  0  0  0
  -26.0200  -38.2910   24.1430 H   0  0  0  0  0  0  0  0  0  0  0  0
  -26.4500  -31.6630   25.0750 C   0  0  1  0  0  0  0  0  0  0  0  0
  -25.3770  -31.3760   26.1510 C   0  0  0  0  0  1  0  0  0  0  0  0
  -27.0290  -30.3050   24.6120 C   0  0  0  0  0  1  0  0  0  0  0  0
  -27.6100  -32.4340   25.7470 C   0  0  0  0  0  1  0  0  0  0  0  0
  1  3  2  0
  2  1  1  0
  2  5  1  0
  4  2  1  0
  5  6  1  0
  7  6  1  0
  7  8  1  0
  8 10  1  0
  9  7  2  0
 11  8  1  0
 12 11  1  0
 13 12  1  0
 14 13  1  0
 15 16  1  0
 15 14  1  0
 17 25  1  0
 18 23  1  0
 19 20  1  0
 19 18  1  0
 21 20  1  0
 21 30  1  0
 21 22  1  0
 23 17  1  0
 23 22  1  0
 24 17  2  0
 25 16  1  0
 25 26  1  0
 27 28  2  0
 28 47  1  0
 29 28  1  0
 29 32  1  0
 30 31  1  0
 30 27  1  0
 31 29  2  0
 32 33  1  0
 33 34  2  0
 35 38  1  0
 35 34  1  0
 36 35  2  0
 37 36  1  0
 37 32  2  0
 38 39  1  0
 39 40  1  0
 40 41  2  0
 42 41  1  0
 42 46  1  0
 43 42  2  0
 44 39  2  0
 44 43  1  0
 45 44  1  0
 47 48  1  0
 48 51  1  0
 48 50  1  0
 49 47  2  0
 52 53  1  0
 52 27  1  0
 54 52  1  0
 55 56  1  0
 55  1  1  0
 56 57  1  0
 57 60  1  0
 57 58  1  0
 59 57  1  0
 60 61  1  0
 62 64  1  0
 62 61  1  0
 63 74  2  0
 64 69  1  0
 65 73  1  0
 65 75  1  0
 66 72  1  0
 66 68  1  0
 67 73  1  0
 68 69  2  0
 68 67  1  0
 70 71  1  0
 70 64  2  0
 71 66  2  0
 72 65  1  0
 73 63  1  0
 75 77  2  0
 76 75  1  0
 78 76  1  0
 79 88  2  0
 79 84  1  0
 80 76  1  0
 80 84  1  0
 81 80  1  0
 82 83  1  0
 82 81  1  0
 83 79  1  0
 84 85  2  0
 85 86  1  0
 87 86  2  0
 88 87  1  0
 89 63  1  0
 89 90  1  0
 89 99  1  0
 90 93  1  0
 91 95  1  0
 91 90  1  0
 92 91  2  0
 95 94  1  0
 97 95  1  0
 97 98  1  0
 97 96  1  0
 99102  1  1
 99100  1  0
101 99  1  0
M  ISO  4  17 100  25 100  61 101  62 101
M  END
>  <TORSDO>  (31) 
F 30

>  <SCORE>  (31) 
51.244

>  <name>  (31) 
30

>  <ligand_id>  (31) 
30

>  <original_smiles>  (31) 
[H]c1c([H])c([H])c2c(c1[H])C([H])([H])C([H])([H])C([H])([H])C2([H])N([H])C(=O)C1([H])N(C(=O)C([H])(N([H])C(=O)C([H])(N([H])C([H])([H])[H])C([H])([H])[H])C(C([H])([H])[H])(C([H])([H])[H])C([H])([H])[H])C([H])([H])c2c([H])c(OC([H])([H])C([H])([H])[N+]([H])([H])C([H])([H])C([H])([H])C(=O)N([H])C([H])([H])C([H])([H])C(=O)N([H])C([H])([H])C([H])([H])C([H])([H])C([H])([H])C([H])([H])C([H])([H])N([H])C(=O)N3C([H])([H])C([H])([H])C([H])([H])C([H])(n4nc(-c5c([H])c([H])c(Oc6c([H])c([H])c(F)c([H])c6F)c([H])c5[H])c(C(=O)N([H])[H])c4N([H])[H])C3([H])[H])c([H])c([H])c2C1([H])[H]

>  <smiles>  (31) 
[H]c1c([H])c([H])c2c(c1[H])C([H])([H])C([H])([H])C([H])([H])C2([H])N([H])C(=O)C1([H])N(C(=O)C([H])(N([H])C(=O)C([H])(N([H])C([H])([H])[H])C([H])([H])[H])C(C([H])([H])[H])(C([H])([H])[H])C([H])([H])[H])C([H])([H])c2c([H])c(OC([H])([H])C([H])([H])[N+]([H])([H])C([H])([H])C([H])([H])C(=O)N([H])C([H])([H])C([H])([H])C(=O)N([H])C([H])([H])C([H])([H])C([H])([H])C([H])([H])C([H])([H])C([H])([H])N([H])C(=O)N3C([H])([H])C([H])([H])C([H])([H])C([H])(n4nc(-c5c([H])c([H])c(Oc6c([H])c([H])c(F)c([H])c6F)c([H])c5[H])c(C(=O)N([H])[H])c4N([H])[H])C3([H])[H])c([H])c([H])c2C1([H])[H]

$$$$
31:0:0
     RDKit          3D

 95102  0  0  1  0  0  0  0  0999 V2000
  -29.2740  -21.9740   23.5940 C   0  0  0  0  0  2  0  0  0  0  0  0
  -28.5000  -23.1640   23.1690 N   0  0  0  0  0  4  0  0  0  0  0  0
  -28.7580  -23.9420   23.7540 H   0  0  0  0  0  0  0  0  0  0  0  0
  -27.5260  -22.9710   23.3450 H   0  0  0  0  0  0  0  0  0  0  0  0
  -28.6410  -23.5280   21.7420 C   0  0  0  0  0  2  0  0  0  0  0  0
  -28.1190  -24.9460   21.4390 C   0  0  0  0  0  2  0  0  0  0  0  0
  -28.2730  -25.3220   19.9530 C   0  0  0  0  0  2  0  0  0  0  0  0
  -28.2570  -26.7380   19.7830 O   0  0  0  0  0  0  0  0  0  0  0  0
  -24.6140  -31.8080   23.1480 C   0  0  0  0  0  0  0  0  0  0  0  0
  -27.0610  -27.4110   19.8690 C   0  0  0  0  0  0  0  0  0  0  0  0
  -23.3170  -30.4640   21.5240 C   0  0  0  0  0  3  0  0  0  0  0  0
  -24.6840  -28.9300   20.0160 C   0  0  0  0  0  0  0  0  0  0  0  0
  -25.8360  -30.7890   21.2330 C   0  0  0  0  0  2  0  0  0  0  0  0
  -25.8710  -29.4320   20.5620 C   0  0  0  0  0  0  0  0  0  0  0  0
  -27.0600  -28.6810   20.4840 C   0  0  0  0  0  3  0  0  0  0  0  0
  -25.8550  -26.9110   19.3250 C   0  0  0  0  0  3  0  0  0  0  0  0
  -24.6690  -27.6680   19.3980 C   0  0  0  0  0  3  0  0  0  0  0  0
  -23.4580  -29.8080   20.1240 C   0  0  0  0  0  2  0  0  0  0  0  0
  -24.6090  -31.0340   22.0250 N   0  0  0  0  0  0  0  0  0  0  0  0
  -23.5610  -32.0870   23.7380 O   0  0  0  0  0  0  0  0  0  0  0  0
  -22.6880  -29.4330   22.4870 C   0  0  0  0  0  0  0  0  0  0  0  0
  -21.3610  -29.2590   22.3920 N   0  0  0  0  0  0  0  0  0  0  0  0
  -23.3900  -28.7920   23.2740 O   0  0  0  0  0  0  0  0  0  0  0  0
  -20.8560  -29.8270   21.7250 H   0  0  0  0  0  0  0  0  0  0  0  0
  -17.9980  -28.0620   22.9340 C   0  0  0  0  0  0  0  0  0  0  0  0
  -20.5580  -28.3150   23.1680 C   0  0  0  0  0  3  0  0  0  0  0  0
  -20.6530  -26.8890   22.5780 C   0  0  0  0  0  2  0  0  0  0  0  0
  -19.5340  -26.5750   21.5790 C   0  0  0  0  0  2  0  0  0  0  0  0
  -18.1630  -26.7170   22.2470 C   0  0  0  0  0  2  0  0  0  0  0  0
  -19.1230  -28.8200   23.3520 C   0  0  0  0  0  0  0  0  0  0  0  0
  -18.9160  -30.0800   23.9530 C   0  0  0  0  0  3  0  0  0  0  0  0
  -17.6140  -30.5820   24.1440 C   0  0  0  0  0  3  0  0  0  0  0  0
  -16.5020  -29.8200   23.7420 C   0  0  0  0  0  3  0  0  0  0  0  0
  -16.6950  -28.5620   23.1430 C   0  0  0  0  0  3  0  0  0  0  0  0
  -25.9360  -32.4000   23.7290 C   0  0  0  0  0  3  0  0  0  0  0  0
  -26.4960  -31.5830   24.9590 C   0  0  1  0  0  0  0  0  0  0  0  0
  -25.4480  -31.3320   26.0670 C   0  0  0  0  0  1  0  0  0  0  0  0
  -27.0360  -30.2090   24.4980 C   0  0  0  0  0  1  0  0  0  0  0  0
  -27.6890  -32.3390   25.5900 C   0  0  0  0  0  1  0  0  0  0  0  0
  -25.6670  -33.7930   24.1080 N   0  0  0  0  0  0  0  0  0  0  0  0
  -26.0000  -34.8590   23.3690 C   0  0  0  0  0  0  0  0  0  0  0  0
  -26.6370  -34.7720   22.3160 O   0  0  0  0  0  0  0  0  0  0  0  0
  -25.1020  -33.9370   24.9320 H   0  0  0  0  0  0  0  0  0  0  0  0
  -24.2960  -36.6900   23.1160 C   0  0  0  0  0  1  0  0  0  0  0  0
  -25.5530  -36.2420   23.8790 C   0  0  0  0  0  3  0  0  0  0  0  0
  -27.7290  -37.0630   24.6680 C   0  0  0  0  0  1  0  0  0  0  0  0
  -26.6030  -37.2780   23.7630 N   0  0  0  0  0  0  0  0  0  0  0  0
  -26.2190  -38.2010   23.9480 H   0  0  0  0  0  0  0  0  0  0  0  0
  -30.7630  -22.2980   23.8570 C   0  0  0  0  0  2  0  0  0  0  0  0
  -31.6130  -21.0870   24.2980 C   0  0  0  0  0  2  0  0  0  0  0  0
  -32.3810  -20.3740   23.1680 C   0  0  0  0  0  2  0  0  0  0  0  0
  -30.9330  -18.5000   22.4000 C   0  0  0  0  0  0  0  0  0  0  0  0
  -31.5060  -19.6960   22.2190 N   0  0  0  0  0  0  0  0  0  0  0  0
  -31.0210  -17.8640   23.4520 O   0  0  0  0  0  0  0  0  0  0  0  0
  -31.4040  -20.1270   21.3080 H   0  0  0  0  0  0  0  0  0  0  0  0
  -30.1370  -17.9450   21.2190 C   0  0  0  0  0  2  0  0  0  0  0  0
  -30.9470  -16.9410   20.3690 C   0  0  0  0  0  2  0  0  0  0  0  0
  -31.2700  -14.5060   20.1030 C   0  0  0  0  0  0  0  0  0  0  0  0
  -30.8890  -12.2960   19.0970 C   0  0  0  0  0  2  0  0  0  0  0  0
  -29.9490  -12.4660   17.8850 C   0  0  0  0  0  2  0  0  0  0  0  0
  -28.4720  -12.4190   18.3220 C   0  0  0  0  0  2  0  0  0  0  0  0
  -28.1760  -13.3490   19.5310 C   0  0  0  0  0  3  0  0  0  0  0  0
  -29.2230  -13.1420   20.6490 C   0  0  0  0  0  2  0  0  0  0  0  0
  -30.5610  -13.3490   20.0660 N   0  0  0  0  0  0  0  0  0  0  0  0
  -32.3630  -14.6560   19.5490 O   0  0  0  0  0  0  0  0  0  0  0  0
  -30.6210  -15.5420   20.6500 N   0  0  0  0  0  0  0  0  0  0  0  0
  -29.7350  -15.3380   21.0880 H   0  0  0  0  0  0  0  0  0  0  0  0
  -25.8240  -14.1080   20.2600 C   0  0  0  0  0  0  0  0  0  0  0  0
  -24.7190  -13.4030   20.6530 C   0  0  0  0  0  0  0  0  0  0  0  0
  -25.0990  -12.0260   20.6310 C   0  0  0  0  0  0  0  0  0  0  0  0
  -26.8130  -13.1640   20.0260 N   0  0  0  0  0  0  0  0  0  0  0  0
  -26.3790  -11.9070   20.3030 N   0  0  0  0  0  0  0  0  0  0  0  0
  -24.3050  -10.8110   20.8460 C   0  0  0  0  0  0  0  0  0  0  0  0
  -24.6820   -9.8430   21.8040 C   0  0  0  0  0  3  0  0  0  0  0  0
  -23.8930   -8.6900   22.0050 C   0  0  0  0  0  3  0  0  0  0  0  0
  -22.7130   -8.4960   21.2470 C   0  0  0  0  0  0  0  0  0  0  0  0
  -22.3560   -9.4500   20.2780 C   0  0  0  0  0  3  0  0  0  0  0  0
  -23.1450  -10.5950   20.0750 C   0  0  0  0  0  3  0  0  0  0  0  0
  -21.8980   -7.3960   21.3570 O   0  0  0  0  0  0  0  0  0  0  0  0
  -21.7760   -6.7040   22.5360 C   0  0  0  0  0  0  0  0  0  0  0  0
  -21.3570   -7.3330   23.7290 C   0  0  0  0  0  3  0  0  0  0  0  0
  -21.1780   -6.5710   24.9010 C   0  0  0  0  0  3  0  0  0  0  0  0
  -21.4080   -5.1830   24.8800 C   0  0  0  0  0  0  0  0  0  0  0  0
  -21.8190   -4.5540   23.6920 C   0  0  0  0  0  3  0  0  0  0  0  0
  -22.0000   -5.3130   22.5220 C   0  0  0  0  0  0  0  0  0  0  0  0
  -22.3760   -4.6980   21.3750 F   0  0  0  0  0  0  0  0  0  0  0  0
  -21.2280   -4.4500   26.0030 F   0  0  0  0  0  0  0  0  0  0  0  0
  -23.3550  -13.9620   20.9410 C   0  0  0  0  0  0  0  0  0  0  0  0
  -22.6060  -13.3240   21.8350 N   0  0  0  0  0  0  0  0  0  0  0  0
  -22.9650  -15.0000   20.4100 O   0  0  0  0  0  0  0  0  0  0  0  0
  -22.9340  -12.4840   22.2870 H   0  0  0  0  0  0  0  0  0  0  0  0
  -21.6910  -13.6820   22.0690 H   0  0  0  0  0  0  0  0  0  0  0  0
  -26.0660  -15.4650   20.0640 N   0  0  0  0  0  0  0  0  0  0  0  0
  -25.3410  -16.1640   20.1740 H   0  0  0  0  0  0  0  0  0  0  0  0
  -26.9360  -15.8470   19.7140 H   0  0  0  0  0  0  0  0  0  0  0  0
  1 49  1  0
  2  4  1  0
  2  1  1  0
  2  3  1  0
  5  2  1  0
  6  5  1  0
  7  6  1  0
  8 10  1  0
  8  7  1  0
  9 20  2  0
 10 15  1  0
 11 19  1  0
 11 21  1  0
 12 18  1  0
 12 14  1  0
 13 19  1  0
 14 13  1  0
 15 14  2  0
 16 17  1  0
 16 10  2  0
 17 12  2  0
 18 11  1  0
 19  9  1  0
 21 23  2  0
 22 21  1  0
 24 22  1  0
 25 34  2  0
 25 30  1  0
 26 22  1  0
 26 30  1  0
 27 26  1  0
 28 29  1  0
 28 27  1  0
 29 25  1  0
 30 31  2  0
 31 32  1  0
 33 32  2  0
 34 33  1  0
 35  9  1  0
 35 40  1  0
 35 36  1  0
 36 39  1  1
 36 37  1  0
 38 36  1  0
 40 43  1  0
 41 45  1  0
 41 40  1  0
 42 41  2  0
 45 44  1  0
 47 45  1  0
 47 48  1  0
 47 46  1  0
 49 50  1  0
 51 50  1  0
 52 54  2  0
 53 52  1  0
 53 51  1  0
 55 53  1  0
 56 52  1  0
 57 66  1  0
 57 56  1  0
 58 66  1  0
 59 64  1  0
 60 61  1  0
 60 59  1  0
 62 61  1  0
 62 71  1  0
 62 63  1  0
 64 58  1  0
 64 63  1  0
 65 58  2  0
 66 67  1  0
 68 69  2  0
 69 88  1  0
 70 69  1  0
 70 73  1  0
 71 68  1  0
 71 72  1  0
 72 70  2  0
 73 74  1  0
 74 75  2  0
 76 79  1  0
 76 75  1  0
 77 76  2  0
 78 77  1  0
 78 73  2  0
 79 80  1  0
 80 81  1  0
 81 82  2  0
 83 82  1  0
 83 87  1  0
 84 83  2  0
 85 80  2  0
 85 84  1  0
 86 85  1  0
 88 89  1  0
 89 92  1  0
 89 91  1  0
 90 88  2  0
 93 94  1  0
 93 68  1  0
 95 93  1  0
M  ISO  4   7 101   8 101  58 100  66 100
M  END
>  <TORSDO>  (32) 
F 26

>  <SCORE>  (32) 
-10.768

>  <name>  (32) 
31

>  <ligand_id>  (32) 
31

>  <original_smiles>  (32) 
[H]c1c([H])c([H])c2c(c1[H])C([H])([H])C([H])([H])C([H])([H])C2([H])N([H])C(=O)C1([H])N(C(=O)C([H])(N([H])C(=O)C([H])(N([H])C([H])([H])[H])C([H])([H])[H])C(C([H])([H])[H])(C([H])([H])[H])C([H])([H])[H])C([H])([H])c2c([H])c(OC([H])([H])C([H])([H])C([H])([H])[N+]([H])([H])C([H])([H])C([H])([H])C([H])([H])C([H])([H])N([H])C(=O)C([H])([H])C([H])([H])N([H])C(=O)N3C([H])([H])C([H])([H])C([H])([H])C([H])(n4nc(-c5c([H])c([H])c(Oc6c([H])c([H])c(F)c([H])c6F)c([H])c5[H])c(C(=O)N([H])[H])c4N([H])[H])C3([H])[H])c([H])c([H])c2C1([H])[H]

>  <smiles>  (32) 
[H]c1c([H])c([H])c2c(c1[H])C([H])([H])C([H])([H])C([H])([H])C2([H])N([H])C(=O)C1([H])N(C(=O)C([H])(N([H])C(=O)C([H])(N([H])C([H])([H])[H])C([H])([H])[H])C(C([H])([H])[H])(C([H])([H])[H])C([H])([H])[H])C([H])([H])c2c([H])c(OC([H])([H])C([H])([H])C([H])([H])[N+]([H])([H])C([H])([H])C([H])([H])C([H])([H])C([H])([H])N([H])C(=O)C([H])([H])C([H])([H])N([H])C(=O)N3C([H])([H])C([H])([H])C([H])([H])C([H])(n4nc(-c5c([H])c([H])c(Oc6c([H])c([H])c(F)c([H])c6F)c([H])c5[H])c(C(=O)N([H])[H])c4N([H])[H])C3([H])[H])c([H])c([H])c2C1([H])[H]

$$$$
32:0:0
     RDKit          3D

 98105  0  0  1  0  0  0  0  0999 V2000
  -26.9970  -20.3710   19.9480 N   0  0  0  0  0  4  0  0  0  0  0  0
  -26.6050  -19.7290   20.6200 H   0  0  0  0  0  0  0  0  0  0  0  0
  -26.5020  -20.2380   19.0810 H   0  0  0  0  0  0  0  0  0  0  0  0
  -28.4290  -20.0420   19.7910 C   0  0  0  0  0  2  0  0  0  0  0  0
  -28.6850  -19.0050   18.6870 C   0  0  0  0  0  2  0  0  0  0  0  0
  -28.3130  -17.5590   19.0660 C   0  0  0  0  0  2  0  0  0  0  0  0
  -29.1030  -16.4880   18.2840 C   0  0  0  0  0  2  0  0  0  0  0  0
  -31.4660  -16.6590   19.2530 C   0  0  0  0  0  0  0  0  0  0  0  0
  -30.5490  -16.7010   18.2710 N   0  0  0  0  0  0  0  0  0  0  0  0
  -32.6300  -16.9470   18.9850 O   0  0  0  0  0  0  0  0  0  0  0  0
  -30.9230  -16.9430   17.3640 H   0  0  0  0  0  0  0  0  0  0  0  0
  -31.1320  -16.2570   20.7060 C   0  0  0  0  0  2  0  0  0  0  0  0
  -31.1430  -13.7640   20.7200 C   0  0  0  0  0  0  0  0  0  0  0  0
  -30.9710  -11.3150   20.9090 C   0  0  0  0  0  2  0  0  0  0  0  0
  -30.2490  -10.7170   19.6880 C   0  0  0  0  0  2  0  0  0  0  0  0
  -28.7280  -10.6950   19.9240 C   0  0  0  0  0  2  0  0  0  0  0  0
  -28.1810  -12.0670   20.3980 C   0  0  0  0  0  3  0  0  0  0  0  0
  -29.0350  -12.6420   21.5520 C   0  0  0  0  0  2  0  0  0  0  0  0
  -30.4470  -12.6710   21.1250 N   0  0  0  0  0  0  0  0  0  0  0  0
  -32.2640  -13.7070   20.2080 O   0  0  0  0  0  0  0  0  0  0  0  0
  -30.5370  -14.9360   20.9260 N   0  0  0  0  0  0  0  0  0  0  0  0
  -29.6240  -14.9030   21.3540 H   0  0  0  0  0  0  0  0  0  0  0  0
  -25.8370  -12.9900   20.9410 C   0  0  0  0  0  0  0  0  0  0  0  0
  -24.6490  -12.3680   21.2110 C   0  0  0  0  0  0  0  0  0  0  0  0
  -24.9180  -10.9660   21.1700 C   0  0  0  0  0  0  0  0  0  0  0  0
  -26.7680  -11.9760   20.7640 N   0  0  0  0  0  0  0  0  0  0  0  0
  -26.2120  -10.7520   20.9610 N   0  0  0  0  0  0  0  0  0  0  0  0
  -24.0100   -9.8160   21.2700 C   0  0  0  0  0  0  0  0  0  0  0  0
  -24.0770   -8.9140   22.3550 C   0  0  0  0  0  3  0  0  0  0  0  0
  -23.1810   -7.8270   22.4400 C   0  0  0  0  0  3  0  0  0  0  0  0
  -22.2040   -7.6330   21.4350 C   0  0  0  0  0  0  0  0  0  0  0  0
  -22.1560   -8.5190   20.3460 C   0  0  0  0  0  3  0  0  0  0  0  0
  -23.0510   -9.5990   20.2600 C   0  0  0  0  0  3  0  0  0  0  0  0
  -21.3110   -6.5880   21.4170 O   0  0  0  0  0  0  0  0  0  0  0  0
  -20.7240   -6.1250   22.5660 C   0  0  0  0  0  0  0  0  0  0  0  0
  -19.9030   -6.9490   23.3670 C   0  0  0  0  0  3  0  0  0  0  0  0
  -19.2600   -6.4110   24.5010 C   0  0  0  0  0  3  0  0  0  0  0  0
  -19.4360   -5.0550   24.8330 C   0  0  0  0  0  0  0  0  0  0  0  0
  -20.2520   -4.2330   24.0360 C   0  0  0  0  0  3  0  0  0  0  0  0
  -20.8930   -4.7670   22.9050 C   0  0  0  0  0  0  0  0  0  0  0  0
  -21.6610   -3.9660   22.1260 F   0  0  0  0  0  0  0  0  0  0  0  0
  -18.8160   -4.5350   25.9180 F   0  0  0  0  0  0  0  0  0  0  0  0
  -23.3150  -13.0320   21.3930 C   0  0  0  0  0  0  0  0  0  0  0  0
  -22.4330  -12.4310   22.1830 N   0  0  0  0  0  0  0  0  0  0  0  0
  -23.0640  -14.1180   20.8710 O   0  0  0  0  0  0  0  0  0  0  0  0
  -22.6500  -11.5520   22.6290 H   0  0  0  0  0  0  0  0  0  0  0  0
  -21.5300  -12.8510   22.3450 H   0  0  0  0  0  0  0  0  0  0  0  0
  -26.1990  -14.3270   20.8040 N   0  0  0  0  0  0  0  0  0  0  0  0
  -25.4660  -15.0230   20.7300 H   0  0  0  0  0  0  0  0  0  0  0  0
  -27.0610  -14.5980   20.3500 H   0  0  0  0  0  0  0  0  0  0  0  0
  -26.7400  -21.7390   20.4460 C   0  0  0  0  0  2  0  0  0  0  0  0
  -26.4240  -22.7530   19.3230 C   0  0  0  0  0  2  0  0  0  0  0  0
  -27.5490  -23.7460   18.9610 C   0  0  0  0  0  2  0  0  0  0  0  0
  -27.9240  -23.7860   17.4680 C   0  0  0  0  0  2  0  0  0  0  0  0
  -28.6880  -25.0730   17.1150 C   0  0  0  0  0  2  0  0  0  0  0  0
  -28.8930  -25.2630   15.6020 C   0  0  0  0  0  2  0  0  0  0  0  0
  -29.3390  -26.6880   15.2190 C   0  0  0  0  0  2  0  0  0  0  0  0
  -28.2810  -27.3860   14.5740 O   0  0  0  0  0  0  0  0  0  0  0  0
  -25.1610  -28.0980   20.9310 C   0  0  0  0  0  0  0  0  0  0  0  0
  -27.1240  -27.4930   15.3000 C   0  0  0  0  0  0  0  0  0  0  0  0
  -23.6400  -27.6910   19.0180 C   0  0  0  0  0  3  0  0  0  0  0  0
  -24.7100  -27.8450   16.7100 C   0  0  0  0  0  0  0  0  0  0  0  0
  -25.8900  -28.8490   18.6720 C   0  0  0  0  0  2  0  0  0  0  0  0
  -25.9240  -28.2360   17.2900 C   0  0  0  0  0  0  0  0  0  0  0  0
  -27.1360  -28.0610   16.5900 C   0  0  0  0  0  3  0  0  0  0  0  0
  -25.8980  -27.1010   14.7230 C   0  0  0  0  0  3  0  0  0  0  0  0
  -24.6920  -27.2680   15.4260 C   0  0  0  0  0  3  0  0  0  0  0  0
  -23.4600  -28.0760   17.5240 C   0  0  0  0  0  2  0  0  0  0  0  0
  -24.9330  -28.1920   19.5910 N   0  0  0  0  0  0  0  0  0  0  0  0
  -24.2970  -27.6460   21.6950 O   0  0  0  0  0  0  0  0  0  0  0  0
  -23.4600  -26.1620   19.1550 C   0  0  0  0  0  0  0  0  0  0  0  0
  -22.2050  -25.6980   19.0610 N   0  0  0  0  0  0  0  0  0  0  0  0
  -24.4340  -25.4220   19.3130 O   0  0  0  0  0  0  0  0  0  0  0  0
  -21.4620  -26.3690   18.9370 H   0  0  0  0  0  0  0  0  0  0  0  0
  -19.3630  -23.4780   18.8520 C   0  0  0  0  0  0  0  0  0  0  0  0
  -21.8020  -24.2950   19.1200 C   0  0  0  0  0  3  0  0  0  0  0  0
  -22.0810  -23.5800   17.7790 C   0  0  0  0  0  2  0  0  0  0  0  0
  -20.8780  -23.5890   16.8290 C   0  0  0  0  0  2  0  0  0  0  0  0
  -19.6750  -22.9040   17.4810 C   0  0  0  0  0  2  0  0  0  0  0  0
  -20.3590  -24.1450   19.6160 C   0  0  0  0  0  0  0  0  0  0  0  0
  -20.0100  -24.6900   20.8690 C   0  0  0  0  0  3  0  0  0  0  0  0
  -18.6950  -24.5790   21.3630 C   0  0  0  0  0  3  0  0  0  0  0  0
  -17.7180  -23.9050   20.6100 C   0  0  0  0  0  3  0  0  0  0  0  0
  -18.0540  -23.3520   19.3620 C   0  0  0  0  0  3  0  0  0  0  0  0
  -26.5030  -28.5730   21.5700 C   0  0  0  0  0  3  0  0  0  0  0  0
  -26.1730  -29.2860   22.8100 N   0  0  0  0  0  0  0  0  0  0  0  0
  -26.2140  -30.6170   22.9520 C   0  0  0  0  0  0  0  0  0  0  0  0
  -26.6100  -31.3780   22.0630 O   0  0  0  0  0  0  0  0  0  0  0  0
  -25.7890  -28.7350   23.5620 H   0  0  0  0  0  0  0  0  0  0  0  0
  -24.3310  -31.7820   24.1410 C   0  0  0  0  0  1  0  0  0  0  0  0
  -25.7450  -31.1990   24.2990 C   0  0  0  0  0  3  0  0  0  0  0  0
  -27.9400  -31.7000   25.2800 C   0  0  0  0  0  1  0  0  0  0  0  0
  -26.6520  -32.2320   24.8430 N   0  0  0  0  0  0  0  0  0  0  0  0
  -26.2220  -32.7070   25.6330 H   0  0  0  0  0  0  0  0  0  0  0  0
  -27.5120  -27.3940   21.8520 C   0  0  1  0  0  0  0  0  0  0  0  0
  -26.8820  -26.2160   22.6300 C   0  0  0  0  0  1  0  0  0  0  0  0
  -28.0790  -26.8370   20.5240 C   0  0  0  0  0  1  0  0  0  0  0  0
  -28.7160  -27.9150   22.6690 C   0  0  0  0  0  1  0  0  0  0  0  0
  1 51  1  0
  1  2  1  0
  3  1  1  0
  4  1  1  0
  5  6  1  0
  5  4  1  0
  7  6  1  0
  8 12  1  0
  9  7  1  0
  9  8  1  0
 10  8  2  0
 11  9  1  0
 12 21  1  0
 13 21  1  0
 13 19  1  0
 14 19  1  0
 15 16  1  0
 15 14  1  0
 17 16  1  0
 17 26  1  0
 17 18  1  0
 19 18  1  0
 20 13  2  0
 21 22  1  0
 23 24  2  0
 24 43  1  0
 25 24  1  0
 25 28  1  0
 26 23  1  0
 26 27  1  0
 27 25  2  0
 28 29  1  0
 29 30  2  0
 31 30  1  0
 32 31  2  0
 33 32  1  0
 33 28  2  0
 34 31  1  0
 34 35  1  0
 35 40  2  0
 35 36  1  0
 36 37  2  0
 37 38  1  0
 38 42  1  0
 39 38  2  0
 40 39  1  0
 41 40  1  0
 43 44  1  0
 44 47  1  0
 44 46  1  0
 45 43  2  0
 48 23  1  0
 49 48  1  0
 50 48  1  0
 52 51  1  0
 53 52  1  0
 54 53  1  0
 55 54  1  0
 56 55  1  0
 57 56  1  0
 58 57  1  0
 58 60  1  0
 59 70  2  0
 60 65  1  0
 61 71  1  0
 61 69  1  0
 62 64  1  0
 62 68  1  0
 63 69  1  0
 64 63  1  0
 65 64  2  0
 66 60  2  0
 66 67  1  0
 67 62  2  0
 68 61  1  0
 69 59  1  0
 71 73  2  0
 72 71  1  0
 74 72  1  0
 75 84  2  0
 75 80  1  0
 76 72  1  0
 76 80  1  0
 77 76  1  0
 78 79  1  0
 78 77  1  0
 79 75  1  0
 80 81  2  0
 81 82  1  0
 83 82  2  0
 84 83  1  0
 85 59  1  0
 85 95  1  0
 85 86  1  0
 86 87  1  0
 86 89  1  0
 87 91  1  0
 88 87  2  0
 91 90  1  0
 91 93  1  0
 93 92  1  0
 93 94  1  0
 95 96  1  1
 95 98  1  0
 97 95  1  0
M  ISO  4  13 100  21 100  57 101  58 101
M  END
>  <TORSDO>  (33) 
F 29

>  <SCORE>  (33) 
-6.370

>  <name>  (33) 
32

>  <ligand_id>  (33) 
32

>  <original_smiles>  (33) 
[H]c1c([H])c([H])c2c(c1[H])C([H])([H])C([H])([H])C([H])([H])C2([H])N([H])C(=O)C1([H])N(C(=O)C([H])(N([H])C(=O)C([H])(N([H])C([H])([H])[H])C([H])([H])[H])C(C([H])([H])[H])(C([H])([H])[H])C([H])([H])[H])C([H])([H])c2c([H])c(OC([H])([H])C([H])([H])C([H])([H])C([H])([H])C([H])([H])C([H])([H])C([H])([H])[N+]([H])([H])C([H])([H])C([H])([H])C([H])([H])C([H])([H])N([H])C(=O)C([H])([H])N([H])C(=O)N3C([H])([H])C([H])([H])C([H])([H])C([H])(n4nc(-c5c([H])c([H])c(Oc6c([H])c([H])c(F)c([H])c6F)c([H])c5[H])c(C(=O)N([H])[H])c4N([H])[H])C3([H])[H])c([H])c([H])c2C1([H])[H]

>  <smiles>  (33) 
[H]c1c([H])c([H])c2c(c1[H])C([H])([H])C([H])([H])C([H])([H])C2([H])N([H])C(=O)C1([H])N(C(=O)C([H])(N([H])C(=O)C([H])(N([H])C([H])([H])[H])C([H])([H])[H])C(C([H])([H])[H])(C([H])([H])[H])C([H])([H])[H])C([H])([H])c2c([H])c(OC([H])([H])C([H])([H])C([H])([H])C([H])([H])C([H])([H])C([H])([H])C([H])([H])[N+]([H])([H])C([H])([H])C([H])([H])C([H])([H])C([H])([H])N([H])C(=O)C([H])([H])N([H])C(=O)N3C([H])([H])C([H])([H])C([H])([H])C([H])(n4nc(-c5c([H])c([H])c(Oc6c([H])c([H])c(F)c([H])c6F)c([H])c5[H])c(C(=O)N([H])[H])c4N([H])[H])C3([H])[H])c([H])c([H])c2C1([H])[H]

$$$$
33:0:0
     RDKit          3D

 91 98  0  0  1  0  0  0  0  0999 V2000
  -30.1030  -21.9440   19.8910 C   0  0  0  0  0  0  0  0  0  0  0  0
  -29.7670  -23.2550   19.8150 N   0  0  0  0  0  0  0  0  0  0  0  0
  -31.2300  -21.6200   19.5120 O   0  0  0  0  0  0  0  0  0  0  0  0
  -30.5160  -23.8180   19.4330 H   0  0  0  0  0  0  0  0  0  0  0  0
  -29.1890  -20.8010   20.4000 C   0  0  0  0  0  2  0  0  0  0  0  0
  -30.0180  -19.5680   20.6230 N   0  0  0  0  0  4  0  0  0  0  0  0
  -30.7170  -19.6200   19.8960 H   0  0  0  0  0  0  0  0  0  0  0  0
  -30.5190  -19.6860   21.4880 H   0  0  0  0  0  0  0  0  0  0  0  0
  -29.3810  -18.2080   20.6010 C   0  0  0  0  0  2  0  0  0  0  0  0
  -30.4190  -17.0480   20.8410 C   0  0  0  0  0  2  0  0  0  0  0  0
  -30.6470  -14.5580   20.4570 C   0  0  0  0  0  0  0  0  0  0  0  0
  -30.3740  -12.3620   19.3620 C   0  0  0  0  0  2  0  0  0  0  0  0
  -29.4380  -12.5280   18.1460 C   0  0  0  0  0  2  0  0  0  0  0  0
  -27.9650  -12.3790   18.5740 C   0  0  0  0  0  2  0  0  0  0  0  0
  -27.6120  -13.2370   19.8180 C   0  0  0  0  0  3  0  0  0  0  0  0
  -28.6670  -13.0660   20.9360 C   0  0  0  0  0  2  0  0  0  0  0  0
  -29.9830  -13.3730   20.3580 N   0  0  0  0  0  0  0  0  0  0  0  0
  -31.8080  -14.6930   20.0640 O   0  0  0  0  0  0  0  0  0  0  0  0
  -29.9160  -15.6430   20.8220 N   0  0  0  0  0  0  0  0  0  0  0  0
  -28.9600  -15.4760   21.1000 H   0  0  0  0  0  0  0  0  0  0  0  0
  -25.2120  -13.8370   20.5190 C   0  0  0  0  0  0  0  0  0  0  0  0
  -24.1450  -13.0640   20.8880 C   0  0  0  0  0  0  0  0  0  0  0  0
  -24.6110  -11.7140   20.8690 C   0  0  0  0  0  0  0  0  0  0  0  0
  -26.2600  -12.9590   20.2990 N   0  0  0  0  0  0  0  0  0  0  0  0
  -25.9030  -11.6770   20.5680 N   0  0  0  0  0  0  0  0  0  0  0  0
  -23.8890  -10.4500   21.0620 C   0  0  0  0  0  0  0  0  0  0  0  0
  -24.3290   -9.4820   21.9920 C   0  0  0  0  0  3  0  0  0  0  0  0
  -23.6070   -8.2840   22.1720 C   0  0  0  0  0  3  0  0  0  0  0  0
  -22.4300   -8.0430   21.4240 C   0  0  0  0  0  0  0  0  0  0  0  0
  -22.0080   -9.0010   20.4850 C   0  0  0  0  0  3  0  0  0  0  0  0
  -22.7310  -10.1910   20.3010 C   0  0  0  0  0  3  0  0  0  0  0  0
  -21.6790   -6.8970   21.5150 O   0  0  0  0  0  0  0  0  0  0  0  0
  -21.6520   -6.1440   22.6610 C   0  0  0  0  0  0  0  0  0  0  0  0
  -21.2530   -6.6900   23.9010 C   0  0  0  0  0  3  0  0  0  0  0  0
  -21.1710   -5.8630   25.0400 C   0  0  0  0  0  3  0  0  0  0  0  0
  -21.4770   -4.4920   24.9400 C   0  0  0  0  0  0  0  0  0  0  0  0
  -21.8700   -3.9470   23.7040 C   0  0  0  0  0  3  0  0  0  0  0  0
  -21.9540   -4.7700   22.5680 C   0  0  0  0  0  0  0  0  0  0  0  0
  -22.3100   -4.2350   21.3750 F   0  0  0  0  0  0  0  0  0  0  0  0
  -21.3910   -3.6960   26.0320 F   0  0  0  0  0  0  0  0  0  0  0  0
  -22.7450  -13.5390   21.1470 C   0  0  0  0  0  0  0  0  0  0  0  0
  -22.0120  -12.8490   22.0130 N   0  0  0  0  0  0  0  0  0  0  0  0
  -22.3080  -14.5610   20.6180 O   0  0  0  0  0  0  0  0  0  0  0  0
  -22.3750  -12.0230   22.4670 H   0  0  0  0  0  0  0  0  0  0  0  0
  -21.0720  -13.1520   22.2250 H   0  0  0  0  0  0  0  0  0  0  0  0
  -25.3730  -15.2080   20.3330 N   0  0  0  0  0  0  0  0  0  0  0  0
  -24.6000  -15.8580   20.4290 H   0  0  0  0  0  0  0  0  0  0  0  0
  -26.2090  -15.6430   19.9620 H   0  0  0  0  0  0  0  0  0  0  0  0
  -28.5810  -24.0660   20.1720 C   0  0  0  0  0  2  0  0  0  0  0  0
  -28.5730  -25.4340   19.3890 C   0  0  0  0  0  2  0  0  0  0  0  0
  -28.4000  -26.6550   20.1580 O   0  0  0  0  0  0  0  0  0  0  0  0
  -24.5990  -31.8800   23.2320 C   0  0  0  0  0  0  0  0  0  0  0  0
  -27.2200  -27.3920   20.1320 C   0  0  0  0  0  0  0  0  0  0  0  0
  -23.3870  -30.4790   21.5980 C   0  0  0  0  0  3  0  0  0  0  0  0
  -24.8300  -28.9380   20.1610 C   0  0  0  0  0  0  0  0  0  0  0  0
  -25.9170  -30.8220   21.3930 C   0  0  0  0  0  2  0  0  0  0  0  0
  -25.9970  -29.4510   20.7420 C   0  0  0  0  0  0  0  0  0  0  0  0
  -27.1910  -28.6860   20.7190 C   0  0  0  0  0  3  0  0  0  0  0  0
  -26.0230  -26.8980   19.5660 C   0  0  0  0  0  3  0  0  0  0  0  0
  -24.8400  -27.6630   19.5730 C   0  0  0  0  0  3  0  0  0  0  0  0
  -23.5890  -29.8030   20.2170 C   0  0  0  0  0  2  0  0  0  0  0  0
  -24.6530  -31.0760   22.1310 N   0  0  0  0  0  0  0  0  0  0  0  0
  -23.5200  -32.1530   23.7760 O   0  0  0  0  0  0  0  0  0  0  0  0
  -22.7370  -29.4580   22.5590 C   0  0  0  0  0  0  0  0  0  0  0  0
  -21.4110  -29.2780   22.4380 N   0  0  0  0  0  0  0  0  0  0  0  0
  -23.4220  -28.8300   23.3700 O   0  0  0  0  0  0  0  0  0  0  0  0
  -20.9200  -29.8320   21.7510 H   0  0  0  0  0  0  0  0  0  0  0  0
  -18.0380  -28.0870   22.9500 C   0  0  0  0  0  0  0  0  0  0  0  0
  -20.5970  -28.3400   23.2110 C   0  0  0  0  0  3  0  0  0  0  0  0
  -20.6960  -26.9100   22.6310 C   0  0  0  0  0  2  0  0  0  0  0  0
  -19.5890  -26.5900   21.6230 C   0  0  0  0  0  2  0  0  0  0  0  0
  -18.2100  -26.7380   22.2720 C   0  0  0  0  0  2  0  0  0  0  0  0
  -19.1580  -28.8460   23.3760 C   0  0  0  0  0  0  0  0  0  0  0  0
  -18.9450  -30.1100   23.9680 C   0  0  0  0  0  3  0  0  0  0  0  0
  -17.6410  -30.6130   24.1400 C   0  0  0  0  0  3  0  0  0  0  0  0
  -16.5340  -29.8500   23.7310 C   0  0  0  0  0  3  0  0  0  0  0  0
  -16.7340  -28.5890   23.1400 C   0  0  0  0  0  3  0  0  0  0  0  0
  -25.8870  -32.5110   23.8460 C   0  0  0  0  0  3  0  0  0  0  0  0
  -25.5800  -33.9080   24.1810 N   0  0  0  0  0  0  0  0  0  0  0  0
  -25.9080  -34.9620   23.4230 C   0  0  0  0  0  0  0  0  0  0  0  0
  -26.5740  -34.8620   22.3890 O   0  0  0  0  0  0  0  0  0  0  0  0
  -24.9850  -34.0610   24.9830 H   0  0  0  0  0  0  0  0  0  0  0  0
  -24.1770  -36.7520   23.0740 C   0  0  0  0  0  1  0  0  0  0  0  0
  -25.4190  -36.3500   23.8850 C   0  0  0  0  0  3  0  0  0  0  0  0
  -27.5560  -37.2300   24.7120 C   0  0  0  0  0  1  0  0  0  0  0  0
  -26.4520  -37.4040   23.7720 N   0  0  0  0  0  0  0  0  0  0  0  0
  -26.0470  -38.3230   23.9230 H   0  0  0  0  0  0  0  0  0  0  0  0
  -26.4110  -31.7350   25.1170 C   0  0  1  0  0  0  0  0  0  0  0  0
  -25.3260  -31.4960   26.1910 C   0  0  0  0  0  1  0  0  0  0  0  0
  -26.9900  -30.3590   24.7140 C   0  0  0  0  0  1  0  0  0  0  0  0
  -27.5690  -32.5250   25.7720 C   0  0  0  0  0  1  0  0  0  0  0  0
  1  5  1  0
  2  1  1  0
  2 49  1  0
  3  1  2  0
  4  2  1  0
  5  6  1  0
  6  8  1  0
  7  6  1  0
  9  6  1  0
  9 10  1  0
 11 19  1  0
 12 17  1  0
 13 14  1  0
 13 12  1  0
 15 14  1  0
 15 24  1  0
 15 16  1  0
 17 11  1  0
 17 16  1  0
 18 11  2  0
 19 10  1  0
 19 20  1  0
 21 22  2  0
 22 41  1  0
 23 22  1  0
 23 26  1  0
 24 21  1  0
 24 25  1  0
 25 23  2  0
 26 27  1  0
 27 28  2  0
 29 32  1  0
 29 28  1  0
 30 29  2  0
 31 30  1  0
 31 26  2  0
 32 33  1  0
 33 34  1  0
 34 35  2  0
 36 35  1  0
 36 40  1  0
 37 36  2  0
 38 33  2  0
 38 37  1  0
 39 38  1  0
 41 42  1  0
 42 45  1  0
 42 44  1  0
 43 41  2  0
 46 47  1  0
 46 21  1  0
 48 46  1  0
 50 51  1  0
 50 49  1  0
 52 63  2  0
 53 51  1  0
 53 58  1  0
 54 62  1  0
 54 64  1  0
 55 61  1  0
 55 57  1  0
 56 62  1  0
 57 56  1  0
 58 57  2  0
 59 60  1  0
 59 53  2  0
 60 55  2  0
 61 54  1  0
 62 52  1  0
 64 66  2  0
 65 64  1  0
 67 65  1  0
 68 77  2  0
 68 73  1  0
 69 65  1  0
 69 73  1  0
 70 69  1  0
 71 72  1  0
 71 70  1  0
 72 68  1  0
 73 74  2  0
 74 75  1  0
 76 75  2  0
 77 76  1  0
 78 52  1  0
 78 79  1  0
 78 88  1  0
 79 82  1  0
 80 84  1  0
 80 79  1  0
 81 80  2  0
 84 83  1  0
 86 84  1  0
 86 87  1  0
 86 85  1  0
 88 91  1  1
 88 89  1  0
 90 88  1  0
M  ISO  4  11 100  19 100  50 101  51 101
M  END
>  <TORSDO>  (34) 
F 22

>  <SCORE>  (34) 
-12.965

>  <name>  (34) 
33

>  <ligand_id>  (34) 
33

>  <original_smiles>  (34) 
[H]c1c([H])c([H])c2c(c1[H])C([H])([H])C([H])([H])C([H])([H])C2([H])N([H])C(=O)C1([H])N(C(=O)C([H])(N([H])C(=O)C([H])(N([H])C([H])([H])[H])C([H])([H])[H])C(C([H])([H])[H])(C([H])([H])[H])C([H])([H])[H])C([H])([H])c2c([H])c(OC([H])([H])C([H])([H])N([H])C(=O)C([H])([H])[N+]([H])([H])C([H])([H])C([H])([H])N([H])C(=O)N3C([H])([H])C([H])([H])C([H])([H])C([H])(n4nc(-c5c([H])c([H])c(Oc6c([H])c([H])c(F)c([H])c6F)c([H])c5[H])c(C(=O)N([H])[H])c4N([H])[H])C3([H])[H])c([H])c([H])c2C1([H])[H]

>  <smiles>  (34) 
[H]c1c([H])c([H])c2c(c1[H])C([H])([H])C([H])([H])C([H])([H])C2([H])N([H])C(=O)C1([H])N(C(=O)C([H])(N([H])C(=O)C([H])(N([H])C([H])([H])[H])C([H])([H])[H])C(C([H])([H])[H])(C([H])([H])[H])C([H])([H])[H])C([H])([H])c2c([H])c(OC([H])([H])C([H])([H])N([H])C(=O)C([H])([H])[N+]([H])([H])C([H])([H])C([H])([H])N([H])C(=O)N3C([H])([H])C([H])([H])C([H])([H])C([H])(n4nc(-c5c([H])c([H])c(Oc6c([H])c([H])c(F)c([H])c6F)c([H])c5[H])c(C(=O)N([H])[H])c4N([H])[H])C3([H])[H])c([H])c([H])c2C1([H])[H]

$$$$
34:0:0
     RDKit          3D

 96103  0  0  1  0  0  0  0  0999 V2000
  -22.2180  -26.8880   22.6380 C   0  0  0  0  0  3  0  0  0  0  0  0
  -21.7550  -28.1320   21.3230 C   0  0  0  0  0  2  0  0  0  0  0  0
  -21.3230  -28.1470   19.6360 O   0  0  0  0  0  0  0  0  0  0  0  0
  -20.2940  -27.4020   18.4510 C   0  0  0  0  0  3  0  0  0  0  0  0
  -20.6290  -26.5860   16.8310 C   0  0  0  0  0  3  0  0  0  0  0  0
  -22.0450  -26.0380   15.7720 C   0  0  0  0  0  2  0  0  0  0  0  0
  -23.8130  -25.5490   15.8050 C   0  0  0  0  0  2  0  0  0  0  0  0
  -25.3490  -25.9170   15.2880 O   0  0  0  0  0  0  0  0  0  0  0  0
  -26.3420  -27.6280   20.9740 C   0  0  0  0  0  0  0  0  0  0  0  0
  -25.8570  -27.1560   15.1000 C   0  0  0  0  0  3  0  0  0  0  0  0
  -24.3720  -27.4100   19.4920 C   0  0  0  0  0  3  0  0  0  0  0  0
  -24.5450  -28.2590   17.1380 C   0  0  0  0  0  0  0  0  0  0  0  0
  -26.5180  -28.3940   18.6240 C   0  0  0  0  0  2  0  0  0  0  0  0
  -25.9160  -28.0920   17.2750 C   0  0  0  0  0  0  0  0  0  0  0  0
  -26.6400  -27.6040   16.1850 C   0  0  0  0  0  2  0  0  0  0  0  0
  -24.6810  -27.7820   14.7710 C   0  0  0  0  0  2  0  0  0  0  0  0
  -23.9450  -28.2450   15.8640 C   0  0  0  0  0  2  0  0  0  0  0  0
  -23.8330  -28.4340   18.4270 C   0  0  0  0  0  2  0  0  0  0  0  0
  -25.7730  -27.8040   19.7540 N   0  0  0  0  0  0  0  0  0  0  0  0
  -25.7080  -27.2280   21.9610 O   0  0  0  0  0  0  0  0  0  0  0  0
  -24.3250  -25.8110   19.1130 C   0  0  0  0  0  0  0  0  0  0  0  0
  -23.2770  -24.8090   18.8520 N   0  0  0  0  0  0  0  0  0  0  0  0
  -25.4030  -25.3040   19.1980 O   0  0  0  0  0  0  0  0  0  0  0  0
  -23.8240  -24.0400   18.4980 H   0  0  0  0  0  0  0  0  0  0  0  0
  -19.1880  -23.8770   19.4920 C   0  0  0  0  0  0  0  0  0  0  0  0
  -21.8370  -24.1020   19.2400 C   0  0  0  0  0  3  0  0  0  0  0  0
  -21.6790  -23.1250   18.1080 C   0  0  0  0  0  2  0  0  0  0  0  0
  -20.3730  -23.2350   17.3440 C   0  0  0  0  0  2  0  0  0  0  0  0
  -19.2040  -22.9920   18.2700 C   0  0  0  0  0  2  0  0  0  0  0  0
  -20.3950  -24.4300   20.0280 C   0  0  0  0  0  0  0  0  0  0  0  0
  -20.1470  -25.1270   21.2790 C   0  0  0  0  0  3  0  0  0  0  0  0
  -18.8750  -25.3610   21.8450 C   0  0  0  0  0  3  0  0  0  0  0  0
  -17.7390  -24.8160   21.2480 C   0  0  0  0  0  3  0  0  0  0  0  0
  -17.9120  -24.0590   20.0850 C   0  0  0  0  0  3  0  0  0  0  0  0
  -27.8440  -27.9520   21.1710 C   0  0  0  0  0  3  0  0  0  0  0  0
  -28.0640  -28.1300   22.6100 N   0  0  0  0  0  0  0  0  0  0  0  0
  -28.1680  -29.3190   23.2170 C   0  0  0  0  0  0  0  0  0  0  0  0
  -28.1580  -30.3900   22.6030 O   0  0  0  0  0  0  0  0  0  0  0  0
  -28.0200  -27.3000   23.1820 H   0  0  0  0  0  0  0  0  0  0  0  0
  -27.3470  -30.3320   25.3710 C   0  0  0  0  0  1  0  0  0  0  0  0
  -28.3160  -29.3130   24.7490 C   0  0  0  0  0  3  0  0  0  0  0  0
  -30.6280  -28.5100   24.9130 C   0  0  0  0  0  1  0  0  0  0  0  0
  -29.6920  -29.5930   25.2050 N   0  0  0  0  0  0  0  0  0  0  0  0
  -29.7120  -29.7670   26.2070 H   0  0  0  0  0  0  0  0  0  0  0  0
  -28.7870  -26.8360   20.5790 C   0  0  1  0  0  0  0  0  0  0  0  0
  -29.6310  -26.1050   21.6430 C   0  0  0  0  0  1  0  0  0  0  0  0
  -27.9870  -25.7670   19.7950 C   0  0  0  0  0  1  0  0  0  0  0  0
  -29.7620  -27.4750   19.5680 C   0  0  0  0  0  1  0  0  0  0  0  0
  -23.3360  -25.5060   22.9460 C   0  0  0  0  0  3  0  0  0  0  0  0
  -25.7380  -24.1650   22.2060 C   0  0  0  0  0  0  0  0  0  0  0  0
  -24.3380  -24.5600   22.0570 N   0  0  0  0  0  0  0  0  0  0  0  0
  -26.3910  -24.8230   23.0130 O   0  0  0  0  0  0  0  0  0  0  0  0
  -23.8500  -24.0040   21.3660 H   0  0  0  0  0  0  0  0  0  0  0  0
  -26.6310  -22.8740   21.5100 C   0  0  0  0  0  2  0  0  0  0  0  0
  -28.3650  -22.6740   21.2350 C   0  0  0  0  0  3  0  0  0  0  0  0
  -29.4250  -21.2610   21.1050 C   0  0  0  0  0  3  0  0  0  0  0  0
  -31.0820  -21.0230   20.5250 C   0  0  0  0  0  2  0  0  0  0  0  0
  -32.3180  -19.8090   20.8930 C   0  0  0  0  0  2  0  0  0  0  0  0
  -34.9260  -18.6730   20.1410 C   0  0  0  0  0  0  0  0  0  0  0  0
  -36.9410  -17.7970   18.7460 C   0  0  0  0  0  2  0  0  0  0  0  0
  -37.2650  -18.7030   17.5270 C   0  0  0  0  0  2  0  0  0  0  0  0
  -36.2910  -18.4480   16.3560 C   0  0  0  0  0  2  0  0  0  0  0  0
  -34.8290  -18.3350   16.8530 C   0  0  0  0  0  3  0  0  0  0  0  0
  -34.7060  -17.3450   18.0170 C   0  0  0  0  0  2  0  0  0  0  0  0
  -35.4840  -17.9330   19.0940 N   0  0  0  0  0  0  0  0  0  0  0  0
  -35.7130  -18.8960   21.0830 O   0  0  0  0  0  0  0  0  0  0  0  0
  -33.5580  -19.2000   20.0080 N   0  0  0  0  0  0  0  0  0  0  0  0
  -33.2280  -18.9790   19.0810 H   0  0  0  0  0  0  0  0  0  0  0  0
  -32.5750  -18.4000   15.6710 C   0  0  0  0  0  0  0  0  0  0  0  0
  -32.1410  -17.8450   14.5040 C   0  0  0  0  0  0  0  0  0  0  0  0
  -33.2450  -17.1010   13.9830 C   0  0  0  0  0  0  0  0  0  0  0  0
  -33.8900  -17.9980   15.8060 N   0  0  0  0  0  0  0  0  0  0  0  0
  -34.2740  -17.1570   14.8170 N   0  0  0  0  0  0  0  0  0  0  0  0
  -33.4070  -16.3970   12.7100 C   0  0  0  0  0  0  0  0  0  0  0  0
  -33.1070  -15.0220   12.5810 C   0  0  0  0  0  3  0  0  0  0  0  0
  -33.2540  -14.3740   11.3360 C   0  0  0  0  0  3  0  0  0  0  0  0
  -33.7010  -15.0990   10.2080 C   0  0  0  0  0  0  0  0  0  0  0  0
  -34.0200  -16.4620   10.3480 C   0  0  0  0  0  3  0  0  0  0  0  0
  -33.8790  -17.1040   11.5880 C   0  0  0  0  0  3  0  0  0  0  0  0
  -33.8960  -14.5480    8.9640 O   0  0  0  0  0  0  0  0  0  0  0  0
  -32.9280  -13.7920    8.3540 C   0  0  0  0  0  0  0  0  0  0  0  0
  -31.9350  -14.3710    7.5340 C   0  0  0  0  0  3  0  0  0  0  0  0
  -31.0030  -13.5490    6.8700 C   0  0  0  0  0  3  0  0  0  0  0  0
  -31.0660  -12.1510    7.0180 C   0  0  0  0  0  0  0  0  0  0  0  0
  -32.0570  -11.5720    7.8300 C   0  0  0  0  0  3  0  0  0  0  0  0
  -32.9880  -12.3910    8.4950 C   0  0  0  0  0  0  0  0  0  0  0  0
  -33.9530  -11.8270    9.2600 F   0  0  0  0  0  0  0  0  0  0  0  0
  -30.1760  -11.3600    6.3750 F   0  0  0  0  0  0  0  0  0  0  0  0
  -30.8110  -18.0740   13.8520 C   0  0  0  0  0  0  0  0  0  0  0  0
  -30.1970  -17.0230   13.3250 N   0  0  0  0  0  0  0  0  0  0  0  0
  -30.2850  -19.1880   13.8490 O   0  0  0  0  0  0  0  0  0  0  0  0
  -30.6190  -16.1050   13.3490 H   0  0  0  0  0  0  0  0  0  0  0  0
  -29.2920  -17.1340   12.8910 H   0  0  0  0  0  0  0  0  0  0  0  0
  -31.9720  -19.2310   16.6160 N   0  0  0  0  0  0  0  0  0  0  0  0
  -31.0270  -19.5760   16.4810 H   0  0  0  0  0  0  0  0  0  0  0  0
  -32.4540  -19.6970   17.3720 H   0  0  0  0  0  0  0  0  0  0  0  0
  1 49  2  0
  2  1  1  0
  3  2  1  0
  4  3  1  0
  5  4  2  0
  6  7  1  0
  6  5  1  0
  8  7  1  0
  9 20  2  0
 10  8  1  0
 10 15  1  0
 11 21  1  0
 11 19  1  0
 12 14  2  0
 12 18  1  0
 13 19  1  0
 14 13  1  0
 15 14  1  0
 16 10  1  0
 16 17  1  0
 17 12  1  0
 18 11  1  0
 19  9  1  0
 21 23  2  0
 22 21  1  0
 24 22  1  0
 25 30  2  0
 25 34  1  0
 26 22  1  0
 26 30  1  0
 27 26  1  0
 28 27  1  0
 28 29  1  0
 29 25  1  0
 30 31  1  0
 31 32  2  0
 33 32  1  0
 34 33  2  0
 35  9  1  0
 35 36  1  0
 36 39  1  0
 36 37  1  0
 37 41  1  0
 38 37  2  0
 41 43  1  0
 41 40  1  0
 42 43  1  0
 43 44  1  0
 45 35  1  0
 45 46  1  1
 47 45  1  0
 48 45  1  0
 50 52  2  0
 51 50  1  0
 51 49  1  0
 53 51  1  0
 54 50  1  0
 55 54  1  0
 56 55  2  0
 57 58  1  0
 57 56  1  0
 59 66  2  0
 60 65  1  0
 61 60  1  0
 62 63  1  0
 62 61  1  0
 63 72  1  0
 63 64  1  0
 64 65  1  0
 65 59  1  0
 67 59  1  0
 67 58  1  0
 68 67  1  0
 69 72  1  0
 69 94  1  0
 70 69  2  0
 71 70  1  0
 71 73  2  0
 73 72  1  0
 74 71  1  0
 75 74  1  0
 76 75  2  0
 77 78  2  0
 77 76  1  0
 78 79  1  0
 79 74  2  0
 80 77  1  0
 81 86  1  0
 81 80  1  0
 82 81  2  0
 83 84  2  0
 83 82  1  0
 84 85  1  0
 85 86  2  0
 86 87  1  0
 88 84  1  0
 89 70  1  0
 90 92  1  0
 90 89  1  0
 91 89  2  0
 93 90  1  0
 94 96  1  0
 95 94  1  0
M  ISO  4   7 101   8 101  59 100  67 100
M  END
>  <TORSDO>  (35) 
F 29

>  <SCORE>  (35) 
-7.073

>  <name>  (35) 
34

>  <ligand_id>  (35) 
34

>  <original_smiles>  (35) 
[H]c1c([H])c([H])c2c(c1[H])C([H])([H])C([H])([H])C([H])([H])C2([H])N([H])C(=O)C1([H])N(C(=O)C([H])(N([H])C(=O)C([H])(N([H])C([H])([H])[H])C([H])([H])[H])C(C([H])([H])[H])(C([H])([H])[H])C([H])([H])[H])C([H])([H])c2c([H])c(OC([H])([H])C([H])([H])C([H])([H])C([H])([H])OC([H])([H])C([H])([H])C([H])([H])N([H])C(=O)C([H])([H])C([H])([H])C([H])([H])C([H])([H])C([H])([H])N([H])C(=O)N3C([H])([H])C([H])([H])C([H])([H])C([H])(n4nc(-c5c([H])c([H])c(Oc6c([H])c([H])c(F)c([H])c6F)c([H])c5[H])c(C(=O)N([H])[H])c4N([H])[H])C3([H])[H])c([H])c([H])c2C1([H])[H]

>  <smiles>  (35) 
[H]c1c([H])c([H])c2c(c1[H])C([H])([H])C([H])([H])C([H])([H])C2([H])N([H])C(=O)C1([H])N(C(=O)C([H])(N([H])C(=O)C([H])(N([H])C([H])([H])[H])C([H])([H])[H])C(C([H])([H])[H])(C([H])([H])[H])C([H])([H])[H])C([H])([H])c2c([H])c(OC([H])([H])C([H])([H])C([H])([H])C([H])([H])OC([H])([H])C([H])([H])C([H])([H])N([H])C(=O)C([H])([H])C([H])([H])C([H])([H])C([H])([H])C([H])([H])N([H])C(=O)N3C([H])([H])C([H])([H])C([H])([H])C([H])(n4nc(-c5c([H])c([H])c(Oc6c([H])c([H])c(F)c([H])c6F)c([H])c5[H])c(C(=O)N([H])[H])c4N([H])[H])C3([H])[H])c([H])c([H])c2C1([H])[H]

$$$$
35:0:0
     RDKit          3D

102109  0  0  1  0  0  0  0  0999 V2000
  -26.3070  -19.3130   18.5980 C   0  0  0  0  0  0  0  0  0  0  0  0
  -27.2310  -18.3580   18.4420 N   0  0  0  0  0  0  0  0  0  0  0  0
  -25.1060  -19.0430   18.5780 O   0  0  0  0  0  0  0  0  0  0  0  0
  -28.2140  -18.5870   18.5170 H   0  0  0  0  0  0  0  0  0  0  0  0
  -26.8500  -20.6510   18.8010 C   0  0  0  0  0  3  0  0  0  0  0  0
  -26.0070  -21.6940   18.9580 C   0  0  0  0  0  3  0  0  0  0  0  0
  -26.4120  -23.1340   19.2210 C   0  0  0  0  0  2  0  0  0  0  0  0
  -25.5330  -24.0320   18.4500 N   0  0  0  0  0  4  0  0  0  0  0  0
  -24.6000  -23.8270   18.7690 H   0  0  0  0  0  0  0  0  0  0  0  0
  -25.5850  -23.7780   17.4740 H   0  0  0  0  0  0  0  0  0  0  0  0
  -25.7810  -25.4880   18.5740 C   0  0  0  0  0  2  0  0  0  0  0  0
  -24.9720  -26.2560   17.4920 C   0  0  0  0  0  2  0  0  0  0  0  0
  -25.1170  -27.6780   17.5360 O   0  0  0  0  0  0  0  0  0  0  0  0
  -25.0130  -28.8100   24.5290 C   0  0  0  0  0  0  0  0  0  0  0  0
  -24.4950  -28.3570   18.5610 C   0  0  0  0  0  0  0  0  0  0  0  0
  -23.0160  -29.5610   23.2920 C   0  0  0  0  0  3  0  0  0  0  0  0
  -23.2350  -29.6050   20.7550 C   0  0  0  0  0  0  0  0  0  0  0  0
  -25.3050  -29.4780   22.1510 C   0  0  0  0  0  2  0  0  0  0  0  0
  -24.5810  -29.2260   20.8460 C   0  0  0  0  0  0  0  0  0  0  0  0
  -25.2210  -28.6070   19.7470 C   0  0  0  0  0  3  0  0  0  0  0  0
  -23.1460  -28.7830   18.4780 C   0  0  0  0  0  3  0  0  0  0  0  0
  -22.5100  -29.3760   19.5770 C   0  0  0  0  0  3  0  0  0  0  0  0
  -22.6160  -30.2550   21.9670 C   0  0  0  0  0  2  0  0  0  0  0  0
  -24.4750  -29.2330   23.3520 N   0  0  0  0  0  0  0  0  0  0  0  0
  -24.3220  -28.7280   25.5530 O   0  0  0  0  0  0  0  0  0  0  0  0
  -22.0970  -28.3350   23.4920 C   0  0  0  0  0  0  0  0  0  0  0  0
  -20.7930  -28.5180   23.2280 N   0  0  0  0  0  0  0  0  0  0  0  0
  -22.5630  -27.2470   23.8410 O   0  0  0  0  0  0  0  0  0  0  0  0
  -20.4890  -29.4370   22.9380 H   0  0  0  0  0  0  0  0  0  0  0  0
  -17.5100  -27.6060   22.0240 C   0  0  0  0  0  0  0  0  0  0  0  0
  -19.7530  -27.4910   23.3040 C   0  0  0  0  0  3  0  0  0  0  0  0
  -20.0940  -26.2780   22.4100 C   0  0  0  0  0  2  0  0  0  0  0  0
  -19.4630  -26.3360   21.0160 C   0  0  0  0  0  2  0  0  0  0  0  0
  -17.9390  -26.4810   21.0930 C   0  0  0  0  0  2  0  0  0  0  0  0
  -18.3660  -28.0840   23.0500 C   0  0  0  0  0  0  0  0  0  0  0  0
  -17.9290  -29.1460   23.8710 C   0  0  0  0  0  3  0  0  0  0  0  0
  -16.6660  -29.7350   23.6790 C   0  0  0  0  0  3  0  0  0  0  0  0
  -15.8170  -29.2540   22.6660 C   0  0  0  0  0  3  0  0  0  0  0  0
  -16.2380  -28.1890   21.8440 C   0  0  0  0  0  3  0  0  0  0  0  0
  -26.5180  -28.4290   24.6480 C   0  0  0  0  0  3  0  0  0  0  0  0
  -27.1100  -29.2940   25.6770 N   0  0  0  0  0  0  0  0  0  0  0  0
  -27.9790  -30.2820   25.4270 C   0  0  0  0  0  0  0  0  0  0  0  0
  -28.4250  -30.5180   24.3000 O   0  0  0  0  0  0  0  0  0  0  0  0
  -26.7440  -29.2090   26.6140 H   0  0  0  0  0  0  0  0  0  0  0  0
  -27.7160  -32.5090   26.5600 C   0  0  0  0  0  1  0  0  0  0  0  0
  -28.4250  -31.1480   26.6210 C   0  0  0  0  0  3  0  0  0  0  0  0
  -30.6210  -30.1260   27.0180 C   0  0  0  0  0  1  0  0  0  0  0  0
  -29.8900  -31.3480   26.6870 N   0  0  0  0  0  0  0  0  0  0  0  0
  -30.1260  -32.0540   27.3800 H   0  0  0  0  0  0  0  0  0  0  0  0
  -26.7490  -26.9080   24.9900 C   0  0  1  0  0  0  0  0  0  0  0  0
  -25.9280  -26.4220   26.2070 C   0  0  0  0  0  1  0  0  0  0  0  0
  -26.3860  -26.0100   23.7830 C   0  0  0  0  0  1  0  0  0  0  0  0
  -28.2470  -26.6610   25.2880 C   0  0  0  0  0  1  0  0  0  0  0  0
  -26.8680  -16.9720   18.1150 C   0  0  0  0  0  2  0  0  0  0  0  0
  -27.5450  -15.9180   18.9960 C   0  0  0  0  0  0  0  0  0  0  0  0
  -27.6070  -14.6660   18.5170 N   0  0  0  0  0  0  0  0  0  0  0  0
  -27.9550  -16.2330   20.1130 O   0  0  0  0  0  0  0  0  0  0  0  0
  -27.2310  -14.5100   17.5910 H   0  0  0  0  0  0  0  0  0  0  0  0
  -28.2200  -13.5150   19.1870 C   0  0  0  0  0  2  0  0  0  0  0  0
  -29.6590  -13.8590   19.6140 C   0  0  0  0  0  2  0  0  0  0  0  0
  -30.7240  -12.8380   19.1670 C   0  0  0  0  0  2  0  0  0  0  0  0
  -32.2460  -13.2740   19.1800 C   0  0  0  0  0  1  0  0  0  0  0  0
  -34.9640  -12.5930   21.4650 C   0  0  0  0  0  2  0  0  0  0  0  0
  -36.6420  -13.2140   21.8390 C   0  0  0  0  0  2  0  0  0  0  0  0
  -39.0640  -12.3860   20.3670 C   0  0  0  0  0  0  0  0  0  0  0  0
  -38.9740   -9.9530   19.4640 C   0  0  0  0  0  2  0  0  0  0  0  0
  -38.0130   -9.4840   18.3240 C   0  0  0  0  0  2  0  0  0  0  0  0
  -36.5000   -9.6390   18.6290 C   0  0  0  0  0  2  0  0  0  0  0  0
  -36.2940  -11.0630   19.0140 C   0  0  0  0  0  3  0  0  0  0  0  0
  -37.1450  -11.2470   20.1480 C   0  0  0  0  0  2  0  0  0  0  0  0
  -38.5150  -11.2070   20.0480 N   0  0  0  0  0  0  0  0  0  0  0  0
  -40.1930  -12.6110   19.8720 O   0  0  0  0  0  0  0  0  0  0  0  0
  -38.2230  -13.1700   21.2720 N   0  0  0  0  0  0  0  0  0  0  0  0
  -38.7210  -14.0080   21.5420 H   0  0  0  0  0  0  0  0  0  0  0  0
  -34.5750  -12.8120   20.4420 C   0  0  2  0  0  0  0  0  0  0  0  0
  -33.1100  -12.5220   20.9610 C   0  0  0  0  0  3  0  0  0  0  0  0
  -32.7020  -10.9700   20.5520 C   0  0  0  0  0  0  0  0  0  0  0  0
  -35.0940  -11.4150   19.6390 N   0  0  0  0  0  0  0  0  0  0  0  0
  -33.8900  -10.2730   19.7630 N   0  0  0  0  0  0  0  0  0  0  0  0
  -31.4050  -10.3380   20.4050 C   0  0  0  0  0  0  0  0  0  0  0  0
  -30.9230   -9.5250   21.4370 C   0  0  0  0  0  3  0  0  0  0  0  0
  -29.6760   -8.8970   21.3110 C   0  0  0  0  0  3  0  0  0  0  0  0
  -28.9160   -9.0530   20.1250 C   0  0  0  0  0  0  0  0  0  0  0  0
  -29.4340   -9.8130   19.0630 C   0  0  0  0  0  3  0  0  0  0  0  0
  -30.6670  -10.4570   19.2060 C   0  0  0  0  0  3  0  0  0  0  0  0
  -27.6930   -8.4700   19.9340 O   0  0  0  0  0  0  0  0  0  0  0  0
  -26.6140   -8.8480   20.6860 C   0  0  0  0  0  0  0  0  0  0  0  0
  -26.0520  -10.1420   20.5890 C   0  0  0  0  0  3  0  0  0  0  0  0
  -24.9040  -10.4630   21.3370 C   0  0  0  0  0  3  0  0  0  0  0  0
  -24.3160   -9.4980   22.1780 C   0  0  0  0  0  0  0  0  0  0  0  0
  -24.8760   -8.2150   22.2730 C   0  0  0  0  0  3  0  0  0  0  0  0
  -26.0190   -7.8880   21.5260 C   0  0  0  0  0  0  0  0  0  0  0  0
  -26.5490   -6.6410   21.6070 F   0  0  0  0  0  0  0  0  0  0  0  0
  -23.2100   -9.8060   22.8910 F   0  0  0  0  0  0  0  0  0  0  0  0
  -32.1020  -13.5620   21.3560 C   0  0  0  0  0  0  0  0  0  0  0  0
  -30.9470  -13.1280   21.8350 N   0  0  0  0  0  0  0  0  0  0  0  0
  -32.3070  -14.7580   21.1830 O   0  0  0  0  0  0  0  0  0  0  0  0
  -30.7590  -12.1430   21.9370 H   0  0  0  0  0  0  0  0  0  0  0  0
  -30.2370  -13.7950   22.0890 H   0  0  0  0  0  0  0  0  0  0  0  0
  -35.4460  -13.8670   20.6080 N   0  0  0  0  0  0  0  0  0  0  0  0
  -35.1660  -14.7320   21.0510 H   0  0  0  0  0  0  0  0  0  0  0  0
  -36.3940  -13.8920   20.2640 H   0  0  0  0  0  0  0  0  0  0  0  0
  1  5  1  0
  2  4  1  0
  2  1  1  0
  3  1  2  0
  5  6  2  0
  6  7  1  0
  8 11  1  0
  8  9  1  0
  8  7  1  0
 10  8  1  0
 12 13  1  0
 12 11  1  0
 13 15  1  0
 14 25  2  0
 15 20  1  0
 16 24  1  0
 16 26  1  0
 17 19  1  0
 17 23  1  0
 18 24  1  0
 19 18  1  0
 20 19  2  0
 21 15  2  0
 21 22  1  0
 22 17  2  0
 23 16  1  0
 24 14  1  0
 26 28  2  0
 27 26  1  0
 29 27  1  0
 30 35  1  0
 31 27  1  0
 32 31  1  0
 33 34  1  0
 33 32  1  0
 34 30  1  0
 35 31  1  0
 35 36  2  0
 37 36  1  0
 38 37  2  0
 39 30  2  0
 39 38  1  0
 40 14  1  0
 40 50  1  0
 40 41  1  0
 41 44  1  0
 42 41  1  0
 42 46  1  0
 43 42  2  0
 46 45  1  0
 46 48  1  0
 48 47  1  0
 48 49  1  0
 50 53  1  1
 50 51  1  0
 52 50  1  0
 54  2  1  0
 54 55  1  0
 55 57  2  0
 56 55  1  0
 56 59  1  0
 58 56  1  0
 59 60  1  0
 61 62  1  0
 61 60  1  0
 63 64  1  0
 65 73  1  0
 66 71  1  0
 67 68  1  0
 67 66  1  0
 69 68  1  0
 69 78  1  0
 69 70  1  0
 71 70  1  0
 71 65  1  0
 72 65  2  0
 73 74  1  0
 73 64  1  0
 75100  1  6
 75 76  1  0
 75 63  1  0
 76 95  1  0
 77 76  1  0
 78 79  1  0
 78 75  1  0
 79 77  2  0
 80 77  1  0
 80 81  1  0
 82 81  2  0
 83 82  1  0
 84 85  1  0
 84 83  2  0
 85 80  2  0
 86 83  1  0
 86 87  1  0
 87 92  1  0
 88 87  2  0
 88 89  1  0
 89 90  2  0
 90 91  1  0
 90 94  1  0
 92 93  1  0
 92 91  2  0
 95 96  1  0
 96 98  1  0
 96 99  1  0
 97 95  2  0
100101  1  0
102100  1  0
M  ISO  4  12 101  13 101  65 100  73 100
M  END
>  <TORSDO>  (36) 
F 29

>  <SCORE>  (36) 
-1.756

>  <name>  (36) 
35

>  <ligand_id>  (36) 
35

>  <original_smiles>  (36) 
[H]C(C(=O)N([H])C([H])([H])C(=O)N([H])C([H])([H])C([H])([H])C([H])([H])C([H])([H])C([H])([H])C([H])([H])N([H])C(=O)N1C([H])([H])C([H])([H])C([H])([H])C([H])(n2nc(-c3c([H])c([H])c(Oc4c([H])c([H])c(F)c([H])c4F)c([H])c3[H])c(C(=O)N([H])[H])c2N([H])[H])C1([H])[H])=C([H])C([H])([H])[N+]([H])([H])C([H])([H])C([H])([H])Oc1c([H])c([H])c2c(c1[H])C([H])([H])N(C(=O)C([H])(N([H])C(=O)C([H])(N([H])C([H])([H])[H])C([H])([H])[H])C(C([H])([H])[H])(C([H])([H])[H])C([H])([H])[H])C([H])(C(=O)N([H])C1([H])c3c([H])c([H])c([H])c([H])c3C([H])([H])C([H])([H])C1([H])[H])C2([H])[H]

>  <smiles>  (36) 
[H]C(C(=O)N([H])C([H])([H])C(=O)N([H])C([H])([H])C([H])([H])C([H])([H])C([H])([H])C([H])([H])C([H])([H])N([H])C(=O)N1C([H])([H])C([H])([H])C([H])([H])C([H])(n2nc(-c3c([H])c([H])c(Oc4c([H])c([H])c(F)c([H])c4F)c([H])c3[H])c(C(=O)N([H])[H])c2N([H])[H])C1([H])[H])=C([H])C([H])([H])[N+]([H])([H])C([H])([H])C([H])([H])Oc1c([H])c([H])c2c(c1[H])C([H])([H])N(C(=O)C([H])(N([H])C(=O)C([H])(N([H])C([H])([H])[H])C([H])([H])[H])C(C([H])([H])[H])(C([H])([H])[H])C([H])([H])[H])C([H])(C(=O)N([H])C1([H])c3c([H])c([H])c([H])c([H])c3C([H])([H])C([H])([H])C1([H])[H])C2([H])[H]

$$$$
36:0:0
     RDKit          3D

101108  0  0  1  0  0  0  0  0999 V2000
  -28.3470  -22.6500   20.7210 C   0  0  0  0  0  2  0  0  0  0  0  0
  -29.4980  -23.6640   20.8820 C   0  0  0  0  0  2  0  0  0  0  0  0
  -29.0820  -25.1430   20.8440 C   0  0  0  0  0  2  0  0  0  0  0  0
  -29.3990  -25.9070   18.4940 C   0  0  0  0  0  0  0  0  0  0  0  0
  -28.6270  -25.5480   19.5200 N   0  0  0  0  0  0  0  0  0  0  0  0
  -30.6300  -25.9450   18.5510 O   0  0  0  0  0  0  0  0  0  0  0  0
  -27.6280  -25.6010   19.3810 H   0  0  0  0  0  0  0  0  0  0  0  0
  -28.5890  -26.2450   17.3420 C   0  0  0  0  0  3  0  0  0  0  0  0
  -28.9740  -27.2200   16.4970 C   0  0  0  0  0  3  0  0  0  0  0  0
  -28.1870  -27.6660   15.2790 C   0  0  0  0  0  2  0  0  0  0  0  0
  -26.8880  -27.0780   15.2360 O   0  0  0  0  0  0  0  0  0  0  0  0
  -24.7010  -29.2850   21.7030 C   0  0  0  0  0  0  0  0  0  0  0  0
  -25.8960  -27.4820   16.1070 C   0  0  0  0  0  0  0  0  0  0  0  0
  -22.9260  -28.6720   20.0930 C   0  0  0  0  0  3  0  0  0  0  0  0
  -23.6970  -28.2970   17.6940 C   0  0  0  0  0  0  0  0  0  0  0  0
  -25.1820  -29.5430   19.2700 C   0  0  0  0  0  2  0  0  0  0  0  0
  -24.9980  -28.6740   18.0470 C   0  0  0  0  0  0  0  0  0  0  0  0
  -26.0990  -28.2640   17.2680 C   0  0  0  0  0  3  0  0  0  0  0  0
  -24.5790  -27.1040   15.7710 C   0  0  0  0  0  3  0  0  0  0  0  0
  -23.4830  -27.4980   16.5580 C   0  0  0  0  0  3  0  0  0  0  0  0
  -22.5820  -28.7970   18.5850 C   0  0  0  0  0  2  0  0  0  0  0  0
  -24.3110  -29.1530   20.4040 N   0  0  0  0  0  0  0  0  0  0  0  0
  -23.9170  -29.0580   22.6330 O   0  0  0  0  0  0  0  0  0  0  0  0
  -22.6660  -27.2150   20.5360 C   0  0  0  0  0  0  0  0  0  0  0  0
  -21.3840  -26.8170   20.5710 N   0  0  0  0  0  0  0  0  0  0  0  0
  -23.6040  -26.4640   20.8180 O   0  0  0  0  0  0  0  0  0  0  0  0
  -20.6720  -27.4940   20.3340 H   0  0  0  0  0  0  0  0  0  0  0  0
  -18.4330  -24.7420   20.7530 C   0  0  0  0  0  0  0  0  0  0  0  0
  -20.9050  -25.4810   20.9250 C   0  0  0  0  0  3  0  0  0  0  0  0
  -21.1810  -24.4690   19.7870 C   0  0  0  0  0  2  0  0  0  0  0  0
  -20.0070  -24.3220   18.8170 C   0  0  0  0  0  2  0  0  0  0  0  0
  -18.7480  -23.8600   19.5550 C   0  0  0  0  0  2  0  0  0  0  0  0
  -19.4420  -25.5130   21.3860 C   0  0  0  0  0  0  0  0  0  0  0  0
  -19.0850  -26.3440   22.4690 C   0  0  0  0  0  3  0  0  0  0  0  0
  -17.7540  -26.4080   22.9210 C   0  0  0  0  0  3  0  0  0  0  0  0
  -16.7630  -25.6230   22.3040 C   0  0  0  0  0  3  0  0  0  0  0  0
  -17.1050  -24.7910   21.2230 C   0  0  0  0  0  3  0  0  0  0  0  0
  -26.1420  -29.7500   22.0830 C   0  0  0  0  0  3  0  0  0  0  0  0
  -26.0170  -30.8000   23.1010 N   0  0  0  0  0  0  0  0  0  0  0  0
  -26.2220  -32.1050   22.8750 C   0  0  0  0  0  0  0  0  0  0  0  0
  -26.6170  -32.5420   21.7910 O   0  0  0  0  0  0  0  0  0  0  0  0
  -25.6490  -30.5190   23.9980 H   0  0  0  0  0  0  0  0  0  0  0  0
  -24.6080  -33.7960   23.7990 C   0  0  0  0  0  1  0  0  0  0  0  0
  -25.9470  -33.0780   24.0360 C   0  0  0  0  0  3  0  0  0  0  0  0
  -28.2600  -33.4990   24.7490 C   0  0  0  0  0  1  0  0  0  0  0  0
  -27.0210  -34.0780   24.2330 N   0  0  0  0  0  0  0  0  0  0  0  0
  -26.7220  -34.8080   24.8730 H   0  0  0  0  0  0  0  0  0  0  0  0
  -27.0610  -28.5740   22.5950 C   0  0  1  0  0  0  0  0  0  0  0  0
  -26.4250  -27.7290   23.7230 C   0  0  0  0  0  1  0  0  0  0  0  0
  -27.4120  -27.6210   21.4290 C   0  0  0  0  0  1  0  0  0  0  0  0
  -28.4010  -29.1460   23.1110 C   0  0  0  0  0  1  0  0  0  0  0  0
  -28.7950  -21.4520   19.8610 C   0  0  0  0  0  2  0  0  0  0  0  0
  -27.8810  -21.0930   18.6660 C   0  0  0  0  0  2  0  0  0  0  0  0
  -28.2840  -21.7190   17.3160 C   0  0  0  0  0  2  0  0  0  0  0  0
  -29.8900  -21.1560   15.5130 C   0  0  0  0  0  0  0  0  0  0  0  0
  -29.3810  -20.9630   16.7300 N   0  0  0  0  0  0  0  0  0  0  0  0
  -29.2880  -21.7440   14.6130 O   0  0  0  0  0  0  0  0  0  0  0  0
  -29.9410  -20.4240   17.3770 H   0  0  0  0  0  0  0  0  0  0  0  0
  -31.3250  -20.6760   15.3080 C   0  0  0  0  0  2  0  0  0  0  0  0
  -31.4970  -19.1560   15.4480 C   0  0  0  0  0  2  0  0  0  0  0  0
  -31.1920  -18.6150   16.8580 C   0  0  0  0  0  2  0  0  0  0  0  0
  -32.1650  -17.4980   17.2560 C   0  0  0  0  0  2  0  0  0  0  0  0
  -32.2510  -17.2550   18.7740 C   0  0  0  0  0  2  0  0  0  0  0  0
  -32.2610  -14.8500   19.4230 C   0  0  0  0  0  0  0  0  0  0  0  0
  -32.3880  -12.9470   20.9800 C   0  0  0  0  0  2  0  0  0  0  0  0
  -31.9920  -11.6010   20.3570 C   0  0  0  0  0  2  0  0  0  0  0  0
  -30.4710  -11.3910   20.4590 C   0  0  0  0  0  2  0  0  0  0  0  0
  -29.6700  -12.6090   19.9300 C   0  0  0  0  0  3  0  0  0  0  0  0
  -30.1930  -13.9300   20.5340 C   0  0  0  0  0  2  0  0  0  0  0  0
  -31.6480  -14.0210   20.3030 N   0  0  0  0  0  0  0  0  0  0  0  0
  -33.4030  -14.6620   18.9930 O   0  0  0  0  0  0  0  0  0  0  0  0
  -31.6260  -16.0110   19.2280 N   0  0  0  0  0  0  0  0  0  0  0  0
  -30.7130  -16.0910   19.6480 H   0  0  0  0  0  0  0  0  0  0  0  0
  -27.1800  -13.2590   19.7950 C   0  0  0  0  0  0  0  0  0  0  0  0
  -26.0430  -12.6060   20.1870 C   0  0  0  0  0  0  0  0  0  0  0  0
  -26.4750  -11.3840   20.7890 C   0  0  0  0  0  0  0  0  0  0  0  0
  -28.2360  -12.4390   20.1640 N   0  0  0  0  0  0  0  0  0  0  0  0
  -27.8010  -11.3280   20.8140 N   0  0  0  0  0  0  0  0  0  0  0  0
  -25.7050  -10.2380   21.2900 C   0  0  0  0  0  0  0  0  0  0  0  0
  -25.2870  -10.1620   22.6370 C   0  0  0  0  0  3  0  0  0  0  0  0
  -24.5310   -9.0590   23.0900 C   0  0  0  0  0  3  0  0  0  0  0  0
  -24.1820   -8.0220   22.1950 C   0  0  0  0  0  0  0  0  0  0  0  0
  -24.6200   -8.0920   20.8610 C   0  0  0  0  0  3  0  0  0  0  0  0
  -25.3770   -9.1860   20.4110 C   0  0  0  0  0  3  0  0  0  0  0  0
  -23.4730   -6.9000   22.5520 O   0  0  0  0  0  0  0  0  0  0  0  0
  -22.2130   -6.9840   23.0870 C   0  0  0  0  0  0  0  0  0  0  0  0
  -21.1460   -7.5910   22.3890 C   0  0  0  0  0  3  0  0  0  0  0  0
  -19.8510   -7.5940   22.9470 C   0  0  0  0  0  3  0  0  0  0  0  0
  -19.6210   -6.9860   24.1950 C   0  0  0  0  0  0  0  0  0  0  0  0
  -20.6820   -6.3770   24.8900 C   0  0  0  0  0  3  0  0  0  0  0  0
  -21.9740   -6.3750   24.3360 C   0  0  0  0  0  0  0  0  0  0  0  0
  -22.9870   -5.7680   24.9980 F   0  0  0  0  0  0  0  0  0  0  0  0
  -18.3770   -6.9820   24.7280 F   0  0  0  0  0  0  0  0  0  0  0  0
  -24.6270  -13.0440   19.9380 C   0  0  0  0  0  0  0  0  0  0  0  0
  -23.7240  -12.7520   20.8670 N   0  0  0  0  0  0  0  0  0  0  0  0
  -24.3260  -13.6910   18.9360 O   0  0  0  0  0  0  0  0  0  0  0  0
  -23.9750  -12.2370   21.6980 H   0  0  0  0  0  0  0  0  0  0  0  0
  -22.7660  -13.0490   20.7460 H   0  0  0  0  0  0  0  0  0  0  0  0
  -27.4070  -14.4650   19.1390 N   0  0  0  0  0  0  0  0  0  0  0  0
  -26.6500  -15.0580   18.8140 H   0  0  0  0  0  0  0  0  0  0  0  0
  -28.3230  -14.8220   18.8950 H   0  0  0  0  0  0  0  0  0  0  0  0
  1  2  1  0
  3  2  1  0
  4  6  2  0
  4  5  1  0
  5  3  1  0
  7  5  1  0
  8  4  1  0
  9  8  2  0
 10  9  1  0
 11 10  1  0
 11 13  1  0
 12 23  2  0
 13 18  1  0
 14 22  1  0
 14 24  1  0
 15 17  1  0
 15 21  1  0
 16 22  1  0
 17 16  1  0
 18 17  2  0
 19 13  2  0
 19 20  1  0
 20 15  2  0
 21 14  1  0
 22 12  1  0
 24 25  1  0
 24 26  2  0
 27 25  1  0
 28 37  2  0
 28 33  1  0
 29 25  1  0
 29 33  1  0
 30 29  1  0
 31 32  1  0
 31 30  1  0
 32 28  1  0
 33 34  2  0
 34 35  1  0
 36 35  2  0
 37 36  1  0
 38 12  1  0
 38 48  1  0
 38 39  1  0
 39 42  1  0
 40 39  1  0
 40 44  1  0
 41 40  2  0
 44 43  1  0
 44 46  1  0
 46 45  1  0
 46 47  1  0
 48 51  1  1
 48 49  1  0
 50 48  1  0
 52  1  1  0
 53 52  1  0
 54 53  1  0
 55 56  1  0
 56 54  1  0
 56 58  1  0
 57 55  2  0
 59 60  1  0
 59 55  1  0
 60 61  1  0
 61 62  1  0
 62 63  1  0
 63 72  1  0
 64 70  1  0
 66 67  1  0
 66 65  1  0
 68 77  1  0
 68 67  1  0
 68 69  1  0
 70 69  1  0
 70 65  1  0
 71 64  2  0
 72 64  1  0
 72 73  1  0
 74 77  1  0
 74 75  2  0
 75 76  1  0
 76 78  2  0
 76 79  1  0
 77 78  1  0
 79 80  1  0
 80 81  2  0
 82 85  1  0
 82 81  1  0
 83 82  2  0
 84 83  1  0
 84 79  2  0
 85 86  1  0
 86 91  1  0
 87 88  1  0
 87 86  2  0
 88 89  2  0
 89 93  1  0
 89 90  1  0
 91 90  2  0
 91 92  1  0
 94 75  1  0
 94 95  1  0
 95 97  1  0
 96 94  2  0
 98 95  1  0
 99 74  1  0
100 99  1  0
101 99  1  0
M  ISO  4  10 101  11 101  64 100  72 100
M  END
>  <TORSDO>  (37) 
F 30

>  <SCORE>  (37) 
-2.085

>  <name>  (37) 
36

>  <ligand_id>  (37) 
36

>  <original_smiles>  (37) 
[H]C(C(=O)N([H])C([H])([H])C([H])([H])C([H])([H])C([H])([H])C([H])([H])C([H])([H])N([H])C(=O)C([H])([H])C([H])([H])C([H])([H])C([H])([H])C([H])([H])N([H])C(=O)N1C([H])([H])C([H])([H])C([H])([H])C([H])(n2nc(-c3c([H])c([H])c(Oc4c([H])c([H])c(F)c([H])c4F)c([H])c3[H])c(C(=O)N([H])[H])c2N([H])[H])C1([H])[H])=C([H])C([H])([H])Oc1c([H])c([H])c2c(c1[H])C([H])([H])N(C(=O)C([H])(N([H])C(=O)C([H])(N([H])C([H])([H])[H])C([H])([H])[H])C(C([H])([H])[H])(C([H])([H])[H])C([H])([H])[H])C([H])(C(=O)N([H])C1([H])c3c([H])c([H])c([H])c([H])c3C([H])([H])C([H])([H])C1([H])[H])C2([H])[H]

>  <smiles>  (37) 
[H]C(C(=O)N([H])C([H])([H])C([H])([H])C([H])([H])C([H])([H])C([H])([H])C([H])([H])N([H])C(=O)C([H])([H])C([H])([H])C([H])([H])C([H])([H])C([H])([H])N([H])C(=O)N1C([H])([H])C([H])([H])C([H])([H])C([H])(n2nc(-c3c([H])c([H])c(Oc4c([H])c([H])c(F)c([H])c4F)c([H])c3[H])c(C(=O)N([H])[H])c2N([H])[H])C1([H])[H])=C([H])C([H])([H])Oc1c([H])c([H])c2c(c1[H])C([H])([H])N(C(=O)C([H])(N([H])C(=O)C([H])(N([H])C([H])([H])[H])C([H])([H])[H])C(C([H])([H])[H])(C([H])([H])[H])C([H])([H])[H])C([H])(C(=O)N([H])C1([H])c3c([H])c([H])c([H])c([H])c3C([H])([H])C([H])([H])C1([H])[H])C2([H])[H]

$$$$
37:0:0
     RDKit          3D

100107  0  0  1  0  0  0  0  0999 V2000
  -31.9710  -23.1790   27.7840 C   0  0  0  0  0  2  0  0  0  0  0  0
  -30.6340  -23.7920   25.7740 C   0  0  0  0  0  0  0  0  0  0  0  0
  -30.7970  -23.7040   27.0990 N   0  0  0  0  0  0  0  0  0  0  0  0
  -31.5420  -23.5670   24.9700 O   0  0  0  0  0  0  0  0  0  0  0  0
  -30.0000  -23.9450   27.6750 H   0  0  0  0  0  0  0  0  0  0  0  0
  -29.2270  -24.1490   25.2920 C   0  0  0  0  0  2  0  0  0  0  0  0
  -29.2970  -24.9680   24.1320 O   0  0  0  0  0  0  0  0  0  0  0  0
  -28.0000  -25.3470   23.7050 C   0  0  0  0  0  2  0  0  0  0  0  0
  -28.0970  -26.3720   22.5760 C   0  0  0  0  0  2  0  0  0  0  0  0
  -28.3590  -25.7640   21.1780 C   0  0  0  0  0  2  0  0  0  0  0  0
  -28.3890  -26.7530   20.1410 O   0  0  0  0  0  0  0  0  0  0  0  0
  -24.6090  -31.8700   23.2140 C   0  0  0  0  0  0  0  0  0  0  0  0
  -27.2390  -27.4930   20.0760 C   0  0  0  0  0  0  0  0  0  0  0  0
  -23.3950  -30.4930   21.5540 C   0  0  0  0  0  3  0  0  0  0  0  0
  -24.8430  -28.9690   20.1080 C   0  0  0  0  0  0  0  0  0  0  0  0
  -25.9180  -30.8570   21.3550 C   0  0  0  0  0  2  0  0  0  0  0  0
  -26.0000  -29.5000   20.6920 C   0  0  0  0  0  0  0  0  0  0  0  0
  -27.2050  -28.7740   20.6620 C   0  0  0  0  0  3  0  0  0  0  0  0
  -26.0750  -26.9600   19.4900 C   0  0  0  0  0  3  0  0  0  0  0  0
  -24.8740  -27.6980   19.5010 C   0  0  0  0  0  3  0  0  0  0  0  0
  -23.5980  -29.8230   20.1670 C   0  0  0  0  0  2  0  0  0  0  0  0
  -24.6590  -31.0850   22.1010 N   0  0  0  0  0  0  0  0  0  0  0  0
  -23.5290  -32.1410   23.7580 O   0  0  0  0  0  0  0  0  0  0  0  0
  -22.7380  -29.4660   22.5010 C   0  0  0  0  0  0  0  0  0  0  0  0
  -21.4110  -29.3020   22.3760 N   0  0  0  0  0  0  0  0  0  0  0  0
  -23.4160  -28.8200   23.3030 O   0  0  0  0  0  0  0  0  0  0  0  0
  -20.9250  -29.8740   21.7010 H   0  0  0  0  0  0  0  0  0  0  0  0
  -18.0260  -28.1380   22.8490 C   0  0  0  0  0  0  0  0  0  0  0  0
  -20.5850  -28.3650   23.1360 C   0  0  0  0  0  3  0  0  0  0  0  0
  -20.6750  -26.9400   22.5440 C   0  0  0  0  0  2  0  0  0  0  0  0
  -19.5740  -26.6390   21.5230 C   0  0  0  0  0  2  0  0  0  0  0  0
  -18.1920  -26.7930   22.1620 C   0  0  0  0  0  2  0  0  0  0  0  0
  -19.1510  -28.8820   23.2930 C   0  0  0  0  0  0  0  0  0  0  0  0
  -18.9440  -30.1430   23.8940 C   0  0  0  0  0  3  0  0  0  0  0  0
  -17.6450  -30.6580   24.0570 C   0  0  0  0  0  3  0  0  0  0  0  0
  -16.5350  -29.9090   23.6340 C   0  0  0  0  0  3  0  0  0  0  0  0
  -16.7260  -28.6510   23.0340 C   0  0  0  0  0  3  0  0  0  0  0  0
  -25.8990  -32.4840   23.8410 C   0  0  0  0  0  3  0  0  0  0  0  0
  -26.4450  -31.6600   25.0720 C   0  0  1  0  0  0  0  0  0  0  0  0
  -25.3730  -31.3690   26.1480 C   0  0  0  0  0  1  0  0  0  0  0  0
  -27.0280  -30.3050   24.6040 C   0  0  0  0  0  1  0  0  0  0  0  0
  -27.6050  -32.4290   25.7450 C   0  0  0  0  0  1  0  0  0  0  0  0
  -25.5870  -33.8630   24.2350 N   0  0  0  0  0  0  0  0  0  0  0  0
  -25.9030  -34.9490   23.5150 C   0  0  0  0  0  0  0  0  0  0  0  0
  -26.5600  -34.8910   22.4710 O   0  0  0  0  0  0  0  0  0  0  0  0
  -24.9990  -33.9800   25.0470 H   0  0  0  0  0  0  0  0  0  0  0  0
  -24.1490  -36.7320   23.2640 C   0  0  0  0  0  1  0  0  0  0  0  0
  -25.4110  -36.3120   24.0350 C   0  0  0  0  0  3  0  0  0  0  0  0
  -27.5590  -37.1810   24.8460 C   0  0  0  0  0  1  0  0  0  0  0  0
  -26.4300  -37.3810   23.9410 N   0  0  0  0  0  0  0  0  0  0  0  0
  -26.0210  -38.2900   24.1420 H   0  0  0  0  0  0  0  0  0  0  0  0
  -31.9900  -21.6450   27.7010 C   0  0  0  0  0  2  0  0  0  0  0  0
  -33.0840  -21.0000   28.5640 C   0  0  0  0  0  2  0  0  0  0  0  0
  -33.2850  -19.5160   28.2230 C   0  0  0  0  0  2  0  0  0  0  0  0
  -34.0800  -19.3620   26.9860 N   0  0  0  0  0  4  0  0  0  0  0  0
  -33.8320  -20.0760   26.3230 H   0  0  0  0  0  0  0  0  0  0  0  0
  -35.0480  -19.5060   27.2290 H   0  0  0  0  0  0  0  0  0  0  0  0
  -33.9790  -18.0500   26.3190 C   0  0  0  0  0  2  0  0  0  0  0  0
  -32.6640  -17.8630   25.5290 C   0  0  0  0  0  2  0  0  0  0  0  0
  -32.7340  -16.5880   24.6780 C   0  0  0  0  0  2  0  0  0  0  0  0
  -31.5370  -16.3420   23.7430 C   0  0  0  0  0  2  0  0  0  0  0  0
  -31.8600  -15.1420   22.8380 C   0  0  0  0  0  2  0  0  0  0  0  0
  -30.8410  -14.2750   20.7630 C   0  0  0  0  0  0  0  0  0  0  0  0
  -30.4030  -12.2920   19.3710 C   0  0  0  0  0  2  0  0  0  0  0  0
  -29.4670  -12.5350   18.1790 C   0  0  0  0  0  2  0  0  0  0  0  0
  -28.0000  -12.3740   18.6090 C   0  0  0  0  0  2  0  0  0  0  0  0
  -27.6630  -13.2050   19.8730 C   0  0  0  0  0  3  0  0  0  0  0  0
  -28.7010  -12.9720   20.9920 C   0  0  0  0  0  2  0  0  0  0  0  0
  -30.0500  -13.2210   20.4530 N   0  0  0  0  0  0  0  0  0  0  0  0
  -31.7580  -14.6770   20.0390 O   0  0  0  0  0  0  0  0  0  0  0  0
  -30.7320  -14.6660   22.0400 N   0  0  0  0  0  0  0  0  0  0  0  0
  -29.9540  -14.2700   22.5480 H   0  0  0  0  0  0  0  0  0  0  0  0
  -25.2590  -13.8180   20.5680 C   0  0  0  0  0  0  0  0  0  0  0  0
  -24.1840  -13.0450   20.9170 C   0  0  0  0  0  0  0  0  0  0  0  0
  -24.6400  -11.6910   20.8730 C   0  0  0  0  0  0  0  0  0  0  0  0
  -26.3030  -12.9340   20.3370 N   0  0  0  0  0  0  0  0  0  0  0  0
  -25.9320  -11.6500   20.5760 N   0  0  0  0  0  0  0  0  0  0  0  0
  -23.9060  -10.4290   21.0400 C   0  0  0  0  0  0  0  0  0  0  0  0
  -24.3610   -9.4210   21.9190 C   0  0  0  0  0  3  0  0  0  0  0  0
  -23.6290   -8.2250   22.0760 C   0  0  0  0  0  3  0  0  0  0  0  0
  -22.4280   -8.0280   21.3550 C   0  0  0  0  0  0  0  0  0  0  0  0
  -21.9900   -9.0250   20.4650 C   0  0  0  0  0  3  0  0  0  0  0  0
  -22.7230  -10.2130   20.3050 C   0  0  0  0  0  3  0  0  0  0  0  0
  -21.6640   -6.8880   21.4240 O   0  0  0  0  0  0  0  0  0  0  0  0
  -21.6860   -6.0740   22.5280 C   0  0  0  0  0  0  0  0  0  0  0  0
  -21.4010   -6.5640   23.8210 C   0  0  0  0  0  3  0  0  0  0  0  0
  -21.3660   -5.6790   24.9180 C   0  0  0  0  0  3  0  0  0  0  0  0
  -21.6040   -4.3060   24.7230 C   0  0  0  0  0  0  0  0  0  0  0  0
  -21.8820   -3.8150   23.4340 C   0  0  0  0  0  3  0  0  0  0  0  0
  -21.9190   -4.6960   22.3410 C   0  0  0  0  0  0  0  0  0  0  0  0
  -22.1660   -4.2150   21.0980 F   0  0  0  0  0  0  0  0  0  0  0  0
  -21.5620   -3.4540   25.7740 F   0  0  0  0  0  0  0  0  0  0  0  0
  -22.7870  -13.5240   21.1840 C   0  0  0  0  0  0  0  0  0  0  0  0
  -22.0500  -12.8230   22.0390 N   0  0  0  0  0  0  0  0  0  0  0  0
  -22.3550  -14.5560   20.6690 O   0  0  0  0  0  0  0  0  0  0  0  0
  -22.4100  -11.9880   22.4760 H   0  0  0  0  0  0  0  0  0  0  0  0
  -21.1120  -13.1270   22.2610 H   0  0  0  0  0  0  0  0  0  0  0  0
  -25.4330  -15.1890   20.4110 N   0  0  0  0  0  0  0  0  0  0  0  0
  -24.6730  -15.8500   20.5330 H   0  0  0  0  0  0  0  0  0  0  0  0
  -26.2960  -15.6280   20.1140 H   0  0  0  0  0  0  0  0  0  0  0  0
  2  3  1  0
  3  5  1  0
  3  1  1  0
  4  2  2  0
  6  2  1  0
  7  6  1  0
  8  7  1  0
  9  8  1  0
 10  9  1  0
 11 10  1  0
 12 23  2  0
 13 11  1  0
 13 18  1  0
 14 22  1  0
 14 24  1  0
 15 21  1  0
 15 17  1  0
 16 22  1  0
 17 16  1  0
 18 17  2  0
 19 20  1  0
 19 13  2  0
 20 15  2  0
 21 14  1  0
 22 12  1  0
 24 26  2  0
 25 24  1  0
 27 25  1  0
 28 37  2  0
 28 33  1  0
 29 25  1  0
 29 33  1  0
 30 29  1  0
 31 32  1  0
 31 30  1  0
 32 28  1  0
 33 34  2  0
 34 35  1  0
 36 35  2  0
 37 36  1  0
 38 12  1  0
 38 43  1  0
 38 39  1  0
 39 42  1  1
 39 40  1  0
 41 39  1  0
 43 46  1  0
 44 48  1  0
 44 43  1  0
 45 44  2  0
 48 47  1  0
 50 48  1  0
 50 51  1  0
 50 49  1  0
 52  1  1  0
 52 53  1  0
 54 53  1  0
 55 57  1  0
 55 54  1  0
 56 55  1  0
 58 55  1  0
 59 58  1  0
 60 59  1  0
 61 60  1  0
 62 61  1  0
 63 71  1  0
 64 69  1  0
 65 66  1  0
 65 64  1  0
 67 66  1  0
 67 76  1  0
 67 68  1  0
 69 63  1  0
 69 68  1  0
 70 63  2  0
 71 72  1  0
 71 62  1  0
 73 74  2  0
 74 93  1  0
 75 74  1  0
 75 78  1  0
 76 73  1  0
 76 77  1  0
 77 75  2  0
 78 79  1  0
 79 80  2  0
 81 84  1  0
 81 80  1  0
 82 81  2  0
 83 82  1  0
 83 78  2  0
 84 85  1  0
 85 86  1  0
 86 87  2  0
 88 87  1  0
 88 92  1  0
 89 88  2  0
 90 85  2  0
 90 89  1  0
 91 90  1  0
 93 94  1  0
 94 97  1  0
 94 96  1  0
 95 93  2  0
 98 99  1  0
 98 73  1  0
100 98  1  0
M  ISO  4  10 101  11 101  63 100  71 100
M  END
>  <TORSDO>  (38) 
F 31

>  <SCORE>  (38) 
60.567

>  <name>  (38) 
37

>  <ligand_id>  (38) 
37

>  <original_smiles>  (38) 
[H]c1c([H])c([H])c2c(c1[H])C([H])([H])C([H])([H])C([H])([H])C2([H])N([H])C(=O)C1([H])N(C(=O)C([H])(N([H])C(=O)C([H])(N([H])C([H])([H])[H])C([H])([H])[H])C(C([H])([H])[H])(C([H])([H])[H])C([H])([H])[H])C([H])([H])c2c([H])c(OC([H])([H])C([H])([H])C([H])([H])OC([H])([H])C(=O)N([H])C([H])([H])C([H])([H])C([H])([H])C([H])([H])[N+]([H])([H])C([H])([H])C([H])([H])C([H])([H])C([H])([H])C([H])([H])N([H])C(=O)N3C([H])([H])C([H])([H])C([H])([H])C([H])(n4nc(-c5c([H])c([H])c(Oc6c([H])c([H])c(F)c([H])c6F)c([H])c5[H])c(C(=O)N([H])[H])c4N([H])[H])C3([H])[H])c([H])c([H])c2C1([H])[H]

>  <smiles>  (38) 
[H]c1c([H])c([H])c2c(c1[H])C([H])([H])C([H])([H])C([H])([H])C2([H])N([H])C(=O)C1([H])N(C(=O)C([H])(N([H])C(=O)C([H])(N([H])C([H])([H])[H])C([H])([H])[H])C(C([H])([H])[H])(C([H])([H])[H])C([H])([H])[H])C([H])([H])c2c([H])c(OC([H])([H])C([H])([H])C([H])([H])OC([H])([H])C(=O)N([H])C([H])([H])C([H])([H])C([H])([H])C([H])([H])[N+]([H])([H])C([H])([H])C([H])([H])C([H])([H])C([H])([H])C([H])([H])N([H])C(=O)N3C([H])([H])C([H])([H])C([H])([H])C([H])(n4nc(-c5c([H])c([H])c(Oc6c([H])c([H])c(F)c([H])c6F)c([H])c5[H])c(C(=O)N([H])[H])c4N([H])[H])C3([H])[H])c([H])c([H])c2C1([H])[H]

$$$$
38:0:0
     RDKit          3D

 99106  0  0  1  0  0  0  0  0999 V2000
  -26.7060  -22.5190   27.6800 N   0  0  0  0  0  4  0  0  0  0  0  0
  -27.1440  -22.9530   28.4810 H   0  0  0  0  0  0  0  0  0  0  0  0
  -25.7830  -22.2140   27.9350 H   0  0  0  0  0  0  0  0  0  0  0  0
  -26.6140  -23.4940   26.5730 C   0  0  0  0  0  2  0  0  0  0  0  0
  -25.8110  -24.7550   26.9470 C   0  0  0  0  0  2  0  0  0  0  0  0
  -26.2860  -25.9770   26.1520 C   0  0  0  0  0  2  0  0  0  0  0  0
  -25.8890  -25.7570   24.8060 O   0  0  0  0  0  0  0  0  0  0  0  0
  -26.5970  -26.4970   23.8230 C   0  0  0  0  0  2  0  0  0  0  0  0
  -27.7910  -25.6940   23.2770 C   0  0  0  0  0  2  0  0  0  0  0  0
  -28.5150  -26.3480   22.0850 C   0  0  0  0  0  2  0  0  0  0  0  0
  -27.6870  -26.3730   20.9190 O   0  0  0  0  0  0  0  0  0  0  0  0
  -24.1290  -31.9510   23.6190 C   0  0  0  0  0  0  0  0  0  0  0  0
  -26.6200  -27.2410   20.8680 C   0  0  0  0  0  0  0  0  0  0  0  0
  -22.9370  -30.6210   21.9010 C   0  0  0  0  0  3  0  0  0  0  0  0
  -24.3600  -28.9230   20.6390 C   0  0  0  0  0  0  0  0  0  0  0  0
  -25.4870  -30.7640   21.9030 C   0  0  0  0  0  2  0  0  0  0  0  0
  -25.5040  -29.3740   21.3070 C   0  0  0  0  0  0  0  0  0  0  0  0
  -26.6380  -28.5460   21.4150 C   0  0  0  0  0  3  0  0  0  0  0  0
  -25.4620  -26.8000   20.1970 C   0  0  0  0  0  3  0  0  0  0  0  0
  -24.3310  -27.6320   20.0810 C   0  0  0  0  0  3  0  0  0  0  0  0
  -23.1960  -29.8840   20.5580 C   0  0  0  0  0  2  0  0  0  0  0  0
  -24.1990  -31.1260   22.5350 N   0  0  0  0  0  0  0  0  0  0  0  0
  -23.0390  -32.3320   24.0640 O   0  0  0  0  0  0  0  0  0  0  0  0
  -22.1150  -29.6910   22.8210 C   0  0  0  0  0  0  0  0  0  0  0  0
  -20.8010  -29.6030   22.5570 N   0  0  0  0  0  0  0  0  0  0  0  0
  -22.6620  -29.0480   23.7210 O   0  0  0  0  0  0  0  0  0  0  0  0
  -20.4310  -30.1660   21.8040 H   0  0  0  0  0  0  0  0  0  0  0  0
  -17.3070  -28.7070   22.7370 C   0  0  0  0  0  0  0  0  0  0  0  0
  -19.8370  -28.7610   23.2650 C   0  0  0  0  0  3  0  0  0  0  0  0
  -19.8770  -27.3080   22.7380 C   0  0  0  0  0  2  0  0  0  0  0  0
  -18.8580  -27.0440   21.6250 C   0  0  0  0  0  2  0  0  0  0  0  0
  -17.4340  -27.3240   22.1170 C   0  0  0  0  0  2  0  0  0  0  0  0
  -18.4380  -29.3870   23.2600 C   0  0  0  0  0  0  0  0  0  0  0  0
  -18.2720  -30.6850   23.7910 C   0  0  0  0  0  3  0  0  0  0  0  0
  -17.0060  -31.3010   23.8040 C   0  0  0  0  0  3  0  0  0  0  0  0
  -15.8880  -30.6160   23.3000 C   0  0  0  0  0  3  0  0  0  0  0  0
  -16.0370  -29.3200   22.7730 C   0  0  0  0  0  3  0  0  0  0  0  0
  -25.4150  -32.4710   24.3370 C   0  0  0  0  0  3  0  0  0  0  0  0
  -25.2400  -33.9100   24.5730 N   0  0  0  0  0  0  0  0  0  0  0  0
  -25.8170  -34.8750   23.8440 C   0  0  0  0  0  0  0  0  0  0  0  0
  -26.6220  -34.6400   22.9400 O   0  0  0  0  0  0  0  0  0  0  0  0
  -24.5540  -34.1740   25.2650 H   0  0  0  0  0  0  0  0  0  0  0  0
  -24.4000  -36.8360   23.1590 C   0  0  0  0  0  1  0  0  0  0  0  0
  -25.4430  -36.3340   24.1710 C   0  0  0  0  0  3  0  0  0  0  0  0
  -27.5130  -37.0050   25.3060 C   0  0  0  0  0  1  0  0  0  0  0  0
  -26.6030  -37.2500   24.1890 N   0  0  0  0  0  0  0  0  0  0  0  0
  -26.3000  -38.2190   24.2370 H   0  0  0  0  0  0  0  0  0  0  0  0
  -25.7210  -31.7130   25.6870 C   0  0  1  0  0  0  0  0  0  0  0  0
  -24.5120  -31.6480   26.6480 C   0  0  0  0  0  1  0  0  0  0  0  0
  -26.1870  -30.2670   25.4050 C   0  0  0  0  0  1  0  0  0  0  0  0
  -26.8820  -32.4120   26.4320 C   0  0  0  0  0  1  0  0  0  0  0  0
  -27.5360  -21.3350   27.3820 C   0  0  0  0  0  2  0  0  0  0  0  0
  -28.6230  -21.7010   26.3760 C   0  0  0  0  0  0  0  0  0  0  0  0
  -29.0710  -20.7300   25.5720 N   0  0  0  0  0  0  0  0  0  0  0  0
  -29.0460  -22.8590   26.3320 O   0  0  0  0  0  0  0  0  0  0  0  0
  -28.6730  -19.8050   25.6790 H   0  0  0  0  0  0  0  0  0  0  0  0
  -30.0920  -20.8890   24.5430 C   0  0  0  0  0  2  0  0  0  0  0  0
  -29.5580  -20.4860   23.1600 C   0  0  0  0  0  2  0  0  0  0  0  0
  -30.4300  -19.4110   22.5000 C   0  0  0  0  0  2  0  0  0  0  0  0
  -29.9460  -19.0420   21.0880 C   0  0  0  0  0  2  0  0  0  0  0  0
  -30.9380  -18.1600   20.3110 C   0  0  0  0  0  2  0  0  0  0  0  0
  -30.7760  -15.9120   19.2170 C   0  0  0  0  0  0  0  0  0  0  0  0
  -30.8200  -13.4850   18.7880 C   0  0  0  0  0  2  0  0  0  0  0  0
  -29.8840  -13.0320   17.6560 C   0  0  0  0  0  2  0  0  0  0  0  0
  -28.4650  -12.7790   18.1930 C   0  0  0  0  0  2  0  0  0  0  0  0
  -27.9330  -13.9670   19.0320 C   0  0  0  0  0  3  0  0  0  0  0  0
  -28.9670  -14.3990   20.0950 C   0  0  0  0  0  2  0  0  0  0  0  0
  -30.2550  -14.6790   19.4290 N   0  0  0  0  0  0  0  0  0  0  0  0
  -31.6130  -16.1670   18.3460 O   0  0  0  0  0  0  0  0  0  0  0  0
  -30.4380  -16.7970   20.1610 N   0  0  0  0  0  0  0  0  0  0  0  0
  -29.8230  -16.4520   20.8820 H   0  0  0  0  0  0  0  0  0  0  0  0
  -25.5870  -14.4950   19.9610 C   0  0  0  0  0  0  0  0  0  0  0  0
  -24.5870  -13.6840   20.4330 C   0  0  0  0  0  0  0  0  0  0  0  0
  -25.0950  -12.3510   20.3630 C   0  0  0  0  0  0  0  0  0  0  0  0
  -26.6390  -13.6500   19.6370 N   0  0  0  0  0  0  0  0  0  0  0  0
  -26.3490  -12.3580   19.9320 N   0  0  0  0  0  0  0  0  0  0  0  0
  -24.4390  -11.0630   20.6270 C   0  0  0  0  0  0  0  0  0  0  0  0
  -24.8800  -10.2070   21.6590 C   0  0  0  0  0  3  0  0  0  0  0  0
  -24.2220   -8.9830   21.9050 C   0  0  0  0  0  3  0  0  0  0  0  0
  -23.1090   -8.6050   21.1160 C   0  0  0  0  0  0  0  0  0  0  0  0
  -22.6890   -9.4490   20.0740 C   0  0  0  0  0  3  0  0  0  0  0  0
  -23.3480  -10.6660   19.8280 C   0  0  0  0  0  3  0  0  0  0  0  0
  -22.4250   -7.4220   21.2640 O   0  0  0  0  0  0  0  0  0  0  0  0
  -22.0790   -6.9410   22.5020 C   0  0  0  0  0  0  0  0  0  0  0  0
  -21.3060   -7.7000   23.4070 C   0  0  0  0  0  3  0  0  0  0  0  0
  -20.9150   -7.1410   24.6410 C   0  0  0  0  0  3  0  0  0  0  0  0
  -21.2870   -5.8220   24.9650 C   0  0  0  0  0  0  0  0  0  0  0  0
  -22.0520   -5.0630   24.0630 C   0  0  0  0  0  3  0  0  0  0  0  0
  -22.4440   -5.6210   22.8330 C   0  0  0  0  0  0  0  0  0  0  0  0
  -23.1630   -4.8770   21.9570 F   0  0  0  0  0  0  0  0  0  0  0  0
  -20.9050   -5.2810   26.1460 F   0  0  0  0  0  0  0  0  0  0  0  0
  -23.2060  -14.1110   20.8380 C   0  0  0  0  0  0  0  0  0  0  0  0
  -22.6130  -13.4260   21.8110 N   0  0  0  0  0  0  0  0  0  0  0  0
  -22.6600  -15.0860   20.3230 O   0  0  0  0  0  0  0  0  0  0  0  0
  -23.0690  -12.6370   22.2460 H   0  0  0  0  0  0  0  0  0  0  0  0
  -21.6930  -13.6960   22.1240 H   0  0  0  0  0  0  0  0  0  0  0  0
  -25.6830  -15.8680   19.7650 N   0  0  0  0  0  0  0  0  0  0  0  0
  -24.9100  -16.4990   19.9460 H   0  0  0  0  0  0  0  0  0  0  0  0
  -26.4910  -16.3360   19.3720 H   0  0  0  0  0  0  0  0  0  0  0  0
  1  3  1  0
  1  2  1  0
  4  5  1  0
  4  1  1  0
  6  5  1  0
  7  6  1  0
  8  7  1  0
  9  8  1  0
 10  9  1  0
 11 10  1  0
 12 23  2  0
 13 11  1  0
 13 18  1  0
 14 22  1  0
 14 24  1  0
 15 17  1  0
 16 22  1  0
 17 18  2  0
 17 16  1  0
 19 13  2  0
 20 19  1  0
 20 15  2  0
 21 15  1  0
 21 14  1  0
 22 12  1  0
 24 26  2  0
 25 24  1  0
 27 25  1  0
 28 37  2  0
 28 33  1  0
 29 25  1  0
 30 29  1  0
 31 32  1  0
 31 30  1  0
 32 28  1  0
 33 29  1  0
 33 34  2  0
 34 35  1  0
 36 35  2  0
 37 36  1  0
 38 12  1  0
 38 39  1  0
 38 48  1  0
 39 42  1  0
 40 44  1  0
 40 39  1  0
 41 40  2  0
 44 43  1  0
 44 46  1  0
 46 47  1  0
 46 45  1  0
 48 51  1  1
 48 49  1  0
 50 48  1  0
 52  1  1  0
 53 52  1  0
 54 56  1  0
 54 53  1  0
 55 53  2  0
 57 54  1  0
 58 57  1  0
 59 58  1  0
 60 59  1  0
 61 60  1  0
 62 68  1  0
 62 70  1  0
 63 68  1  0
 64 65  1  0
 64 63  1  0
 66 65  1  0
 66 75  1  0
 66 67  1  0
 68 67  1  0
 69 62  2  0
 70 61  1  0
 70 71  1  0
 72 73  2  0
 73 92  1  0
 74 73  1  0
 74 77  1  0
 75 76  1  0
 75 72  1  0
 76 74  2  0
 77 78  1  0
 78 79  2  0
 80 83  1  0
 80 79  1  0
 81 80  2  0
 82 81  1  0
 82 77  2  0
 83 84  1  0
 84 89  2  0
 84 85  1  0
 85 86  2  0
 86 87  1  0
 87 91  1  0
 88 87  2  0
 89 88  1  0
 90 89  1  0
 92 93  1  0
 93 96  1  0
 93 95  1  0
 94 92  2  0
 97 98  1  0
 97 72  1  0
 99 97  1  0
M  ISO  4  10 101  11 101  62 100  70 100
M  END
>  <TORSDO>  (39) 
F 30

>  <SCORE>  (39) 
13.763

>  <name>  (39) 
38

>  <ligand_id>  (39) 
38

>  <original_smiles>  (39) 
[H]c1c([H])c([H])c2c(c1[H])C([H])([H])C([H])([H])C([H])([H])C2([H])N([H])C(=O)C1([H])N(C(=O)C([H])(N([H])C(=O)C([H])(N([H])C([H])([H])[H])C([H])([H])[H])C(C([H])([H])[H])(C([H])([H])[H])C([H])([H])[H])C([H])([H])c2c([H])c(OC([H])([H])C([H])([H])C([H])([H])OC([H])([H])C([H])([H])C([H])([H])[N+]([H])([H])C([H])([H])C(=O)N([H])C([H])([H])C([H])([H])C([H])([H])C([H])([H])C([H])([H])N([H])C(=O)N3C([H])([H])C([H])([H])C([H])([H])C([H])(n4nc(-c5c([H])c([H])c(Oc6c([H])c([H])c(F)c([H])c6F)c([H])c5[H])c(C(=O)N([H])[H])c4N([H])[H])C3([H])[H])c([H])c([H])c2C1([H])[H]

>  <smiles>  (39) 
[H]c1c([H])c([H])c2c(c1[H])C([H])([H])C([H])([H])C([H])([H])C2([H])N([H])C(=O)C1([H])N(C(=O)C([H])(N([H])C(=O)C([H])(N([H])C([H])([H])[H])C([H])([H])[H])C(C([H])([H])[H])(C([H])([H])[H])C([H])([H])[H])C([H])([H])c2c([H])c(OC([H])([H])C([H])([H])C([H])([H])OC([H])([H])C([H])([H])C([H])([H])[N+]([H])([H])C([H])([H])C(=O)N([H])C([H])([H])C([H])([H])C([H])([H])C([H])([H])C([H])([H])N([H])C(=O)N3C([H])([H])C([H])([H])C([H])([H])C([H])(n4nc(-c5c([H])c([H])c(Oc6c([H])c([H])c(F)c([H])c6F)c([H])c5[H])c(C(=O)N([H])[H])c4N([H])[H])C3([H])[H])c([H])c([H])c2C1([H])[H]

$$$$
39:0:0
     RDKit          3D

 99106  0  0  1  0  0  0  0  0999 V2000
  -23.6760  -22.7230   24.2060 N   0  0  0  0  0  4  0  0  0  0  0  0
  -24.5770  -22.4060   23.8820 H   0  0  0  0  0  0  0  0  0  0  0  0
  -23.8040  -23.0230   25.1600 H   0  0  0  0  0  0  0  0  0  0  0  0
  -23.2340  -23.8550   23.3680 C   0  0  0  0  0  2  0  0  0  0  0  0
  -24.0220  -23.9390   22.0410 C   0  0  0  0  0  2  0  0  0  0  0  0
  -25.5070  -24.2930   22.2560 C   0  0  0  0  0  2  0  0  0  0  0  0
  -26.3170  -24.4170   20.9570 C   0  0  0  0  0  2  0  0  0  0  0  0
  -27.6830  -25.1050   21.1770 C   0  0  0  0  0  2  0  0  0  0  0  0
  -28.3120  -25.6870   19.8930 C   0  0  0  0  0  2  0  0  0  0  0  0
  -28.3830  -27.1170   19.9270 O   0  0  0  0  0  0  0  0  0  0  0  0
  -24.7700  -32.0710   23.5080 C   0  0  0  0  0  0  0  0  0  0  0  0
  -27.2060  -27.8320   20.0030 C   0  0  0  0  0  0  0  0  0  0  0  0
  -23.4710  -30.8050   21.8320 C   0  0  0  0  0  3  0  0  0  0  0  0
  -24.8300  -29.3450   20.2470 C   0  0  0  0  0  0  0  0  0  0  0  0
  -25.9900  -31.1360   21.5490 C   0  0  0  0  0  2  0  0  0  0  0  0
  -26.0210  -29.8130   20.8150 C   0  0  0  0  0  0  0  0  0  0  0  0
  -27.2090  -29.0610   20.6940 C   0  0  0  0  0  3  0  0  0  0  0  0
  -26.0030  -27.3930   19.4010 C   0  0  0  0  0  3  0  0  0  0  0  0
  -24.8120  -28.1280   19.5470 C   0  0  0  0  0  3  0  0  0  0  0  0
  -23.6060  -30.2190   20.4040 C   0  0  0  0  0  2  0  0  0  0  0  0
  -24.7660  -31.3430   22.3560 N   0  0  0  0  0  0  0  0  0  0  0  0
  -23.7210  -32.3240   24.1120 O   0  0  0  0  0  0  0  0  0  0  0  0
  -22.8470  -29.7260   22.7450 C   0  0  0  0  0  0  0  0  0  0  0  0
  -21.5390  -29.4810   22.5680 N   0  0  0  0  0  0  0  0  0  0  0  0
  -23.5340  -29.1170   23.5680 O   0  0  0  0  0  0  0  0  0  0  0  0
  -21.0420  -30.0240   21.8770 H   0  0  0  0  0  0  0  0  0  0  0  0
  -18.2420  -28.0370   22.8530 C   0  0  0  0  0  0  0  0  0  0  0  0
  -20.7480  -28.4910   23.2950 C   0  0  0  0  0  3  0  0  0  0  0  0
  -20.9970  -27.0660   22.7500 C   0  0  0  0  0  2  0  0  0  0  0  0
  -19.9940  -26.6480   21.6680 C   0  0  0  0  0  2  0  0  0  0  0  0
  -18.5650  -26.6970   22.2100 C   0  0  0  0  0  2  0  0  0  0  0  0
  -19.2680  -28.8850   23.3490 C   0  0  0  0  0  0  0  0  0  0  0  0
  -18.9160  -30.1340   23.9080 C   0  0  0  0  0  3  0  0  0  0  0  0
  -17.5690  -30.5360   23.9790 C   0  0  0  0  0  3  0  0  0  0  0  0
  -16.5570  -29.6870   23.4980 C   0  0  0  0  0  3  0  0  0  0  0  0
  -16.8930  -28.4410   22.9410 C   0  0  0  0  0  3  0  0  0  0  0  0
  -26.0930  -32.6400   24.1080 C   0  0  0  0  0  3  0  0  0  0  0  0
  -25.8590  -34.0550   24.4280 N   0  0  0  0  0  0  0  0  0  0  0  0
  -26.2780  -35.0810   23.6770 C   0  0  0  0  0  0  0  0  0  0  0  0
  -26.9710  -34.9340   22.6670 O   0  0  0  0  0  0  0  0  0  0  0  0
  -25.2460  -34.2460   25.2070 H   0  0  0  0  0  0  0  0  0  0  0  0
  -24.6890  -36.9810   23.2410 C   0  0  0  0  0  1  0  0  0  0  0  0
  -25.8570  -36.4960   24.1170 C   0  0  0  0  0  3  0  0  0  0  0  0
  -27.9960  -37.2380   25.0660 C   0  0  0  0  0  1  0  0  0  0  0  0
  -26.9600  -37.4800   24.0650 N   0  0  0  0  0  0  0  0  0  0  0  0
  -26.6080  -38.4230   24.1960 H   0  0  0  0  0  0  0  0  0  0  0  0
  -26.5830  -31.8500   25.3830 C   0  0  1  0  0  0  0  0  0  0  0  0
  -25.4930  -31.6750   26.4650 C   0  0  0  0  0  1  0  0  0  0  0  0
  -27.0810  -30.4410   24.9880 C   0  0  0  0  0  1  0  0  0  0  0  0
  -27.7870  -32.5830   26.0220 C   0  0  0  0  0  1  0  0  0  0  0  0
  -22.7840  -21.5490   24.2200 C   0  0  0  0  0  2  0  0  0  0  0  0
  -23.6470  -20.2940   24.1720 C   0  0  0  0  0  0  0  0  0  0  0  0
  -23.2870  -19.3330   23.3150 N   0  0  0  0  0  0  0  0  0  0  0  0
  -24.6660  -20.2250   24.8620 O   0  0  0  0  0  0  0  0  0  0  0  0
  -22.4090  -19.4370   22.8230 H   0  0  0  0  0  0  0  0  0  0  0  0
  -24.1130  -18.1880   22.9450 C   0  0  0  0  0  2  0  0  0  0  0  0
  -24.8790  -18.4530   21.6320 C   0  0  0  0  0  2  0  0  0  0  0  0
  -25.7540  -17.2680   21.2110 C   0  0  0  0  0  2  0  0  0  0  0  0
  -26.9090  -17.6640   20.2690 C   0  0  0  0  0  2  0  0  0  0  0  0
  -27.8460  -16.4790   20.0560 C   0  0  0  0  0  2  0  0  0  0  0  0
  -29.3030  -16.8370   19.7080 C   0  0  0  0  0  2  0  0  0  0  0  0
  -30.3590  -14.7030   19.0500 C   0  0  0  0  0  0  0  0  0  0  0  0
  -30.6350  -12.2570   18.9630 C   0  0  0  0  0  2  0  0  0  0  0  0
  -29.6210  -11.5460   18.0490 C   0  0  0  0  0  2  0  0  0  0  0  0
  -28.2740  -11.3090   18.7540 C   0  0  0  0  0  2  0  0  0  0  0  0
  -27.7330  -12.5850   19.4450 C   0  0  0  0  0  3  0  0  0  0  0  0
  -28.8420  -13.1800   20.3420 C   0  0  0  0  0  2  0  0  0  0  0  0
  -30.0300  -13.4730   19.5050 N   0  0  0  0  0  0  0  0  0  0  0  0
  -31.0010  -14.9270   18.0160 O   0  0  0  0  0  0  0  0  0  0  0  0
  -30.1010  -15.6480   19.9560 N   0  0  0  0  0  0  0  0  0  0  0  0
  -29.9730  -15.2650   20.8820 H   0  0  0  0  0  0  0  0  0  0  0  0
  -25.6160  -13.1790   20.8000 C   0  0  0  0  0  0  0  0  0  0  0  0
  -24.6130  -12.4000   21.3140 C   0  0  0  0  0  0  0  0  0  0  0  0
  -24.9500  -11.0530   20.9760 C   0  0  0  0  0  0  0  0  0  0  0  0
  -26.5110  -12.3040   20.2010 N   0  0  0  0  0  0  0  0  0  0  0  0
  -26.1200  -11.0150   20.3560 N   0  0  0  0  0  0  0  0  0  0  0  0
  -24.2060   -9.8010   21.1600 C   0  0  0  0  0  0  0  0  0  0  0  0
  -24.6730   -8.7840   22.0210 C   0  0  0  0  0  3  0  0  0  0  0  0
  -23.9260   -7.6000   22.2000 C   0  0  0  0  0  3  0  0  0  0  0  0
  -22.7020   -7.4220   21.5120 C   0  0  0  0  0  0  0  0  0  0  0  0
  -22.2550   -8.4280   20.6370 C   0  0  0  0  0  3  0  0  0  0  0  0
  -23.0010   -9.6060   20.4610 C   0  0  0  0  0  3  0  0  0  0  0  0
  -21.9250   -6.2920   21.6000 O   0  0  0  0  0  0  0  0  0  0  0  0
  -21.7660   -5.6200   22.7850 C   0  0  0  0  0  0  0  0  0  0  0  0
  -21.1870   -6.2310   23.9190 C   0  0  0  0  0  3  0  0  0  0  0  0
  -20.9810   -5.4790   25.0930 C   0  0  0  0  0  3  0  0  0  0  0  0
  -21.3450   -4.1200   25.1330 C   0  0  0  0  0  0  0  0  0  0  0  0
  -21.9170   -3.5100   24.0040 C   0  0  0  0  0  3  0  0  0  0  0  0
  -22.1260   -4.2570   22.8320 C   0  0  0  0  0  0  0  0  0  0  0  0
  -22.6630   -3.6610   21.7400 F   0  0  0  0  0  0  0  0  0  0  0  0
  -21.1410   -3.3950   26.2590 F   0  0  0  0  0  0  0  0  0  0  0  0
  -23.3630  -12.8790   21.9980 C   0  0  0  0  0  0  0  0  0  0  0  0
  -22.8020  -12.0770   22.8960 N   0  0  0  0  0  0  0  0  0  0  0  0
  -22.9030  -14.0000   21.7760 O   0  0  0  0  0  0  0  0  0  0  0  0
  -23.1860  -11.1660   23.0990 H   0  0  0  0  0  0  0  0  0  0  0  0
  -21.9780  -12.3800   23.3940 H   0  0  0  0  0  0  0  0  0  0  0  0
  -25.8210  -14.5550   20.7790 N   0  0  0  0  0  0  0  0  0  0  0  0
  -25.1150  -15.1860   21.1370 H   0  0  0  0  0  0  0  0  0  0  0  0
  -26.5720  -15.0320   20.2940 H   0  0  0  0  0  0  0  0  0  0  0  0
  1 51  1  0
  1  3  1  0
  2  1  1  0
  4  1  1  0
  5  6  1  0
  5  4  1  0
  7  8  1  0
  7  6  1  0
  9 10  1  0
  9  8  1  0
 10 12  1  0
 11 22  2  0
 12 17  1  0
 13 21  1  0
 13 23  1  0
 14 20  1  0
 14 16  1  0
 15 21  1  0
 16 15  1  0
 17 16  2  0
 18 19  1  0
 18 12  2  0
 19 14  2  0
 20 13  1  0
 21 11  1  0
 23 25  2  0
 24 23  1  0
 26 24  1  0
 27 36  2  0
 27 32  1  0
 28 24  1  0
 28 32  1  0
 29 28  1  0
 30 31  1  0
 30 29  1  0
 31 27  1  0
 32 33  2  0
 33 34  1  0
 35 34  2  0
 36 35  1  0
 37 11  1  0
 37 38  1  0
 37 47  1  0
 38 41  1  0
 39 43  1  0
 39 38  1  0
 40 39  2  0
 43 42  1  0
 45 43  1  0
 45 46  1  0
 45 44  1  0
 47 50  1  1
 47 48  1  0
 49 47  1  0
 52 51  1  0
 52 54  2  0
 53 52  1  0
 55 53  1  0
 56 53  1  0
 57 56  1  0
 58 57  1  0
 59 58  1  0
 60 59  1  0
 61 70  1  0
 61 60  1  0
 62 68  1  0
 62 70  1  0
 63 68  1  0
 64 65  1  0
 64 63  1  0
 66 65  1  0
 66 75  1  0
 66 67  1  0
 68 67  1  0
 69 62  2  0
 70 71  1  0
 72 73  2  0
 73 92  1  0
 74 77  1  0
 74 73  1  0
 75 76  1  0
 75 72  1  0
 76 74  2  0
 77 78  1  0
 78 79  2  0
 80 83  1  0
 80 79  1  0
 81 80  2  0
 82 81  1  0
 82 77  2  0
 83 84  1  0
 84 89  2  0
 84 85  1  0
 85 86  2  0
 86 87  1  0
 87 91  1  0
 88 87  2  0
 89 88  1  0
 90 89  1  0
 92 93  1  0
 93 95  1  0
 93 96  1  0
 94 92  2  0
 97 72  1  0
 97 98  1  0
 99 97  1  0
M  ISO  4   9 101  10 101  62 100  70 100
M  END
>  <TORSDO>  (40) 
F 30

>  <SCORE>  (40) 
26.753

>  <name>  (40) 
39

>  <ligand_id>  (40) 
39

>  <original_smiles>  (40) 
[H]c1c([H])c([H])c2c(c1[H])C([H])([H])C([H])([H])C([H])([H])C2([H])N([H])C(=O)C1([H])N(C(=O)C([H])(N([H])C(=O)C([H])(N([H])C([H])([H])[H])C([H])([H])[H])C(C([H])([H])[H])(C([H])([H])[H])C([H])([H])[H])C([H])([H])c2c([H])c(OC([H])([H])C([H])([H])C([H])([H])C([H])([H])C([H])([H])C([H])([H])[N+]([H])([H])C([H])([H])C(=O)N([H])C([H])([H])C([H])([H])C([H])([H])C([H])([H])C([H])([H])C([H])([H])N([H])C(=O)N3C([H])([H])C([H])([H])C([H])([H])C([H])(n4nc(-c5c([H])c([H])c(Oc6c([H])c([H])c(F)c([H])c6F)c([H])c5[H])c(C(=O)N([H])[H])c4N([H])[H])C3([H])[H])c([H])c([H])c2C1([H])[H]

>  <smiles>  (40) 
[H]c1c([H])c([H])c2c(c1[H])C([H])([H])C([H])([H])C([H])([H])C2([H])N([H])C(=O)C1([H])N(C(=O)C([H])(N([H])C(=O)C([H])(N([H])C([H])([H])[H])C([H])([H])[H])C(C([H])([H])[H])(C([H])([H])[H])C([H])([H])[H])C([H])([H])c2c([H])c(OC([H])([H])C([H])([H])C([H])([H])C([H])([H])C([H])([H])C([H])([H])[N+]([H])([H])C([H])([H])C(=O)N([H])C([H])([H])C([H])([H])C([H])([H])C([H])([H])C([H])([H])C([H])([H])N([H])C(=O)N3C([H])([H])C([H])([H])C([H])([H])C([H])(n4nc(-c5c([H])c([H])c(Oc6c([H])c([H])c(F)c([H])c6F)c([H])c5[H])c(C(=O)N([H])[H])c4N([H])[H])C3([H])[H])c([H])c([H])c2C1([H])[H]

$$$$
40:0:0
     RDKit          3D

108116  0  0  1  0  0  0  0  0999 V2000
  -33.7620  -19.4950   17.5260 C   0  0  0  0  0  0  0  0  0  0  0  0
  -33.6580  -18.4930   16.6510 N   0  0  0  0  0  0  0  0  0  0  0  0
  -33.4250  -19.3890   18.7070 O   0  0  0  0  0  0  0  0  0  0  0  0
  -34.0060  -18.6580   15.7160 H   0  0  0  0  0  0  0  0  0  0  0  0
  -33.0550  -17.1910   16.8920 C   0  0  0  0  0  2  0  0  0  0  0  0
  -32.8440  -16.4440   15.5600 C   0  0  0  0  0  2  0  0  0  0  0  0
  -31.8470  -17.1090   14.5820 C   0  0  0  0  0  3  0  0  0  0  0  0
  -32.4160  -18.2940   13.7640 C   0  0  0  0  0  3  0  0  0  0  0  0
  -31.6150  -18.6590   12.4960 C   0  0  0  0  0  2  0  0  0  0  0  0
  -30.3570  -19.5250   12.7150 C   0  0  0  0  0  2  0  0  0  0  0  0
  -30.6310  -20.9830   12.6670 N   0  0  0  0  0  4  0  0  0  0  0  0
  -30.0660  -21.3820   11.9330 H   0  0  0  0  0  0  0  0  0  0  0  0
  -31.5940  -21.1340   12.4140 H   0  0  0  0  0  0  0  0  0  0  0  0
  -30.2980  -21.7030   13.9140 C   0  0  0  0  0  2  0  0  0  0  0  0
  -30.7020  -23.1900   13.8740 C   0  0  0  0  0  2  0  0  0  0  0  0
  -30.1720  -24.0410   15.0540 C   0  0  0  0  0  2  0  0  0  0  0  0
  -30.4910  -23.5050   16.4690 C   0  0  0  0  0  2  0  0  0  0  0  0
  -29.2270  -23.5260   17.3480 C   0  0  0  0  0  2  0  0  0  0  0  0
  -28.8120  -21.7930   18.9840 C   0  0  0  0  0  0  0  0  0  0  0  0
  -26.6490  -20.6260   18.9260 C   0  0  0  0  0  2  0  0  0  0  0  0
  -25.9990  -20.8410   17.5470 C   0  0  0  0  0  2  0  0  0  0  0  0
  -25.1230  -22.1080   17.5690 C   0  0  0  0  0  2  0  0  0  0  0  0
  -25.8680  -23.3440   18.1330 C   0  0  0  0  0  3  0  0  0  0  0  0
  -26.6280  -23.0030   19.4390 C   0  0  0  0  0  2  0  0  0  0  0  0
  -27.4660  -21.8150   19.1980 N   0  0  0  0  0  0  0  0  0  0  0  0
  -29.4760  -20.7640   18.9070 O   0  0  0  0  0  0  0  0  0  0  0  0
  -29.4020  -22.9530   18.6820 N   0  0  0  0  0  0  0  0  0  0  0  0
  -30.3790  -22.9330   18.9360 H   0  0  0  0  0  0  0  0  0  0  0  0
  -25.2820  -25.8410   18.0930 C   0  0  0  0  0  0  0  0  0  0  0  0
  -24.0960  -26.5020   18.2770 C   0  0  0  0  0  0  0  0  0  0  0  0
  -23.1290  -25.4950   18.5780 C   0  0  0  0  0  0  0  0  0  0  0  0
  -24.9940  -24.4970   18.2860 N   0  0  0  0  0  0  0  0  0  0  0  0
  -23.7030  -24.3000   18.6330 N   0  0  0  0  0  0  0  0  0  0  0  0
  -21.6770  -25.5880   18.7610 C   0  0  0  0  0  0  0  0  0  0  0  0
  -21.0230  -24.9380   19.8290 C   0  0  0  0  0  3  0  0  0  0  0  0
  -19.6270  -25.0590   19.9920 C   0  0  0  0  0  3  0  0  0  0  0  0
  -18.8700  -25.8350   19.0830 C   0  0  0  0  0  0  0  0  0  0  0  0
  -19.5250  -26.4610   18.0070 C   0  0  0  0  0  3  0  0  0  0  0  0
  -20.9130  -26.3340   17.8420 C   0  0  0  0  0  3  0  0  0  0  0  0
  -17.5070  -25.9860   19.1520 O   0  0  0  0  0  0  0  0  0  0  0  0
  -16.8050  -25.6750   20.2900 C   0  0  0  0  0  0  0  0  0  0  0  0
  -17.0760  -26.3000   21.5260 C   0  0  0  0  0  3  0  0  0  0  0  0
  -16.2800  -26.0090   22.6520 C   0  0  0  0  0  3  0  0  0  0  0  0
  -15.2140  -25.0960   22.5450 C   0  0  0  0  0  0  0  0  0  0  0  0
  -14.9450  -24.4680   21.3170 C   0  0  0  0  0  3  0  0  0  0  0  0
  -15.7370  -24.7590   20.1920 C   0  0  0  0  0  0  0  0  0  0  0  0
  -15.4570  -24.1720   19.0030 F   0  0  0  0  0  0  0  0  0  0  0  0
  -14.4460  -24.8170   23.6250 F   0  0  0  0  0  0  0  0  0  0  0  0
  -23.8560  -27.9710   18.0970 C   0  0  0  0  0  0  0  0  0  0  0  0
  -22.9270  -28.5370   18.8640 N   0  0  0  0  0  0  0  0  0  0  0  0
  -24.5200  -28.6370   17.3050 O   0  0  0  0  0  0  0  0  0  0  0  0
  -22.3940  -27.9940   19.5280 H   0  0  0  0  0  0  0  0  0  0  0  0
  -22.7490  -29.5280   18.7910 H   0  0  0  0  0  0  0  0  0  0  0  0
  -26.5640  -26.2660   17.7590 N   0  0  0  0  0  0  0  0  0  0  0  0
  -26.7820  -27.2340   17.5470 H   0  0  0  0  0  0  0  0  0  0  0  0
  -27.3430  -25.6420   17.6080 H   0  0  0  0  0  0  0  0  0  0  0  0
  -34.3150  -20.7980   16.9350 C   0  0  0  0  0  2  0  0  0  0  0  0
  -33.1750  -22.4320   18.5530 C   0  0  0  0  0  3  0  0  0  0  0  0
  -35.5240  -22.7460   17.9980 C   0  0  0  0  0  3  0  0  0  0  0  0
  -33.2120  -23.5850   19.3590 C   0  0  0  0  0  3  0  0  0  0  0  0
  -35.5550  -23.9150   18.7790 C   0  0  0  0  0  3  0  0  0  0  0  0
  -34.3370  -22.0010   17.8720 C   0  0  0  0  0  0  0  0  0  0  0  0
  -34.4000  -24.3410   19.4680 C   0  0  0  0  0  0  0  0  0  0  0  0
  -34.4640  -25.5250   20.2100 N   0  0  0  0  0  0  0  0  0  0  0  0
  -35.3690  -25.9850   20.2750 H   0  0  0  0  0  0  0  0  0  0  0  0
  -33.5600  -25.7450   21.3360 C   0  0  0  0  0  2  0  0  0  0  0  0
  -32.2470  -26.4210   20.9090 C   0  0  0  0  0  2  0  0  0  0  0  0
  -31.7720  -27.2090   21.9980 O   0  0  0  0  0  0  0  0  0  0  0  0
  -27.3480  -32.1570   24.5380 C   0  0  0  0  0  0  0  0  0  0  0  0
  -30.5470  -27.8200   21.8590 C   0  0  0  0  0  0  0  0  0  0  0  0
  -26.4010  -30.6570   22.8130 C   0  0  0  0  0  3  0  0  0  0  0  0
  -28.0770  -29.1680   21.5990 C   0  0  0  0  0  0  0  0  0  0  0  0
  -28.9090  -31.1460   22.8820 C   0  0  0  0  0  2  0  0  0  0  0  0
  -29.1310  -29.7680   22.3010 C   0  0  0  0  0  0  0  0  0  0  0  0
  -30.3610  -29.0910   22.4440 C   0  0  0  0  0  3  0  0  0  0  0  0
  -29.4700  -27.2220   21.1620 C   0  0  0  0  0  3  0  0  0  0  0  0
  -28.2370  -27.8890   21.0380 C   0  0  0  0  0  3  0  0  0  0  0  0
  -26.7950  -29.9580   21.4850 C   0  0  0  0  0  2  0  0  0  0  0  0
  -27.5640  -31.3380   23.4710 N   0  0  0  0  0  0  0  0  0  0  0  0
  -26.2010  -32.3820   24.9500 O   0  0  0  0  0  0  0  0  0  0  0  0
  -25.7030  -29.6230   23.7220 C   0  0  0  0  0  0  0  0  0  0  0  0
  -24.4860  -29.2130   23.3330 N   0  0  0  0  0  0  0  0  0  0  0  0
  -26.2640  -29.1900   24.7320 O   0  0  0  0  0  0  0  0  0  0  0  0
  -24.0930  -29.6270   22.5000 H   0  0  0  0  0  0  0  0  0  0  0  0
  -21.4020  -27.3470   23.0960 C   0  0  0  0  0  0  0  0  0  0  0  0
  -23.6570  -28.2160   24.0100 C   0  0  0  0  0  3  0  0  0  0  0  0
  -24.1920  -26.7860   23.7650 C   0  0  0  0  0  2  0  0  0  0  0  0
  -23.5360  -26.0950   22.5650 C   0  0  0  0  0  2  0  0  0  0  0  0
  -22.0210  -26.0000   22.7640 C   0  0  0  0  0  2  0  0  0  0  0  0
  -22.1750  -28.3920   23.6670 C   0  0  0  0  0  0  0  0  0  0  0  0
  -21.5600  -29.6370   23.9230 C   0  0  0  0  0  3  0  0  0  0  0  0
  -20.2010  -29.8430   23.6250 C   0  0  0  0  0  3  0  0  0  0  0  0
  -19.4370  -28.8000   23.0740 C   0  0  0  0  0  3  0  0  0  0  0  0
  -20.0360  -27.5540   22.8150 C   0  0  0  0  0  3  0  0  0  0  0  0
  -28.5240  -32.8660   25.2790 C   0  0  0  0  0  3  0  0  0  0  0  0
  -28.8510  -32.2270   26.6840 C   0  0  1  0  0  0  0  0  0  0  0  0
  -27.6100  -32.0450   27.5880 C   0  0  0  0  0  1  0  0  0  0  0  0
  -29.5190  -30.8430   26.5110 C   0  0  0  0  0  1  0  0  0  0  0  0
  -29.8640  -33.1160   27.4430 C   0  0  0  0  0  1  0  0  0  0  0  0
  -28.1690  -34.2840   25.4230 N   0  0  0  0  0  0  0  0  0  0  0  0
  -28.6100  -35.2620   24.6210 C   0  0  0  0  0  0  0  0  0  0  0  0
  -29.4280  -35.0700   23.7190 O   0  0  0  0  0  0  0  0  0  0  0  0
  -27.4600  -34.5040   26.1080 H   0  0  0  0  0  0  0  0  0  0  0  0
  -26.9740  -36.9930   23.8110 C   0  0  0  0  0  1  0  0  0  0  0  0
  -28.0530  -36.6800   24.8590 C   0  0  0  0  0  3  0  0  0  0  0  0
  -30.0150  -37.6600   25.9660 C   0  0  0  0  0  1  0  0  0  0  0  0
  -29.0940  -37.7310   24.8340 N   0  0  0  0  0  0  0  0  0  0  0  0
  -28.6720  -38.6560   24.8250 H   0  0  0  0  0  0  0  0  0  0  0  0
  1  3  2  0
  2  5  1  0
  2  1  1  0
  4  2  1  0
  6  5  1  0
  7  6  1  0
  8  7  2  0
  9 10  1  0
  9  8  1  0
 11 10  1  0
 11 14  1  0
 12 11  1  0
 13 11  1  0
 15 14  1  0
 15 16  1  0
 16 17  1  0
 17 18  1  0
 18 27  1  0
 19 25  1  0
 20 25  1  0
 21 22  1  0
 21 20  1  0
 23 22  1  0
 23 32  1  0
 23 24  1  0
 25 24  1  0
 26 19  2  0
 27 28  1  0
 27 19  1  0
 29 30  2  0
 29 32  1  0
 30 31  1  0
 31 33  2  0
 31 34  1  0
 32 33  1  0
 34 35  1  0
 35 36  2  0
 37 40  1  0
 37 36  1  0
 38 37  2  0
 39 38  1  0
 39 34  2  0
 40 41  1  0
 41 42  1  0
 42 43  2  0
 44 43  1  0
 44 48  1  0
 45 44  2  0
 46 41  2  0
 46 45  1  0
 47 46  1  0
 49 30  1  0
 49 50  1  0
 50 52  1  0
 51 49  2  0
 53 50  1  0
 54 29  1  0
 55 54  1  0
 56 54  1  0
 57  1  1  0
 57 62  1  0
 58 60  1  0
 59 61  2  0
 60 63  2  0
 61 63  1  0
 62 59  1  0
 62 58  2  0
 63 64  1  0
 64 65  1  0
 64 66  1  0
 67 66  1  0
 67 68  1  0
 69 80  2  0
 70 68  1  0
 70 75  1  0
 71 79  1  0
 71 81  1  0
 72 74  1  0
 73 79  1  0
 74 75  2  0
 74 73  1  0
 76 70  2  0
 77 76  1  0
 77 72  2  0
 78 72  1  0
 78 71  1  0
 79 69  1  0
 81 83  2  0
 82 81  1  0
 84 82  1  0
 85 90  1  0
 86 82  1  0
 87 86  1  0
 88 89  1  0
 88 87  1  0
 89 85  1  0
 90 91  2  0
 90 86  1  0
 92 91  1  0
 93 92  2  0
 94 93  1  0
 94 85  2  0
 95 69  1  0
 95100  1  0
 95 96  1  0
 96 99  1  1
 96 97  1  0
 98 96  1  0
100103  1  0
101105  1  0
101100  1  0
102101  2  0
105104  1  0
107105  1  0
107106  1  0
108107  1  0
M  ISO  4  19 100  27 100  67 101  68 101
M  END
>  <TORSDO>  (41) 
F 33

>  <SCORE>  (41) 
-4.816

>  <name>  (41) 
40

>  <ligand_id>  (41) 
40

>  <original_smiles>  (41) 
[H]c1c([H])c([H])c2c(c1[H])C([H])([H])C([H])([H])C([H])([H])C2([H])N([H])C(=O)C1([H])N(C(=O)C([H])(N([H])C(=O)C([H])(N([H])C([H])([H])[H])C([H])([H])[H])C(C([H])([H])[H])(C([H])([H])[H])C([H])([H])[H])C([H])([H])c2c([H])c(OC([H])([H])C([H])([H])N([H])c3c([H])c([H])c(C([H])([H])C(=O)N([H])C([H])([H])C([H])([H])C([H])([H])C([H])([H])C([H])([H])C([H])([H])[N+]([H])([H])C([H])([H])C([H])([H])C([H])([H])C([H])([H])C([H])([H])N([H])C(=O)N4C([H])([H])C([H])([H])C([H])([H])C([H])(n5nc(-c6c([H])c([H])c(Oc7c([H])c([H])c(F)c([H])c7F)c([H])c6[H])c(C(=O)N([H])[H])c5N([H])[H])C4([H])[H])c([H])c3[H])c([H])c([H])c2C1([H])[H]

>  <smiles>  (41) 
[H]c1c([H])c([H])c2c(c1[H])C([H])([H])C([H])([H])C([H])([H])C2([H])N([H])C(=O)C1([H])N(C(=O)C([H])(N([H])C(=O)C([H])(N([H])C([H])([H])[H])C([H])([H])[H])C(C([H])([H])[H])(C([H])([H])[H])C([H])([H])[H])C([H])([H])c2c([H])c(OC([H])([H])C([H])([H])N([H])c3c([H])c([H])c(C([H])([H])C(=O)N([H])C([H])([H])C([H])([H])C([H])([H])C([H])([H])C([H])([H])C([H])([H])[N+]([H])([H])C([H])([H])C([H])([H])C([H])([H])C([H])([H])C([H])([H])N([H])C(=O)N4C([H])([H])C([H])([H])C([H])([H])C([H])(n5nc(-c6c([H])c([H])c(Oc7c([H])c([H])c(F)c([H])c7F)c([H])c6[H])c(C(=O)N([H])[H])c5N([H])[H])C4([H])[H])c([H])c3[H])c([H])c([H])c2C1([H])[H]

$$$$
41:0:0
     RDKit          3D

 93100  0  0  1  0  0  0  0  0999 V2000
  -27.9630  -22.1040   18.0300 N   0  0  0  0  0  4  0  0  0  0  0  0
  -27.0380  -22.3150   18.3650 H   0  0  0  0  0  0  0  0  0  0  0  0
  -27.9070  -21.2170   17.5540 H   0  0  0  0  0  0  0  0  0  0  0  0
  -28.8910  -21.9360   19.1670 C   0  0  0  0  0  2  0  0  0  0  0  0
  -28.2120  -21.2560   20.3740 C   0  0  0  0  0  2  0  0  0  0  0  0
  -28.2690  -19.7190   20.3740 C   0  0  0  0  0  2  0  0  0  0  0  0
  -29.6990  -19.1880   20.5760 C   0  0  0  0  0  2  0  0  0  0  0  0
  -29.7540  -17.7250   21.0320 C   0  0  0  0  0  2  0  0  0  0  0  0
  -31.2070  -17.2570   21.2140 C   0  0  0  0  0  2  0  0  0  0  0  0
  -31.3490  -15.9100   21.9450 C   0  0  0  0  0  2  0  0  0  0  0  0
  -30.8370  -14.1660   20.2350 C   0  0  0  0  0  0  0  0  0  0  0  0
  -30.3340  -12.1390   18.9240 C   0  0  0  0  0  2  0  0  0  0  0  0
  -29.3520  -12.4160   17.7720 C   0  0  0  0  0  2  0  0  0  0  0  0
  -27.8970  -12.3080   18.2610 C   0  0  0  0  0  2  0  0  0  0  0  0
  -27.6410  -13.1360   19.5470 C   0  0  0  0  0  3  0  0  0  0  0  0
  -28.7210  -12.8440   20.6110 C   0  0  0  0  0  2  0  0  0  0  0  0
  -30.0500  -13.0830   20.0130 N   0  0  0  0  0  0  0  0  0  0  0  0
  -31.8080  -14.4610   19.5300 O   0  0  0  0  0  0  0  0  0  0  0  0
  -30.5500  -14.8420   21.3530 N   0  0  0  0  0  0  0  0  0  0  0  0
  -29.7560  -14.5150   21.8830 H   0  0  0  0  0  0  0  0  0  0  0  0
  -25.2840  -13.8170   20.3300 C   0  0  0  0  0  0  0  0  0  0  0  0
  -24.2070  -13.0760   20.7410 C   0  0  0  0  0  0  0  0  0  0  0  0
  -24.6300  -11.7130   20.7030 C   0  0  0  0  0  0  0  0  0  0  0  0
  -26.2950  -12.9050   20.0700 N   0  0  0  0  0  0  0  0  0  0  0  0
  -25.9060  -11.6340   20.3490 N   0  0  0  0  0  0  0  0  0  0  0  0
  -23.8770  -10.4710   20.9280 C   0  0  0  0  0  0  0  0  0  0  0  0
  -24.3220   -9.4920   21.8430 C   0  0  0  0  0  3  0  0  0  0  0  0
  -23.5710   -8.3150   22.0550 C   0  0  0  0  0  3  0  0  0  0  0  0
  -22.3600   -8.1110   21.3510 C   0  0  0  0  0  0  0  0  0  0  0  0
  -21.9330   -9.0780   20.4260 C   0  0  0  0  0  3  0  0  0  0  0  0
  -22.6840  -10.2460   20.2120 C   0  0  0  0  0  3  0  0  0  0  0  0
  -21.5790   -6.9870   21.4730 O   0  0  0  0  0  0  0  0  0  0  0  0
  -21.5670   -6.2400   22.6240 C   0  0  0  0  0  0  0  0  0  0  0  0
  -21.2480   -6.8060   23.8770 C   0  0  0  0  0  3  0  0  0  0  0  0
  -21.1790   -5.9880   25.0220 C   0  0  0  0  0  3  0  0  0  0  0  0
  -21.4200   -4.6050   24.9160 C   0  0  0  0  0  0  0  0  0  0  0  0
  -21.7310   -4.0380   23.6680 C   0  0  0  0  0  3  0  0  0  0  0  0
  -21.8020   -4.8530   22.5240 C   0  0  0  0  0  0  0  0  0  0  0  0
  -22.0820   -4.2990   21.3200 F   0  0  0  0  0  0  0  0  0  0  0  0
  -21.3460   -3.8170   26.0140 F   0  0  0  0  0  0  0  0  0  0  0  0
  -22.8350  -13.5930   21.0610 C   0  0  0  0  0  0  0  0  0  0  0  0
  -22.1220  -12.9240   21.9620 N   0  0  0  0  0  0  0  0  0  0  0  0
  -22.4040  -14.6240   20.5480 O   0  0  0  0  0  0  0  0  0  0  0  0
  -22.4850  -12.0910   22.4000 H   0  0  0  0  0  0  0  0  0  0  0  0
  -21.2020  -13.2530   22.2200 H   0  0  0  0  0  0  0  0  0  0  0  0
  -25.4800  -15.1800   20.1380 N   0  0  0  0  0  0  0  0  0  0  0  0
  -24.7390  -15.8610   20.2710 H   0  0  0  0  0  0  0  0  0  0  0  0
  -26.3420  -15.5940   19.8010 H   0  0  0  0  0  0  0  0  0  0  0  0
  -28.3620  -23.1180   17.0270 C   0  0  0  0  0  2  0  0  0  0  0  0
  -27.7460  -24.5170   17.2610 C   0  0  0  0  0  2  0  0  0  0  0  0
  -28.5910  -25.5460   18.0480 C   0  0  0  0  0  2  0  0  0  0  0  0
  -28.4840  -25.4850   19.5850 C   0  0  0  0  0  2  0  0  0  0  0  0
  -28.4190  -26.7900   20.1530 O   0  0  0  0  0  0  0  0  0  0  0  0
  -24.6050  -31.9060   23.2360 C   0  0  0  0  0  0  0  0  0  0  0  0
  -27.2150  -27.4620   20.1580 C   0  0  0  0  0  0  0  0  0  0  0  0
  -23.3790  -30.5010   21.6090 C   0  0  0  0  0  3  0  0  0  0  0  0
  -24.8150  -28.9530   20.1890 C   0  0  0  0  0  0  0  0  0  0  0  0
  -25.8970  -30.8680   21.3720 C   0  0  0  0  0  2  0  0  0  0  0  0
  -25.9780  -29.4850   20.7590 C   0  0  0  0  0  0  0  0  0  0  0  0
  -27.1780  -28.7460   20.7460 C   0  0  0  0  0  3  0  0  0  0  0  0
  -26.0250  -26.9340   19.6020 C   0  0  0  0  0  3  0  0  0  0  0  0
  -24.8310  -27.6730   19.6160 C   0  0  0  0  0  3  0  0  0  0  0  0
  -23.5740  -29.8150   20.2320 C   0  0  0  0  0  2  0  0  0  0  0  0
  -24.6490  -31.1040   22.1330 N   0  0  0  0  0  0  0  0  0  0  0  0
  -23.5270  -32.1830   23.7830 O   0  0  0  0  0  0  0  0  0  0  0  0
  -22.7310  -29.4860   22.5790 C   0  0  0  0  0  0  0  0  0  0  0  0
  -21.4050  -29.3110   22.4630 N   0  0  0  0  0  0  0  0  0  0  0  0
  -23.4180  -28.8580   23.3890 O   0  0  0  0  0  0  0  0  0  0  0  0
  -20.9080  -29.8820   21.7930 H   0  0  0  0  0  0  0  0  0  0  0  0
  -18.0310  -28.1290   22.9750 C   0  0  0  0  0  0  0  0  0  0  0  0
  -20.5900  -28.3790   23.2400 C   0  0  0  0  0  3  0  0  0  0  0  0
  -20.6830  -26.9420   22.6740 C   0  0  0  0  0  2  0  0  0  0  0  0
  -19.5780  -26.6190   21.6630 C   0  0  0  0  0  2  0  0  0  0  0  0
  -18.1990  -26.7730   22.3110 C   0  0  0  0  0  2  0  0  0  0  0  0
  -19.1530  -28.8890   23.3980 C   0  0  0  0  0  0  0  0  0  0  0  0
  -18.9420  -30.1580   23.9800 C   0  0  0  0  0  3  0  0  0  0  0  0
  -17.6410  -30.6690   24.1390 C   0  0  0  0  0  3  0  0  0  0  0  0
  -16.5320  -29.9070   23.7320 C   0  0  0  0  0  3  0  0  0  0  0  0
  -16.7280  -28.6390   23.1570 C   0  0  0  0  0  3  0  0  0  0  0  0
  -25.8970  -32.5340   23.8480 C   0  0  0  0  0  3  0  0  0  0  0  0
  -26.4320  -31.7490   25.1080 C   0  0  1  0  0  0  0  0  0  0  0  0
  -25.3580  -31.5040   26.1920 C   0  0  0  0  0  1  0  0  0  0  0  0
  -27.0060  -30.3770   24.6830 C   0  0  0  0  0  1  0  0  0  0  0  0
  -27.5960  -32.5310   25.7570 C   0  0  0  0  0  1  0  0  0  0  0  0
  -25.5920  -33.9290   24.1910 N   0  0  0  0  0  0  0  0  0  0  0  0
  -25.9150  -34.9850   23.4310 C   0  0  0  0  0  0  0  0  0  0  0  0
  -26.5710  -34.8850   22.3920 O   0  0  0  0  0  0  0  0  0  0  0  0
  -25.0060  -34.0810   24.9990 H   0  0  0  0  0  0  0  0  0  0  0  0
  -24.1760  -36.7720   23.1020 C   0  0  0  0  0  1  0  0  0  0  0  0
  -25.4290  -36.3710   23.8970 C   0  0  0  0  0  3  0  0  0  0  0  0
  -27.5810  -37.2530   24.6870 C   0  0  0  0  0  1  0  0  0  0  0  0
  -26.4580  -37.4260   23.7690 N   0  0  0  0  0  0  0  0  0  0  0  0
  -26.0570  -38.3460   23.9300 H   0  0  0  0  0  0  0  0  0  0  0  0
  1  2  1  0
  1  4  1  0
  3  1  1  0
  4  5  1  0
  5  6  1  0
  6  7  1  0
  7  8  1  0
  8  9  1  0
  9 10  1  0
 11 19  1  0
 12 17  1  0
 13 14  1  0
 13 12  1  0
 15 14  1  0
 15 24  1  0
 15 16  1  0
 17 11  1  0
 17 16  1  0
 18 11  2  0
 19 20  1  0
 19 10  1  0
 21 22  2  0
 22 41  1  0
 23 22  1  0
 23 26  1  0
 24 21  1  0
 24 25  1  0
 25 23  2  0
 26 27  1  0
 27 28  2  0
 29 32  1  0
 29 28  1  0
 30 29  2  0
 31 30  1  0
 31 26  2  0
 32 33  1  0
 33 34  1  0
 34 35  2  0
 36 35  1  0
 36 40  1  0
 37 36  2  0
 38 33  2  0
 38 37  1  0
 39 38  1  0
 41 42  1  0
 42 45  1  0
 42 44  1  0
 43 41  2  0
 46 47  1  0
 46 21  1  0
 48 46  1  0
 49 50  1  0
 49  1  1  0
 50 51  1  0
 51 52  1  0
 52 53  1  0
 53 55  1  0
 54 65  2  0
 55 60  1  0
 56 64  1  0
 56 66  1  0
 57 63  1  0
 57 59  1  0
 58 64  1  0
 59 58  1  0
 60 59  2  0
 61 62  1  0
 61 55  2  0
 62 57  2  0
 63 56  1  0
 64 54  1  0
 66 68  2  0
 67 66  1  0
 69 67  1  0
 70 79  2  0
 70 75  1  0
 71 67  1  0
 71 75  1  0
 72 71  1  0
 73 74  1  0
 73 72  1  0
 74 70  1  0
 75 76  2  0
 76 77  1  0
 78 77  2  0
 79 78  1  0
 80 54  1  0
 80 85  1  0
 80 81  1  0
 81 84  1  1
 81 82  1  0
 83 81  1  0
 85 88  1  0
 86 90  1  0
 86 85  1  0
 87 86  2  0
 90 89  1  0
 92 90  1  0
 92 93  1  0
 92 91  1  0
M  ISO  4  11 100  19 100  52 101  53 101
M  END
>  <TORSDO>  (42) 
F 27

>  <SCORE>  (42) 
-11.147

>  <name>  (42) 
41

>  <ligand_id>  (42) 
41

>  <original_smiles>  (42) 
[H]c1c([H])c([H])c2c(c1[H])C([H])([H])C([H])([H])C([H])([H])C2([H])N([H])C(=O)C1([H])N(C(=O)C([H])(N([H])C(=O)C([H])(N([H])C([H])([H])[H])C([H])([H])[H])C(C([H])([H])[H])(C([H])([H])[H])C([H])([H])[H])C([H])([H])c2c([H])c(OC([H])([H])C([H])([H])C([H])([H])C([H])([H])[N+]([H])([H])C([H])([H])C([H])([H])C([H])([H])C([H])([H])C([H])([H])C([H])([H])C([H])([H])N([H])C(=O)N3C([H])([H])C([H])([H])C([H])([H])C([H])(n4nc(-c5c([H])c([H])c(Oc6c([H])c([H])c(F)c([H])c6F)c([H])c5[H])c(C(=O)N([H])[H])c4N([H])[H])C3([H])[H])c([H])c([H])c2C1([H])[H]

>  <smiles>  (42) 
[H]c1c([H])c([H])c2c(c1[H])C([H])([H])C([H])([H])C([H])([H])C2([H])N([H])C(=O)C1([H])N(C(=O)C([H])(N([H])C(=O)C([H])(N([H])C([H])([H])[H])C([H])([H])[H])C(C([H])([H])[H])(C([H])([H])[H])C([H])([H])[H])C([H])([H])c2c([H])c(OC([H])([H])C([H])([H])C([H])([H])C([H])([H])[N+]([H])([H])C([H])([H])C([H])([H])C([H])([H])C([H])([H])C([H])([H])C([H])([H])C([H])([H])N([H])C(=O)N3C([H])([H])C([H])([H])C([H])([H])C([H])(n4nc(-c5c([H])c([H])c(Oc6c([H])c([H])c(F)c([H])c6F)c([H])c5[H])c(C(=O)N([H])[H])c4N([H])[H])C3([H])[H])c([H])c([H])c2C1([H])[H]

$$$$
42:0:0
     RDKit          3D

102109  0  0  1  0  0  0  0  0999 V2000
  -24.1050  -22.7360   19.9310 C   0  0  0  0  0  3  0  0  0  0  0  0
  -25.0310  -22.0520   19.2360 N   0  0  0  0  0  0  0  0  0  0  0  0
  -24.3210  -24.0430   20.1360 N   0  0  0  0  0  0  0  0  0  0  0  0
  -23.0120  -22.1320   20.4260 N   0  0  0  0  0  0  0  0  0  0  0  0
  -25.7490  -22.5970   18.7800 H   0  0  0  0  0  0  0  0  0  0  0  0
  -23.6440  -24.5670   20.6700 H   0  0  0  0  0  0  0  0  0  0  0  0
  -22.8980  -21.1510   20.2100 H   0  0  0  0  0  0  0  0  0  0  0  0
  -21.9410  -22.6890   21.2890 C   0  0  0  0  0  2  0  0  0  0  0  0
  -21.4520  -24.1070   20.9130 C   0  0  0  0  0  2  0  0  0  0  0  0
  -20.5930  -24.1970   19.6420 C   0  0  0  0  0  2  0  0  0  0  0  0
  -19.2180  -23.9250   19.9110 O   0  0  0  0  0  0  0  0  0  0  0  0
  -16.9330  -24.7250   20.0410 C   0  0  0  0  0  1  0  0  0  0  0  0
  -18.3870  -25.0600   19.6950 C   0  0  0  0  0  2  0  0  0  0  0  0
  -25.5020  -24.7890   19.6910 C   0  0  0  0  0  2  0  0  0  0  0  0
  -26.6110  -24.8140   20.7620 C   0  0  0  0  0  2  0  0  0  0  0  0
  -28.0370  -25.0000   20.1930 C   0  0  0  0  0  2  0  0  0  0  0  0
  -28.8790  -26.0770   20.9130 C   0  0  0  0  0  2  0  0  0  0  0  0
  -28.9180  -27.3480   20.2550 O   0  0  0  0  0  0  0  0  0  0  0  0
  -25.0370  -31.9510   24.0520 C   0  0  0  0  0  0  0  0  0  0  0  0
  -27.7850  -28.1160   20.3310 C   0  0  0  0  0  0  0  0  0  0  0  0
  -24.0560  -30.6930   22.1590 C   0  0  0  0  0  3  0  0  0  0  0  0
  -25.4810  -29.7300   20.3860 C   0  0  0  0  0  0  0  0  0  0  0  0
  -26.4890  -31.2890   22.1130 C   0  0  0  0  0  2  0  0  0  0  0  0
  -26.6030  -30.0780   21.1740 C   0  0  0  0  0  0  0  0  0  0  0  0
  -27.7460  -29.2530   21.1640 C   0  0  0  0  0  3  0  0  0  0  0  0
  -26.6860  -27.8320   19.5000 C   0  0  0  0  0  3  0  0  0  0  0  0
  -25.5120  -28.6010   19.5560 C   0  0  0  0  0  3  0  0  0  0  0  0
  -24.2020  -30.5090   20.6320 C   0  0  0  0  0  2  0  0  0  0  0  0
  -25.1700  -31.4340   22.8000 N   0  0  0  0  0  0  0  0  0  0  0  0
  -23.9230  -32.1390   24.5570 O   0  0  0  0  0  0  0  0  0  0  0  0
  -23.0660  -29.7890   22.9180 C   0  0  0  0  0  0  0  0  0  0  0  0
  -21.7790  -29.7980   22.5630 N   0  0  0  0  0  0  0  0  0  0  0  0
  -23.4830  -28.9730   23.7590 O   0  0  0  0  0  0  0  0  0  0  0  0
  -21.4520  -30.4740   21.8880 H   0  0  0  0  0  0  0  0  0  0  0  0
  -18.3050  -28.8170   22.6220 C   0  0  0  0  0  0  0  0  0  0  0  0
  -20.8380  -28.7850   23.0390 C   0  0  0  0  0  3  0  0  0  0  0  0
  -20.8800  -27.5250   22.1410 C   0  0  0  0  0  2  0  0  0  0  0  0
  -19.8200  -27.5480   21.0390 C   0  0  0  0  0  2  0  0  0  0  0  0
  -18.4210  -27.6470   21.6570 C   0  0  0  0  0  2  0  0  0  0  0  0
  -19.4490  -29.3620   23.2560 C   0  0  0  0  0  0  0  0  0  0  0  0
  -19.3050  -30.4640   24.1270 C   0  0  0  0  0  3  0  0  0  0  0  0
  -18.0380  -31.0270   24.3580 C   0  0  0  0  0  3  0  0  0  0  0  0
  -16.9020  -30.4770   23.7390 C   0  0  0  0  0  3  0  0  0  0  0  0
  -17.0370  -29.3720   22.8790 C   0  0  0  0  0  3  0  0  0  0  0  0
  -26.2850  -32.3790   24.8830 C   0  0  0  0  0  3  0  0  0  0  0  0
  -26.0550  -33.7490   25.3550 N   0  0  0  0  0  0  0  0  0  0  0  0
  -26.5500  -34.8450   24.7670 C   0  0  0  0  0  0  0  0  0  0  0  0
  -27.3130  -34.7990   23.7960 O   0  0  0  0  0  0  0  0  0  0  0  0
  -25.3970  -33.8630   26.1110 H   0  0  0  0  0  0  0  0  0  0  0  0
  -25.0140  -36.8200   24.4840 C   0  0  0  0  0  1  0  0  0  0  0  0
  -26.1320  -36.2090   25.3450 C   0  0  0  0  0  3  0  0  0  0  0  0
  -28.2400  -36.8000   26.4580 C   0  0  0  0  0  1  0  0  0  0  0  0
  -27.2500  -37.1700   25.4510 N   0  0  0  0  0  0  0  0  0  0  0  0
  -26.9030  -38.0990   25.6740 H   0  0  0  0  0  0  0  0  0  0  0  0
  -26.5840  -31.4100   26.0920 C   0  0  1  0  0  0  0  0  0  0  0  0
  -25.3590  -31.1540   27.0010 C   0  0  0  0  0  1  0  0  0  0  0  0
  -27.0960  -30.0450   25.5730 C   0  0  0  0  0  1  0  0  0  0  0  0
  -27.7090  -32.0010   26.9700 C   0  0  0  0  0  1  0  0  0  0  0  0
  -25.1590  -20.6020   19.0660 C   0  0  0  0  0  2  0  0  0  0  0  0
  -26.6430  -20.1950   19.2260 C   0  0  0  0  0  2  0  0  0  0  0  0
  -26.8680  -18.6680   19.4540 C   0  0  0  0  0  2  0  0  0  0  0  0
  -27.9990  -17.7700   18.8540 C   0  0  0  0  0  2  0  0  0  0  0  0
  -29.4210  -17.7010   21.0150 C   0  0  0  0  0  1  0  0  0  0  0  0
  -28.7390  -16.8940   19.8910 C   0  0  0  0  0  3  0  0  0  0  0  0
  -30.5640  -15.1490   19.4990 C   0  0  0  0  0  0  0  0  0  0  0  0
  -30.4280  -12.7810   18.8820 C   0  0  0  0  0  2  0  0  0  0  0  0
  -29.4130  -12.6410   17.7270 C   0  0  0  0  0  2  0  0  0  0  0  0
  -27.9890  -12.4490   18.2850 C   0  0  0  0  0  2  0  0  0  0  0  0
  -27.6160  -13.5040   19.3620 C   0  0  0  0  0  3  0  0  0  0  0  0
  -28.7500  -13.6260   20.4100 C   0  0  0  0  0  2  0  0  0  0  0  0
  -29.9890  -13.9310   19.6830 N   0  0  0  0  0  0  0  0  0  0  0  0
  -31.7130  -15.2910   19.0910 O   0  0  0  0  0  0  0  0  0  0  0  0
  -29.7420  -16.1420   19.1430 N   0  0  0  0  0  0  0  0  0  0  0  0
  -30.2170  -16.7390   18.4810 H   0  0  0  0  0  0  0  0  0  0  0  0
  -25.3110  -14.0740   20.3550 C   0  0  0  0  0  0  0  0  0  0  0  0
  -24.2840  -13.2840   20.7950 C   0  0  0  0  0  0  0  0  0  0  0  0
  -24.7350  -11.9360   20.6440 C   0  0  0  0  0  0  0  0  0  0  0  0
  -26.3230  -13.2100   19.9720 N   0  0  0  0  0  0  0  0  0  0  0  0
  -25.9860  -11.9160   20.2030 N   0  0  0  0  0  0  0  0  0  0  0  0
  -24.0330  -10.6630   20.8420 C   0  0  0  0  0  0  0  0  0  0  0  0
  -24.4980   -9.6930   21.7590 C   0  0  0  0  0  3  0  0  0  0  0  0
  -23.7930   -8.4840   21.9430 C   0  0  0  0  0  3  0  0  0  0  0  0
  -22.6090   -8.2350   21.2090 C   0  0  0  0  0  0  0  0  0  0  0  0
  -22.1670   -9.1890   20.2770 C   0  0  0  0  0  3  0  0  0  0  0  0
  -22.8730  -10.3900   20.0910 C   0  0  0  0  0  3  0  0  0  0  0  0
  -21.8730   -7.0790   21.3050 O   0  0  0  0  0  0  0  0  0  0  0  0
  -21.7940   -6.3730   22.4780 C   0  0  0  0  0  0  0  0  0  0  0  0
  -21.2850   -6.9500   23.6620 C   0  0  0  0  0  3  0  0  0  0  0  0
  -21.1600   -6.1690   24.8280 C   0  0  0  0  0  3  0  0  0  0  0  0
  -21.5300   -4.8110   24.8110 C   0  0  0  0  0  0  0  0  0  0  0  0
  -22.0340   -4.2340   23.6310 C   0  0  0  0  0  3  0  0  0  0  0  0
  -22.1620   -5.0120   22.4680 C   0  0  0  0  0  0  0  0  0  0  0  0
  -22.6300   -4.4470   21.3280 F   0  0  0  0  0  0  0  0  0  0  0  0
  -21.4030   -4.0550   25.9280 F   0  0  0  0  0  0  0  0  0  0  0  0
  -22.9250  -13.7430   21.2420 C   0  0  0  0  0  0  0  0  0  0  0  0
  -22.2990  -13.0010   22.1490 N   0  0  0  0  0  0  0  0  0  0  0  0
  -22.4290  -14.7870   20.8190 O   0  0  0  0  0  0  0  0  0  0  0  0
  -22.7110  -12.1470   22.4980 H   0  0  0  0  0  0  0  0  0  0  0  0
  -21.3970  -13.2880   22.5030 H   0  0  0  0  0  0  0  0  0  0  0  0
  -25.4620  -15.4500   20.2280 N   0  0  0  0  0  0  0  0  0  0  0  0
  -24.7290  -16.1050   20.4690 H   0  0  0  0  0  0  0  0  0  0  0  0
  -26.3010  -15.8950   19.8800 H   0  0  0  0  0  0  0  0  0  0  0  0
  1  2  1  0
  1  3  1  0
  1  4  1  0
  3  6  1  0
  4  8  1  0
  5  2  1  0
  7  4  1  0
  9  8  1  0
 10 11  1  0
 10  9  1  0
 13 11  1  0
 13 12  1  0
 14  3  1  0
 14 15  1  0
 16 15  1  0
 16 17  1  0
 18 20  1  0
 18 17  1  0
 19 30  2  0
 20 25  1  0
 21 29  1  0
 21 31  1  0
 22 28  1  0
 22 24  1  0
 23 29  1  0
 24 23  1  0
 25 24  2  0
 26 27  1  0
 26 20  2  0
 27 22  2  0
 28 21  1  0
 29 19  1  0
 31 33  2  0
 32 31  1  0
 34 32  1  0
 35 44  2  0
 35 40  1  0
 36 32  1  0
 36 40  1  0
 37 36  1  0
 38 39  1  0
 38 37  1  0
 39 35  1  0
 40 41  2  0
 41 42  1  0
 43 42  2  0
 44 43  1  0
 45 19  1  0
 45 46  1  0
 45 55  1  0
 46 49  1  0
 47 51  1  0
 47 46  1  0
 48 47  2  0
 51 50  1  0
 51 53  1  0
 53 54  1  0
 53 52  1  0
 55 58  1  1
 55 56  1  0
 57 55  1  0
 59 60  1  0
 59  2  1  0
 60 61  1  0
 62 61  1  0
 62 64  1  0
 64 63  1  0
 65 71  1  0
 66 71  1  0
 67 68  1  0
 67 66  1  0
 69 68  1  0
 69 78  1  0
 69 70  1  0
 71 70  1  0
 72 65  2  0
 73 65  1  0
 73 64  1  0
 74 73  1  0
 75 76  2  0
 76 95  1  0
 77 76  1  0
 77 80  1  0
 78 79  1  0
 78 75  1  0
 79 77  2  0
 80 81  1  0
 81 82  2  0
 83 86  1  0
 83 82  1  0
 84 83  2  0
 85 84  1  0
 85 80  2  0
 86 87  1  0
 87 88  1  0
 88 89  2  0
 90 89  1  0
 90 94  1  0
 91 90  2  0
 92 87  2  0
 92 91  1  0
 93 92  1  0
 95 96  1  0
 96 98  1  0
 96 99  1  0
 97 95  2  0
100 75  1  0
100101  1  0
102100  1  0
M  ISO  4  17 101  18 101  65 100  73 100
M  END
>  <TORSDO>  (43) 
F 30

>  <SCORE>  (43) 
-6.664

>  <name>  (43) 
42

>  <ligand_id>  (43) 
42

>  <original_smiles>  (43) 
[H]c1c([H])c([H])c2c(c1[H])C([H])([H])C([H])([H])C([H])([H])C2([H])N([H])C(=O)C1([H])N(C(=O)C([H])(N([H])C(=O)C([H])(N([H])C([H])([H])[H])C([H])([H])[H])C(C([H])([H])[H])(C([H])([H])[H])C([H])([H])[H])C([H])([H])c2c([H])c(OC([H])([H])C([H])([H])C([H])([H])C([H])([H])N([H])C(N([H])C([H])([H])C([H])([H])C([H])([H])C([H])([H])C([H])(N([H])C(=O)N3C([H])([H])C([H])([H])C([H])([H])C([H])(n4nc(-c5c([H])c([H])c(Oc6c([H])c([H])c(F)c([H])c6F)c([H])c5[H])c(C(=O)N([H])[H])c4N([H])[H])C3([H])[H])C([H])([H])[H])=[N+]([H])C([H])([H])C([H])([H])C([H])([H])OC([H])([H])C([H])([H])[H])c([H])c([H])c2C1([H])[H]

>  <smiles>  (43) 
[H]c1c([H])c([H])c2c(c1[H])C([H])([H])C([H])([H])C([H])([H])C2([H])N([H])C(=O)C1([H])N(C(=O)C([H])(N([H])C(=O)C([H])(N([H])C([H])([H])[H])C([H])([H])[H])C(C([H])([H])[H])(C([H])([H])[H])C([H])([H])[H])C([H])([H])c2c([H])c(OC([H])([H])C([H])([H])C([H])([H])C([H])([H])N([H])C(N([H])C([H])([H])C([H])([H])C([H])([H])C([H])([H])C([H])(N([H])C(=O)N3C([H])([H])C([H])([H])C([H])([H])C([H])(n4nc(-c5c([H])c([H])c(Oc6c([H])c([H])c(F)c([H])c6F)c([H])c5[H])c(C(=O)N([H])[H])c4N([H])[H])C3([H])[H])C([H])([H])[H])=[N+]([H])C([H])([H])C([H])([H])C([H])([H])OC([H])([H])C([H])([H])[H])c([H])c([H])c2C1([H])[H]

$$$$
43:0:0
     RDKit          3D

 98103  0  0  1  0  0  0  0  0999 V2000
  -27.6320  -17.5940   20.8950 N   0  0  0  0  0  4  0  0  0  0  0  0
  -28.3190  -17.5720   20.1580 H   0  0  0  0  0  0  0  0  0  0  0  0
  -27.9600  -16.9460   21.5890 H   0  0  0  0  0  0  0  0  0  0  0  0
  -27.5770  -18.9500   21.4970 C   0  0  0  0  0  2  0  0  0  0  0  0
  -28.8130  -19.7610   21.0080 C   0  0  0  0  0  2  0  0  0  0  0  0
  -28.8600  -21.2910   21.2540 C   0  0  0  0  0  2  0  0  0  0  0  0
  -29.7620  -22.0090   20.2080 C   0  0  0  0  0  2  0  0  0  0  0  0
  -29.7100  -23.5590   20.1930 C   0  0  0  0  0  2  0  0  0  0  0  0
  -30.2600  -24.1690   18.8750 C   0  0  0  0  0  2  0  0  0  0  0  0
  -30.0440  -25.5820   18.7520 O   0  0  0  0  0  0  0  0  0  0  0  0
  -25.2840  -28.9440   22.7920 C   0  0  0  0  0  0  0  0  0  0  0  0
  -28.7570  -26.0680   18.8160 C   0  0  0  0  0  0  0  0  0  0  0  0
  -24.3950  -27.8950   20.7360 C   0  0  0  0  0  3  0  0  0  0  0  0
  -26.1330  -27.0940   19.0580 C   0  0  0  0  0  0  0  0  0  0  0  0
  -26.8220  -28.7060   20.8440 C   0  0  0  0  0  2  0  0  0  0  0  0
  -27.1640  -27.6190   19.8460 C   0  0  0  0  0  0  0  0  0  0  0  0
  -28.4800  -27.1290   19.7080 C   0  0  0  0  0  3  0  0  0  0  0  0
  -27.7040  -25.5450   18.0310 C   0  0  0  0  0  3  0  0  0  0  0  0
  -26.3980  -26.0580   18.1460 C   0  0  0  0  0  3  0  0  0  0  0  0
  -24.7570  -27.6870   19.2420 C   0  0  0  0  0  2  0  0  0  0  0  0
  -25.5140  -28.5160   21.5170 N   0  0  0  0  0  0  0  0  0  0  0  0
  -24.1580  -28.8660   23.3020 O   0  0  0  0  0  0  0  0  0  0  0  0
  -23.9150  -26.5480   21.3200 C   0  0  0  0  0  0  0  0  0  0  0  0
  -22.7550  -26.0690   20.8440 N   0  0  0  0  0  0  0  0  0  0  0  0
  -24.5890  -25.9500   22.1610 O   0  0  0  0  0  0  0  0  0  0  0  0
  -22.2570  -26.6280   20.1660 H   0  0  0  0  0  0  0  0  0  0  0  0
  -19.9430  -23.9010   20.1790 C   0  0  0  0  0  0  0  0  0  0  0  0
  -22.1300  -24.8020   21.2200 C   0  0  0  0  0  3  0  0  0  0  0  0
  -22.8290  -23.6090   20.5310 C   0  0  0  0  0  2  0  0  0  0  0  0
  -22.1720  -23.2080   19.2060 C   0  0  0  0  0  2  0  0  0  0  0  0
  -20.7070  -22.8240   19.4290 C   0  0  0  0  0  2  0  0  0  0  0  0
  -20.6130  -24.8380   21.0090 C   0  0  0  0  0  0  0  0  0  0  0  0
  -19.8590  -25.8380   21.6600 C   0  0  0  0  0  3  0  0  0  0  0  0
  -18.4630  -25.9100   21.4960 C   0  0  0  0  0  3  0  0  0  0  0  0
  -17.8030  -24.9710   20.6850 C   0  0  0  0  0  3  0  0  0  0  0  0
  -18.5410  -23.9670   20.0310 C   0  0  0  0  0  3  0  0  0  0  0  0
  -26.4190  -29.5740   23.6560 C   0  0  0  0  0  3  0  0  0  0  0  0
  -25.8930  -30.8210   24.2290 N   0  0  0  0  0  0  0  0  0  0  0  0
  -26.1290  -32.0440   23.7350 C   0  0  0  0  0  0  0  0  0  0  0  0
  -26.8790  -32.2450   22.7760 O   0  0  0  0  0  0  0  0  0  0  0  0
  -25.2130  -30.7270   24.9690 H   0  0  0  0  0  0  0  0  0  0  0  0
  -24.1770  -33.6290   23.6030 C   0  0  0  0  0  1  0  0  0  0  0  0
  -25.4230  -33.2350   24.4120 C   0  0  0  0  0  3  0  0  0  0  0  0
  -27.3410  -34.2240   25.5870 C   0  0  0  0  0  1  0  0  0  0  0  0
  -26.2990  -34.4160   24.5830 N   0  0  0  0  0  0  0  0  0  0  0  0
  -25.7530  -35.2330   24.8430 H   0  0  0  0  0  0  0  0  0  0  0  0
  -26.9440  -28.6100   24.7920 C   0  0  1  0  0  0  0  0  0  0  0  0
  -25.8160  -27.9630   25.6260 C   0  0  0  0  0  1  0  0  0  0  0  0
  -27.7940  -27.4620   24.1990 C   0  0  0  0  0  1  0  0  0  0  0  0
  -27.8660  -29.3900   25.7560 C   0  0  0  0  0  1  0  0  0  0  0  0
  -26.4210  -16.9880   20.3010 C   0  0  0  0  0  2  0  0  0  0  0  0
  -26.4860  -15.4680   20.5460 C   0  0  0  0  0  0  0  0  0  0  0  0
  -25.4300  -14.8280   21.0790 N   0  0  0  0  0  0  0  0  0  0  0  0
  -27.5070  -14.8580   20.2250 O   0  0  0  0  0  0  0  0  0  0  0  0
  -24.6140  -15.3780   21.3170 H   0  0  0  0  0  0  0  0  0  0  0  0
  -25.3050  -13.3640   21.1920 C   0  0  0  0  0  3  0  0  0  0  0  0
  -25.9370  -12.7310   22.4590 C   0  0  0  0  0  2  0  0  0  0  0  0
  -26.4670  -11.2830   22.1890 C   0  0  0  0  0  2  0  0  0  0  0  0
  -27.8590  -10.9300   22.7960 C   0  0  0  0  0  2  0  0  0  0  0  0
  -28.9890  -10.4210   21.8270 C   0  0  0  0  0  2  0  0  0  0  0  0
  -29.4760  -11.9590   19.4240 C   0  0  2  0  0  0  0  0  0  0  0  0
  -30.7700  -11.0200   19.1170 C   0  0  0  0  0  1  0  0  0  0  0  0
  -29.6110  -10.1170   17.9220 C   0  0  0  0  0  1  0  0  0  0  0  0
  -27.8780  -10.3910   18.0190 C   0  0  0  0  0  2  0  0  0  0  0  0
  -27.1560  -11.7460   18.8800 C   0  0  0  0  0  2  0  0  0  0  0  0
  -28.2390  -12.7950   19.9960 C   0  0  0  0  0  1  0  0  0  0  0  0
  -29.9930  -12.3200   20.1310 N   0  0  0  0  0  1  0  0  0  0  0  0
  -29.6510  -12.6990   18.2620 O   0  0  0  0  0  1  0  0  0  0  0  0
  -28.9390  -10.7210   20.3570 N   0  0  0  0  0  2  0  0  0  0  0  0
  -28.3700  -10.0760   19.8300 H   0  0  0  0  0  0  0  0  0  0  0  0
  -24.8040  -12.2210   19.7420 C   0  0  0  0  0  0  0  0  0  0  0  0
  -23.7920  -11.4750   20.2740 C   0  0  0  0  0  0  0  0  0  0  0  0
  -24.2770  -10.1300   20.3590 C   0  0  0  0  0  0  0  0  0  0  0  0
  -25.8630  -11.3720   19.5110 N   0  0  0  0  0  0  0  0  0  0  0  0
  -25.5530  -10.1000   19.9320 N   0  0  0  0  0  0  0  0  0  0  0  0
  -23.5530   -8.8970   20.7570 C   0  0  0  0  0  0  0  0  0  0  0  0
  -24.0120   -8.0370   21.7860 C   0  0  0  0  0  3  0  0  0  0  0  0
  -23.2760   -6.8890   22.1620 C   0  0  0  0  0  3  0  0  0  0  0  0
  -22.0590   -6.5750   21.5150 C   0  0  0  0  0  0  0  0  0  0  0  0
  -21.6170   -7.4060   20.4720 C   0  0  0  0  0  3  0  0  0  0  0  0
  -22.3510   -8.5530   20.0980 C   0  0  0  0  0  3  0  0  0  0  0  0
  -21.2910   -5.4690   21.8040 O   0  0  0  0  0  0  0  0  0  0  0  0
  -21.2990   -4.8730   23.0460 C   0  0  0  0  0  0  0  0  0  0  0  0
  -20.9510   -5.5780   24.2150 C   0  0  0  0  0  3  0  0  0  0  0  0
  -20.9270   -4.9170   25.4570 C   0  0  0  0  0  3  0  0  0  0  0  0
  -21.2350   -3.5470   25.5330 C   0  0  0  0  0  0  0  0  0  0  0  0
  -21.5720   -2.8380   24.3680 C   0  0  0  0  0  3  0  0  0  0  0  0
  -21.6030   -3.4970   23.1270 C   0  0  0  0  0  0  0  0  0  0  0  0
  -21.9130   -2.8030   22.0090 F   0  0  0  0  0  0  0  0  0  0  0  0
  -21.1950   -2.9080   26.7290 F   0  0  0  0  0  0  0  0  0  0  0  0
  -22.4240  -11.9920   20.6170 C   0  0  0  0  0  0  0  0  0  0  0  0
  -21.8090  -11.5040   21.6850 N   0  0  0  0  0  0  0  0  0  0  0  0
  -21.9200  -12.9060   19.9660 O   0  0  0  0  0  0  0  0  0  0  0  0
  -22.1700  -10.7160   22.2000 H   0  0  0  0  0  0  0  0  0  0  0  0
  -20.9630  -11.9480   22.0210 H   0  0  0  0  0  0  0  0  0  0  0  0
  -24.8920  -13.5720   19.4260 N   0  0  0  0  0  4  0  0  0  0  0  0
  -24.0730  -14.1580   19.5510 H   0  0  0  0  0  0  0  0  0  0  0  0
  -25.6860  -14.0730   19.0400 H   0  0  0  0  0  0  0  0  0  0  0  0
  1  4  1  0
  1  3  1  0
  2  1  1  0
  5  6  1  0
  5  4  1  0
  7  6  1  0
  8  7  1  0
  9  8  1  0
 10 12  1  0
 10  9  1  0
 11 22  2  0
 12 17  1  0
 13 23  1  0
 13 21  1  0
 14 20  1  0
 14 16  1  0
 15 21  1  0
 16 15  1  0
 17 16  2  0
 18 19  1  0
 18 12  2  0
 19 14  2  0
 20 13  1  0
 21 11  1  0
 23 25  2  0
 24 23  1  0
 26 24  1  0
 27 32  1  0
 28 24  1  0
 29 28  1  0
 30 31  1  0
 30 29  1  0
 31 27  1  0
 32 28  1  0
 32 33  2  0
 34 33  1  0
 35 34  2  0
 36 27  2  0
 36 35  1  0
 37 11  1  0
 37 38  1  0
 37 47  1  0
 38 41  1  0
 39 38  1  0
 39 43  1  0
 40 39  2  0
 43 42  1  0
 43 45  1  0
 45 46  1  0
 45 44  1  0
 47 48  1  1
 47 50  1  0
 49 47  1  0
 51 52  1  0
 51  1  1  0
 52 53  1  0
 53 56  1  0
 53 55  1  0
 54 52  2  0
 56 57  1  0
 58 57  1  0
 58 59  1  0
 60 59  1  0
 61 66  1  1
 61 67  1  0
 62 61  1  0
 63 64  1  0
 64 65  1  0
 65 74  1  0
 68 61  1  0
 69 60  1  0
 70 69  1  0
 71 72  2  0
 72 73  1  0
 72 91  1  0
 73 76  1  0
 74 71  1  0
 74 75  1  0
 75 73  2  0
 76 77  1  0
 77 78  2  0
 79 82  1  0
 79 78  1  0
 80 79  2  0
 81 80  1  0
 81 76  2  0
 82 83  1  0
 83 88  2  0
 83 84  1  0
 84 85  2  0
 85 86  1  0
 86 90  1  0
 87 86  2  0
 88 87  1  0
 89 88  1  0
 91 92  1  0
 92 95  1  0
 92 94  1  0
 93 91  2  0
 96 97  1  0
 96 71  1  0
 96 56  1  0
 98 96  1  0
M  ISO  4   9 101  10 101  61 100  69 100
M  END
>  <TORSDO>  (44) 
F 29

>  <SCORE>  (44) 
2.806

>  <name>  (44) 
43

>  <ligand_id>  (44) 
43

>  <original_smiles>  (44) 
[H]c1c([H])c([H])c2c(c1[H])C([H])([H])C([H])([H])C([H])([H])C2([H])N([H])C(=O)C1([H])N(C(=O)C([H])(N([H])C(=O)C([H])(N([H])C([H])([H])[H])C([H])([H])[H])C(C([H])([H])[H])(C([H])([H])[H])C([H])([H])[H])C([H])([H])c2c([H])c(OC([H])([H])C([H])([H])C([H])([H])C([H])([H])C([H])([H])C([H])([H])[N+]([H])([H])C([H])([H])C(=O)N([H])C([H])([H])C([H])([H])C([H])([H])C([H])([H])C([H])([H])N([H])C(=O)N3C([H])([H])C([H])([H])C([H])([H])C([H])(n4nc(-c5c([H])c([H])c(Oc6c([H])c([H])c(F)c([H])c6F)c([H])c5[H])c(C(=O)N([H])[H])c4N([H])[H])C3([H])[H])c([H])c([H])c2C1([H])[H]

>  <smiles>  (44) 
[H]c1c([H])c([H])c2c(c1[H])C([H])([H])C([H])([H])C([H])([H])C2([H])N([H])C(=O)C1([H])N(C(=O)C([H])(N([H])C(=O)C([H])(N([H])C([H])([H])[H])C([H])([H])[H])C(C([H])([H])[H])(C([H])([H])[H])C([H])([H])[H])C([H])([H])c2c([H])c(OC([H])([H])C([H])([H])C([H])([H])C([H])([H])C([H])([H])C([H])([H])[N+]([H])([H])C([H])([H])C(=O)N([H])C([H])([H])C([H])([H])C([H])([H])C([H])([H])C([H])([H])N([H])C(=O)N3C([H])([H])C([H])([H])C([H])([H])C([H])(n4nc(-c5c([H])c([H])c(Oc6c([H])c([H])c(F)c([H])c6F)c([H])c5[H])c(C(=O)N([H])[H])c4N([H])[H])C3([H])[H])c([H])c([H])c2C1([H])[H]

$$$$
44:0:0
     RDKit          3D

104110  0  0  1  0  0  0  0  0999 V2000
  -33.0700  -19.2680   19.4110 C   0  0  0  0  0  2  0  0  0  0  0  0
  -31.5370  -17.4540   20.1690 C   0  0  0  0  0  0  0  0  0  0  0  0
  -31.8430  -18.4840   19.3700 N   0  0  0  0  0  0  0  0  0  0  0  0
  -32.2340  -17.1100   21.1220 O   0  0  0  0  0  0  0  0  0  0  0  0
  -31.2100  -18.6790   18.6070 H   0  0  0  0  0  0  0  0  0  0  0  0
  -30.2500  -16.6890   19.8220 C   0  0  0  0  0  3  0  0  0  0  0  0
  -30.9480  -14.3190   19.9780 C   0  0  0  0  0  0  0  0  0  0  0  0
  -30.5040  -12.2830   18.6910 C   0  0  0  0  0  2  0  0  0  0  0  0
  -29.4770  -12.6730   17.6090 C   0  0  0  0  0  2  0  0  0  0  0  0
  -28.0430  -12.4930   18.1410 C   0  0  0  0  0  2  0  0  0  0  0  0
  -27.8270  -13.1780   19.5140 C   0  0  0  0  0  3  0  0  0  0  0  0
  -28.9770  -12.8520   20.5020 C   0  0  0  0  0  2  0  0  0  0  0  0
  -30.2650  -13.1560   19.8520 N   0  0  0  0  0  0  0  0  0  0  0  0
  -32.0480  -14.5210   19.4530 O   0  0  0  0  0  0  0  0  0  0  0  0
  -30.1940  -15.3400   20.4000 N   0  0  0  0  0  0  0  0  0  0  0  0
  -29.3780  -15.1070   20.9410 H   0  0  0  0  0  0  0  0  0  0  0  0
  -25.4900  -13.6880   20.4740 C   0  0  0  0  0  0  0  0  0  0  0  0
  -24.4590  -12.8740   20.8540 C   0  0  0  0  0  0  0  0  0  0  0  0
  -24.9180  -11.5360   20.6610 C   0  0  0  0  0  0  0  0  0  0  0  0
  -26.5170  -12.8460   20.0780 N   0  0  0  0  0  0  0  0  0  0  0  0
  -26.1800  -11.5400   20.2430 N   0  0  0  0  0  0  0  0  0  0  0  0
  -24.2060  -10.2590   20.7820 C   0  0  0  0  0  0  0  0  0  0  0  0
  -24.7000   -9.2110   21.5920 C   0  0  0  0  0  3  0  0  0  0  0  0
  -23.9810   -8.0000   21.7130 C   0  0  0  0  0  3  0  0  0  0  0  0
  -22.7540   -7.8330   21.0250 C   0  0  0  0  0  0  0  0  0  0  0  0
  -22.2820   -8.8720   20.2020 C   0  0  0  0  0  3  0  0  0  0  0  0
  -23.0020  -10.0690   20.0790 C   0  0  0  0  0  3  0  0  0  0  0  0
  -22.0050   -6.6810   21.0640 O   0  0  0  0  0  0  0  0  0  0  0  0
  -22.0250   -5.8420   22.1500 C   0  0  0  0  0  0  0  0  0  0  0  0
  -21.7050   -6.2950   23.4490 C   0  0  0  0  0  3  0  0  0  0  0  0
  -21.6680   -5.3840   24.5230 C   0  0  0  0  0  3  0  0  0  0  0  0
  -21.9420   -4.0220   24.3030 C   0  0  0  0  0  0  0  0  0  0  0  0
  -22.2570   -3.5680   23.0110 C   0  0  0  0  0  3  0  0  0  0  0  0
  -22.2950   -4.4740   21.9360 C   0  0  0  0  0  0  0  0  0  0  0  0
  -22.5760   -4.0270   20.6890 F   0  0  0  0  0  0  0  0  0  0  0  0
  -21.9020   -3.1480   25.3350 F   0  0  0  0  0  0  0  0  0  0  0  0
  -23.0890  -13.3150   21.2870 C   0  0  0  0  0  0  0  0  0  0  0  0
  -22.4340  -12.5480   22.1460 N   0  0  0  0  0  0  0  0  0  0  0  0
  -22.6070  -14.3810   20.8950 O   0  0  0  0  0  0  0  0  0  0  0  0
  -22.8310  -11.6840   22.4890 H   0  0  0  0  0  0  0  0  0  0  0  0
  -21.5210  -12.8270   22.4740 H   0  0  0  0  0  0  0  0  0  0  0  0
  -25.6170  -15.0740   20.4160 N   0  0  0  0  0  0  0  0  0  0  0  0
  -24.8150  -15.6650   20.6060 H   0  0  0  0  0  0  0  0  0  0  0  0
  -26.4200  -15.5860   20.0760 H   0  0  0  0  0  0  0  0  0  0  0  0
  -28.9750  -17.4800   20.2160 C   0  0  0  0  0  2  0  0  0  0  0  0
  -28.6650  -17.6770   21.7230 C   0  0  0  0  0  2  0  0  0  0  0  0
  -29.8090  -18.3260   22.5230 C   0  0  0  0  0  2  0  0  0  0  0  0
  -29.4330  -18.7930   23.9420 C   0  0  0  0  0  2  0  0  0  0  0  0
  -30.6020  -19.5170   24.6300 C   0  0  0  0  0  0  0  0  0  0  0  0
  -30.9150  -19.1850   25.8770 N   0  0  0  0  0  0  0  0  0  0  0  0
  -31.2400  -20.3840   24.0400 O   0  0  0  0  0  0  0  0  0  0  0  0
  -30.3790  -18.4980   26.3890 H   0  0  0  0  0  0  0  0  0  0  0  0
  -31.7190  -19.6100   26.3220 H   0  0  0  0  0  0  0  0  0  0  0  0
  -32.7950  -20.7610   19.6330 C   0  0  0  0  0  2  0  0  0  0  0  0
  -33.8880  -21.6200   18.9760 C   0  0  0  0  0  2  0  0  0  0  0  0
  -33.6570  -23.1440   18.9670 C   0  0  0  0  0  1  0  0  0  0  0  0
  -33.6050  -23.8360   20.3510 C   0  0  0  0  0  1  0  0  0  0  0  0
  -32.3370  -23.5340   21.0480 N   0  0  0  0  0  4  0  0  0  0  0  0
  -32.7440  -24.0940   21.7790 H   0  0  0  0  0  0  0  0  0  0  0  0
  -32.1380  -23.6860   20.0700 H   0  0  0  0  0  0  0  0  0  0  0  0
  -31.1900  -24.4740   21.0770 C   0  0  0  0  0  2  0  0  0  0  0  0
  -30.5740  -24.6050   22.4860 C   0  0  0  0  0  2  0  0  0  0  0  0
  -29.0550  -24.8430   22.4980 C   0  0  0  0  0  2  0  0  0  0  0  0
  -28.7460  -26.1520   22.0310 O   0  0  0  0  0  0  0  0  0  0  0  0
  -28.2400  -32.3980   25.3390 C   0  0  0  0  0  0  0  0  0  0  0  0
  -28.0000  -26.9260   22.8920 C   0  0  0  0  0  0  0  0  0  0  0  0
  -26.6620  -30.6570   26.1120 C   0  0  0  0  0  3  0  0  0  0  0  0
  -26.5310  -28.5690   24.6550 C   0  0  0  0  0  0  0  0  0  0  0  0
  -27.5330  -30.6530   23.7100 C   0  0  0  0  0  2  0  0  0  0  0  0
  -27.4030  -29.1440   23.7270 C   0  0  0  0  0  0  0  0  0  0  0  0
  -28.1320  -28.3280   22.8360 C   0  0  0  0  0  3  0  0  0  0  0  0
  -27.1060  -26.3560   23.8270 C   0  0  0  0  0  3  0  0  0  0  0  0
  -26.3810  -27.1730   24.7170 C   0  0  0  0  0  3  0  0  0  0  0  0
  -25.7700  -29.5160   25.5560 C   0  0  0  0  0  2  0  0  0  0  0  0
  -27.5360  -31.2640   25.0600 N   0  0  0  0  0  0  0  0  0  0  0  0
  -28.1420  -32.9520   26.4430 O   0  0  0  0  0  0  0  0  0  0  0  0
  -27.4510  -30.1070   27.3250 C   0  0  0  0  0  0  0  0  0  0  0  0
  -26.8350  -30.1560   28.5170 N   0  0  0  0  0  0  0  0  0  0  0  0
  -28.5800  -29.6290   27.1750 O   0  0  0  0  0  0  0  0  0  0  0  0
  -25.9160  -30.5760   28.5670 H   0  0  0  0  0  0  0  0  0  0  0  0
  -26.1790  -29.9320   32.0550 C   0  0  0  0  0  0  0  0  0  0  0  0
  -27.3780  -29.6640   29.7820 C   0  0  0  0  0  3  0  0  0  0  0  0
  -27.1340  -28.1460   29.9450 C   0  0  0  0  0  2  0  0  0  0  0  0
  -25.8370  -27.8250   30.6960 C   0  0  0  0  0  2  0  0  0  0  0  0
  -25.8590  -28.4470   32.0950 C   0  0  0  0  0  2  0  0  0  0  0  0
  -26.8800  -30.5070   30.9610 C   0  0  0  0  0  0  0  0  0  0  0  0
  -27.1180  -31.8990   30.9550 C   0  0  0  0  0  3  0  0  0  0  0  0
  -26.6740  -32.7100   32.0150 C   0  0  0  0  0  3  0  0  0  0  0  0
  -25.9940  -32.1360   33.1030 C   0  0  0  0  0  3  0  0  0  0  0  0
  -25.7550  -30.7480   33.1230 C   0  0  0  0  0  3  0  0  0  0  0  0
  -29.1800  -33.0610   24.2870 C   0  0  0  0  0  3  0  0  0  0  0  0
  -28.9850  -34.5120   24.3640 N   0  0  0  0  0  0  0  0  0  0  0  0
  -28.2260  -35.2180   23.5150 C   0  0  0  0  0  0  0  0  0  0  0  0
  -27.6680  -34.7140   22.5380 O   0  0  0  0  0  0  0  0  0  0  0  0
  -29.3750  -34.9790   25.1700 H   0  0  0  0  0  0  0  0  0  0  0  0
  -26.7010  -36.9550   24.4920 C   0  0  0  0  0  1  0  0  0  0  0  0
  -28.0540  -36.7200   23.8040 C   0  0  0  0  0  3  0  0  0  0  0  0
  -29.5040  -37.5970   22.0300 C   0  0  0  0  0  1  0  0  0  0  0  0
  -28.1580  -37.5690   22.5970 N   0  0  0  0  0  0  0  0  0  0  0  0
  -27.8830  -38.5270   22.8040 H   0  0  0  0  0  0  0  0  0  0  0  0
  -30.7000  -32.6890   24.4980 C   0  0  1  0  0  0  0  0  0  0  0  0
  -31.2050  -32.9260   25.9390 C   0  0  0  0  0  1  0  0  0  0  0  0
  -30.9410  -31.2030   24.1460 C   0  0  0  0  0  1  0  0  0  0  0  0
  -31.5840  -33.5200   23.5420 C   0  0  0  0  0  1  0  0  0  0  0  0
  1 54  1  0
  2  4  2  0
  3  1  1  0
  3  2  1  0
  5  3  1  0
  6  2  1  0
  6 45  1  0
  6 15  1  0
  7 15  1  0
  8 13  1  0
  9 10  1  0
  9  8  1  0
 11 10  1  0
 11 20  1  0
 11 12  1  0
 13  7  1  0
 13 12  1  0
 14  7  2  0
 15 16  1  0
 17 18  2  0
 18 37  1  0
 19 22  1  0
 19 18  1  0
 20 21  1  0
 20 17  1  0
 21 19  2  0
 22 23  1  0
 23 24  2  0
 25 28  1  0
 25 24  1  0
 26 25  2  0
 27 26  1  0
 27 22  2  0
 28 29  1  0
 29 30  1  0
 30 31  2  0
 32 31  1  0
 32 36  1  0
 33 32  2  0
 34 29  2  0
 34 33  1  0
 35 34  1  0
 37 38  1  0
 38 41  1  0
 38 40  1  0
 39 37  2  0
 42 17  1  0
 42 43  1  0
 44 42  1  0
 45 46  1  0
 46 47  1  0
 47 48  1  0
 48 49  1  0
 49 50  1  0
 50 53  1  0
 50 52  1  0
 51 49  2  0
 55 54  1  0
 56 55  1  0
 57 58  1  0
 58 61  1  0
 58 59  1  0
 60 58  1  0
 61 62  1  0
 62 63  1  0
 64 63  1  0
 64 66  1  0
 65 76  2  0
 66 72  1  0
 67 77  1  0
 68 73  1  0
 68 74  1  0
 69 70  1  0
 69 75  1  0
 70 68  2  0
 71 66  2  0
 71 70  1  0
 72 73  2  0
 74 67  1  0
 75 65  1  0
 75 67  1  0
 77 78  1  0
 78 80  1  0
 79 77  2  0
 81 85  1  0
 81 90  1  0
 82 78  1  0
 82 83  1  0
 82 86  1  0
 83 84  1  0
 84 85  1  0
 86 81  2  0
 87 86  1  0
 87 88  2  0
 88 89  1  0
 89 90  2  0
 91 92  1  0
 91101  1  0
 91 65  1  0
 92 95  1  0
 93 97  1  0
 93 92  1  0
 94 93  2  0
 97 96  1  0
 98 99  1  0
 99100  1  0
 99 97  1  0
101102  1  1
103101  1  0
104101  1  0
M  ISO  4   7 100  15 100  63 101  64 101
M  END
>  <TORSDO>  (45) 
F 31

>  <SCORE>  (45) 
1.438

>  <name>  (45) 
44

>  <ligand_id>  (45) 
44

>  <original_smiles>  (45) 
[H]c1c([H])c([H])c2c(c1[H])C([H])([H])C([H])([H])C([H])([H])C2([H])N([H])C(=O)C1([H])N(C(=O)C([H])(N([H])C(=O)C([H])(N([H])C([H])([H])[H])C([H])([H])[H])C(C([H])([H])[H])(C([H])([H])[H])C([H])([H])[H])C([H])([H])c2c([H])c(OC([H])([H])C([H])([H])C([H])([H])[N+]([H])([H])C([H])([H])C([H])([H])C([H])([H])C([H])([H])C([H])([H])N([H])C(=O)C([H])(N([H])C(=O)N3C([H])([H])C([H])([H])C([H])([H])C([H])(n4nc(-c5c([H])c([H])c(Oc6c([H])c([H])c(F)c([H])c6F)c([H])c5[H])c(C(=O)N([H])[H])c4N([H])[H])C3([H])[H])C([H])([H])C([H])([H])C([H])([H])C([H])([H])C(=O)N([H])[H])c([H])c([H])c2C1([H])[H]

>  <smiles>  (45) 
[H]c1c([H])c([H])c2c(c1[H])C([H])([H])C([H])([H])C([H])([H])C2([H])N([H])C(=O)C1([H])N(C(=O)C([H])(N([H])C(=O)C([H])(N([H])C([H])([H])[H])C([H])([H])[H])C(C([H])([H])[H])(C([H])([H])[H])C([H])([H])[H])C([H])([H])c2c([H])c(OC([H])([H])C([H])([H])C([H])([H])[N+]([H])([H])C([H])([H])C([H])([H])C([H])([H])C([H])([H])C([H])([H])N([H])C(=O)C([H])(N([H])C(=O)N3C([H])([H])C([H])([H])C([H])([H])C([H])(n4nc(-c5c([H])c([H])c(Oc6c([H])c([H])c(F)c([H])c6F)c([H])c5[H])c(C(=O)N([H])[H])c4N([H])[H])C3([H])[H])C([H])([H])C([H])([H])C([H])([H])C([H])([H])C(=O)N([H])[H])c([H])c([H])c2C1([H])[H]

$$$$
46:0:0
     RDKit          3D

100107  0  0  1  0  0  0  0  0999 V2000
  -25.0380  -21.3030   17.6740 C   0  0  0  0  0  2  0  0  0  0  0  0
  -25.1930  -21.9520   19.0750 C   0  0  0  0  0  2  0  0  0  0  0  0
  -26.6410  -22.4080   19.3290 C   0  0  0  0  0  2  0  0  0  0  0  0
  -26.9620  -22.7520   20.8060 C   0  0  0  0  0  2  0  0  0  0  0  0
  -28.1900  -23.5680   20.9690 N   0  0  0  0  0  4  0  0  0  0  0  0
  -29.0020  -23.0300   20.7070 H   0  0  0  0  0  0  0  0  0  0  0  0
  -28.2820  -23.7840   21.9530 H   0  0  0  0  0  0  0  0  0  0  0  0
  -28.1330  -24.8220   20.1880 C   0  0  0  0  0  2  0  0  0  0  0  0
  -28.7700  -26.0510   20.8370 C   0  0  0  0  0  2  0  0  0  0  0  0
  -28.6360  -27.1490   19.9330 O   0  0  0  0  0  0  0  0  0  0  0  0
  -24.6940  -31.9320   23.3960 C   0  0  0  0  0  0  0  0  0  0  0  0
  -27.4420  -27.8260   19.9940 C   0  0  0  0  0  0  0  0  0  0  0  0
  -23.5230  -30.6640   21.6230 C   0  0  0  0  0  3  0  0  0  0  0  0
  -25.0140  -29.2650   20.0990 C   0  0  0  0  0  0  0  0  0  0  0  0
  -26.0450  -31.0630   21.4980 C   0  0  0  0  0  2  0  0  0  0  0  0
  -26.1510  -29.7510   20.7570 C   0  0  0  0  0  0  0  0  0  0  0  0
  -27.3640  -29.0320   20.7180 C   0  0  0  0  0  3  0  0  0  0  0  0
  -26.3010  -27.3750   19.2910 C   0  0  0  0  0  3  0  0  0  0  0  0
  -25.0810  -28.0670   19.3690 C   0  0  0  0  0  3  0  0  0  0  0  0
  -23.7570  -30.1010   20.1960 C   0  0  0  0  0  2  0  0  0  0  0  0
  -24.7720  -31.2300   22.2330 N   0  0  0  0  0  0  0  0  0  0  0  0
  -23.6040  -32.1530   23.9390 O   0  0  0  0  0  0  0  0  0  0  0  0
  -22.8710  -29.5600   22.4840 C   0  0  0  0  0  0  0  0  0  0  0  0
  -21.5540  -29.3690   22.3090 N   0  0  0  0  0  0  0  0  0  0  0  0
  -23.5450  -28.8850   23.2680 O   0  0  0  0  0  0  0  0  0  0  0  0
  -21.0700  -29.9730   21.6580 H   0  0  0  0  0  0  0  0  0  0  0  0
  -18.1990  -28.0510   22.5820 C   0  0  0  0  0  0  0  0  0  0  0  0
  -20.7350  -28.3600   22.9810 C   0  0  0  0  0  3  0  0  0  0  0  0
  -20.9040  -26.9720   22.3210 C   0  0  0  0  0  2  0  0  0  0  0  0
  -19.8530  -26.6860   21.2420 C   0  0  0  0  0  2  0  0  0  0  0  0
  -18.4420  -26.7530   21.8320 C   0  0  0  0  0  2  0  0  0  0  0  0
  -19.2760  -28.8140   23.1080 C   0  0  0  0  0  0  0  0  0  0  0  0
  -18.9970  -30.0340   23.7620 C   0  0  0  0  0  3  0  0  0  0  0  0
  -17.6720  -30.4910   23.8960 C   0  0  0  0  0  3  0  0  0  0  0  0
  -16.6090  -29.7240   23.3870 C   0  0  0  0  0  3  0  0  0  0  0  0
  -16.8740  -28.5050   22.7390 C   0  0  0  0  0  3  0  0  0  0  0  0
  -25.9710  -32.5160   24.0830 C   0  0  0  0  0  3  0  0  0  0  0  0
  -25.6560  -33.8870   24.5050 N   0  0  0  0  0  0  0  0  0  0  0  0
  -26.0090  -34.9900   23.8310 C   0  0  0  0  0  0  0  0  0  0  0  0
  -26.7080  -34.9580   22.8130 O   0  0  0  0  0  0  0  0  0  0  0  0
  -25.0400  -33.9880   25.2990 H   0  0  0  0  0  0  0  0  0  0  0  0
  -24.2930  -36.8050   23.5530 C   0  0  0  0  0  1  0  0  0  0  0  0
  -25.5100  -36.3420   24.3700 C   0  0  0  0  0  3  0  0  0  0  0  0
  -27.6200  -37.1590   25.3220 C   0  0  0  0  0  1  0  0  0  0  0  0
  -26.5460  -37.3990   24.3610 N   0  0  0  0  0  0  0  0  0  0  0  0
  -26.1350  -38.3060   24.5640 H   0  0  0  0  0  0  0  0  0  0  0  0
  -26.4710  -31.6530   25.3060 C   0  0  1  0  0  0  0  0  0  0  0  0
  -25.3650  -31.3370   26.3380 C   0  0  0  0  0  1  0  0  0  0  0  0
  -27.0600  -30.3090   24.8170 C   0  0  0  0  0  1  0  0  0  0  0  0
  -27.6110  -32.3970   26.0390 C   0  0  0  0  0  1  0  0  0  0  0  0
  -24.0870  -20.0830   17.5520 C   0  0  0  0  0  2  0  0  0  0  0  0
  -24.4950  -18.7320   18.2140 C   0  0  0  0  0  2  0  0  0  0  0  0
  -25.5880  -18.8250   19.2120 N   0  0  0  0  0  4  0  0  0  0  0  0
  -25.3690  -18.1860   19.9550 H   0  0  0  0  0  0  0  0  0  0  0  0
  -25.5670  -19.7520   19.6040 H   0  0  0  0  0  0  0  0  0  0  0  0
  -26.9690  -18.5270   18.7570 C   0  0  0  0  0  2  0  0  0  0  0  0
  -27.9100  -18.4160   19.9730 C   0  0  0  0  0  2  0  0  0  0  0  0
  -29.9720  -17.2280   20.5810 C   0  0  0  0  0  0  0  0  0  0  0  0
  -29.2330  -17.8630   19.6640 N   0  0  0  0  0  0  0  0  0  0  0  0
  -29.5980  -17.0810   21.7480 O   0  0  0  0  0  0  0  0  0  0  0  0
  -29.6100  -17.9860   18.7290 H   0  0  0  0  0  0  0  0  0  0  0  0
  -31.3020  -16.6120   20.1740 C   0  0  0  0  0  2  0  0  0  0  0  0
  -31.6950  -14.2330   19.8970 C   0  0  0  0  0  0  0  0  0  0  0  0
  -31.1650  -12.0210   18.9770 C   0  0  0  0  0  2  0  0  0  0  0  0
  -30.2110  -12.1870   17.7760 C   0  0  0  0  0  2  0  0  0  0  0  0
  -28.7430  -12.2090   18.2480 C   0  0  0  0  0  2  0  0  0  0  0  0
  -28.5050  -13.1920   19.4220 C   0  0  0  0  0  3  0  0  0  0  0  0
  -29.5780  -12.9990   20.5250 C   0  0  0  0  0  2  0  0  0  0  0  0
  -30.9180  -13.1210   19.9140 N   0  0  0  0  0  0  0  0  0  0  0  0
  -32.6960  -14.3740   19.1840 O   0  0  0  0  0  0  0  0  0  0  0  0
  -31.2570  -15.2350   20.6440 N   0  0  0  0  0  0  0  0  0  0  0  0
  -30.4940  -15.0100   21.2690 H   0  0  0  0  0  0  0  0  0  0  0  0
  -26.2040  -14.0260   20.2310 C   0  0  0  0  0  0  0  0  0  0  0  0
  -25.0770  -13.3710   20.6520 C   0  0  0  0  0  0  0  0  0  0  0  0
  -25.3930  -11.9810   20.5850 C   0  0  0  0  0  0  0  0  0  0  0  0
  -27.1470  -13.0500   19.9590 N   0  0  0  0  0  0  0  0  0  0  0  0
  -26.6560  -11.8120   20.2120 N   0  0  0  0  0  0  0  0  0  0  0  0
  -24.5440  -10.8060   20.7980 C   0  0  0  0  0  0  0  0  0  0  0  0
  -24.8830   -9.8190   21.7490 C   0  0  0  0  0  3  0  0  0  0  0  0
  -24.0440   -8.7020   21.9500 C   0  0  0  0  0  3  0  0  0  0  0  0
  -22.8570   -8.5630   21.1960 C   0  0  0  0  0  0  0  0  0  0  0  0
  -22.5360   -9.5400   20.2360 C   0  0  0  0  0  3  0  0  0  0  0  0
  -23.3700  -10.6510   20.0350 C   0  0  0  0  0  3  0  0  0  0  0  0
  -21.9940   -7.4960   21.3060 O   0  0  0  0  0  0  0  0  0  0  0  0
  -21.8400   -6.8120   22.4840 C   0  0  0  0  0  0  0  0  0  0  0  0
  -21.4270   -7.4540   23.6720 C   0  0  0  0  0  3  0  0  0  0  0  0
  -21.2190   -6.6990   24.8450 C   0  0  0  0  0  3  0  0  0  0  0  0
  -21.4090   -5.3050   24.8290 C   0  0  0  0  0  0  0  0  0  0  0  0
  -21.8110   -4.6630   23.6450 C   0  0  0  0  0  3  0  0  0  0  0  0
  -22.0230   -5.4150   22.4760 C   0  0  0  0  0  0  0  0  0  0  0  0
  -22.3920   -4.7900   21.3320 F   0  0  0  0  0  0  0  0  0  0  0  0
  -21.1940   -4.5760   25.9500 F   0  0  0  0  0  0  0  0  0  0  0  0
  -23.7620  -13.9970   21.0050 C   0  0  0  0  0  0  0  0  0  0  0  0
  -23.0170  -13.3780   21.9160 N   0  0  0  0  0  0  0  0  0  0  0  0
  -23.4090  -15.0660   20.5090 O   0  0  0  0  0  0  0  0  0  0  0  0
  -23.3270  -12.5180   22.3490 H   0  0  0  0  0  0  0  0  0  0  0  0
  -22.1280  -13.7720   22.1870 H   0  0  0  0  0  0  0  0  0  0  0  0
  -26.4790  -15.3670   20.0450 N   0  0  0  0  0  0  0  0  0  0  0  0
  -25.7710  -16.0490   20.2610 H   0  0  0  0  0  0  0  0  0  0  0  0
  -27.4000  -15.7320   19.8550 H   0  0  0  0  0  0  0  0  0  0  0  0
  1  2  1  0
  2  3  1  0
  3  4  1  0
  4  5  1  0
  5  7  1  0
  6  5  1  0
  8  9  1  0
  8  5  1  0
 10 12  1  0
 10  9  1  0
 11 22  2  0
 12 17  1  0
 13 21  1  0
 13 23  1  0
 14 20  1  0
 14 16  1  0
 15 21  1  0
 16 15  1  0
 17 16  2  0
 18 19  1  0
 18 12  2  0
 19 14  2  0
 20 13  1  0
 21 11  1  0
 23 25  2  0
 24 23  1  0
 26 24  1  0
 27 36  2  0
 27 32  1  0
 28 24  1  0
 28 32  1  0
 29 28  1  0
 30 31  1  0
 30 29  1  0
 31 27  1  0
 32 33  2  0
 33 34  1  0
 35 34  2  0
 36 35  1  0
 37 11  1  0
 37 38  1  0
 37 47  1  0
 38 41  1  0
 39 43  1  0
 39 38  1  0
 40 39  2  0
 43 42  1  0
 45 43  1  0
 45 46  1  0
 45 44  1  0
 47 50  1  1
 47 48  1  0
 49 47  1  0
 51  1  1  0
 51 52  1  0
 52 53  1  0
 53 55  1  0
 53 54  1  0
 56 53  1  0
 56 57  1  0
 58 60  2  0
 59 57  1  0
 59 58  1  0
 61 59  1  0
 62 58  1  0
 62 71  1  0
 63 69  1  0
 63 71  1  0
 64 69  1  0
 65 66  1  0
 65 64  1  0
 67 66  1  0
 67 76  1  0
 67 68  1  0
 69 68  1  0
 70 63  2  0
 71 72  1  0
 73 74  2  0
 74 93  1  0
 75 74  1  0
 75 78  1  0
 76 77  1  0
 76 73  1  0
 77 75  2  0
 78 79  1  0
 79 80  2  0
 81 84  1  0
 81 80  1  0
 82 81  2  0
 83 82  1  0
 83 78  2  0
 84 85  1  0
 85 86  1  0
 86 87  2  0
 88 87  1  0
 88 92  1  0
 89 88  2  0
 90 85  2  0
 90 89  1  0
 91 90  1  0
 93 94  1  0
 94 97  1  0
 94 96  1  0
 95 93  2  0
 98 73  1  0
 98 99  1  0
100 98  1  0
M  ISO  4   9 101  10 101  63 100  71 100
M  END
>  <TORSDO>  (46) 
F 29

>  <SCORE>  (46) 
-8.064

>  <name>  (46) 
46

>  <ligand_id>  (46) 
46

>  <original_smiles>  (46) 
[H]c1c([H])c([H])c2c(c1[H])C([H])([H])C([H])([H])C([H])([H])C2([H])N([H])C(=O)C1([H])N(C(=O)C([H])(N([H])C(=O)C([H])(N([H])C([H])([H])[H])C([H])([H])[H])C(C([H])([H])[H])(C([H])([H])[H])C([H])([H])[H])C([H])([H])c2c([H])c(OC([H])([H])C([H])([H])[N+]([H])([H])C([H])([H])C([H])([H])C([H])([H])C([H])([H])C([H])([H])C([H])([H])[N+]([H])([H])C([H])([H])C([H])([H])N([H])C(=O)C([H])([H])N([H])C(=O)N3C([H])([H])C([H])([H])C([H])([H])C([H])(n4nc(-c5c([H])c([H])c(Oc6c([H])c([H])c(F)c([H])c6F)c([H])c5[H])c(C(=O)N([H])[H])c4N([H])[H])C3([H])[H])c([H])c([H])c2C1([H])[H]

>  <smiles>  (46) 
[H]c1c([H])c([H])c2c(c1[H])C([H])([H])C([H])([H])C([H])([H])C2([H])N([H])C(=O)C1([H])N(C(=O)C([H])(N([H])C(=O)C([H])(N([H])C([H])([H])[H])C([H])([H])[H])C(C([H])([H])[H])(C([H])([H])[H])C([H])([H])[H])C([H])([H])c2c([H])c(OC([H])([H])C([H])([H])[N+]([H])([H])C([H])([H])C([H])([H])C([H])([H])C([H])([H])C([H])([H])C([H])([H])[N+]([H])([H])C([H])([H])C([H])([H])N([H])C(=O)C([H])([H])N([H])C(=O)N3C([H])([H])C([H])([H])C([H])([H])C([H])(n4nc(-c5c([H])c([H])c(Oc6c([H])c([H])c(F)c([H])c6F)c([H])c5[H])c(C(=O)N([H])[H])c4N([H])[H])C3([H])[H])c([H])c([H])c2C1([H])[H]

$$$$
47:0:0
     RDKit          3D

101108  0  0  1  0  0  0  0  0999 V2000
  -22.9250  -24.6510   18.9690 C   0  0  0  0  0  2  0  0  0  0  0  0
  -23.7970  -23.6880   21.1120 C   0  0  0  0  0  0  0  0  0  0  0  0
  -23.5090  -24.7280   20.3160 N   0  0  0  0  0  0  0  0  0  0  0  0
  -23.4960  -22.5290   20.8160 O   0  0  0  0  0  0  0  0  0  0  0  0
  -23.8050  -25.6450   20.6230 H   0  0  0  0  0  0  0  0  0  0  0  0
  -24.5600  -23.9710   22.4070 C   0  0  0  0  0  2  0  0  0  0  0  0
  -26.0970  -23.8740   22.2460 C   0  0  0  0  0  2  0  0  0  0  0  0
  -26.7090  -25.1350   21.6090 C   0  0  0  0  0  2  0  0  0  0  0  0
  -28.2360  -25.1110   21.4250 C   0  0  0  0  0  2  0  0  0  0  0  0
  -28.8620  -26.4840   21.0670 C   0  0  0  0  0  2  0  0  0  0  0  0
  -28.4490  -26.9880   19.7910 O   0  0  0  0  0  0  0  0  0  0  0  0
  -24.6550  -31.9340   23.2220 C   0  0  0  0  0  0  0  0  0  0  0  0
  -27.3140  -27.7610   19.8240 C   0  0  0  0  0  0  0  0  0  0  0  0
  -23.4450  -30.6260   21.5000 C   0  0  0  0  0  3  0  0  0  0  0  0
  -24.9040  -29.2160   19.9510 C   0  0  0  0  0  0  0  0  0  0  0  0
  -25.9620  -31.0330   21.3070 C   0  0  0  0  0  2  0  0  0  0  0  0
  -26.0540  -29.7090   20.5790 C   0  0  0  0  0  0  0  0  0  0  0  0
  -27.2610  -28.9830   20.5260 C   0  0  0  0  0  3  0  0  0  0  0  0
  -26.1700  -27.3100   19.1400 C   0  0  0  0  0  3  0  0  0  0  0  0
  -24.9560  -28.0150   19.2260 C   0  0  0  0  0  3  0  0  0  0  0  0
  -23.6450  -30.0450   20.0750 C   0  0  0  0  0  2  0  0  0  0  0  0
  -24.7050  -31.2090   22.0680 N   0  0  0  0  0  0  0  0  0  0  0  0
  -23.5780  -32.1580   23.7910 O   0  0  0  0  0  0  0  0  0  0  0  0
  -22.8220  -29.5350   22.3990 C   0  0  0  0  0  0  0  0  0  0  0  0
  -21.4970  -29.3440   22.2760 N   0  0  0  0  0  0  0  0  0  0  0  0
  -23.5230  -28.8640   23.1610 O   0  0  0  0  0  0  0  0  0  0  0  0
  -20.9880  -29.9420   21.6380 H   0  0  0  0  0  0  0  0  0  0  0  0
  -18.1490  -28.0640   22.7040 C   0  0  0  0  0  0  0  0  0  0  0  0
  -20.7020  -28.3490   22.9930 C   0  0  0  0  0  3  0  0  0  0  0  0
  -20.8310  -26.9550   22.3340 C   0  0  0  0  0  2  0  0  0  0  0  0
  -19.7330  -26.6720   21.3040 C   0  0  0  0  0  2  0  0  0  0  0  0
  -18.3520  -26.7540   21.9580 C   0  0  0  0  0  2  0  0  0  0  0  0
  -19.2540  -28.8190   23.1780 C   0  0  0  0  0  0  0  0  0  0  0  0
  -19.0130  -30.0440   23.8360 C   0  0  0  0  0  3  0  0  0  0  0  0
  -17.6990  -30.5120   24.0290 C   0  0  0  0  0  3  0  0  0  0  0  0
  -16.6100  -29.7530   23.5700 C   0  0  0  0  0  3  0  0  0  0  0  0
  -16.8360  -28.5300   22.9150 C   0  0  0  0  0  3  0  0  0  0  0  0
  -25.9440  -32.5360   23.8670 C   0  0  0  0  0  3  0  0  0  0  0  0
  -26.4800  -31.6940   25.0900 C   0  0  1  0  0  0  0  0  0  0  0  0
  -25.4020  -31.3880   26.1550 C   0  0  0  0  0  1  0  0  0  0  0  0
  -27.0630  -30.3450   24.6120 C   0  0  0  0  0  1  0  0  0  0  0  0
  -27.6410  -32.4510   25.7810 C   0  0  0  0  0  1  0  0  0  0  0  0
  -25.6330  -33.9130   24.2770 N   0  0  0  0  0  0  0  0  0  0  0  0
  -25.9610  -35.0050   23.5730 C   0  0  0  0  0  0  0  0  0  0  0  0
  -26.6290  -34.9610   22.5360 O   0  0  0  0  0  0  0  0  0  0  0  0
  -25.0440  -34.0240   25.0900 H   0  0  0  0  0  0  0  0  0  0  0  0
  -24.2240  -36.8040   23.3170 C   0  0  0  0  0  1  0  0  0  0  0  0
  -25.4690  -36.3650   24.1040 C   0  0  0  0  0  3  0  0  0  0  0  0
  -27.6040  -37.2050   24.9760 C   0  0  0  0  0  1  0  0  0  0  0  0
  -26.4970  -37.4270   24.0480 N   0  0  0  0  0  0  0  0  0  0  0  0
  -26.0920  -38.3360   24.2510 H   0  0  0  0  0  0  0  0  0  0  0  0
  -23.9470  -24.1490   17.9380 C   0  0  0  0  0  0  0  0  0  0  0  0
  -24.4130  -22.9200   18.1560 N   0  0  0  0  0  0  0  0  0  0  0  0
  -24.3450  -24.8700   17.0230 O   0  0  0  0  0  0  0  0  0  0  0  0
  -24.0030  -22.4550   18.9630 H   0  0  0  0  0  0  0  0  0  0  0  0
  -25.5990  -22.3000   17.5970 C   0  0  0  0  0  2  0  0  0  0  0  0
  -25.9200  -21.0980   18.4900 C   0  0  0  0  0  2  0  0  0  0  0  0
  -27.2970  -20.4800   18.2470 C   0  0  0  0  0  2  0  0  0  0  0  0
  -27.5480  -19.3380   19.2420 C   0  0  0  0  0  2  0  0  0  0  0  0
  -29.0190  -18.9230   19.3320 C   0  0  0  0  0  2  0  0  0  0  0  0
  -29.2310  -17.8850   20.4410 C   0  0  0  0  0  2  0  0  0  0  0  0
  -30.7120  -17.6630   20.7730 C   0  0  0  0  0  2  0  0  0  0  0  0
  -30.9450  -16.5730   21.8370 C   0  0  0  0  0  2  0  0  0  0  0  0
  -30.8080  -14.4670   20.5190 C   0  0  0  0  0  0  0  0  0  0  0  0
  -30.4530  -12.3430   19.3250 C   0  0  0  0  0  2  0  0  0  0  0  0
  -29.5140  -12.5220   18.1180 C   0  0  0  0  0  2  0  0  0  0  0  0
  -28.0420  -12.3930   18.5480 C   0  0  0  0  0  2  0  0  0  0  0  0
  -27.7010  -13.2710   19.7810 C   0  0  0  0  0  3  0  0  0  0  0  0
  -28.7430  -13.0670   20.9030 C   0  0  0  0  0  2  0  0  0  0  0  0
  -30.0850  -13.3310   20.3470 N   0  0  0  0  0  0  0  0  0  0  0  0
  -31.8320  -14.7270   19.8800 O   0  0  0  0  0  0  0  0  0  0  0  0
  -30.3480  -15.2930   21.4630 N   0  0  0  0  0  0  0  0  0  0  0  0
  -29.5110  -15.0090   21.9490 H   0  0  0  0  0  0  0  0  0  0  0  0
  -25.3010  -13.9050   20.4750 C   0  0  0  0  0  0  0  0  0  0  0  0
  -24.2250  -13.1410   20.8440 C   0  0  0  0  0  0  0  0  0  0  0  0
  -24.6760  -11.7860   20.8190 C   0  0  0  0  0  0  0  0  0  0  0  0
  -26.3410  -13.0130   20.2540 N   0  0  0  0  0  0  0  0  0  0  0  0
  -25.9660  -11.7340   20.5150 N   0  0  0  0  0  0  0  0  0  0  0  0
  -23.9390  -10.5300   21.0120 C   0  0  0  0  0  0  0  0  0  0  0  0
  -24.3590   -9.5620   21.9520 C   0  0  0  0  0  3  0  0  0  0  0  0
  -23.6230   -8.3710   22.1300 C   0  0  0  0  0  3  0  0  0  0  0  0
  -22.4520   -8.1390   21.3700 C   0  0  0  0  0  0  0  0  0  0  0  0
  -22.0510   -9.0940   20.4190 C   0  0  0  0  0  3  0  0  0  0  0  0
  -22.7880  -10.2770   20.2390 C   0  0  0  0  0  3  0  0  0  0  0  0
  -21.6890   -7.0010   21.4580 O   0  0  0  0  0  0  0  0  0  0  0  0
  -21.6270   -6.2630   22.6140 C   0  0  0  0  0  0  0  0  0  0  0  0
  -21.2080   -6.8300   23.8370 C   0  0  0  0  0  3  0  0  0  0  0  0
  -21.0920   -6.0210   24.9850 C   0  0  0  0  0  3  0  0  0  0  0  0
  -21.3840   -4.6450   24.9100 C   0  0  0  0  0  0  0  0  0  0  0  0
  -21.7940   -4.0780   23.6900 C   0  0  0  0  0  3  0  0  0  0  0  0
  -21.9120   -4.8850   22.5450 C   0  0  0  0  0  0  0  0  0  0  0  0
  -22.2890   -4.3280   21.3680 F   0  0  0  0  0  0  0  0  0  0  0  0
  -21.2640   -3.8660   26.0100 F   0  0  0  0  0  0  0  0  0  0  0  0
  -22.8310  -13.6310   21.1130 C   0  0  0  0  0  0  0  0  0  0  0  0
  -22.0990  -12.9470   21.9840 N   0  0  0  0  0  0  0  0  0  0  0  0
  -22.4000  -14.6560   20.5850 O   0  0  0  0  0  0  0  0  0  0  0  0
  -22.4580  -12.1150   22.4300 H   0  0  0  0  0  0  0  0  0  0  0  0
  -21.1650  -13.2590   22.2090 H   0  0  0  0  0  0  0  0  0  0  0  0
  -25.4800  -15.2710   20.2940 N   0  0  0  0  0  0  0  0  0  0  0  0
  -24.7260  -15.9390   20.4100 H   0  0  0  0  0  0  0  0  0  0  0  0
  -26.3410  -15.6990   19.9780 H   0  0  0  0  0  0  0  0  0  0  0  0
  1  3  1  0
  2  6  1  0
  3  5  1  0
  3  2  1  0
  4  2  2  0
  7  6  1  0
  8  7  1  0
  9  8  1  0
 10  9  1  0
 11 13  1  0
 11 10  1  0
 12 23  2  0
 13 18  1  0
 14 22  1  0
 14 24  1  0
 15 21  1  0
 15 17  1  0
 16 22  1  0
 17 16  1  0
 18 17  2  0
 19 20  1  0
 19 13  2  0
 20 15  2  0
 21 14  1  0
 22 12  1  0
 24 26  2  0
 25 24  1  0
 27 25  1  0
 28 37  2  0
 28 33  1  0
 29 25  1  0
 29 33  1  0
 30 29  1  0
 31 32  1  0
 31 30  1  0
 32 28  1  0
 33 34  2  0
 34 35  1  0
 36 35  2  0
 37 36  1  0
 38 12  1  0
 38 43  1  0
 38 39  1  0
 39 42  1  1
 39 40  1  0
 41 39  1  0
 43 46  1  0
 44 48  1  0
 44 43  1  0
 45 44  2  0
 48 47  1  0
 50 48  1  0
 50 51  1  0
 50 49  1  0
 52 53  1  0
 52  1  1  0
 53 55  1  0
 54 52  2  0
 56 53  1  0
 56 57  1  0
 58 57  1  0
 58 59  1  0
 59 60  1  0
 60 61  1  0
 61 62  1  0
 62 63  1  0
 64 72  1  0
 65 70  1  0
 66 67  1  0
 66 65  1  0
 68 67  1  0
 68 77  1  0
 68 69  1  0
 70 64  1  0
 70 69  1  0
 71 64  2  0
 72 63  1  0
 72 73  1  0
 74 75  2  0
 75 94  1  0
 76 75  1  0
 76 79  1  0
 77 74  1  0
 77 78  1  0
 78 76  2  0
 79 80  1  0
 80 81  2  0
 82 85  1  0
 82 81  1  0
 83 82  2  0
 84 83  1  0
 84 79  2  0
 85 86  1  0
 86 87  1  0
 87 88  2  0
 89 88  1  0
 89 93  1  0
 90 89  2  0
 91 86  2  0
 91 90  1  0
 92 91  1  0
 94 95  1  0
 95 98  1  0
 95 97  1  0
 96 94  2  0
 99100  1  0
 99 74  1  0
101 99  1  0
M  ISO  4  10 101  11 101  64 100  72 100
M  END
>  <TORSDO>  (47) 
F 31

>  <SCORE>  (47) 
-10.136

>  <name>  (47) 
47

>  <ligand_id>  (47) 
47

>  <original_smiles>  (47) 
[H]c1c([H])c([H])c2c(c1[H])C([H])([H])C([H])([H])C([H])([H])C2([H])N([H])C(=O)C1([H])N(C(=O)C([H])(N([H])C(=O)C([H])(N([H])C([H])([H])[H])C([H])([H])[H])C(C([H])([H])[H])(C([H])([H])[H])C([H])([H])[H])C([H])([H])c2c([H])c(OC([H])([H])C([H])([H])C([H])([H])C([H])([H])C([H])([H])C(=O)N([H])C([H])([H])C(=O)N([H])C([H])([H])C([H])([H])C([H])([H])C([H])([H])C([H])([H])C([H])([H])C([H])([H])C([H])([H])N([H])C(=O)N3C([H])([H])C([H])([H])C([H])([H])C([H])(n4nc(-c5c([H])c([H])c(Oc6c([H])c([H])c(F)c([H])c6F)c([H])c5[H])c(C(=O)N([H])[H])c4N([H])[H])C3([H])[H])c([H])c([H])c2C1([H])[H]

>  <smiles>  (47) 
[H]c1c([H])c([H])c2c(c1[H])C([H])([H])C([H])([H])C([H])([H])C2([H])N([H])C(=O)C1([H])N(C(=O)C([H])(N([H])C(=O)C([H])(N([H])C([H])([H])[H])C([H])([H])[H])C(C([H])([H])[H])(C([H])([H])[H])C([H])([H])[H])C([H])([H])c2c([H])c(OC([H])([H])C([H])([H])C([H])([H])C([H])([H])C([H])([H])C(=O)N([H])C([H])([H])C(=O)N([H])C([H])([H])C([H])([H])C([H])([H])C([H])([H])C([H])([H])C([H])([H])C([H])([H])C([H])([H])N([H])C(=O)N3C([H])([H])C([H])([H])C([H])([H])C([H])(n4nc(-c5c([H])c([H])c(Oc6c([H])c([H])c(F)c([H])c6F)c([H])c5[H])c(C(=O)N([H])[H])c4N([H])[H])C3([H])[H])c([H])c([H])c2C1([H])[H]

$$$$
48:0:0
     RDKit          3D

 98105  0  0  1  0  0  0  0  0999 V2000
  -27.2550  -23.8130   17.1440 C   0  0  0  0  0  0  0  0  0  0  0  0
  -27.4610  -22.4900   17.1100 N   0  0  0  0  0  0  0  0  0  0  0  0
  -26.2030  -24.3090   17.5560 O   0  0  0  0  0  0  0  0  0  0  0  0
  -28.3350  -22.1690   16.7130 H   0  0  0  0  0  0  0  0  0  0  0  0
  -26.4850  -21.4750   17.5110 C   0  0  0  0  0  2  0  0  0  0  0  0
  -26.7530  -20.9070   18.9190 C   0  0  0  0  0  2  0  0  0  0  0  0
  -28.1290  -20.3830   19.0640 N   0  0  0  0  0  4  0  0  0  0  0  0
  -28.3760  -19.9120   18.2080 H   0  0  0  0  0  0  0  0  0  0  0  0
  -28.7580  -21.1610   19.1830 H   0  0  0  0  0  0  0  0  0  0  0  0
  -28.2990  -19.4340   20.1850 C   0  0  0  0  0  2  0  0  0  0  0  0
  -29.7350  -18.8810   20.2610 C   0  0  0  0  0  2  0  0  0  0  0  0
  -29.8580  -17.6800   21.2140 C   0  0  0  0  0  2  0  0  0  0  0  0
  -31.3090  -17.1830   21.3410 C   0  0  0  0  0  2  0  0  0  0  0  0
  -31.4550  -15.8530   22.1110 C   0  0  0  0  0  2  0  0  0  0  0  0
  -31.0930  -14.0820   20.3860 C   0  0  0  0  0  0  0  0  0  0  0  0
  -30.5180  -12.2610   18.8250 C   0  0  0  0  0  2  0  0  0  0  0  0
  -29.5450  -12.7460   17.7350 C   0  0  0  0  0  2  0  0  0  0  0  0
  -28.0860  -12.6380   18.2170 C   0  0  0  0  0  2  0  0  0  0  0  0
  -27.8750  -13.2740   19.6150 C   0  0  0  0  0  3  0  0  0  0  0  0
  -28.9460  -12.7730   20.6090 C   0  0  0  0  0  2  0  0  0  0  0  0
  -30.2790  -13.0520   20.0400 N   0  0  0  0  0  0  0  0  0  0  0  0
  -32.1120  -14.3830   19.7570 O   0  0  0  0  0  0  0  0  0  0  0  0
  -30.7290  -14.7470   21.4890 N   0  0  0  0  0  0  0  0  0  0  0  0
  -29.8960  -14.4190   21.9580 H   0  0  0  0  0  0  0  0  0  0  0  0
  -25.5000  -13.9310   20.3640 C   0  0  0  0  0  0  0  0  0  0  0  0
  -24.4230  -13.1800   20.7480 C   0  0  0  0  0  0  0  0  0  0  0  0
  -24.8550  -11.8190   20.7060 C   0  0  0  0  0  0  0  0  0  0  0  0
  -26.5230  -13.0300   20.1130 N   0  0  0  0  0  0  0  0  0  0  0  0
  -26.1380  -11.7540   20.3730 N   0  0  0  0  0  0  0  0  0  0  0  0
  -24.1070  -10.5710   20.9060 C   0  0  0  0  0  0  0  0  0  0  0  0
  -24.5010   -9.6220   21.8750 C   0  0  0  0  0  3  0  0  0  0  0  0
  -23.7560   -8.4390   22.0600 C   0  0  0  0  0  3  0  0  0  0  0  0
  -22.6030   -8.1950   21.2760 C   0  0  0  0  0  0  0  0  0  0  0  0
  -22.2290   -9.1320   20.2970 C   0  0  0  0  0  3  0  0  0  0  0  0
  -22.9740  -10.3080   20.1100 C   0  0  0  0  0  3  0  0  0  0  0  0
  -21.8320   -7.0610   21.3690 O   0  0  0  0  0  0  0  0  0  0  0  0
  -21.7060   -6.3710   22.5480 C   0  0  0  0  0  0  0  0  0  0  0  0
  -21.1620   -6.9680   23.7060 C   0  0  0  0  0  3  0  0  0  0  0  0
  -20.9850   -6.2020   24.8760 C   0  0  0  0  0  3  0  0  0  0  0  0
  -21.3440   -4.8400   24.8880 C   0  0  0  0  0  0  0  0  0  0  0  0
  -21.8810   -4.2440   23.7350 C   0  0  0  0  0  3  0  0  0  0  0  0
  -22.0580   -5.0060   22.5670 C   0  0  0  0  0  0  0  0  0  0  0  0
  -22.5570   -4.4210   21.4510 F   0  0  0  0  0  0  0  0  0  0  0  0
  -21.1670   -4.1030   26.0090 F   0  0  0  0  0  0  0  0  0  0  0  0
  -23.0410  -13.6860   21.0510 C   0  0  0  0  0  0  0  0  0  0  0  0
  -22.3190  -13.0040   21.9340 N   0  0  0  0  0  0  0  0  0  0  0  0
  -22.6100  -14.7170   20.5370 O   0  0  0  0  0  0  0  0  0  0  0  0
  -22.6800  -12.1690   22.3700 H   0  0  0  0  0  0  0  0  0  0  0  0
  -21.3920  -13.3240   22.1780 H   0  0  0  0  0  0  0  0  0  0  0  0
  -25.6920  -15.2990   20.1880 N   0  0  0  0  0  0  0  0  0  0  0  0
  -24.9460  -15.9740   20.3180 H   0  0  0  0  0  0  0  0  0  0  0  0
  -26.5560  -15.7180   19.8690 H   0  0  0  0  0  0  0  0  0  0  0  0
  -28.4070  -24.7050   16.6630 C   0  0  0  0  0  2  0  0  0  0  0  0
  -28.5640  -25.8150   17.5420 O   0  0  0  0  0  0  0  0  0  0  0  0
  -29.8180  -26.4620   17.3730 C   0  0  0  0  0  2  0  0  0  0  0  0
  -29.9070  -27.7470   18.2130 C   0  0  0  0  0  2  0  0  0  0  0  0
  -29.9640  -27.5260   19.7370 C   0  0  0  0  0  2  0  0  0  0  0  0
  -28.7830  -26.8900   20.2180 O   0  0  0  0  0  0  0  0  0  0  0  0
  -24.7390  -31.8690   23.3720 C   0  0  0  0  0  0  0  0  0  0  0  0
  -27.6220  -27.6290   20.2480 C   0  0  0  0  0  0  0  0  0  0  0  0
  -23.6250  -30.4810   21.6500 C   0  0  0  0  0  3  0  0  0  0  0  0
  -25.1690  -29.0270   20.2340 C   0  0  0  0  0  0  0  0  0  0  0  0
  -26.1400  -30.9270   21.5420 C   0  0  0  0  0  2  0  0  0  0  0  0
  -26.2880  -29.5810   20.8700 C   0  0  0  0  0  0  0  0  0  0  0  0
  -27.5170  -28.8900   20.8790 C   0  0  0  0  0  3  0  0  0  0  0  0
  -26.4830  -27.0720   19.6340 C   0  0  0  0  0  3  0  0  0  0  0  0
  -25.2580  -27.7670   19.6160 C   0  0  0  0  0  3  0  0  0  0  0  0
  -23.8960  -29.8430   20.2600 C   0  0  0  0  0  2  0  0  0  0  0  0
  -24.8500  -31.1060   22.2490 N   0  0  0  0  0  0  0  0  0  0  0  0
  -23.6340  -32.0920   23.8860 O   0  0  0  0  0  0  0  0  0  0  0  0
  -22.9760  -29.4150   22.5610 C   0  0  0  0  0  0  0  0  0  0  0  0
  -21.6730  -29.1690   22.3560 N   0  0  0  0  0  0  0  0  0  0  0  0
  -23.6440  -28.8120   23.4060 O   0  0  0  0  0  0  0  0  0  0  0  0
  -21.1960  -29.7090   21.6480 H   0  0  0  0  0  0  0  0  0  0  0  0
  -18.3430  -27.7990   22.6360 C   0  0  0  0  0  0  0  0  0  0  0  0
  -20.8620  -28.1810   23.0660 C   0  0  0  0  0  3  0  0  0  0  0  0
  -21.0730  -26.7660   22.4790 C   0  0  0  0  0  2  0  0  0  0  0  0
  -20.0500  -26.4010   21.3980 C   0  0  0  0  0  2  0  0  0  0  0  0
  -18.6270  -26.4690   21.9600 C   0  0  0  0  0  2  0  0  0  0  0  0
  -19.3930  -28.6100   23.1410 C   0  0  0  0  0  0  0  0  0  0  0  0
  -19.0750  -29.8550   23.7290 C   0  0  0  0  0  3  0  0  0  0  0  0
  -17.7390  -30.2880   23.8190 C   0  0  0  0  0  3  0  0  0  0  0  0
  -16.7020  -29.4740   23.3320 C   0  0  0  0  0  3  0  0  0  0  0  0
  -17.0040  -28.2320   22.7460 C   0  0  0  0  0  3  0  0  0  0  0  0
  -25.9880  -32.5140   24.0510 C   0  0  0  0  0  3  0  0  0  0  0  0
  -25.6520  -33.9130   24.3510 N   0  0  0  0  0  0  0  0  0  0  0  0
  -26.0360  -34.9600   23.6070 C   0  0  0  0  0  0  0  0  0  0  0  0
  -26.7760  -34.8520   22.6260 O   0  0  0  0  0  0  0  0  0  0  0  0
  -25.0050  -34.0730   25.1080 H   0  0  0  0  0  0  0  0  0  0  0  0
  -24.3540  -36.7590   23.0960 C   0  0  0  0  0  1  0  0  0  0  0  0
  -25.5140  -36.3500   24.0190 C   0  0  0  0  0  3  0  0  0  0  0  0
  -27.5600  -37.2340   25.0500 C   0  0  0  0  0  1  0  0  0  0  0  0
  -26.5580  -37.3980   24.0000 N   0  0  0  0  0  0  0  0  0  0  0  0
  -26.1440  -38.3220   24.0970 H   0  0  0  0  0  0  0  0  0  0  0  0
  -26.4480  -31.7580   25.3570 C   0  0  1  0  0  0  0  0  0  0  0  0
  -25.3050  -31.5170   26.3690 C   0  0  0  0  0  1  0  0  0  0  0  0
  -27.0630  -30.3850   25.0030 C   0  0  0  0  0  1  0  0  0  0  0  0
  -27.5560  -32.5690   26.0680 C   0  0  0  0  0  1  0  0  0  0  0  0
  1  3  2  0
  2  1  1  0
  2  5  1  0
  4  2  1  0
  5  6  1  0
  6  7  1  0
  7  9  1  0
  7 10  1  0
  8  7  1  0
 10 11  1  0
 11 12  1  0
 12 13  1  0
 13 14  1  0
 15 23  1  0
 16 21  1  0
 17 18  1  0
 17 16  1  0
 19 18  1  0
 19 28  1  0
 19 20  1  0
 21 15  1  0
 21 20  1  0
 22 15  2  0
 23 24  1  0
 23 14  1  0
 25 26  2  0
 26 45  1  0
 27 26  1  0
 27 30  1  0
 28 25  1  0
 28 29  1  0
 29 27  2  0
 30 31  1  0
 31 32  2  0
 33 36  1  0
 33 32  1  0
 34 33  2  0
 35 34  1  0
 35 30  2  0
 36 37  1  0
 37 42  2  0
 37 38  1  0
 38 39  2  0
 39 40  1  0
 40 44  1  0
 41 40  2  0
 42 41  1  0
 43 42  1  0
 45 46  1  0
 46 49  1  0
 46 48  1  0
 47 45  2  0
 50 51  1  0
 50 25  1  0
 52 50  1  0
 53  1  1  0
 53 54  1  0
 55 54  1  0
 55 56  1  0
 56 57  1  0
 57 58  1  0
 58 60  1  0
 59 70  2  0
 60 65  1  0
 61 69  1  0
 61 71  1  0
 62 68  1  0
 62 64  1  0
 63 69  1  0
 64 65  2  0
 64 63  1  0
 66 60  2  0
 67 66  1  0
 67 62  2  0
 68 61  1  0
 69 59  1  0
 71 73  2  0
 72 71  1  0
 74 72  1  0
 75 84  2  0
 75 80  1  0
 76 72  1  0
 76 80  1  0
 77 76  1  0
 78 79  1  0
 78 77  1  0
 79 75  1  0
 80 81  2  0
 81 82  1  0
 83 82  2  0
 84 83  1  0
 85 59  1  0
 85 86  1  0
 85 95  1  0
 86 89  1  0
 87 91  1  0
 87 86  1  0
 88 87  2  0
 91 90  1  0
 93 91  1  0
 93 94  1  0
 93 92  1  0
 95 98  1  1
 95 96  1  0
 97 95  1  0
M  ISO  4  15 100  23 100  57 101  58 101
M  END
>  <TORSDO>  (48) 
F 29

>  <SCORE>  (48) 
-9.657

>  <name>  (48) 
48

>  <ligand_id>  (48) 
48

>  <original_smiles>  (48) 
[H]c1c([H])c([H])c2c(c1[H])C([H])([H])C([H])([H])C([H])([H])C2([H])N([H])C(=O)C1([H])N(C(=O)C([H])(N([H])C(=O)C([H])(N([H])C([H])([H])[H])C([H])([H])[H])C(C([H])([H])[H])(C([H])([H])[H])C([H])([H])[H])C([H])([H])c2c([H])c(OC([H])([H])C([H])([H])C([H])([H])OC([H])([H])C(=O)N([H])C([H])([H])C([H])([H])[N+]([H])([H])C([H])([H])C([H])([H])C([H])([H])C([H])([H])C([H])([H])N([H])C(=O)N3C([H])([H])C([H])([H])C([H])([H])C([H])(n4nc(-c5c([H])c([H])c(Oc6c([H])c([H])c(F)c([H])c6F)c([H])c5[H])c(C(=O)N([H])[H])c4N([H])[H])C3([H])[H])c([H])c([H])c2C1([H])[H]

>  <smiles>  (48) 
[H]c1c([H])c([H])c2c(c1[H])C([H])([H])C([H])([H])C([H])([H])C2([H])N([H])C(=O)C1([H])N(C(=O)C([H])(N([H])C(=O)C([H])(N([H])C([H])([H])[H])C([H])([H])[H])C(C([H])([H])[H])(C([H])([H])[H])C([H])([H])[H])C([H])([H])c2c([H])c(OC([H])([H])C([H])([H])C([H])([H])OC([H])([H])C(=O)N([H])C([H])([H])C([H])([H])[N+]([H])([H])C([H])([H])C([H])([H])C([H])([H])C([H])([H])C([H])([H])N([H])C(=O)N3C([H])([H])C([H])([H])C([H])([H])C([H])(n4nc(-c5c([H])c([H])c(Oc6c([H])c([H])c(F)c([H])c6F)c([H])c5[H])c(C(=O)N([H])[H])c4N([H])[H])C3([H])[H])c([H])c([H])c2C1([H])[H]

$$$$
49:0:0
     RDKit          3D

 99102  0  0  1  0  0  0  0  0999 V2000
  -20.5390  -25.2490   22.4470 C   0  0  0  0  0  2  0  0  0  0  0  0
  -21.1350  -26.3570   21.8850 N   0  0  0  0  0  0  0  0  0  0  0  0
  -20.9150  -23.9390   22.4960 N   0  0  0  0  0  0  0  0  0  0  0  0
  -20.5940  -27.1890   22.0800 H   0  0  0  0  0  0  0  0  0  0  0  0
  -21.7580  -23.6820   22.0050 H   0  0  0  0  0  0  0  0  0  0  0  0
  -22.3720  -26.7470   21.0310 C   0  0  0  0  0  1  0  0  0  0  0  0
  -24.0000  -25.2350   19.2750 C   0  0  0  0  0  1  0  0  0  0  0  0
  -25.7690  -24.5320   19.6380 C   0  0  0  0  0  2  0  0  0  0  0  0
  -27.4630  -24.7640   20.4470 C   0  0  0  0  0  2  0  0  0  0  0  0
  -29.1600  -24.6030   20.3360 O   0  0  0  0  0  0  0  0  0  0  0  0
  -32.1190  -25.5570   15.4990 C   0  0  0  0  0  0  0  0  0  0  0  0
  -30.0220  -23.5400   20.5820 C   0  0  0  0  0  3  0  0  0  0  0  0
  -30.0100  -24.4220   15.9070 C   0  0  0  0  0  3  0  0  0  0  0  0
  -29.7820  -22.9770   18.0010 C   0  0  0  0  0  0  0  0  0  0  0  0
  -32.0180  -23.9070   17.3740 C   0  0  0  0  0  2  0  0  0  0  0  0
  -31.0050  -23.5140   18.4290 C   0  0  0  0  0  3  0  0  0  0  0  0
  -31.2040  -23.6910   19.8110 C   0  0  0  0  0  2  0  0  0  0  0  0
  -29.2130  -22.4650   20.3110 C   0  0  0  0  0  2  0  0  0  0  0  0
  -28.9430  -22.3270   18.9390 C   0  0  0  0  0  3  0  0  0  0  0  0
  -29.4840  -23.0970   16.5290 C   0  0  0  0  0  2  0  0  0  0  0  0
  -31.4310  -24.6490   16.2370 N   0  0  0  0  0  0  0  0  0  0  0  0
  -31.6010  -26.1360   14.5310 O   0  0  0  0  0  0  0  0  0  0  0  0
  -29.2220  -25.6890   16.3010 C   0  0  0  0  0  0  0  0  0  0  0  0
  -28.8040  -26.4290   15.3180 N   0  0  0  0  0  0  0  0  0  0  0  0
  -29.0610  -26.0640   17.4580 O   0  0  0  0  0  0  0  0  0  0  0  0
  -29.0260  -26.1380   14.3760 H   0  0  0  0  0  0  0  0  0  0  0  0
  -27.0200  -28.3190   12.6280 C   0  0  0  0  0  0  0  0  0  0  0  0
  -27.8620  -27.5280   15.4370 C   0  0  0  0  0  2  0  0  0  0  0  0
  -25.9660  -27.0940   16.0770 C   0  0  0  0  0 15  0  0  0  0  0  0
  -24.5210  -27.1750   14.5050 C   0  0  0  0  0 15  0  0  0  0  0  0
  -25.2510  -27.8640   12.7880 C   0  0  0  0  0  1  0  0  0  0  0  0
  -28.1120  -28.1820   13.7690 C   0  0  0  0  0  0  0  0  0  0  0  0
  -29.3540  -28.8310   13.5860 C   0  0  0  0  0  3  0  0  0  0  0  0
  -29.6050  -29.6860   12.5020 C   0  0  0  0  0  3  0  0  0  0  0  0
  -28.5930  -29.9600   11.5710 C   0  0  0  0  0  3  0  0  0  0  0  0
  -27.3390  -29.3050   11.6410 C   0  0  0  0  0  3  0  0  0  0  0  0
  -33.5960  -25.8780   15.8300 C   0  0  0  0  0  3  0  0  0  0  0  0
  -34.3080  -25.9170   14.5490 N   0  0  0  0  0  0  0  0  0  0  0  0
  -34.9750  -24.8800   14.0290 C   0  0  0  0  0  0  0  0  0  0  0  0
  -35.1250  -23.8130   14.6300 O   0  0  0  0  0  0  0  0  0  0  0  0
  -34.1790  -26.7420   13.9840 H   0  0  0  0  0  0  0  0  0  0  0  0
  -34.6890  -24.3480   11.5860 C   0  0  0  0  0  1  0  0  0  0  0  0
  -35.5730  -25.0600   12.6220 C   0  0  0  0  0  3  0  0  0  0  0  0
  -37.9210  -25.3910   13.2520 C   0  0  0  0  0  1  0  0  0  0  0  0
  -36.9640  -24.5720   12.5130 N   0  0  0  0  0  0  0  0  0  0  0  0
  -37.2580  -24.5400   11.5410 H   0  0  0  0  0  0  0  0  0  0  0  0
  -33.7660  -27.2330   16.6170 C   0  0  1  0  0  0  0  0  0  0  0  0
  -33.0580  -28.4370   15.9540 C   0  0  0  0  0  1  0  0  0  0  0  0
  -33.2270  -27.1060   18.0630 C   0  0  0  0  0  1  0  0  0  0  0  0
  -35.2710  -27.5600   16.7350 C   0  0  0  0  0  1  0  0  0  0  0  0
  -20.0540  -22.8060   22.9240 C   0  0  0  0  0  2  0  0  0  0  0  0
  -18.5800  -23.2100   23.2400 C   0  0  0  0  0  2  0  0  0  0  0  0
  -17.7350  -23.6080   21.9910 C   0  0  0  0  0  2  0  0  0  0  0  0
  -17.5850  -22.5070   20.9000 C   0  0  0  0  0  2  0  0  0  0  0  0
  -17.7260  -21.0340   21.4020 C   0  0  0  0  0  2  0  0  0  0  0  0
  -16.5020  -20.1240   21.0820 C   0  0  0  0  0  2  0  0  0  0  0  0
  -14.6920  -19.4580   22.7340 C   0  0  0  0  0  0  0  0  0  0  0  0
  -15.3180  -20.3530   21.9410 N   0  0  0  0  0  0  0  0  0  0  0  0
  -15.1620  -18.3420   22.9680 O   0  0  0  0  0  0  0  0  0  0  0  0
  -14.8610  -21.2490   21.8320 H   0  0  0  0  0  0  0  0  0  0  0  0
  -13.3140  -19.8330   23.3290 C   0  0  0  0  0  2  0  0  0  0  0  0
  -12.6230  -20.1650   25.7630 C   0  0  0  0  0  0  0  0  0  0  0  0
  -11.8000  -21.3410   27.7900 C   0  0  0  0  0  2  0  0  0  0  0  0
  -10.9910  -22.5840   27.3590 C   0  0  0  0  0  2  0  0  0  0  0  0
  -11.9120  -23.7920   27.0910 C   0  0  0  0  0  2  0  0  0  0  0  0
  -13.1150  -23.4240   26.1810 C   0  0  0  0  0  3  0  0  0  0  0  0
  -13.8150  -22.1560   26.7150 C   0  0  0  0  0  2  0  0  0  0  0  0
  -12.8140  -21.0750   26.7560 N   0  0  0  0  0  0  0  0  0  0  0  0
  -11.7110  -19.3270   25.7840 O   0  0  0  0  0  0  0  0  0  0  0  0
  -13.4360  -20.3390   24.7020 N   0  0  0  0  0  0  0  0  0  0  0  0
  -14.1800  -21.0090   24.8300 H   0  0  0  0  0  0  0  0  0  0  0  0
  -14.0770  -25.5530   25.1020 C   0  0  0  0  0  0  0  0  0  0  0  0
  -15.1240  -26.3600   25.4560 C   0  0  0  0  0  0  0  0  0  0  0  0
  -15.6920  -25.7770   26.6290 C   0  0  0  0  0  0  0  0  0  0  0  0
  -14.0510  -24.5340   26.0420 N   0  0  0  0  0  0  0  0  0  0  0  0
  -15.0660  -24.6490   26.9330 N   0  0  0  0  0  0  0  0  0  0  0  0
  -16.7580  -26.2560   27.5160 C   0  0  0  0  0  0  0  0  0  0  0  0
  -17.8870  -25.4600   27.8110 C   0  0  0  0  0  3  0  0  0  0  0  0
  -18.9080  -25.9490   28.6530 C   0  0  0  0  0  3  0  0  0  0  0  0
  -18.8070  -27.2480   29.2080 C   0  0  0  0  0  0  0  0  0  0  0  0
  -17.6710  -28.0260   28.9300 C   0  0  0  0  0  3  0  0  0  0  0  0
  -16.6530  -27.5360   28.0950 C   0  0  0  0  0  3  0  0  0  0  0  0
  -19.7370  -27.7970   30.0570 O   0  0  0  0  0  0  0  0  0  0  0  0
  -21.0310  -27.3420   30.1000 C   0  0  0  0  0  0  0  0  0  0  0  0
  -21.8360  -27.2710   28.9410 C   0  0  0  0  0  3  0  0  0  0  0  0
  -23.1810  -26.8630   29.0420 C   0  0  0  0  0  3  0  0  0  0  0  0
  -23.7250  -26.5360   30.2980 C   0  0  0  0  0  0  0  0  0  0  0  0
  -22.9270  -26.6100   31.4530 C   0  0  0  0  0  3  0  0  0  0  0  0
  -21.5850  -27.0150   31.3540 C   0  0  0  0  0  0  0  0  0  0  0  0
  -20.8260  -27.1060   32.4730 F   0  0  0  0  0  0  0  0  0  0  0  0
  -25.0190  -26.1510   30.3960 F   0  0  0  0  0  0  0  0  0  0  0  0
  -15.5200  -27.6530   24.8020 C   0  0  0  0  0  0  0  0  0  0  0  0
  -16.8140  -27.9480   24.7580 N   0  0  0  0  0  0  0  0  0  0  0  0
  -14.6810  -28.3890   24.2820 O   0  0  0  0  0  0  0  0  0  0  0  0
  -17.5040  -27.3360   25.1660 H   0  0  0  0  0  0  0  0  0  0  0  0
  -17.1170  -28.8000   24.3070 H   0  0  0  0  0  0  0  0  0  0  0  0
  -13.1390  -25.6090   24.0760 N   0  0  0  0  0  0  0  0  0  0  0  0
  -13.1080  -26.3770   23.4150 H   0  0  0  0  0  0  0  0  0  0  0  0
  -12.3670  -24.9610   23.9660 H   0  0  0  0  0  0  0  0  0  0  0  0
  1  3  1  0
  2  4  1  0
  2  1  1  0
  3 51  1  0
  5  3  1  0
  6  2  1  0
  7  8  1  0
  8  9  1  0
 10  9  1  0
 11 21  1  0
 12 10  1  0
 13 21  1  0
 13 23  1  0
 13 20  1  0
 14 16  1  0
 14 19  2  0
 16 15  1  0
 16 17  1  0
 17 12  1  0
 18 12  1  0
 19 18  1  0
 20 14  1  0
 21 15  1  0
 22 11  2  0
 23 25  2  0
 24 28  1  0
 24 23  1  0
 26 24  1  0
 27 31  1  0
 27 32  1  0
 32 28  1  0
 33 32  2  0
 34 33  1  0
 35 36  1  0
 35 34  2  0
 36 27  2  0
 37 11  1  0
 37 47  1  0
 38 37  1  0
 39 38  1  0
 39 40  2  0
 41 38  1  0
 43 42  1  0
 43 39  1  0
 45 43  1  0
 45 44  1  0
 46 45  1  0
 47 50  1  1
 47 49  1  0
 48 47  1  0
 51 52  1  0
 53 52  1  0
 54 55  1  0
 54 53  1  0
 56 55  1  0
 56 58  1  0
 57 59  2  0
 57 61  1  0
 58 57  1  0
 60 58  1  0
 61 70  1  0
 62 69  2  0
 62 68  1  0
 64 63  1  0
 65 64  1  0
 66 75  1  0
 66 67  1  0
 66 65  1  0
 67 68  1  0
 68 63  1  0
 70 71  1  0
 70 62  1  0
 72 73  2  0
 72 75  1  0
 73 74  1  0
 74 76  2  0
 74 77  1  0
 75 76  1  0
 77 78  2  0
 77 82  1  0
 78 79  1  0
 79 80  2  0
 80 83  1  0
 81 80  1  0
 82 81  2  0
 83 84  1  0
 84 89  1  0
 85 86  1  0
 85 84  2  0
 86 87  2  0
 87 91  1  0
 87 88  1  0
 89 88  2  0
 89 90  1  0
 92 73  1  0
 93 92  1  0
 93 95  1  0
 94 92  2  0
 96 93  1  0
 97 72  1  0
 98 97  1  0
 99 97  1  0
M  ISO  4   9 101  10 101  62 100  70 100
M  END
>  <TORSDO>  (49) 
F 28

>  <SCORE>  (49) 
21.704

>  <name>  (49) 
49

>  <ligand_id>  (49) 
49

>  <original_smiles>  (49) 
[H]C(N([H])C([H])([H])C([H])([H])C([H])([H])C([H])([H])Oc1c([H])c([H])c2c(c1[H])C([H])([H])N(C(=O)C([H])(N([H])C(=O)C([H])(N([H])C([H])([H])[H])C([H])([H])[H])C(C([H])([H])[H])(C([H])([H])[H])C([H])([H])[H])C([H])(C(=O)N([H])C1([H])c3c([H])c([H])c([H])c([H])c3C([H])([H])C([H])([H])C1([H])[H])C2([H])[H])=[N+]([H])C([H])([H])C([H])([H])C([H])([H])C([H])([H])C([H])([H])C([H])([H])N([H])C(=O)C([H])([H])N([H])C(=O)N1C([H])([H])C([H])([H])C([H])([H])C([H])(n2nc(-c3c([H])c([H])c(Oc4c([H])c([H])c(F)c([H])c4F)c([H])c3[H])c(C(=O)N([H])[H])c2N([H])[H])C1([H])[H]

>  <smiles>  (49) 
[H]C(N([H])C([H])([H])C([H])([H])C([H])([H])C([H])([H])Oc1c([H])c([H])c2c(c1[H])C([H])([H])N(C(=O)C([H])(N([H])C(=O)C([H])(N([H])C([H])([H])[H])C([H])([H])[H])C(C([H])([H])[H])(C([H])([H])[H])C([H])([H])[H])C([H])(C(=O)N([H])C1([H])c3c([H])c([H])c([H])c([H])c3C([H])([H])C([H])([H])C1([H])[H])C2([H])[H])=[N+]([H])C([H])([H])C([H])([H])C([H])([H])C([H])([H])C([H])([H])C([H])([H])N([H])C(=O)C([H])([H])N([H])C(=O)N1C([H])([H])C([H])([H])C([H])([H])C([H])(n2nc(-c3c([H])c([H])c(Oc4c([H])c([H])c(F)c([H])c4F)c([H])c3[H])c(C(=O)N([H])[H])c2N([H])[H])C1([H])[H]

$$$$
50:0:0
     RDKit          3D

 92 99  0  0  1  0  0  0  0  0999 V2000
  -29.3760  -21.7880   20.6670 C   0  0  0  0  0  2  0  0  0  0  0  0
  -28.9710  -22.9550   19.8230 N   0  0  0  0  0  4  0  0  0  0  0  0
  -29.6400  -23.0400   19.0720 H   0  0  0  0  0  0  0  0  0  0  0  0
  -28.0820  -22.7380   19.3990 H   0  0  0  0  0  0  0  0  0  0  0  0
  -28.8520  -24.2800   20.5180 C   0  0  0  0  0  2  0  0  0  0  0  0
  -28.6300  -25.4780   19.5420 C   0  0  0  0  0  2  0  0  0  0  0  0
  -28.4430  -26.7550   20.2050 O   0  0  0  0  0  0  0  0  0  0  0  0
  -24.5950  -31.9290   23.2510 C   0  0  0  0  0  0  0  0  0  0  0  0
  -27.2400  -27.4510   20.1760 C   0  0  0  0  0  0  0  0  0  0  0  0
  -23.3900  -30.5240   21.6130 C   0  0  0  0  0  3  0  0  0  0  0  0
  -24.8420  -28.9830   20.1880 C   0  0  0  0  0  0  0  0  0  0  0  0
  -25.9170  -30.8770   21.4100 C   0  0  0  0  0  2  0  0  0  0  0  0
  -26.0000  -29.5010   20.7760 C   0  0  0  0  0  0  0  0  0  0  0  0
  -27.1960  -28.7420   20.7660 C   0  0  0  0  0  3  0  0  0  0  0  0
  -26.0470  -26.9490   19.6010 C   0  0  0  0  0  3  0  0  0  0  0  0
  -24.8600  -27.7090   19.6000 C   0  0  0  0  0  3  0  0  0  0  0  0
  -23.5980  -29.8460   20.2320 C   0  0  0  0  0  2  0  0  0  0  0  0
  -24.6540  -31.1270   22.1490 N   0  0  0  0  0  0  0  0  0  0  0  0
  -23.5150  -32.1990   23.7910 O   0  0  0  0  0  0  0  0  0  0  0  0
  -22.7400  -29.5040   22.5780 C   0  0  0  0  0  0  0  0  0  0  0  0
  -21.4160  -29.3160   22.4470 N   0  0  0  0  0  0  0  0  0  0  0  0
  -23.4240  -28.8850   23.3970 O   0  0  0  0  0  0  0  0  0  0  0  0
  -20.9250  -29.8710   21.7610 H   0  0  0  0  0  0  0  0  0  0  0  0
  -18.0440  -28.1130   22.9340 C   0  0  0  0  0  0  0  0  0  0  0  0
  -20.6000  -28.3790   23.2180 C   0  0  0  0  0  3  0  0  0  0  0  0
  -20.7070  -26.9460   22.6460 C   0  0  0  0  0  2  0  0  0  0  0  0
  -19.6100  -26.6180   21.6280 C   0  0  0  0  0  2  0  0  0  0  0  0
  -18.2250  -26.7630   22.2640 C   0  0  0  0  0  2  0  0  0  0  0  0
  -19.1590  -28.8800   23.3670 C   0  0  0  0  0  0  0  0  0  0  0  0
  -18.9350  -30.1460   23.9510 C   0  0  0  0  0  3  0  0  0  0  0  0
  -17.6270  -30.6430   24.1100 C   0  0  0  0  0  3  0  0  0  0  0  0
  -16.5270  -29.8730   23.6940 C   0  0  0  0  0  3  0  0  0  0  0  0
  -16.7360  -28.6100   23.1120 C   0  0  0  0  0  3  0  0  0  0  0  0
  -25.8810  -32.5630   23.8700 C   0  0  0  0  0  3  0  0  0  0  0  0
  -25.5710  -33.9610   24.1960 N   0  0  0  0  0  0  0  0  0  0  0  0
  -25.9070  -35.0130   23.4360 C   0  0  0  0  0  0  0  0  0  0  0  0
  -26.5810  -34.9070   22.4070 O   0  0  0  0  0  0  0  0  0  0  0  0
  -24.9790  -34.1190   24.9990 H   0  0  0  0  0  0  0  0  0  0  0  0
  -24.1820  -36.8050   23.0660 C   0  0  0  0  0  1  0  0  0  0  0  0
  -25.4170  -36.4030   23.8880 C   0  0  0  0  0  3  0  0  0  0  0  0
  -27.5450  -37.2830   24.7350 C   0  0  0  0  0  1  0  0  0  0  0  0
  -26.4520  -37.4530   23.7830 N   0  0  0  0  0  0  0  0  0  0  0  0
  -26.0470  -38.3750   23.9270 H   0  0  0  0  0  0  0  0  0  0  0  0
  -26.3990  -31.7930   25.1470 C   0  0  1  0  0  0  0  0  0  0  0  0
  -25.3070  -31.5510   26.2150 C   0  0  0  0  0  1  0  0  0  0  0  0
  -26.9820  -30.4180   24.7510 C   0  0  0  0  0  1  0  0  0  0  0  0
  -27.5490  -32.5880   25.8090 C   0  0  0  0  0  1  0  0  0  0  0  0
  -29.2800  -20.4110   19.9280 C   0  0  0  0  0  2  0  0  0  0  0  0
  -29.6260  -17.9490   20.3780 C   0  0  0  0  0  0  0  0  0  0  0  0
  -29.7000  -19.2490   20.7420 N   0  0  0  0  0  0  0  0  0  0  0  0
  -29.1620  -17.5990   19.2920 O   0  0  0  0  0  0  0  0  0  0  0  0
  -30.0900  -19.4440   21.6550 H   0  0  0  0  0  0  0  0  0  0  0  0
  -31.6150  -17.0840   21.8030 C   0  0  0  0  0  1  0  0  0  0  0  0
  -30.1460  -16.8840   21.3770 C   0  0  0  0  0  3  0  0  0  0  0  0
  -30.4900  -14.5410   20.3480 C   0  0  0  0  0  0  0  0  0  0  0  0
  -30.2070  -12.4180   19.1070 C   0  0  0  0  0  2  0  0  0  0  0  0
  -29.2200  -12.6470   17.9430 C   0  0  0  0  0  2  0  0  0  0  0  0
  -27.7620  -12.4720   18.4140 C   0  0  0  0  0  2  0  0  0  0  0  0
  -27.4560  -13.2480   19.7230 C   0  0  0  0  0  3  0  0  0  0  0  0
  -28.5490  -12.9850   20.7820 C   0  0  0  0  0  2  0  0  0  0  0  0
  -29.8450  -13.3510   20.1870 N   0  0  0  0  0  0  0  0  0  0  0  0
  -31.5790  -14.7730   19.8180 O   0  0  0  0  0  0  0  0  0  0  0  0
  -29.8080  -15.4760   21.0450 N   0  0  0  0  0  0  0  0  0  0  0  0
  -28.9030  -15.1730   21.3680 H   0  0  0  0  0  0  0  0  0  0  0  0
  -25.0640  -13.7930   20.4980 C   0  0  0  0  0  0  0  0  0  0  0  0
  -24.0220  -12.9920   20.8850 C   0  0  0  0  0  0  0  0  0  0  0  0
  -24.5130  -11.6520   20.8270 C   0  0  0  0  0  0  0  0  0  0  0  0
  -26.1220  -12.9370   20.2310 N   0  0  0  0  0  0  0  0  0  0  0  0
  -25.7950  -11.6440   20.4870 N   0  0  0  0  0  0  0  0  0  0  0  0
  -23.8200  -10.3710   21.0210 C   0  0  0  0  0  0  0  0  0  0  0  0
  -24.2810   -9.4160   21.9550 C   0  0  0  0  0  3  0  0  0  0  0  0
  -23.5880   -8.2010   22.1390 C   0  0  0  0  0  3  0  0  0  0  0  0
  -22.4200   -7.9290   21.3870 C   0  0  0  0  0  0  0  0  0  0  0  0
  -21.9780   -8.8730   20.4430 C   0  0  0  0  0  3  0  0  0  0  0  0
  -22.6720  -10.0800   20.2580 C   0  0  0  0  0  3  0  0  0  0  0  0
  -21.6980   -6.7640   21.4750 O   0  0  0  0  0  0  0  0  0  0  0  0
  -21.6610   -6.0270   22.6330 C   0  0  0  0  0  0  0  0  0  0  0  0
  -21.2010   -6.5770   23.8490 C   0  0  0  0  0  3  0  0  0  0  0  0
  -21.1140   -5.7670   24.9990 C   0  0  0  0  0  3  0  0  0  0  0  0
  -21.4760   -4.4080   24.9330 C   0  0  0  0  0  0  0  0  0  0  0  0
  -21.9280   -3.8580   23.7210 C   0  0  0  0  0  3  0  0  0  0  0  0
  -22.0180   -4.6660   22.5740 C   0  0  0  0  0  0  0  0  0  0  0  0
  -22.4350   -4.1260   21.4030 F   0  0  0  0  0  0  0  0  0  0  0  0
  -21.3850   -3.6280   26.0340 F   0  0  0  0  0  0  0  0  0  0  0  0
  -22.6230  -13.4330   21.1990 C   0  0  0  0  0  0  0  0  0  0  0  0
  -21.9350  -12.7110   22.0780 N   0  0  0  0  0  0  0  0  0  0  0  0
  -22.1490  -14.4550   20.7040 O   0  0  0  0  0  0  0  0  0  0  0  0
  -22.3350  -11.8860   22.4990 H   0  0  0  0  0  0  0  0  0  0  0  0
  -20.9990  -12.9890   22.3330 H   0  0  0  0  0  0  0  0  0  0  0  0
  -25.1940  -15.1680   20.3300 N   0  0  0  0  0  0  0  0  0  0  0  0
  -24.4120  -15.8030   20.4490 H   0  0  0  0  0  0  0  0  0  0  0  0
  -26.0180  -15.6220   19.9560 H   0  0  0  0  0  0  0  0  0  0  0  0
  2  5  1  0
  2  1  1  0
  3  2  1  0
  4  2  1  0
  6  7  1  0
  6  5  1  0
  8 19  2  0
  9  7  1  0
  9 14  1  0
 10 18  1  0
 10 20  1  0
 11 17  1  0
 11 13  1  0
 12 18  1  0
 13 12  1  0
 14 13  2  0
 15  9  2  0
 16 15  1  0
 16 11  2  0
 17 10  1  0
 18  8  1  0
 20 22  2  0
 21 20  1  0
 23 21  1  0
 24 33  2  0
 24 29  1  0
 25 21  1  0
 25 29  1  0
 26 25  1  0
 27 28  1  0
 27 26  1  0
 28 24  1  0
 29 30  2  0
 30 31  1  0
 32 31  2  0
 33 32  1  0
 34  8  1  0
 34 35  1  0
 34 44  1  0
 35 38  1  0
 36 40  1  0
 36 35  1  0
 37 36  2  0
 40 39  1  0
 42 40  1  0
 42 43  1  0
 42 41  1  0
 44 47  1  1
 44 45  1  0
 46 44  1  0
 48  1  1  0
 48 50  1  0
 49 50  1  0
 49 54  1  0
 50 52  1  0
 51 49  2  0
 54 53  1  0
 55 63  1  0
 56 61  1  0
 57 58  1  0
 57 56  1  0
 59 58  1  0
 59 68  1  0
 59 60  1  0
 61 55  1  0
 61 60  1  0
 62 55  2  0
 63 64  1  0
 63 54  1  0
 65 66  2  0
 66 85  1  0
 67 66  1  0
 67 70  1  0
 68 69  1  0
 68 65  1  0
 69 67  2  0
 70 71  1  0
 71 72  2  0
 73 76  1  0
 73 72  1  0
 74 73  2  0
 75 74  1  0
 75 70  2  0
 76 77  1  0
 77 78  1  0
 78 79  2  0
 80 79  1  0
 80 84  1  0
 81 80  2  0
 82 77  2  0
 82 81  1  0
 83 82  1  0
 85 86  1  0
 86 89  1  0
 86 88  1  0
 87 85  2  0
 90 91  1  0
 90 65  1  0
 92 90  1  0
M  ISO  4   6 101   7 101  55 100  63 100
M  END
>  <TORSDO>  (50) 
F 22

>  <SCORE>  (50) 
-12.903

>  <name>  (50) 
50

>  <ligand_id>  (50) 
50

>  <original_smiles>  (50) 
[H]c1c([H])c([H])c2c(c1[H])C([H])([H])C([H])([H])C([H])([H])C2([H])N([H])C(=O)C1([H])N(C(=O)C([H])(N([H])C(=O)C([H])(N([H])C([H])([H])[H])C([H])([H])[H])C(C([H])([H])[H])(C([H])([H])[H])C([H])([H])[H])C([H])([H])c2c([H])c(OC([H])([H])C([H])([H])[N+]([H])([H])C([H])([H])C([H])([H])N([H])C(=O)C([H])(N([H])C(=O)N3C([H])([H])C([H])([H])C([H])([H])C([H])(n4nc(-c5c([H])c([H])c(Oc6c([H])c([H])c(F)c([H])c6F)c([H])c5[H])c(C(=O)N([H])[H])c4N([H])[H])C3([H])[H])C([H])([H])[H])c([H])c([H])c2C1([H])[H]

>  <smiles>  (50) 
[H]c1c([H])c([H])c2c(c1[H])C([H])([H])C([H])([H])C([H])([H])C2([H])N([H])C(=O)C1([H])N(C(=O)C([H])(N([H])C(=O)C([H])(N([H])C([H])([H])[H])C([H])([H])[H])C(C([H])([H])[H])(C([H])([H])[H])C([H])([H])[H])C([H])([H])c2c([H])c(OC([H])([H])C([H])([H])[N+]([H])([H])C([H])([H])C([H])([H])N([H])C(=O)C([H])(N([H])C(=O)N3C([H])([H])C([H])([H])C([H])([H])C([H])(n4nc(-c5c([H])c([H])c(Oc6c([H])c([H])c(F)c([H])c6F)c([H])c5[H])c(C(=O)N([H])[H])c4N([H])[H])C3([H])[H])C([H])([H])[H])c([H])c([H])c2C1([H])[H]

$$$$
51:0:0
     RDKit          3D

108115  0  0  1  0  0  0  0  0999 V2000
  -31.7640  -23.9440   12.0760 C   0  0  0  0  0  0  0  0  0  0  0  0
  -30.5410  -23.3990   12.0840 N   0  0  0  0  0  0  0  0  0  0  0  0
  -32.0080  -25.0500   12.5640 O   0  0  0  0  0  0  0  0  0  0  0  0
  -30.4280  -22.5090   11.6140 H   0  0  0  0  0  0  0  0  0  0  0  0
  -29.4080  -23.8710   12.8760 C   0  0  0  0  0  2  0  0  0  0  0  0
  -29.3360  -23.0620   14.1800 C   0  0  0  0  0  2  0  0  0  0  0  0
  -28.6600  -23.8020   15.3470 C   0  0  0  0  0  2  0  0  0  0  0  0
  -28.3040  -22.8580   16.5130 C   0  0  0  0  0  2  0  0  0  0  0  0
  -29.4970  -22.1560   17.0410 N   0  0  0  0  0  4  0  0  0  0  0  0
  -30.0330  -21.8190   16.2580 H   0  0  0  0  0  0  0  0  0  0  0  0
  -30.0630  -22.8130   17.5520 H   0  0  0  0  0  0  0  0  0  0  0  0
  -29.1860  -21.0020   17.9080 C   0  0  0  0  0  2  0  0  0  0  0  0
  -30.4610  -20.2930   18.4140 C   0  0  0  0  0  2  0  0  0  0  0  0
  -30.1380  -18.9290   19.0440 C   0  0  0  0  0  2  0  0  0  0  0  0
  -31.3430  -18.2160   19.6840 C   0  0  0  0  0  2  0  0  0  0  0  0
  -30.9750  -16.7770   20.0730 C   0  0  0  0  0  2  0  0  0  0  0  0
  -32.0200  -16.0450   20.9350 C   0  0  0  0  0  2  0  0  0  0  0  0
  -32.0980  -13.6600   20.2610 C   0  0  0  0  0  0  0  0  0  0  0  0
  -31.3490  -11.8020   18.8310 C   0  0  0  0  0  2  0  0  0  0  0  0
  -30.4520  -12.3670   17.7100 C   0  0  0  0  0  2  0  0  0  0  0  0
  -28.9890  -12.4890   18.1760 C   0  0  0  0  0  2  0  0  0  0  0  0
  -28.8550  -13.1920   19.5550 C   0  0  0  0  0  3  0  0  0  0  0  0
  -29.8430  -12.5790   20.5730 C   0  0  0  0  0  2  0  0  0  0  0  0
  -31.2040  -12.6700   20.0080 N   0  0  0  0  0  0  0  0  0  0  0  0
  -33.1930  -13.7520   19.6980 O   0  0  0  0  0  0  0  0  0  0  0  0
  -31.6320  -14.6390   21.0460 N   0  0  0  0  0  0  0  0  0  0  0  0
  -30.7610  -14.4430   21.5200 H   0  0  0  0  0  0  0  0  0  0  0  0
  -26.6030  -14.1890   20.3070 C   0  0  0  0  0  0  0  0  0  0  0  0
  -25.4190  -13.6050   20.6680 C   0  0  0  0  0  0  0  0  0  0  0  0
  -25.6340  -12.1960   20.5920 C   0  0  0  0  0  0  0  0  0  0  0  0
  -27.4770  -13.1480   20.0420 N   0  0  0  0  0  0  0  0  0  0  0  0
  -26.8950  -11.9420   20.2660 N   0  0  0  0  0  0  0  0  0  0  0  0
  -24.7020  -11.0730   20.7560 C   0  0  0  0  0  0  0  0  0  0  0  0
  -24.9830  -10.0030   21.6340 C   0  0  0  0  0  3  0  0  0  0  0  0
  -24.0630   -8.9450   21.7900 C   0  0  0  0  0  3  0  0  0  0  0  0
  -22.8460   -8.9490   21.0690 C   0  0  0  0  0  0  0  0  0  0  0  0
  -22.5810  -10.0050   20.1810 C   0  0  0  0  0  3  0  0  0  0  0  0
  -23.5010  -11.0560   20.0220 C   0  0  0  0  0  3  0  0  0  0  0  0
  -21.9030   -7.9530   21.1360 O   0  0  0  0  0  0  0  0  0  0  0  0
  -21.7480   -7.1900   22.2650 C   0  0  0  0  0  0  0  0  0  0  0  0
  -21.4710   -7.7680   23.5250 C   0  0  0  0  0  3  0  0  0  0  0  0
  -21.2490   -6.9420   24.6440 C   0  0  0  0  0  3  0  0  0  0  0  0
  -21.2910   -5.5400   24.5070 C   0  0  0  0  0  0  0  0  0  0  0  0
  -21.5580   -4.9650   23.2520 C   0  0  0  0  0  3  0  0  0  0  0  0
  -21.7830   -5.7870   22.1360 C   0  0  0  0  0  0  0  0  0  0  0  0
  -22.0200   -5.2280   20.9250 F   0  0  0  0  0  0  0  0  0  0  0  0
  -21.0690   -4.7460   25.5790 F   0  0  0  0  0  0  0  0  0  0  0  0
  -24.1300  -14.3090   20.9820 C   0  0  0  0  0  0  0  0  0  0  0  0
  -23.3150  -13.7330   21.8560 N   0  0  0  0  0  0  0  0  0  0  0  0
  -23.8600  -15.4030   20.4850 O   0  0  0  0  0  0  0  0  0  0  0  0
  -23.5490  -12.8450   22.2780 H   0  0  0  0  0  0  0  0  0  0  0  0
  -22.4440  -14.1810   22.1070 H   0  0  0  0  0  0  0  0  0  0  0  0
  -27.0020  -15.5140   20.1610 N   0  0  0  0  0  0  0  0  0  0  0  0
  -26.3640  -16.2910   20.2870 H   0  0  0  0  0  0  0  0  0  0  0  0
  -27.9100  -15.7980   19.8160 H   0  0  0  0  0  0  0  0  0  0  0  0
  -32.8940  -23.0850   11.4980 C   0  0  0  0  0  2  0  0  0  0  0  0
  -34.0840  -22.8980   12.4680 C   0  0  0  0  0  2  0  0  0  0  0  0
  -33.7170  -22.2360   13.8110 C   0  0  0  0  0  2  0  0  0  0  0  0
  -34.7970  -22.4350   14.8950 C   0  0  0  0  0  2  0  0  0  0  0  0
  -34.2780  -22.2250   16.3290 C   0  0  0  0  0  2  0  0  0  0  0  0
  -32.8920  -23.9360   17.5390 C   0  0  0  0  0  0  0  0  0  0  0  0
  -33.0890  -23.0430   16.5630 N   0  0  0  0  0  0  0  0  0  0  0  0
  -33.7000  -24.1370   18.4470 O   0  0  0  0  0  0  0  0  0  0  0  0
  -32.3710  -22.9910   15.8560 H   0  0  0  0  0  0  0  0  0  0  0  0
  -31.5740  -24.7090   17.4480 C   0  0  0  0  0  2  0  0  0  0  0  0
  -31.1900  -25.4960   18.7170 C   0  0  0  0  0  2  0  0  0  0  0  0
  -29.7280  -25.9510   18.6630 C   0  0  0  0  0  2  0  0  0  0  0  0
  -29.4280  -26.7820   19.7790 O   0  0  0  0  0  0  0  0  0  0  0  0
  -25.1590  -31.4010   23.0930 C   0  0  0  0  0  0  0  0  0  0  0  0
  -28.1740  -27.3510   19.8200 C   0  0  0  0  0  0  0  0  0  0  0  0
  -24.0690  -29.9570   21.4050 C   0  0  0  0  0  3  0  0  0  0  0  0
  -25.6430  -28.6090   19.9220 C   0  0  0  0  0  0  0  0  0  0  0  0
  -26.5500  -30.5480   21.2130 C   0  0  0  0  0  2  0  0  0  0  0  0
  -26.7510  -29.2140   20.5260 C   0  0  0  0  0  0  0  0  0  0  0  0
  -28.0130  -28.5840   20.4880 C   0  0  0  0  0  3  0  0  0  0  0  0
  -27.0390  -26.7460   19.2260 C   0  0  0  0  0  3  0  0  0  0  0  0
  -25.7800  -27.3690   19.2770 C   0  0  0  0  0  3  0  0  0  0  0  0
  -24.3280  -29.3490   20.0000 C   0  0  0  0  0  2  0  0  0  0  0  0
  -25.2770  -30.6500   21.9630 N   0  0  0  0  0  0  0  0  0  0  0  0
  -24.0620  -31.5550   23.6480 O   0  0  0  0  0  0  0  0  0  0  0  0
  -23.5220  -28.8460   22.3290 C   0  0  0  0  0  0  0  0  0  0  0  0
  -22.2300  -28.5180   22.1670 N   0  0  0  0  0  0  0  0  0  0  0  0
  -24.2570  -28.2830   23.1440 O   0  0  0  0  0  0  0  0  0  0  0  0
  -21.6950  -29.0340   21.4830 H   0  0  0  0  0  0  0  0  0  0  0  0
  -19.0190  -26.9010   22.5140 C   0  0  0  0  0  0  0  0  0  0  0  0
  -21.5080  -27.4790   22.8980 C   0  0  0  0  0  3  0  0  0  0  0  0
  -21.8170  -26.0770   22.3230 C   0  0  0  0  0  2  0  0  0  0  0  0
  -20.8090  -25.6260   21.2610 C   0  0  0  0  0  2  0  0  0  0  0  0
  -19.3940  -25.5900   21.8450 C   0  0  0  0  0  2  0  0  0  0  0  0
  -20.0110  -27.7950   22.9950 C   0  0  0  0  0  0  0  0  0  0  0  0
  -19.6110  -29.0160   23.5780 C   0  0  0  0  0  3  0  0  0  0  0  0
  -18.2470  -29.3480   23.6870 C   0  0  0  0  0  3  0  0  0  0  0  0
  -17.2670  -28.4540   23.2230 C   0  0  0  0  0  3  0  0  0  0  0  0
  -17.6530  -27.2310   22.6440 C   0  0  0  0  0  3  0  0  0  0  0  0
  -26.3890  -32.1200   23.7300 C   0  0  0  0  0  3  0  0  0  0  0  0
  -25.9610  -33.4720   24.1110 N   0  0  0  0  0  0  0  0  0  0  0  0
  -26.1960  -34.5750   23.3880 C   0  0  0  0  0  0  0  0  0  0  0  0
  -26.8670  -34.5680   22.3520 O   0  0  0  0  0  0  0  0  0  0  0  0
  -25.3590  -33.5450   24.9180 H   0  0  0  0  0  0  0  0  0  0  0  0
  -24.3110  -36.2150   23.1000 C   0  0  0  0  0  1  0  0  0  0  0  0
  -25.5880  -35.8970   23.8930 C   0  0  0  0  0  3  0  0  0  0  0  0
  -27.6390  -36.9420   24.7480 C   0  0  0  0  0  1  0  0  0  0  0  0
  -26.5220  -37.0420   23.8130 N   0  0  0  0  0  0  0  0  0  0  0  0
  -26.0350  -37.9170   23.9930 H   0  0  0  0  0  0  0  0  0  0  0  0
  -26.9850  -31.3500   24.9710 C   0  0  1  0  0  0  0  0  0  0  0  0
  -25.9290  -30.9810   26.0390 C   0  0  0  0  0  1  0  0  0  0  0  0
  -27.6800  -30.0440   24.5230 C   0  0  0  0  0  1  0  0  0  0  0  0
  -28.0710  -32.2170   25.6530 C   0  0  0  0  0  1  0  0  0  0  0  0
  1  2  1  0
  1  3  2  0
  2  5  1  0
  4  2  1  0
  5  6  1  0
  6  7  1  0
  7  8  1  0
  8  9  1  0
  9 11  1  0
  9 12  1  0
 10  9  1  0
 12 13  1  0
 13 14  1  0
 14 15  1  0
 15 16  1  0
 16 17  1  0
 17 26  1  0
 18 26  1  0
 19 24  1  0
 20 21  1  0
 20 19  1  0
 22 21  1  0
 22 31  1  0
 22 23  1  0
 24 18  1  0
 24 23  1  0
 25 18  2  0
 26 27  1  0
 28 29  2  0
 29 48  1  0
 30 29  1  0
 30 33  1  0
 31 32  1  0
 31 28  1  0
 32 30  2  0
 33 34  1  0
 34 35  2  0
 36 39  1  0
 36 35  1  0
 37 36  2  0
 38 37  1  0
 38 33  2  0
 39 40  1  0
 40 41  1  0
 41 42  2  0
 43 42  1  0
 43 47  1  0
 44 43  2  0
 45 40  2  0
 45 44  1  0
 46 45  1  0
 48 49  1  0
 49 52  1  0
 49 51  1  0
 50 48  2  0
 53 54  1  0
 53 28  1  0
 55 53  1  0
 56  1  1  0
 56 57  1  0
 57 58  1  0
 58 59  1  0
 59 60  1  0
 60 62  1  0
 61 63  2  0
 62 61  1  0
 64 62  1  0
 65 61  1  0
 65 66  1  0
 67 66  1  0
 67 68  1  0
 68 70  1  0
 69 80  2  0
 70 75  1  0
 71 79  1  0
 71 81  1  0
 72 78  1  0
 72 74  1  0
 73 79  1  0
 74 73  1  0
 75 74  2  0
 76 77  1  0
 76 70  2  0
 77 72  2  0
 78 71  1  0
 79 69  1  0
 81 83  2  0
 82 81  1  0
 84 82  1  0
 85 94  2  0
 85 90  1  0
 86 82  1  0
 86 90  1  0
 87 86  1  0
 88 89  1  0
 88 87  1  0
 89 85  1  0
 90 91  2  0
 91 92  1  0
 93 92  2  0
 94 93  1  0
 95 69  1  0
 95 96  1  0
 95105  1  0
 96 99  1  0
 97101  1  0
 97 96  1  0
 98 97  2  0
101100  1  0
103101  1  0
103104  1  0
103102  1  0
105108  1  1
105106  1  0
107105  1  0
M  ISO  4  18 100  26 100  67 101  68 101
M  END
>  <TORSDO>  (51) 
F 36

>  <SCORE>  (51) 
-6.142

>  <name>  (51) 
51

>  <ligand_id>  (51) 
51

>  <original_smiles>  (51) 
[H]c1c([H])c([H])c2c(c1[H])C([H])([H])C([H])([H])C([H])([H])C2([H])N([H])C(=O)C1([H])N(C(=O)C([H])(N([H])C(=O)C([H])(N([H])C([H])([H])[H])C([H])([H])[H])C(C([H])([H])[H])(C([H])([H])[H])C([H])([H])[H])C([H])([H])c2c([H])c(OC([H])([H])C([H])([H])C([H])([H])C(=O)N([H])C([H])([H])C([H])([H])C([H])([H])C([H])([H])C([H])([H])C(=O)N([H])C([H])([H])C([H])([H])C([H])([H])C([H])([H])[N+]([H])([H])C([H])([H])C([H])([H])C([H])([H])C([H])([H])C([H])([H])C([H])([H])N([H])C(=O)N3C([H])([H])C([H])([H])C([H])([H])C([H])(n4nc(-c5c([H])c([H])c(Oc6c([H])c([H])c(F)c([H])c6F)c([H])c5[H])c(C(=O)N([H])[H])c4N([H])[H])C3([H])[H])c([H])c([H])c2C1([H])[H]

>  <smiles>  (51) 
[H]c1c([H])c([H])c2c(c1[H])C([H])([H])C([H])([H])C([H])([H])C2([H])N([H])C(=O)C1([H])N(C(=O)C([H])(N([H])C(=O)C([H])(N([H])C([H])([H])[H])C([H])([H])[H])C(C([H])([H])[H])(C([H])([H])[H])C([H])([H])[H])C([H])([H])c2c([H])c(OC([H])([H])C([H])([H])C([H])([H])C(=O)N([H])C([H])([H])C([H])([H])C([H])([H])C([H])([H])C([H])([H])C(=O)N([H])C([H])([H])C([H])([H])C([H])([H])C([H])([H])[N+]([H])([H])C([H])([H])C([H])([H])C([H])([H])C([H])([H])C([H])([H])C([H])([H])N([H])C(=O)N3C([H])([H])C([H])([H])C([H])([H])C([H])(n4nc(-c5c([H])c([H])c(Oc6c([H])c([H])c(F)c([H])c6F)c([H])c5[H])c(C(=O)N([H])[H])c4N([H])[H])C3([H])[H])c([H])c([H])c2C1([H])[H]

$$$$
52:0:0
     RDKit          3D

 99106  0  0  1  0  0  0  0  0999 V2000
  -21.1910  -30.2480   22.0420 N   0  0  0  0  0  4  0  0  0  0  0  0
  -20.1930  -30.3640   22.1460 H   0  0  0  0  0  0  0  0  0  0  0  0
  -21.5080  -31.1630   21.7640 H   0  0  0  0  0  0  0  0  0  0  0  0
  -21.7140  -30.1790   23.7280 C   0  0  0  0  0  2  0  0  0  0  0  0
  -23.0060  -29.4050   24.7860 C   0  0  0  0  0  2  0  0  0  0  0  0
  -23.7560  -27.8310   25.0700 C   0  0  0  0  0  2  0  0  0  0  0  0
  -25.4020  -27.1920   24.9540 C   0  0  0  0  0  2  0  0  0  0  0  0
  -26.4590  -26.9440   23.6180 C   0  0  0  0  0  3  0  0  0  0  0  0
  -28.0120  -26.5380   23.2920 C   0  0  0  0  0  3  0  0  0  0  0  0
  -28.6280  -26.6100   21.8690 O   0  0  0  0  0  0  0  0  0  0  0  0
  -24.6940  -31.7090   23.0340 C   0  0  0  0  0  0  0  0  0  0  0  0
  -27.9490  -27.3940   20.9800 C   0  0  0  0  0  0  0  0  0  0  0  0
  -23.9470  -29.9080   21.3160 C   0  0  0  0  0  3  0  0  0  0  0  0
  -25.8380  -28.9010   19.9960 C   0  0  0  0  0  0  0  0  0  0  0  0
  -26.3780  -30.7450   21.5740 C   0  0  0  0  0  2  0  0  0  0  0  0
  -26.7400  -29.4530   20.8970 C   0  0  0  0  0  0  0  0  0  0  0  0
  -27.8790  -28.7570   21.2840 C   0  0  0  0  0  3  0  0  0  0  0  0
  -27.1000  -26.8170   20.0120 C   0  0  0  0  0  3  0  0  0  0  0  0
  -26.0230  -27.5770   19.5200 C   0  0  0  0  0  3  0  0  0  0  0  0
  -24.5630  -29.7390   19.8790 C   0  0  0  0  0  2  0  0  0  0  0  0
  -24.9860  -30.7650   22.0730 N   0  0  0  0  0  0  0  0  0  0  0  0
  -23.5320  -32.0350   23.2810 O   0  0  0  0  0  0  0  0  0  0  0  0
  -23.6610  -28.5400   22.1590 C   0  0  0  0  0  0  0  0  0  0  0  0
  -22.5370  -27.7180   22.5680 N   0  0  0  0  0  0  0  0  0  0  0  0
  -24.5760  -28.2270   22.7250 O   0  0  0  0  0  0  0  0  0  0  0  0
  -23.0200  -27.0020   23.1020 H   0  0  0  0  0  0  0  0  0  0  0  0
  -18.4600  -27.3390   22.1290 C   0  0  0  0  0  0  0  0  0  0  0  0
  -20.9990  -27.3620   22.7010 C   0  0  0  0  0  3  0  0  0  0  0  0
  -20.8640  -25.8700   22.6610 C   0  0  0  0  0  2  0  0  0  0  0  0
  -20.1130  -25.4170   21.3880 C   0  0  0  0  0  2  0  0  0  0  0  0
  -18.6900  -25.9730   21.4540 C   0  0  0  0  0  2  0  0  0  0  0  0
  -19.5180  -28.0750   22.7630 C   0  0  0  0  0  0  0  0  0  0  0  0
  -19.0330  -29.2920   23.3960 C   0  0  0  0  0  3  0  0  0  0  0  0
  -17.7240  -29.7820   23.3080 C   0  0  0  0  0  3  0  0  0  0  0  0
  -16.7450  -29.0400   22.6630 C   0  0  0  0  0  3  0  0  0  0  0  0
  -17.1290  -27.8130   22.0920 C   0  0  0  0  0  3  0  0  0  0  0  0
  -25.7890  -32.4380   23.9060 C   0  0  0  0  0  3  0  0  0  0  0  0
  -25.3330  -33.8110   24.1300 N   0  0  0  0  0  0  0  0  0  0  0  0
  -25.7080  -34.8680   23.4020 C   0  0  0  0  0  0  0  0  0  0  0  0
  -26.5360  -34.7930   22.4910 O   0  0  0  0  0  0  0  0  0  0  0  0
  -24.6410  -33.9530   24.8450 H   0  0  0  0  0  0  0  0  0  0  0  0
  -23.9350  -36.5120   22.7240 C   0  0  0  0  0  1  0  0  0  0  0  0
  -25.0660  -36.2280   23.7300 C   0  0  0  0  0  3  0  0  0  0  0  0
  -26.9880  -37.2790   24.8320 C   0  0  0  0  0  1  0  0  0  0  0  0
  -26.0330  -37.3490   23.7290 N   0  0  0  0  0  0  0  0  0  0  0  0
  -25.5500  -38.2390   23.7920 H   0  0  0  0  0  0  0  0  0  0  0  0
  -26.1520  -31.7900   25.3090 C   0  0  1  0  0  0  0  0  0  0  0  0
  -24.9600  -31.5590   26.2710 C   0  0  0  0  0  1  0  0  0  0  0  0
  -26.9030  -30.4680   25.1000 C   0  0  0  0  0  1  0  0  0  0  0  0
  -27.1390  -32.6980   26.0830 C   0  0  0  0  0  1  0  0  0  0  0  0
  -21.3260  -29.3120   20.5380 C   0  0  0  0  0  2  0  0  0  0  0  0
  -22.3080  -27.7820   19.8270 C   0  0  0  0  0  3  0  0  0  0  0  0
  -23.3320  -26.2260   20.1910 C   0  0  0  0  0  3  0  0  0  0  0  0
  -24.4720  -24.9010   19.5010 C   0  0  0  0  0  2  0  0  0  0  0  0
  -25.7390  -23.6700   20.0460 C   0  0  0  0  0  3  0  0  0  0  0  0
  -26.3440  -22.0520   19.3910 C   0  0  0  0  0  3  0  0  0  0  0  0
  -27.9210  -19.4990   19.3710 C   0  0  0  0  0  0  0  0  0  0  0  0
  -27.5230  -20.8870   19.8170 N   0  0  0  0  0  0  0  0  0  0  0  0
  -27.2240  -19.0990   18.4300 O   0  0  0  0  0  0  0  0  0  0  0  0
  -28.1030  -21.2210   20.5750 H   0  0  0  0  0  0  0  0  0  0  0  0
  -29.2110  -18.3200   19.8070 C   0  0  0  0  0  2  0  0  0  0  0  0
  -30.6250  -15.5960   19.7500 C   0  0  0  0  0  0  0  0  0  0  0  0
  -30.8740  -13.1170   19.0070 C   0  0  0  0  0  2  0  0  0  0  0  0
  -29.9220  -12.8350   17.8110 C   0  0  0  0  0  2  0  0  0  0  0  0
  -28.4750  -12.6330   18.2960 C   0  0  0  0  0  2  0  0  0  0  0  0
  -28.0890  -13.6620   19.3800 C   0  0  0  0  0  3  0  0  0  0  0  0
  -29.1230  -13.6880   20.5030 C   0  0  0  0  0  2  0  0  0  0  0  0
  -30.3080  -14.2230   19.8610 N   0  0  0  0  0  0  0  0  0  0  0  0
  -31.7930  -15.7540   19.3330 O   0  0  0  0  0  0  0  0  0  0  0  0
  -29.6170  -16.6770   19.9930 N   0  0  0  0  0  0  0  0  0  0  0  0
  -28.9460  -16.2580   20.6330 H   0  0  0  0  0  0  0  0  0  0  0  0
  -25.8370  -14.4000   20.2620 C   0  0  0  0  0  0  0  0  0  0  0  0
  -24.7520  -13.7010   20.6840 C   0  0  0  0  0  0  0  0  0  0  0  0
  -25.1130  -12.3170   20.6000 C   0  0  0  0  0  0  0  0  0  0  0  0
  -26.7770  -13.4510   19.9240 N   0  0  0  0  0  0  0  0  0  0  0  0
  -26.3700  -12.1920   20.2030 N   0  0  0  0  0  0  0  0  0  0  0  0
  -24.3180  -11.1080   20.8080 C   0  0  0  0  0  0  0  0  0  0  0  0
  -24.7260  -10.1010   21.7120 C   0  0  0  0  0  3  0  0  0  0  0  0
  -23.9310   -8.9520   21.9070 C   0  0  0  0  0  3  0  0  0  0  0  0
  -22.7150   -8.8050   21.1990 C   0  0  0  0  0  0  0  0  0  0  0  0
  -22.3280   -9.7970   20.2800 C   0  0  0  0  0  3  0  0  0  0  0  0
  -23.1230  -10.9360   20.0840 C   0  0  0  0  0  3  0  0  0  0  0  0
  -21.8910   -7.7120   21.3030 O   0  0  0  0  0  0  0  0  0  0  0  0
  -21.8170   -6.9770   22.4600 C   0  0  0  0  0  0  0  0  0  0  0  0
  -21.4860   -7.5680   23.7000 C   0  0  0  0  0  3  0  0  0  0  0  0
  -21.3520   -6.7640   24.8480 C   0  0  0  0  0  3  0  0  0  0  0  0
  -21.5460   -5.3730   24.7600 C   0  0  0  0  0  0  0  0  0  0  0  0
  -21.8700   -4.7830   23.5260 C   0  0  0  0  0  3  0  0  0  0  0  0
  -22.0040   -5.5830   22.3780 C   0  0  0  0  0  0  0  0  0  0  0  0
  -22.2980   -5.0110   21.1870 F   0  0  0  0  0  0  0  0  0  0  0  0
  -21.4090   -4.5980   25.8610 F   0  0  0  0  0  0  0  0  0  0  0  0
  -23.4120  -14.2700   21.0350 C   0  0  0  0  0  0  0  0  0  0  0  0
  -22.6890  -13.6210   21.9330 N   0  0  0  0  0  0  0  0  0  0  0  0
  -23.0240  -15.3310   20.5390 O   0  0  0  0  0  0  0  0  0  0  0  0
  -23.0280  -12.7660   22.3560 H   0  0  0  0  0  0  0  0  0  0  0  0
  -21.7870  -13.9810   22.2110 H   0  0  0  0  0  0  0  0  0  0  0  0
  -26.0950  -15.7630   20.1020 N   0  0  0  0  0  0  0  0  0  0  0  0
  -25.3540  -16.4340   20.2690 H   0  0  0  0  0  0  0  0  0  0  0  0
  -26.8180  -16.1210   19.4890 H   0  0  0  0  0  0  0  0  0  0  0  0
  1  2  1  0
  1  4  1  0
  3  1  1  0
  4  5  1  0
  5  6  1  0
  7  6  1  0
  8  7  1  0
  9  8  2  0
 10  9  1  0
 11 22  2  0
 12 17  1  0
 12 10  1  0
 13 21  1  0
 13 23  1  0
 14 16  1  0
 15 21  1  0
 16 17  2  0
 16 15  1  0
 18 12  2  0
 19 14  2  0
 19 18  1  0
 20 14  1  0
 20 13  1  0
 21 11  1  0
 23 24  1  0
 23 25  2  0
 24 26  1  0
 27 32  1  0
 28 24  1  0
 28 32  1  0
 29 28  1  0
 30 31  1  0
 30 29  1  0
 31 27  1  0
 32 33  2  0
 34 33  1  0
 35 34  2  0
 36 27  2  0
 36 35  1  0
 37 11  1  0
 37 38  1  0
 37 47  1  0
 38 41  1  0
 39 43  1  0
 39 38  1  0
 40 39  2  0
 43 42  1  0
 45 43  1  0
 45 46  1  0
 45 44  1  0
 47 50  1  1
 47 48  1  0
 49 47  1  0
 51  1  1  0
 52 53  2  0
 52 51  1  0
 54 55  1  0
 54 53  1  0
 56 58  1  0
 56 55  2  0
 57 61  1  0
 57 58  1  0
 58 60  1  0
 59 57  2  0
 61 70  1  0
 62 68  1  0
 62 70  1  0
 63 68  1  0
 64 65  1  0
 64 63  1  0
 66 65  1  0
 66 75  1  0
 66 67  1  0
 68 67  1  0
 69 62  2  0
 70 71  1  0
 72 73  2  0
 73 92  1  0
 74 73  1  0
 74 77  1  0
 75 76  1  0
 75 72  1  0
 76 74  2  0
 77 78  1  0
 78 79  2  0
 80 83  1  0
 80 79  1  0
 81 80  2  0
 82 81  1  0
 82 77  2  0
 83 84  1  0
 84 85  1  0
 85 86  2  0
 87 86  1  0
 87 91  1  0
 88 87  2  0
 89 84  2  0
 89 88  1  0
 90 89  1  0
 92 93  1  0
 93 96  1  0
 93 95  1  0
 94 92  2  0
 97 72  1  0
 97 98  1  0
 99 97  1  0
M  ISO  4   9 101  10 101  62 100  70 100
M  END
>  <TORSDO>  (52) 
F 30

>  <SCORE>  (52) 
-11.793

>  <name>  (52) 
52

>  <ligand_id>  (52) 
52

>  <original_smiles>  (52) 
[H]c1c([H])c([H])c2c(c1[H])C([H])([H])C([H])([H])C([H])([H])C2([H])N([H])C(=O)C1([H])N(C(=O)C([H])(N([H])C(=O)C([H])(N([H])C([H])([H])[H])C([H])([H])[H])C(C([H])([H])[H])(C([H])([H])[H])C([H])([H])[H])C([H])([H])c2c([H])c(OC([H])([H])C([H])([H])C([H])([H])C([H])([H])C([H])([H])C([H])([H])[N+]([H])([H])C([H])([H])C([H])([H])C([H])([H])C([H])([H])C([H])([H])C([H])([H])N([H])C(=O)C([H])([H])N([H])C(=O)N3C([H])([H])C([H])([H])C([H])([H])C([H])(n4nc(-c5c([H])c([H])c(Oc6c([H])c([H])c(F)c([H])c6F)c([H])c5[H])c(C(=O)N([H])[H])c4N([H])[H])C3([H])[H])c([H])c([H])c2C1([H])[H]

>  <smiles>  (52) 
[H]c1c([H])c([H])c2c(c1[H])C([H])([H])C([H])([H])C([H])([H])C2([H])N([H])C(=O)C1([H])N(C(=O)C([H])(N([H])C(=O)C([H])(N([H])C([H])([H])[H])C([H])([H])[H])C(C([H])([H])[H])(C([H])([H])[H])C([H])([H])[H])C([H])([H])c2c([H])c(OC([H])([H])C([H])([H])C([H])([H])C([H])([H])C([H])([H])C([H])([H])[N+]([H])([H])C([H])([H])C([H])([H])C([H])([H])C([H])([H])C([H])([H])C([H])([H])N([H])C(=O)C([H])([H])N([H])C(=O)N3C([H])([H])C([H])([H])C([H])([H])C([H])(n4nc(-c5c([H])c([H])c(Oc6c([H])c([H])c(F)c([H])c6F)c([H])c5[H])c(C(=O)N([H])[H])c4N([H])[H])C3([H])[H])c([H])c([H])c2C1([H])[H]

$$$$
53:0:0
     RDKit          3D

101108  0  0  1  0  0  0  0  0999 V2000
  -27.1940  -23.6950   21.8110 C   0  0  0  0  0  0  0  0  0  0  0  0
  -26.8430  -23.9950   20.5550 N   0  0  0  0  0  0  0  0  0  0  0  0
  -28.0610  -22.8630   22.0800 O   0  0  0  0  0  0  0  0  0  0  0  0
  -26.0220  -24.5590   20.3930 H   0  0  0  0  0  0  0  0  0  0  0  0
  -27.4720  -23.4250   19.3640 C   0  0  0  0  0  2  0  0  0  0  0  0
  -26.8530  -22.0850   18.9570 C   0  0  0  0  0  0  0  0  0  0  0  0
  -27.6000  -21.3120   18.1630 N   0  0  0  0  0  0  0  0  0  0  0  0
  -25.7260  -21.7610   19.3420 O   0  0  0  0  0  0  0  0  0  0  0  0
  -28.4990  -21.6750   17.8770 H   0  0  0  0  0  0  0  0  0  0  0  0
  -27.2560  -19.9700   17.7090 C   0  0  0  0  0  2  0  0  0  0  0  0
  -27.5820  -18.9040   18.7700 C   0  0  0  0  0  2  0  0  0  0  0  0
  -29.0360  -18.9410   19.2690 C   0  0  0  0  0  2  0  0  0  0  0  0
  -29.2930  -17.9130   20.3780 C   0  0  0  0  0  2  0  0  0  0  0  0
  -30.7520  -17.9210   20.8680 C   0  0  0  0  0  2  0  0  0  0  0  0
  -31.0330  -16.9100   21.9970 C   0  0  0  0  0  2  0  0  0  0  0  0
  -31.0530  -14.7940   20.6760 C   0  0  0  0  0  0  0  0  0  0  0  0
  -30.7320  -12.6990   19.4120 C   0  0  0  0  0  2  0  0  0  0  0  0
  -29.8220  -12.9110   18.1890 C   0  0  0  0  0  2  0  0  0  0  0  0
  -28.3380  -12.7700   18.5790 C   0  0  0  0  0  2  0  0  0  0  0  0
  -27.9700  -13.6200   19.8230 C   0  0  0  0  0  3  0  0  0  0  0  0
  -28.9840  -13.3800   20.9630 C   0  0  0  0  0  2  0  0  0  0  0  0
  -30.3420  -13.6590   20.4540 N   0  0  0  0  0  0  0  0  0  0  0  0
  -32.0750  -15.0950   20.0510 O   0  0  0  0  0  0  0  0  0  0  0  0
  -30.5710  -15.5690   21.6520 N   0  0  0  0  0  0  0  0  0  0  0  0
  -29.7610  -15.2200   22.1420 H   0  0  0  0  0  0  0  0  0  0  0  0
  -25.5600  -14.2490   20.4880 C   0  0  0  0  0  0  0  0  0  0  0  0
  -24.4700  -13.4860   20.8080 C   0  0  0  0  0  0  0  0  0  0  0  0
  -24.9110  -12.1290   20.7500 C   0  0  0  0  0  0  0  0  0  0  0  0
  -26.5990  -13.3590   20.2580 N   0  0  0  0  0  0  0  0  0  0  0  0
  -26.2070  -12.0760   20.4690 N   0  0  0  0  0  0  0  0  0  0  0  0
  -24.1620  -10.8730   20.8890 C   0  0  0  0  0  0  0  0  0  0  0  0
  -24.5440   -9.8860   21.8240 C   0  0  0  0  0  3  0  0  0  0  0  0
  -23.7970   -8.6950   21.9510 C   0  0  0  0  0  3  0  0  0  0  0  0
  -22.6550   -8.4840   21.1430 C   0  0  0  0  0  0  0  0  0  0  0  0
  -22.2930   -9.4600   20.1980 C   0  0  0  0  0  3  0  0  0  0  0  0
  -23.0410  -10.6430   20.0680 C   0  0  0  0  0  3  0  0  0  0  0  0
  -21.8840   -7.3460   21.1780 O   0  0  0  0  0  0  0  0  0  0  0  0
  -21.7520   -6.6030   22.3240 C   0  0  0  0  0  0  0  0  0  0  0  0
  -21.2600   -7.1630   23.5230 C   0  0  0  0  0  3  0  0  0  0  0  0
  -21.0740   -6.3460   24.6570 C   0  0  0  0  0  3  0  0  0  0  0  0
  -21.3710   -4.9710   24.5910 C   0  0  0  0  0  0  0  0  0  0  0  0
  -21.8560   -4.4110   23.3960 C   0  0  0  0  0  3  0  0  0  0  0  0
  -22.0430   -5.2250   22.2650 C   0  0  0  0  0  0  0  0  0  0  0  0
  -22.4910   -4.6770   21.1100 F   0  0  0  0  0  0  0  0  0  0  0  0
  -21.1850   -4.1860   25.6770 F   0  0  0  0  0  0  0  0  0  0  0  0
  -23.0750  -13.9780   21.0640 C   0  0  0  0  0  0  0  0  0  0  0  0
  -22.3210  -13.2740   21.9010 N   0  0  0  0  0  0  0  0  0  0  0  0
  -22.6620  -15.0210   20.5590 O   0  0  0  0  0  0  0  0  0  0  0  0
  -22.6670  -12.4300   22.3320 H   0  0  0  0  0  0  0  0  0  0  0  0
  -21.3840  -13.5860   22.1140 H   0  0  0  0  0  0  0  0  0  0  0  0
  -25.7520  -15.6200   20.3580 N   0  0  0  0  0  0  0  0  0  0  0  0
  -24.9980  -16.2870   20.4850 H   0  0  0  0  0  0  0  0  0  0  0  0
  -26.6300  -16.0530   20.1070 H   0  0  0  0  0  0  0  0  0  0  0  0
  -26.5270  -24.4890   22.9320 C   0  0  0  0  0  2  0  0  0  0  0  0
  -26.8560  -25.9340   22.8710 N   0  0  0  0  0  4  0  0  0  0  0  0
  -26.1390  -26.4070   23.4010 H   0  0  0  0  0  0  0  0  0  0  0  0
  -26.7920  -26.2600   21.9190 H   0  0  0  0  0  0  0  0  0  0  0  0
  -28.1610  -26.3480   23.4470 C   0  0  0  0  0  2  0  0  0  0  0  0
  -29.3940  -26.0510   22.5560 C   0  0  0  0  0  2  0  0  0  0  0  0
  -29.5790  -26.9420   21.3120 C   0  0  0  0  0  2  0  0  0  0  0  0
  -28.5550  -26.7230   20.3370 O   0  0  0  0  0  0  0  0  0  0  0  0
  -24.5830  -31.8770   23.2990 C   0  0  0  0  0  0  0  0  0  0  0  0
  -27.4120  -27.4950   20.3400 C   0  0  0  0  0  0  0  0  0  0  0  0
  -23.4480  -30.4430   21.6280 C   0  0  0  0  0  3  0  0  0  0  0  0
  -24.9690  -28.9170   20.2650 C   0  0  0  0  0  0  0  0  0  0  0  0
  -25.9620  -30.8530   21.4980 C   0  0  0  0  0  2  0  0  0  0  0  0
  -26.0890  -29.4760   20.8900 C   0  0  0  0  0  0  0  0  0  0  0  0
  -27.3060  -28.7740   20.9340 C   0  0  0  0  0  3  0  0  0  0  0  0
  -26.2780  -26.9460   19.7050 C   0  0  0  0  0  3  0  0  0  0  0  0
  -25.0550  -27.6450   19.6730 C   0  0  0  0  0  3  0  0  0  0  0  0
  -23.7080  -29.7500   20.2630 C   0  0  0  0  0  2  0  0  0  0  0  0
  -24.6810  -31.0720   22.2040 N   0  0  0  0  0  0  0  0  0  0  0  0
  -23.4830  -32.1360   23.8040 O   0  0  0  0  0  0  0  0  0  0  0  0
  -22.7860  -29.4190   22.5760 C   0  0  0  0  0  0  0  0  0  0  0  0
  -21.4640  -29.2380   22.4280 N   0  0  0  0  0  0  0  0  0  0  0  0
  -23.4620  -28.7870   23.3940 O   0  0  0  0  0  0  0  0  0  0  0  0
  -20.9820  -29.8020   21.7420 H   0  0  0  0  0  0  0  0  0  0  0  0
  -18.0760  -28.0840   22.8920 C   0  0  0  0  0  0  0  0  0  0  0  0
  -20.6350  -28.2990   23.1800 C   0  0  0  0  0  3  0  0  0  0  0  0
  -20.7190  -26.8770   22.5770 C   0  0  0  0  0  2  0  0  0  0  0  0
  -19.6140  -26.5890   21.5550 C   0  0  0  0  0  2  0  0  0  0  0  0
  -18.2340  -26.7420   22.1980 C   0  0  0  0  0  2  0  0  0  0  0  0
  -19.2030  -28.8220   23.3400 C   0  0  0  0  0  0  0  0  0  0  0  0
  -19.0000  -30.0810   23.9480 C   0  0  0  0  0  3  0  0  0  0  0  0
  -17.7020  -30.5990   24.1130 C   0  0  0  0  0  3  0  0  0  0  0  0
  -16.5890  -29.8570   23.6810 C   0  0  0  0  0  3  0  0  0  0  0  0
  -16.7770  -28.6010   23.0780 C   0  0  0  0  0  3  0  0  0  0  0  0
  -25.8440  -32.5230   23.9570 C   0  0  0  0  0  3  0  0  0  0  0  0
  -25.5220  -33.9280   24.2390 N   0  0  0  0  0  0  0  0  0  0  0  0
  -25.8990  -34.9610   23.4740 C   0  0  0  0  0  0  0  0  0  0  0  0
  -26.6240  -34.8330   22.4830 O   0  0  0  0  0  0  0  0  0  0  0  0
  -24.8800  -34.1020   24.9970 H   0  0  0  0  0  0  0  0  0  0  0  0
  -24.2000  -36.7470   22.9800 C   0  0  0  0  0  1  0  0  0  0  0  0
  -25.3900  -36.3590   23.8720 C   0  0  0  0  0  3  0  0  0  0  0  0
  -27.4760  -37.2540   24.8070 C   0  0  0  0  0  1  0  0  0  0  0  0
  -26.4320  -37.4050   23.7980 N   0  0  0  0  0  0  0  0  0  0  0  0
  -26.0210  -38.3290   23.9020 H   0  0  0  0  0  0  0  0  0  0  0  0
  -26.3180  -31.7790   25.2640 C   0  0  1  0  0  0  0  0  0  0  0  0
  -25.1840  -31.5500   26.2890 C   0  0  0  0  0  1  0  0  0  0  0  0
  -26.9290  -30.4010   24.9150 C   0  0  0  0  0  1  0  0  0  0  0  0
  -27.4330  -32.5950   25.9590 C   0  0  0  0  0  1  0  0  0  0  0  0
  1  3  2  0
  1 54  1  0
  2  1  1  0
  4  2  1  0
  5  2  1  0
  6  8  2  0
  6  5  1  0
  7  6  1  0
  9  7  1  0
 10  7  1  0
 10 11  1  0
 11 12  1  0
 12 13  1  0
 13 14  1  0
 14 15  1  0
 16 24  1  0
 17 22  1  0
 18 19  1  0
 18 17  1  0
 20 19  1  0
 20 29  1  0
 20 21  1  0
 22 16  1  0
 22 21  1  0
 23 16  2  0
 24 15  1  0
 24 25  1  0
 26 27  2  0
 27 46  1  0
 28 27  1  0
 28 31  1  0
 29 30  1  0
 29 26  1  0
 30 28  2  0
 31 32  1  0
 32 33  2  0
 34 37  1  0
 34 33  1  0
 35 34  2  0
 36 35  1  0
 36 31  2  0
 37 38  1  0
 38 39  1  0
 39 40  2  0
 41 40  1  0
 41 45  1  0
 42 41  2  0
 43 38  2  0
 43 42  1  0
 44 43  1  0
 46 47  1  0
 47 50  1  0
 47 49  1  0
 48 46  2  0
 51 52  1  0
 51 26  1  0
 53 51  1  0
 55 54  1  0
 55 56  1  0
 55 58  1  0
 57 55  1  0
 59 58  1  0
 60 59  1  0
 61 63  1  0
 61 60  1  0
 62 73  2  0
 63 68  1  0
 64 72  1  0
 64 74  1  0
 65 67  1  0
 66 72  1  0
 67 68  2  0
 67 66  1  0
 69 63  2  0
 70 69  1  0
 70 65  2  0
 71 65  1  0
 71 64  1  0
 72 62  1  0
 74 76  2  0
 75 74  1  0
 77 75  1  0
 78 87  2  0
 78 83  1  0
 79 75  1  0
 79 83  1  0
 80 79  1  0
 81 82  1  0
 81 80  1  0
 82 78  1  0
 83 84  2  0
 84 85  1  0
 86 85  2  0
 87 86  1  0
 88 62  1  0
 88 89  1  0
 88 98  1  0
 89 92  1  0
 90 94  1  0
 90 89  1  0
 91 90  2  0
 94 93  1  0
 96 94  1  0
 96 97  1  0
 96 95  1  0
 98101  1  1
 98 99  1  0
100 98  1  0
M  ISO  4  16 100  24 100  60 101  61 101
M  END
>  <TORSDO>  (53) 
F 29

>  <SCORE>  (53) 
-10.692

>  <name>  (53) 
53

>  <ligand_id>  (53) 
53

>  <original_smiles>  (53) 
[H]c1c([H])c([H])c2c(c1[H])C([H])([H])C([H])([H])C([H])([H])C2([H])N([H])C(=O)C1([H])N(C(=O)C([H])(N([H])C(=O)C([H])(N([H])C([H])([H])[H])C([H])([H])[H])C(C([H])([H])[H])(C([H])([H])[H])C([H])([H])[H])C([H])([H])c2c([H])c(OC([H])([H])C([H])([H])C([H])([H])[N+]([H])([H])C([H])([H])C(=O)N([H])C([H])([H])C(=O)N([H])C([H])([H])C([H])([H])C([H])([H])C([H])([H])C([H])([H])C([H])([H])N([H])C(=O)N3C([H])([H])C([H])([H])C([H])([H])C([H])(n4nc(-c5c([H])c([H])c(Oc6c([H])c([H])c(F)c([H])c6F)c([H])c5[H])c(C(=O)N([H])[H])c4N([H])[H])C3([H])[H])c([H])c([H])c2C1([H])[H]

>  <smiles>  (53) 
[H]c1c([H])c([H])c2c(c1[H])C([H])([H])C([H])([H])C([H])([H])C2([H])N([H])C(=O)C1([H])N(C(=O)C([H])(N([H])C(=O)C([H])(N([H])C([H])([H])[H])C([H])([H])[H])C(C([H])([H])[H])(C([H])([H])[H])C([H])([H])[H])C([H])([H])c2c([H])c(OC([H])([H])C([H])([H])C([H])([H])[N+]([H])([H])C([H])([H])C(=O)N([H])C([H])([H])C(=O)N([H])C([H])([H])C([H])([H])C([H])([H])C([H])([H])C([H])([H])C([H])([H])N([H])C(=O)N3C([H])([H])C([H])([H])C([H])([H])C([H])(n4nc(-c5c([H])c([H])c(Oc6c([H])c([H])c(F)c([H])c6F)c([H])c5[H])c(C(=O)N([H])[H])c4N([H])[H])C3([H])[H])c([H])c([H])c2C1([H])[H]

$$$$
54:0:0
     RDKit          3D

104111  0  0  1  0  0  0  0  0999 V2000
  -31.5220  -27.2190   25.9160 N   0  0  0  0  0  4  0  0  0  0  0  0
  -32.0850  -27.8570   26.4580 H   0  0  0  0  0  0  0  0  0  0  0  0
  -31.6020  -26.3170   26.3570 H   0  0  0  0  0  0  0  0  0  0  0  0
  -30.1120  -27.6750   25.9820 C   0  0  0  0  0  2  0  0  0  0  0  0
  -29.1620  -26.5980   26.5610 C   0  0  0  0  0  2  0  0  0  0  0  0
  -28.8520  -25.4040   25.6240 C   0  0  0  0  0  2  0  0  0  0  0  0
  -27.6100  -25.5670   24.8310 N   0  0  0  0  0  4  0  0  0  0  0  0
  -27.3250  -26.5320   24.7840 H   0  0  0  0  0  0  0  0  0  0  0  0
  -26.8830  -25.0790   25.3290 H   0  0  0  0  0  0  0  0  0  0  0  0
  -27.6690  -25.0180   23.4550 C   0  0  0  0  0  2  0  0  0  0  0  0
  -28.2240  -26.0580   22.4670 C   0  0  0  0  0  2  0  0  0  0  0  0
  -28.2360  -25.5950   20.9910 C   0  0  0  0  0  2  0  0  0  0  0  0
  -28.3730  -26.7210   20.1150 O   0  0  0  0  0  0  0  0  0  0  0  0
  -24.6090  -31.8720   23.2130 C   0  0  0  0  0  0  0  0  0  0  0  0
  -27.2340  -27.4840   20.0590 C   0  0  0  0  0  0  0  0  0  0  0  0
  -23.3970  -30.4930   21.5550 C   0  0  0  0  0  3  0  0  0  0  0  0
  -24.8430  -28.9740   20.1050 C   0  0  0  0  0  0  0  0  0  0  0  0
  -25.9220  -30.8560   21.3560 C   0  0  0  0  0  2  0  0  0  0  0  0
  -26.0040  -29.4990   20.6880 C   0  0  0  0  0  0  0  0  0  0  0  0
  -27.2090  -28.7660   20.6480 C   0  0  0  0  0  3  0  0  0  0  0  0
  -26.0620  -26.9680   19.4690 C   0  0  0  0  0  3  0  0  0  0  0  0
  -24.8670  -27.7120   19.4870 C   0  0  0  0  0  3  0  0  0  0  0  0
  -23.6010  -29.8320   20.1650 C   0  0  0  0  0  2  0  0  0  0  0  0
  -24.6610  -31.0870   22.0990 N   0  0  0  0  0  0  0  0  0  0  0  0
  -23.5300  -32.1400   23.7590 O   0  0  0  0  0  0  0  0  0  0  0  0
  -22.7430  -29.4620   22.5010 C   0  0  0  0  0  0  0  0  0  0  0  0
  -21.4160  -29.3010   22.3790 N   0  0  0  0  0  0  0  0  0  0  0  0
  -23.4240  -28.8130   23.3000 O   0  0  0  0  0  0  0  0  0  0  0  0
  -20.9350  -29.8780   21.7040 H   0  0  0  0  0  0  0  0  0  0  0  0
  -18.0270  -28.1370   22.8470 C   0  0  0  0  0  0  0  0  0  0  0  0
  -20.5860  -28.3640   23.1350 C   0  0  0  0  0  3  0  0  0  0  0  0
  -20.6750  -26.9380   22.5420 C   0  0  0  0  0  2  0  0  0  0  0  0
  -19.5740  -26.6380   21.5190 C   0  0  0  0  0  2  0  0  0  0  0  0
  -18.1920  -26.7910   22.1610 C   0  0  0  0  0  2  0  0  0  0  0  0
  -19.1520  -28.8820   23.2900 C   0  0  0  0  0  0  0  0  0  0  0  0
  -18.9450  -30.1430   23.8900 C   0  0  0  0  0  3  0  0  0  0  0  0
  -17.6450  -30.6580   24.0550 C   0  0  0  0  0  3  0  0  0  0  0  0
  -16.5340  -29.9080   23.6310 C   0  0  0  0  0  3  0  0  0  0  0  0
  -16.7260  -28.6500   23.0310 C   0  0  0  0  0  3  0  0  0  0  0  0
  -25.8990  -32.4850   23.8410 C   0  0  0  0  0  3  0  0  0  0  0  0
  -25.5860  -33.8640   24.2340 N   0  0  0  0  0  0  0  0  0  0  0  0
  -25.9020  -34.9500   23.5150 C   0  0  0  0  0  0  0  0  0  0  0  0
  -26.5590  -34.8940   22.4720 O   0  0  0  0  0  0  0  0  0  0  0  0
  -24.9980  -33.9820   25.0470 H   0  0  0  0  0  0  0  0  0  0  0  0
  -24.1490  -36.7330   23.2650 C   0  0  0  0  0  1  0  0  0  0  0  0
  -25.4110  -36.3140   24.0350 C   0  0  0  0  0  3  0  0  0  0  0  0
  -27.5600  -37.1830   24.8460 C   0  0  0  0  0  1  0  0  0  0  0  0
  -26.4300  -37.3810   23.9420 N   0  0  0  0  0  0  0  0  0  0  0  0
  -26.0200  -38.2900   24.1380 H   0  0  0  0  0  0  0  0  0  0  0  0
  -26.4450  -31.6620   25.0720 C   0  0  1  0  0  0  0  0  0  0  0  0
  -25.3740  -31.3710   26.1500 C   0  0  0  0  0  1  0  0  0  0  0  0
  -27.0270  -30.3080   24.6040 C   0  0  0  0  0  1  0  0  0  0  0  0
  -27.6020  -32.4360   25.7470 C   0  0  0  0  0  1  0  0  0  0  0  0
  -32.0980  -27.1510   24.5540 C   0  0  0  0  0  2  0  0  0  0  0  0
  -33.3620  -26.2690   24.4990 C   0  0  0  0  0  2  0  0  0  0  0  0
  -33.1160  -24.7670   24.7550 C   0  0  0  0  0  2  0  0  0  0  0  0
  -32.3070  -24.0740   23.6440 C   0  0  0  0  0  2  0  0  0  0  0  0
  -32.0700  -22.5820   23.9180 C   0  0  0  0  0  2  0  0  0  0  0  0
  -30.9790  -21.9880   23.0130 C   0  0  0  0  0  2  0  0  0  0  0  0
  -31.2450  -19.6140   22.3250 C   0  0  0  0  0  0  0  0  0  0  0  0
  -30.8720  -20.5460   23.2080 N   0  0  0  0  0  0  0  0  0  0  0  0
  -31.6440  -19.8900   21.1910 O   0  0  0  0  0  0  0  0  0  0  0  0
  -30.5240  -20.2250   24.1020 H   0  0  0  0  0  0  0  0  0  0  0  0
  -31.1640  -18.2800   22.8880 C   0  0  0  0  0  3  0  0  0  0  0  0
  -31.4160  -17.1990   22.1290 C   0  0  0  0  0  3  0  0  0  0  0  0
  -31.4370  -15.7770   22.6540 C   0  0  0  0  0  2  0  0  0  0  0  0
  -30.8130  -14.3100   20.7380 C   0  0  0  0  0  0  0  0  0  0  0  0
  -30.4130  -12.2920   19.3800 C   0  0  0  0  0  2  0  0  0  0  0  0
  -29.4740  -12.5250   18.1850 C   0  0  0  0  0  2  0  0  0  0  0  0
  -28.0030  -12.3780   18.6100 C   0  0  0  0  0  2  0  0  0  0  0  0
  -27.6660  -13.2030   19.8790 C   0  0  0  0  0  3  0  0  0  0  0  0
  -28.7050  -12.9520   20.9940 C   0  0  0  0  0  2  0  0  0  0  0  0
  -30.0520  -13.2240   20.4560 N   0  0  0  0  0  0  0  0  0  0  0  0
  -31.7770  -14.6670   20.0520 O   0  0  0  0  0  0  0  0  0  0  0  0
  -30.5500  -14.8780   21.9210 N   0  0  0  0  0  0  0  0  0  0  0  0
  -29.7590  -14.5040   22.4260 H   0  0  0  0  0  0  0  0  0  0  0  0
  -25.2610  -13.8160   20.5680 C   0  0  0  0  0  0  0  0  0  0  0  0
  -24.1860  -13.0450   20.9180 C   0  0  0  0  0  0  0  0  0  0  0  0
  -24.6400  -11.6910   20.8740 C   0  0  0  0  0  0  0  0  0  0  0  0
  -26.3050  -12.9330   20.3400 N   0  0  0  0  0  0  0  0  0  0  0  0
  -25.9320  -11.6490   20.5770 N   0  0  0  0  0  0  0  0  0  0  0  0
  -23.9070  -10.4300   21.0420 C   0  0  0  0  0  0  0  0  0  0  0  0
  -24.3610   -9.4210   21.9190 C   0  0  0  0  0  3  0  0  0  0  0  0
  -23.6290   -8.2250   22.0760 C   0  0  0  0  0  3  0  0  0  0  0  0
  -22.4270   -8.0280   21.3550 C   0  0  0  0  0  0  0  0  0  0  0  0
  -21.9910   -9.0260   20.4650 C   0  0  0  0  0  3  0  0  0  0  0  0
  -22.7240  -10.2140   20.3060 C   0  0  0  0  0  3  0  0  0  0  0  0
  -21.6640   -6.8880   21.4240 O   0  0  0  0  0  0  0  0  0  0  0  0
  -21.6860   -6.0740   22.5280 C   0  0  0  0  0  0  0  0  0  0  0  0
  -21.4010   -6.5640   23.8210 C   0  0  0  0  0  3  0  0  0  0  0  0
  -21.3660   -5.6790   24.9170 C   0  0  0  0  0  3  0  0  0  0  0  0
  -21.6040   -4.3050   24.7220 C   0  0  0  0  0  0  0  0  0  0  0  0
  -21.8820   -3.8150   23.4340 C   0  0  0  0  0  3  0  0  0  0  0  0
  -21.9190   -4.6970   22.3400 C   0  0  0  0  0  0  0  0  0  0  0  0
  -22.1660   -4.2150   21.0980 F   0  0  0  0  0  0  0  0  0  0  0  0
  -21.5630   -3.4540   25.7740 F   0  0  0  0  0  0  0  0  0  0  0  0
  -22.7870  -13.5250   21.1830 C   0  0  0  0  0  0  0  0  0  0  0  0
  -22.0510  -12.8250   22.0380 N   0  0  0  0  0  0  0  0  0  0  0  0
  -22.3570  -14.5570   20.6680 O   0  0  0  0  0  0  0  0  0  0  0  0
  -22.4100  -11.9900   22.4760 H   0  0  0  0  0  0  0  0  0  0  0  0
  -21.1140  -13.1300   22.2580 H   0  0  0  0  0  0  0  0  0  0  0  0
  -25.4360  -15.1880   20.4100 N   0  0  0  0  0  0  0  0  0  0  0  0
  -24.6780  -15.8500   20.5300 H   0  0  0  0  0  0  0  0  0  0  0  0
  -26.2980  -15.6230   20.1080 H   0  0  0  0  0  0  0  0  0  0  0  0
  1  4  1  0
  1  3  1  0
  1  2  1  0
  4  5  1  0
  6  5  1  0
  7  9  1  0
  7  6  1  0
  8  7  1  0
 10  7  1  0
 11 10  1  0
 12 11  1  0
 13 12  1  0
 14 25  2  0
 15 13  1  0
 15 20  1  0
 16 24  1  0
 16 26  1  0
 17 23  1  0
 17 19  1  0
 18 24  1  0
 19 18  1  0
 20 19  2  0
 21 22  1  0
 21 15  2  0
 22 17  2  0
 23 16  1  0
 24 14  1  0
 26 28  2  0
 27 26  1  0
 29 27  1  0
 30 39  2  0
 30 35  1  0
 31 27  1  0
 31 35  1  0
 32 31  1  0
 33 34  1  0
 33 32  1  0
 34 30  1  0
 35 36  2  0
 36 37  1  0
 38 37  2  0
 39 38  1  0
 40 14  1  0
 40 41  1  0
 40 50  1  0
 41 44  1  0
 42 46  1  0
 42 41  1  0
 43 42  2  0
 46 45  1  0
 48 46  1  0
 48 49  1  0
 48 47  1  0
 50 53  1  1
 50 51  1  0
 52 50  1  0
 54  1  1  0
 55 54  1  0
 55 56  1  0
 57 58  1  0
 57 56  1  0
 59 61  1  0
 59 58  1  0
 60 64  1  0
 60 61  1  0
 61 63  1  0
 62 60  2  0
 65 66  1  0
 65 64  2  0
 67 75  1  0
 68 73  1  0
 69 70  1  0
 69 68  1  0
 71 70  1  0
 71 80  1  0
 71 72  1  0
 73 67  1  0
 73 72  1  0
 74 67  2  0
 75 76  1  0
 75 66  1  0
 77 78  2  0
 78 97  1  0
 79 78  1  0
 79 82  1  0
 80 77  1  0
 80 81  1  0
 81 79  2  0
 82 83  1  0
 83 84  2  0
 85 88  1  0
 85 84  1  0
 86 85  2  0
 87 86  1  0
 87 82  2  0
 88 89  1  0
 89 90  1  0
 90 91  2  0
 92 91  1  0
 92 96  1  0
 93 92  2  0
 94 89  2  0
 94 93  1  0
 95 94  1  0
 97 98  1  0
 98101  1  0
 98100  1  0
 99 97  2  0
102103  1  0
102 77  1  0
104102  1  0
M  ISO  4  12 101  13 101  67 100  75 100
M  END
>  <TORSDO>  (54) 
F 32

>  <SCORE>  (54) 
13.939

>  <name>  (54) 
54

>  <ligand_id>  (54) 
54

>  <original_smiles>  (54) 
[H]C(C(=O)N([H])C([H])([H])C([H])([H])C([H])([H])C([H])([H])C([H])([H])C([H])([H])[N+]([H])([H])C([H])([H])C([H])([H])C([H])([H])[N+]([H])([H])C([H])([H])C([H])([H])C([H])([H])Oc1c([H])c([H])c2c(c1[H])C([H])([H])N(C(=O)C([H])(N([H])C(=O)C([H])(N([H])C([H])([H])[H])C([H])([H])[H])C(C([H])([H])[H])(C([H])([H])[H])C([H])([H])[H])C([H])(C(=O)N([H])C1([H])c3c([H])c([H])c([H])c([H])c3C([H])([H])C([H])([H])C1([H])[H])C2([H])[H])=C([H])C([H])([H])N([H])C(=O)N1C([H])([H])C([H])([H])C([H])([H])C([H])(n2nc(-c3c([H])c([H])c(Oc4c([H])c([H])c(F)c([H])c4F)c([H])c3[H])c(C(=O)N([H])[H])c2N([H])[H])C1([H])[H]

>  <smiles>  (54) 
[H]C(C(=O)N([H])C([H])([H])C([H])([H])C([H])([H])C([H])([H])C([H])([H])C([H])([H])[N+]([H])([H])C([H])([H])C([H])([H])C([H])([H])[N+]([H])([H])C([H])([H])C([H])([H])C([H])([H])Oc1c([H])c([H])c2c(c1[H])C([H])([H])N(C(=O)C([H])(N([H])C(=O)C([H])(N([H])C([H])([H])[H])C([H])([H])[H])C(C([H])([H])[H])(C([H])([H])[H])C([H])([H])[H])C([H])(C(=O)N([H])C1([H])c3c([H])c([H])c([H])c([H])c3C([H])([H])C([H])([H])C1([H])[H])C2([H])[H])=C([H])C([H])([H])N([H])C(=O)N1C([H])([H])C([H])([H])C([H])([H])C([H])(n2nc(-c3c([H])c([H])c(Oc4c([H])c([H])c(F)c([H])c4F)c([H])c3[H])c(C(=O)N([H])[H])c2N([H])[H])C1([H])[H]

$$$$
55:0:0
     RDKit          3D

102109  0  0  1  0  0  0  0  0999 V2000
  -30.2750  -27.8580   16.7800 C   0  0  0  0  0  0  0  0  0  0  0  0
  -30.1870  -26.9070   15.8420 N   0  0  0  0  0  0  0  0  0  0  0  0
  -29.2890  -28.2930   17.3770 O   0  0  0  0  0  0  0  0  0  0  0  0
  -31.0330  -26.6120   15.3710 H   0  0  0  0  0  0  0  0  0  0  0  0
  -28.9450  -26.2340   15.4650 C   0  0  0  0  0  2  0  0  0  0  0  0
  -28.5180  -25.1850   16.5130 C   0  0  0  0  0  2  0  0  0  0  0  0
  -29.4640  -23.9740   16.5690 C   0  0  0  0  0  2  0  0  0  0  0  0
  -29.2110  -23.0540   17.7750 C   0  0  0  0  0  2  0  0  0  0  0  0
  -30.0230  -21.7500   17.6780 C   0  0  0  0  0  2  0  0  0  0  0  0
  -29.9120  -20.8330   18.9100 C   0  0  0  0  0  2  0  0  0  0  0  0
  -30.5550  -19.4590   18.6430 C   0  0  0  0  0  2  0  0  0  0  0  0
  -30.0120  -17.4970   20.0890 C   0  0  0  0  0  0  0  0  0  0  0  0
  -30.6610  -18.6430   19.8520 N   0  0  0  0  0  0  0  0  0  0  0  0
  -29.1610  -17.0360   19.3240 O   0  0  0  0  0  0  0  0  0  0  0  0
  -31.3430  -18.9320   20.5410 H   0  0  0  0  0  0  0  0  0  0  0  0
  -30.3710  -16.7560   21.3860 C   0  0  0  0  0  2  0  0  0  0  0  0
  -30.6770  -14.4210   20.5870 C   0  0  0  0  0  0  0  0  0  0  0  0
  -30.3720  -12.3070   19.3600 C   0  0  0  0  0  2  0  0  0  0  0  0
  -29.4380  -12.5480   18.1590 C   0  0  0  0  0  2  0  0  0  0  0  0
  -27.9590  -12.4160   18.5760 C   0  0  0  0  0  2  0  0  0  0  0  0
  -27.6230  -13.2330   19.8540 C   0  0  0  0  0  3  0  0  0  0  0  0
  -28.6650  -12.9540   20.9630 C   0  0  0  0  0  2  0  0  0  0  0  0
  -30.0000  -13.2570   20.4160 N   0  0  0  0  0  0  0  0  0  0  0  0
  -31.7590  -14.6700   20.0480 O   0  0  0  0  0  0  0  0  0  0  0  0
  -30.0310  -15.3370   21.3170 N   0  0  0  0  0  0  0  0  0  0  0  0
  -29.1350  -15.0640   21.6890 H   0  0  0  0  0  0  0  0  0  0  0  0
  -25.2150  -13.8570   20.5190 C   0  0  0  0  0  0  0  0  0  0  0  0
  -24.1400  -13.0890   20.8850 C   0  0  0  0  0  0  0  0  0  0  0  0
  -24.6000  -11.7360   20.8720 C   0  0  0  0  0  0  0  0  0  0  0  0
  -26.2600  -12.9700   20.3130 N   0  0  0  0  0  0  0  0  0  0  0  0
  -25.8920  -11.6920   20.5790 N   0  0  0  0  0  0  0  0  0  0  0  0
  -23.8670  -10.4770   21.0670 C   0  0  0  0  0  0  0  0  0  0  0  0
  -24.3060   -9.5040   21.9920 C   0  0  0  0  0  3  0  0  0  0  0  0
  -23.5770   -8.3090   22.1750 C   0  0  0  0  0  3  0  0  0  0  0  0
  -22.3970   -8.0780   21.4310 C   0  0  0  0  0  0  0  0  0  0  0  0
  -21.9750   -9.0410   20.4950 C   0  0  0  0  0  3  0  0  0  0  0  0
  -22.7050  -10.2270   20.3120 C   0  0  0  0  0  3  0  0  0  0  0  0
  -21.6400   -6.9360   21.5210 O   0  0  0  0  0  0  0  0  0  0  0  0
  -21.6200   -6.1750   22.6600 C   0  0  0  0  0  0  0  0  0  0  0  0
  -21.2530   -6.7170   23.9130 C   0  0  0  0  0  3  0  0  0  0  0  0
  -21.1780   -5.8820   25.0460 C   0  0  0  0  0  3  0  0  0  0  0  0
  -21.4620   -4.5070   24.9300 C   0  0  0  0  0  0  0  0  0  0  0  0
  -21.8210   -3.9670   23.6830 C   0  0  0  0  0  3  0  0  0  0  0  0
  -21.8970   -4.7980   22.5510 C   0  0  0  0  0  0  0  0  0  0  0  0
  -22.2230   -4.2670   21.3490 F   0  0  0  0  0  0  0  0  0  0  0  0
  -21.3820   -3.7040   26.0150 F   0  0  0  0  0  0  0  0  0  0  0  0
  -22.7420  -13.5710   21.1410 C   0  0  0  0  0  0  0  0  0  0  0  0
  -22.0050  -12.8850   22.0080 N   0  0  0  0  0  0  0  0  0  0  0  0
  -22.3100  -14.5910   20.6060 O   0  0  0  0  0  0  0  0  0  0  0  0
  -22.3650  -12.0560   22.4580 H   0  0  0  0  0  0  0  0  0  0  0  0
  -21.0670  -13.1940   22.2190 H   0  0  0  0  0  0  0  0  0  0  0  0
  -25.3880  -15.2250   20.3270 N   0  0  0  0  0  0  0  0  0  0  0  0
  -24.6260  -15.8870   20.4080 H   0  0  0  0  0  0  0  0  0  0  0  0
  -26.2460  -15.6530   19.9970 H   0  0  0  0  0  0  0  0  0  0  0  0
  -31.6590  -28.3990   17.1510 C   0  0  0  0  0  2  0  0  0  0  0  0
  -32.1010  -28.1090   18.6110 C   0  0  0  0  0  2  0  0  0  0  0  0
  -30.9880  -28.1050   19.5940 N   0  0  0  0  0  4  0  0  0  0  0  0
  -30.1390  -28.2960   19.0690 H   0  0  0  0  0  0  0  0  0  0  0  0
  -31.1210  -28.8570   20.2540 H   0  0  0  0  0  0  0  0  0  0  0  0
  -30.8010  -26.8200   20.3070 C   0  0  0  0  0  2  0  0  0  0  0  0
  -29.4520  -26.7640   21.0350 C   0  0  0  0  0  2  0  0  0  0  0  0
  -28.4280  -26.6350   20.0470 O   0  0  0  0  0  0  0  0  0  0  0  0
  -24.6570  -31.8270   23.2020 C   0  0  0  0  0  0  0  0  0  0  0  0
  -27.2890  -27.4050   20.1270 C   0  0  0  0  0  0  0  0  0  0  0  0
  -23.4310  -30.4260   21.5670 C   0  0  0  0  0  3  0  0  0  0  0  0
  -24.8740  -28.8790   20.1420 C   0  0  0  0  0  0  0  0  0  0  0  0
  -25.9480  -30.7930   21.3440 C   0  0  0  0  0  2  0  0  0  0  0  0
  -26.0300  -29.4170   20.7200 C   0  0  0  0  0  0  0  0  0  0  0  0
  -27.2380  -28.6930   20.7110 C   0  0  0  0  0  3  0  0  0  0  0  0
  -26.1190  -26.8790   19.5410 C   0  0  0  0  0  3  0  0  0  0  0  0
  -24.9120  -27.6030   19.5490 C   0  0  0  0  0  3  0  0  0  0  0  0
  -23.6290  -29.7330   20.1890 C   0  0  0  0  0  2  0  0  0  0  0  0
  -24.6980  -31.0290   22.0970 N   0  0  0  0  0  0  0  0  0  0  0  0
  -23.5820  -32.1050   23.7500 O   0  0  0  0  0  0  0  0  0  0  0  0
  -22.7830  -29.4130   22.5350 C   0  0  0  0  0  0  0  0  0  0  0  0
  -21.4570  -29.2410   22.4190 N   0  0  0  0  0  0  0  0  0  0  0  0
  -23.4700  -28.7800   23.3430 O   0  0  0  0  0  0  0  0  0  0  0  0
  -20.9650  -29.8040   21.7380 H   0  0  0  0  0  0  0  0  0  0  0  0
  -18.0770  -28.0840   22.9420 C   0  0  0  0  0  0  0  0  0  0  0  0
  -20.6380  -28.3110   23.1960 C   0  0  0  0  0  3  0  0  0  0  0  0
  -20.7210  -26.8810   22.6170 C   0  0  0  0  0  2  0  0  0  0  0  0
  -19.6070  -26.5720   21.6100 C   0  0  0  0  0  2  0  0  0  0  0  0
  -18.2320  -26.7330   22.2640 C   0  0  0  0  0  2  0  0  0  0  0  0
  -19.2060  -28.8320   23.3650 C   0  0  0  0  0  0  0  0  0  0  0  0
  -19.0080  -30.0990   23.9550 C   0  0  0  0  0  3  0  0  0  0  0  0
  -17.7110  -30.6170   24.1290 C   0  0  0  0  0  3  0  0  0  0  0  0
  -16.5940  -29.8650   23.7240 C   0  0  0  0  0  3  0  0  0  0  0  0
  -16.7780  -28.6010   23.1370 C   0  0  0  0  0  3  0  0  0  0  0  0
  -25.9530  -32.4490   23.8110 C   0  0  0  0  0  3  0  0  0  0  0  0
  -25.6510  -33.8420   24.1630 N   0  0  0  0  0  0  0  0  0  0  0  0
  -25.9780  -34.9020   23.4110 C   0  0  0  0  0  0  0  0  0  0  0  0
  -26.6360  -34.8100   22.3720 O   0  0  0  0  0  0  0  0  0  0  0  0
  -25.0690  -33.9870   24.9740 H   0  0  0  0  0  0  0  0  0  0  0  0
  -24.2470  -36.6970   23.0950 C   0  0  0  0  0  1  0  0  0  0  0  0
  -25.4960  -36.2850   23.8900 C   0  0  0  0  0  3  0  0  0  0  0  0
  -27.6420  -37.1560   24.7040 C   0  0  0  0  0  1  0  0  0  0  0  0
  -26.5280  -37.3380   23.7770 N   0  0  0  0  0  0  0  0  0  0  0  0
  -26.1250  -38.2570   23.9430 H   0  0  0  0  0  0  0  0  0  0  0  0
  -26.4920  -31.6580   25.0650 C   0  0  1  0  0  0  0  0  0  0  0  0
  -25.4180  -31.4060   26.1490 C   0  0  0  0  0  1  0  0  0  0  0  0
  -27.0660  -30.2860   24.6370 C   0  0  0  0  0  1  0  0  0  0  0  0
  -27.6550  -32.4400   25.7190 C   0  0  0  0  0  1  0  0  0  0  0  0
  1 55  1  0
  1  3  2  0
  2  1  1  0
  4  2  1  0
  5  2  1  0
  5  6  1  0
  6  7  1  0
  7  8  1  0
  9  8  1  0
  9 10  1  0
 11 10  1  0
 11 13  1  0
 12 16  1  0
 13 12  1  0
 13 15  1  0
 14 12  2  0
 17 25  1  0
 18 23  1  0
 19 20  1  0
 19 18  1  0
 21 20  1  0
 21 30  1  0
 21 22  1  0
 23 17  1  0
 23 22  1  0
 24 17  2  0
 25 16  1  0
 25 26  1  0
 27 28  2  0
 28 47  1  0
 29 28  1  0
 29 32  1  0
 30 27  1  0
 30 31  1  0
 31 29  2  0
 32 33  1  0
 33 34  2  0
 35 38  1  0
 35 34  1  0
 36 35  2  0
 37 36  1  0
 37 32  2  0
 38 39  1  0
 39 40  1  0
 40 41  2  0
 42 41  1  0
 42 46  1  0
 43 42  2  0
 44 39  2  0
 44 43  1  0
 45 44  1  0
 47 48  1  0
 48 51  1  0
 48 50  1  0
 49 47  2  0
 52 53  1  0
 52 27  1  0
 54 52  1  0
 55 56  1  0
 56 57  1  0
 57 59  1  0
 57 60  1  0
 58 57  1  0
 60 61  1  0
 62 64  1  0
 62 61  1  0
 63 74  2  0
 64 69  1  0
 65 73  1  0
 65 75  1  0
 66 72  1  0
 66 68  1  0
 67 73  1  0
 68 67  1  0
 69 68  2  0
 70 71  1  0
 70 64  2  0
 71 66  2  0
 72 65  1  0
 73 63  1  0
 75 77  2  0
 76 75  1  0
 78 76  1  0
 79 88  2  0
 79 84  1  0
 80 76  1  0
 80 84  1  0
 81 80  1  0
 82 83  1  0
 82 81  1  0
 83 79  1  0
 84 85  2  0
 85 86  1  0
 87 86  2  0
 88 87  1  0
 89 63  1  0
 89 90  1  0
 89 99  1  0
 90 93  1  0
 91 95  1  0
 91 90  1  0
 92 91  2  0
 95 94  1  0
 97 95  1  0
 97 98  1  0
 97 96  1  0
 99102  1  1
 99100  1  0
101 99  1  0
M  ISO  4  17 100  25 100  61 101  62 101
M  END
>  <TORSDO>  (55) 
F 30

>  <SCORE>  (55) 
-10.942

>  <name>  (55) 
55

>  <ligand_id>  (55) 
55

>  <original_smiles>  (55) 
[H]c1c([H])c([H])c2c(c1[H])C([H])([H])C([H])([H])C([H])([H])C2([H])N([H])C(=O)C1([H])N(C(=O)C([H])(N([H])C(=O)C([H])(N([H])C([H])([H])[H])C([H])([H])[H])C(C([H])([H])[H])(C([H])([H])[H])C([H])([H])[H])C([H])([H])c2c([H])c(OC([H])([H])C([H])([H])[N+]([H])([H])C([H])([H])C([H])([H])C(=O)N([H])C([H])([H])C([H])([H])C([H])([H])C([H])([H])C([H])([H])C([H])([H])C([H])([H])N([H])C(=O)C([H])([H])N([H])C(=O)N3C([H])([H])C([H])([H])C([H])([H])C([H])(n4nc(-c5c([H])c([H])c(Oc6c([H])c([H])c(F)c([H])c6F)c([H])c5[H])c(C(=O)N([H])[H])c4N([H])[H])C3([H])[H])c([H])c([H])c2C1([H])[H]

>  <smiles>  (55) 
[H]c1c([H])c([H])c2c(c1[H])C([H])([H])C([H])([H])C([H])([H])C2([H])N([H])C(=O)C1([H])N(C(=O)C([H])(N([H])C(=O)C([H])(N([H])C([H])([H])[H])C([H])([H])[H])C(C([H])([H])[H])(C([H])([H])[H])C([H])([H])[H])C([H])([H])c2c([H])c(OC([H])([H])C([H])([H])[N+]([H])([H])C([H])([H])C([H])([H])C(=O)N([H])C([H])([H])C([H])([H])C([H])([H])C([H])([H])C([H])([H])C([H])([H])C([H])([H])N([H])C(=O)C([H])([H])N([H])C(=O)N3C([H])([H])C([H])([H])C([H])([H])C([H])(n4nc(-c5c([H])c([H])c(Oc6c([H])c([H])c(F)c([H])c6F)c([H])c5[H])c(C(=O)N([H])[H])c4N([H])[H])C3([H])[H])c([H])c([H])c2C1([H])[H]

$$$$
56:0:0
     RDKit          3D

101109  0  0  1  0  0  0  0  0999 V2000
  -34.7960  -22.9330   21.0140 N   0  0  0  0  0  4  0  0  0  0  0  0
  -33.8910  -22.8620   21.4490 H   0  0  0  0  0  0  0  0  0  0  0  0
  -35.3680  -22.1970   21.3980 H   0  0  0  0  0  0  0  0  0  0  0  0
  -34.7140  -22.6840   19.5560 C   0  0  0  0  0  2  0  0  0  0  0  0
  -34.7520  -21.1820   19.2140 C   0  0  0  0  0  2  0  0  0  0  0  0
  -33.4010  -20.4340   19.2460 C   0  0  0  0  0  2  0  0  0  0  0  0
  -33.4940  -19.1190   18.4400 C   0  0  0  0  0  2  0  0  0  0  0  0
  -32.1760  -18.3450   18.2830 C   0  0  0  0  0  2  0  0  0  0  0  0
  -30.6880  -16.8790   19.5940 C   0  0  0  0  0  0  0  0  0  0  0  0
  -31.7520  -17.6900   19.5180 N   0  0  0  0  0  0  0  0  0  0  0  0
  -29.9860  -16.6250   18.6140 O   0  0  0  0  0  0  0  0  0  0  0  0
  -32.3020  -17.8380   20.3520 H   0  0  0  0  0  0  0  0  0  0  0  0
  -31.2450  -13.9860   20.2110 C   0  0  0  0  0  0  0  0  0  0  0  0
  -30.7010  -11.9090   18.9990 C   0  0  0  0  0  2  0  0  0  0  0  0
  -29.7660  -12.1960   17.8100 C   0  0  0  0  0  2  0  0  0  0  0  0
  -28.2960  -12.1510   18.2650 C   0  0  0  0  0  2  0  0  0  0  0  0
  -28.0410  -13.0370   19.5120 C   0  0  0  0  0  3  0  0  0  0  0  0
  -29.0830  -12.7460   20.6150 C   0  0  0  0  0  2  0  0  0  0  0  0
  -30.4340  -12.9090   20.0430 N   0  0  0  0  0  0  0  0  0  0  0  0
  -32.2650  -14.1790   19.5430 O   0  0  0  0  0  0  0  0  0  0  0  0
  -30.7400  -15.9390   23.2920 C   0  0  0  0  0  2  0  0  0  0  0  0
  -30.7200  -17.0120   22.2100 C   0  0  0  0  0  2  0  0  0  0  0  0
  -31.2610  -14.6920   22.5690 C   0  0  0  0  0  2  0  0  0  0  0  0
  -30.3490  -16.2170   20.9470 C   0  0  0  0  0  3  0  0  0  0  0  0
  -30.8720  -14.8600   21.1680 N   0  0  0  0  0  0  0  0  0  0  0  0
  -25.7270  -13.8540   20.3000 C   0  0  0  0  0  0  0  0  0  0  0  0
  -24.5960  -13.1770   20.6740 C   0  0  0  0  0  0  0  0  0  0  0  0
  -24.9220  -11.7890   20.5860 C   0  0  0  0  0  0  0  0  0  0  0  0
  -26.6750  -12.8840   20.0120 N   0  0  0  0  0  0  0  0  0  0  0  0
  -26.1930  -11.6350   20.2380 N   0  0  0  0  0  0  0  0  0  0  0  0
  -24.0820  -10.5960   20.7570 C   0  0  0  0  0  0  0  0  0  0  0  0
  -24.4500   -9.5540   21.6370 C   0  0  0  0  0  3  0  0  0  0  0  0
  -23.6160   -8.4270   21.8000 C   0  0  0  0  0  3  0  0  0  0  0  0
  -22.4000   -8.3330   21.0820 C   0  0  0  0  0  0  0  0  0  0  0  0
  -22.0500   -9.3640   20.1910 C   0  0  0  0  0  3  0  0  0  0  0  0
  -22.8820  -10.4830   20.0260 C   0  0  0  0  0  3  0  0  0  0  0  0
  -21.5420   -7.2620   21.1530 O   0  0  0  0  0  0  0  0  0  0  0  0
  -21.4730   -6.4700   22.2720 C   0  0  0  0  0  0  0  0  0  0  0  0
  -21.1610   -7.0000   23.5420 C   0  0  0  0  0  3  0  0  0  0  0  0
  -21.0290   -6.1420   24.6520 C   0  0  0  0  0  3  0  0  0  0  0  0
  -21.2010   -4.7540   24.4910 C   0  0  0  0  0  0  0  0  0  0  0  0
  -21.5100   -4.2220   23.2280 C   0  0  0  0  0  3  0  0  0  0  0  0
  -21.6420   -5.0790   22.1200 C   0  0  0  0  0  0  0  0  0  0  0  0
  -21.9170   -4.5600   20.8990 F   0  0  0  0  0  0  0  0  0  0  0  0
  -21.0680   -3.9270   25.5560 F   0  0  0  0  0  0  0  0  0  0  0  0
  -23.2580  -13.7790   20.9980 C   0  0  0  0  0  0  0  0  0  0  0  0
  -22.5030  -13.1500   21.8920 N   0  0  0  0  0  0  0  0  0  0  0  0
  -22.8960  -14.8410   20.4950 O   0  0  0  0  0  0  0  0  0  0  0  0
  -22.8110  -12.2960   22.3290 H   0  0  0  0  0  0  0  0  0  0  0  0
  -21.6040  -13.5360   22.1480 H   0  0  0  0  0  0  0  0  0  0  0  0
  -26.0190  -15.2070   20.1630 N   0  0  0  0  0  0  0  0  0  0  0  0
  -25.3140  -15.9230   20.3030 H   0  0  0  0  0  0  0  0  0  0  0  0
  -26.8990  -15.5740   19.8230 H   0  0  0  0  0  0  0  0  0  0  0  0
  -35.4570  -24.1980   21.4090 C   0  0  0  0  0  2  0  0  0  0  0  0
  -34.5070  -25.4080   21.5060 C   0  0  0  0  0  2  0  0  0  0  0  0
  -33.7120  -25.7430   20.2320 C   0  0  0  0  0  2  0  0  0  0  0  0
  -32.3300  -25.0770   20.1700 C   0  0  0  0  0  2  0  0  0  0  0  0
  -31.3200  -25.9370   19.4060 C   0  0  0  0  0  2  0  0  0  0  0  0
  -29.9990  -25.1940   19.1700 C   0  0  0  0  0  2  0  0  0  0  0  0
  -28.7780  -26.0660   19.4580 C   0  0  0  0  0  2  0  0  0  0  0  0
  -28.8130  -27.2970   18.7380 O   0  0  0  0  0  0  0  0  0  0  0  0
  -25.2270  -31.2730   23.3750 C   0  0  0  0  0  0  0  0  0  0  0  0
  -27.6800  -28.0220   18.9760 C   0  0  0  0  0  0  0  0  0  0  0  0
  -23.9250  -30.4140   21.4540 C   0  0  0  0  0  3  0  0  0  0  0  0
  -25.2950  -29.4020   19.5560 C   0  0  0  0  0  0  0  0  0  0  0  0
  -26.4330  -30.8600   21.2370 C   0  0  0  0  0  2  0  0  0  0  0  0
  -26.4820  -29.7480   20.2140 C   0  0  0  0  0  0  0  0  0  0  0  0
  -27.6820  -29.0670   19.9240 C   0  0  0  0  0  3  0  0  0  0  0  0
  -26.4840  -27.6890   18.3100 C   0  0  0  0  0  3  0  0  0  0  0  0
  -25.2890  -28.3730   18.5970 C   0  0  0  0  0  3  0  0  0  0  0  0
  -24.0550  -30.1840   19.9240 C   0  0  0  0  0  2  0  0  0  0  0  0
  -25.2160  -30.8450   22.0810 N   0  0  0  0  0  0  0  0  0  0  0  0
  -24.1800  -31.3560   24.0300 O   0  0  0  0  0  0  0  0  0  0  0  0
  -23.3280  -29.1410   22.0960 C   0  0  0  0  0  0  0  0  0  0  0  0
  -22.0000  -28.9800   21.9810 N   0  0  0  0  0  0  0  0  0  0  0  0
  -24.0540  -28.3140   22.6550 O   0  0  0  0  0  0  0  0  0  0  0  0
  -21.4720  -29.7110   21.5220 H   0  0  0  0  0  0  0  0  0  0  0  0
  -18.6650  -27.6140   22.2100 C   0  0  0  0  0  0  0  0  0  0  0  0
  -21.2260  -27.8430   22.4760 C   0  0  0  0  0  3  0  0  0  0  0  0
  -21.3290  -26.6370   21.5140 C   0  0  0  0  0  2  0  0  0  0  0  0
  -20.2010  -26.5900   20.4800 C   0  0  0  0  0  2  0  0  0  0  0  0
  -18.8390  -26.5140   21.1750 C   0  0  0  0  0  2  0  0  0  0  0  0
  -19.7860  -28.2480   22.8090 C   0  0  0  0  0  0  0  0  0  0  0  0
  -19.5680  -29.2880   23.7390 C   0  0  0  0  0  3  0  0  0  0  0  0
  -18.2620  -29.6920   24.0730 C   0  0  0  0  0  3  0  0  0  0  0  0
  -17.1560  -29.0500   23.4880 C   0  0  0  0  0  3  0  0  0  0  0  0
  -17.3590  -28.0120   22.5620 C   0  0  0  0  0  3  0  0  0  0  0  0
  -26.5510  -31.7030   24.0820 C   0  0  0  0  0  3  0  0  0  0  0  0
  -26.2790  -32.9530   24.8030 N   0  0  0  0  0  0  0  0  0  0  0  0
  -26.6130  -34.1730   24.3580 C   0  0  0  0  0  0  0  0  0  0  0  0
  -27.2530  -34.3570   23.3210 O   0  0  0  0  0  0  0  0  0  0  0  0
  -25.7030  -32.8830   25.6290 H   0  0  0  0  0  0  0  0  0  0  0  0
  -24.9100  -36.0120   24.5720 C   0  0  0  0  0  1  0  0  0  0  0  0
  -26.1620  -35.3800   25.2020 C   0  0  0  0  0  3  0  0  0  0  0  0
  -28.3330  -35.9710   26.1900 C   0  0  0  0  0  1  0  0  0  0  0  0
  -27.2130  -36.4100   25.3620 N   0  0  0  0  0  0  0  0  0  0  0  0
  -26.8260  -37.2560   25.7710 H   0  0  0  0  0  0  0  0  0  0  0  0
  -27.1190  -30.6040   25.0630 C   0  0  1  0  0  0  0  0  0  0  0  0
  -26.0770  -30.0890   26.0840 C   0  0  0  0  0  1  0  0  0  0  0  0
  -27.6550  -29.3870   24.2710 C   0  0  0  0  0  1  0  0  0  0  0  0
  -28.3220  -31.1760   25.8510 C   0  0  0  0  0  1  0  0  0  0  0  0
  1  3  1  0
  1 54  1  0
  1  2  1  0
  4  1  1  0
  5  6  1  0
  5  4  1  0
  7  6  1  0
  8  7  1  0
  8 10  1  0
 10  9  1  0
 10 12  1  0
 11  9  2  0
 13 25  1  0
 14 19  1  0
 15 16  1  0
 15 14  1  0
 17 16  1  0
 17 29  1  0
 17 18  1  0
 19 13  1  0
 19 18  1  0
 20 13  2  0
 22 21  1  0
 23 21  1  0
 24  9  1  0
 24 25  1  0
 24 22  1  0
 25 23  1  0
 26 27  2  0
 27 46  1  0
 28 27  1  0
 28 31  1  0
 29 30  1  0
 29 26  1  0
 30 28  2  0
 31 32  1  0
 32 33  2  0
 34 37  1  0
 34 33  1  0
 35 34  2  0
 36 35  1  0
 36 31  2  0
 37 38  1  0
 38 39  1  0
 39 40  2  0
 41 40  1  0
 41 45  1  0
 42 41  2  0
 43 38  2  0
 43 42  1  0
 44 43  1  0
 46 47  1  0
 47 50  1  0
 47 49  1  0
 48 46  2  0
 51 26  1  0
 51 52  1  0
 53 51  1  0
 54 55  1  0
 56 55  1  0
 57 56  1  0
 58 57  1  0
 59 58  1  0
 59 60  1  0
 61 63  1  0
 61 60  1  0
 62 73  2  0
 63 68  1  0
 64 72  1  0
 64 74  1  0
 65 71  1  0
 65 67  1  0
 66 72  1  0
 67 66  1  0
 68 67  2  0
 69 70  1  0
 69 63  2  0
 70 65  2  0
 71 64  1  0
 72 62  1  0
 74 76  2  0
 75 74  1  0
 77 75  1  0
 78 87  2  0
 78 83  1  0
 79 75  1  0
 79 83  1  0
 80 79  1  0
 81 82  1  0
 81 80  1  0
 82 78  1  0
 83 84  2  0
 84 85  1  0
 86 85  2  0
 87 86  1  0
 88 62  1  0
 88 89  1  0
 88 98  1  0
 89 92  1  0
 90 89  1  0
 90 94  1  0
 91 90  2  0
 94 93  1  0
 94 96  1  0
 96 97  1  0
 96 95  1  0
 98101  1  1
 98 99  1  0
100 98  1  0
M  ISO  4  13 100  25 100  60 101  61 101
M  END
>  <TORSDO>  (56) 
F 29

>  <SCORE>  (56) 
-3.953

>  <name>  (56) 
56

>  <ligand_id>  (56) 
56

>  <original_smiles>  (56) 
[H]c1c([H])c([H])c2c(c1[H])C([H])([H])C([H])([H])C([H])([H])C2([H])N([H])C(=O)C1([H])N(C(=O)C([H])(N([H])C(=O)C([H])(N([H])C([H])([H])[H])C([H])([H])[H])C(C([H])([H])[H])(C([H])([H])[H])C([H])([H])[H])C([H])([H])c2c([H])c(OC([H])([H])C([H])([H])C([H])([H])C([H])([H])C([H])([H])C([H])([H])C([H])([H])[N+]([H])([H])C([H])([H])C([H])([H])C([H])([H])C([H])([H])C([H])([H])N([H])C(=O)C3([H])N(C(=O)N4C([H])([H])C([H])([H])C([H])([H])C([H])(n5nc(-c6c([H])c([H])c(Oc7c([H])c([H])c(F)c([H])c7F)c([H])c6[H])c(C(=O)N([H])[H])c5N([H])[H])C4([H])[H])C([H])([H])C([H])([H])C3([H])[H])c([H])c([H])c2C1([H])[H]

>  <smiles>  (56) 
[H]c1c([H])c([H])c2c(c1[H])C([H])([H])C([H])([H])C([H])([H])C2([H])N([H])C(=O)C1([H])N(C(=O)C([H])(N([H])C(=O)C([H])(N([H])C([H])([H])[H])C([H])([H])[H])C(C([H])([H])[H])(C([H])([H])[H])C([H])([H])[H])C([H])([H])c2c([H])c(OC([H])([H])C([H])([H])C([H])([H])C([H])([H])C([H])([H])C([H])([H])C([H])([H])[N+]([H])([H])C([H])([H])C([H])([H])C([H])([H])C([H])([H])C([H])([H])N([H])C(=O)C3([H])N(C(=O)N4C([H])([H])C([H])([H])C([H])([H])C([H])(n5nc(-c6c([H])c([H])c(Oc7c([H])c([H])c(F)c([H])c7F)c([H])c6[H])c(C(=O)N([H])[H])c5N([H])[H])C4([H])[H])C([H])([H])C([H])([H])C3([H])[H])c([H])c([H])c2C1([H])[H]

$$$$
57:0:0
     RDKit          3D

102109  0  0  1  0  0  0  0  0999 V2000
  -35.3260  -23.1930   21.3380 C   0  0  0  0  0  2  0  0  0  0  0  0
  -36.0380  -22.0080   22.0150 C   0  0  0  0  0  2  0  0  0  0  0  0
  -36.2680  -20.7930   21.0880 C   0  0  0  0  0  2  0  0  0  0  0  0
  -35.0130  -20.2830   20.3500 C   0  0  0  0  0  2  0  0  0  0  0  0
  -33.9430  -19.8860   21.2890 N   0  0  0  0  0  4  0  0  0  0  0  0
  -34.0410  -20.4410   22.1230 H   0  0  0  0  0  0  0  0  0  0  0  0
  -34.0710  -18.9200   21.5450 H   0  0  0  0  0  0  0  0  0  0  0  0
  -32.5710  -20.0810   20.7720 C   0  0  0  0  0  2  0  0  0  0  0  0
  -31.5030  -19.7880   21.8420 C   0  0  0  0  0  2  0  0  0  0  0  0
  -31.0040  -17.3610   21.7930 C   0  0  0  0  0  0  0  0  0  0  0  0
  -31.5910  -18.4230   22.3560 N   0  0  0  0  0  0  0  0  0  0  0  0
  -30.3340  -17.4460   20.7620 O   0  0  0  0  0  0  0  0  0  0  0  0
  -32.0660  -18.2790   23.2380 H   0  0  0  0  0  0  0  0  0  0  0  0
  -31.2030  -16.0200   22.5060 C   0  0  0  0  0  2  0  0  0  0  0  0
  -30.8000  -14.3100   20.7360 C   0  0  0  0  0  0  0  0  0  0  0  0
  -30.4140  -12.2880   19.3770 C   0  0  0  0  0  2  0  0  0  0  0  0
  -29.4760  -12.5350   18.1830 C   0  0  0  0  0  2  0  0  0  0  0  0
  -28.0040  -12.3820   18.6050 C   0  0  0  0  0  2  0  0  0  0  0  0
  -27.6660  -13.2010   19.8760 C   0  0  0  0  0  3  0  0  0  0  0  0
  -28.7020  -12.9350   20.9890 C   0  0  0  0  0  2  0  0  0  0  0  0
  -30.0510  -13.2150   20.4570 N   0  0  0  0  0  0  0  0  0  0  0  0
  -31.7810  -14.6570   20.0690 O   0  0  0  0  0  0  0  0  0  0  0  0
  -30.4780  -14.9150   21.8840 N   0  0  0  0  0  0  0  0  0  0  0  0
  -29.6750  -14.5570   22.3770 H   0  0  0  0  0  0  0  0  0  0  0  0
  -25.2610  -13.8150   20.5670 C   0  0  0  0  0  0  0  0  0  0  0  0
  -24.1840  -13.0440   20.9150 C   0  0  0  0  0  0  0  0  0  0  0  0
  -24.6390  -11.6900   20.8720 C   0  0  0  0  0  0  0  0  0  0  0  0
  -26.3040  -12.9320   20.3360 N   0  0  0  0  0  0  0  0  0  0  0  0
  -25.9310  -11.6480   20.5740 N   0  0  0  0  0  0  0  0  0  0  0  0
  -23.9050  -10.4290   21.0400 C   0  0  0  0  0  0  0  0  0  0  0  0
  -24.3610   -9.4210   21.9180 C   0  0  0  0  0  3  0  0  0  0  0  0
  -23.6290   -8.2250   22.0760 C   0  0  0  0  0  3  0  0  0  0  0  0
  -22.4270   -8.0280   21.3540 C   0  0  0  0  0  0  0  0  0  0  0  0
  -21.9900   -9.0250   20.4650 C   0  0  0  0  0  3  0  0  0  0  0  0
  -22.7230  -10.2130   20.3050 C   0  0  0  0  0  3  0  0  0  0  0  0
  -21.6640   -6.8880   21.4240 O   0  0  0  0  0  0  0  0  0  0  0  0
  -21.6850   -6.0730   22.5280 C   0  0  0  0  0  0  0  0  0  0  0  0
  -21.4010   -6.5640   23.8210 C   0  0  0  0  0  3  0  0  0  0  0  0
  -21.3660   -5.6790   24.9170 C   0  0  0  0  0  3  0  0  0  0  0  0
  -21.6040   -4.3060   24.7220 C   0  0  0  0  0  0  0  0  0  0  0  0
  -21.8820   -3.8150   23.4350 C   0  0  0  0  0  3  0  0  0  0  0  0
  -21.9190   -4.6960   22.3400 C   0  0  0  0  0  0  0  0  0  0  0  0
  -22.1660   -4.2150   21.0980 F   0  0  0  0  0  0  0  0  0  0  0  0
  -21.5630   -3.4540   25.7740 F   0  0  0  0  0  0  0  0  0  0  0  0
  -22.7870  -13.5250   21.1830 C   0  0  0  0  0  0  0  0  0  0  0  0
  -22.0510  -12.8240   22.0400 N   0  0  0  0  0  0  0  0  0  0  0  0
  -22.3560  -14.5560   20.6690 O   0  0  0  0  0  0  0  0  0  0  0  0
  -22.4110  -11.9890   22.4770 H   0  0  0  0  0  0  0  0  0  0  0  0
  -21.1130  -13.1280   22.2610 H   0  0  0  0  0  0  0  0  0  0  0  0
  -25.4350  -15.1870   20.4090 N   0  0  0  0  0  0  0  0  0  0  0  0
  -24.6750  -15.8490   20.5220 H   0  0  0  0  0  0  0  0  0  0  0  0
  -26.3000  -15.6240   20.1140 H   0  0  0  0  0  0  0  0  0  0  0  0
  -35.1300  -24.3990   22.2700 C   0  0  0  0  0  2  0  0  0  0  0  0
  -34.1780  -25.4320   21.6480 C   0  0  0  0  0  2  0  0  0  0  0  0
  -33.9070  -26.6500   22.5500 C   0  0  0  0  0  2  0  0  0  0  0  0
  -32.8010  -27.5590   21.9850 C   0  0  0  0  0  2  0  0  0  0  0  0
  -31.4750  -26.9150   22.0930 N   0  0  0  0  0  4  0  0  0  0  0  0
  -31.1090  -27.0830   23.0190 H   0  0  0  0  0  0  0  0  0  0  0  0
  -31.6140  -25.9210   22.0030 H   0  0  0  0  0  0  0  0  0  0  0  0
  -30.4930  -27.3380   21.0670 C   0  0  0  0  0  2  0  0  0  0  0  0
  -29.1610  -26.5830   21.2140 C   0  0  0  0  0  2  0  0  0  0  0  0
  -28.3840  -26.7090   20.0270 O   0  0  0  0  0  0  0  0  0  0  0  0
  -24.6100  -31.8720   23.2130 C   0  0  0  0  0  0  0  0  0  0  0  0
  -27.2470  -27.4770   20.0970 C   0  0  0  0  0  0  0  0  0  0  0  0
  -23.3980  -30.4950   21.5500 C   0  0  0  0  0  3  0  0  0  0  0  0
  -24.8510  -28.9640   20.1170 C   0  0  0  0  0  0  0  0  0  0  0  0
  -25.9210  -30.8510   21.3620 C   0  0  0  0  0  2  0  0  0  0  0  0
  -26.0030  -29.4840   20.7200 C   0  0  0  0  0  0  0  0  0  0  0  0
  -27.2050  -28.7450   20.7180 C   0  0  0  0  0  3  0  0  0  0  0  0
  -26.0850  -26.9690   19.4830 C   0  0  0  0  0  3  0  0  0  0  0  0
  -24.8820  -27.7010   19.5000 C   0  0  0  0  0  3  0  0  0  0  0  0
  -23.6090  -29.8240   20.1650 C   0  0  0  0  0  2  0  0  0  0  0  0
  -24.6610  -31.0860   22.1020 N   0  0  0  0  0  0  0  0  0  0  0  0
  -23.5300  -32.1440   23.7560 O   0  0  0  0  0  0  0  0  0  0  0  0
  -22.7400  -29.4680   22.4980 C   0  0  0  0  0  0  0  0  0  0  0  0
  -21.4130  -29.3040   22.3720 N   0  0  0  0  0  0  0  0  0  0  0  0
  -23.4180  -28.8220   23.3020 O   0  0  0  0  0  0  0  0  0  0  0  0
  -20.9280  -29.8730   21.6920 H   0  0  0  0  0  0  0  0  0  0  0  0
  -18.0280  -28.1400   22.8490 C   0  0  0  0  0  0  0  0  0  0  0  0
  -20.5870  -28.3670   23.1330 C   0  0  0  0  0  3  0  0  0  0  0  0
  -20.6780  -26.9410   22.5420 C   0  0  0  0  0  2  0  0  0  0  0  0
  -19.5760  -26.6400   21.5220 C   0  0  0  0  0  2  0  0  0  0  0  0
  -18.1930  -26.7950   22.1620 C   0  0  0  0  0  2  0  0  0  0  0  0
  -19.1520  -28.8850   23.2910 C   0  0  0  0  0  0  0  0  0  0  0  0
  -18.9460  -30.1460   23.8920 C   0  0  0  0  0  3  0  0  0  0  0  0
  -17.6460  -30.6600   24.0570 C   0  0  0  0  0  3  0  0  0  0  0  0
  -16.5350  -29.9110   23.6330 C   0  0  0  0  0  3  0  0  0  0  0  0
  -16.7270  -28.6520   23.0330 C   0  0  0  0  0  3  0  0  0  0  0  0
  -25.9010  -32.4850   23.8420 C   0  0  0  0  0  3  0  0  0  0  0  0
  -26.4460  -31.6610   25.0720 C   0  0  1  0  0  0  0  0  0  0  0  0
  -25.3740  -31.3710   26.1470 C   0  0  0  0  0  1  0  0  0  0  0  0
  -27.0290  -30.3070   24.6060 C   0  0  0  0  0  1  0  0  0  0  0  0
  -27.6050  -32.4330   25.7460 C   0  0  0  0  0  1  0  0  0  0  0  0
  -25.5880  -33.8640   24.2350 N   0  0  0  0  0  0  0  0  0  0  0  0
  -25.9020  -34.9490   23.5150 C   0  0  0  0  0  0  0  0  0  0  0  0
  -26.5580  -34.8930   22.4700 O   0  0  0  0  0  0  0  0  0  0  0  0
  -25.0030  -33.9820   25.0500 H   0  0  0  0  0  0  0  0  0  0  0  0
  -24.1490  -36.7320   23.2640 C   0  0  0  0  0  1  0  0  0  0  0  0
  -25.4110  -36.3130   24.0350 C   0  0  0  0  0  3  0  0  0  0  0  0
  -27.5590  -37.1810   24.8470 C   0  0  0  0  0  1  0  0  0  0  0  0
  -26.4310  -37.3810   23.9410 N   0  0  0  0  0  0  0  0  0  0  0  0
  -26.0200  -38.2890   24.1410 H   0  0  0  0  0  0  0  0  0  0  0  0
  1  2  1  0
  1 53  1  0
  3  2  1  0
  4  3  1  0
  4  5  1  0
  5  7  1  0
  5  6  1  0
  8  5  1  0
  8  9  1  0
  9 11  1  0
 10 11  1  0
 10 14  1  0
 11 13  1  0
 12 10  2  0
 15 23  1  0
 16 21  1  0
 17 18  1  0
 17 16  1  0
 19 18  1  0
 19 28  1  0
 19 20  1  0
 21 15  1  0
 21 20  1  0
 22 15  2  0
 23 24  1  0
 23 14  1  0
 25 26  2  0
 26 45  1  0
 27 26  1  0
 27 30  1  0
 28 25  1  0
 28 29  1  0
 29 27  2  0
 30 31  1  0
 31 32  2  0
 33 36  1  0
 33 32  1  0
 34 33  2  0
 35 34  1  0
 35 30  2  0
 36 37  1  0
 37 38  1  0
 38 39  2  0
 40 39  1  0
 40 44  1  0
 41 40  2  0
 42 37  2  0
 42 41  1  0
 43 42  1  0
 45 46  1  0
 46 49  1  0
 46 48  1  0
 47 45  2  0
 50 51  1  0
 50 25  1  0
 52 50  1  0
 54 53  1  0
 54 55  1  0
 56 57  1  0
 56 55  1  0
 57 58  1  0
 59 57  1  0
 60 61  1  0
 60 57  1  0
 62 64  1  0
 62 61  1  0
 63 74  2  0
 64 69  1  0
 65 73  1  0
 65 75  1  0
 66 72  1  0
 66 68  1  0
 67 73  1  0
 68 67  1  0
 69 68  2  0
 70 71  1  0
 70 64  2  0
 71 66  2  0
 72 65  1  0
 73 63  1  0
 75 77  2  0
 76 75  1  0
 78 76  1  0
 79 88  2  0
 79 84  1  0
 80 76  1  0
 80 84  1  0
 81 80  1  0
 82 83  1  0
 82 81  1  0
 83 79  1  0
 84 85  2  0
 85 86  1  0
 87 86  2  0
 88 87  1  0
 89 63  1  0
 89 94  1  0
 89 90  1  0
 90 93  1  1
 90 91  1  0
 92 90  1  0
 94 97  1  0
 95 99  1  0
 95 94  1  0
 96 95  2  0
 99 98  1  0
101 99  1  0
101102  1  0
101100  1  0
M  ISO  4  15 100  23 100  61 101  62 101
M  END
>  <TORSDO>  (57) 
F 31

>  <SCORE>  (57) 
-6.480

>  <name>  (57) 
57

>  <ligand_id>  (57) 
57

>  <original_smiles>  (57) 
[H]c1c([H])c([H])c2c(c1[H])C([H])([H])C([H])([H])C([H])([H])C2([H])N([H])C(=O)C1([H])N(C(=O)C([H])(N([H])C(=O)C([H])(N([H])C([H])([H])[H])C([H])([H])[H])C(C([H])([H])[H])(C([H])([H])[H])C([H])([H])[H])C([H])([H])c2c([H])c(OC([H])([H])C([H])([H])[N+]([H])([H])C([H])([H])C([H])([H])C([H])([H])C([H])([H])C([H])([H])C([H])([H])C([H])([H])C([H])([H])[N+]([H])([H])C([H])([H])C([H])([H])N([H])C(=O)C([H])([H])N([H])C(=O)N3C([H])([H])C([H])([H])C([H])([H])C([H])(n4nc(-c5c([H])c([H])c(Oc6c([H])c([H])c(F)c([H])c6F)c([H])c5[H])c(C(=O)N([H])[H])c4N([H])[H])C3([H])[H])c([H])c([H])c2C1([H])[H]

>  <smiles>  (57) 
[H]c1c([H])c([H])c2c(c1[H])C([H])([H])C([H])([H])C([H])([H])C2([H])N([H])C(=O)C1([H])N(C(=O)C([H])(N([H])C(=O)C([H])(N([H])C([H])([H])[H])C([H])([H])[H])C(C([H])([H])[H])(C([H])([H])[H])C([H])([H])[H])C([H])([H])c2c([H])c(OC([H])([H])C([H])([H])[N+]([H])([H])C([H])([H])C([H])([H])C([H])([H])C([H])([H])C([H])([H])C([H])([H])C([H])([H])C([H])([H])[N+]([H])([H])C([H])([H])C([H])([H])N([H])C(=O)C([H])([H])N([H])C(=O)N3C([H])([H])C([H])([H])C([H])([H])C([H])(n4nc(-c5c([H])c([H])c(Oc6c([H])c([H])c(F)c([H])c6F)c([H])c5[H])c(C(=O)N([H])[H])c4N([H])[H])C3([H])[H])c([H])c([H])c2C1([H])[H]

$$$$
58:0:0
     RDKit          3D

101108  0  0  1  0  0  0  0  0999 V2000
  -25.6300  -22.3370   20.6600 C   0  0  0  0  0  2  0  0  0  0  0  0
  -27.1150  -21.9610   20.4680 C   0  0  0  0  0  2  0  0  0  0  0  0
  -27.3680  -21.1640   19.1750 C   0  0  0  0  0  2  0  0  0  0  0  0
  -28.7350  -20.6060   19.1100 N   0  0  0  0  0  4  0  0  0  0  0  0
  -28.8920  -20.0390   19.9290 H   0  0  0  0  0  0  0  0  0  0  0  0
  -29.4120  -21.3530   19.1130 H   0  0  0  0  0  0  0  0  0  0  0  0
  -28.9590  -19.7440   17.9270 C   0  0  0  0  0  2  0  0  0  0  0  0
  -30.3040  -18.9840   17.9610 C   0  0  0  0  0  2  0  0  0  0  0  0
  -29.9520  -17.5600   19.9740 C   0  0  0  0  0  0  0  0  0  0  0  0
  -30.6710  -18.4390   19.2700 N   0  0  0  0  0  0  0  0  0  0  0  0
  -28.8120  -17.2280   19.6470 O   0  0  0  0  0  0  0  0  0  0  0  0
  -31.6110  -18.6330   19.5930 H   0  0  0  0  0  0  0  0  0  0  0  0
  -30.5830  -16.9720   21.2370 C   0  0  0  0  0  2  0  0  0  0  0  0
  -30.8390  -14.6260   20.5470 C   0  0  0  0  0  0  0  0  0  0  0  0
  -30.5200  -12.4930   19.3660 C   0  0  0  0  0  2  0  0  0  0  0  0
  -29.5950  -12.7090   18.1530 C   0  0  0  0  0  2  0  0  0  0  0  0
  -28.1190  -12.5640   18.5690 C   0  0  0  0  0  2  0  0  0  0  0  0
  -27.7640  -13.4070   19.8250 C   0  0  0  0  0  3  0  0  0  0  0  0
  -28.8070  -13.1840   20.9470 C   0  0  0  0  0  2  0  0  0  0  0  0
  -30.1470  -13.4670   20.4010 N   0  0  0  0  0  0  0  0  0  0  0  0
  -31.8930  -14.8700   19.9550 O   0  0  0  0  0  0  0  0  0  0  0  0
  -30.2620  -15.5490   21.3240 N   0  0  0  0  0  0  0  0  0  0  0  0
  -29.3960  -15.2970   21.7720 H   0  0  0  0  0  0  0  0  0  0  0  0
  -25.3540  -14.0020   20.5090 C   0  0  0  0  0  0  0  0  0  0  0  0
  -24.2840  -13.2200   20.8610 C   0  0  0  0  0  0  0  0  0  0  0  0
  -24.7510  -11.8720   20.8250 C   0  0  0  0  0  0  0  0  0  0  0  0
  -26.4050  -13.1260   20.2830 N   0  0  0  0  0  0  0  0  0  0  0  0
  -26.0440  -11.8390   20.5280 N   0  0  0  0  0  0  0  0  0  0  0  0
  -24.0270  -10.6040   20.9990 C   0  0  0  0  0  0  0  0  0  0  0  0
  -24.4570   -9.6320   21.9290 C   0  0  0  0  0  3  0  0  0  0  0  0
  -23.7360   -8.4290   22.0920 C   0  0  0  0  0  3  0  0  0  0  0  0
  -22.5700   -8.1910   21.3260 C   0  0  0  0  0  0  0  0  0  0  0  0
  -22.1590   -9.1530   20.3860 C   0  0  0  0  0  3  0  0  0  0  0  0
  -22.8810  -10.3470   20.2210 C   0  0  0  0  0  3  0  0  0  0  0  0
  -21.8210   -7.0410   21.3970 O   0  0  0  0  0  0  0  0  0  0  0  0
  -21.7600   -6.2930   22.5450 C   0  0  0  0  0  0  0  0  0  0  0  0
  -21.3200   -6.8400   23.7690 C   0  0  0  0  0  3  0  0  0  0  0  0
  -21.2050   -6.0180   24.9080 C   0  0  0  0  0  3  0  0  0  0  0  0
  -21.5220   -4.6490   24.8240 C   0  0  0  0  0  0  0  0  0  0  0  0
  -21.9560   -4.1000   23.6050 C   0  0  0  0  0  3  0  0  0  0  0  0
  -22.0720   -4.9200   22.4670 C   0  0  0  0  0  0  0  0  0  0  0  0
  -22.4700   -4.3820   21.2900 F   0  0  0  0  0  0  0  0  0  0  0  0
  -21.4060   -3.8570   25.9160 F   0  0  0  0  0  0  0  0  0  0  0  0
  -22.8830  -13.6910   21.1270 C   0  0  0  0  0  0  0  0  0  0  0  0
  -22.1540  -12.9890   21.9910 N   0  0  0  0  0  0  0  0  0  0  0  0
  -22.4400  -14.7110   20.6070 O   0  0  0  0  0  0  0  0  0  0  0  0
  -22.5240  -12.1620   22.4350 H   0  0  0  0  0  0  0  0  0  0  0  0
  -21.2140  -13.2860   22.2120 H   0  0  0  0  0  0  0  0  0  0  0  0
  -25.5170  -15.3730   20.3460 N   0  0  0  0  0  0  0  0  0  0  0  0
  -24.7530  -16.0290   20.4590 H   0  0  0  0  0  0  0  0  0  0  0  0
  -26.3830  -15.8180   20.0580 H   0  0  0  0  0  0  0  0  0  0  0  0
  -25.3730  -23.2080   21.9000 C   0  0  0  0  0  2  0  0  0  0  0  0
  -25.9690  -24.6240   21.8100 C   0  0  0  0  0  2  0  0  0  0  0  0
  -26.7350  -25.0270   23.0920 C   0  0  0  0  0  2  0  0  0  0  0  0
  -27.2600  -26.4180   23.1020 N   0  0  0  0  0  4  0  0  0  0  0  0
  -28.0660  -26.4610   23.7100 H   0  0  0  0  0  0  0  0  0  0  0  0
  -26.5460  -26.9850   23.5340 H   0  0  0  0  0  0  0  0  0  0  0  0
  -27.5860  -27.0550   21.8000 C   0  0  0  0  0  2  0  0  0  0  0  0
  -28.7480  -26.3880   21.0180 C   0  0  0  0  0  2  0  0  0  0  0  0
  -29.1200  -27.0880   19.6870 C   0  0  0  0  0  2  0  0  0  0  0  0
  -28.0800  -27.0320   18.7010 O   0  0  0  0  0  0  0  0  0  0  0  0
  -24.4990  -31.5840   22.8630 C   0  0  0  0  0  0  0  0  0  0  0  0
  -26.9310  -27.7560   18.9310 C   0  0  0  0  0  0  0  0  0  0  0  0
  -23.1600  -30.3680   21.1680 C   0  0  0  0  0  3  0  0  0  0  0  0
  -24.4930  -29.1080   19.3980 C   0  0  0  0  0  0  0  0  0  0  0  0
  -25.6260  -30.8770   20.7550 C   0  0  0  0  0  2  0  0  0  0  0  0
  -25.6840  -29.6100   19.9300 C   0  0  0  0  0  0  0  0  0  0  0  0
  -26.9030  -28.9480   19.6950 C   0  0  0  0  0  3  0  0  0  0  0  0
  -25.7240  -27.2630   18.3930 C   0  0  0  0  0  3  0  0  0  0  0  0
  -24.5060  -27.9320   18.6250 C   0  0  0  0  0  3  0  0  0  0  0  0
  -23.2370  -29.8950   19.6910 C   0  0  0  0  0  2  0  0  0  0  0  0
  -24.4530  -30.9500   21.6550 N   0  0  0  0  0  0  0  0  0  0  0  0
  -23.4770  -31.7300   23.5460 O   0  0  0  0  0  0  0  0  0  0  0  0
  -22.6490  -29.1980   22.0400 C   0  0  0  0  0  0  0  0  0  0  0  0
  -21.3270  -28.9650   22.0120 N   0  0  0  0  0  0  0  0  0  0  0  0
  -23.4340  -28.5080   22.6970 O   0  0  0  0  0  0  0  0  0  0  0  0
  -20.7520  -29.5820   21.4540 H   0  0  0  0  0  0  0  0  0  0  0  0
  -18.0710  -27.5120   22.5830 C   0  0  0  0  0  0  0  0  0  0  0  0
  -20.6250  -27.8950   22.7160 C   0  0  0  0  0  3  0  0  0  0  0  0
  -20.7690  -26.5520   21.9630 C   0  0  0  0  0  2  0  0  0  0  0  0
  -19.6140  -26.2800   20.9980 C   0  0  0  0  0  2  0  0  0  0  0  0
  -18.2770  -26.2610   21.7450 C   0  0  0  0  0  2  0  0  0  0  0  0
  -19.1740  -28.2880   23.0270 C   0  0  0  0  0  0  0  0  0  0  0  0
  -18.9280  -29.4600   23.7760 C   0  0  0  0  0  3  0  0  0  0  0  0
  -17.6130  -29.8560   24.0820 C   0  0  0  0  0  3  0  0  0  0  0  0
  -16.5260  -29.0760   23.6530 C   0  0  0  0  0  3  0  0  0  0  0  0
  -16.7560  -27.9040   22.9080 C   0  0  0  0  0  3  0  0  0  0  0  0
  -25.8300  -32.1740   23.4280 C   0  0  0  0  0  3  0  0  0  0  0  0
  -25.5310  -33.5010   23.9840 N   0  0  0  0  0  0  0  0  0  0  0  0
  -25.7910  -34.6600   23.3640 C   0  0  0  0  0  0  0  0  0  0  0  0
  -26.3800  -34.7210   22.2810 O   0  0  0  0  0  0  0  0  0  0  0  0
  -24.9970  -33.5310   24.8400 H   0  0  0  0  0  0  0  0  0  0  0  0
  -24.0210  -36.4480   23.3910 C   0  0  0  0  0  1  0  0  0  0  0  0
  -25.3190  -35.9550   24.0530 C   0  0  0  0  0  3  0  0  0  0  0  0
  -27.4990  -36.7460   24.8590 C   0  0  0  0  0  1  0  0  0  0  0  0
  -26.3260  -37.0360   24.0360 N   0  0  0  0  0  0  0  0  0  0  0  0
  -25.9240  -37.9120   24.3580 H   0  0  0  0  0  0  0  0  0  0  0  0
  -26.5130  -31.2500   24.5110 C   0  0  1  0  0  0  0  0  0  0  0  0
  -25.5620  -30.8270   25.6540 C   0  0  0  0  0  1  0  0  0  0  0  0
  -27.0660  -29.9620   23.8550 C   0  0  0  0  0  1  0  0  0  0  0  0
  -27.7200  -31.9830   25.1410 C   0  0  0  0  0  1  0  0  0  0  0  0
  1 52  1  0
  2  1  1  0
  3  2  1  0
  4  6  1  0
  4  3  1  0
  4  5  1  0
  7  8  1  0
  7  4  1  0
  8 10  1  0
  9 13  1  0
 10 12  1  0
 10  9  1  0
 11  9  2  0
 13 22  1  0
 14 22  1  0
 15 20  1  0
 16 17  1  0
 16 15  1  0
 18 17  1  0
 18 27  1  0
 18 19  1  0
 20 14  1  0
 20 19  1  0
 21 14  2  0
 22 23  1  0
 24 25  2  0
 25 44  1  0
 26 25  1  0
 26 29  1  0
 27 24  1  0
 27 28  1  0
 28 26  2  0
 29 30  1  0
 30 31  2  0
 32 35  1  0
 32 31  1  0
 33 32  2  0
 34 33  1  0
 34 29  2  0
 35 36  1  0
 36 37  1  0
 37 38  2  0
 39 38  1  0
 39 43  1  0
 40 39  2  0
 41 36  2  0
 41 40  1  0
 42 41  1  0
 44 45  1  0
 45 48  1  0
 45 47  1  0
 46 44  2  0
 49 50  1  0
 49 24  1  0
 51 49  1  0
 53 52  1  0
 53 54  1  0
 54 55  1  0
 55 57  1  0
 55 56  1  0
 58 55  1  0
 59 58  1  0
 60 59  1  0
 61 63  1  0
 61 60  1  0
 62 73  2  0
 63 68  1  0
 64 72  1  0
 64 74  1  0
 65 71  1  0
 65 67  1  0
 66 72  1  0
 67 66  1  0
 68 67  2  0
 69 70  1  0
 69 63  2  0
 70 65  2  0
 71 64  1  0
 72 62  1  0
 74 76  2  0
 75 74  1  0
 77 75  1  0
 78 87  2  0
 78 83  1  0
 79 75  1  0
 79 83  1  0
 80 79  1  0
 81 82  1  0
 81 80  1  0
 82 78  1  0
 83 84  2  0
 84 85  1  0
 86 85  2  0
 87 86  1  0
 88 62  1  0
 88 89  1  0
 88 98  1  0
 89 92  1  0
 90 89  1  0
 90 94  1  0
 91 90  2  0
 94 93  1  0
 96 94  1  0
 96 97  1  0
 96 95  1  0
 98101  1  1
 98 99  1  0
100 98  1  0
M  ISO  4  14 100  22 100  60 101  61 101
M  END
>  <TORSDO>  (58) 
F 30

>  <SCORE>  (58) 
-8.772

>  <name>  (58) 
58

>  <ligand_id>  (58) 
58

>  <original_smiles>  (58) 
[H]c1c([H])c([H])c2c(c1[H])C([H])([H])C([H])([H])C([H])([H])C2([H])N([H])C(=O)C1([H])N(C(=O)C([H])(N([H])C(=O)C([H])(N([H])C([H])([H])[H])C([H])([H])[H])C(C([H])([H])[H])(C([H])([H])[H])C([H])([H])[H])C([H])([H])c2c([H])c(OC([H])([H])C([H])([H])C([H])([H])[N+]([H])([H])C([H])([H])C([H])([H])C([H])([H])C([H])([H])C([H])([H])C([H])([H])[N+]([H])([H])C([H])([H])C([H])([H])N([H])C(=O)C([H])([H])N([H])C(=O)N3C([H])([H])C([H])([H])C([H])([H])C([H])(n4nc(-c5c([H])c([H])c(Oc6c([H])c([H])c(F)c([H])c6F)c([H])c5[H])c(C(=O)N([H])[H])c4N([H])[H])C3([H])[H])c([H])c([H])c2C1([H])[H]

>  <smiles>  (58) 
[H]c1c([H])c([H])c2c(c1[H])C([H])([H])C([H])([H])C([H])([H])C2([H])N([H])C(=O)C1([H])N(C(=O)C([H])(N([H])C(=O)C([H])(N([H])C([H])([H])[H])C([H])([H])[H])C(C([H])([H])[H])(C([H])([H])[H])C([H])([H])[H])C([H])([H])c2c([H])c(OC([H])([H])C([H])([H])C([H])([H])[N+]([H])([H])C([H])([H])C([H])([H])C([H])([H])C([H])([H])C([H])([H])C([H])([H])[N+]([H])([H])C([H])([H])C([H])([H])N([H])C(=O)C([H])([H])N([H])C(=O)N3C([H])([H])C([H])([H])C([H])([H])C([H])(n4nc(-c5c([H])c([H])c(Oc6c([H])c([H])c(F)c([H])c6F)c([H])c5[H])c(C(=O)N([H])[H])c4N([H])[H])C3([H])[H])c([H])c([H])c2C1([H])[H]

$$$$
59:0:0
     RDKit          3D

 99107  0  0  1  0  0  0  0  0999 V2000
  -26.6780  -18.6920   20.2940 C   0  0  0  0  0  2  0  0  0  0  0  0
  -26.0360  -17.6240   19.3840 C   0  0  0  0  0  2  0  0  0  0  0  0
  -25.3770  -16.4750   20.1630 C   0  0  0  0  0  2  0  0  0  0  0  0
  -26.0810  -14.7830   21.7870 C   0  0  0  0  0  0  0  0  0  0  0  0
  -26.3260  -15.4970   20.6820 N   0  0  0  0  0  0  0  0  0  0  0  0
  -25.1770  -15.0700   22.5760 O   0  0  0  0  0  0  0  0  0  0  0  0
  -27.0970  -15.2250   20.0840 H   0  0  0  0  0  0  0  0  0  0  0  0
  -26.9100  -13.5180   22.0100 C   0  0  0  0  0  2  0  0  0  0  0  0
  -28.4190  -13.7890   22.1390 C   0  0  0  0  0  2  0  0  0  0  0  0
  -29.1340  -13.8420   20.7790 C   0  0  0  0  0  3  0  0  0  0  0  0
  -30.2010  -14.9470   20.7380 C   0  0  0  0  0  2  0  0  0  0  0  0
  -30.4510  -15.5460   19.3460 C   0  0  0  0  0  2  0  0  0  0  0  0
  -30.8500  -13.3670   18.3630 C   0  0  0  0  0  0  0  0  0  0  0  0
  -31.0930  -11.5030   19.9650 C   0  0  0  0  0  2  0  0  0  0  0  0
  -30.4830  -10.1640   19.5220 C   0  0  0  0  0  2  0  0  0  0  0  0
  -28.9960  -10.1040   19.9100 C   0  0  0  0  0  2  0  0  0  0  0  0
  -28.2180  -11.3400   19.3960 C   0  0  0  0  0  3  0  0  0  0  0  0
  -28.9290  -12.6460   19.8040 C   0  0  0  0  0  3  0  0  0  0  0  0
  -30.3340  -12.6030   19.3570 N   0  0  0  0  0  0  0  0  0  0  0  0
  -31.8330  -13.0470   17.6860 O   0  0  0  0  0  0  0  0  0  0  0  0
  -30.3120  -14.5880   18.2480 N   0  0  0  0  0  0  0  0  0  0  0  0
  -30.4550  -15.0040   17.3390 H   0  0  0  0  0  0  0  0  0  0  0  0
  -25.9030  -12.3680   19.8880 C   0  0  0  0  0  0  0  0  0  0  0  0
  -24.7330  -11.8100   20.3320 C   0  0  0  0  0  0  0  0  0  0  0  0
  -25.0120  -10.4260   20.5430 C   0  0  0  0  0  0  0  0  0  0  0  0
  -26.8250  -11.3320   19.8510 N   0  0  0  0  0  0  0  0  0  0  0  0
  -26.2920  -10.1690   20.3080 N   0  0  0  0  0  0  0  0  0  0  0  0
  -24.1200   -9.3170   20.8980 C   0  0  0  0  0  0  0  0  0  0  0  0
  -24.4300   -8.4290   21.9520 C   0  0  0  0  0  3  0  0  0  0  0  0
  -23.5460   -7.3820   22.2870 C   0  0  0  0  0  3  0  0  0  0  0  0
  -22.3410   -7.2100   21.5630 C   0  0  0  0  0  0  0  0  0  0  0  0
  -22.0500   -8.0850   20.5020 C   0  0  0  0  0  3  0  0  0  0  0  0
  -22.9320   -9.1260   20.1660 C   0  0  0  0  0  3  0  0  0  0  0  0
  -21.4390   -6.1980   21.8000 O   0  0  0  0  0  0  0  0  0  0  0  0
  -21.4160   -5.5130   22.9900 C   0  0  0  0  0  0  0  0  0  0  0  0
  -21.0620   -6.1400   24.2040 C   0  0  0  0  0  3  0  0  0  0  0  0
  -20.9910   -5.3890   25.3950 C   0  0  0  0  0  3  0  0  0  0  0  0
  -21.2590   -4.0080   25.3710 C   0  0  0  0  0  0  0  0  0  0  0  0
  -21.6020   -3.3770   24.1620 C   0  0  0  0  0  3  0  0  0  0  0  0
  -21.6830   -4.1270   22.9750 C   0  0  0  0  0  0  0  0  0  0  0  0
  -22.0090   -3.5140   21.8130 F   0  0  0  0  0  0  0  0  0  0  0  0
  -21.1730   -3.2830   26.5100 F   0  0  0  0  0  0  0  0  0  0  0  0
  -23.4070  -12.5000   20.4710 C   0  0  0  0  0  0  0  0  0  0  0  0
  -22.6230  -12.1260   21.4810 N   0  0  0  0  0  0  0  0  0  0  0  0
  -23.0860  -13.4160   19.7140 O   0  0  0  0  0  0  0  0  0  0  0  0
  -22.9250  -11.4270   22.1450 H   0  0  0  0  0  0  0  0  0  0  0  0
  -21.7440  -12.6010   21.6410 H   0  0  0  0  0  0  0  0  0  0  0  0
  -26.2370  -13.6620   19.5110 N   0  0  0  0  0  0  0  0  0  0  0  0
  -25.5410  -14.4030   19.4890 H   0  0  0  0  0  0  0  0  0  0  0  0
  -27.1510  -13.9560   19.1900 H   0  0  0  0  0  0  0  0  0  0  0  0
  -27.2250  -19.8610   19.4560 C   0  0  0  0  0  2  0  0  0  0  0  0
  -28.3610  -20.7080   20.0770 C   0  0  0  0  0  2  0  0  0  0  0  0
  -27.9910  -22.2040   19.9660 C   0  0  0  0  0  2  0  0  0  0  0  0
  -29.9030  -23.6060   20.8050 C   0  0  0  0  0  0  0  0  0  0  0  0
  -29.1290  -23.1120   19.8300 N   0  0  0  0  0  0  0  0  0  0  0  0
  -29.8590  -23.1900   21.9690 O   0  0  0  0  0  0  0  0  0  0  0  0
  -29.2800  -23.4980   18.9070 H   0  0  0  0  0  0  0  0  0  0  0  0
  -30.8390  -24.7640   20.3990 C   0  0  0  0  0  2  0  0  0  0  0  0
  -30.8600  -25.8130   21.3780 O   0  0  0  0  0  0  0  0  0  0  0  0
  -28.0080  -30.9390   25.3480 C   0  0  0  0  0  0  0  0  0  0  0  0
  -29.6830  -26.2960   21.9160 C   0  0  0  0  0  0  0  0  0  0  0  0
  -26.5090  -29.0420   24.8270 C   0  0  0  0  0  3  0  0  0  0  0  0
  -27.3500  -27.4180   23.0460 C   0  0  0  0  0  0  0  0  0  0  0  0
  -28.3930  -29.6820   23.2280 C   0  0  0  0  0  2  0  0  0  0  0  0
  -28.4780  -28.2180   22.8420 C   0  0  0  0  0  0  0  0  0  0  0  0
  -29.6450  -27.6610   22.2810 C   0  0  0  0  0  3  0  0  0  0  0  0
  -28.5280  -25.5020   22.1160 C   0  0  0  0  0  3  0  0  0  0  0  0
  -27.3640  -26.0620   22.6750 C   0  0  0  0  0  3  0  0  0  0  0  0
  -26.1410  -28.0970   23.6490 C   0  0  0  0  0  2  0  0  0  0  0  0
  -27.6820  -29.9170   24.5070 N   0  0  0  0  0  0  0  0  0  0  0  0
  -27.3250  -31.1780   26.3520 O   0  0  0  0  0  0  0  0  0  0  0  0
  -26.7080  -28.1940   26.1050 C   0  0  0  0  0  0  0  0  0  0  0  0
  -25.9550  -28.5310   27.1660 N   0  0  0  0  0  0  0  0  0  0  0  0
  -27.5000  -27.2470   26.1200 O   0  0  0  0  0  0  0  0  0  0  0  0
  -25.3350  -29.3230   27.0770 H   0  0  0  0  0  0  0  0  0  0  0  0
  -25.3800  -29.0130   30.6970 C   0  0  0  0  0  0  0  0  0  0  0  0
  -25.9550  -27.8540   28.4630 C   0  0  0  0  0  3  0  0  0  0  0  0
  -24.6550  -27.0420   28.6660 C   0  0  0  0  0  2  0  0  0  0  0  0
  -23.5620  -27.8300   29.3940 C   0  0  0  0  0  2  0  0  0  0  0  0
  -24.0540  -28.2770   30.7730 C   0  0  0  0  0  2  0  0  0  0  0  0
  -26.2670  -28.8270   29.6050 C   0  0  0  0  0  0  0  0  0  0  0  0
  -27.4700  -29.5660   29.5680 C   0  0  0  0  0  3  0  0  0  0  0  0
  -27.7910  -30.4710   30.5970 C   0  0  0  0  0  3  0  0  0  0  0  0
  -26.9130  -30.6430   31.6820 C   0  0  0  0  0  3  0  0  0  0  0  0
  -25.7140  -29.9100   31.7320 C   0  0  0  0  0  3  0  0  0  0  0  0
  -29.2300  -31.8700   25.0750 C   0  0  0  0  0  3  0  0  0  0  0  0
  -28.8040  -33.2510   25.3400 N   0  0  0  0  0  0  0  0  0  0  0  0
  -28.5240  -34.1530   24.3880 C   0  0  0  0  0  0  0  0  0  0  0  0
  -28.6690  -33.9210   23.1850 O   0  0  0  0  0  0  0  0  0  0  0  0
  -28.6210  -33.4950   26.3030 H   0  0  0  0  0  0  0  0  0  0  0  0
  -26.4720  -35.5770   24.6630 C   0  0  0  0  0  1  0  0  0  0  0  0
  -27.9980  -35.5280   24.8480 C   0  0  0  0  0  3  0  0  0  0  0  0
  -30.0430  -36.8300   24.4560 C   0  0  0  0  0  1  0  0  0  0  0  0
  -28.6260  -36.6630   24.1390 N   0  0  0  0  0  0  0  0  0  0  0  0
  -28.1470  -37.5320   24.3550 H   0  0  0  0  0  0  0  0  0  0  0  0
  -30.4950  -31.4960   25.9400 C   0  0  1  0  0  0  0  0  0  0  0  0
  -30.1630  -31.1130   27.4000 C   0  0  0  0  0  1  0  0  0  0  0  0
  -31.2410  -30.3050   25.2970 C   0  0  0  0  0  1  0  0  0  0  0  0
  -31.4830  -32.6860   25.9640 C   0  0  0  0  0  1  0  0  0  0  0  0
  2  3  1  0
  2  1  1  0
  3  5  1  0
  4  8  1  0
  4  6  2  0
  5  4  1  0
  7  5  1  0
  8  9  1  0
 10  9  1  0
 11 10  1  0
 12 11  1  0
 13 19  1  0
 15 16  1  0
 15 14  1  0
 17 18  1  0
 17 26  1  0
 17 16  1  0
 18 19  1  0
 18 10  1  0
 19 14  1  0
 20 13  2  0
 21 13  1  0
 21 12  1  0
 22 21  1  0
 23 24  2  0
 24 43  1  0
 24 25  1  0
 25 28  1  0
 26 23  1  0
 26 27  1  0
 27 25  2  0
 28 29  1  0
 29 30  2  0
 31 34  1  0
 31 30  1  0
 32 31  2  0
 33 32  1  0
 33 28  2  0
 34 35  1  0
 35 36  1  0
 36 37  2  0
 38 37  1  0
 38 42  1  0
 39 38  2  0
 40 35  2  0
 40 39  1  0
 41 40  1  0
 43 44  1  0
 44 47  1  0
 44 46  1  0
 45 43  2  0
 48 23  1  0
 49 48  1  0
 50 48  1  0
 51 52  1  0
 51  1  1  0
 53 52  1  0
 54 56  2  0
 55 53  1  0
 55 54  1  0
 57 55  1  0
 58 54  1  0
 58 59  1  0
 59 61  1  0
 60 71  2  0
 61 67  2  0
 61 66  1  0
 62 72  1  0
 63 69  1  0
 64 70  1  0
 65 63  1  0
 65 64  1  0
 66 65  2  0
 67 68  1  0
 68 63  2  0
 69 62  1  0
 70 62  1  0
 70 60  1  0
 72 74  2  0
 72 73  1  0
 75 73  1  0
 76 80  1  0
 76 85  1  0
 77 73  1  0
 77 78  1  0
 77 81  1  0
 78 79  1  0
 79 80  1  0
 81 76  2  0
 82 81  1  0
 82 83  2  0
 83 84  1  0
 84 85  2  0
 86 87  1  0
 86 60  1  0
 86 96  1  0
 87 90  1  0
 88 92  1  0
 88 87  1  0
 89 88  2  0
 92 91  1  0
 94 95  1  0
 94 93  1  0
 94 92  1  0
 96 99  1  1
 96 97  1  0
 98 96  1  0
M  ISO  4  13 100  21 100  58 101  59 101
M  END
>  <TORSDO>  (59) 
F 29

>  <SCORE>  (59) 
-3.893

>  <name>  (59) 
59

>  <ligand_id>  (59) 
59

>  <original_smiles>  (59) 
[H]c1c([H])c([H])c2c(c1[H])C([H])([H])C([H])([H])C([H])([H])C2([H])N([H])C(=O)C1([H])N(C(=O)C([H])(N([H])C(=O)C([H])(N([H])C([H])([H])[H])C([H])([H])[H])C(C([H])([H])[H])(C([H])([H])[H])C([H])([H])[H])C([H])([H])c2c([H])c(OC([H])([H])C(=O)N([H])C([H])([H])C([H])([H])C([H])([H])C([H])([H])C([H])([H])C([H])([H])N([H])C(=O)C([H])([H])C([H])([H])C([H])([H])C([H])([H])C([H])([H])N([H])C(=O)N3C([H])([H])C([H])([H])C([H])([H])C([H])(n4nc(-c5c([H])c([H])c(Oc6c([H])c([H])c(F)c([H])c6F)c([H])c5[H])c(C(=O)N([H])[H])c4N([H])[H])C3([H])[H])c([H])c([H])c2C1([H])[H]

>  <smiles>  (59) 
[H]c1c([H])c([H])c2c(c1[H])C([H])([H])C([H])([H])C([H])([H])C2([H])N([H])C(=O)C1([H])N(C(=O)C([H])(N([H])C(=O)C([H])(N([H])C([H])([H])[H])C([H])([H])[H])C(C([H])([H])[H])(C([H])([H])[H])C([H])([H])[H])C([H])([H])c2c([H])c(OC([H])([H])C(=O)N([H])C([H])([H])C([H])([H])C([H])([H])C([H])([H])C([H])([H])C([H])([H])N([H])C(=O)C([H])([H])C([H])([H])C([H])([H])C([H])([H])C([H])([H])N([H])C(=O)N3C([H])([H])C([H])([H])C([H])([H])C([H])(n4nc(-c5c([H])c([H])c(Oc6c([H])c([H])c(F)c([H])c6F)c([H])c5[H])c(C(=O)N([H])[H])c4N([H])[H])C3([H])[H])c([H])c([H])c2C1([H])[H]

$$$$
60:0:0
     RDKit          3D

 91 98  0  0  1  0  0  0  0  0999 V2000
  -28.4910  -22.4040   21.5040 C   0  0  0  0  0  0  0  0  0  0  0  0
  -28.3620  -21.4780   20.5420 N   0  0  0  0  0  0  0  0  0  0  0  0
  -28.7950  -22.1070   22.6620 O   0  0  0  0  0  0  0  0  0  0  0  0
  -28.1030  -21.8020   19.6180 H   0  0  0  0  0  0  0  0  0  0  0  0
  -28.1980  -23.8660   21.1290 C   0  0  0  0  0  2  0  0  0  0  0  0
  -29.1990  -24.8800   21.7330 C   0  0  0  0  0  2  0  0  0  0  0  0
  -28.7450  -26.3490   21.6810 C   0  0  0  0  0  2  0  0  0  0  0  0
  -28.4300  -26.7820   20.3530 O   0  0  0  0  0  0  0  0  0  0  0  0
  -24.6580  -31.9700   23.4200 C   0  0  0  0  0  0  0  0  0  0  0  0
  -27.3130  -27.5800   20.3090 C   0  0  0  0  0  0  0  0  0  0  0  0
  -23.4690  -30.6210   21.7180 C   0  0  0  0  0  3  0  0  0  0  0  0
  -24.9380  -29.1000   20.2860 C   0  0  0  0  0  0  0  0  0  0  0  0
  -25.9990  -30.9540   21.5860 C   0  0  0  0  0  2  0  0  0  0  0  0
  -26.0820  -29.5990   20.9220 C   0  0  0  0  0  0  0  0  0  0  0  0
  -27.2740  -28.8440   20.9380 C   0  0  0  0  0  3  0  0  0  0  0  0
  -26.1670  -27.0960   19.6520 C   0  0  0  0  0  3  0  0  0  0  0  0
  -24.9750  -27.8460   19.6460 C   0  0  0  0  0  3  0  0  0  0  0  0
  -23.7000  -29.9680   20.3260 C   0  0  0  0  0  2  0  0  0  0  0  0
  -24.7250  -31.1950   22.3010 N   0  0  0  0  0  0  0  0  0  0  0  0
  -23.5690  -32.2450   23.9440 O   0  0  0  0  0  0  0  0  0  0  0  0
  -22.7830  -29.5880   22.6410 C   0  0  0  0  0  0  0  0  0  0  0  0
  -21.4710  -29.3860   22.4420 N   0  0  0  0  0  0  0  0  0  0  0  0
  -23.4310  -28.9750   23.4930 O   0  0  0  0  0  0  0  0  0  0  0  0
  -21.0100  -29.9370   21.7330 H   0  0  0  0  0  0  0  0  0  0  0  0
  -18.1080  -28.1000   22.7090 C   0  0  0  0  0  0  0  0  0  0  0  0
  -20.6290  -28.4360   23.1660 C   0  0  0  0  0  3  0  0  0  0  0  0
  -20.8140  -27.0000   22.6200 C   0  0  0  0  0  2  0  0  0  0  0  0
  -19.8010  -26.6320   21.5320 C   0  0  0  0  0  2  0  0  0  0  0  0
  -18.3720  -26.7460   22.0690 C   0  0  0  0  0  2  0  0  0  0  0  0
  -19.1690  -28.8990   23.2080 C   0  0  0  0  0  0  0  0  0  0  0  0
  -18.8730  -30.1650   23.7590 C   0  0  0  0  0  3  0  0  0  0  0  0
  -17.5460  -30.6310   23.8210 C   0  0  0  0  0  3  0  0  0  0  0  0
  -16.4980  -29.8290   23.3390 C   0  0  0  0  0  3  0  0  0  0  0  0
  -16.7780  -28.5660   22.7890 C   0  0  0  0  0  3  0  0  0  0  0  0
  -25.9400  -32.5680   24.0800 C   0  0  0  0  0  3  0  0  0  0  0  0
  -25.6540  -33.9690   24.4180 N   0  0  0  0  0  0  0  0  0  0  0  0
  -26.0360  -35.0210   23.6820 C   0  0  0  0  0  0  0  0  0  0  0  0
  -26.7400  -34.9130   22.6750 O   0  0  0  0  0  0  0  0  0  0  0  0
  -25.0360  -34.1280   25.2000 H   0  0  0  0  0  0  0  0  0  0  0  0
  -24.3640  -36.8550   23.2790 C   0  0  0  0  0  1  0  0  0  0  0  0
  -25.5630  -36.4140   24.1360 C   0  0  0  0  0  3  0  0  0  0  0  0
  -27.6860  -37.2380   25.0560 C   0  0  0  0  0  1  0  0  0  0  0  0
  -26.6220  -37.4440   24.0750 N   0  0  0  0  0  0  0  0  0  0  0  0
  -26.2320  -38.3710   24.2190 H   0  0  0  0  0  0  0  0  0  0  0  0
  -26.4100  -31.7700   25.3600 C   0  0  1  0  0  0  0  0  0  0  0  0
  -25.2830  -31.5300   26.3910 C   0  0  0  0  0  1  0  0  0  0  0  0
  -26.9870  -30.3890   24.9620 C   0  0  0  0  0  1  0  0  0  0  0  0
  -27.5470  -32.5380   26.0700 C   0  0  0  0  0  1  0  0  0  0  0  0
  -28.3920  -20.0290   20.7550 C   0  0  0  0  0  2  0  0  0  0  0  0
  -29.8090  -19.4200   20.6640 C   0  0  0  0  0  2  0  0  0  0  0  0
  -29.9100  -18.0600   21.3860 C   0  0  0  0  0  2  0  0  0  0  0  0
  -31.3530  -17.5420   21.5400 C   0  0  0  0  0  2  0  0  0  0  0  0
  -31.8590  -16.6390   20.4040 C   0  0  0  0  0  2  0  0  0  0  0  0
  -31.6640  -14.2760   19.7240 C   0  0  0  0  0  0  0  0  0  0  0  0
  -31.2330  -11.9620   18.9960 C   0  0  0  0  0  2  0  0  0  0  0  0
  -30.2770  -11.9450   17.7900 C   0  0  0  0  0  2  0  0  0  0  0  0
  -28.8070  -11.9710   18.2520 C   0  0  0  0  0  2  0  0  0  0  0  0
  -28.5280  -13.0560   19.3260 C   0  0  0  0  0  3  0  0  0  0  0  0
  -29.5960  -13.0220   20.4420 C   0  0  0  0  0  2  0  0  0  0  0  0
  -30.9200  -13.1430   19.8100 N   0  0  0  0  0  0  0  0  0  0  0  0
  -32.7170  -14.3460   19.0810 O   0  0  0  0  0  0  0  0  0  0  0  0
  -31.1760  -15.3460   20.3610 N   0  0  0  0  0  0  0  0  0  0  0  0
  -30.2910  -15.2450   20.8370 H   0  0  0  0  0  0  0  0  0  0  0  0
  -26.2490  -13.9270   20.1450 C   0  0  0  0  0  0  0  0  0  0  0  0
  -25.1190  -13.2780   20.5670 C   0  0  0  0  0  0  0  0  0  0  0  0
  -25.4240  -11.8830   20.5230 C   0  0  0  0  0  0  0  0  0  0  0  0
  -27.1770  -12.9340   19.8690 N   0  0  0  0  0  0  0  0  0  0  0  0
  -26.6850  -11.6990   20.1510 N   0  0  0  0  0  0  0  0  0  0  0  0
  -24.5720  -10.7090   20.7580 C   0  0  0  0  0  0  0  0  0  0  0  0
  -24.9080   -9.7340   21.7220 C   0  0  0  0  0  3  0  0  0  0  0  0
  -24.0660   -8.6230   21.9430 C   0  0  0  0  0  3  0  0  0  0  0  0
  -22.8720   -8.4790   21.1980 C   0  0  0  0  0  0  0  0  0  0  0  0
  -22.5520   -9.4400   20.2220 C   0  0  0  0  0  3  0  0  0  0  0  0
  -23.3950  -10.5430   20.0010 C   0  0  0  0  0  3  0  0  0  0  0  0
  -22.0050   -7.4210   21.3260 O   0  0  0  0  0  0  0  0  0  0  0  0
  -21.8410   -6.7640   22.5200 C   0  0  0  0  0  0  0  0  0  0  0  0
  -21.4340   -7.4380   23.6910 C   0  0  0  0  0  3  0  0  0  0  0  0
  -21.2100   -6.7130   24.8780 C   0  0  0  0  0  3  0  0  0  0  0  0
  -21.3840   -5.3160   24.8950 C   0  0  0  0  0  0  0  0  0  0  0  0
  -21.7840   -4.6430   23.7280 C   0  0  0  0  0  3  0  0  0  0  0  0
  -22.0090   -5.3640   22.5430 C   0  0  0  0  0  0  0  0  0  0  0  0
  -22.3740   -4.7070   21.4150 F   0  0  0  0  0  0  0  0  0  0  0  0
  -21.1610   -4.6190   26.0330 F   0  0  0  0  0  0  0  0  0  0  0  0
  -23.7980  -13.9080   20.9020 C   0  0  0  0  0  0  0  0  0  0  0  0
  -23.0500  -13.3140   21.8260 N   0  0  0  0  0  0  0  0  0  0  0  0
  -23.4410  -14.9620   20.3770 O   0  0  0  0  0  0  0  0  0  0  0  0
  -23.3480  -12.4610   22.2770 H   0  0  0  0  0  0  0  0  0  0  0  0
  -22.1630  -13.7200   22.0850 H   0  0  0  0  0  0  0  0  0  0  0  0
  -26.5590  -15.2700   19.9540 N   0  0  0  0  0  0  0  0  0  0  0  0
  -25.8910  -16.0120   20.1290 H   0  0  0  0  0  0  0  0  0  0  0  0
  -27.4440  -15.6100   19.5970 H   0  0  0  0  0  0  0  0  0  0  0  0
  1  3  2  0
  2 49  1  0
  2  1  1  0
  4  2  1  0
  5  1  1  0
  5  6  1  0
  7  6  1  0
  8  7  1  0
  9 20  2  0
 10  8  1  0
 10 15  1  0
 11 19  1  0
 11 21  1  0
 12 18  1  0
 12 14  1  0
 13 19  1  0
 14 15  2  0
 14 13  1  0
 16 10  2  0
 17 16  1  0
 17 12  2  0
 18 11  1  0
 19  9  1  0
 21 23  2  0
 22 21  1  0
 24 22  1  0
 25 34  2  0
 25 30  1  0
 26 22  1  0
 26 30  1  0
 27 26  1  0
 28 29  1  0
 28 27  1  0
 29 25  1  0
 30 31  2  0
 31 32  1  0
 33 32  2  0
 34 33  1  0
 35  9  1  0
 35 36  1  0
 35 45  1  0
 36 39  1  0
 37 41  1  0
 37 36  1  0
 38 37  2  0
 41 40  1  0
 43 41  1  0
 43 44  1  0
 43 42  1  0
 45 48  1  1
 45 46  1  0
 47 45  1  0
 50 49  1  0
 50 51  1  0
 51 52  1  0
 53 52  1  0
 54 60  1  0
 54 62  1  0
 55 60  1  0
 56 57  1  0
 56 55  1  0
 58 57  1  0
 58 67  1  0
 58 59  1  0
 60 59  1  0
 61 54  2  0
 62 53  1  0
 62 63  1  0
 64 65  2  0
 65 84  1  0
 66 65  1  0
 66 69  1  0
 67 64  1  0
 67 68  1  0
 68 66  2  0
 69 70  1  0
 70 71  2  0
 72 75  1  0
 72 71  1  0
 73 72  2  0
 74 73  1  0
 74 69  2  0
 75 76  1  0
 76 81  2  0
 76 77  1  0
 77 78  2  0
 78 79  1  0
 79 83  1  0
 80 79  2  0
 81 80  1  0
 82 81  1  0
 84 85  1  0
 85 88  1  0
 85 87  1  0
 86 84  2  0
 89 90  1  0
 89 64  1  0
 91 89  1  0
M  ISO  4   7 101   8 101  54 100  62 100
M  END
>  <TORSDO>  (60) 
F 24

>  <SCORE>  (60) 
-11.467

>  <name>  (60) 
60

>  <ligand_id>  (60) 
60

>  <original_smiles>  (60) 
[H]c1c([H])c([H])c2c(c1[H])C([H])([H])C([H])([H])C([H])([H])C2([H])N([H])C(=O)C1([H])N(C(=O)C([H])(N([H])C(=O)C([H])(N([H])C([H])([H])[H])C([H])([H])[H])C(C([H])([H])[H])(C([H])([H])[H])C([H])([H])[H])C([H])([H])c2c([H])c(OC([H])([H])C([H])([H])C([H])([H])C(=O)N([H])C([H])([H])C([H])([H])C([H])([H])C([H])([H])C([H])([H])N([H])C(=O)N3C([H])([H])C([H])([H])C([H])([H])C([H])(n4nc(-c5c([H])c([H])c(Oc6c([H])c([H])c(F)c([H])c6F)c([H])c5[H])c(C(=O)N([H])[H])c4N([H])[H])C3([H])[H])c([H])c([H])c2C1([H])[H]

>  <smiles>  (60) 
[H]c1c([H])c([H])c2c(c1[H])C([H])([H])C([H])([H])C([H])([H])C2([H])N([H])C(=O)C1([H])N(C(=O)C([H])(N([H])C(=O)C([H])(N([H])C([H])([H])[H])C([H])([H])[H])C(C([H])([H])[H])(C([H])([H])[H])C([H])([H])[H])C([H])([H])c2c([H])c(OC([H])([H])C([H])([H])C([H])([H])C(=O)N([H])C([H])([H])C([H])([H])C([H])([H])C([H])([H])C([H])([H])N([H])C(=O)N3C([H])([H])C([H])([H])C([H])([H])C([H])(n4nc(-c5c([H])c([H])c(Oc6c([H])c([H])c(F)c([H])c6F)c([H])c5[H])c(C(=O)N([H])[H])c4N([H])[H])C3([H])[H])c([H])c([H])c2C1([H])[H]

$$$$
61:0:0
     RDKit          3D

 92 99  0  0  1  0  0  0  0  0999 V2000
  -27.1800  -21.5720   21.6190 N   0  0  0  0  0  4  0  0  0  0  0  0
  -27.3450  -21.4500   22.6050 H   0  0  0  0  0  0  0  0  0  0  0  0
  -26.3080  -21.1150   21.4010 H   0  0  0  0  0  0  0  0  0  0  0  0
  -27.0280  -23.0130   21.3380 C   0  0  0  0  0  2  0  0  0  0  0  0
  -28.1580  -23.8580   21.9690 C   0  0  0  0  0  2  0  0  0  0  0  0
  -28.1280  -25.3300   21.5460 C   0  0  0  0  0  2  0  0  0  0  0  0
  -28.5680  -25.5680   20.0850 C   0  0  0  0  0  2  0  0  0  0  0  0
  -28.5970  -26.9590   19.7870 O   0  0  0  0  0  0  0  0  0  0  0  0
  -24.6490  -31.7350   23.2180 C   0  0  0  0  0  0  0  0  0  0  0  0
  -27.3910  -27.6170   19.8220 C   0  0  0  0  0  0  0  0  0  0  0  0
  -23.4650  -30.4130   21.4920 C   0  0  0  0  0  3  0  0  0  0  0  0
  -24.9480  -29.0190   19.9590 C   0  0  0  0  0  0  0  0  0  0  0  0
  -25.9760  -30.8620   21.3030 C   0  0  0  0  0  2  0  0  0  0  0  0
  -26.0930  -29.5440   20.5690 C   0  0  0  0  0  0  0  0  0  0  0  0
  -27.3190  -28.8510   20.4970 C   0  0  0  0  0  3  0  0  0  0  0  0
  -26.2300  -27.0930   19.2100 C   0  0  0  0  0  3  0  0  0  0  0  0
  -25.0090  -27.7890   19.2790 C   0  0  0  0  0  3  0  0  0  0  0  0
  -23.6800  -29.8340   20.0680 C   0  0  0  0  0  2  0  0  0  0  0  0
  -24.7150  -31.0140   22.0630 N   0  0  0  0  0  0  0  0  0  0  0  0
  -23.5660  -31.9410   23.7820 O   0  0  0  0  0  0  0  0  0  0  0  0
  -22.8520  -29.3130   22.3850 C   0  0  0  0  0  0  0  0  0  0  0  0
  -21.5380  -29.0840   22.2310 N   0  0  0  0  0  0  0  0  0  0  0  0
  -23.5540  -28.6700   23.1710 O   0  0  0  0  0  0  0  0  0  0  0  0
  -21.0330  -29.6560   21.5690 H   0  0  0  0  0  0  0  0  0  0  0  0
  -18.2170  -27.7070   22.5860 C   0  0  0  0  0  0  0  0  0  0  0  0
  -20.7510  -28.0740   22.9380 C   0  0  0  0  0  3  0  0  0  0  0  0
  -20.9400  -26.6790   22.3000 C   0  0  0  0  0  2  0  0  0  0  0  0
  -19.8800  -26.3510   21.2450 C   0  0  0  0  0  2  0  0  0  0  0  0
  -18.4770  -26.4010   21.8570 C   0  0  0  0  0  2  0  0  0  0  0  0
  -19.2860  -28.5010   23.0790 C   0  0  0  0  0  0  0  0  0  0  0  0
  -18.9920  -29.7260   23.7180 C   0  0  0  0  0  3  0  0  0  0  0  0
  -17.6620  -30.1570   23.8700 C   0  0  0  0  0  3  0  0  0  0  0  0
  -16.6060  -29.3600   23.3940 C   0  0  0  0  0  3  0  0  0  0  0  0
  -16.8840  -28.1360   22.7570 C   0  0  0  0  0  3  0  0  0  0  0  0
  -25.9250  -32.3560   23.8690 C   0  0  0  0  0  3  0  0  0  0  0  0
  -26.4690  -31.5200   25.0920 C   0  0  1  0  0  0  0  0  0  0  0  0
  -25.3900  -31.1910   26.1500 C   0  0  0  0  0  1  0  0  0  0  0  0
  -27.0820  -30.1840   24.6120 C   0  0  0  0  0  1  0  0  0  0  0  0
  -27.6040  -32.3000   25.7960 C   0  0  0  0  0  1  0  0  0  0  0  0
  -25.5870  -33.7230   24.2810 N   0  0  0  0  0  0  0  0  0  0  0  0
  -25.8990  -34.8250   23.5860 C   0  0  0  0  0  0  0  0  0  0  0  0
  -26.5740  -34.7980   22.5530 O   0  0  0  0  0  0  0  0  0  0  0  0
  -24.9890  -33.8160   25.0880 H   0  0  0  0  0  0  0  0  0  0  0  0
  -24.1390  -36.6040   23.3250 C   0  0  0  0  0  1  0  0  0  0  0  0
  -25.3800  -36.1730   24.1220 C   0  0  0  0  0  3  0  0  0  0  0  0
  -27.4910  -37.0440   25.0260 C   0  0  0  0  0  1  0  0  0  0  0  0
  -26.3930  -37.2500   24.0850 N   0  0  0  0  0  0  0  0  0  0  0  0
  -25.9680  -38.1510   24.2870 H   0  0  0  0  0  0  0  0  0  0  0  0
  -28.2510  -20.9150   20.8420 C   0  0  0  0  0  2  0  0  0  0  0  0
  -28.4690  -19.4630   21.2770 C   0  0  0  0  0  2  0  0  0  0  0  0
  -29.7230  -18.8760   20.6240 C   0  0  0  0  0  2  0  0  0  0  0  0
  -30.0370  -17.4680   21.1320 C   0  0  0  0  0  2  0  0  0  0  0  0
  -31.4080  -16.9870   20.6400 C   0  0  0  0  0  2  0  0  0  0  0  0
  -31.7960  -15.6050   21.1870 C   0  0  0  0  0  2  0  0  0  0  0  0
  -30.8950  -13.9500   19.5480 C   0  0  0  0  0  0  0  0  0  0  0  0
  -30.3870  -11.7490   18.5780 C   0  0  0  0  0  2  0  0  0  0  0  0
  -29.3490  -11.7700   17.4470 C   0  0  0  0  0  2  0  0  0  0  0  0
  -27.9250  -11.6840   18.0220 C   0  0  0  0  0  2  0  0  0  0  0  0
  -27.6750  -12.7330   19.1350 C   0  0  0  0  0  3  0  0  0  0  0  0
  -28.8060  -12.7080   20.1860 C   0  0  0  0  0  2  0  0  0  0  0  0
  -30.1080  -12.8520   19.5050 N   0  0  0  0  0  0  0  0  0  0  0  0
  -31.7150  -14.2480   18.6730 O   0  0  0  0  0  0  0  0  0  0  0  0
  -30.8820  -14.5600   20.7390 N   0  0  0  0  0  0  0  0  0  0  0  0
  -30.2390  -14.1860   21.4220 H   0  0  0  0  0  0  0  0  0  0  0  0
  -25.3820  -13.4840   20.0420 C   0  0  0  0  0  0  0  0  0  0  0  0
  -24.3210  -12.7780   20.5420 C   0  0  0  0  0  0  0  0  0  0  0  0
  -24.7150  -11.4060   20.5220 C   0  0  0  0  0  0  0  0  0  0  0  0
  -26.3610  -12.5460   19.7510 N   0  0  0  0  0  0  0  0  0  0  0  0
  -25.9660  -11.2930   20.0930 N   0  0  0  0  0  0  0  0  0  0  0  0
  -23.9560  -10.1870   20.8340 C   0  0  0  0  0  0  0  0  0  0  0  0
  -24.3900   -9.2790   21.8240 C   0  0  0  0  0  3  0  0  0  0  0  0
  -23.6340   -8.1240   22.1160 C   0  0  0  0  0  3  0  0  0  0  0  0
  -22.4280   -7.8690   21.4200 C   0  0  0  0  0  0  0  0  0  0  0  0
  -22.0130   -8.7660   20.4210 C   0  0  0  0  0  3  0  0  0  0  0  0
  -22.7690   -9.9110   20.1260 C   0  0  0  0  0  3  0  0  0  0  0  0
  -21.6420   -6.7610   21.6200 O   0  0  0  0  0  0  0  0  0  0  0  0
  -21.5620   -6.1450   22.8440 C   0  0  0  0  0  0  0  0  0  0  0  0
  -21.1470   -6.8380   24.0010 C   0  0  0  0  0  3  0  0  0  0  0  0
  -21.0120   -6.1500   25.2230 C   0  0  0  0  0  3  0  0  0  0  0  0
  -21.2840   -4.7710   25.2900 C   0  0  0  0  0  0  0  0  0  0  0  0
  -21.6930   -4.0780   24.1370 C   0  0  0  0  0  3  0  0  0  0  0  0
  -21.8290   -4.7620   22.9170 C   0  0  0  0  0  0  0  0  0  0  0  0
  -22.2030   -4.0860   21.8040 F   0  0  0  0  0  0  0  0  0  0  0  0
  -21.1470   -4.1080   26.4620 F   0  0  0  0  0  0  0  0  0  0  0  0
  -22.9800  -13.3320   20.9300 C   0  0  0  0  0  0  0  0  0  0  0  0
  -22.3220  -12.7170   21.9070 N   0  0  0  0  0  0  0  0  0  0  0  0
  -22.5290  -14.3460   20.3980 O   0  0  0  0  0  0  0  0  0  0  0  0
  -22.7010  -11.8970   22.3570 H   0  0  0  0  0  0  0  0  0  0  0  0
  -21.4260  -13.0720   22.2090 H   0  0  0  0  0  0  0  0  0  0  0  0
  -25.5900  -14.8380   19.7930 N   0  0  0  0  0  0  0  0  0  0  0  0
  -24.8690  -15.5340   19.9470 H   0  0  0  0  0  0  0  0  0  0  0  0
  -26.4330  -15.2220   19.3840 H   0  0  0  0  0  0  0  0  0  0  0  0
  1  2  1  0
  3  1  1  0
  4  1  1  0
  4  5  1  0
  6  5  1  0
  7  6  1  0
  8 10  1  0
  8  7  1  0
  9 20  2  0
 10 15  1  0
 11 19  1  0
 11 21  1  0
 12 18  1  0
 12 14  1  0
 13 19  1  0
 14 13  1  0
 15 14  2  0
 16 17  1  0
 16 10  2  0
 17 12  2  0
 18 11  1  0
 19  9  1  0
 21 23  2  0
 22 21  1  0
 24 22  1  0
 25 34  2  0
 25 30  1  0
 26 22  1  0
 26 30  1  0
 27 26  1  0
 28 29  1  0
 28 27  1  0
 29 25  1  0
 30 31  2  0
 31 32  1  0
 33 32  2  0
 34 33  1  0
 35  9  1  0
 35 40  1  0
 35 36  1  0
 36 39  1  1
 36 37  1  0
 38 36  1  0
 40 43  1  0
 41 45  1  0
 41 40  1  0
 42 41  2  0
 45 44  1  0
 47 45  1  0
 47 48  1  0
 47 46  1  0
 49 50  1  0
 49  1  1  0
 51 52  1  0
 51 50  1  0
 53 52  1  0
 53 54  1  0
 55 63  1  0
 56 61  1  0
 57 58  1  0
 57 56  1  0
 59 58  1  0
 59 68  1  0
 59 60  1  0
 61 55  1  0
 61 60  1  0
 62 55  2  0
 63 54  1  0
 63 64  1  0
 65 66  2  0
 66 85  1  0
 67 66  1  0
 67 70  1  0
 68 65  1  0
 68 69  1  0
 69 67  2  0
 70 71  1  0
 71 72  2  0
 73 76  1  0
 73 72  1  0
 74 73  2  0
 75 74  1  0
 75 70  2  0
 76 77  1  0
 77 82  2  0
 77 78  1  0
 78 79  2  0
 79 80  1  0
 80 84  1  0
 81 80  2  0
 82 81  1  0
 83 82  1  0
 85 86  1  0
 86 89  1  0
 86 88  1  0
 87 85  2  0
 90 91  1  0
 90 65  1  0
 92 90  1  0
M  ISO  4   7 101   8 101  55 100  63 100
M  END
>  <TORSDO>  (61) 
F 26

>  <SCORE>  (61) 
-9.133

>  <name>  (61) 
61

>  <ligand_id>  (61) 
61

>  <original_smiles>  (61) 
[H]c1c([H])c([H])c2c(c1[H])C([H])([H])C([H])([H])C([H])([H])C2([H])N([H])C(=O)C1([H])N(C(=O)C([H])(N([H])C(=O)C([H])(N([H])C([H])([H])[H])C([H])([H])[H])C(C([H])([H])[H])(C([H])([H])[H])C([H])([H])[H])C([H])([H])c2c([H])c(OC([H])([H])C([H])([H])C([H])([H])C([H])([H])[N+]([H])([H])C([H])([H])C([H])([H])C([H])([H])C([H])([H])C([H])([H])C([H])([H])N([H])C(=O)N3C([H])([H])C([H])([H])C([H])([H])C([H])(n4nc(-c5c([H])c([H])c(Oc6c([H])c([H])c(F)c([H])c6F)c([H])c5[H])c(C(=O)N([H])[H])c4N([H])[H])C3([H])[H])c([H])c([H])c2C1([H])[H]

>  <smiles>  (61) 
[H]c1c([H])c([H])c2c(c1[H])C([H])([H])C([H])([H])C([H])([H])C2([H])N([H])C(=O)C1([H])N(C(=O)C([H])(N([H])C(=O)C([H])(N([H])C([H])([H])[H])C([H])([H])[H])C(C([H])([H])[H])(C([H])([H])[H])C([H])([H])[H])C([H])([H])c2c([H])c(OC([H])([H])C([H])([H])C([H])([H])C([H])([H])[N+]([H])([H])C([H])([H])C([H])([H])C([H])([H])C([H])([H])C([H])([H])C([H])([H])N([H])C(=O)N3C([H])([H])C([H])([H])C([H])([H])C([H])(n4nc(-c5c([H])c([H])c(Oc6c([H])c([H])c(F)c([H])c6F)c([H])c5[H])c(C(=O)N([H])[H])c4N([H])[H])C3([H])[H])c([H])c([H])c2C1([H])[H]

$$$$
62:0:0
     RDKit          3D

104111  0  0  1  0  0  0  0  0999 V2000
  -21.0890  -21.7600   21.5370 C   0  0  0  0  0  0  0  0  0  0  0  0
  -21.8320  -20.6500   21.5780 N   0  0  0  0  0  0  0  0  0  0  0  0
  -20.4350  -22.0850   20.5410 O   0  0  0  0  0  0  0  0  0  0  0  0
  -22.2810  -20.4190   22.4550 H   0  0  0  0  0  0  0  0  0  0  0  0
  -22.1750  -19.8320   20.4160 C   0  0  0  0  0  2  0  0  0  0  0  0
  -23.5180  -20.2800   19.8040 C   0  0  0  0  0  2  0  0  0  0  0  0
  -24.6310  -19.2220   19.8890 C   0  0  0  0  0  2  0  0  0  0  0  0
  -25.7570  -19.4610   18.8690 C   0  0  0  0  0  2  0  0  0  0  0  0
  -26.9860  -18.7440   19.2640 N   0  0  0  0  0  4  0  0  0  0  0  0
  -26.8990  -17.7750   18.9960 H   0  0  0  0  0  0  0  0  0  0  0  0
  -27.0580  -18.7790   20.2680 H   0  0  0  0  0  0  0  0  0  0  0  0
  -28.2530  -19.2850   18.7310 C   0  0  0  0  0  2  0  0  0  0  0  0
  -29.1350  -18.1970   18.0900 C   0  0  0  0  0  2  0  0  0  0  0  0
  -30.6350  -18.5410   18.1880 C   0  0  0  0  0  2  0  0  0  0  0  0
  -31.5630  -17.3280   18.0340 C   0  0  0  0  0  2  0  0  0  0  0  0
  -32.1810  -15.3790   19.4300 C   0  0  0  0  0  0  0  0  0  0  0  0
  -32.2870  -13.0930   20.3350 C   0  0  0  0  0  2  0  0  0  0  0  0
  -31.5810  -12.1310   19.3590 C   0  0  0  0  0  2  0  0  0  0  0  0
  -30.0660  -12.0700   19.6420 C   0  0  0  0  0  2  0  0  0  0  0  0
  -29.4270  -13.4780   19.7750 C   0  0  0  0  0  3  0  0  0  0  0  0
  -30.2610  -14.3770   20.7190 C   0  0  0  0  0  2  0  0  0  0  0  0
  -31.6470  -14.4110   20.2140 N   0  0  0  0  0  0  0  0  0  0  0  0
  -33.3160  -15.3270   18.9490 O   0  0  0  0  0  0  0  0  0  0  0  0
  -31.3430  -16.3700   19.1100 N   0  0  0  0  0  0  0  0  0  0  0  0
  -30.4400  -16.3640   19.5580 H   0  0  0  0  0  0  0  0  0  0  0  0
  -27.0930  -14.3910   20.3740 C   0  0  0  0  0  0  0  0  0  0  0  0
  -25.9280  -13.7600   20.7110 C   0  0  0  0  0  0  0  0  0  0  0  0
  -26.2190  -12.3600   20.7130 C   0  0  0  0  0  0  0  0  0  0  0  0
  -28.0330  -13.3850   20.2030 N   0  0  0  0  0  0  0  0  0  0  0  0
  -27.5050  -12.1620   20.4620 N   0  0  0  0  0  0  0  0  0  0  0  0
  -25.3340  -11.2000   20.8850 C   0  0  0  0  0  0  0  0  0  0  0  0
  -25.5460  -10.2520   21.9140 C   0  0  0  0  0  3  0  0  0  0  0  0
  -24.6690   -9.1590   22.0680 C   0  0  0  0  0  3  0  0  0  0  0  0
  -23.5640   -9.0040   21.2010 C   0  0  0  0  0  0  0  0  0  0  0  0
  -23.3740   -9.9320   20.1630 C   0  0  0  0  0  3  0  0  0  0  0  0
  -24.2500  -11.0180   20.0030 C   0  0  0  0  0  3  0  0  0  0  0  0
  -22.6750   -7.9580   21.2620 O   0  0  0  0  0  0  0  0  0  0  0  0
  -22.3890   -7.3330   22.4480 C   0  0  0  0  0  0  0  0  0  0  0  0
  -21.7980   -8.0210   23.5320 C   0  0  0  0  0  3  0  0  0  0  0  0
  -21.4580   -7.3230   24.7060 C   0  0  0  0  0  3  0  0  0  0  0  0
  -21.6930   -5.9370   24.7990 C   0  0  0  0  0  0  0  0  0  0  0  0
  -22.2740   -5.2500   23.7190 C   0  0  0  0  0  3  0  0  0  0  0  0
  -22.6200   -5.9470   22.5460 C   0  0  0  0  0  0  0  0  0  0  0  0
  -23.1590   -5.2740   21.5010 F   0  0  0  0  0  0  0  0  0  0  0  0
  -21.3590   -5.2650   25.9250 F   0  0  0  0  0  0  0  0  0  0  0  0
  -24.5900  -14.4070   20.9230 C   0  0  0  0  0  0  0  0  0  0  0  0
  -23.7600  -13.8320   21.7850 N   0  0  0  0  0  0  0  0  0  0  0  0
  -24.2950  -15.4580   20.3560 O   0  0  0  0  0  0  0  0  0  0  0  0
  -24.0110  -12.9780   22.2600 H   0  0  0  0  0  0  0  0  0  0  0  0
  -22.8520  -14.2410   21.9580 H   0  0  0  0  0  0  0  0  0  0  0  0
  -27.4320  -15.7270   20.1830 N   0  0  0  0  0  0  0  0  0  0  0  0
  -26.6570  -16.3240   19.9170 H   0  0  0  0  0  0  0  0  0  0  0  0
  -28.2650  -15.9100   19.6380 H   0  0  0  0  0  0  0  0  0  0  0  0
  -21.1080  -22.6690   22.7720 C   0  0  0  0  0  2  0  0  0  0  0  0
  -22.4030  -23.5140   22.9290 C   0  0  0  0  0  3  0  0  0  0  0  0
  -23.0640  -23.9800   21.6090 C   0  0  0  0  0  3  0  0  0  0  0  0
  -24.4440  -24.6480   21.7710 C   0  0  0  0  0  2  0  0  0  0  0  0
  -25.5200  -24.0190   20.8570 C   0  0  0  0  0  2  0  0  0  0  0  0
  -26.8150  -24.7470   20.8890 N   0  0  0  0  0  4  0  0  0  0  0  0
  -27.5600  -24.0690   20.8930 H   0  0  0  0  0  0  0  0  0  0  0  0
  -26.8700  -25.2620   21.7550 H   0  0  0  0  0  0  0  0  0  0  0  0
  -27.0130  -25.6520   19.7280 C   0  0  0  0  0  2  0  0  0  0  0  0
  -28.2190  -26.6240   19.8500 C   0  0  0  0  0  2  0  0  0  0  0  0
  -28.0620  -27.8150   19.0500 O   0  0  0  0  0  0  0  0  0  0  0  0
  -24.5810  -31.6820   23.8670 C   0  0  0  0  0  0  0  0  0  0  0  0
  -26.9180  -28.5120   19.3470 C   0  0  0  0  0  0  0  0  0  0  0  0
  -23.2070  -30.7220   22.0430 C   0  0  0  0  0  3  0  0  0  0  0  0
  -24.5060  -29.7800   20.0590 C   0  0  0  0  0  0  0  0  0  0  0  0
  -25.6650  -31.3100   21.6570 C   0  0  0  0  0  2  0  0  0  0  0  0
  -25.7110  -30.1910   20.6440 C   0  0  0  0  0  0  0  0  0  0  0  0
  -26.9230  -29.5550   20.2960 C   0  0  0  0  0  3  0  0  0  0  0  0
  -25.7060  -28.1520   18.7210 C   0  0  0  0  0  3  0  0  0  0  0  0
  -24.4940  -28.7590   19.0940 C   0  0  0  0  0  3  0  0  0  0  0  0
  -23.2490  -30.4890   20.5100 C   0  0  0  0  0  2  0  0  0  0  0  0
  -24.5090  -31.2340   22.5800 N   0  0  0  0  0  0  0  0  0  0  0  0
  -23.5780  -31.7140   24.5890 O   0  0  0  0  0  0  0  0  0  0  0  0
  -22.7280  -29.4240   22.7290 C   0  0  0  0  0  0  0  0  0  0  0  0
  -21.4850  -29.0120   22.4270 N   0  0  0  0  0  0  0  0  0  0  0  0
  -23.4720  -28.8000   23.4900 O   0  0  0  0  0  0  0  0  0  0  0  0
  -20.9420  -29.5780   21.7900 H   0  0  0  0  0  0  0  0  0  0  0  0
  -18.6370  -26.8350   21.9890 C   0  0  0  0  0  0  0  0  0  0  0  0
  -20.8300  -27.8090   22.9440 C   0  0  0  0  0  3  0  0  0  0  0  0
  -21.5120  -26.5270   22.4090 C   0  0  0  0  0  2  0  0  0  0  0  0
  -20.8670  -25.9960   21.1250 C   0  0  0  0  0  2  0  0  0  0  0  0
  -19.3900  -25.6710   21.3670 C   0  0  0  0  0  2  0  0  0  0  0  0
  -19.3150  -27.8500   22.7160 C   0  0  0  0  0  0  0  0  0  0  0  0
  -18.5720  -28.9290   23.2430 C   0  0  0  0  0  3  0  0  0  0  0  0
  -17.1800  -29.0070   23.0540 C   0  0  0  0  0  3  0  0  0  0  0  0
  -16.5130  -27.9900   22.3470 C   0  0  0  0  0  3  0  0  0  0  0  0
  -17.2400  -26.9050   21.8250 C   0  0  0  0  0  3  0  0  0  0  0  0
  -25.9210  -32.1990   24.4810 C   0  0  0  0  0  3  0  0  0  0  0  0
  -25.7730  -33.6410   24.7200 N   0  0  0  0  0  0  0  0  0  0  0  0
  -26.2970  -34.5960   23.9420 C   0  0  0  0  0  0  0  0  0  0  0  0
  -27.0210  -34.3530   22.9730 O   0  0  0  0  0  0  0  0  0  0  0  0
  -25.1510  -33.9210   25.4660 H   0  0  0  0  0  0  0  0  0  0  0  0
  -24.8810  -36.5780   23.3260 C   0  0  0  0  0  1  0  0  0  0  0  0
  -25.9580  -36.0590   24.2890 C   0  0  0  0  0  3  0  0  0  0  0  0
  -28.0840  -36.6930   25.3370 C   0  0  0  0  0  1  0  0  0  0  0  0
  -27.1320  -36.9570   24.2600 N   0  0  0  0  0  0  0  0  0  0  0  0
  -26.8450  -37.9290   24.3240 H   0  0  0  0  0  0  0  0  0  0  0  0
  -26.3270  -31.4480   25.8090 C   0  0  1  0  0  0  0  0  0  0  0  0
  -25.2080  -31.4310   26.8770 C   0  0  0  0  0  1  0  0  0  0  0  0
  -26.7150  -29.9810   25.5090 C   0  0  0  0  0  1  0  0  0  0  0  0
  -27.5770  -32.1180   26.4290 C   0  0  0  0  0  1  0  0  0  0  0  0
  1  2  1  0
  1 54  1  0
  2  4  1  0
  3  1  2  0
  5  2  1  0
  6  7  1  0
  6  5  1  0
  8  9  1  0
  8  7  1  0
  9 11  1  0
 10  9  1  0
 12  9  1  0
 13 14  1  0
 13 12  1  0
 15 14  1  0
 15 24  1  0
 16 22  1  0
 18 19  1  0
 18 17  1  0
 20 19  1  0
 20 29  1  0
 20 21  1  0
 22 17  1  0
 22 21  1  0
 23 16  2  0
 24 16  1  0
 24 25  1  0
 26 27  2  0
 27 28  1  0
 27 46  1  0
 28 31  1  0
 29 26  1  0
 29 30  1  0
 30 28  2  0
 31 32  1  0
 32 33  2  0
 34 37  1  0
 34 33  1  0
 35 34  2  0
 36 35  1  0
 36 31  2  0
 37 38  1  0
 38 43  2  0
 38 39  1  0
 39 40  2  0
 40 41  1  0
 41 45  1  0
 42 41  2  0
 43 42  1  0
 44 43  1  0
 46 47  1  0
 47 50  1  0
 47 49  1  0
 48 46  2  0
 51 26  1  0
 52 51  1  0
 53 51  1  0
 54 55  1  0
 56 57  1  0
 56 55  2  0
 58 59  1  0
 58 57  1  0
 59 60  1  0
 59 61  1  0
 62 63  1  0
 62 59  1  0
 64 66  1  0
 64 63  1  0
 65 76  2  0
 66 71  1  0
 67 75  1  0
 67 77  1  0
 68 74  1  0
 68 70  1  0
 69 75  1  0
 70 69  1  0
 71 70  2  0
 72 73  1  0
 72 66  2  0
 73 68  2  0
 74 67  1  0
 75 65  1  0
 77 79  2  0
 78 77  1  0
 80 78  1  0
 81 86  1  0
 82 78  1  0
 83 82  1  0
 84 85  1  0
 84 83  1  0
 85 81  1  0
 86 82  1  0
 86 87  2  0
 88 87  1  0
 89 88  2  0
 90 81  2  0
 90 89  1  0
 91 65  1  0
 91 92  1  0
 91101  1  0
 92 95  1  0
 93 97  1  0
 93 92  1  0
 94 93  2  0
 97 96  1  0
 99 97  1  0
 99100  1  0
 99 98  1  0
101104  1  1
101102  1  0
103101  1  0
M  ISO  4  16 100  24 100  63 101  64 101
M  END
>  <TORSDO>  (62) 
F 33

>  <SCORE>  (62) 
11.506

>  <name>  (62) 
62

>  <ligand_id>  (62) 
62

>  <original_smiles>  (62) 
[H]c1c([H])c([H])c2c(c1[H])C([H])([H])C([H])([H])C([H])([H])C2([H])N([H])C(=O)C1([H])N(C(=O)C([H])(N([H])C(=O)C([H])(N([H])C([H])([H])[H])C([H])([H])[H])C(C([H])([H])[H])(C([H])([H])[H])C([H])([H])[H])C([H])([H])c2c([H])c(OC([H])([H])C([H])([H])[N+]([H])([H])C([H])([H])C([H])([H])C([H])([H])C([H])([H])C([H])([H])C(=O)N([H])C([H])([H])C([H])([H])C([H])([H])C([H])([H])[N+]([H])([H])C([H])([H])C([H])([H])C([H])([H])C([H])([H])N([H])C(=O)N3C([H])([H])C([H])([H])C([H])([H])C([H])(n4nc(-c5c([H])c([H])c(Oc6c([H])c([H])c(F)c([H])c6F)c([H])c5[H])c(C(=O)N([H])[H])c4N([H])[H])C3([H])[H])c([H])c([H])c2C1([H])[H]

>  <smiles>  (62) 
[H]c1c([H])c([H])c2c(c1[H])C([H])([H])C([H])([H])C([H])([H])C2([H])N([H])C(=O)C1([H])N(C(=O)C([H])(N([H])C(=O)C([H])(N([H])C([H])([H])[H])C([H])([H])[H])C(C([H])([H])[H])(C([H])([H])[H])C([H])([H])[H])C([H])([H])c2c([H])c(OC([H])([H])C([H])([H])[N+]([H])([H])C([H])([H])C([H])([H])C([H])([H])C([H])([H])C([H])([H])C(=O)N([H])C([H])([H])C([H])([H])C([H])([H])C([H])([H])[N+]([H])([H])C([H])([H])C([H])([H])C([H])([H])C([H])([H])N([H])C(=O)N3C([H])([H])C([H])([H])C([H])([H])C([H])(n4nc(-c5c([H])c([H])c(Oc6c([H])c([H])c(F)c([H])c6F)c([H])c5[H])c(C(=O)N([H])[H])c4N([H])[H])C3([H])[H])c([H])c([H])c2C1([H])[H]

$$$$
63:0:0
     RDKit          3D

 96103  0  0  1  0  0  0  0  0999 V2000
  -27.1700  -23.3270   21.7650 C   0  0  0  0  0  0  0  0  0  0  0  0
  -26.3670  -23.7960   20.8040 N   0  0  0  0  0  0  0  0  0  0  0  0
  -27.6360  -22.1850   21.7530 O   0  0  0  0  0  0  0  0  0  0  0  0
  -25.9980  -24.7340   20.9050 H   0  0  0  0  0  0  0  0  0  0  0  0
  -27.5640  -24.2910   22.8750 C   0  0  0  0  0  2  0  0  0  0  0  0
  -29.0350  -24.4030   22.9280 N   0  0  0  0  0  4  0  0  0  0  0  0
  -29.3810  -23.9490   22.0980 H   0  0  0  0  0  0  0  0  0  0  0  0
  -29.3720  -23.8600   23.7100 H   0  0  0  0  0  0  0  0  0  0  0  0
  -29.5430  -25.7910   22.9850 C   0  0  0  0  0  2  0  0  0  0  0  0
  -30.6410  -26.0560   21.9340 C   0  0  0  0  0  2  0  0  0  0  0  0
  -30.5720  -27.4040   21.4670 O   0  0  0  0  0  0  0  0  0  0  0  0
  -25.4920  -31.7520   23.8350 C   0  0  0  0  0  0  0  0  0  0  0  0
  -29.3100  -27.9030   21.2560 C   0  0  0  0  0  0  0  0  0  0  0  0
  -24.8290  -30.2260   22.0020 C   0  0  0  0  0  3  0  0  0  0  0  0
  -26.7340  -28.9740   20.8600 C   0  0  0  0  0  0  0  0  0  0  0  0
  -27.2540  -30.9890   22.2500 C   0  0  0  0  0  2  0  0  0  0  0  0
  -27.6680  -29.6690   21.6370 C   0  0  0  0  0  0  0  0  0  0  0  0
  -28.9600  -29.1400   21.8310 C   0  0  0  0  0  3  0  0  0  0  0  0
  -28.3590  -27.2040   20.4800 C   0  0  0  0  0  3  0  0  0  0  0  0
  -27.0700  -27.7380   20.2810 C   0  0  0  0  0  3  0  0  0  0  0  0
  -25.3800  -29.6190   20.6830 C   0  0  0  0  0  2  0  0  0  0  0  0
  -25.8630  -31.0040   22.7580 N   0  0  0  0  0  0  0  0  0  0  0  0
  -24.3040  -31.8390   24.1760 O   0  0  0  0  0  0  0  0  0  0  0  0
  -24.1850  -29.0920   22.8330 C   0  0  0  0  0  0  0  0  0  0  0  0
  -22.9730  -28.6760   22.4350 N   0  0  0  0  0  0  0  0  0  0  0  0
  -24.7880  -28.5910   23.7860 O   0  0  0  0  0  0  0  0  0  0  0  0
  -22.5540  -29.1360   21.6380 H   0  0  0  0  0  0  0  0  0  0  0  0
  -19.7720  -27.0050   22.3690 C   0  0  0  0  0  0  0  0  0  0  0  0
  -22.1960  -27.5950   23.0400 C   0  0  0  0  0  3  0  0  0  0  0  0
  -22.5880  -26.2250   22.4410 C   0  0  0  0  0  2  0  0  0  0  0  0
  -21.7060  -25.8030   21.2610 C   0  0  0  0  0  2  0  0  0  0  0  0
  -20.2380  -25.7280   21.6880 C   0  0  0  0  0  2  0  0  0  0  0  0
  -20.6930  -27.8890   22.9890 C   0  0  0  0  0  0  0  0  0  0  0  0
  -20.2120  -29.0810   23.5720 C   0  0  0  0  0  3  0  0  0  0  0  0
  -18.8390  -29.3920   23.5450 C   0  0  0  0  0  3  0  0  0  0  0  0
  -17.9300  -28.5050   22.9460 C   0  0  0  0  0  3  0  0  0  0  0  0
  -18.3970  -27.3120   22.3640 C   0  0  0  0  0  3  0  0  0  0  0  0
  -26.5370  -32.5520   24.6760 C   0  0  0  0  0  3  0  0  0  0  0  0
  -26.0330  -33.9240   24.8180 N   0  0  0  0  0  0  0  0  0  0  0  0
  -26.4060  -34.9540   24.0450 C   0  0  0  0  0  0  0  0  0  0  0  0
  -27.2740  -34.8580   23.1740 O   0  0  0  0  0  0  0  0  0  0  0  0
  -25.2750  -34.0620   25.4700 H   0  0  0  0  0  0  0  0  0  0  0  0
  -24.6120  -36.5060   23.2090 C   0  0  0  0  0  1  0  0  0  0  0  0
  -25.7020  -36.3050   24.2730 C   0  0  0  0  0  3  0  0  0  0  0  0
  -27.5620  -37.4630   25.3840 C   0  0  0  0  0  1  0  0  0  0  0  0
  -26.6280  -37.4590   24.2610 N   0  0  0  0  0  0  0  0  0  0  0  0
  -26.1110  -38.3330   24.2770 H   0  0  0  0  0  0  0  0  0  0  0  0
  -26.8200  -31.9120   26.0920 C   0  0  1  0  0  0  0  0  0  0  0  0
  -25.5390  -31.5120   26.8590 C   0  0  0  0  0  1  0  0  0  0  0  0
  -27.7020  -30.6490   25.9490 C   0  0  0  0  0  1  0  0  0  0  0  0
  -27.6120  -32.9090   26.9700 C   0  0  0  0  0  1  0  0  0  0  0  0
  -26.0590  -23.0960   19.5610 C   0  0  0  0  0  2  0  0  0  0  0  0
  -26.7470  -23.7840   18.3630 C   0  0  0  0  0  2  0  0  0  0  0  0
  -27.8630  -22.9600   17.7040 C   0  0  0  0  0  2  0  0  0  0  0  0
  -29.2220  -23.7000   17.6930 C   0  0  0  0  0  2  0  0  0  0  0  0
  -30.4010  -22.9520   18.3880 C   0  0  0  0  0  2  0  0  0  0  0  0
  -31.9230  -23.1960   18.1620 C   0  0  0  0  0  2  0  0  0  0  0  0
  -32.7170  -23.5810   19.4250 C   0  0  0  0  0  2  0  0  0  0  0  0
  -34.7740  -22.5700   20.4320 C   0  0  0  0  0  0  0  0  0  0  0  0
  -35.5390  -20.4940   21.5070 C   0  0  0  0  0  2  0  0  0  0  0  0
  -35.6050  -19.3700   20.4500 C   0  0  0  0  0  2  0  0  0  0  0  0
  -34.2380  -18.6720   20.3000 C   0  0  0  0  0  2  0  0  0  0  0  0
  -33.0610  -19.6750   20.1480 C   0  0  0  0  0  3  0  0  0  0  0  0
  -33.1500  -20.7890   21.2160 C   0  0  0  0  0  2  0  0  0  0  0  0
  -34.4720  -21.4210   21.0960 N   0  0  0  0  0  0  0  0  0  0  0  0
  -35.8950  -23.0770   20.4390 O   0  0  0  0  0  0  0  0  0  0  0  0
  -33.9870  -22.8650   19.3950 N   0  0  0  0  0  0  0  0  0  0  0  0
  -34.5480  -23.1750   18.6150 H   0  0  0  0  0  0  0  0  0  0  0  0
  -30.4890  -19.5140   20.1310 C   0  0  0  0  0  0  0  0  0  0  0  0
  -29.6380  -18.4420   20.1240 C   0  0  0  0  0  0  0  0  0  0  0  0
  -30.4700  -17.2810   20.1570 C   0  0  0  0  0  0  0  0  0  0  0  0
  -31.7710  -18.9880   20.1870 N   0  0  0  0  0  0  0  0  0  0  0  0
  -31.7470  -17.6310   20.2510 N   0  0  0  0  0  0  0  0  0  0  0  0
  -30.1270  -15.8590   20.0430 C   0  0  0  0  0  0  0  0  0  0  0  0
  -30.1460  -15.0030   21.1650 C   0  0  0  0  0  3  0  0  0  0  0  0
  -29.7930  -13.6440   21.0340 C   0  0  0  0  0  3  0  0  0  0  0  0
  -29.4130  -13.1290   19.7720 C   0  0  0  0  0  0  0  0  0  0  0  0
  -29.4180  -13.9800   18.6530 C   0  0  0  0  0  3  0  0  0  0  0  0
  -29.7740  -15.3320   18.7850 C   0  0  0  0  0  3  0  0  0  0  0  0
  -29.0790  -11.8160   19.5430 O   0  0  0  0  0  0  0  0  0  0  0  0
  -28.2470  -11.1270   20.3880 C   0  0  0  0  0  0  0  0  0  0  0  0
  -26.8940  -11.4940   20.5620 C   0  0  0  0  0  3  0  0  0  0  0  0
  -26.0550  -10.7210   21.3880 C   0  0  0  0  0  3  0  0  0  0  0  0
  -26.5620   -9.5750   22.0310 C   0  0  0  0  0  0  0  0  0  0  0  0
  -27.9060   -9.2030   21.8540 C   0  0  0  0  0  3  0  0  0  0  0  0
  -28.7450   -9.9760   21.0320 C   0  0  0  0  0  0  0  0  0  0  0  0
  -30.0340   -9.6040   20.8470 F   0  0  0  0  0  0  0  0  0  0  0  0
  -25.7550   -8.8270   22.8190 F   0  0  0  0  0  0  0  0  0  0  0  0
  -28.1430  -18.4880   19.9970 C   0  0  0  0  0  0  0  0  0  0  0  0
  -27.4510  -17.5040   20.5610 N   0  0  0  0  0  0  0  0  0  0  0  0
  -27.5760  -19.4280   19.4410 O   0  0  0  0  0  0  0  0  0  0  0  0
  -27.9180  -16.7490   21.0410 H   0  0  0  0  0  0  0  0  0  0  0  0
  -26.4410  -17.5090   20.5170 H   0  0  0  0  0  0  0  0  0  0  0  0
  -30.2730  -20.8840   20.0600 N   0  0  0  0  0  0  0  0  0  0  0  0
  -29.3470  -21.2650   19.9030 H   0  0  0  0  0  0  0  0  0  0  0  0
  -31.0030  -21.5810   20.0190 H   0  0  0  0  0  0  0  0  0  0  0  0
  1  5  1  0
  2  4  1  0
  2  1  1  0
  3  1  2  0
  5  6  1  0
  6  9  1  0
  6  8  1  0
  7  6  1  0
 10  9  1  0
 11 10  1  0
 12 23  2  0
 13 11  1  0
 13 18  1  0
 14 22  1  0
 14 24  1  0
 15 17  1  0
 16 22  1  0
 17 18  2  0
 17 16  1  0
 19 13  2  0
 20 19  1  0
 20 15  2  0
 21 15  1  0
 21 14  1  0
 22 12  1  0
 24 26  2  0
 25 24  1  0
 27 25  1  0
 28 33  1  0
 29 25  1  0
 30 29  1  0
 31 32  1  0
 31 30  1  0
 32 28  1  0
 33 29  1  0
 33 34  2  0
 35 34  1  0
 36 35  2  0
 37 28  2  0
 37 36  1  0
 38 12  1  0
 38 39  1  0
 38 48  1  0
 39 42  1  0
 40 44  1  0
 40 39  1  0
 41 40  2  0
 44 43  1  0
 46 44  1  0
 46 47  1  0
 46 45  1  0
 48 49  1  1
 48 51  1  0
 50 48  1  0
 52  2  1  0
 53 52  1  0
 54 53  1  0
 55 54  1  0
 55 56  1  0
 57 56  1  0
 57 58  1  0
 59 66  2  0
 59 65  1  0
 61 60  1  0
 62 61  1  0
 63 72  1  0
 63 62  1  0
 63 64  1  0
 65 64  1  0
 65 60  1  0
 67 58  1  0
 67 59  1  0
 68 67  1  0
 69 72  1  0
 70 69  2  0
 70 71  1  0
 71 73  2  0
 72 73  1  0
 74 71  1  0
 74 75  1  0
 76 75  2  0
 77 76  1  0
 78 79  1  0
 78 77  2  0
 79 74  2  0
 80 77  1  0
 80 81  1  0
 81 82  2  0
 81 86  1  0
 82 83  1  0
 83 84  2  0
 84 88  1  0
 85 84  1  0
 86 85  2  0
 87 86  1  0
 89 70  1  0
 89 90  1  0
 90 92  1  0
 91 89  2  0
 93 90  1  0
 94 69  1  0
 95 94  1  0
 96 94  1  0
M  ISO  4  10 101  11 101  59 100  67 100
M  END
>  <TORSDO>  (63) 
F 27

>  <SCORE>  (63) 
-6.116

>  <name>  (63) 
63

>  <ligand_id>  (63) 
63

>  <original_smiles>  (63) 
[H]c1c([H])c([H])c2c(c1[H])C([H])([H])C([H])([H])C([H])([H])C2([H])N([H])C(=O)C1([H])N(C(=O)C([H])(N([H])C(=O)C([H])(N([H])C([H])([H])[H])C([H])([H])[H])C(C([H])([H])[H])(C([H])([H])[H])C([H])([H])[H])C([H])([H])c2c([H])c(OC([H])([H])C([H])([H])[N+]([H])([H])C([H])([H])C(=O)N([H])C([H])([H])C([H])([H])C([H])([H])C([H])([H])C([H])([H])C([H])([H])C([H])([H])N([H])C(=O)N3C([H])([H])C([H])([H])C([H])([H])C([H])(n4nc(-c5c([H])c([H])c(Oc6c([H])c([H])c(F)c([H])c6F)c([H])c5[H])c(C(=O)N([H])[H])c4N([H])[H])C3([H])[H])c([H])c([H])c2C1([H])[H]

>  <smiles>  (63) 
[H]c1c([H])c([H])c2c(c1[H])C([H])([H])C([H])([H])C([H])([H])C2([H])N([H])C(=O)C1([H])N(C(=O)C([H])(N([H])C(=O)C([H])(N([H])C([H])([H])[H])C([H])([H])[H])C(C([H])([H])[H])(C([H])([H])[H])C([H])([H])[H])C([H])([H])c2c([H])c(OC([H])([H])C([H])([H])[N+]([H])([H])C([H])([H])C(=O)N([H])C([H])([H])C([H])([H])C([H])([H])C([H])([H])C([H])([H])C([H])([H])C([H])([H])N([H])C(=O)N3C([H])([H])C([H])([H])C([H])([H])C([H])(n4nc(-c5c([H])c([H])c(Oc6c([H])c([H])c(F)c([H])c6F)c([H])c5[H])c(C(=O)N([H])[H])c4N([H])[H])C3([H])[H])c([H])c([H])c2C1([H])[H]

$$$$
64:0:0
     RDKit          3D

 99106  0  0  1  0  0  0  0  0999 V2000
  -23.6760  -22.7230   24.2060 N   0  0  0  0  0  4  0  0  0  0  0  0
  -24.5770  -22.4060   23.8820 H   0  0  0  0  0  0  0  0  0  0  0  0
  -23.8040  -23.0230   25.1600 H   0  0  0  0  0  0  0  0  0  0  0  0
  -23.2340  -23.8550   23.3680 C   0  0  0  0  0  2  0  0  0  0  0  0
  -24.0220  -23.9390   22.0410 C   0  0  0  0  0  2  0  0  0  0  0  0
  -25.5070  -24.2930   22.2560 C   0  0  0  0  0  2  0  0  0  0  0  0
  -26.3170  -24.4170   20.9570 C   0  0  0  0  0  2  0  0  0  0  0  0
  -27.6830  -25.1050   21.1770 C   0  0  0  0  0  2  0  0  0  0  0  0
  -28.3120  -25.6870   19.8930 C   0  0  0  0  0  2  0  0  0  0  0  0
  -28.3830  -27.1170   19.9270 O   0  0  0  0  0  0  0  0  0  0  0  0
  -24.7700  -32.0710   23.5080 C   0  0  0  0  0  0  0  0  0  0  0  0
  -27.2060  -27.8320   20.0030 C   0  0  0  0  0  0  0  0  0  0  0  0
  -23.4710  -30.8050   21.8320 C   0  0  0  0  0  3  0  0  0  0  0  0
  -24.8300  -29.3450   20.2470 C   0  0  0  0  0  0  0  0  0  0  0  0
  -25.9900  -31.1360   21.5490 C   0  0  0  0  0  2  0  0  0  0  0  0
  -26.0210  -29.8130   20.8150 C   0  0  0  0  0  0  0  0  0  0  0  0
  -27.2090  -29.0610   20.6940 C   0  0  0  0  0  3  0  0  0  0  0  0
  -26.0030  -27.3930   19.4010 C   0  0  0  0  0  3  0  0  0  0  0  0
  -24.8120  -28.1280   19.5470 C   0  0  0  0  0  3  0  0  0  0  0  0
  -23.6060  -30.2190   20.4040 C   0  0  0  0  0  2  0  0  0  0  0  0
  -24.7660  -31.3430   22.3560 N   0  0  0  0  0  0  0  0  0  0  0  0
  -23.7210  -32.3240   24.1120 O   0  0  0  0  0  0  0  0  0  0  0  0
  -22.8470  -29.7260   22.7450 C   0  0  0  0  0  0  0  0  0  0  0  0
  -21.5390  -29.4810   22.5680 N   0  0  0  0  0  0  0  0  0  0  0  0
  -23.5340  -29.1170   23.5680 O   0  0  0  0  0  0  0  0  0  0  0  0
  -21.0420  -30.0240   21.8770 H   0  0  0  0  0  0  0  0  0  0  0  0
  -18.2420  -28.0370   22.8530 C   0  0  0  0  0  0  0  0  0  0  0  0
  -20.7480  -28.4910   23.2950 C   0  0  0  0  0  3  0  0  0  0  0  0
  -20.9970  -27.0660   22.7500 C   0  0  0  0  0  2  0  0  0  0  0  0
  -19.9940  -26.6480   21.6680 C   0  0  0  0  0  2  0  0  0  0  0  0
  -18.5650  -26.6970   22.2100 C   0  0  0  0  0  2  0  0  0  0  0  0
  -19.2680  -28.8850   23.3490 C   0  0  0  0  0  0  0  0  0  0  0  0
  -18.9160  -30.1340   23.9080 C   0  0  0  0  0  3  0  0  0  0  0  0
  -17.5690  -30.5360   23.9790 C   0  0  0  0  0  3  0  0  0  0  0  0
  -16.5570  -29.6870   23.4980 C   0  0  0  0  0  3  0  0  0  0  0  0
  -16.8930  -28.4410   22.9410 C   0  0  0  0  0  3  0  0  0  0  0  0
  -26.0930  -32.6400   24.1080 C   0  0  0  0  0  3  0  0  0  0  0  0
  -25.8590  -34.0550   24.4280 N   0  0  0  0  0  0  0  0  0  0  0  0
  -26.2780  -35.0810   23.6770 C   0  0  0  0  0  0  0  0  0  0  0  0
  -26.9710  -34.9340   22.6670 O   0  0  0  0  0  0  0  0  0  0  0  0
  -25.2460  -34.2460   25.2070 H   0  0  0  0  0  0  0  0  0  0  0  0
  -24.6890  -36.9810   23.2410 C   0  0  0  0  0  1  0  0  0  0  0  0
  -25.8570  -36.4960   24.1170 C   0  0  0  0  0  3  0  0  0  0  0  0
  -27.9960  -37.2380   25.0660 C   0  0  0  0  0  1  0  0  0  0  0  0
  -26.9600  -37.4800   24.0650 N   0  0  0  0  0  0  0  0  0  0  0  0
  -26.6080  -38.4230   24.1960 H   0  0  0  0  0  0  0  0  0  0  0  0
  -26.5830  -31.8500   25.3830 C   0  0  1  0  0  0  0  0  0  0  0  0
  -25.4930  -31.6750   26.4650 C   0  0  0  0  0  1  0  0  0  0  0  0
  -27.0810  -30.4410   24.9880 C   0  0  0  0  0  1  0  0  0  0  0  0
  -27.7870  -32.5830   26.0220 C   0  0  0  0  0  1  0  0  0  0  0  0
  -22.7840  -21.5490   24.2200 C   0  0  0  0  0  2  0  0  0  0  0  0
  -23.6470  -20.2940   24.1720 C   0  0  0  0  0  0  0  0  0  0  0  0
  -23.2870  -19.3330   23.3150 N   0  0  0  0  0  0  0  0  0  0  0  0
  -24.6660  -20.2250   24.8620 O   0  0  0  0  0  0  0  0  0  0  0  0
  -22.4090  -19.4370   22.8230 H   0  0  0  0  0  0  0  0  0  0  0  0
  -24.1130  -18.1880   22.9450 C   0  0  0  0  0  2  0  0  0  0  0  0
  -24.8790  -18.4530   21.6320 C   0  0  0  0  0  2  0  0  0  0  0  0
  -25.7540  -17.2680   21.2110 C   0  0  0  0  0  2  0  0  0  0  0  0
  -26.9090  -17.6640   20.2690 C   0  0  0  0  0  2  0  0  0  0  0  0
  -27.8460  -16.4790   20.0560 C   0  0  0  0  0  2  0  0  0  0  0  0
  -29.3030  -16.8370   19.7080 C   0  0  0  0  0  2  0  0  0  0  0  0
  -30.3590  -14.7030   19.0500 C   0  0  0  0  0  0  0  0  0  0  0  0
  -30.6350  -12.2570   18.9630 C   0  0  0  0  0  2  0  0  0  0  0  0
  -29.6210  -11.5460   18.0490 C   0  0  0  0  0  2  0  0  0  0  0  0
  -28.2740  -11.3090   18.7540 C   0  0  0  0  0  2  0  0  0  0  0  0
  -27.7330  -12.5850   19.4450 C   0  0  0  0  0  3  0  0  0  0  0  0
  -28.8420  -13.1800   20.3420 C   0  0  0  0  0  2  0  0  0  0  0  0
  -30.0300  -13.4730   19.5050 N   0  0  0  0  0  0  0  0  0  0  0  0
  -31.0010  -14.9270   18.0160 O   0  0  0  0  0  0  0  0  0  0  0  0
  -30.1010  -15.6480   19.9560 N   0  0  0  0  0  0  0  0  0  0  0  0
  -29.9730  -15.2650   20.8820 H   0  0  0  0  0  0  0  0  0  0  0  0
  -25.6160  -13.1790   20.8000 C   0  0  0  0  0  0  0  0  0  0  0  0
  -24.6130  -12.4000   21.3140 C   0  0  0  0  0  0  0  0  0  0  0  0
  -24.9500  -11.0530   20.9760 C   0  0  0  0  0  0  0  0  0  0  0  0
  -26.5110  -12.3040   20.2010 N   0  0  0  0  0  0  0  0  0  0  0  0
  -26.1200  -11.0150   20.3560 N   0  0  0  0  0  0  0  0  0  0  0  0
  -24.2060   -9.8010   21.1600 C   0  0  0  0  0  0  0  0  0  0  0  0
  -24.6730   -8.7840   22.0210 C   0  0  0  0  0  3  0  0  0  0  0  0
  -23.9260   -7.6000   22.2000 C   0  0  0  0  0  3  0  0  0  0  0  0
  -22.7020   -7.4220   21.5120 C   0  0  0  0  0  0  0  0  0  0  0  0
  -22.2550   -8.4280   20.6370 C   0  0  0  0  0  3  0  0  0  0  0  0
  -23.0010   -9.6060   20.4610 C   0  0  0  0  0  3  0  0  0  0  0  0
  -21.9250   -6.2920   21.6000 O   0  0  0  0  0  0  0  0  0  0  0  0
  -21.7660   -5.6200   22.7850 C   0  0  0  0  0  0  0  0  0  0  0  0
  -21.1870   -6.2310   23.9190 C   0  0  0  0  0  3  0  0  0  0  0  0
  -20.9810   -5.4790   25.0930 C   0  0  0  0  0  3  0  0  0  0  0  0
  -21.3450   -4.1200   25.1330 C   0  0  0  0  0  0  0  0  0  0  0  0
  -21.9170   -3.5100   24.0040 C   0  0  0  0  0  3  0  0  0  0  0  0
  -22.1260   -4.2570   22.8320 C   0  0  0  0  0  0  0  0  0  0  0  0
  -22.6630   -3.6610   21.7400 F   0  0  0  0  0  0  0  0  0  0  0  0
  -21.1410   -3.3950   26.2590 F   0  0  0  0  0  0  0  0  0  0  0  0
  -23.3630  -12.8790   21.9980 C   0  0  0  0  0  0  0  0  0  0  0  0
  -22.8020  -12.0770   22.8960 N   0  0  0  0  0  0  0  0  0  0  0  0
  -22.9030  -14.0000   21.7760 O   0  0  0  0  0  0  0  0  0  0  0  0
  -23.1860  -11.1660   23.0990 H   0  0  0  0  0  0  0  0  0  0  0  0
  -21.9780  -12.3800   23.3940 H   0  0  0  0  0  0  0  0  0  0  0  0
  -25.8210  -14.5550   20.7790 N   0  0  0  0  0  0  0  0  0  0  0  0
  -25.1150  -15.1860   21.1370 H   0  0  0  0  0  0  0  0  0  0  0  0
  -26.5720  -15.0320   20.2940 H   0  0  0  0  0  0  0  0  0  0  0  0
  1 51  1  0
  1  3  1  0
  2  1  1  0
  4  1  1  0
  5  6  1  0
  5  4  1  0
  7  8  1  0
  7  6  1  0
  9 10  1  0
  9  8  1  0
 10 12  1  0
 11 22  2  0
 12 17  1  0
 13 21  1  0
 13 23  1  0
 14 20  1  0
 14 16  1  0
 15 21  1  0
 16 15  1  0
 17 16  2  0
 18 19  1  0
 18 12  2  0
 19 14  2  0
 20 13  1  0
 21 11  1  0
 23 25  2  0
 24 23  1  0
 26 24  1  0
 27 36  2  0
 27 32  1  0
 28 24  1  0
 28 32  1  0
 29 28  1  0
 30 31  1  0
 30 29  1  0
 31 27  1  0
 32 33  2  0
 33 34  1  0
 35 34  2  0
 36 35  1  0
 37 11  1  0
 37 38  1  0
 37 47  1  0
 38 41  1  0
 39 43  1  0
 39 38  1  0
 40 39  2  0
 43 42  1  0
 45 43  1  0
 45 46  1  0
 45 44  1  0
 47 50  1  1
 47 48  1  0
 49 47  1  0
 52 51  1  0
 52 54  2  0
 53 52  1  0
 55 53  1  0
 56 53  1  0
 57 56  1  0
 58 57  1  0
 59 58  1  0
 60 59  1  0
 61 70  1  0
 61 60  1  0
 62 68  1  0
 62 70  1  0
 63 68  1  0
 64 65  1  0
 64 63  1  0
 66 65  1  0
 66 75  1  0
 66 67  1  0
 68 67  1  0
 69 62  2  0
 70 71  1  0
 72 73  2  0
 73 92  1  0
 74 77  1  0
 74 73  1  0
 75 76  1  0
 75 72  1  0
 76 74  2  0
 77 78  1  0
 78 79  2  0
 80 83  1  0
 80 79  1  0
 81 80  2  0
 82 81  1  0
 82 77  2  0
 83 84  1  0
 84 89  2  0
 84 85  1  0
 85 86  2  0
 86 87  1  0
 87 91  1  0
 88 87  2  0
 89 88  1  0
 90 89  1  0
 92 93  1  0
 93 95  1  0
 93 96  1  0
 94 92  2  0
 97 72  1  0
 97 98  1  0
 99 97  1  0
M  ISO  4   9 101  10 101  62 100  70 100
M  END
>  <TORSDO>  (64) 
F 30

>  <SCORE>  (64) 
26.753

>  <name>  (64) 
64

>  <ligand_id>  (64) 
64

>  <original_smiles>  (64) 
[H]c1c([H])c([H])c2c(c1[H])C([H])([H])C([H])([H])C([H])([H])C2([H])N([H])C(=O)C1([H])N(C(=O)C([H])(N([H])C(=O)C([H])(N([H])C([H])([H])[H])C([H])([H])[H])C(C([H])([H])[H])(C([H])([H])[H])C([H])([H])[H])C([H])([H])c2c([H])c(OC([H])([H])C([H])([H])C([H])([H])C([H])([H])C([H])([H])C([H])([H])[N+]([H])([H])C([H])([H])C(=O)N([H])C([H])([H])C([H])([H])C([H])([H])C([H])([H])C([H])([H])C([H])([H])N([H])C(=O)N3C([H])([H])C([H])([H])C([H])([H])C([H])(n4nc(-c5c([H])c([H])c(Oc6c([H])c([H])c(F)c([H])c6F)c([H])c5[H])c(C(=O)N([H])[H])c4N([H])[H])C3([H])[H])c([H])c([H])c2C1([H])[H]

>  <smiles>  (64) 
[H]c1c([H])c([H])c2c(c1[H])C([H])([H])C([H])([H])C([H])([H])C2([H])N([H])C(=O)C1([H])N(C(=O)C([H])(N([H])C(=O)C([H])(N([H])C([H])([H])[H])C([H])([H])[H])C(C([H])([H])[H])(C([H])([H])[H])C([H])([H])[H])C([H])([H])c2c([H])c(OC([H])([H])C([H])([H])C([H])([H])C([H])([H])C([H])([H])C([H])([H])[N+]([H])([H])C([H])([H])C(=O)N([H])C([H])([H])C([H])([H])C([H])([H])C([H])([H])C([H])([H])C([H])([H])N([H])C(=O)N3C([H])([H])C([H])([H])C([H])([H])C([H])(n4nc(-c5c([H])c([H])c(Oc6c([H])c([H])c(F)c([H])c6F)c([H])c5[H])c(C(=O)N([H])[H])c4N([H])[H])C3([H])[H])c([H])c([H])c2C1([H])[H]

$$$$
65:0:0
     RDKit          3D

 93100  0  0  1  0  0  0  0  0999 V2000
  -26.9820  -22.1520   21.9170 C   0  0  0  0  0  2  0  0  0  0  0  0
  -28.2980  -21.6470   21.2880 C   0  0  0  0  0  2  0  0  0  0  0  0
  -28.1660  -20.2400   20.6960 C   0  0  0  0  0  2  0  0  0  0  0  0
  -29.4390  -19.7880   19.9630 C   0  0  0  0  0  2  0  0  0  0  0  0
  -29.8560  -17.3470   19.6660 C   0  0  0  0  0  0  0  0  0  0  0  0
  -29.7940  -18.4510   20.4140 N   0  0  0  0  0  0  0  0  0  0  0  0
  -29.8140  -17.3500   18.4330 O   0  0  0  0  0  0  0  0  0  0  0  0
  -29.9080  -18.3340   21.4140 H   0  0  0  0  0  0  0  0  0  0  0  0
  -29.9220  -16.0360   20.4340 C   0  0  0  0  0  2  0  0  0  0  0  0
  -31.3080  -14.3410   19.2650 C   0  0  0  0  0  0  0  0  0  0  0  0
  -31.0480  -11.9300   18.8110 C   0  0  0  0  0  2  0  0  0  0  0  0
  -29.9930  -11.6560   17.7220 C   0  0  0  0  0  2  0  0  0  0  0  0
  -28.5810  -11.5710   18.3240 C   0  0  0  0  0  2  0  0  0  0  0  0
  -28.2710  -12.7730   19.2520 C   0  0  0  0  0  3  0  0  0  0  0  0
  -29.4170  -12.9620   20.2680 C   0  0  0  0  0  2  0  0  0  0  0  0
  -30.6760  -13.1610   19.5260 N   0  0  0  0  0  0  0  0  0  0  0  0
  -32.1930  -14.4530   18.4130 O   0  0  0  0  0  0  0  0  0  0  0  0
  -31.1630  -15.3140   20.1690 N   0  0  0  0  0  0  0  0  0  0  0  0
  -31.9430  -15.9530   20.1420 H   0  0  0  0  0  0  0  0  0  0  0  0
  -26.1040  -13.5890   20.3880 C   0  0  0  0  0  0  0  0  0  0  0  0
  -25.0140  -12.9110   20.8640 C   0  0  0  0  0  0  0  0  0  0  0  0
  -25.2810  -11.5250   20.6400 C   0  0  0  0  0  0  0  0  0  0  0  0
  -26.9760  -12.6190   19.9150 N   0  0  0  0  0  0  0  0  0  0  0  0
  -26.4900  -11.3690   20.1180 N   0  0  0  0  0  0  0  0  0  0  0  0
  -24.4350  -10.3430   20.8430 C   0  0  0  0  0  0  0  0  0  0  0  0
  -24.8080   -9.3140   21.7350 C   0  0  0  0  0  3  0  0  0  0  0  0
  -23.9690   -8.1930   21.9250 C   0  0  0  0  0  3  0  0  0  0  0  0
  -22.7440   -8.0980   21.2250 C   0  0  0  0  0  0  0  0  0  0  0  0
  -22.3880   -9.1150   20.3210 C   0  0  0  0  0  3  0  0  0  0  0  0
  -23.2260  -10.2260   20.1280 C   0  0  0  0  0  3  0  0  0  0  0  0
  -21.8780   -7.0340   21.3250 O   0  0  0  0  0  0  0  0  0  0  0  0
  -21.6700   -6.3880   22.5170 C   0  0  0  0  0  0  0  0  0  0  0  0
  -21.2320   -7.0730   23.6720 C   0  0  0  0  0  3  0  0  0  0  0  0
  -20.9660   -6.3580   24.8560 C   0  0  0  0  0  3  0  0  0  0  0  0
  -21.1260   -4.9580   24.8860 C   0  0  0  0  0  0  0  0  0  0  0  0
  -21.5560   -4.2750   23.7350 C   0  0  0  0  0  3  0  0  0  0  0  0
  -21.8270   -4.9870   22.5530 C   0  0  0  0  0  0  0  0  0  0  0  0
  -22.2230   -4.3210   21.4420 F   0  0  0  0  0  0  0  0  0  0  0  0
  -20.8630   -4.2690   26.0200 F   0  0  0  0  0  0  0  0  0  0  0  0
  -23.7530  -13.5150   21.4070 C   0  0  0  0  0  0  0  0  0  0  0  0
  -23.0980  -12.8360   22.3420 N   0  0  0  0  0  0  0  0  0  0  0  0
  -23.3630  -14.6210   21.0360 O   0  0  0  0  0  0  0  0  0  0  0  0
  -23.4280  -11.9350   22.6590 H   0  0  0  0  0  0  0  0  0  0  0  0
  -22.2560  -13.2220   22.7470 H   0  0  0  0  0  0  0  0  0  0  0  0
  -26.4200  -14.9420   20.3050 N   0  0  0  0  0  0  0  0  0  0  0  0
  -25.7620  -15.6580   20.5890 H   0  0  0  0  0  0  0  0  0  0  0  0
  -27.2350  -15.3160   19.8370 H   0  0  0  0  0  0  0  0  0  0  0  0
  -26.8640  -23.6790   21.8730 C   0  0  0  0  0  2  0  0  0  0  0  0
  -27.3120  -24.0700   20.5870 O   0  0  0  0  0  0  0  0  0  0  0  0
  -27.3590  -25.4640   20.3780 C   0  0  0  0  0  2  0  0  0  0  0  0
  -28.2930  -25.6820   19.1810 C   0  0  0  0  0  2  0  0  0  0  0  0
  -28.4520  -27.1490   18.7690 C   0  0  0  0  0  2  0  0  0  0  0  0
  -27.3860  -27.4700   17.8860 O   0  0  0  0  0  0  0  0  0  0  0  0
  -24.6490  -31.4380   23.1550 C   0  0  0  0  0  0  0  0  0  0  0  0
  -26.3140  -28.1240   18.4350 C   0  0  0  0  0  0  0  0  0  0  0  0
  -23.0360  -30.5620   21.4930 C   0  0  0  0  0  3  0  0  0  0  0  0
  -24.0610  -29.4990   19.4150 C   0  0  0  0  0  0  0  0  0  0  0  0
  -25.4750  -30.9770   20.8560 C   0  0  0  0  0  2  0  0  0  0  0  0
  -25.3420  -29.8450   19.8620 C   0  0  0  0  0  0  0  0  0  0  0  0
  -26.4730  -29.1570   19.3840 C   0  0  0  0  0  3  0  0  0  0  0  0
  -25.0250  -27.7910   17.9800 C   0  0  0  0  0  3  0  0  0  0  0  0
  -23.8920  -28.4610   18.4790 C   0  0  0  0  0  3  0  0  0  0  0  0
  -22.9050  -30.3020   19.9680 C   0  0  0  0  0  2  0  0  0  0  0  0
  -24.4170  -30.9890   21.8890 N   0  0  0  0  0  0  0  0  0  0  0  0
  -23.7270  -31.5410   23.9770 O   0  0  0  0  0  0  0  0  0  0  0  0
  -22.5460  -29.3060   22.2460 C   0  0  0  0  0  0  0  0  0  0  0  0
  -21.2290  -29.0520   22.1900 N   0  0  0  0  0  0  0  0  0  0  0  0
  -23.3430  -28.5690   22.8340 O   0  0  0  0  0  0  0  0  0  0  0  0
  -20.6420  -29.7070   21.6890 H   0  0  0  0  0  0  0  0  0  0  0  0
  -18.0400  -27.3820   22.4580 C   0  0  0  0  0  0  0  0  0  0  0  0
  -20.5470  -27.9090   22.7920 C   0  0  0  0  0  3  0  0  0  0  0  0
  -20.8230  -26.6140   21.9940 C   0  0  0  0  0  2  0  0  0  0  0  0
  -19.7590  -26.3240   20.9310 C   0  0  0  0  0  2  0  0  0  0  0  0
  -18.3760  -26.1900   21.5760 C   0  0  0  0  0  2  0  0  0  0  0  0
  -19.0600  -28.1970   23.0160 C   0  0  0  0  0  0  0  0  0  0  0  0
  -18.6920  -29.3150   23.7960 C   0  0  0  0  0  3  0  0  0  0  0  0
  -17.3370  -29.6200   24.0250 C   0  0  0  0  0  3  0  0  0  0  0  0
  -16.3320  -28.7990   23.4840 C   0  0  0  0  0  3  0  0  0  0  0  0
  -16.6840  -27.6810   22.7060 C   0  0  0  0  0  3  0  0  0  0  0  0
  -26.0740  -31.8670   23.6230 C   0  0  0  0  0  3  0  0  0  0  0  0
  -26.7690  -30.8010   24.5570 C   0  0  1  0  0  0  0  0  0  0  0  0
  -25.8890  -30.3500   25.7460 C   0  0  0  0  0  1  0  0  0  0  0  0
  -27.1590  -29.5400   23.7510 C   0  0  0  0  0  1  0  0  0  0  0  0
  -28.0820  -31.3830   25.1300 C   0  0  0  0  0  1  0  0  0  0  0  0
  -25.9440  -33.1570   24.3100 N   0  0  0  0  0  0  0  0  0  0  0  0
  -26.2660  -34.3400   23.7720 C   0  0  0  0  0  0  0  0  0  0  0  0
  -26.7820  -34.4520   22.6560 O   0  0  0  0  0  0  0  0  0  0  0  0
  -25.4800  -33.1440   25.2060 H   0  0  0  0  0  0  0  0  0  0  0  0
  -24.6960  -36.2790   24.0750 C   0  0  0  0  0  1  0  0  0  0  0  0
  -25.9700  -35.6020   24.6050 C   0  0  0  0  0  3  0  0  0  0  0  0
  -28.2600  -36.0970   25.3360 C   0  0  0  0  0  1  0  0  0  0  0  0
  -27.0830  -36.5750   24.6150 N   0  0  0  0  0  0  0  0  0  0  0  0
  -26.7910  -37.4540   25.0350 H   0  0  0  0  0  0  0  0  0  0  0  0
  2  1  1  0
  3  2  1  0
  4  6  1  0
  4  3  1  0
  5  6  1  0
  5  9  1  0
  6  8  1  0
  7  5  2  0
 10 16  1  0
 10 18  1  0
 11 16  1  0
 12 13  1  0
 12 11  1  0
 14 13  1  0
 14 23  1  0
 14 15  1  0
 16 15  1  0
 17 10  2  0
 18  9  1  0
 19 18  1  0
 20 21  2  0
 21 40  1  0
 22 25  1  0
 22 21  1  0
 23 24  1  0
 23 20  1  0
 24 22  2  0
 25 26  1  0
 26 27  2  0
 28 31  1  0
 28 27  1  0
 29 28  2  0
 30 29  1  0
 30 25  2  0
 31 32  1  0
 32 37  2  0
 32 33  1  0
 33 34  2  0
 34 35  1  0
 35 39  1  0
 36 35  2  0
 37 36  1  0
 38 37  1  0
 40 41  1  0
 41 43  1  0
 41 44  1  0
 42 40  2  0
 45 20  1  0
 45 46  1  0
 47 45  1  0
 48  1  1  0
 49 48  1  0
 50 49  1  0
 51 50  1  0
 52 51  1  0
 53 55  1  0
 53 52  1  0
 54 65  2  0
 55 60  1  0
 56 64  1  0
 56 66  1  0
 57 59  1  0
 57 63  1  0
 58 64  1  0
 59 58  1  0
 60 59  2  0
 61 55  2  0
 61 62  1  0
 62 57  2  0
 63 56  1  0
 64 54  1  0
 66 68  2  0
 67 66  1  0
 69 67  1  0
 70 79  2  0
 70 75  1  0
 71 67  1  0
 71 75  1  0
 72 71  1  0
 73 74  1  0
 73 72  1  0
 74 70  1  0
 75 76  2  0
 76 77  1  0
 78 77  2  0
 79 78  1  0
 80 54  1  0
 80 85  1  0
 80 81  1  0
 81 84  1  1
 81 82  1  0
 83 81  1  0
 85 88  1  0
 86 85  1  0
 86 90  1  0
 87 86  2  0
 90 89  1  0
 90 92  1  0
 92 93  1  0
 92 91  1  0
M  ISO  4  10 100  18 100  52 101  53 101
M  END
>  <TORSDO>  (65) 
F 26

>  <SCORE>  (65) 
-8.165

>  <name>  (65) 
65

>  <ligand_id>  (65) 
65

>  <original_smiles>  (65) 
[H]c1c([H])c([H])c2c(c1[H])C([H])([H])C([H])([H])C([H])([H])C2([H])N([H])C(=O)C1([H])N(C(=O)C([H])(N([H])C(=O)C([H])(N([H])C([H])([H])[H])C([H])([H])[H])C(C([H])([H])[H])(C([H])([H])[H])C([H])([H])[H])C([H])([H])c2c([H])c(OC([H])([H])C([H])([H])C([H])([H])OC([H])([H])C([H])([H])C([H])([H])C([H])([H])C([H])([H])N([H])C(=O)C([H])([H])N([H])C(=O)N3C([H])([H])C([H])([H])C([H])([H])C([H])(n4nc(-c5c([H])c([H])c(Oc6c([H])c([H])c(F)c([H])c6F)c([H])c5[H])c(C(=O)N([H])[H])c4N([H])[H])C3([H])[H])c([H])c([H])c2C1([H])[H]

>  <smiles>  (65) 
[H]c1c([H])c([H])c2c(c1[H])C([H])([H])C([H])([H])C([H])([H])C2([H])N([H])C(=O)C1([H])N(C(=O)C([H])(N([H])C(=O)C([H])(N([H])C([H])([H])[H])C([H])([H])[H])C(C([H])([H])[H])(C([H])([H])[H])C([H])([H])[H])C([H])([H])c2c([H])c(OC([H])([H])C([H])([H])C([H])([H])OC([H])([H])C([H])([H])C([H])([H])C([H])([H])C([H])([H])N([H])C(=O)C([H])([H])N([H])C(=O)N3C([H])([H])C([H])([H])C([H])([H])C([H])(n4nc(-c5c([H])c([H])c(Oc6c([H])c([H])c(F)c([H])c6F)c([H])c5[H])c(C(=O)N([H])[H])c4N([H])[H])C3([H])[H])c([H])c([H])c2C1([H])[H]

$$$$
66:0:0
     RDKit          3D

100106  0  0  1  0  0  0  0  0999 V2000
  -19.4910  -21.4930   20.2150 C   0  0  0  0  0  3  0  0  0  0  0  0
  -20.8570  -21.6200   19.9180 C   0  0  0  0  0  3  0  0  0  0  0  0
  -18.6430  -22.6120   20.1420 C   0  0  0  0  0  3  0  0  0  0  0  0
  -20.5250  -23.9960   19.4510 C   0  0  0  0  0  3  0  0  0  0  0  0
  -21.3990  -22.8610   19.5180 C   0  0  0  0  0  0  0  0  0  0  0  0
  -19.1310  -23.8840   19.7600 C   0  0  0  0  0  0  0  0  0  0  0  0
  -22.9180  -22.9500   19.2310 C   0  0  0  0  0  2  0  0  0  0  0  0
  -23.5310  -21.6710   18.7500 N   0  0  0  0  0  4  0  0  0  0  0  0
  -23.3840  -21.6150   17.7590 H   0  0  0  0  0  0  0  0  0  0  0  0
  -23.0170  -20.9170   19.1730 H   0  0  0  0  0  0  0  0  0  0  0  0
  -24.9840  -21.4650   19.0500 C   0  0  0  0  0  2  0  0  0  0  0  0
  -25.6200  -20.2440   18.3050 C   0  0  0  0  0  2  0  0  0  0  0  0
  -27.0620  -19.8330   18.7500 C   0  0  0  0  0  2  0  0  0  0  0  0
  -27.8290  -18.9880   17.6890 C   0  0  0  0  0  2  0  0  0  0  0  0
  -29.3330  -18.6640   17.9600 C   0  0  0  0  0  2  0  0  0  0  0  0
  -30.6710  -16.8490   19.1410 C   0  0  0  0  0  0  0  0  0  0  0  0
  -31.2050  -14.4700   19.5570 C   0  0  0  0  0  2  0  0  0  0  0  0
  -30.4600  -13.6500   18.4820 C   0  0  0  0  0  2  0  0  0  0  0  0
  -29.0000  -13.3690   18.9070 C   0  0  0  0  0  2  0  0  0  0  0  0
  -28.2670  -14.6380   19.4150 C   0  0  0  0  0  3  0  0  0  0  0  0
  -29.1410  -15.3680   20.4570 C   0  0  0  0  0  2  0  0  0  0  0  0
  -30.4220  -15.6910   19.8050 N   0  0  0  0  0  0  0  0  0  0  0  0
  -31.7610  -17.1080   18.6180 O   0  0  0  0  0  0  0  0  0  0  0  0
  -29.5540  -17.5930   18.9390 N   0  0  0  0  0  0  0  0  0  0  0  0
  -28.7320  -17.2600   19.4210 H   0  0  0  0  0  0  0  0  0  0  0  0
  -25.9180  -15.1860   20.3070 C   0  0  0  0  0  0  0  0  0  0  0  0
  -24.8810  -14.3840   20.6970 C   0  0  0  0  0  0  0  0  0  0  0  0
  -25.3430  -13.0400   20.5420 C   0  0  0  0  0  0  0  0  0  0  0  0
  -26.9470  -14.3280   19.9520 N   0  0  0  0  0  0  0  0  0  0  0  0
  -26.6080  -13.0300   20.1450 N   0  0  0  0  0  0  0  0  0  0  0  0
  -24.6370  -11.7630   20.6900 C   0  0  0  0  0  0  0  0  0  0  0  0
  -25.0220  -10.8170   21.6650 C   0  0  0  0  0  3  0  0  0  0  0  0
  -24.3170   -9.6020   21.7970 C   0  0  0  0  0  3  0  0  0  0  0  0
  -23.2140   -9.3250   20.9540 C   0  0  0  0  0  0  0  0  0  0  0  0
  -22.8520  -10.2600   19.9700 C   0  0  0  0  0  3  0  0  0  0  0  0
  -23.5580  -11.4660   19.8340 C   0  0  0  0  0  3  0  0  0  0  0  0
  -22.4870   -8.1610   20.9940 O   0  0  0  0  0  0  0  0  0  0  0  0
  -22.2470   -7.5030   22.1730 C   0  0  0  0  0  0  0  0  0  0  0  0
  -21.5340   -8.1070   23.2310 C   0  0  0  0  0  3  0  0  0  0  0  0
  -21.2490   -7.3710   24.3990 C   0  0  0  0  0  3  0  0  0  0  0  0
  -21.6640   -6.0300   24.5050 C   0  0  0  0  0  0  0  0  0  0  0  0
  -22.3690   -5.4250   23.4500 C   0  0  0  0  0  3  0  0  0  0  0  0
  -22.6550   -6.1590   22.2850 C   0  0  0  0  0  0  0  0  0  0  0  0
  -23.3150   -5.5650   21.2620 F   0  0  0  0  0  0  0  0  0  0  0  0
  -21.3840   -5.3190   25.6220 F   0  0  0  0  0  0  0  0  0  0  0  0
  -23.5040  -14.8290   21.0980 C   0  0  0  0  0  0  0  0  0  0  0  0
  -22.8380  -14.0680   21.9590 N   0  0  0  0  0  0  0  0  0  0  0  0
  -23.0300  -15.8860   20.6830 O   0  0  0  0  0  0  0  0  0  0  0  0
  -23.2330  -13.2110   22.3170 H   0  0  0  0  0  0  0  0  0  0  0  0
  -21.9150  -14.3460   22.2630 H   0  0  0  0  0  0  0  0  0  0  0  0
  -26.0640  -16.5650   20.2000 N   0  0  0  0  0  0  0  0  0  0  0  0
  -25.2790  -17.1930   20.3300 H   0  0  0  0  0  0  0  0  0  0  0  0
  -26.8560  -17.0090   19.7580 H   0  0  0  0  0  0  0  0  0  0  0  0
  -18.1140  -25.0720   19.7730 C   0  0  0  0  0  2  0  0  0  0  0  0
  -18.5470  -26.4290   19.2860 N   0  0  0  0  0  0  0  0  0  0  0  0
  -19.4760  -26.6020   19.6370 H   0  0  0  0  0  0  0  0  0  0  0  0
  -17.9400  -27.0390   19.8080 H   0  0  0  0  0  0  0  0  0  0  0  0
  -18.4660  -26.9720   17.8140 C   0  0  0  0  0  0  0  0  0  0  0  0
  -20.7820  -26.8490   15.7360 C   0  0  0  0  0 15  0  0  0  0  0  0
  -22.6820  -26.1040   16.0590 O   0  0  0  0  0  1  0  0  0  0  0  0
  -24.3860  -28.1010   20.6400 C   0  0  0  0  0  0  0  0  0  0  0  0
  -24.1840  -25.8740   15.7230 C   0  0  0  0  0  3  0  0  0  0  0  0
  -23.3530  -28.6380   18.5150 C   0  0  0  0  0  3  0  0  0  0  0  0
  -24.6450  -28.2000   16.3090 C   0  0  0  0  0  3  0  0  0  0  0  0
  -25.7160  -27.7680   18.5340 C   0  0  0  0  0  2  0  0  0  0  0  0
  -25.3710  -27.3260   17.1230 C   0  0  0  0  0  3  0  0  0  0  0  0
  -25.2460  -25.9880   16.7140 C   0  0  0  0  0  2  0  0  0  0  0  0
  -24.5980  -26.5040   14.5720 C   0  0  0  0  0  2  0  0  0  0  0  0
  -24.4140  -27.8370   14.9440 C   0  0  0  0  0  2  0  0  0  0  0  0
  -23.7300  -29.1250   17.0590 C   0  0  0  0  0  2  0  0  0  0  0  0
  -24.5270  -28.2090   19.2910 N   0  0  0  0  0  0  0  0  0  0  0  0
  -23.3400  -28.4470   21.2140 O   0  0  0  0  0  0  0  0  0  0  0  0
  -22.3540  -27.4710   18.6560 C   0  0  0  0  0  0  0  0  0  0  0  0
  -21.3350  -27.6700   19.4220 N   0  0  0  0  0  0  0  0  0  0  0  0
  -22.4720  -26.3700   18.1240 O   0  0  0  0  0  0  0  0  0  0  0  0
  -21.2730  -28.5200   19.9700 H   0  0  0  0  0  0  0  0  0  0  0  0
  -18.4380  -28.3590   21.1330 C   0  0  0  0  0  0  0  0  0  0  0  0
  -20.1470  -26.8560   19.3150 C   0  0  0  0  0  3  0  0  0  0  0  0
  -18.9070  -26.7060   17.5800 C   0  0  0  0  0  2  0  0  0  0  0  0
  -17.2960  -28.2200   17.9960 C   0  0  0  0  0  2  0  0  0  0  0  0
  -17.4510  -28.9860   19.7950 C   0  0  0  0  0  2  0  0  0  0  0  0
  -19.6620  -27.5150   20.8720 C   0  0  0  0  0  0  0  0  0  0  0  0
  -20.3640  -27.0100   22.0230 C   0  0  0  0  0  3  0  0  0  0  0  0
  -19.9180  -27.1180   23.3610 C   0  0  0  0  0  3  0  0  0  0  0  0
  -18.6620  -27.6870   23.6030 C   0  0  0  0  0  3  0  0  0  0  0  0
  -17.9430  -28.2690   22.5120 C   0  0  0  0  0  3  0  0  0  0  0  0
  -25.5390  -27.5660   21.5130 C   0  0  0  0  0  3  0  0  0  0  0  0
  -25.7320  -28.5660   22.5650 N   0  0  0  0  0  0  0  0  0  0  0  0
  -26.6720  -29.5150   22.5350 C   0  0  0  0  0  0  0  0  0  0  0  0
  -27.5360  -29.5680   21.6570 O   0  0  0  0  0  0  0  0  0  0  0  0
  -25.0250  -28.6120   23.2810 H   0  0  0  0  0  0  0  0  0  0  0  0
  -26.0900  -31.8880   23.1280 C   0  0  0  0  0  1  0  0  0  0  0  0
  -26.6570  -30.5630   23.6590 C   0  0  0  0  0  3  0  0  0  0  0  0
  -28.4820  -29.6370   25.0080 C   0  0  0  0  0  1  0  0  0  0  0  0
  -27.9870  -30.7890   24.2580 N   0  0  0  0  0  0  0  0  0  0  0  0
  -27.9690  -31.5890   24.8830 H   0  0  0  0  0  0  0  0  0  0  0  0
  -25.2460  -26.1470   22.1350 C   0  0  1  0  0  0  0  0  0  0  0  0
  -23.8850  -26.0360   22.8580 C   0  0  0  0  0  1  0  0  0  0  0  0
  -25.2850  -25.0470   21.0510 C   0  0  0  0  0  1  0  0  0  0  0  0
  -26.3590  -25.8090   23.1540 C   0  0  0  0  0  1  0  0  0  0  0  0
  2  1  2  0
  3  1  1  0
  4  5  2  0
  4  6  1  0
  5  2  1  0
  6 54  1  0
  6  3  2  0
  7  5  1  0
  8 11  1  0
  8 10  1  0
  8  7  1  0
  9  8  1  0
 12 13  1  0
 12 11  1  0
 14 15  1  0
 14 13  1  0
 15 24  1  0
 16 22  1  0
 17 22  1  0
 18 19  1  0
 18 17  1  0
 20 19  1  0
 20 29  1  0
 20 21  1  0
 22 21  1  0
 23 16  2  0
 24 16  1  0
 24 25  1  0
 26 27  2  0
 27 46  1  0
 28 31  1  0
 28 27  1  0
 29 30  1  0
 29 26  1  0
 30 28  2  0
 31 32  1  0
 32 33  2  0
 34 37  1  0
 34 33  1  0
 35 34  2  0
 36 35  1  0
 36 31  2  0
 37 38  1  0
 38 43  2  0
 38 39  1  0
 39 40  2  0
 40 41  1  0
 41 45  1  0
 42 41  2  0
 43 42  1  0
 44 43  1  0
 46 47  1  0
 47 50  1  0
 47 49  1  0
 48 46  2  0
 51 26  1  0
 51 52  1  0
 53 51  1  0
 55 54  1  0
 55 57  1  0
 58 80  1  0
 58 55  1  0
 61 72  2  0
 62 60  1  0
 62 67  1  0
 63 73  1  0
 63 71  1  0
 64 69  1  0
 64 70  1  0
 64 66  1  0
 65 71  1  0
 66 67  1  0
 66 65  1  0
 68 69  1  0
 68 62  1  0
 70 63  1  0
 71 61  1  0
 73 74  1  0
 74 76  1  0
 75 73  2  0
 77 86  1  0
 78 74  1  0
 78 56  1  0
 78 82  1  0
 79 58  2  0
 80 81  1  0
 81 77  1  0
 82 77  2  0
 82 83  1  0
 83 84  2  0
 84 85  1  0
 86 85  2  0
 87 61  1  0
 87 97  1  0
 87 88  1  0
 88 91  1  0
 89 88  1  0
 89 93  1  0
 90 89  2  0
 93 92  1  0
 93 95  1  0
 95 96  1  0
 95 94  1  0
 97 98  1  1
 97100  1  0
 99 97  1  0
M  ISO  4  16 100  24 100  59 101  60 101
M  END
>  <TORSDO>  (66) 
F 27

>  <SCORE>  (66) 
3.140

>  <name>  (66) 
66

>  <ligand_id>  (66) 
66

>  <original_smiles>  (66) 
[H]c1c([H])c([H])c2c(c1[H])C([H])([H])C([H])([H])C([H])([H])C2([H])N([H])C(=O)C1([H])N(C(=O)C([H])(N([H])C(=O)C([H])(N([H])C([H])([H])[H])C([H])([H])[H])C(C([H])([H])[H])(C([H])([H])[H])C([H])([H])[H])C([H])([H])c2c([H])c(OC([H])([H])C([H])([H])[N+]([H])([H])C([H])([H])c3c([H])c([H])c([H])c(C([H])([H])[N+]([H])([H])C([H])([H])C([H])([H])C([H])([H])C([H])([H])C([H])([H])N([H])C(=O)N4C([H])([H])C([H])([H])C([H])([H])C([H])(n5nc(-c6c([H])c([H])c(Oc7c([H])c([H])c(F)c([H])c7F)c([H])c6[H])c(C(=O)N([H])[H])c5N([H])[H])C4([H])[H])c3[H])c([H])c([H])c2C1([H])[H]

>  <smiles>  (66) 
[H]c1c([H])c([H])c2c(c1[H])C([H])([H])C([H])([H])C([H])([H])C2([H])N([H])C(=O)C1([H])N(C(=O)C([H])(N([H])C(=O)C([H])(N([H])C([H])([H])[H])C([H])([H])[H])C(C([H])([H])[H])(C([H])([H])[H])C([H])([H])[H])C([H])([H])c2c([H])c(OC([H])([H])C([H])([H])[N+]([H])([H])C([H])([H])c3c([H])c([H])c([H])c(C([H])([H])[N+]([H])([H])C([H])([H])C([H])([H])C([H])([H])C([H])([H])C([H])([H])N([H])C(=O)N4C([H])([H])C([H])([H])C([H])([H])C([H])(n5nc(-c6c([H])c([H])c(Oc7c([H])c([H])c(F)c([H])c7F)c([H])c6[H])c(C(=O)N([H])[H])c5N([H])[H])C4([H])[H])c3[H])c([H])c([H])c2C1([H])[H]

$$$$
67:0:0
     RDKit          3D

 93100  0  0  1  0  0  0  0  0999 V2000
  -28.6160  -21.3100   21.6470 C   0  0  0  0  0  0  0  0  0  0  0  0
  -27.6290  -22.1590   21.3390 N   0  0  0  0  0  0  0  0  0  0  0  0
  -29.4790  -21.5530   22.4950 O   0  0  0  0  0  0  0  0  0  0  0  0
  -26.9680  -21.8550   20.6350 H   0  0  0  0  0  0  0  0  0  0  0  0
  -28.6210  -19.9800   20.8990 C   0  0  0  0  0  2  0  0  0  0  0  0
  -29.8680  -19.2200   21.1290 N   0  0  0  0  0  4  0  0  0  0  0  0
  -30.1090  -19.3280   22.1020 H   0  0  0  0  0  0  0  0  0  0  0  0
  -30.6020  -19.6520   20.5940 H   0  0  0  0  0  0  0  0  0  0  0  0
  -29.7550  -17.7860   20.7890 C   0  0  0  0  0  2  0  0  0  0  0  0
  -31.0700  -17.0030   20.9760 C   0  0  0  0  0  2  0  0  0  0  0  0
  -31.3560  -14.6430   20.1470 C   0  0  0  0  0  0  0  0  0  0  0  0
  -31.0330  -12.4000   19.1650 C   0  0  0  0  0  2  0  0  0  0  0  0
  -30.0820  -12.4740   17.9550 C   0  0  0  0  0  2  0  0  0  0  0  0
  -28.6090  -12.3880   18.4040 C   0  0  0  0  0  2  0  0  0  0  0  0
  -28.2830  -13.3710   19.5600 C   0  0  0  0  0  3  0  0  0  0  0  0
  -29.3340  -13.2390   20.6850 C   0  0  0  0  0  2  0  0  0  0  0  0
  -30.6720  -13.4710   20.1030 N   0  0  0  0  0  0  0  0  0  0  0  0
  -32.3780  -14.8700   19.4920 O   0  0  0  0  0  0  0  0  0  0  0  0
  -30.7990  -15.5660   20.9400 N   0  0  0  0  0  0  0  0  0  0  0  0
  -30.0210  -15.2350   21.4910 H   0  0  0  0  0  0  0  0  0  0  0  0
  -25.9310  -14.1030   20.3210 C   0  0  0  0  0  0  0  0  0  0  0  0
  -24.8360  -13.3830   20.7140 C   0  0  0  0  0  0  0  0  0  0  0  0
  -25.2250  -12.0100   20.6630 C   0  0  0  0  0  0  0  0  0  0  0  0
  -26.9250  -13.1700   20.0630 N   0  0  0  0  0  0  0  0  0  0  0  0
  -26.5040  -11.9060   20.3240 N   0  0  0  0  0  0  0  0  0  0  0  0
  -24.4430  -10.7840   20.8640 C   0  0  0  0  0  0  0  0  0  0  0  0
  -24.8110   -9.8230   21.8300 C   0  0  0  0  0  3  0  0  0  0  0  0
  -24.0290   -8.6620   22.0200 C   0  0  0  0  0  3  0  0  0  0  0  0
  -22.8690   -8.4520   21.2360 C   0  0  0  0  0  0  0  0  0  0  0  0
  -22.5210   -9.4020   20.2590 C   0  0  0  0  0  3  0  0  0  0  0  0
  -23.3020  -10.5540   20.0700 C   0  0  0  0  0  3  0  0  0  0  0  0
  -22.0690   -7.3390   21.3270 O   0  0  0  0  0  0  0  0  0  0  0  0
  -21.9010   -6.6700   22.5130 C   0  0  0  0  0  0  0  0  0  0  0  0
  -21.3870   -7.3110   23.6610 C   0  0  0  0  0  3  0  0  0  0  0  0
  -21.1630   -6.5710   24.8390 C   0  0  0  0  0  3  0  0  0  0  0  0
  -21.4410   -5.1920   24.8700 C   0  0  0  0  0  0  0  0  0  0  0  0
  -21.9490   -4.5510   23.7250 C   0  0  0  0  0  3  0  0  0  0  0  0
  -22.1740   -5.2870   22.5500 C   0  0  0  0  0  0  0  0  0  0  0  0
  -22.6410   -4.6610   21.4430 F   0  0  0  0  0  0  0  0  0  0  0  0
  -21.2180   -4.4790   25.9990 F   0  0  0  0  0  0  0  0  0  0  0  0
  -23.4700  -13.9270   21.0240 C   0  0  0  0  0  0  0  0  0  0  0  0
  -22.7360  -13.2690   21.9120 N   0  0  0  0  0  0  0  0  0  0  0  0
  -23.0690  -14.9710   20.5140 O   0  0  0  0  0  0  0  0  0  0  0  0
  -23.0740  -12.4230   22.3450 H   0  0  0  0  0  0  0  0  0  0  0  0
  -21.8220  -13.6170   22.1670 H   0  0  0  0  0  0  0  0  0  0  0  0
  -26.1650  -15.4630   20.1430 N   0  0  0  0  0  0  0  0  0  0  0  0
  -25.4400  -16.1620   20.2780 H   0  0  0  0  0  0  0  0  0  0  0  0
  -27.0170  -15.8430   19.7520 H   0  0  0  0  0  0  0  0  0  0  0  0
  -27.3750  -23.4600   21.9540 C   0  0  0  0  0  2  0  0  0  0  0  0
  -27.4530  -24.6030   20.9250 C   0  0  0  0  0  2  0  0  0  0  0  0
  -28.8620  -24.8070   20.3430 C   0  0  0  0  0  2  0  0  0  0  0  0
  -28.9890  -25.9420   19.3100 C   0  0  0  0  0  2  0  0  0  0  0  0
  -28.7990  -27.2280   19.9050 O   0  0  0  0  0  0  0  0  0  0  0  0
  -24.6410  -31.9210   23.2410 C   0  0  0  0  0  0  0  0  0  0  0  0
  -27.5540  -27.8250   19.9260 C   0  0  0  0  0  0  0  0  0  0  0  0
  -23.5290  -30.5560   21.5060 C   0  0  0  0  0  3  0  0  0  0  0  0
  -25.0730  -29.1860   20.0140 C   0  0  0  0  0  0  0  0  0  0  0  0
  -26.0340  -31.0590   21.3620 C   0  0  0  0  0  2  0  0  0  0  0  0
  -26.1940  -29.7360   20.6420 C   0  0  0  0  0  0  0  0  0  0  0  0
  -27.4330  -29.0610   20.5990 C   0  0  0  0  0  3  0  0  0  0  0  0
  -26.4030  -27.2780   19.3070 C   0  0  0  0  0  3  0  0  0  0  0  0
  -25.1700  -27.9530   19.3460 C   0  0  0  0  0  3  0  0  0  0  0  0
  -23.7860  -29.9730   20.0930 C   0  0  0  0  0  2  0  0  0  0  0  0
  -24.7530  -31.1910   22.0960 N   0  0  0  0  0  0  0  0  0  0  0  0
  -23.5420  -32.1010   23.7810 O   0  0  0  0  0  0  0  0  0  0  0  0
  -22.9260  -29.4430   22.3960 C   0  0  0  0  0  0  0  0  0  0  0  0
  -21.6170  -29.1960   22.2370 N   0  0  0  0  0  0  0  0  0  0  0  0
  -23.6340  -28.8100   23.1830 O   0  0  0  0  0  0  0  0  0  0  0  0
  -21.1050  -29.7570   21.5710 H   0  0  0  0  0  0  0  0  0  0  0  0
  -18.3060  -27.8080   22.6210 C   0  0  0  0  0  0  0  0  0  0  0  0
  -20.8440  -28.1730   22.9400 C   0  0  0  0  0  3  0  0  0  0  0  0
  -21.0250  -26.7880   22.2750 C   0  0  0  0  0  2  0  0  0  0  0  0
  -19.9490  -26.4750   21.2310 C   0  0  0  0  0  2  0  0  0  0  0  0
  -18.5560  -26.5130   21.8670 C   0  0  0  0  0  2  0  0  0  0  0  0
  -19.3800  -28.5960   23.1110 C   0  0  0  0  0  0  0  0  0  0  0  0
  -19.0930  -29.8080   23.7730 C   0  0  0  0  0  3  0  0  0  0  0  0
  -17.7630  -30.2340   23.9530 C   0  0  0  0  0  3  0  0  0  0  0  0
  -16.7030  -29.4400   23.4810 C   0  0  0  0  0  3  0  0  0  0  0  0
  -16.9750  -28.2300   22.8180 C   0  0  0  0  0  3  0  0  0  0  0  0
  -25.8860  -32.5820   23.9110 C   0  0  0  0  0  3  0  0  0  0  0  0
  -25.5300  -33.9700   24.2330 N   0  0  0  0  0  0  0  0  0  0  0  0
  -25.8580  -35.0310   23.4840 C   0  0  0  0  0  0  0  0  0  0  0  0
  -26.5650  -34.9470   22.4750 O   0  0  0  0  0  0  0  0  0  0  0  0
  -24.9040  -34.1080   25.0130 H   0  0  0  0  0  0  0  0  0  0  0  0
  -24.0880  -36.7690   23.0770 C   0  0  0  0  0  1  0  0  0  0  0  0
  -25.3180  -36.4040   23.9250 C   0  0  0  0  0  3  0  0  0  0  0  0
  -27.3980  -37.3530   24.8160 C   0  0  0  0  0  1  0  0  0  0  0  0
  -26.3200  -37.4870   23.8390 N   0  0  0  0  0  0  0  0  0  0  0  0
  -25.8830  -38.3950   23.9710 H   0  0  0  0  0  0  0  0  0  0  0  0
  -26.3750  -31.8180   25.2020 C   0  0  1  0  0  0  0  0  0  0  0  0
  -25.2450  -31.5310   26.2180 C   0  0  0  0  0  1  0  0  0  0  0  0
  -27.0180  -30.4650   24.8190 C   0  0  0  0  0  1  0  0  0  0  0  0
  -27.4730  -32.6420   25.9150 C   0  0  0  0  0  1  0  0  0  0  0  0
  1  3  2  0
  2  1  1  0
  2 49  1  0
  4  2  1  0
  5  6  1  0
  5  1  1  0
  6  7  1  0
  8  6  1  0
  9 10  1  0
  9  6  1  0
 11 19  1  0
 12 17  1  0
 13 14  1  0
 13 12  1  0
 15 14  1  0
 15 24  1  0
 15 16  1  0
 17 11  1  0
 17 16  1  0
 18 11  2  0
 19 10  1  0
 19 20  1  0
 21 22  2  0
 22 41  1  0
 23 22  1  0
 23 26  1  0
 24 21  1  0
 24 25  1  0
 25 23  2  0
 26 27  1  0
 27 28  2  0
 29 32  1  0
 29 28  1  0
 30 29  2  0
 31 30  1  0
 31 26  2  0
 32 33  1  0
 33 38  2  0
 33 34  1  0
 34 35  2  0
 35 36  1  0
 36 40  1  0
 37 36  2  0
 38 37  1  0
 39 38  1  0
 41 42  1  0
 42 45  1  0
 42 44  1  0
 43 41  2  0
 46 47  1  0
 46 21  1  0
 48 46  1  0
 50 49  1  0
 51 50  1  0
 52 53  1  0
 52 51  1  0
 53 55  1  0
 54 65  2  0
 55 60  1  0
 56 64  1  0
 56 66  1  0
 57 63  1  0
 57 59  1  0
 58 64  1  0
 59 58  1  0
 60 59  2  0
 61 62  1  0
 61 55  2  0
 62 57  2  0
 63 56  1  0
 64 54  1  0
 66 68  2  0
 67 66  1  0
 69 67  1  0
 70 79  2  0
 70 75  1  0
 71 67  1  0
 71 75  1  0
 72 71  1  0
 73 74  1  0
 73 72  1  0
 74 70  1  0
 75 76  2  0
 76 77  1  0
 78 77  2  0
 79 78  1  0
 80 54  1  0
 80 81  1  0
 80 90  1  0
 81 84  1  0
 82 86  1  0
 82 81  1  0
 83 82  2  0
 86 85  1  0
 88 86  1  0
 88 89  1  0
 88 87  1  0
 90 93  1  1
 90 91  1  0
 92 90  1  0
M  ISO  4  11 100  19 100  52 101  53 101
M  END
>  <TORSDO>  (67) 
F 24

>  <SCORE>  (67) 
-11.747

>  <name>  (67) 
67

>  <ligand_id>  (67) 
67

>  <original_smiles>  (67) 
[H]c1c([H])c([H])c2c(c1[H])C([H])([H])C([H])([H])C([H])([H])C2([H])N([H])C(=O)C1([H])N(C(=O)C([H])(N([H])C(=O)C([H])(N([H])C([H])([H])[H])C([H])([H])[H])C(C([H])([H])[H])(C([H])([H])[H])C([H])([H])[H])C([H])([H])c2c([H])c(OC([H])([H])C([H])([H])C([H])([H])C([H])([H])N([H])C(=O)C([H])([H])[N+]([H])([H])C([H])([H])C([H])([H])N([H])C(=O)N3C([H])([H])C([H])([H])C([H])([H])C([H])(n4nc(-c5c([H])c([H])c(Oc6c([H])c([H])c(F)c([H])c6F)c([H])c5[H])c(C(=O)N([H])[H])c4N([H])[H])C3([H])[H])c([H])c([H])c2C1([H])[H]

>  <smiles>  (67) 
[H]c1c([H])c([H])c2c(c1[H])C([H])([H])C([H])([H])C([H])([H])C2([H])N([H])C(=O)C1([H])N(C(=O)C([H])(N([H])C(=O)C([H])(N([H])C([H])([H])[H])C([H])([H])[H])C(C([H])([H])[H])(C([H])([H])[H])C([H])([H])[H])C([H])([H])c2c([H])c(OC([H])([H])C([H])([H])C([H])([H])C([H])([H])N([H])C(=O)C([H])([H])[N+]([H])([H])C([H])([H])C([H])([H])N([H])C(=O)N3C([H])([H])C([H])([H])C([H])([H])C([H])(n4nc(-c5c([H])c([H])c(Oc6c([H])c([H])c(F)c([H])c6F)c([H])c5[H])c(C(=O)N([H])[H])c4N([H])[H])C3([H])[H])c([H])c([H])c2C1([H])[H]

$$$$
68:0:0
     RDKit          3D

 93100  0  0  1  0  0  0  0  0999 V2000
  -29.5550  -21.2010   24.0210 C   0  0  0  0  0  2  0  0  0  0  0  0
  -30.6110  -20.3880   24.6620 N   0  0  0  0  0  4  0  0  0  0  0  0
  -30.5320  -20.4970   25.6600 H   0  0  0  0  0  0  0  0  0  0  0  0
  -31.5110  -20.7480   24.3950 H   0  0  0  0  0  0  0  0  0  0  0  0
  -30.5860  -18.9460   24.3360 C   0  0  0  0  0  2  0  0  0  0  0  0
  -30.8180  -18.6970   22.8330 C   0  0  0  0  0  2  0  0  0  0  0  0
  -30.7420  -17.2160   22.4370 C   0  0  0  0  0  2  0  0  0  0  0  0
  -31.1600  -17.0050   20.9730 C   0  0  0  0  0  2  0  0  0  0  0  0
  -31.7760  -15.6280   20.7030 C   0  0  0  0  0  2  0  0  0  0  0  0
  -30.6860  -13.9890   19.1850 C   0  0  0  0  0  0  0  0  0  0  0  0
  -30.3020  -11.6770   18.4470 C   0  0  0  0  0  2  0  0  0  0  0  0
  -29.2170  -11.5010   17.3780 C   0  0  0  0  0  2  0  0  0  0  0  0
  -27.8350  -11.3620   18.0370 C   0  0  0  0  0  2  0  0  0  0  0  0
  -27.5500  -12.4970   19.0520 C   0  0  0  0  0  3  0  0  0  0  0  0
  -28.7260  -12.6770   20.0390 C   0  0  0  0  0  2  0  0  0  0  0  0
  -29.9770  -12.8420   19.2770 N   0  0  0  0  0  0  0  0  0  0  0  0
  -31.4140  -14.2790   18.2300 O   0  0  0  0  0  0  0  0  0  0  0  0
  -30.7610  -14.6410   20.3510 N   0  0  0  0  0  0  0  0  0  0  0  0
  -30.1890  -14.2790   21.1000 H   0  0  0  0  0  0  0  0  0  0  0  0
  -25.3330  -13.1860   20.1690 C   0  0  0  0  0  0  0  0  0  0  0  0
  -24.3110  -12.4480   20.7070 C   0  0  0  0  0  0  0  0  0  0  0  0
  -24.7030  -11.0810   20.5810 C   0  0  0  0  0  0  0  0  0  0  0  0
  -26.2870  -12.2700   19.7550 N   0  0  0  0  0  0  0  0  0  0  0  0
  -25.9190  -10.9980   20.0550 N   0  0  0  0  0  0  0  0  0  0  0  0
  -23.9680   -9.8440   20.8760 C   0  0  0  0  0  0  0  0  0  0  0  0
  -24.3970   -8.9520   21.8850 C   0  0  0  0  0  3  0  0  0  0  0  0
  -23.6620   -7.7790   22.1620 C   0  0  0  0  0  3  0  0  0  0  0  0
  -22.4860   -7.4880   21.4310 C   0  0  0  0  0  0  0  0  0  0  0  0
  -22.0780   -8.3680   20.4120 C   0  0  0  0  0  3  0  0  0  0  0  0
  -22.8120   -9.5310   20.1330 C   0  0  0  0  0  3  0  0  0  0  0  0
  -21.7230   -6.3600   21.6140 O   0  0  0  0  0  0  0  0  0  0  0  0
  -21.5220   -5.8210   22.8590 C   0  0  0  0  0  0  0  0  0  0  0  0
  -20.9310   -6.5620   23.9050 C   0  0  0  0  0  3  0  0  0  0  0  0
  -20.6770   -5.9480   25.1480 C   0  0  0  0  0  3  0  0  0  0  0  0
  -21.0070   -4.5940   25.3450 C   0  0  0  0  0  0  0  0  0  0  0  0
  -21.5920   -3.8530   24.3030 C   0  0  0  0  0  3  0  0  0  0  0  0
  -21.8450   -4.4650   23.0630 C   0  0  0  0  0  0  0  0  0  0  0  0
  -22.3890   -3.7400   22.0550 F   0  0  0  0  0  0  0  0  0  0  0  0
  -20.7580   -4.0010   26.5350 F   0  0  0  0  0  0  0  0  0  0  0  0
  -23.0020  -12.9730   21.2220 C   0  0  0  0  0  0  0  0  0  0  0  0
  -22.4270  -12.3150   22.2230 N   0  0  0  0  0  0  0  0  0  0  0  0
  -22.5050  -14.0040   20.7700 O   0  0  0  0  0  0  0  0  0  0  0  0
  -22.8430  -11.4800   22.6060 H   0  0  0  0  0  0  0  0  0  0  0  0
  -21.5570  -12.6530   22.6100 H   0  0  0  0  0  0  0  0  0  0  0  0
  -25.5200  -14.5520   19.9840 N   0  0  0  0  0  0  0  0  0  0  0  0
  -24.8120  -15.2360   20.2280 H   0  0  0  0  0  0  0  0  0  0  0  0
  -26.3270  -14.9630   19.5300 H   0  0  0  0  0  0  0  0  0  0  0  0
  -30.1450  -22.4940   23.4370 C   0  0  0  0  0  2  0  0  0  0  0  0
  -29.3770  -22.9970   22.2100 C   0  0  0  0  0  2  0  0  0  0  0  0
  -30.0140  -24.2590   21.6150 C   0  0  0  0  0  2  0  0  0  0  0  0
  -29.3150  -24.6790   20.3220 C   0  0  0  0  0  2  0  0  0  0  0  0
  -30.0290  -25.8260   19.5950 C   0  0  0  0  0  2  0  0  0  0  0  0
  -29.3080  -26.1230   18.4060 O   0  0  0  0  0  0  0  0  0  0  0  0
  -25.0670  -30.1380   22.4780 C   0  0  0  0  0  0  0  0  0  0  0  0
  -28.0730  -26.6750   18.6140 C   0  0  0  0  0  0  0  0  0  0  0  0
  -23.9570  -28.8910   20.6470 C   0  0  0  0  0  3  0  0  0  0  0  0
  -25.5160  -27.8010   18.9500 C   0  0  0  0  0  0  0  0  0  0  0  0
  -26.4070  -29.5930   20.4530 C   0  0  0  0  0  2  0  0  0  0  0  0
  -26.6230  -28.3680   19.5960 C   0  0  0  0  0  0  0  0  0  0  0  0
  -27.9040  -27.8070   19.4360 C   0  0  0  0  0  3  0  0  0  0  0  0
  -26.9590  -26.1090   17.9620 C   0  0  0  0  0  3  0  0  0  0  0  0
  -25.6770  -26.6650   18.1360 C   0  0  0  0  0  3  0  0  0  0  0  0
  -24.1810  -28.4750   19.1680 C   0  0  0  0  0  2  0  0  0  0  0  0
  -25.1620  -29.5470   21.2530 N   0  0  0  0  0  0  0  0  0  0  0  0
  -23.9870  -30.1840   23.0830 O   0  0  0  0  0  0  0  0  0  0  0  0
  -23.4720  -27.6550   21.4360 C   0  0  0  0  0  0  0  0  0  0  0  0
  -22.2010  -27.2780   21.2310 N   0  0  0  0  0  0  0  0  0  0  0  0
  -24.2360  -27.0450   22.1890 O   0  0  0  0  0  0  0  0  0  0  0  0
  -21.6380  -27.8350   20.6030 H   0  0  0  0  0  0  0  0  0  0  0  0
  -19.0970  -25.4340   21.3320 C   0  0  0  0  0  0  0  0  0  0  0  0
  -21.5380  -26.1220   21.8320 C   0  0  0  0  0  3  0  0  0  0  0  0
  -21.9460  -24.8130   21.1180 C   0  0  0  0  0  2  0  0  0  0  0  0
  -20.9880  -24.4150   19.9920 C   0  0  0  0  0  2  0  0  0  0  0  0
  -19.5680  -24.2270   20.5360 C   0  0  0  0  0  2  0  0  0  0  0  0
  -20.0230  -26.3310   21.9260 C   0  0  0  0  0  0  0  0  0  0  0  0
  -19.5330  -27.4560   22.6250 C   0  0  0  0  0  3  0  0  0  0  0  0
  -18.1490  -27.6890   22.7350 C   0  0  0  0  0  3  0  0  0  0  0  0
  -17.2370  -26.7870   22.1600 C   0  0  0  0  0  3  0  0  0  0  0  0
  -17.7110  -25.6620   21.4630 C   0  0  0  0  0  3  0  0  0  0  0  0
  -26.3010  -30.8050   23.1630 C   0  0  0  0  0  3  0  0  0  0  0  0
  -26.9610  -29.8960   24.2720 C   0  0  1  0  0  0  0  0  0  0  0  0
  -25.9520  -29.3480   25.3090 C   0  0  0  0  0  1  0  0  0  0  0  0
  -27.6820  -28.6890   23.6290 C   0  0  0  0  0  1  0  0  0  0  0  0
  -28.0420  -30.6990   25.0340 C   0  0  0  0  0  1  0  0  0  0  0  0
  -25.8540  -32.0810   23.7350 N   0  0  0  0  0  0  0  0  0  0  0  0
  -26.0810  -33.2810   23.1840 C   0  0  0  0  0  0  0  0  0  0  0  0
  -26.7590  -33.4330   22.1650 O   0  0  0  0  0  0  0  0  0  0  0  0
  -25.2450  -32.0280   24.5390 H   0  0  0  0  0  0  0  0  0  0  0  0
  -24.1970  -34.9430   23.0970 C   0  0  0  0  0  1  0  0  0  0  0  0
  -25.4500  -34.5080   23.8710 C   0  0  0  0  0  3  0  0  0  0  0  0
  -27.4700  -35.4070   24.9400 C   0  0  0  0  0  1  0  0  0  0  0  0
  -26.3810  -35.6520   23.9980 N   0  0  0  0  0  0  0  0  0  0  0  0
  -25.8850  -36.4890   24.2950 H   0  0  0  0  0  0  0  0  0  0  0  0
  1  2  1  0
  2  3  1  0
  4  2  1  0
  5  2  1  0
  6  5  1  0
  7  6  1  0
  8  7  1  0
  9  8  1  0
 10 16  1  0
 10 18  1  0
 11 16  1  0
 12 13  1  0
 12 11  1  0
 14 13  1  0
 14 23  1  0
 14 15  1  0
 16 15  1  0
 17 10  2  0
 18  9  1  0
 18 19  1  0
 20 21  2  0
 21 40  1  0
 22 21  1  0
 22 25  1  0
 23 24  1  0
 23 20  1  0
 24 22  2  0
 25 26  1  0
 26 27  2  0
 28 31  1  0
 28 27  1  0
 29 28  2  0
 30 29  1  0
 30 25  2  0
 31 32  1  0
 32 37  2  0
 32 33  1  0
 33 34  2  0
 34 35  1  0
 35 39  1  0
 36 35  2  0
 37 36  1  0
 38 37  1  0
 40 41  1  0
 41 43  1  0
 41 44  1  0
 42 40  2  0
 45 20  1  0
 45 46  1  0
 47 45  1  0
 48  1  1  0
 49 48  1  0
 50 49  1  0
 51 50  1  0
 52 51  1  0
 53 55  1  0
 53 52  1  0
 54 65  2  0
 55 60  1  0
 56 64  1  0
 56 66  1  0
 57 63  1  0
 57 59  1  0
 58 64  1  0
 59 58  1  0
 60 59  2  0
 61 62  1  0
 61 55  2  0
 62 57  2  0
 63 56  1  0
 64 54  1  0
 66 68  2  0
 67 66  1  0
 69 67  1  0
 70 79  2  0
 70 75  1  0
 71 67  1  0
 71 75  1  0
 72 71  1  0
 73 74  1  0
 73 72  1  0
 74 70  1  0
 75 76  2  0
 76 77  1  0
 78 77  2  0
 79 78  1  0
 80 54  1  0
 80 85  1  0
 80 81  1  0
 81 84  1  1
 81 82  1  0
 83 81  1  0
 85 88  1  0
 86 85  1  0
 86 90  1  0
 87 86  2  0
 90 89  1  0
 90 92  1  0
 92 93  1  0
 92 91  1  0
M  ISO  4  10 100  18 100  52 101  53 101
M  END
>  <TORSDO>  (68) 
F 27

>  <SCORE>  (68) 
-5.496

>  <name>  (68) 
68

>  <ligand_id>  (68) 
68

>  <original_smiles>  (68) 
[H]c1c([H])c([H])c2c(c1[H])C([H])([H])C([H])([H])C([H])([H])C2([H])N([H])C(=O)C1([H])N(C(=O)C([H])(N([H])C(=O)C([H])(N([H])C([H])([H])[H])C([H])([H])[H])C(C([H])([H])[H])(C([H])([H])[H])C([H])([H])[H])C([H])([H])c2c([H])c(OC([H])([H])C([H])([H])C([H])([H])C([H])([H])C([H])([H])C([H])([H])[N+]([H])([H])C([H])([H])C([H])([H])C([H])([H])C([H])([H])C([H])([H])N([H])C(=O)N3C([H])([H])C([H])([H])C([H])([H])C([H])(n4nc(-c5c([H])c([H])c(Oc6c([H])c([H])c(F)c([H])c6F)c([H])c5[H])c(C(=O)N([H])[H])c4N([H])[H])C3([H])[H])c([H])c([H])c2C1([H])[H]

>  <smiles>  (68) 
[H]c1c([H])c([H])c2c(c1[H])C([H])([H])C([H])([H])C([H])([H])C2([H])N([H])C(=O)C1([H])N(C(=O)C([H])(N([H])C(=O)C([H])(N([H])C([H])([H])[H])C([H])([H])[H])C(C([H])([H])[H])(C([H])([H])[H])C([H])([H])[H])C([H])([H])c2c([H])c(OC([H])([H])C([H])([H])C([H])([H])C([H])([H])C([H])([H])C([H])([H])[N+]([H])([H])C([H])([H])C([H])([H])C([H])([H])C([H])([H])C([H])([H])N([H])C(=O)N3C([H])([H])C([H])([H])C([H])([H])C([H])(n4nc(-c5c([H])c([H])c(Oc6c([H])c([H])c(F)c([H])c6F)c([H])c5[H])c(C(=O)N([H])[H])c4N([H])[H])C3([H])[H])c([H])c([H])c2C1([H])[H]

$$$$
69:0:0
     RDKit          3D

 95102  0  0  1  0  0  0  0  0999 V2000
  -25.4200  -23.4920   20.4310 C   0  0  0  0  0  2  0  0  0  0  0  0
  -25.0120  -22.2370   19.6400 C   0  0  0  0  0  2  0  0  0  0  0  0
  -26.2100  -21.5790   18.9250 C   0  0  0  0  0  2  0  0  0  0  0  0
  -26.7390  -20.3180   19.6340 C   0  0  0  0  0  2  0  0  0  0  0  0
  -28.1740  -19.9560   19.2120 C   0  0  0  0  0  2  0  0  0  0  0  0
  -29.6450  -18.0610   19.9720 C   0  0  0  0  0  0  0  0  0  0  0  0
  -28.4740  -18.5880   19.6000 N   0  0  0  0  0  0  0  0  0  0  0  0
  -30.6750  -18.7060   20.1800 O   0  0  0  0  0  0  0  0  0  0  0  0
  -27.7110  -17.9340   19.5000 H   0  0  0  0  0  0  0  0  0  0  0  0
  -29.6240  -16.5430   20.0590 C   0  0  0  0  0  2  0  0  0  0  0  0
  -31.4000  -14.8740   19.8940 C   0  0  0  0  0  0  0  0  0  0  0  0
  -31.0370  -12.6180   18.9610 C   0  0  0  0  0  2  0  0  0  0  0  0
  -30.0600  -12.6630   17.7680 C   0  0  0  0  0  2  0  0  0  0  0  0
  -28.6020  -12.5350   18.2510 C   0  0  0  0  0  2  0  0  0  0  0  0
  -28.2820  -13.5350   19.3850 C   0  0  0  0  0  3  0  0  0  0  0  0
  -29.3640  -13.4760   20.4940 C   0  0  0  0  0  2  0  0  0  0  0  0
  -30.6820  -13.7160   19.8740 N   0  0  0  0  0  0  0  0  0  0  0  0
  -32.5040  -14.9920   19.3620 O   0  0  0  0  0  0  0  0  0  0  0  0
  -30.8640  -15.9280   20.5250 N   0  0  0  0  0  0  0  0  0  0  0  0
  -31.5470  -16.6430   20.7390 H   0  0  0  0  0  0  0  0  0  0  0  0
  -25.9630  -14.3030   20.1930 C   0  0  0  0  0  0  0  0  0  0  0  0
  -24.8660  -13.5960   20.6080 C   0  0  0  0  0  0  0  0  0  0  0  0
  -25.2460  -12.2190   20.5520 C   0  0  0  0  0  0  0  0  0  0  0  0
  -26.9390  -13.3550   19.9190 N   0  0  0  0  0  0  0  0  0  0  0  0
  -26.5140  -12.1000   20.1920 N   0  0  0  0  0  0  0  0  0  0  0  0
  -24.4590  -10.9990   20.7610 C   0  0  0  0  0  0  0  0  0  0  0  0
  -24.8300  -10.0420   21.7290 C   0  0  0  0  0  3  0  0  0  0  0  0
  -24.0500   -8.8820   21.9220 C   0  0  0  0  0  3  0  0  0  0  0  0
  -22.8870   -8.6710   21.1430 C   0  0  0  0  0  0  0  0  0  0  0  0
  -22.5370   -9.6170   20.1650 C   0  0  0  0  0  3  0  0  0  0  0  0
  -23.3170  -10.7690   19.9710 C   0  0  0  0  0  3  0  0  0  0  0  0
  -22.0840   -7.5610   21.2430 O   0  0  0  0  0  0  0  0  0  0  0  0
  -21.9090   -6.9050   22.4350 C   0  0  0  0  0  0  0  0  0  0  0  0
  -21.4020   -7.5600   23.5790 C   0  0  0  0  0  3  0  0  0  0  0  0
  -21.1760   -6.8310   24.7630 C   0  0  0  0  0  3  0  0  0  0  0  0
  -21.4470   -5.4490   24.8030 C   0  0  0  0  0  0  0  0  0  0  0  0
  -21.9470   -4.7950   23.6640 C   0  0  0  0  0  3  0  0  0  0  0  0
  -22.1760   -5.5220   22.4820 C   0  0  0  0  0  0  0  0  0  0  0  0
  -22.6390   -4.8840   21.3800 F   0  0  0  0  0  0  0  0  0  0  0  0
  -21.2250   -4.7470   25.9380 F   0  0  0  0  0  0  0  0  0  0  0  0
  -23.5110  -14.1510   20.9370 C   0  0  0  0  0  0  0  0  0  0  0  0
  -22.7770  -13.4870   21.8260 N   0  0  0  0  0  0  0  0  0  0  0  0
  -23.1110  -15.2020   20.4370 O   0  0  0  0  0  0  0  0  0  0  0  0
  -23.1090  -12.6320   22.2440 H   0  0  0  0  0  0  0  0  0  0  0  0
  -21.8690  -13.8430   22.0920 H   0  0  0  0  0  0  0  0  0  0  0  0
  -26.2070  -15.6600   19.9960 N   0  0  0  0  0  0  0  0  0  0  0  0
  -25.4520  -16.3340   20.0710 H   0  0  0  0  0  0  0  0  0  0  0  0
  -26.9430  -15.9600   19.3750 H   0  0  0  0  0  0  0  0  0  0  0  0
  -26.4080  -23.2150   21.5800 C   0  0  0  0  0  2  0  0  0  0  0  0
  -28.3240  -24.7590   21.3170 C   0  0  0  0  0  0  0  0  0  0  0  0
  -27.1730  -24.4120   21.9100 N   0  0  0  0  0  0  0  0  0  0  0  0
  -28.9110  -24.0270   20.5130 O   0  0  0  0  0  0  0  0  0  0  0  0
  -26.7760  -25.0510   22.5880 H   0  0  0  0  0  0  0  0  0  0  0  0
  -28.8720  -26.1580   21.6030 C   0  0  0  0  0  2  0  0  0  0  0  0
  -28.6800  -26.9570   20.4380 O   0  0  0  0  0  0  0  0  0  0  0  0
  -24.6440  -31.9760   23.4270 C   0  0  0  0  0  0  0  0  0  0  0  0
  -27.4920  -27.6380   20.4280 C   0  0  0  0  0  0  0  0  0  0  0  0
  -23.5190  -30.5440   21.7490 C   0  0  0  0  0  3  0  0  0  0  0  0
  -25.0520  -29.0400   20.3750 C   0  0  0  0  0  0  0  0  0  0  0  0
  -26.0350  -30.9750   21.6230 C   0  0  0  0  0  2  0  0  0  0  0  0
  -26.1730  -29.6050   20.9970 C   0  0  0  0  0  0  0  0  0  0  0  0
  -27.3970  -28.9080   21.0300 C   0  0  0  0  0  3  0  0  0  0  0  0
  -26.3650  -27.0760   19.7960 C   0  0  0  0  0  3  0  0  0  0  0  0
  -25.1390  -27.7700   19.7760 C   0  0  0  0  0  3  0  0  0  0  0  0
  -23.7840  -29.8630   20.3790 C   0  0  0  0  0  2  0  0  0  0  0  0
  -24.7470  -31.1810   22.3250 N   0  0  0  0  0  0  0  0  0  0  0  0
  -23.5440  -32.2220   23.9400 O   0  0  0  0  0  0  0  0  0  0  0  0
  -22.8660  -29.5110   22.6920 C   0  0  0  0  0  0  0  0  0  0  0  0
  -21.5470  -29.3080   22.5330 N   0  0  0  0  0  0  0  0  0  0  0  0
  -23.5420  -28.8940   23.5190 O   0  0  0  0  0  0  0  0  0  0  0  0
  -21.0670  -29.8610   21.8380 H   0  0  0  0  0  0  0  0  0  0  0  0
  -18.1790  -28.0820   22.9670 C   0  0  0  0  0  0  0  0  0  0  0  0
  -20.7310  -28.3470   23.2770 C   0  0  0  0  0  3  0  0  0  0  0  0
  -20.8520  -26.9280   22.6760 C   0  0  0  0  0  2  0  0  0  0  0  0
  -19.7610  -26.6170   21.6450 C   0  0  0  0  0  2  0  0  0  0  0  0
  -18.3730  -26.7440   22.2760 C   0  0  0  0  0  2  0  0  0  0  0  0
  -19.2870  -28.8430   23.4240 C   0  0  0  0  0  0  0  0  0  0  0  0
  -19.0550  -30.0980   24.0230 C   0  0  0  0  0  3  0  0  0  0  0  0
  -17.7460  -30.5940   24.1760 C   0  0  0  0  0  3  0  0  0  0  0  0
  -16.6520  -29.8290   23.7410 C   0  0  0  0  0  3  0  0  0  0  0  0
  -16.8690  -28.5750   23.1410 C   0  0  0  0  0  3  0  0  0  0  0  0
  -25.9000  -32.6320   24.0820 C   0  0  0  0  0  3  0  0  0  0  0  0
  -26.3580  -31.9140   25.4100 C   0  0  1  0  0  0  0  0  0  0  0  0
  -25.2150  -31.7050   26.4290 C   0  0  0  0  0  1  0  0  0  0  0  0
  -26.9700  -30.5280   25.0960 C   0  0  0  0  0  1  0  0  0  0  0  0
  -27.4690  -32.7420   26.0970 C   0  0  0  0  0  1  0  0  0  0  0  0
  -25.5770  -34.0430   24.3340 N   0  0  0  0  0  0  0  0  0  0  0  0
  -25.9350  -35.0590   23.5370 C   0  0  0  0  0  0  0  0  0  0  0  0
  -26.6460  -34.9080   22.5400 O   0  0  0  0  0  0  0  0  0  0  0  0
  -24.9480  -34.2310   25.1010 H   0  0  0  0  0  0  0  0  0  0  0  0
  -24.2080  -36.8150   23.0430 C   0  0  0  0  0  1  0  0  0  0  0  0
  -25.4270  -36.4630   23.9090 C   0  0  0  0  0  3  0  0  0  0  0  0
  -27.5300  -37.4070   24.7570 C   0  0  0  0  0  1  0  0  0  0  0  0
  -26.4570  -37.5160   23.7720 N   0  0  0  0  0  0  0  0  0  0  0  0
  -26.0410  -38.4400   23.8590 H   0  0  0  0  0  0  0  0  0  0  0  0
  1 49  1  0
  2  1  1  0
  3  4  1  0
  3  2  1  0
  5  7  1  0
  5  4  1  0
  6 10  1  0
  6  8  2  0
  7  6  1  0
  9  7  1  0
 10 19  1  0
 11 19  1  0
 12 17  1  0
 13 14  1  0
 13 12  1  0
 15 14  1  0
 15 24  1  0
 15 16  1  0
 17 11  1  0
 17 16  1  0
 18 11  2  0
 19 20  1  0
 21 22  2  0
 22 41  1  0
 23 22  1  0
 23 26  1  0
 24 25  1  0
 24 21  1  0
 25 23  2  0
 26 27  1  0
 27 28  2  0
 29 32  1  0
 29 28  1  0
 30 29  2  0
 31 30  1  0
 31 26  2  0
 32 33  1  0
 33 38  2  0
 33 34  1  0
 34 35  2  0
 35 36  1  0
 36 40  1  0
 37 36  2  0
 38 37  1  0
 39 38  1  0
 41 42  1  0
 42 45  1  0
 42 44  1  0
 43 41  2  0
 46 47  1  0
 46 21  1  0
 48 46  1  0
 49 51  1  0
 50 54  1  0
 50 51  1  0
 51 53  1  0
 52 50  2  0
 55 54  1  0
 56 67  2  0
 57 55  1  0
 57 62  1  0
 58 66  1  0
 58 68  1  0
 59 65  1  0
 59 61  1  0
 60 66  1  0
 61 62  2  0
 61 60  1  0
 63 57  2  0
 64 63  1  0
 64 59  2  0
 65 58  1  0
 66 56  1  0
 68 70  2  0
 69 68  1  0
 71 69  1  0
 72 81  2  0
 72 77  1  0
 73 69  1  0
 73 77  1  0
 74 73  1  0
 75 76  1  0
 75 74  1  0
 76 72  1  0
 77 78  2  0
 78 79  1  0
 80 79  2  0
 81 80  1  0
 82 56  1  0
 82 87  1  0
 82 83  1  0
 83 86  1  1
 83 84  1  0
 85 83  1  0
 87 90  1  0
 88 92  1  0
 88 87  1  0
 89 88  2  0
 92 91  1  0
 94 95  1  0
 94 92  1  0
 94 93  1  0
M  ISO  4  11 100  19 100  54 101  55 101
M  END
>  <TORSDO>  (69) 
F 25

>  <SCORE>  (69) 
-10.731

>  <name>  (69) 
69

>  <ligand_id>  (69) 
69

>  <original_smiles>  (69) 
[H]c1c([H])c([H])c2c(c1[H])C([H])([H])C([H])([H])C([H])([H])C2([H])N([H])C(=O)C1([H])N(C(=O)C([H])(N([H])C(=O)C([H])(N([H])C([H])([H])[H])C([H])([H])[H])C(C([H])([H])[H])(C([H])([H])[H])C([H])([H])[H])C([H])([H])c2c([H])c(OC([H])([H])C(=O)N([H])C([H])([H])C([H])([H])C([H])([H])C([H])([H])C([H])([H])C([H])([H])N([H])C(=O)C([H])([H])N([H])C(=O)N3C([H])([H])C([H])([H])C([H])([H])C([H])(n4nc(-c5c([H])c([H])c(Oc6c([H])c([H])c(F)c([H])c6F)c([H])c5[H])c(C(=O)N([H])[H])c4N([H])[H])C3([H])[H])c([H])c([H])c2C1([H])[H]

>  <smiles>  (69) 
[H]c1c([H])c([H])c2c(c1[H])C([H])([H])C([H])([H])C([H])([H])C2([H])N([H])C(=O)C1([H])N(C(=O)C([H])(N([H])C(=O)C([H])(N([H])C([H])([H])[H])C([H])([H])[H])C(C([H])([H])[H])(C([H])([H])[H])C([H])([H])[H])C([H])([H])c2c([H])c(OC([H])([H])C(=O)N([H])C([H])([H])C([H])([H])C([H])([H])C([H])([H])C([H])([H])C([H])([H])N([H])C(=O)C([H])([H])N([H])C(=O)N3C([H])([H])C([H])([H])C([H])([H])C([H])(n4nc(-c5c([H])c([H])c(Oc6c([H])c([H])c(F)c([H])c6F)c([H])c5[H])c(C(=O)N([H])[H])c4N([H])[H])C3([H])[H])c([H])c([H])c2C1([H])[H]

$$$$
70:0:0
     RDKit          3D

102109  0  0  1  0  0  0  0  0999 V2000
  -30.4450  -22.9740   15.7160 C   0  0  0  0  0  2  0  0  0  0  0  0
  -31.5000  -22.6960   16.8050 C   0  0  0  0  0  2  0  0  0  0  0  0
  -32.4820  -23.8610   17.0580 C   0  0  0  0  0  2  0  0  0  0  0  0
  -31.8560  -25.0150   17.7360 N   0  0  0  0  0  4  0  0  0  0  0  0
  -32.5340  -25.3920   18.3830 H   0  0  0  0  0  0  0  0  0  0  0  0
  -31.0760  -24.6790   18.2760 H   0  0  0  0  0  0  0  0  0  0  0  0
  -31.4280  -26.1200   16.8500 C   0  0  0  0  0  2  0  0  0  0  0  0
  -30.4540  -27.0830   17.5540 C   0  0  0  0  0  2  0  0  0  0  0  0
  -29.0310  -26.5000   17.7200 C   0  0  0  0  0  2  0  0  0  0  0  0
  -28.7760  -25.8770   19.1040 C   0  0  0  0  0  2  0  0  0  0  0  0
  -28.5260  -26.9040   20.0530 O   0  0  0  0  0  0  0  0  0  0  0  0
  -24.6750  -31.9240   23.2230 C   0  0  0  0  0  0  0  0  0  0  0  0
  -27.3120  -27.5570   20.0510 C   0  0  0  0  0  0  0  0  0  0  0  0
  -23.4470  -30.5240   21.5900 C   0  0  0  0  0  3  0  0  0  0  0  0
  -24.8890  -29.0120   20.1290 C   0  0  0  0  0  0  0  0  0  0  0  0
  -25.9630  -30.9130   21.3480 C   0  0  0  0  0  2  0  0  0  0  0  0
  -26.0470  -29.5460   20.7030 C   0  0  0  0  0  0  0  0  0  0  0  0
  -27.2550  -28.8220   20.6700 C   0  0  0  0  0  3  0  0  0  0  0  0
  -26.1320  -27.0250   19.4760 C   0  0  0  0  0  3  0  0  0  0  0  0
  -24.9250  -27.7480   19.5150 C   0  0  0  0  0  3  0  0  0  0  0  0
  -23.6370  -29.8560   20.2020 C   0  0  0  0  0  2  0  0  0  0  0  0
  -24.7140  -31.1350   22.1120 N   0  0  0  0  0  0  0  0  0  0  0  0
  -23.6030  -32.1830   23.7860 O   0  0  0  0  0  0  0  0  0  0  0  0
  -22.8250  -29.4900   22.5560 C   0  0  0  0  0  0  0  0  0  0  0  0
  -21.5000  -29.2950   22.4500 N   0  0  0  0  0  0  0  0  0  0  0  0
  -23.5290  -28.8650   23.3530 O   0  0  0  0  0  0  0  0  0  0  0  0
  -20.9930  -29.8560   21.7790 H   0  0  0  0  0  0  0  0  0  0  0  0
  -18.1480  -28.0590   22.9770 C   0  0  0  0  0  0  0  0  0  0  0  0
  -20.7050  -28.3450   23.2270 C   0  0  0  0  0  3  0  0  0  0  0  0
  -20.8190  -26.9170   22.6470 C   0  0  0  0  0  2  0  0  0  0  0  0
  -19.7120  -26.5840   21.6420 C   0  0  0  0  0  2  0  0  0  0  0  0
  -18.3350  -26.7120   22.2970 C   0  0  0  0  0  2  0  0  0  0  0  0
  -19.2620  -28.8320   23.3990 C   0  0  0  0  0  0  0  0  0  0  0  0
  -19.0340  -30.0930   23.9930 C   0  0  0  0  0  3  0  0  0  0  0  0
  -17.7250  -30.5790   24.1690 C   0  0  0  0  0  3  0  0  0  0  0  0
  -16.6260  -29.8020   23.7650 C   0  0  0  0  0  3  0  0  0  0  0  0
  -16.8400  -28.5430   23.1750 C   0  0  0  0  0  3  0  0  0  0  0  0
  -25.9690  -32.5560   23.8230 C   0  0  0  0  0  3  0  0  0  0  0  0
  -25.6580  -33.9480   24.1770 N   0  0  0  0  0  0  0  0  0  0  0  0
  -25.9740  -35.0120   23.4280 C   0  0  0  0  0  0  0  0  0  0  0  0
  -26.6310  -34.9270   22.3870 O   0  0  0  0  0  0  0  0  0  0  0  0
  -25.0700  -34.0880   24.9860 H   0  0  0  0  0  0  0  0  0  0  0  0
  -24.2260  -36.7940   23.1240 C   0  0  0  0  0  1  0  0  0  0  0  0
  -25.4830  -36.3880   23.9100 C   0  0  0  0  0  3  0  0  0  0  0  0
  -27.6250  -37.2770   24.7190 C   0  0  0  0  0  1  0  0  0  0  0  0
  -26.5050  -37.4510   23.7970 N   0  0  0  0  0  0  0  0  0  0  0  0
  -26.0940  -38.3650   23.9660 H   0  0  0  0  0  0  0  0  0  0  0  0
  -26.5270  -31.7710   25.0720 C   0  0  1  0  0  0  0  0  0  0  0  0
  -25.4650  -31.5070   26.1650 C   0  0  0  0  0  1  0  0  0  0  0  0
  -27.1100  -30.4040   24.6430 C   0  0  0  0  0  1  0  0  0  0  0  0
  -27.6870  -32.5660   25.7170 C   0  0  0  0  0  1  0  0  0  0  0  0
  -29.7560  -21.7070   15.1790 C   0  0  0  0  0  2  0  0  0  0  0  0
  -28.9480  -20.9330   16.2320 C   0  0  0  0  0  2  0  0  0  0  0  0
  -28.2780  -19.6840   15.6330 C   0  0  0  0  0  2  0  0  0  0  0  0
  -27.6030  -18.9040   16.6160 O   0  0  0  0  0  0  0  0  0  0  0  0
  -28.3040  -17.7490   17.0830 C   0  0  0  0  0  2  0  0  0  0  0  0
  -29.3300  -18.0740   18.1830 C   0  0  0  0  0  2  0  0  0  0  0  0
  -28.7020  -18.8820   19.3350 C   0  0  0  0  0  2  0  0  0  0  0  0
  -29.6770  -19.3270   20.4430 C   0  0  0  0  0  2  0  0  0  0  0  0
  -30.2550  -17.1210   21.4610 C   0  0  0  0  0  0  0  0  0  0  0  0
  -30.5960  -18.2890   20.9080 N   0  0  0  0  0  0  0  0  0  0  0  0
  -29.0870  -16.7340   21.5510 O   0  0  0  0  0  0  0  0  0  0  0  0
  -31.5830  -18.5040   20.8580 H   0  0  0  0  0  0  0  0  0  0  0  0
  -31.3880  -16.2510   22.0100 C   0  0  0  0  0  2  0  0  0  0  0  0
  -31.5400  -14.0280   20.9010 C   0  0  0  0  0  0  0  0  0  0  0  0
  -31.1010  -12.0010   19.5640 C   0  0  0  0  0  2  0  0  0  0  0  0
  -30.2240  -12.3380   18.3420 C   0  0  0  0  0  2  0  0  0  0  0  0
  -28.7230  -12.3510   18.7010 C   0  0  0  0  0  2  0  0  0  0  0  0
  -28.4200  -13.1540   19.9920 C   0  0  0  0  0  3  0  0  0  0  0  0
  -29.3870  -12.7400   21.1210 C   0  0  0  0  0  2  0  0  0  0  0  0
  -30.7680  -12.9420   20.6410 N   0  0  0  0  0  0  0  0  0  0  0  0
  -32.6120  -14.2610   20.3330 O   0  0  0  0  0  0  0  0  0  0  0  0
  -31.0350  -14.8510   21.8200 N   0  0  0  0  0  0  0  0  0  0  0  0
  -30.1400  -14.5790   22.2010 H   0  0  0  0  0  0  0  0  0  0  0  0
  -26.0470  -13.9770   20.5700 C   0  0  0  0  0  0  0  0  0  0  0  0
  -24.8950  -13.3000   20.8740 C   0  0  0  0  0  0  0  0  0  0  0  0
  -25.2370  -11.9130   20.8580 C   0  0  0  0  0  0  0  0  0  0  0  0
  -27.0220  -13.0070   20.3950 N   0  0  0  0  0  0  0  0  0  0  0  0
  -26.5330  -11.7610   20.6210 N   0  0  0  0  0  0  0  0  0  0  0  0
  -24.3940  -10.7190   21.0020 C   0  0  0  0  0  0  0  0  0  0  0  0
  -24.7050   -9.7040   21.9330 C   0  0  0  0  0  3  0  0  0  0  0  0
  -23.8690   -8.5750   22.0680 C   0  0  0  0  0  3  0  0  0  0  0  0
  -22.7070   -8.4530   21.2700 C   0  0  0  0  0  0  0  0  0  0  0  0
  -22.4140   -9.4560   20.3290 C   0  0  0  0  0  3  0  0  0  0  0  0
  -23.2510  -10.5770   20.1920 C   0  0  0  0  0  3  0  0  0  0  0  0
  -21.8510   -7.3810   21.3120 O   0  0  0  0  0  0  0  0  0  0  0  0
  -21.6960   -6.6270   22.4480 C   0  0  0  0  0  0  0  0  0  0  0  0
  -21.3000   -7.2020   23.6760 C   0  0  0  0  0  3  0  0  0  0  0  0
  -21.0880   -6.3810   24.8010 C   0  0  0  0  0  3  0  0  0  0  0  0
  -21.2580   -4.9880   24.7000 C   0  0  0  0  0  0  0  0  0  0  0  0
  -21.6460   -4.4140   23.4780 C   0  0  0  0  0  3  0  0  0  0  0  0
  -21.8630   -5.2320   22.3540 C   0  0  0  0  0  0  0  0  0  0  0  0
  -22.2170   -4.6690   21.1740 F   0  0  0  0  0  0  0  0  0  0  0  0
  -21.0470   -4.1980   25.7800 F   0  0  0  0  0  0  0  0  0  0  0  0
  -23.5360  -13.8990   21.0880 C   0  0  0  0  0  0  0  0  0  0  0  0
  -22.7140  -13.2690   21.9220 N   0  0  0  0  0  0  0  0  0  0  0  0
  -23.2090  -14.9550   20.5490 O   0  0  0  0  0  0  0  0  0  0  0  0
  -22.9940  -12.4160   22.3840 H   0  0  0  0  0  0  0  0  0  0  0  0
  -21.7970  -13.6490   22.1080 H   0  0  0  0  0  0  0  0  0  0  0  0
  -26.3390  -15.3290   20.4220 N   0  0  0  0  0  0  0  0  0  0  0  0
  -25.6300  -16.0450   20.5350 H   0  0  0  0  0  0  0  0  0  0  0  0
  -27.2810  -15.7050   20.4040 H   0  0  0  0  0  0  0  0  0  0  0  0
  1  2  1  0
  2  3  1  0
  3  4  1  0
  4  6  1  0
  4  5  1  0
  7  8  1  0
  7  4  1  0
  8  9  1  0
  9 10  1  0
 10 11  1  0
 12 23  2  0
 13 11  1  0
 13 18  1  0
 14 22  1  0
 14 24  1  0
 15 21  1  0
 15 17  1  0
 16 22  1  0
 17 16  1  0
 18 17  2  0
 19 20  1  0
 19 13  2  0
 20 15  2  0
 21 14  1  0
 22 12  1  0
 24 26  2  0
 25 24  1  0
 27 25  1  0
 28 37  2  0
 28 33  1  0
 29 25  1  0
 29 33  1  0
 30 29  1  0
 31 32  1  0
 31 30  1  0
 32 28  1  0
 33 34  2  0
 34 35  1  0
 36 35  2  0
 37 36  1  0
 38 12  1  0
 38 39  1  0
 38 48  1  0
 39 42  1  0
 40 44  1  0
 40 39  1  0
 41 40  2  0
 44 43  1  0
 46 44  1  0
 46 47  1  0
 46 45  1  0
 48 51  1  1
 48 49  1  0
 50 48  1  0
 52  1  1  0
 52 53  1  0
 54 53  1  0
 54 55  1  0
 55 56  1  0
 56 57  1  0
 57 58  1  0
 58 59  1  0
 59 61  1  0
 60 62  2  0
 60 64  1  0
 61 60  1  0
 63 61  1  0
 65 73  1  0
 66 71  1  0
 67 68  1  0
 67 66  1  0
 69 68  1  0
 69 78  1  0
 69 70  1  0
 71 65  1  0
 71 70  1  0
 72 65  2  0
 73 64  1  0
 73 74  1  0
 75 76  2  0
 76 95  1  0
 77 76  1  0
 77 80  1  0
 78 75  1  0
 78 79  1  0
 79 77  2  0
 80 81  1  0
 81 82  2  0
 83 86  1  0
 83 82  1  0
 84 83  2  0
 85 84  1  0
 85 80  2  0
 86 87  1  0
 87 88  1  0
 88 89  2  0
 90 89  1  0
 90 94  1  0
 91 90  2  0
 92 87  2  0
 92 91  1  0
 93 92  1  0
 95 96  1  0
 96 99  1  0
 96 98  1  0
 97 95  2  0
100101  1  0
100 75  1  0
102100  1  0
M  ISO  4  10 101  11 101  65 100  73 100
M  END
>  <TORSDO>  (70) 
F 33

>  <SCORE>  (70) 
-8.584

>  <name>  (70) 
70

>  <ligand_id>  (70) 
70

>  <original_smiles>  (70) 
[H]c1c([H])c([H])c2c(c1[H])C([H])([H])C([H])([H])C([H])([H])C2([H])N([H])C(=O)C1([H])N(C(=O)C([H])(N([H])C(=O)C([H])(N([H])C([H])([H])[H])C([H])([H])[H])C(C([H])([H])[H])(C([H])([H])[H])C([H])([H])[H])C([H])([H])c2c([H])c(OC([H])([H])C([H])([H])C([H])([H])C([H])([H])[N+]([H])([H])C([H])([H])C([H])([H])C([H])([H])C([H])([H])C([H])([H])C([H])([H])OC([H])([H])C([H])([H])C([H])([H])C([H])([H])N([H])C(=O)C([H])([H])N([H])C(=O)N3C([H])([H])C([H])([H])C([H])([H])C([H])(n4nc(-c5c([H])c([H])c(Oc6c([H])c([H])c(F)c([H])c6F)c([H])c5[H])c(C(=O)N([H])[H])c4N([H])[H])C3([H])[H])c([H])c([H])c2C1([H])[H]

>  <smiles>  (70) 
[H]c1c([H])c([H])c2c(c1[H])C([H])([H])C([H])([H])C([H])([H])C2([H])N([H])C(=O)C1([H])N(C(=O)C([H])(N([H])C(=O)C([H])(N([H])C([H])([H])[H])C([H])([H])[H])C(C([H])([H])[H])(C([H])([H])[H])C([H])([H])[H])C([H])([H])c2c([H])c(OC([H])([H])C([H])([H])C([H])([H])C([H])([H])[N+]([H])([H])C([H])([H])C([H])([H])C([H])([H])C([H])([H])C([H])([H])C([H])([H])OC([H])([H])C([H])([H])C([H])([H])C([H])([H])N([H])C(=O)C([H])([H])N([H])C(=O)N3C([H])([H])C([H])([H])C([H])([H])C([H])(n4nc(-c5c([H])c([H])c(Oc6c([H])c([H])c(F)c([H])c6F)c([H])c5[H])c(C(=O)N([H])[H])c4N([H])[H])C3([H])[H])c([H])c([H])c2C1([H])[H]

$$$$
71:0:0
     RDKit          3D

 95102  0  0  1  0  0  0  0  0999 V2000
  -32.2040  -22.0200   20.8240 C   0  0  0  0  0  3  0  0  0  0  0  0
  -32.3840  -23.3370   20.6060 C   0  0  0  0  0  3  0  0  0  0  0  0
  -31.8350  -21.5370   22.1420 C   0  0  0  0  0  0  0  0  0  0  0  0
  -31.8130  -20.2000   22.1970 N   0  0  0  0  0  0  0  0  0  0  0  0
  -31.5370  -22.2470   23.1050 O   0  0  0  0  0  0  0  0  0  0  0  0
  -32.0860  -19.6950   21.3650 H   0  0  0  0  0  0  0  0  0  0  0  0
  -31.3430  -19.4090   23.3340 C   0  0  0  0  0  2  0  0  0  0  0  0
  -30.4220  -18.2780   22.8530 C   0  0  0  0  0  2  0  0  0  0  0  0
  -31.1530  -17.0320   22.3030 C   0  0  0  0  0  2  0  0  0  0  0  0
  -30.4270  -16.4170   21.0930 C   0  0  0  0  0  2  0  0  0  0  0  0
  -30.9050  -14.1320   20.2010 C   0  0  0  0  0  0  0  0  0  0  0  0
  -30.4690  -12.0740   18.9100 C   0  0  0  0  0  2  0  0  0  0  0  0
  -29.4910  -12.3810   17.7570 C   0  0  0  0  0  2  0  0  0  0  0  0
  -28.0270  -12.2990   18.2330 C   0  0  0  0  0  2  0  0  0  0  0  0
  -27.7790  -13.0960   19.5400 C   0  0  0  0  0  3  0  0  0  0  0  0
  -28.8480  -12.7340   20.5950 C   0  0  0  0  0  2  0  0  0  0  0  0
  -30.1830  -12.9960   20.0170 N   0  0  0  0  0  0  0  0  0  0  0  0
  -31.9110  -14.4230   19.5470 O   0  0  0  0  0  0  0  0  0  0  0  0
  -30.3830  -14.9590   21.1140 N   0  0  0  0  0  0  0  0  0  0  0  0
  -29.6370  -14.5530   21.6620 H   0  0  0  0  0  0  0  0  0  0  0  0
  -25.4140  -13.8050   20.2860 C   0  0  0  0  0  0  0  0  0  0  0  0
  -24.3290  -13.0770   20.6930 C   0  0  0  0  0  0  0  0  0  0  0  0
  -24.7410  -11.7090   20.6700 C   0  0  0  0  0  0  0  0  0  0  0  0
  -26.4240  -12.8840   20.0470 N   0  0  0  0  0  0  0  0  0  0  0  0
  -26.0190  -11.6190   20.3280 N   0  0  0  0  0  0  0  0  0  0  0  0
  -23.9770  -10.4750   20.8990 C   0  0  0  0  0  0  0  0  0  0  0  0
  -24.3990   -9.5100   21.8410 C   0  0  0  0  0  3  0  0  0  0  0  0
  -23.6390   -8.3400   22.0570 C   0  0  0  0  0  3  0  0  0  0  0  0
  -22.4440   -8.1270   21.3310 C   0  0  0  0  0  0  0  0  0  0  0  0
  -22.0400   -9.0800   20.3790 C   0  0  0  0  0  3  0  0  0  0  0  0
  -22.8000  -10.2410   20.1620 C   0  0  0  0  0  3  0  0  0  0  0  0
  -21.6560   -7.0080   21.4540 O   0  0  0  0  0  0  0  0  0  0  0  0
  -21.6010   -6.2930   22.6240 C   0  0  0  0  0  0  0  0  0  0  0  0
  -21.2240   -6.8900   23.8460 C   0  0  0  0  0  3  0  0  0  0  0  0
  -21.1130   -6.1030   25.0090 C   0  0  0  0  0  3  0  0  0  0  0  0
  -21.3700   -4.7200   24.9510 C   0  0  0  0  0  0  0  0  0  0  0  0
  -21.7390   -4.1230   23.7330 C   0  0  0  0  0  3  0  0  0  0  0  0
  -21.8510   -4.9080   22.5730 C   0  0  0  0  0  0  0  0  0  0  0  0
  -22.1880   -4.3230   21.3970 F   0  0  0  0  0  0  0  0  0  0  0  0
  -21.2560   -3.9610   26.0660 F   0  0  0  0  0  0  0  0  0  0  0  0
  -22.9560  -13.6050   20.9970 C   0  0  0  0  0  0  0  0  0  0  0  0
  -22.2300  -12.9490   21.8980 N   0  0  0  0  0  0  0  0  0  0  0  0
  -22.5360  -14.6360   20.4720 O   0  0  0  0  0  0  0  0  0  0  0  0
  -22.5790  -12.1150   22.3450 H   0  0  0  0  0  0  0  0  0  0  0  0
  -21.3110  -13.2880   22.1450 H   0  0  0  0  0  0  0  0  0  0  0  0
  -25.6220  -15.1680   20.0860 N   0  0  0  0  0  0  0  0  0  0  0  0
  -24.8840  -15.8520   20.2110 H   0  0  0  0  0  0  0  0  0  0  0  0
  -26.4870  -15.5730   19.7500 H   0  0  0  0  0  0  0  0  0  0  0  0
  -32.7340  -23.9700   19.2710 C   0  0  0  0  0  2  0  0  0  0  0  0
  -32.2690  -23.2320   18.1420 O   0  0  0  0  0  0  0  0  0  0  0  0
  -30.8560  -23.1040   17.9620 C   0  0  0  0  0  2  0  0  0  0  0  0
  -30.0960  -24.4300   17.7650 C   0  0  0  0  0  2  0  0  0  0  0  0
  -29.5390  -25.0390   19.0680 C   0  0  0  0  0  2  0  0  0  0  0  0
  -28.6270  -26.2440   18.8140 C   0  0  0  0  0  2  0  0  0  0  0  0
  -28.2380  -26.7930   20.0720 O   0  0  0  0  0  0  0  0  0  0  0  0
  -24.5000  -31.9420   23.2400 C   0  0  0  0  0  0  0  0  0  0  0  0
  -27.0560  -27.4950   20.1050 C   0  0  0  0  0  0  0  0  0  0  0  0
  -23.2530  -30.5480   21.6220 C   0  0  0  0  0  3  0  0  0  0  0  0
  -24.6660  -28.9940   20.1810 C   0  0  0  0  0  0  0  0  0  0  0  0
  -25.7770  -30.8850   21.3810 C   0  0  0  0  0  2  0  0  0  0  0  0
  -25.8360  -29.5130   20.7490 C   0  0  0  0  0  0  0  0  0  0  0  0
  -27.0320  -28.7640   20.7200 C   0  0  0  0  0  3  0  0  0  0  0  0
  -25.8600  -26.9680   19.5680 C   0  0  0  0  0  3  0  0  0  0  0  0
  -24.6680  -27.7160   19.5990 C   0  0  0  0  0  3  0  0  0  0  0  0
  -23.4330  -29.8660   20.2400 C   0  0  0  0  0  2  0  0  0  0  0  0
  -24.5290  -31.1400   22.1400 N   0  0  0  0  0  0  0  0  0  0  0  0
  -23.4310  -32.2280   23.7970 O   0  0  0  0  0  0  0  0  0  0  0  0
  -22.6090  -29.5350   22.5940 C   0  0  0  0  0  0  0  0  0  0  0  0
  -21.2850  -29.3490   22.4720 N   0  0  0  0  0  0  0  0  0  0  0  0
  -23.2970  -28.9180   23.4130 O   0  0  0  0  0  0  0  0  0  0  0  0
  -20.7920  -29.8980   21.7800 H   0  0  0  0  0  0  0  0  0  0  0  0
  -17.9190  -28.1340   22.9640 C   0  0  0  0  0  0  0  0  0  0  0  0
  -20.4700  -28.4200   23.2540 C   0  0  0  0  0  3  0  0  0  0  0  0
  -20.5920  -26.9790   22.7060 C   0  0  0  0  0  2  0  0  0  0  0  0
  -19.5020  -26.6260   21.6900 C   0  0  0  0  0  2  0  0  0  0  0  0
  -18.1130  -26.7720   22.3180 C   0  0  0  0  0  2  0  0  0  0  0  0
  -19.0260  -28.9140   23.3890 C   0  0  0  0  0  0  0  0  0  0  0  0
  -18.7920  -30.1870   23.9510 C   0  0  0  0  0  3  0  0  0  0  0  0
  -17.4820  -30.6810   24.0950 C   0  0  0  0  0  3  0  0  0  0  0  0
  -16.3880  -29.8980   23.6850 C   0  0  0  0  0  3  0  0  0  0  0  0
  -16.6070  -28.6260   23.1270 C   0  0  0  0  0  3  0  0  0  0  0  0
  -25.8040  -32.5600   23.8380 C   0  0  0  0  0  3  0  0  0  0  0  0
  -26.3330  -31.7880   25.1080 C   0  0  1  0  0  0  0  0  0  0  0  0
  -25.2550  -31.5690   26.1940 C   0  0  0  0  0  1  0  0  0  0  0  0
  -26.8940  -30.4030   24.7100 C   0  0  0  0  0  1  0  0  0  0  0  0
  -27.5060  -32.5710   25.7480 C   0  0  0  0  0  1  0  0  0  0  0  0
  -25.5180  -33.9630   24.1630 N   0  0  0  0  0  0  0  0  0  0  0  0
  -25.8580  -35.0060   23.3940 C   0  0  0  0  0  0  0  0  0  0  0  0
  -26.5190  -34.8880   22.3590 O   0  0  0  0  0  0  0  0  0  0  0  0
  -24.9330  -34.1320   24.9670 H   0  0  0  0  0  0  0  0  0  0  0  0
  -24.1540  -36.8190   23.0370 C   0  0  0  0  0  1  0  0  0  0  0  0
  -25.3920  -36.4040   23.8460 C   0  0  0  0  0  3  0  0  0  0  0  0
  -27.5440  -37.2600   24.6600 C   0  0  0  0  0  1  0  0  0  0  0  0
  -26.4390  -37.4410   23.7240 N   0  0  0  0  0  0  0  0  0  0  0  0
  -26.0470  -38.3670   23.8720 H   0  0  0  0  0  0  0  0  0  0  0  0
  1  3  1  0
  2  1  2  0
  3  4  1  0
  3  5  2  0
  4  7  1  0
  6  4  1  0
  8  7  1  0
  9  8  1  0
 10 19  1  0
 10  9  1  0
 11 19  1  0
 12 17  1  0
 13 14  1  0
 13 12  1  0
 15 14  1  0
 15 24  1  0
 15 16  1  0
 17 11  1  0
 17 16  1  0
 18 11  2  0
 19 20  1  0
 21 22  2  0
 22 41  1  0
 23 22  1  0
 23 26  1  0
 24 21  1  0
 24 25  1  0
 25 23  2  0
 26 27  1  0
 27 28  2  0
 29 32  1  0
 29 28  1  0
 30 29  2  0
 31 30  1  0
 31 26  2  0
 32 33  1  0
 33 34  1  0
 34 35  2  0
 36 35  1  0
 36 40  1  0
 37 36  2  0
 38 33  2  0
 38 37  1  0
 39 38  1  0
 41 42  1  0
 42 45  1  0
 42 44  1  0
 43 41  2  0
 46 47  1  0
 46 21  1  0
 48 46  1  0
 49  2  1  0
 50 49  1  0
 51 50  1  0
 52 51  1  0
 52 53  1  0
 54 53  1  0
 54 55  1  0
 55 57  1  0
 56 67  2  0
 57 62  1  0
 58 66  1  0
 58 68  1  0
 59 65  1  0
 59 61  1  0
 60 66  1  0
 61 60  1  0
 62 61  2  0
 63 64  1  0
 63 57  2  0
 64 59  2  0
 65 58  1  0
 66 56  1  0
 68 70  2  0
 69 68  1  0
 71 69  1  0
 72 81  2  0
 72 77  1  0
 73 69  1  0
 73 77  1  0
 74 73  1  0
 75 76  1  0
 75 74  1  0
 76 72  1  0
 77 78  2  0
 78 79  1  0
 80 79  2  0
 81 80  1  0
 82 56  1  0
 82 87  1  0
 82 83  1  0
 83 86  1  1
 83 84  1  0
 85 83  1  0
 87 90  1  0
 88 92  1  0
 88 87  1  0
 89 88  2  0
 92 91  1  0
 94 92  1  0
 94 95  1  0
 94 93  1  0
M  ISO  4  11 100  19 100  54 101  55 101
M  END
>  <TORSDO>  (71) 
F 27

>  <SCORE>  (71) 
-10.206

>  <name>  (71) 
71

>  <ligand_id>  (71) 
71

>  <original_smiles>  (71) 
[H]C(C(=O)N([H])C([H])([H])C([H])([H])C([H])([H])C([H])([H])N([H])C(=O)N1C([H])([H])C([H])([H])C([H])([H])C([H])(n2nc(-c3c([H])c([H])c(Oc4c([H])c([H])c(F)c([H])c4F)c([H])c3[H])c(C(=O)N([H])[H])c2N([H])[H])C1([H])[H])=C([H])C([H])([H])OC([H])([H])C([H])([H])C([H])([H])C([H])([H])Oc1c([H])c([H])c2c(c1[H])C([H])([H])N(C(=O)C([H])(N([H])C(=O)C([H])(N([H])C([H])([H])[H])C([H])([H])[H])C(C([H])([H])[H])(C([H])([H])[H])C([H])([H])[H])C([H])(C(=O)N([H])C1([H])c3c([H])c([H])c([H])c([H])c3C([H])([H])C([H])([H])C1([H])[H])C2([H])[H]

>  <smiles>  (71) 
[H]C(C(=O)N([H])C([H])([H])C([H])([H])C([H])([H])C([H])([H])N([H])C(=O)N1C([H])([H])C([H])([H])C([H])([H])C([H])(n2nc(-c3c([H])c([H])c(Oc4c([H])c([H])c(F)c([H])c4F)c([H])c3[H])c(C(=O)N([H])[H])c2N([H])[H])C1([H])[H])=C([H])C([H])([H])OC([H])([H])C([H])([H])C([H])([H])C([H])([H])Oc1c([H])c([H])c2c(c1[H])C([H])([H])N(C(=O)C([H])(N([H])C(=O)C([H])(N([H])C([H])([H])[H])C([H])([H])[H])C(C([H])([H])[H])(C([H])([H])[H])C([H])([H])[H])C([H])(C(=O)N([H])C1([H])c3c([H])c([H])c([H])c([H])c3C([H])([H])C([H])([H])C1([H])[H])C2([H])[H]

$$$$
72:0:0
     RDKit          3D

102109  0  0  1  0  0  0  0  0999 V2000
  -33.1120  -24.0320   29.1830 C   0  0  0  0  0  2  0  0  0  0  0  0
  -31.8690  -24.9420   29.2840 C   0  0  0  0  0  2  0  0  0  0  0  0
  -31.1760  -25.3990   26.9400 C   0  0  0  0  0  0  0  0  0  0  0  0
  -30.9920  -24.8050   28.1250 N   0  0  0  0  0  0  0  0  0  0  0  0
  -32.0620  -26.2330   26.7470 O   0  0  0  0  0  0  0  0  0  0  0  0
  -30.2220  -24.1530   28.2050 H   0  0  0  0  0  0  0  0  0  0  0  0
  -30.2490  -24.9510   25.8060 C   0  0  0  0  0  2  0  0  0  0  0  0
  -30.1410  -25.9610   24.6470 C   0  0  0  0  0  2  0  0  0  0  0  0
  -29.4040  -25.3800   23.4310 C   0  0  0  0  0  2  0  0  0  0  0  0
  -29.2350  -26.4010   22.2980 C   0  0  0  0  0  2  0  0  0  0  0  0
  -28.5650  -25.7930   21.0560 C   0  0  0  0  0  2  0  0  0  0  0  0
  -28.4190  -26.7750   20.0370 O   0  0  0  0  0  0  0  0  0  0  0  0
  -24.6090  -31.8710   23.2130 C   0  0  0  0  0  0  0  0  0  0  0  0
  -27.2470  -27.4820   20.0920 C   0  0  0  0  0  0  0  0  0  0  0  0
  -23.3980  -30.4920   21.5520 C   0  0  0  0  0  3  0  0  0  0  0  0
  -24.8480  -28.9600   20.1190 C   0  0  0  0  0  0  0  0  0  0  0  0
  -25.9200  -30.8530   21.3570 C   0  0  0  0  0  2  0  0  0  0  0  0
  -26.0030  -29.4870   20.7120 C   0  0  0  0  0  0  0  0  0  0  0  0
  -27.2070  -28.7540   20.6960 C   0  0  0  0  0  3  0  0  0  0  0  0
  -26.0800  -26.9520   19.5050 C   0  0  0  0  0  3  0  0  0  0  0  0
  -24.8770  -27.6870   19.5180 C   0  0  0  0  0  3  0  0  0  0  0  0
  -23.6070  -29.8230   20.1660 C   0  0  0  0  0  2  0  0  0  0  0  0
  -24.6600  -31.0850   22.1010 N   0  0  0  0  0  0  0  0  0  0  0  0
  -23.5300  -32.1440   23.7550 O   0  0  0  0  0  0  0  0  0  0  0  0
  -22.7400  -29.4650   22.5000 C   0  0  0  0  0  0  0  0  0  0  0  0
  -21.4130  -29.3020   22.3770 N   0  0  0  0  0  0  0  0  0  0  0  0
  -23.4190  -28.8200   23.3030 O   0  0  0  0  0  0  0  0  0  0  0  0
  -20.9260  -29.8800   21.7050 H   0  0  0  0  0  0  0  0  0  0  0  0
  -18.0280  -28.1370   22.8500 C   0  0  0  0  0  0  0  0  0  0  0  0
  -20.5870  -28.3640   23.1350 C   0  0  0  0  0  3  0  0  0  0  0  0
  -20.6760  -26.9380   22.5430 C   0  0  0  0  0  2  0  0  0  0  0  0
  -19.5730  -26.6380   21.5220 C   0  0  0  0  0  2  0  0  0  0  0  0
  -18.1920  -26.7930   22.1630 C   0  0  0  0  0  2  0  0  0  0  0  0
  -19.1530  -28.8820   23.2920 C   0  0  0  0  0  0  0  0  0  0  0  0
  -18.9450  -30.1440   23.8920 C   0  0  0  0  0  3  0  0  0  0  0  0
  -17.6450  -30.6580   24.0570 C   0  0  0  0  0  3  0  0  0  0  0  0
  -16.5350  -29.9080   23.6310 C   0  0  0  0  0  3  0  0  0  0  0  0
  -16.7270  -28.6510   23.0330 C   0  0  0  0  0  3  0  0  0  0  0  0
  -25.9000  -32.4840   23.8420 C   0  0  0  0  0  3  0  0  0  0  0  0
  -26.4450  -31.6600   25.0720 C   0  0  1  0  0  0  0  0  0  0  0  0
  -25.3750  -31.3680   26.1490 C   0  0  0  0  0  1  0  0  0  0  0  0
  -27.0260  -30.3050   24.6010 C   0  0  0  0  0  1  0  0  0  0  0  0
  -27.6030  -32.4310   25.7480 C   0  0  0  0  0  1  0  0  0  0  0  0
  -25.5870  -33.8640   24.2350 N   0  0  0  0  0  0  0  0  0  0  0  0
  -25.9030  -34.9490   23.5150 C   0  0  0  0  0  0  0  0  0  0  0  0
  -26.5590  -34.8940   22.4710 O   0  0  0  0  0  0  0  0  0  0  0  0
  -25.0000  -33.9820   25.0480 H   0  0  0  0  0  0  0  0  0  0  0  0
  -24.1480  -36.7330   23.2640 C   0  0  0  0  0  1  0  0  0  0  0  0
  -25.4100  -36.3130   24.0350 C   0  0  0  0  0  3  0  0  0  0  0  0
  -27.5580  -37.1820   24.8470 C   0  0  0  0  0  1  0  0  0  0  0  0
  -26.4290  -37.3800   23.9420 N   0  0  0  0  0  0  0  0  0  0  0  0
  -26.0190  -38.2890   24.1420 H   0  0  0  0  0  0  0  0  0  0  0  0
  -32.8680  -22.5310   29.4480 C   0  0  0  0  0  2  0  0  0  0  0  0
  -32.0530  -21.8030   28.3630 C   0  0  0  0  0  2  0  0  0  0  0  0
  -32.0120  -20.2760   28.5720 C   0  0  0  0  0  2  0  0  0  0  0  0
  -31.1470  -19.5500   27.5360 C   0  0  0  0  0  0  0  0  0  0  0  0
  -31.5020  -18.2990   27.2190 N   0  0  0  0  0  0  0  0  0  0  0  0
  -30.1740  -20.1110   27.0280 O   0  0  0  0  0  0  0  0  0  0  0  0
  -32.3060  -17.9010   27.6880 H   0  0  0  0  0  0  0  0  0  0  0  0
  -30.8320  -17.4650   26.2270 C   0  0  0  0  0  2  0  0  0  0  0  0
  -31.3940  -17.7300   24.8220 C   0  0  0  0  0  2  0  0  0  0  0  0
  -30.6430  -16.9620   23.7280 C   0  0  0  0  0  2  0  0  0  0  0  0
  -31.2130  -17.2540   22.3320 C   0  0  0  0  0  2  0  0  0  0  0  0
  -30.3000  -16.7860   21.1920 C   0  0  0  0  0  2  0  0  0  0  0  0
  -30.7100  -14.4040   20.6020 C   0  0  0  0  0  0  0  0  0  0  0  0
  -30.4230  -12.2760   19.4030 C   0  0  0  0  0  2  0  0  0  0  0  0
  -29.4900  -12.5100   18.1970 C   0  0  0  0  0  2  0  0  0  0  0  0
  -28.0110  -12.3780   18.6100 C   0  0  0  0  0  2  0  0  0  0  0  0
  -27.6680  -13.1970   19.8830 C   0  0  0  0  0  3  0  0  0  0  0  0
  -28.7070  -12.9290   20.9960 C   0  0  0  0  0  2  0  0  0  0  0  0
  -30.0450  -13.2310   20.4540 N   0  0  0  0  0  0  0  0  0  0  0  0
  -31.8040  -14.6420   20.0800 O   0  0  0  0  0  0  0  0  0  0  0  0
  -30.0200  -15.3540   21.2430 N   0  0  0  0  0  0  0  0  0  0  0  0
  -29.1360  -15.0720   21.6390 H   0  0  0  0  0  0  0  0  0  0  0  0
  -25.2620  -13.8140   20.5670 C   0  0  0  0  0  0  0  0  0  0  0  0
  -24.1850  -13.0440   20.9160 C   0  0  0  0  0  0  0  0  0  0  0  0
  -24.6390  -11.6900   20.8730 C   0  0  0  0  0  0  0  0  0  0  0  0
  -26.3060  -12.9300   20.3400 N   0  0  0  0  0  0  0  0  0  0  0  0
  -25.9310  -11.6460   20.5770 N   0  0  0  0  0  0  0  0  0  0  0  0
  -23.9050  -10.4290   21.0400 C   0  0  0  0  0  0  0  0  0  0  0  0
  -24.3610   -9.4210   21.9180 C   0  0  0  0  0  3  0  0  0  0  0  0
  -23.6290   -8.2240   22.0760 C   0  0  0  0  0  3  0  0  0  0  0  0
  -22.4270   -8.0280   21.3550 C   0  0  0  0  0  0  0  0  0  0  0  0
  -21.9900   -9.0250   20.4650 C   0  0  0  0  0  3  0  0  0  0  0  0
  -22.7230  -10.2130   20.3050 C   0  0  0  0  0  3  0  0  0  0  0  0
  -21.6640   -6.8880   21.4240 O   0  0  0  0  0  0  0  0  0  0  0  0
  -21.6850   -6.0740   22.5280 C   0  0  0  0  0  0  0  0  0  0  0  0
  -21.4010   -6.5640   23.8210 C   0  0  0  0  0  3  0  0  0  0  0  0
  -21.3660   -5.6790   24.9170 C   0  0  0  0  0  3  0  0  0  0  0  0
  -21.6040   -4.3060   24.7230 C   0  0  0  0  0  0  0  0  0  0  0  0
  -21.8820   -3.8150   23.4350 C   0  0  0  0  0  3  0  0  0  0  0  0
  -21.9190   -4.6960   22.3400 C   0  0  0  0  0  0  0  0  0  0  0  0
  -22.1660   -4.2150   21.0980 F   0  0  0  0  0  0  0  0  0  0  0  0
  -21.5630   -3.4540   25.7740 F   0  0  0  0  0  0  0  0  0  0  0  0
  -22.7870  -13.5240   21.1830 C   0  0  0  0  0  0  0  0  0  0  0  0
  -22.0510  -12.8240   22.0390 N   0  0  0  0  0  0  0  0  0  0  0  0
  -22.3570  -14.5560   20.6680 O   0  0  0  0  0  0  0  0  0  0  0  0
  -22.4120  -11.9900   22.4770 H   0  0  0  0  0  0  0  0  0  0  0  0
  -21.1140  -13.1280   22.2600 H   0  0  0  0  0  0  0  0  0  0  0  0
  -25.4360  -15.1860   20.4080 N   0  0  0  0  0  0  0  0  0  0  0  0
  -24.6730  -15.8460   20.5160 H   0  0  0  0  0  0  0  0  0  0  0  0
  -26.2950  -15.6230   20.0960 H   0  0  0  0  0  0  0  0  0  0  0  0
  1  2  1  0
  1 53  1  0
  3  4  1  0
  4  6  1  0
  4  2  1  0
  5  3  2  0
  7  3  1  0
  8  7  1  0
  9  8  1  0
 10  9  1  0
 11 10  1  0
 12 14  1  0
 12 11  1  0
 13 24  2  0
 14 19  1  0
 15 23  1  0
 15 25  1  0
 16 22  1  0
 16 18  1  0
 17 23  1  0
 18 17  1  0
 19 18  2  0
 20 21  1  0
 20 14  2  0
 21 16  2  0
 22 15  1  0
 23 13  1  0
 25 27  2  0
 26 25  1  0
 28 26  1  0
 29 38  2  0
 29 34  1  0
 30 26  1  0
 30 34  1  0
 31 30  1  0
 32 33  1  0
 32 31  1  0
 33 29  1  0
 34 35  2  0
 35 36  1  0
 37 36  2  0
 38 37  1  0
 39 13  1  0
 39 44  1  0
 39 40  1  0
 40 43  1  1
 40 41  1  0
 42 40  1  0
 44 47  1  0
 45 49  1  0
 45 44  1  0
 46 45  2  0
 49 48  1  0
 51 49  1  0
 51 52  1  0
 51 50  1  0
 54 55  1  0
 54 53  1  0
 56 55  1  0
 57 56  1  0
 57 59  1  0
 58 56  2  0
 60 57  1  0
 61 60  1  0
 62 61  1  0
 63 62  1  0
 64 73  1  0
 64 63  1  0
 65 73  1  0
 66 71  1  0
 67 68  1  0
 67 66  1  0
 69 68  1  0
 69 78  1  0
 69 70  1  0
 71 65  1  0
 71 70  1  0
 72 65  2  0
 73 74  1  0
 75 76  2  0
 76 95  1  0
 77 76  1  0
 77 80  1  0
 78 75  1  0
 78 79  1  0
 79 77  2  0
 80 81  1  0
 81 82  2  0
 83 86  1  0
 83 82  1  0
 84 83  2  0
 85 84  1  0
 85 80  2  0
 86 87  1  0
 87 88  1  0
 88 89  2  0
 90 89  1  0
 90 94  1  0
 91 90  2  0
 92 87  2  0
 92 91  1  0
 93 92  1  0
 95 96  1  0
 96 99  1  0
 96 98  1  0
 97 95  2  0
100101  1  0
100 75  1  0
102100  1  0
M  ISO  4  11 101  12 101  65 100  73 100
M  END
>  <TORSDO>  (72) 
F 32

>  <SCORE>  (72) 
68.080

>  <name>  (72) 
72

>  <ligand_id>  (72) 
72

>  <original_smiles>  (72) 
[H]c1c([H])c([H])c2c(c1[H])C([H])([H])C([H])([H])C([H])([H])C2([H])N([H])C(=O)C1([H])N(C(=O)C([H])(N([H])C(=O)C([H])(N([H])C([H])([H])[H])C([H])([H])[H])C(C([H])([H])[H])(C([H])([H])[H])C([H])([H])[H])C([H])([H])c2c([H])c(OC([H])([H])C([H])([H])C([H])([H])C([H])([H])C([H])([H])C(=O)N([H])C([H])([H])C([H])([H])C([H])([H])C([H])([H])C([H])([H])C(=O)N([H])C([H])([H])C([H])([H])C([H])([H])C([H])([H])C([H])([H])N([H])C(=O)N3C([H])([H])C([H])([H])C([H])([H])C([H])(n4nc(-c5c([H])c([H])c(Oc6c([H])c([H])c(F)c([H])c6F)c([H])c5[H])c(C(=O)N([H])[H])c4N([H])[H])C3([H])[H])c([H])c([H])c2C1([H])[H]

>  <smiles>  (72) 
[H]c1c([H])c([H])c2c(c1[H])C([H])([H])C([H])([H])C([H])([H])C2([H])N([H])C(=O)C1([H])N(C(=O)C([H])(N([H])C(=O)C([H])(N([H])C([H])([H])[H])C([H])([H])[H])C(C([H])([H])[H])(C([H])([H])[H])C([H])([H])[H])C([H])([H])c2c([H])c(OC([H])([H])C([H])([H])C([H])([H])C([H])([H])C([H])([H])C(=O)N([H])C([H])([H])C([H])([H])C([H])([H])C([H])([H])C([H])([H])C(=O)N([H])C([H])([H])C([H])([H])C([H])([H])C([H])([H])C([H])([H])N([H])C(=O)N3C([H])([H])C([H])([H])C([H])([H])C([H])(n4nc(-c5c([H])c([H])c(Oc6c([H])c([H])c(F)c([H])c6F)c([H])c5[H])c(C(=O)N([H])[H])c4N([H])[H])C3([H])[H])c([H])c([H])c2C1([H])[H]

$$$$
73:0:0
     RDKit          3D

100107  0  0  1  0  0  0  0  0999 V2000
  -29.4450  -19.8390   18.9910 C   0  0  0  0  0  2  0  0  0  0  0  0
  -28.4320  -20.9640   18.7160 C   0  0  0  0  0  2  0  0  0  0  0  0
  -27.5980  -21.3300   19.9550 C   0  0  0  0  0  2  0  0  0  0  0  0
  -26.6390  -22.5140   19.7330 C   0  0  0  0  0  2  0  0  0  0  0  0
  -28.1730  -24.4690   20.0110 C   0  0  0  0  0  0  0  0  0  0  0  0
  -27.3250  -23.7240   19.2880 N   0  0  0  0  0  0  0  0  0  0  0  0
  -28.4970  -24.1870   21.1670 O   0  0  0  0  0  0  0  0  0  0  0  0
  -27.1240  -24.0350   18.3470 H   0  0  0  0  0  0  0  0  0  0  0  0
  -28.7320  -25.7280   19.3340 C   0  0  0  0  0  2  0  0  0  0  0  0
  -28.5330  -26.8750   20.1610 O   0  0  0  0  0  0  0  0  0  0  0  0
  -24.6310  -31.9270   23.2510 C   0  0  0  0  0  0  0  0  0  0  0  0
  -27.3140  -27.5240   20.1560 C   0  0  0  0  0  0  0  0  0  0  0  0
  -23.4300  -30.5150   21.6110 C   0  0  0  0  0  3  0  0  0  0  0  0
  -24.8930  -28.9900   20.1840 C   0  0  0  0  0  0  0  0  0  0  0  0
  -25.9490  -30.8920   21.4110 C   0  0  0  0  0  2  0  0  0  0  0  0
  -26.0420  -29.5200   20.7820 C   0  0  0  0  0  0  0  0  0  0  0  0
  -27.2470  -28.7880   20.7790 C   0  0  0  0  0  3  0  0  0  0  0  0
  -26.1450  -27.0050   19.5520 C   0  0  0  0  0  3  0  0  0  0  0  0
  -24.9380  -27.7270   19.5710 C   0  0  0  0  0  3  0  0  0  0  0  0
  -23.6440  -29.8430   20.2270 C   0  0  0  0  0  2  0  0  0  0  0  0
  -24.6880  -31.1260   22.1500 N   0  0  0  0  0  0  0  0  0  0  0  0
  -23.5480  -32.1940   23.7900 O   0  0  0  0  0  0  0  0  0  0  0  0
  -22.7920  -29.4850   22.5690 C   0  0  0  0  0  0  0  0  0  0  0  0
  -21.4710  -29.2900   22.4380 N   0  0  0  0  0  0  0  0  0  0  0  0
  -23.4800  -28.8680   23.3860 O   0  0  0  0  0  0  0  0  0  0  0  0
  -20.9790  -29.8450   21.7510 H   0  0  0  0  0  0  0  0  0  0  0  0
  -18.1070  -28.0580   22.9010 C   0  0  0  0  0  0  0  0  0  0  0  0
  -20.6560  -28.3510   23.2080 C   0  0  0  0  0  3  0  0  0  0  0  0
  -20.7870  -26.9160   22.6480 C   0  0  0  0  0  2  0  0  0  0  0  0
  -19.7020  -26.5680   21.6240 C   0  0  0  0  0  2  0  0  0  0  0  0
  -18.3100  -26.7020   22.2470 C   0  0  0  0  0  2  0  0  0  0  0  0
  -19.2090  -28.8380   23.3380 C   0  0  0  0  0  0  0  0  0  0  0  0
  -18.9680  -30.1060   23.9100 C   0  0  0  0  0  3  0  0  0  0  0  0
  -17.6540  -30.5920   24.0540 C   0  0  0  0  0  3  0  0  0  0  0  0
  -16.5660  -29.8090   23.6330 C   0  0  0  0  0  3  0  0  0  0  0  0
  -16.7920  -28.5460   23.0590 C   0  0  0  0  0  3  0  0  0  0  0  0
  -25.9140  -32.5650   23.8690 C   0  0  0  0  0  3  0  0  0  0  0  0
  -25.5990  -33.9600   24.2000 N   0  0  0  0  0  0  0  0  0  0  0  0
  -25.9200  -35.0140   23.4370 C   0  0  0  0  0  0  0  0  0  0  0  0
  -26.5890  -34.9150   22.4050 O   0  0  0  0  0  0  0  0  0  0  0  0
  -25.0090  -34.1140   25.0040 H   0  0  0  0  0  0  0  0  0  0  0  0
  -24.1730  -36.7890   23.0910 C   0  0  0  0  0  1  0  0  0  0  0  0
  -25.4220  -36.3970   23.8960 C   0  0  0  0  0  3  0  0  0  0  0  0
  -27.5550  -37.2980   24.7100 C   0  0  0  0  0  1  0  0  0  0  0  0
  -26.4440  -37.4610   23.7780 N   0  0  0  0  0  0  0  0  0  0  0  0
  -26.0300  -38.3770   23.9330 H   0  0  0  0  0  0  0  0  0  0  0  0
  -26.4430  -31.7930   25.1380 C   0  0  1  0  0  0  0  0  0  0  0  0
  -25.3580  -31.5440   26.2130 C   0  0  0  0  0  1  0  0  0  0  0  0
  -27.0310  -30.4210   24.7330 C   0  0  0  0  0  1  0  0  0  0  0  0
  -27.5900  -32.5940   25.7980 C   0  0  0  0  0  1  0  0  0  0  0  0
  -30.8940  -20.1930   18.6070 C   0  0  0  0  0  2  0  0  0  0  0  0
  -31.5760  -21.2550   19.4970 C   0  0  0  0  0  2  0  0  0  0  0  0
  -32.1990  -20.6720   20.7080 N   0  0  0  0  0  4  0  0  0  0  0  0
  -33.1080  -21.0950   20.8140 H   0  0  0  0  0  0  0  0  0  0  0  0
  -32.3530  -19.6850   20.5730 H   0  0  0  0  0  0  0  0  0  0  0  0
  -31.4780  -20.8820   21.9840 C   0  0  0  0  0  2  0  0  0  0  0  0
  -31.4320  -19.6000   22.8400 C   0  0  0  0  0  2  0  0  0  0  0  0
  -31.1330  -17.5750   21.4020 C   0  0  0  0  0  0  0  0  0  0  0  0
  -30.6580  -18.5520   22.1810 N   0  0  0  0  0  0  0  0  0  0  0  0
  -32.3370  -17.4080   21.2140 O   0  0  0  0  0  0  0  0  0  0  0  0
  -29.6540  -18.5930   22.3050 H   0  0  0  0  0  0  0  0  0  0  0  0
  -30.0900  -16.7610   20.6400 C   0  0  0  0  0  2  0  0  0  0  0  0
  -30.7540  -14.4140   20.2440 C   0  0  0  0  0  0  0  0  0  0  0  0
  -30.3720  -12.3310   18.9910 C   0  0  0  0  0  2  0  0  0  0  0  0
  -29.3780  -12.6130   17.8430 C   0  0  0  0  0  2  0  0  0  0  0  0
  -27.9170  -12.5080   18.3250 C   0  0  0  0  0  2  0  0  0  0  0  0
  -27.6620  -13.2940   19.6380 C   0  0  0  0  0  3  0  0  0  0  0  0
  -28.7480  -12.9570   20.6870 C   0  0  0  0  0  2  0  0  0  0  0  0
  -30.0710  -13.2500   20.0970 N   0  0  0  0  0  0  0  0  0  0  0  0
  -31.8020  -14.6740   19.6430 O   0  0  0  0  0  0  0  0  0  0  0  0
  -30.0940  -15.3370   20.9490 N   0  0  0  0  0  0  0  0  0  0  0  0
  -29.3040  -14.9980   21.4770 H   0  0  0  0  0  0  0  0  0  0  0  0
  -25.2920  -13.9420   20.4210 C   0  0  0  0  0  0  0  0  0  0  0  0
  -24.2240  -13.1850   20.8240 C   0  0  0  0  0  0  0  0  0  0  0  0
  -24.6630  -11.8270   20.7710 C   0  0  0  0  0  0  0  0  0  0  0  0
  -26.3170  -13.0460   20.1550 N   0  0  0  0  0  0  0  0  0  0  0  0
  -25.9410  -11.7690   20.4190 N   0  0  0  0  0  0  0  0  0  0  0  0
  -23.9230  -10.5750   20.9790 C   0  0  0  0  0  0  0  0  0  0  0  0
  -24.3760   -9.5950   21.8910 C   0  0  0  0  0  3  0  0  0  0  0  0
  -23.6400   -8.4060   22.0860 C   0  0  0  0  0  3  0  0  0  0  0  0
  -22.4380   -8.1900   21.3710 C   0  0  0  0  0  0  0  0  0  0  0  0
  -22.0050   -9.1570   20.4480 C   0  0  0  0  0  3  0  0  0  0  0  0
  -22.7410  -10.3370   20.2500 C   0  0  0  0  0  3  0  0  0  0  0  0
  -21.6690   -7.0560   21.4800 O   0  0  0  0  0  0  0  0  0  0  0  0
  -21.6540   -6.3060   22.6290 C   0  0  0  0  0  0  0  0  0  0  0  0
  -21.3010   -6.8610   23.8790 C   0  0  0  0  0  3  0  0  0  0  0  0
  -21.2290   -6.0380   25.0200 C   0  0  0  0  0  3  0  0  0  0  0  0
  -21.4980   -4.6600   24.9140 C   0  0  0  0  0  0  0  0  0  0  0  0
  -21.8420   -4.1050   23.6690 C   0  0  0  0  0  3  0  0  0  0  0  0
  -21.9170   -4.9250   22.5300 C   0  0  0  0  0  0  0  0  0  0  0  0
  -22.2280   -4.3800   21.3300 F   0  0  0  0  0  0  0  0  0  0  0  0
  -21.4210   -3.8670   26.0080 F   0  0  0  0  0  0  0  0  0  0  0  0
  -22.8430  -13.6800   21.1460 C   0  0  0  0  0  0  0  0  0  0  0  0
  -22.1360  -12.9930   22.0370 N   0  0  0  0  0  0  0  0  0  0  0  0
  -22.4000  -14.7120   20.6440 O   0  0  0  0  0  0  0  0  0  0  0  0
  -22.5040  -12.1590   22.4680 H   0  0  0  0  0  0  0  0  0  0  0  0
  -21.2090  -13.3060   22.2920 H   0  0  0  0  0  0  0  0  0  0  0  0
  -25.4720  -15.3100   20.2430 N   0  0  0  0  0  0  0  0  0  0  0  0
  -24.7190  -15.9750   20.3750 H   0  0  0  0  0  0  0  0  0  0  0  0
  -26.3140  -15.7350   19.8780 H   0  0  0  0  0  0  0  0  0  0  0  0
  2  1  1  0
  2  3  1  0
  4  3  1  0
  5  7  2  0
  6  4  1  0
  6  5  1  0
  8  6  1  0
  9  5  1  0
  9 10  1  0
 11 22  2  0
 12 10  1  0
 12 17  1  0
 13 21  1  0
 13 23  1  0
 14 20  1  0
 14 16  1  0
 15 21  1  0
 16 15  1  0
 17 16  2  0
 18 19  1  0
 18 12  2  0
 19 14  2  0
 20 13  1  0
 21 11  1  0
 23 25  2  0
 24 23  1  0
 26 24  1  0
 27 36  2  0
 27 32  1  0
 28 24  1  0
 28 32  1  0
 29 28  1  0
 30 31  1  0
 30 29  1  0
 31 27  1  0
 32 33  2  0
 33 34  1  0
 35 34  2  0
 36 35  1  0
 37 11  1  0
 37 38  1  0
 37 47  1  0
 38 41  1  0
 39 43  1  0
 39 38  1  0
 40 39  2  0
 43 42  1  0
 45 43  1  0
 45 46  1  0
 45 44  1  0
 47 50  1  1
 47 48  1  0
 49 47  1  0
 51  1  1  0
 51 52  1  0
 52 53  1  0
 53 54  1  0
 53 56  1  0
 55 53  1  0
 56 57  1  0
 58 59  1  0
 59 61  1  0
 59 57  1  0
 60 58  2  0
 62 71  1  0
 62 58  1  0
 63 71  1  0
 64 69  1  0
 65 66  1  0
 65 64  1  0
 67 66  1  0
 67 76  1  0
 67 68  1  0
 69 63  1  0
 69 68  1  0
 70 63  2  0
 71 72  1  0
 73 74  2  0
 74 93  1  0
 75 74  1  0
 75 78  1  0
 76 77  1  0
 76 73  1  0
 77 75  2  0
 78 79  1  0
 79 80  2  0
 81 84  1  0
 81 80  1  0
 82 81  2  0
 83 82  1  0
 83 78  2  0
 84 85  1  0
 85 86  1  0
 86 87  2  0
 88 87  1  0
 88 92  1  0
 89 88  2  0
 90 85  2  0
 90 89  1  0
 91 90  1  0
 93 94  1  0
 94 97  1  0
 94 96  1  0
 95 93  2  0
 98 99  1  0
 98 73  1  0
100 98  1  0
M  ISO  4   9 101  10 101  63 100  71 100
M  END
>  <TORSDO>  (73) 
F 28

>  <SCORE>  (73) 
-11.681

>  <name>  (73) 
73

>  <ligand_id>  (73) 
73

>  <original_smiles>  (73) 
[H]c1c([H])c([H])c2c(c1[H])C([H])([H])C([H])([H])C([H])([H])C2([H])N([H])C(=O)C1([H])N(C(=O)C([H])(N([H])C(=O)C([H])(N([H])C([H])([H])[H])C([H])([H])[H])C(C([H])([H])[H])(C([H])([H])[H])C([H])([H])[H])C([H])([H])c2c([H])c(OC([H])([H])C(=O)N([H])C([H])([H])C([H])([H])C([H])([H])C([H])([H])C([H])([H])C([H])([H])[N+]([H])([H])C([H])([H])C([H])([H])N([H])C(=O)C([H])([H])N([H])C(=O)N3C([H])([H])C([H])([H])C([H])([H])C([H])(n4nc(-c5c([H])c([H])c(Oc6c([H])c([H])c(F)c([H])c6F)c([H])c5[H])c(C(=O)N([H])[H])c4N([H])[H])C3([H])[H])c([H])c([H])c2C1([H])[H]

>  <smiles>  (73) 
[H]c1c([H])c([H])c2c(c1[H])C([H])([H])C([H])([H])C([H])([H])C2([H])N([H])C(=O)C1([H])N(C(=O)C([H])(N([H])C(=O)C([H])(N([H])C([H])([H])[H])C([H])([H])[H])C(C([H])([H])[H])(C([H])([H])[H])C([H])([H])[H])C([H])([H])c2c([H])c(OC([H])([H])C(=O)N([H])C([H])([H])C([H])([H])C([H])([H])C([H])([H])C([H])([H])C([H])([H])[N+]([H])([H])C([H])([H])C([H])([H])N([H])C(=O)C([H])([H])N([H])C(=O)N3C([H])([H])C([H])([H])C([H])([H])C([H])(n4nc(-c5c([H])c([H])c(Oc6c([H])c([H])c(F)c([H])c6F)c([H])c5[H])c(C(=O)N([H])[H])c4N([H])[H])C3([H])[H])c([H])c([H])c2C1([H])[H]

$$$$
74:0:0
     RDKit          3D

 98105  0  0  1  0  0  0  0  0999 V2000
  -23.9230  -21.1060   18.8180 C   0  0  0  0  0  2  0  0  0  0  0  0
  -25.5300  -22.9980   18.6970 C   0  0  0  0  0  0  0  0  0  0  0  0
  -24.6460  -22.2520   19.3690 N   0  0  0  0  0  0  0  0  0  0  0  0
  -25.7430  -22.8440   17.4910 O   0  0  0  0  0  0  0  0  0  0  0  0
  -24.4910  -22.4660   20.3470 H   0  0  0  0  0  0  0  0  0  0  0  0
  -26.3250  -24.0410   19.4910 C   0  0  0  0  0  2  0  0  0  0  0  0
  -27.0020  -24.8980   18.5730 O   0  0  0  0  0  0  0  0  0  0  0  0
  -28.4130  -24.9390   18.7130 C   0  0  0  0  0  2  0  0  0  0  0  0
  -28.9930  -26.1820   17.9950 C   0  0  0  0  0  2  0  0  0  0  0  0
  -29.1870  -27.3100   18.8520 O   0  0  0  0  0  0  0  0  0  0  0  0
  -26.0570  -29.8100   24.7070 C   0  0  0  0  0  0  0  0  0  0  0  0
  -28.0960  -27.9880   19.3490 C   0  0  0  0  0  0  0  0  0  0  0  0
  -24.6780  -29.8520   22.6540 C   0  0  0  0  0  3  0  0  0  0  0  0
  -25.9170  -29.3900   20.4780 C   0  0  0  0  0  0  0  0  0  0  0  0
  -27.2320  -29.9870   22.5190 C   0  0  0  0  0  2  0  0  0  0  0  0
  -27.1300  -29.3030   21.1720 C   0  0  0  0  0  0  0  0  0  0  0  0
  -28.2160  -28.5950   20.6180 C   0  0  0  0  0  3  0  0  0  0  0  0
  -26.8770  -28.1200   18.6450 C   0  0  0  0  0  3  0  0  0  0  0  0
  -25.7840  -28.7930   19.2140 C   0  0  0  0  0  3  0  0  0  0  0  0
  -24.7930  -30.1540   21.1380 C   0  0  0  0  0  2  0  0  0  0  0  0
  -26.0090  -29.8620   23.3460 N   0  0  0  0  0  0  0  0  0  0  0  0
  -25.0200  -29.8000   25.3850 O   0  0  0  0  0  0  0  0  0  0  0  0
  -23.9000  -28.5280   22.8390 C   0  0  0  0  0  0  0  0  0  0  0  0
  -22.6180  -28.5250   22.4400 N   0  0  0  0  0  0  0  0  0  0  0  0
  -24.4540  -27.5300   23.3060 O   0  0  0  0  0  0  0  0  0  0  0  0
  -22.2460  -29.3760   22.0440 H   0  0  0  0  0  0  0  0  0  0  0  0
  -19.3490  -27.3780   21.4420 C   0  0  0  0  0  0  0  0  0  0  0  0
  -21.7060  -27.3820   22.4970 C   0  0  0  0  0  3  0  0  0  0  0  0
  -22.0730  -26.3250   21.4270 C   0  0  0  0  0  2  0  0  0  0  0  0
  -21.3280  -26.5310   20.1080 C   0  0  0  0  0  2  0  0  0  0  0  0
  -19.8150  -26.4560   20.3290 C   0  0  0  0  0  2  0  0  0  0  0  0
  -20.2410  -27.8290   22.4510 C   0  0  0  0  0  0  0  0  0  0  0  0
  -19.7670  -28.7180   23.4380 C   0  0  0  0  0  3  0  0  0  0  0  0
  -18.4270  -29.1500   23.4370 C   0  0  0  0  0  3  0  0  0  0  0  0
  -17.5440  -28.6850   22.4480 C   0  0  0  0  0  3  0  0  0  0  0  0
  -18.0030  -27.8010   21.4550 C   0  0  0  0  0  3  0  0  0  0  0  0
  -27.4150  -29.7880   25.4780 C   0  0  0  0  0  3  0  0  0  0  0  0
  -27.4210  -30.9390   26.3910 N   0  0  0  0  0  0  0  0  0  0  0  0
  -28.0850  -32.0820   26.1710 C   0  0  0  0  0  0  0  0  0  0  0  0
  -28.8260  -32.2480   25.1980 O   0  0  0  0  0  0  0  0  0  0  0  0
  -26.7960  -30.8930   27.1830 H   0  0  0  0  0  0  0  0  0  0  0  0
  -26.9280  -34.2630   26.6300 C   0  0  0  0  0  1  0  0  0  0  0  0
  -27.9010  -33.2180   27.1940 C   0  0  0  0  0  3  0  0  0  0  0  0
  -30.0480  -33.0140   28.3700 C   0  0  0  0  0  1  0  0  0  0  0  0
  -29.1720  -33.8730   27.5750 N   0  0  0  0  0  0  0  0  0  0  0  0
  -28.9960  -34.7250   28.1020 H   0  0  0  0  0  0  0  0  0  0  0  0
  -27.6590  -28.4460   26.2680 C   0  0  1  0  0  0  0  0  0  0  0  0
  -26.4780  -28.0370   27.1780 C   0  0  0  0  0  1  0  0  0  0  0  0
  -27.9270  -27.2810   25.2920 C   0  0  0  0  0  1  0  0  0  0  0  0
  -28.9260  -28.5790   27.1470 C   0  0  0  0  0  1  0  0  0  0  0  0
  -24.6160  -19.7780   19.2040 C   0  0  0  0  0  2  0  0  0  0  0  0
  -25.5550  -19.2230   18.1170 C   0  0  0  0  0  2  0  0  0  0  0  0
  -27.0290  -19.6550   18.2830 C   0  0  0  0  0  2  0  0  0  0  0  0
  -27.7880  -18.6820   19.0960 N   0  0  0  0  0  4  0  0  0  0  0  0
  -27.4780  -17.7540   18.8280 H   0  0  0  0  0  0  0  0  0  0  0  0
  -27.5500  -18.8340   20.0620 H   0  0  0  0  0  0  0  0  0  0  0  0
  -29.2620  -18.7680   18.9600 C   0  0  0  0  0  2  0  0  0  0  0  0
  -29.9920  -17.5290   19.5280 C   0  0  0  0  0  2  0  0  0  0  0  0
  -29.7740  -17.2800   21.0390 C   0  0  0  0  0  2  0  0  0  0  0  0
  -30.7810  -16.2930   21.6750 C   0  0  0  0  0  2  0  0  0  0  0  0
  -31.0920  -14.1340   20.4070 C   0  0  0  0  0  0  0  0  0  0  0  0
  -30.5840  -12.3480   18.7850 C   0  0  0  0  0  2  0  0  0  0  0  0
  -29.5430  -12.8710   17.7720 C   0  0  0  0  0  2  0  0  0  0  0  0
  -28.1060  -12.7070   18.3110 C   0  0  0  0  0  2  0  0  0  0  0  0
  -27.9440  -13.2410   19.7580 C   0  0  0  0  0  3  0  0  0  0  0  0
  -29.0620  -12.6740   20.6590 C   0  0  0  0  0  2  0  0  0  0  0  0
  -30.3600  -13.0450   20.0610 N   0  0  0  0  0  0  0  0  0  0  0  0
  -32.1500  -14.4540   19.8560 O   0  0  0  0  0  0  0  0  0  0  0  0
  -30.4790  -14.9130   21.3110 N   0  0  0  0  0  0  0  0  0  0  0  0
  -29.6340  -14.5220   21.6990 H   0  0  0  0  0  0  0  0  0  0  0  0
  -25.6330  -13.8490   20.7170 C   0  0  0  0  0  0  0  0  0  0  0  0
  -24.5520  -13.0720   21.0450 C   0  0  0  0  0  0  0  0  0  0  0  0
  -24.9540  -11.7210   20.8160 C   0  0  0  0  0  0  0  0  0  0  0  0
  -26.6150  -12.9650   20.2920 N   0  0  0  0  0  0  0  0  0  0  0  0
  -26.2150  -11.6770   20.4110 N   0  0  0  0  0  0  0  0  0  0  0  0
  -24.2000  -10.4670   20.9100 C   0  0  0  0  0  0  0  0  0  0  0  0
  -24.5820   -9.4350   21.7960 C   0  0  0  0  0  3  0  0  0  0  0  0
  -23.8300   -8.2430   21.8720 C   0  0  0  0  0  3  0  0  0  0  0  0
  -22.6820   -8.0760   21.0620 C   0  0  0  0  0  0  0  0  0  0  0  0
  -22.3170   -9.0980   20.1690 C   0  0  0  0  0  3  0  0  0  0  0  0
  -23.0690  -10.2810   20.0910 C   0  0  0  0  0  3  0  0  0  0  0  0
  -21.9070   -6.9400   21.0530 O   0  0  0  0  0  0  0  0  0  0  0  0
  -21.6190   -6.2560   22.2060 C   0  0  0  0  0  0  0  0  0  0  0  0
  -20.9420   -6.8660   23.2860 C   0  0  0  0  0  3  0  0  0  0  0  0
  -20.6000   -6.1080   24.4230 C   0  0  0  0  0  3  0  0  0  0  0  0
  -20.9240   -4.7400   24.4820 C   0  0  0  0  0  0  0  0  0  0  0  0
  -21.5910   -4.1270   23.4050 C   0  0  0  0  0  3  0  0  0  0  0  0
  -21.9330   -4.8830   22.2700 C   0  0  0  0  0  0  0  0  0  0  0  0
  -22.5580   -4.2840   21.2300 F   0  0  0  0  0  0  0  0  0  0  0  0
  -20.5860   -4.0100   25.5700 F   0  0  0  0  0  0  0  0  0  0  0  0
  -23.1990  -13.5580   21.4800 C   0  0  0  0  0  0  0  0  0  0  0  0
  -22.5250  -12.8010   22.3420 N   0  0  0  0  0  0  0  0  0  0  0  0
  -22.7550  -14.6400   21.1030 O   0  0  0  0  0  0  0  0  0  0  0  0
  -22.8960  -11.9230   22.6650 H   0  0  0  0  0  0  0  0  0  0  0  0
  -21.6260  -13.1080   22.6800 H   0  0  0  0  0  0  0  0  0  0  0  0
  -25.8760  -15.2220   20.7560 N   0  0  0  0  0  0  0  0  0  0  0  0
  -25.1670  -15.6330   21.3530 H   0  0  0  0  0  0  0  0  0  0  0  0
  -26.7960  -15.3390   21.1670 H   0  0  0  0  0  0  0  0  0  0  0  0
  1 51  1  0
  1  3  1  0
  2  3  1  0
  2  6  1  0
  3  5  1  0
  4  2  2  0
  7  8  1  0
  7  6  1  0
  9  8  1  0
  9 10  1  0
 10 12  1  0
 11 22  2  0
 12 17  1  0
 13 23  1  0
 13 21  1  0
 14 20  1  0
 14 16  1  0
 15 21  1  0
 16 15  1  0
 17 16  2  0
 18 19  1  0
 18 12  2  0
 19 14  2  0
 20 13  1  0
 21 11  1  0
 23 25  2  0
 24 23  1  0
 26 24  1  0
 27 36  2  0
 27 32  1  0
 28 24  1  0
 29 28  1  0
 30 31  1  0
 30 29  1  0
 31 27  1  0
 32 28  1  0
 32 33  2  0
 34 33  1  0
 35 34  2  0
 36 35  1  0
 37 11  1  0
 37 47  1  0
 37 38  1  0
 38 41  1  0
 39 38  1  0
 39 43  1  0
 40 39  2  0
 43 42  1  0
 43 45  1  0
 45 46  1  0
 45 44  1  0
 47 50  1  1
 47 48  1  0
 49 47  1  0
 52 53  1  0
 52 51  1  0
 53 54  1  0
 54 56  1  0
 55 54  1  0
 57 54  1  0
 57 58  1  0
 58 59  1  0
 59 60  1  0
 61 69  1  0
 62 67  1  0
 63 64  1  0
 63 62  1  0
 65 64  1  0
 65 74  1  0
 65 66  1  0
 67 61  1  0
 67 66  1  0
 68 61  2  0
 69 60  1  0
 69 70  1  0
 71 96  1  0
 71 72  2  0
 72 91  1  0
 73 76  1  0
 73 72  1  0
 74 75  1  0
 74 71  1  0
 75 73  2  0
 76 77  1  0
 77 78  2  0
 79 78  1  0
 80 79  2  0
 81 80  1  0
 81 76  2  0
 82 79  1  0
 82 83  1  0
 83 88  2  0
 83 84  1  0
 84 85  2  0
 85 86  1  0
 86 90  1  0
 87 86  2  0
 88 87  1  0
 89 88  1  0
 91 92  1  0
 92 94  1  0
 92 95  1  0
 93 91  2  0
 96 98  1  0
 96 97  1  0
M  ISO  4   9 101  10 101  61 100  69 100
M  END
>  <TORSDO>  (74) 
F 29

>  <SCORE>  (74) 
-5.728

>  <name>  (74) 
74

>  <ligand_id>  (74) 
74

>  <original_smiles>  (74) 
[H]c1c([H])c([H])c2c(c1[H])C([H])([H])C([H])([H])C([H])([H])C2([H])N([H])C(=O)C1([H])N(C(=O)C([H])(N([H])C(=O)C([H])(N([H])C([H])([H])[H])C([H])([H])[H])C(C([H])([H])[H])(C([H])([H])[H])C([H])([H])[H])C([H])([H])c2c([H])c(OC([H])([H])C([H])([H])OC([H])([H])C(=O)N([H])C([H])([H])C([H])([H])C([H])([H])C([H])([H])[N+]([H])([H])C([H])([H])C([H])([H])C([H])([H])C([H])([H])N([H])C(=O)N3C([H])([H])C([H])([H])C([H])([H])C([H])(n4nc(-c5c([H])c([H])c(Oc6c([H])c([H])c(F)c([H])c6F)c([H])c5[H])c(C(=O)N([H])[H])c4N([H])[H])C3([H])[H])c([H])c([H])c2C1([H])[H]

>  <smiles>  (74) 
[H]c1c([H])c([H])c2c(c1[H])C([H])([H])C([H])([H])C([H])([H])C2([H])N([H])C(=O)C1([H])N(C(=O)C([H])(N([H])C(=O)C([H])(N([H])C([H])([H])[H])C([H])([H])[H])C(C([H])([H])[H])(C([H])([H])[H])C([H])([H])[H])C([H])([H])c2c([H])c(OC([H])([H])C([H])([H])OC([H])([H])C(=O)N([H])C([H])([H])C([H])([H])C([H])([H])C([H])([H])[N+]([H])([H])C([H])([H])C([H])([H])C([H])([H])C([H])([H])N([H])C(=O)N3C([H])([H])C([H])([H])C([H])([H])C([H])(n4nc(-c5c([H])c([H])c(Oc6c([H])c([H])c(F)c([H])c6F)c([H])c5[H])c(C(=O)N([H])[H])c4N([H])[H])C3([H])[H])c([H])c([H])c2C1([H])[H]

$$$$
75:0:0
     RDKit          3D

102109  0  0  1  0  0  0  0  0999 V2000
  -25.4520  -20.5080   18.2290 C   0  0  0  0  0  0  0  0  0  0  0  0
  -26.3190  -19.5480   18.5760 N   0  0  0  0  0  0  0  0  0  0  0  0
  -25.7410  -21.3730   17.4030 O   0  0  0  0  0  0  0  0  0  0  0  0
  -25.9990  -18.8290   19.2140 H   0  0  0  0  0  0  0  0  0  0  0  0
  -24.0970  -20.5390   18.9500 C   0  0  0  0  0  2  0  0  0  0  0  0
  -24.0110  -21.6400   19.9430 N   0  0  0  0  0  4  0  0  0  0  0  0
  -24.3200  -21.2760   20.8310 H   0  0  0  0  0  0  0  0  0  0  0  0
  -23.0390  -21.8930   20.0520 H   0  0  0  0  0  0  0  0  0  0  0  0
  -24.7800  -22.8660   19.6260 C   0  0  0  0  0  2  0  0  0  0  0  0
  -25.7020  -23.2990   20.7780 C   0  0  0  0  0  2  0  0  0  0  0  0
  -26.2250  -24.5610   20.4050 O   0  0  0  0  0  0  0  0  0  0  0  0
  -27.4090  -24.9700   21.0780 C   0  0  0  0  0  2  0  0  0  0  0  0
  -27.6890  -26.3410   20.4670 C   0  0  0  0  0  2  0  0  0  0  0  0
  -28.9610  -27.0770   20.9310 C   0  0  0  0  0  2  0  0  0  0  0  0
  -28.8040  -28.5010   20.8680 O   0  0  0  0  0  0  0  0  0  0  0  0
  -25.0610  -28.4060   26.9150 C   0  0  0  0  0  0  0  0  0  0  0  0
  -27.7330  -28.9920   21.5730 C   0  0  0  0  0  0  0  0  0  0  0  0
  -23.9800  -29.5130   24.9830 C   0  0  0  0  0  3  0  0  0  0  0  0
  -25.4890  -29.9520   22.9750 C   0  0  0  0  0  0  0  0  0  0  0  0
  -26.5250  -29.4300   25.1870 C   0  0  0  0  0  2  0  0  0  0  0  0
  -26.5860  -29.4370   23.6770 C   0  0  0  0  0  0  0  0  0  0  0  0
  -27.7110  -28.9470   22.9810 C   0  0  0  0  0  3  0  0  0  0  0  0
  -26.6440  -29.5660   20.8810 C   0  0  0  0  0  3  0  0  0  0  0  0
  -25.5080  -30.0200   21.5730 C   0  0  0  0  0  3  0  0  0  0  0  0
  -24.3260  -30.4530   23.7970 C   0  0  0  0  0  2  0  0  0  0  0  0
  -25.1980  -29.0650   25.7310 N   0  0  0  0  0  0  0  0  0  0  0  0
  -23.9420  -28.2010   27.4060 O   0  0  0  0  0  0  0  0  0  0  0  0
  -23.1260  -28.3410   24.4560 C   0  0  0  0  0  0  0  0  0  0  0  0
  -21.9650  -28.6710   23.8670 N   0  0  0  0  0  0  0  0  0  0  0  0
  -23.5170  -27.1750   24.5580 O   0  0  0  0  0  0  0  0  0  0  0  0
  -21.7110  -29.6490   23.8320 H   0  0  0  0  0  0  0  0  0  0  0  0
  -19.0430  -28.4580   21.7540 C   0  0  0  0  0  0  0  0  0  0  0  0
  -21.0110  -27.7390   23.2670 C   0  0  0  0  0  3  0  0  0  0  0  0
  -21.6030  -27.0710   22.0050 C   0  0  0  0  0  2  0  0  0  0  0  0
  -21.2560  -27.8120   20.7090 C   0  0  0  0  0  2  0  0  0  0  0  0
  -19.7370  -27.8890   20.5270 C   0  0  0  0  0  2  0  0  0  0  0  0
  -19.6470  -28.4020   23.0370 C   0  0  0  0  0  0  0  0  0  0  0  0
  -18.9740  -28.9780   24.1360 C   0  0  0  0  0  3  0  0  0  0  0  0
  -17.7190  -29.5960   23.9690 C   0  0  0  0  0  3  0  0  0  0  0  0
  -17.1190  -29.6340   22.6990 C   0  0  0  0  0  3  0  0  0  0  0  0
  -17.7790  -29.0640   21.5970 C   0  0  0  0  0  3  0  0  0  0  0  0
  -26.2990  -27.8980   27.7190 C   0  0  0  0  0  3  0  0  0  0  0  0
  -26.4030  -28.7080   28.9390 N   0  0  0  0  0  0  0  0  0  0  0  0
  -27.3570  -29.6220   29.1600 C   0  0  0  0  0  0  0  0  0  0  0  0
  -28.2950  -29.8160   28.3820 O   0  0  0  0  0  0  0  0  0  0  0  0
  -25.6420  -28.6360   29.5990 H   0  0  0  0  0  0  0  0  0  0  0  0
  -26.7870  -31.8780   30.1090 C   0  0  0  0  0  1  0  0  0  0  0  0
  -27.2540  -30.4530   30.4510 C   0  0  0  0  0  3  0  0  0  0  0  0
  -28.8970  -29.2300   31.8070 C   0  0  0  0  0  1  0  0  0  0  0  0
  -28.5190  -30.5110   31.2170 N   0  0  0  0  0  0  0  0  0  0  0  0
  -28.4580  -31.2000   31.9630 H   0  0  0  0  0  0  0  0  0  0  0  0
  -26.2220  -26.3620   28.0740 C   0  0  1  0  0  0  0  0  0  0  0  0
  -24.8970  -25.9470   28.7530 C   0  0  0  0  0  1  0  0  0  0  0  0
  -26.3910  -25.4970   26.8030 C   0  0  0  0  0  1  0  0  0  0  0  0
  -27.3830  -25.9810   29.0220 C   0  0  0  0  0  1  0  0  0  0  0  0
  -27.6990  -19.4040   18.0870 C   0  0  0  0  0  2  0  0  0  0  0  0
  -28.6200  -20.6200   18.3310 C   0  0  0  0  0  0  0  0  0  0  0  0
  -28.5660  -21.2060   19.5310 N   0  0  0  0  0  0  0  0  0  0  0  0
  -29.3750  -21.0130   17.4400 O   0  0  0  0  0  0  0  0  0  0  0  0
  -27.8540  -20.8340   20.1380 H   0  0  0  0  0  0  0  0  0  0  0  0
  -29.2970  -22.3810   19.9830 C   0  0  0  0  0  2  0  0  0  0  0  0
  -29.5950  -22.2660   21.4870 C   0  0  0  0  0  2  0  0  0  0  0  0
  -30.6630  -23.2560   21.9900 C   0  0  0  0  0  2  0  0  0  0  0  0
  -31.2130  -22.8850   23.3820 C   0  0  0  0  0  2  0  0  0  0  0  0
  -33.1070  -21.2820   23.1650 C   0  0  0  0  0  0  0  0  0  0  0  0
  -34.5770  -19.7510   21.9240 C   0  0  0  0  0  2  0  0  0  0  0  0
  -34.1790  -19.7790   20.4340 C   0  0  0  0  0  2  0  0  0  0  0  0
  -33.0560  -18.7640   20.1470 C   0  0  0  0  0  2  0  0  0  0  0  0
  -31.8800  -18.8780   21.1510 C   0  0  0  0  0  3  0  0  0  0  0  0
  -32.3940  -18.9310   22.6090 C   0  0  0  0  0  2  0  0  0  0  0  0
  -33.3690  -20.0300   22.7130 N   0  0  0  0  0  0  0  0  0  0  0  0
  -33.9540  -22.1730   23.2230 O   0  0  0  0  0  0  0  0  0  0  0  0
  -31.8070  -21.5460   23.3720 N   0  0  0  0  0  0  0  0  0  0  0  0
  -31.1720  -20.7670   23.2990 H   0  0  0  0  0  0  0  0  0  0  0  0
  -29.5340  -17.8960   20.7540 C   0  0  0  0  0  0  0  0  0  0  0  0
  -29.0980  -16.6120   20.5520 C   0  0  0  0  0  0  0  0  0  0  0  0
  -30.2630  -15.7880   20.6340 C   0  0  0  0  0  0  0  0  0  0  0  0
  -30.9040  -17.8100   20.9540 N   0  0  0  0  0  0  0  0  0  0  0  0
  -31.3280  -16.5220   20.9300 N   0  0  0  0  0  0  0  0  0  0  0  0
  -30.4310  -14.3510   20.3900 C   0  0  0  0  0  0  0  0  0  0  0  0
  -30.6960  -13.4460   21.4410 C   0  0  0  0  0  3  0  0  0  0  0  0
  -30.8430  -12.0670   21.1780 C   0  0  0  0  0  3  0  0  0  0  0  0
  -30.7110  -11.5790   19.8580 C   0  0  0  0  0  0  0  0  0  0  0  0
  -30.4690  -12.4870   18.8120 C   0  0  0  0  0  3  0  0  0  0  0  0
  -30.3330  -13.8610   19.0730 C   0  0  0  0  0  3  0  0  0  0  0  0
  -30.8560  -10.2600   19.5080 O   0  0  0  0  0  0  0  0  0  0  0  0
  -30.1730   -9.2650   20.1600 C   0  0  0  0  0  0  0  0  0  0  0  0
  -28.7630   -9.1860   20.1300 C   0  0  0  0  0  3  0  0  0  0  0  0
  -28.1040   -8.1090   20.7550 C   0  0  0  0  0  3  0  0  0  0  0  0
  -28.8500   -7.1060   21.4030 C   0  0  0  0  0  0  0  0  0  0  0  0
  -30.2540   -7.1820   21.4320 C   0  0  0  0  0  3  0  0  0  0  0  0
  -30.9130   -8.2560   20.8100 C   0  0  0  0  0  0  0  0  0  0  0  0
  -32.2660   -8.3140   20.8230 F   0  0  0  0  0  0  0  0  0  0  0  0
  -28.2200   -6.0660   21.9980 F   0  0  0  0  0  0  0  0  0  0  0  0
  -27.7030  -16.1880   20.2030 C   0  0  0  0  0  0  0  0  0  0  0  0
  -27.3350  -14.9640   20.5640 N   0  0  0  0  0  0  0  0  0  0  0  0
  -26.9190  -16.9590   19.6500 O   0  0  0  0  0  0  0  0  0  0  0  0
  -27.9850  -14.3450   21.0230 H   0  0  0  0  0  0  0  0  0  0  0  0
  -26.4040  -14.6320   20.3590 H   0  0  0  0  0  0  0  0  0  0  0  0
  -28.8770  -19.1200   20.7530 N   0  0  0  0  0  0  0  0  0  0  0  0
  -27.9110  -19.1540   20.4600 H   0  0  0  0  0  0  0  0  0  0  0  0
  -29.3520  -20.0100   20.7230 H   0  0  0  0  0  0  0  0  0  0  0  0
  1  2  1  0
  1  5  1  0
  2  4  1  0
  3  1  2  0
  5  6  1  0
  6  8  1  0
  6  7  1  0
  9  6  1  0
  9 10  1  0
 11 10  1  0
 11 12  1  0
 13 14  1  0
 13 12  1  0
 15 14  1  0
 15 17  1  0
 16 27  2  0
 17 22  1  0
 18 28  1  0
 18 26  1  0
 19 21  1  0
 19 25  1  0
 20 26  1  0
 21 20  1  0
 22 21  2  0
 23 17  2  0
 23 24  1  0
 24 19  2  0
 25 18  1  0
 26 16  1  0
 28 30  2  0
 29 28  1  0
 31 29  1  0
 32 37  1  0
 33 29  1  0
 34 33  1  0
 35 34  1  0
 36 35  1  0
 36 32  1  0
 37 33  1  0
 37 38  2  0
 39 38  1  0
 40 39  2  0
 41 32  2  0
 41 40  1  0
 42 16  1  0
 42 52  1  0
 42 43  1  0
 43 44  1  0
 43 46  1  0
 44 48  1  0
 45 44  2  0
 48 47  1  0
 48 50  1  0
 50 49  1  0
 50 51  1  0
 52 53  1  1
 52 55  1  0
 54 52  1  0
 56 57  1  0
 56  2  1  0
 57 58  1  0
 58 61  1  0
 58 60  1  0
 59 57  2  0
 61 62  1  0
 62 63  1  0
 63 64  1  0
 65 72  2  0
 65 73  1  0
 66 71  1  0
 67 66  1  0
 68 67  1  0
 69 68  1  0
 69 70  1  0
 70 71  1  0
 71 65  1  0
 73 64  1  0
 74 73  1  0
 75 78  1  0
 76 77  1  0
 76 75  2  0
 77 79  2  0
 78 69  1  0
 79 78  1  0
 80 77  1  0
 80 81  1  0
 82 81  2  0
 83 82  1  0
 84 85  1  0
 84 83  2  0
 85 80  2  0
 86 83  1  0
 86 87  1  0
 87 92  1  0
 88 87  2  0
 88 89  1  0
 89 90  2  0
 90 91  1  0
 90 94  1  0
 92 93  1  0
 92 91  2  0
 95 76  1  0
 95 96  1  0
 96 98  1  0
 97 95  2  0
 99 96  1  0
100 75  1  0
101100  1  0
102100  1  0
M  ISO  4  14 101  15 101  65 100  73 100
M  END
>  <TORSDO>  (75) 
F 30

>  <SCORE>  (75) 
0.823

>  <name>  (75) 
75

>  <ligand_id>  (75) 
75

>  <original_smiles>  (75) 
[H]c1c([H])c([H])c2c(c1[H])C([H])([H])C([H])([H])C([H])([H])C2([H])N([H])C(=O)C1([H])N(C(=O)C([H])(N([H])C(=O)C([H])(N([H])C([H])([H])[H])C([H])([H])[H])C(C([H])([H])[H])(C([H])([H])[H])C([H])([H])[H])C([H])([H])c2c([H])c(OC([H])([H])C([H])([H])C([H])([H])OC([H])([H])C([H])([H])[N+]([H])([H])C([H])([H])C(=O)N([H])C([H])([H])C(=O)N([H])C([H])([H])C([H])([H])C([H])([H])C([H])([H])N([H])C(=O)N3C([H])([H])C([H])([H])C([H])([H])C([H])(n4nc(-c5c([H])c([H])c(Oc6c([H])c([H])c(F)c([H])c6F)c([H])c5[H])c(C(=O)N([H])[H])c4N([H])[H])C3([H])[H])c([H])c([H])c2C1([H])[H]

>  <smiles>  (75) 
[H]c1c([H])c([H])c2c(c1[H])C([H])([H])C([H])([H])C([H])([H])C2([H])N([H])C(=O)C1([H])N(C(=O)C([H])(N([H])C(=O)C([H])(N([H])C([H])([H])[H])C([H])([H])[H])C(C([H])([H])[H])(C([H])([H])[H])C([H])([H])[H])C([H])([H])c2c([H])c(OC([H])([H])C([H])([H])C([H])([H])OC([H])([H])C([H])([H])[N+]([H])([H])C([H])([H])C(=O)N([H])C([H])([H])C(=O)N([H])C([H])([H])C([H])([H])C([H])([H])C([H])([H])N([H])C(=O)N3C([H])([H])C([H])([H])C([H])([H])C([H])(n4nc(-c5c([H])c([H])c(Oc6c([H])c([H])c(F)c([H])c6F)c([H])c5[H])c(C(=O)N([H])[H])c4N([H])[H])C3([H])[H])c([H])c([H])c2C1([H])[H]

$$$$
76:0:0
     RDKit          3D

101105  0  0  1  0  0  0  0  0999 V2000
  -32.2740  -17.6400   17.9000 C   0  0  0  0  0  2  0  0  0  0  0  0
  -31.1640  -18.7200   17.7930 C   0  0  0  0  0  2  0  0  0  0  0  0
  -31.4430  -19.9640   18.6820 C   0  0  0  0  0  2  0  0  0  0  0  0
  -30.6430  -22.3330   18.8820 C   0  0  0  0  0  0  0  0  0  0  0  0
  -30.4820  -21.0590   18.4760 N   0  0  0  0  0  0  0  0  0  0  0  0
  -31.6680  -22.7170   19.4490 O   0  0  0  0  0  0  0  0  0  0  0  0
  -29.6140  -20.8330   18.0110 H   0  0  0  0  0  0  0  0  0  0  0  0
  -29.4820  -23.3120   18.6150 C   0  0  0  0  0  2  0  0  0  0  0  0
  -29.6460  -24.7540   19.1860 C   0  0  0  0  0  2  0  0  0  0  0  0
  -28.3090  -25.5310   19.1910 C   0  0  0  0  0  2  0  0  0  0  0  0
  -28.3750  -26.8660   19.7360 O   0  0  0  0  0  0  0  0  0  0  0  0
  -24.5910  -31.8510   23.2280 C   0  0  0  0  0  0  0  0  0  0  0  0
  -27.1880  -27.5870   19.8170 C   0  0  0  0  0  0  0  0  0  0  0  0
  -23.3600  -30.5450   21.5300 C   0  0  0  0  0  3  0  0  0  0  0  0
  -24.7870  -29.0950   19.9960 C   0  0  0  0  0  0  0  0  0  0  0  0
  -25.8870  -30.9080   21.3150 C   0  0  0  0  0  2  0  0  0  0  0  0
  -25.9590  -29.5760   20.5920 C   0  0  0  0  0  0  0  0  0  0  0  0
  -27.1590  -28.8260   20.5060 C   0  0  0  0  0  3  0  0  0  0  0  0
  -25.9830  -27.1280   19.2280 C   0  0  0  0  0  3  0  0  0  0  0  0
  -24.7940  -27.8680   19.3190 C   0  0  0  0  0  3  0  0  0  0  0  0
  -23.5460  -29.9490   20.1110 C   0  0  0  0  0  2  0  0  0  0  0  0
  -24.6320  -31.1130   22.0820 N   0  0  0  0  0  0  0  0  0  0  0  0
  -23.5180  -32.0900   23.7980 O   0  0  0  0  0  0  0  0  0  0  0  0
  -22.7250  -29.4680   22.4390 C   0  0  0  0  0  0  0  0  0  0  0  0
  -21.4010  -29.2870   22.3180 N   0  0  0  0  0  0  0  0  0  0  0  0
  -23.4210  -28.7990   23.2090 O   0  0  0  0  0  0  0  0  0  0  0  0
  -20.8990  -29.8780   21.6680 H   0  0  0  0  0  0  0  0  0  0  0  0
  -18.0460  -28.0060   22.7400 C   0  0  0  0  0  0  0  0  0  0  0  0
  -20.5970  -28.3020   23.0430 C   0  0  0  0  0  3  0  0  0  0  0  0
  -20.7320  -26.8980   22.4100 C   0  0  0  0  0  2  0  0  0  0  0  0
  -19.6430  -26.5950   21.3770 C   0  0  0  0  0  2  0  0  0  0  0  0
  -18.2550  -26.6880   22.0150 C   0  0  0  0  0  2  0  0  0  0  0  0
  -19.1470  -28.7720   23.2090 C   0  0  0  0  0  0  0  0  0  0  0  0
  -18.8990  -30.0080   23.8460 C   0  0  0  0  0  3  0  0  0  0  0  0
  -17.5840  -30.4780   24.0190 C   0  0  0  0  0  3  0  0  0  0  0  0
  -16.4980  -29.7080   23.5680 C   0  0  0  0  0  3  0  0  0  0  0  0
  -16.7300  -28.4750   22.9340 C   0  0  0  0  0  3  0  0  0  0  0  0
  -25.8850  -32.4480   23.8620 C   0  0  0  0  0  3  0  0  0  0  0  0
  -26.4260  -31.6040   25.0810 C   0  0  1  0  0  0  0  0  0  0  0  0
  -25.3530  -31.3070   26.1550 C   0  0  0  0  0  1  0  0  0  0  0  0
  -26.9960  -30.2510   24.5970 C   0  0  0  0  0  1  0  0  0  0  0  0
  -27.5910  -32.3570   25.7620 C   0  0  0  0  0  1  0  0  0  0  0  0
  -25.5780  -33.8230   24.2770 N   0  0  0  0  0  0  0  0  0  0  0  0
  -25.9720  -34.9230   23.6210 C   0  0  0  0  0  0  0  0  0  0  0  0
  -26.7030  -34.8820   22.6260 O   0  0  0  0  0  0  0  0  0  0  0  0
  -24.9350  -33.9290   25.0490 H   0  0  0  0  0  0  0  0  0  0  0  0
  -24.3000  -36.7720   23.2960 C   0  0  0  0  0  1  0  0  0  0  0  0
  -25.4790  -36.2830   24.1510 C   0  0  0  0  0  3  0  0  0  0  0  0
  -27.5740  -37.0530   25.1760 C   0  0  0  0  0  1  0  0  0  0  0  0
  -26.5350  -37.3190   24.1840 N   0  0  0  0  0  0  0  0  0  0  0  0
  -26.1360  -38.2330   24.3770 H   0  0  0  0  0  0  0  0  0  0  0  0
  -32.0340  -16.3320   17.1030 C   0  0  0  0  0  2  0  0  0  0  0  0
  -33.2660  -15.3820   17.1050 C   0  0  0  0  0  2  0  0  0  0  0  0
  -32.9750  -13.8890   16.8220 C   0  0  0  0  0  0  0  0  0  0  0  0
  -33.5970  -12.9810   17.5950 N   0  0  0  0  0  0  0  0  0  0  0  0
  -32.2050  -13.5630   15.9160 O   0  0  0  0  0  0  0  0  0  0  0  0
  -34.2350  -13.3430   18.2910 H   0  0  0  0  0  0  0  0  0  0  0  0
  -33.4420  -11.5210   17.5550 C   0  0  0  0  0  2  0  0  0  0  0  0
  -33.6380  -10.8660   18.9520 C   0  0  0  0  0  2  0  0  0  0  0  0
  -32.3730  -10.2050   19.5690 C   0  0  0  0  0  2  0  0  0  0  0  0
  -32.1980  -10.3610   21.1020 C   0  0  0  0  0  2  0  0  0  0  0  0
  -30.7240  -10.4640   21.5980 C   0  0  0  0  0  2  0  0  0  0  0  0
  -30.1860  -11.8680   22.0200 C   0  0  0  0  0  2  0  0  0  0  0  0
  -30.0150  -14.1950   20.3560 C   0  0  2  0  0  0  0  0  0  0  0  0
  -31.3650  -13.5510   19.8190 C   0  0  0  0  0  1  0  0  0  0  0  0
  -30.2300  -12.8540   18.4220 C   0  0  0  0  0  1  0  0  0  0  0  0
  -28.4800  -12.8700   18.6490 C   0  0  0  0  0  2  0  0  0  0  0  0
  -27.7020  -13.9450   19.7980 C   0  0  0  0  0  2  0  0  0  0  0  0
  -28.7040  -14.7020   21.1980 C   0  0  0  0  0  1  0  0  0  0  0  0
  -30.4880  -14.4350   21.1530 N   0  0  0  0  0  1  0  0  0  0  0  0
  -30.0260  -15.2430   19.4470 O   0  0  0  0  0  1  0  0  0  0  0  0
  -29.6390  -12.6940   20.9060 N   0  0  0  0  0  2  0  0  0  0  0  0
  -29.0250  -12.2020   20.2700 H   0  0  0  0  0  0  0  0  0  0  0  0
  -25.2480  -14.2210   20.4180 C   0  0  0  0  0  0  0  0  0  0  0  0
  -24.2420  -13.3600   20.7460 C   0  0  0  0  0  0  0  0  0  0  0  0
  -24.8040  -12.0470   20.6750 C   0  0  0  0  0  0  0  0  0  0  0  0
  -26.3740  -13.4520   20.1990 N   0  0  0  0  0  0  0  0  0  0  0  0
  -26.1090  -12.1220   20.3730 N   0  0  0  0  0  0  0  0  0  0  0  0
  -24.1450  -10.7340   20.8410 C   0  0  0  0  0  0  0  0  0  0  0  0
  -24.6390   -9.7600   21.7370 C   0  0  0  0  0  3  0  0  0  0  0  0
  -23.9690   -8.5270   21.9050 C   0  0  0  0  0  3  0  0  0  0  0  0
  -22.7850   -8.2570   21.1760 C   0  0  0  0  0  0  0  0  0  0  0  0
  -22.3100   -9.2160   20.2640 C   0  0  0  0  0  3  0  0  0  0  0  0
  -22.9790  -10.4400   20.0970 C   0  0  0  0  0  3  0  0  0  0  0  0
  -22.0800   -7.0790   21.2490 O   0  0  0  0  0  0  0  0  0  0  0  0
  -22.1000   -6.2950   22.3740 C   0  0  0  0  0  0  0  0  0  0  0  0
  -21.6890   -6.7870   23.6330 C   0  0  0  0  0  3  0  0  0  0  0  0
  -21.6620   -5.9270   24.7490 C   0  0  0  0  0  3  0  0  0  0  0  0
  -22.0290   -4.5750   24.6060 C   0  0  0  0  0  0  0  0  0  0  0  0
  -22.4310   -4.0840   23.3520 C   0  0  0  0  0  3  0  0  0  0  0  0
  -22.4630   -4.9410   22.2370 C   0  0  0  0  0  0  0  0  0  0  0  0
  -22.8310   -4.4550   21.0280 F   0  0  0  0  0  0  0  0  0  0  0  0
  -21.9960   -3.7460   25.6750 F   0  0  0  0  0  0  0  0  0  0  0  0
  -22.8190  -13.7380   21.0310 C   0  0  0  0  0  0  0  0  0  0  0  0
  -22.1530  -12.9830   21.8980 N   0  0  0  0  0  0  0  0  0  0  0  0
  -22.3110  -14.7410   20.5300 O   0  0  0  0  0  0  0  0  0  0  0  0
  -22.5910  -12.1770   22.3190 H   0  0  0  0  0  0  0  0  0  0  0  0
  -21.1950  -13.2010   22.1340 H   0  0  0  0  0  0  0  0  0  0  0  0
  -25.3060  -15.6030   20.2780 N   0  0  0  0  0  0  0  0  0  0  0  0
  -24.4930  -16.2040   20.3470 H   0  0  0  0  0  0  0  0  0  0  0  0
  -26.1460  -16.1010   20.0070 H   0  0  0  0  0  0  0  0  0  0  0  0
  2  1  1  0
  2  3  1  0
  4  6  2  0
  5  3  1  0
  5  4  1  0
  7  5  1  0
  8  4  1  0
  8  9  1  0
  9 10  1  0
 10 11  1  0
 11 13  1  0
 12 23  2  0
 13 18  1  0
 14 22  1  0
 14 24  1  0
 15 21  1  0
 15 17  1  0
 16 22  1  0
 17 16  1  0
 18 17  2  0
 19 20  1  0
 19 13  2  0
 20 15  2  0
 21 14  1  0
 22 12  1  0
 24 26  2  0
 25 24  1  0
 27 25  1  0
 28 37  2  0
 28 33  1  0
 29 25  1  0
 29 33  1  0
 30 29  1  0
 31 32  1  0
 31 30  1  0
 32 28  1  0
 33 34  2  0
 34 35  1  0
 36 35  2  0
 37 36  1  0
 38 12  1  0
 38 43  1  0
 38 39  1  0
 39 42  1  1
 39 40  1  0
 41 39  1  0
 43 46  1  0
 44 48  1  0
 44 43  1  0
 45 44  2  0
 48 47  1  0
 48 50  1  0
 50 51  1  0
 50 49  1  0
 52 53  1  0
 52  1  1  0
 54 53  1  0
 54 55  1  0
 55 57  1  0
 56 54  2  0
 58 55  1  0
 58 59  1  0
 59 60  1  0
 60 61  1  0
 61 62  1  0
 62 63  1  0
 64 70  1  0
 64 69  1  1
 65 64  1  0
 66 67  1  0
 67 68  1  0
 68 77  1  0
 71 64  1  0
 72 63  1  0
 73 72  1  0
 74 75  2  0
 75 94  1  0
 76 75  1  0
 76 79  1  0
 77 78  1  0
 77 74  1  0
 78 76  2  0
 79 80  1  0
 80 81  2  0
 82 85  1  0
 82 81  1  0
 83 82  2  0
 84 83  1  0
 84 79  2  0
 85 86  1  0
 86 87  1  0
 87 88  2  0
 89 88  1  0
 89 93  1  0
 90 89  2  0
 91 86  2  0
 91 90  1  0
 92 91  1  0
 94 95  1  0
 95 98  1  0
 95 97  1  0
 96 94  2  0
 99100  1  0
 99 74  1  0
101 99  1  0
M  ISO  4  10 101  11 101  64 100  72 100
M  END
>  <TORSDO>  (76) 
F 31

>  <SCORE>  (76) 
-9.562

>  <name>  (76) 
76

>  <ligand_id>  (76) 
76

>  <original_smiles>  (76) 
[H]c1c([H])c([H])c2c(c1[H])C([H])([H])C([H])([H])C([H])([H])C2([H])N([H])C(=O)C1([H])N(C(=O)C([H])(N([H])C(=O)C([H])(N([H])C([H])([H])[H])C([H])([H])[H])C(C([H])([H])[H])(C([H])([H])[H])C([H])([H])[H])C([H])([H])c2c([H])c(OC([H])([H])C([H])([H])C([H])([H])C(=O)N([H])C([H])([H])C([H])([H])C([H])([H])C([H])([H])C([H])([H])C(=O)N([H])C([H])([H])C([H])([H])C([H])([H])C([H])([H])C([H])([H])C([H])([H])N([H])C(=O)N3C([H])([H])C([H])([H])C([H])([H])C([H])(n4nc(-c5c([H])c([H])c(Oc6c([H])c([H])c(F)c([H])c6F)c([H])c5[H])c(C(=O)N([H])[H])c4N([H])[H])C3([H])[H])c([H])c([H])c2C1([H])[H]

>  <smiles>  (76) 
[H]c1c([H])c([H])c2c(c1[H])C([H])([H])C([H])([H])C([H])([H])C2([H])N([H])C(=O)C1([H])N(C(=O)C([H])(N([H])C(=O)C([H])(N([H])C([H])([H])[H])C([H])([H])[H])C(C([H])([H])[H])(C([H])([H])[H])C([H])([H])[H])C([H])([H])c2c([H])c(OC([H])([H])C([H])([H])C([H])([H])C(=O)N([H])C([H])([H])C([H])([H])C([H])([H])C([H])([H])C([H])([H])C(=O)N([H])C([H])([H])C([H])([H])C([H])([H])C([H])([H])C([H])([H])C([H])([H])N([H])C(=O)N3C([H])([H])C([H])([H])C([H])([H])C([H])(n4nc(-c5c([H])c([H])c(Oc6c([H])c([H])c(F)c([H])c6F)c([H])c5[H])c(C(=O)N([H])[H])c4N([H])[H])C3([H])[H])c([H])c([H])c2C1([H])[H]

$$$$
77:0:0
     RDKit          3D

 98105  0  0  1  0  0  0  0  0999 V2000
  -23.5370  -16.7900   22.9310 C   0  0  0  0  0  3  0  0  0  0  0  0
  -24.2310  -18.3230   23.2670 C   0  0  0  0  0  2  0  0  0  0  0  0
  -25.0540  -19.3420   22.1540 C   0  0  0  0  0  2  0  0  0  0  0  0
  -26.2560  -21.8290   21.7540 C   0  0  0  0  0  0  0  0  0  0  0  0
  -25.1870  -20.9410   22.1200 N   0  0  0  0  0  0  0  0  0  0  0  0
  -27.3890  -21.3490   21.7760 O   0  0  0  0  0  0  0  0  0  0  0  0
  -24.2880  -21.4070   22.1710 H   0  0  0  0  0  0  0  0  0  0  0  0
  -26.1720  -23.4170   21.1950 C   0  0  0  0  0  2  0  0  0  0  0  0
  -27.3540  -24.6480   21.3590 C   0  0  0  0  0  2  0  0  0  0  0  0
  -27.8160  -25.9290   20.5420 O   0  0  0  0  0  0  0  0  0  0  0  0
  -24.6390  -31.8490   23.1950 C   0  0  0  0  0  0  0  0  0  0  0  0
  -26.9890  -27.0550   20.3270 C   0  0  0  0  0  0  0  0  0  0  0  0
  -23.4340  -30.4850   21.5360 C   0  0  0  0  0  3  0  0  0  0  0  0
  -24.8550  -28.9230   20.0930 C   0  0  0  0  0  0  0  0  0  0  0  0
  -25.9890  -30.7160   21.3920 C   0  0  0  0  0  2  0  0  0  0  0  0
  -26.0270  -29.3230   20.7510 C   0  0  0  0  0  0  0  0  0  0  0  0
  -27.1240  -28.3980   20.8480 C   0  0  0  0  0  3  0  0  0  0  0  0
  -25.8640  -26.7810   19.5460 C   0  0  0  0  0  3  0  0  0  0  0  0
  -24.7960  -27.6810   19.4470 C   0  0  0  0  0  3  0  0  0  0  0  0
  -23.6530  -29.8430   20.1400 C   0  0  0  0  0  2  0  0  0  0  0  0
  -24.7090  -31.0410   22.0960 N   0  0  0  0  0  0  0  0  0  0  0  0
  -23.5520  -32.1380   23.7200 O   0  0  0  0  0  0  0  0  0  0  0  0
  -22.7530  -29.4600   22.4810 C   0  0  0  0  0  0  0  0  0  0  0  0
  -21.4230  -29.3060   22.3580 N   0  0  0  0  0  0  0  0  0  0  0  0
  -23.4220  -28.8100   23.2890 O   0  0  0  0  0  0  0  0  0  0  0  0
  -20.9410  -29.8860   21.6850 H   0  0  0  0  0  0  0  0  0  0  0  0
  -18.0300  -28.1380   22.8470 C   0  0  0  0  0  0  0  0  0  0  0  0
  -20.5910  -28.3720   23.1220 C   0  0  0  0  0  3  0  0  0  0  0  0
  -20.6780  -26.9420   22.5380 C   0  0  0  0  0  2  0  0  0  0  0  0
  -19.5760  -26.6370   21.5190 C   0  0  0  0  0  2  0  0  0  0  0  0
  -18.1940  -26.7920   22.1610 C   0  0  0  0  0  2  0  0  0  0  0  0
  -19.1560  -28.8870   23.2850 C   0  0  0  0  0  0  0  0  0  0  0  0
  -18.9480  -30.1450   23.8880 C   0  0  0  0  0  3  0  0  0  0  0  0
  -17.6470  -30.6580   24.0550 C   0  0  0  0  0  3  0  0  0  0  0  0
  -16.5370  -29.9070   23.6320 C   0  0  0  0  0  3  0  0  0  0  0  0
  -16.7280  -28.6490   23.0350 C   0  0  0  0  0  3  0  0  0  0  0  0
  -25.9200  -32.4710   23.8310 C   0  0  0  0  0  3  0  0  0  0  0  0
  -25.5990  -33.8520   24.2230 N   0  0  0  0  0  0  0  0  0  0  0  0
  -25.9070  -34.9410   23.5070 C   0  0  0  0  0  0  0  0  0  0  0  0
  -26.5640  -34.8890   22.4630 O   0  0  0  0  0  0  0  0  0  0  0  0
  -25.0180  -33.9660   25.0410 H   0  0  0  0  0  0  0  0  0  0  0  0
  -24.1500  -36.7260   23.2640 C   0  0  0  0  0  1  0  0  0  0  0  0
  -25.4120  -36.3030   24.0320 C   0  0  0  0  0  3  0  0  0  0  0  0
  -27.5570  -37.1790   24.8460 C   0  0  0  0  0  1  0  0  0  0  0  0
  -26.4280  -37.3740   23.9400 N   0  0  0  0  0  0  0  0  0  0  0  0
  -26.0150  -38.2800   24.1410 H   0  0  0  0  0  0  0  0  0  0  0  0
  -26.4530  -31.6560   25.0730 C   0  0  1  0  0  0  0  0  0  0  0  0
  -25.3750  -31.3740   26.1450 C   0  0  0  0  0  1  0  0  0  0  0  0
  -27.0370  -30.2960   24.6280 C   0  0  0  0  0  1  0  0  0  0  0  0
  -27.6070  -32.4320   25.7520 C   0  0  0  0  0  1  0  0  0  0  0  0
  -23.3290  -15.3350   23.8540 C   0  0  0  0  0  3  0  0  0  0  0  0
  -22.4180  -12.7070   23.0410 C   0  0  0  0  0  0  0  0  0  0  0  0
  -22.3540  -14.0880   23.5090 N   0  0  0  0  0  0  0  0  0  0  0  0
  -23.0470  -11.9280   23.7530 O   0  0  0  0  0  0  0  0  0  0  0  0
  -21.5670  -14.5110   23.0290 H   0  0  0  0  0  0  0  0  0  0  0  0
  -21.8080  -12.0550   21.4860 C   0  0  0  0  0  3  0  0  0  0  0  0
  -22.2370  -12.3060   19.6220 C   0  0  0  0  0  3  0  0  0  0  0  0
  -23.5720  -13.0450   18.4950 C   0  0  0  0  0  2  0  0  0  0  0  0
  -25.3820  -13.2640   18.2600 C   0  0  0  0  0  2  0  0  0  0  0  0
  -26.7830  -14.5400   18.2910 C   0  0  0  0  0  2  0  0  0  0  0  0
  -29.7080  -14.5520   19.5640 C   0  0  0  0  0  0  0  0  0  0  0  0
  -30.4970  -12.3220   19.4260 C   0  0  0  0  0  2  0  0  0  0  0  0
  -29.4990  -12.0210   18.3100 C   0  0  0  0  0  2  0  0  0  0  0  0
  -28.0610  -11.9040   18.8900 C   0  0  0  0  0  2  0  0  0  0  0  0
  -27.7160  -12.7050   20.2640 C   0  0  0  0  0  3  0  0  0  0  0  0
  -28.8880  -12.8430   21.1650 C   0  0  0  0  0  2  0  0  0  0  0  0
  -29.8530  -13.3630   20.2160 N   0  0  0  0  0  0  0  0  0  0  0  0
  -30.8130  -15.1590   19.5620 O   0  0  0  0  0  0  0  0  0  0  0  0
  -28.4950  -14.7790   18.6550 N   0  0  0  0  0  0  0  0  0  0  0  0
  -28.7920  -15.5290   18.0470 H   0  0  0  0  0  0  0  0  0  0  0  0
  -25.5450  -13.8390   20.9870 C   0  0  0  0  0  0  0  0  0  0  0  0
  -24.3150  -13.3340   21.0700 C   0  0  0  0  0  0  0  0  0  0  0  0
  -24.5930  -11.8190   21.0440 C   0  0  0  0  0  0  0  0  0  0  0  0
  -26.4080  -12.7510   20.7840 N   0  0  0  0  0  0  0  0  0  0  0  0
  -25.8640  -11.5760   20.9040 N   0  0  0  0  0  0  0  0  0  0  0  0
  -23.9770  -10.4210   21.0730 C   0  0  0  0  0  0  0  0  0  0  0  0
  -24.2500   -9.5190   22.1270 C   0  0  0  0  0  3  0  0  0  0  0  0
  -23.5500   -8.2940   22.2550 C   0  0  0  0  0  3  0  0  0  0  0  0
  -22.4820   -7.9890   21.3780 C   0  0  0  0  0  0  0  0  0  0  0  0
  -22.2950   -8.8030   20.2640 C   0  0  0  0  0  3  0  0  0  0  0  0
  -23.1850   -9.8610   20.0460 C   0  0  0  0  0  3  0  0  0  0  0  0
  -21.6620   -6.8930   21.4580 O   0  0  0  0  0  0  0  0  0  0  0  0
  -21.6780   -6.0690   22.5470 C   0  0  0  0  0  0  0  0  0  0  0  0
  -21.3810   -6.5530   23.8380 C   0  0  0  0  0  3  0  0  0  0  0  0
  -21.3540   -5.6660   24.9290 C   0  0  0  0  0  3  0  0  0  0  0  0
  -21.6050   -4.2950   24.7270 C   0  0  0  0  0  0  0  0  0  0  0  0
  -21.8860   -3.8100   23.4370 C   0  0  0  0  0  3  0  0  0  0  0  0
  -21.9180   -4.6950   22.3480 C   0  0  0  0  0  0  0  0  0  0  0  0
  -22.1680   -4.2230   21.1020 F   0  0  0  0  0  0  0  0  0  0  0  0
  -21.5700   -3.4410   25.7760 F   0  0  0  0  0  0  0  0  0  0  0  0
  -23.1460  -14.4410   20.8390 C   0  0  0  0  0  0  0  0  0  0  0  0
  -21.8320  -14.4900   21.0830 N   0  0  0  0  0  0  0  0  0  0  0  0
  -23.2810  -15.4130   20.1720 O   0  0  0  0  0  0  0  0  0  0  0  0
  -21.3480  -13.6450   21.3370 H   0  0  0  0  0  0  0  0  0  0  0  0
  -21.3180  -15.2790   20.7170 H   0  0  0  0  0  0  0  0  0  0  0  0
  -25.9130  -15.1840   20.9030 N   0  0  0  0  0  0  0  0  0  0  0  0
  -25.1790  -15.8440   20.6630 H   0  0  0  0  0  0  0  0  0  0  0  0
  -26.8210  -15.4610   20.5500 H   0  0  0  0  0  0  0  0  0  0  0  0
  1  2  1  0
  1 51  2  0
  3  2  1  0
  4  6  2  0
  4  5  1  0
  5  3  1  0
  5  7  1  0
  8  9  1  0
  8  4  1  0
 10  9  1  0
 11 22  2  0
 12 10  1  0
 12 17  1  0
 13 21  1  0
 13 23  1  0
 14 20  1  0
 14 16  1  0
 15 21  1  0
 16 17  2  0
 16 15  1  0
 18 12  2  0
 19 18  1  0
 19 14  2  0
 20 13  1  0
 21 11  1  0
 23 25  2  0
 24 23  1  0
 26 24  1  0
 27 36  2  0
 27 32  1  0
 28 24  1  0
 28 32  1  0
 29 28  1  0
 30 31  1  0
 30 29  1  0
 31 27  1  0
 32 33  2  0
 33 34  1  0
 35 34  2  0
 36 35  1  0
 37 11  1  0
 37 38  1  0
 37 47  1  0
 38 41  1  0
 39 43  1  0
 39 38  1  0
 40 39  2  0
 43 42  1  0
 45 43  1  0
 45 46  1  0
 45 44  1  0
 47 50  1  1
 47 48  1  0
 49 47  1  0
 52 53  1  0
 52 54  2  0
 53 51  1  0
 55 53  1  0
 56 52  1  0
 57 56  2  0
 58 57  1  0
 59 60  1  0
 59 58  1  0
 60 69  1  0
 61 67  1  0
 62 67  1  0
 63 64  1  0
 63 62  1  0
 65 64  1  0
 65 74  1  0
 65 66  1  0
 67 66  1  0
 68 61  2  0
 69 61  1  0
 70 69  1  0
 71 72  2  0
 73 72  1  0
 73 76  1  0
 74 75  1  0
 74 71  1  0
 75 73  2  0
 76 77  1  0
 77 78  2  0
 79 82  1  0
 79 78  1  0
 80 79  2  0
 81 80  1  0
 81 76  2  0
 82 83  1  0
 83 84  1  0
 84 85  2  0
 86 85  1  0
 86 90  1  0
 87 86  2  0
 88 83  2  0
 88 87  1  0
 89 88  1  0
 91 72  1  0
 91 92  1  0
 92 94  1  0
 93 91  2  0
 95 92  1  0
 96 71  1  0
 97 96  1  0
 98 96  1  0
M  ISO  4   9 101  10 101  61 100  69 100
M  END
>  <TORSDO>  (77) 
F 28

>  <SCORE>  (77) 
48.234

>  <name>  (77) 
77

>  <ligand_id>  (77) 
77

>  <original_smiles>  (77) 
[H]c1c([H])c([H])c2c(c1[H])C([H])([H])C([H])([H])C([H])([H])C2([H])N([H])C(=O)C1([H])N(C(=O)C([H])(N([H])C(=O)C([H])(N([H])C([H])([H])[H])C([H])([H])[H])C(C([H])([H])[H])(C([H])([H])[H])C([H])([H])[H])C([H])([H])c2c([H])c(OC([H])([H])C([H])([H])C(=O)N([H])C([H])([H])C([H])([H])C([H])([H])C([H])([H])N([H])C(=O)C([H])([H])C([H])([H])C([H])([H])C([H])([H])C([H])([H])N([H])C(=O)N3C([H])([H])C([H])([H])C([H])([H])C([H])(n4nc(-c5c([H])c([H])c(Oc6c([H])c([H])c(F)c([H])c6F)c([H])c5[H])c(C(=O)N([H])[H])c4N([H])[H])C3([H])[H])c([H])c([H])c2C1([H])[H]

>  <smiles>  (77) 
[H]c1c([H])c([H])c2c(c1[H])C([H])([H])C([H])([H])C([H])([H])C2([H])N([H])C(=O)C1([H])N(C(=O)C([H])(N([H])C(=O)C([H])(N([H])C([H])([H])[H])C([H])([H])[H])C(C([H])([H])[H])(C([H])([H])[H])C([H])([H])[H])C([H])([H])c2c([H])c(OC([H])([H])C([H])([H])C(=O)N([H])C([H])([H])C([H])([H])C([H])([H])C([H])([H])N([H])C(=O)C([H])([H])C([H])([H])C([H])([H])C([H])([H])C([H])([H])N([H])C(=O)N3C([H])([H])C([H])([H])C([H])([H])C([H])(n4nc(-c5c([H])c([H])c(Oc6c([H])c([H])c(F)c([H])c6F)c([H])c5[H])c(C(=O)N([H])[H])c4N([H])[H])C3([H])[H])c([H])c([H])c2C1([H])[H]

$$$$
78:0:0
     RDKit          3D

101108  0  0  1  0  0  0  0  0999 V2000
  -32.6810  -26.8750   17.1710 C   0  0  0  0  0  0  0  0  0  0  0  0
  -33.0440  -25.5900   17.2690 N   0  0  0  0  0  0  0  0  0  0  0  0
  -32.2010  -27.3550   16.1420 O   0  0  0  0  0  0  0  0  0  0  0  0
  -33.4130  -25.2790   18.1590 H   0  0  0  0  0  0  0  0  0  0  0  0
  -32.9310  -27.7630   18.3940 C   0  0  0  0  0  2  0  0  0  0  0  0
  -31.7380  -28.6680   18.7730 C   0  0  0  0  0  2  0  0  0  0  0  0
  -30.5110  -27.6610   20.6960 C   0  0  0  0  0  0  0  0  0  0  0  0
  -30.6420  -27.9230   19.3900 N   0  0  0  0  0  0  0  0  0  0  0  0
  -31.3130  -28.0670   21.5400 O   0  0  0  0  0  0  0  0  0  0  0  0
  -29.9100  -27.5640   18.7900 H   0  0  0  0  0  0  0  0  0  0  0  0
  -29.3170  -26.7970   21.1140 C   0  0  0  0  0  2  0  0  0  0  0  0
  -28.3720  -26.6890   20.0450 O   0  0  0  0  0  0  0  0  0  0  0  0
  -24.6080  -31.8740   23.2120 C   0  0  0  0  0  0  0  0  0  0  0  0
  -27.2450  -27.4760   20.0980 C   0  0  0  0  0  0  0  0  0  0  0  0
  -23.3950  -30.4910   21.5520 C   0  0  0  0  0  3  0  0  0  0  0  0
  -24.8450  -28.9630   20.1160 C   0  0  0  0  0  0  0  0  0  0  0  0
  -25.9140  -30.8510   21.3590 C   0  0  0  0  0  2  0  0  0  0  0  0
  -25.9970  -29.4850   20.7150 C   0  0  0  0  0  0  0  0  0  0  0  0
  -27.1990  -28.7480   20.7130 C   0  0  0  0  0  3  0  0  0  0  0  0
  -26.0820  -26.9690   19.4840 C   0  0  0  0  0  3  0  0  0  0  0  0
  -24.8800  -27.7000   19.4990 C   0  0  0  0  0  3  0  0  0  0  0  0
  -23.6020  -29.8190   20.1680 C   0  0  0  0  0  2  0  0  0  0  0  0
  -24.6560  -31.0870   22.1000 N   0  0  0  0  0  0  0  0  0  0  0  0
  -23.5270  -32.1490   23.7520 O   0  0  0  0  0  0  0  0  0  0  0  0
  -22.7380  -29.4670   22.5030 C   0  0  0  0  0  0  0  0  0  0  0  0
  -21.4110  -29.3030   22.3740 N   0  0  0  0  0  0  0  0  0  0  0  0
  -23.4160  -28.8240   23.3090 O   0  0  0  0  0  0  0  0  0  0  0  0
  -20.9280  -29.8740   21.6950 H   0  0  0  0  0  0  0  0  0  0  0  0
  -18.0260  -28.1370   22.8490 C   0  0  0  0  0  0  0  0  0  0  0  0
  -20.5850  -28.3650   23.1340 C   0  0  0  0  0  3  0  0  0  0  0  0
  -20.6740  -26.9390   22.5420 C   0  0  0  0  0  2  0  0  0  0  0  0
  -19.5730  -26.6390   21.5200 C   0  0  0  0  0  2  0  0  0  0  0  0
  -18.1910  -26.7920   22.1610 C   0  0  0  0  0  2  0  0  0  0  0  0
  -19.1510  -28.8830   23.2900 C   0  0  0  0  0  0  0  0  0  0  0  0
  -18.9440  -30.1420   23.8910 C   0  0  0  0  0  3  0  0  0  0  0  0
  -17.6440  -30.6570   24.0560 C   0  0  0  0  0  3  0  0  0  0  0  0
  -16.5330  -29.9070   23.6330 C   0  0  0  0  0  3  0  0  0  0  0  0
  -16.7260  -28.6480   23.0350 C   0  0  0  0  0  3  0  0  0  0  0  0
  -25.8990  -32.4850   23.8430 C   0  0  0  0  0  3  0  0  0  0  0  0
  -25.5870  -33.8660   24.2350 N   0  0  0  0  0  0  0  0  0  0  0  0
  -25.9030  -34.9510   23.5140 C   0  0  0  0  0  0  0  0  0  0  0  0
  -26.5600  -34.8950   22.4710 O   0  0  0  0  0  0  0  0  0  0  0  0
  -25.0000  -33.9830   25.0480 H   0  0  0  0  0  0  0  0  0  0  0  0
  -24.1480  -36.7340   23.2630 C   0  0  0  0  0  1  0  0  0  0  0  0
  -25.4100  -36.3150   24.0340 C   0  0  0  0  0  3  0  0  0  0  0  0
  -27.5590  -37.1790   24.8440 C   0  0  0  0  0  1  0  0  0  0  0  0
  -26.4290  -37.3830   23.9420 N   0  0  0  0  0  0  0  0  0  0  0  0
  -26.0190  -38.2900   24.1480 H   0  0  0  0  0  0  0  0  0  0  0  0
  -26.4440  -31.6600   25.0730 C   0  0  1  0  0  0  0  0  0  0  0  0
  -25.3710  -31.3690   26.1480 C   0  0  0  0  0  1  0  0  0  0  0  0
  -27.0240  -30.3040   24.6070 C   0  0  0  0  0  1  0  0  0  0  0  0
  -27.6070  -32.4260   25.7470 C   0  0  0  0  0  1  0  0  0  0  0  0
  -33.0160  -24.6130   16.1830 C   0  0  0  0  0  2  0  0  0  0  0  0
  -31.9370  -23.5420   16.4080 C   0  0  0  0  0  2  0  0  0  0  0  0
  -32.2220  -22.6490   17.6260 C   0  0  0  0  0  2  0  0  0  0  0  0
  -31.2640  -21.4540   17.7180 C   0  0  0  0  0  2  0  0  0  0  0  0
  -31.5530  -20.5680   18.9380 C   0  0  0  0  0  2  0  0  0  0  0  0
  -30.7990  -19.2320   18.8610 C   0  0  0  0  0  2  0  0  0  0  0  0
  -30.2450  -17.3780   20.3840 C   0  0  0  0  0  0  0  0  0  0  0  0
  -30.9920  -18.4410   20.0700 N   0  0  0  0  0  0  0  0  0  0  0  0
  -29.3000  -17.0060   19.6830 O   0  0  0  0  0  0  0  0  0  0  0  0
  -31.7530  -18.6900   20.6890 H   0  0  0  0  0  0  0  0  0  0  0  0
  -30.6090  -16.6070   21.6600 C   0  0  0  0  0  2  0  0  0  0  0  0
  -30.7600  -14.3490   20.6650 C   0  0  0  0  0  0  0  0  0  0  0  0
  -30.4190  -12.2810   19.3830 C   0  0  0  0  0  2  0  0  0  0  0  0
  -29.4800  -12.5370   18.1870 C   0  0  0  0  0  2  0  0  0  0  0  0
  -28.0040  -12.3880   18.6020 C   0  0  0  0  0  2  0  0  0  0  0  0
  -27.6680  -13.1970   19.8820 C   0  0  0  0  0  3  0  0  0  0  0  0
  -28.7060  -12.9240   20.9920 C   0  0  0  0  0  2  0  0  0  0  0  0
  -30.0510  -13.2120   20.4590 N   0  0  0  0  0  0  0  0  0  0  0  0
  -31.8020  -14.6270   20.0600 O   0  0  0  0  0  0  0  0  0  0  0  0
  -30.2280  -15.1990   21.5500 N   0  0  0  0  0  0  0  0  0  0  0  0
  -29.3870  -14.9060   22.0230 H   0  0  0  0  0  0  0  0  0  0  0  0
  -25.2640  -13.8160   20.5680 C   0  0  0  0  0  0  0  0  0  0  0  0
  -24.1860  -13.0450   20.9150 C   0  0  0  0  0  0  0  0  0  0  0  0
  -24.6360  -11.6900   20.8670 C   0  0  0  0  0  0  0  0  0  0  0  0
  -26.3040  -12.9290   20.3370 N   0  0  0  0  0  0  0  0  0  0  0  0
  -25.9290  -11.6440   20.5720 N   0  0  0  0  0  0  0  0  0  0  0  0
  -23.9010  -10.4300   21.0330 C   0  0  0  0  0  0  0  0  0  0  0  0
  -24.3580   -9.4250   21.9130 C   0  0  0  0  0  3  0  0  0  0  0  0
  -23.6300   -8.2260   22.0710 C   0  0  0  0  0  3  0  0  0  0  0  0
  -22.4280   -8.0260   21.3500 C   0  0  0  0  0  0  0  0  0  0  0  0
  -21.9890   -9.0230   20.4610 C   0  0  0  0  0  3  0  0  0  0  0  0
  -22.7170  -10.2130   20.3000 C   0  0  0  0  0  3  0  0  0  0  0  0
  -21.6660   -6.8860   21.4220 O   0  0  0  0  0  0  0  0  0  0  0  0
  -21.6870   -6.0730   22.5270 C   0  0  0  0  0  0  0  0  0  0  0  0
  -21.4010   -6.5640   23.8200 C   0  0  0  0  0  3  0  0  0  0  0  0
  -21.3670   -5.6790   24.9170 C   0  0  0  0  0  3  0  0  0  0  0  0
  -21.6050   -4.3050   24.7210 C   0  0  0  0  0  0  0  0  0  0  0  0
  -21.8830   -3.8140   23.4340 C   0  0  0  0  0  3  0  0  0  0  0  0
  -21.9200   -4.6950   22.3390 C   0  0  0  0  0  0  0  0  0  0  0  0
  -22.1670   -4.2140   21.0970 F   0  0  0  0  0  0  0  0  0  0  0  0
  -21.5630   -3.4540   25.7730 F   0  0  0  0  0  0  0  0  0  0  0  0
  -22.7890  -13.5260   21.1850 C   0  0  0  0  0  0  0  0  0  0  0  0
  -22.0510  -12.8230   22.0400 N   0  0  0  0  0  0  0  0  0  0  0  0
  -22.3580  -14.5560   20.6730 O   0  0  0  0  0  0  0  0  0  0  0  0
  -22.4130  -11.9920   22.4840 H   0  0  0  0  0  0  0  0  0  0  0  0
  -21.1100  -13.1210   22.2520 H   0  0  0  0  0  0  0  0  0  0  0  0
  -25.4470  -15.1860   20.4130 N   0  0  0  0  0  0  0  0  0  0  0  0
  -24.7020  -15.8590   20.5560 H   0  0  0  0  0  0  0  0  0  0  0  0
  -26.3230  -15.6150   20.1370 H   0  0  0  0  0  0  0  0  0  0  0  0
  1  2  1  0
  1  5  1  0
  2  4  1  0
  3  1  2  0
  5  6  1  0
  6  8  1  0
  7 11  1  0
  7  9  2  0
  8  7  1  0
 10  8  1  0
 12 14  1  0
 12 11  1  0
 13 24  2  0
 14 19  1  0
 15 23  1  0
 15 25  1  0
 16 22  1  0
 16 18  1  0
 17 23  1  0
 18 17  1  0
 19 18  2  0
 20 21  1  0
 20 14  2  0
 21 16  2  0
 22 15  1  0
 23 13  1  0
 25 27  2  0
 26 25  1  0
 28 26  1  0
 29 38  2  0
 29 34  1  0
 30 26  1  0
 30 34  1  0
 31 30  1  0
 32 33  1  0
 32 31  1  0
 33 29  1  0
 34 35  2  0
 35 36  1  0
 37 36  2  0
 38 37  1  0
 39 13  1  0
 39 40  1  0
 39 49  1  0
 40 43  1  0
 41 45  1  0
 41 40  1  0
 42 41  2  0
 45 44  1  0
 47 45  1  0
 47 48  1  0
 47 46  1  0
 49 52  1  1
 49 50  1  0
 51 49  1  0
 53 54  1  0
 53  2  1  0
 54 55  1  0
 55 56  1  0
 56 57  1  0
 58 57  1  0
 58 60  1  0
 59 63  1  0
 60 59  1  0
 60 62  1  0
 61 59  2  0
 64 72  1  0
 65 70  1  0
 66 67  1  0
 66 65  1  0
 68 67  1  0
 68 77  1  0
 68 69  1  0
 70 64  1  0
 70 69  1  0
 71 64  2  0
 72 63  1  0
 72 73  1  0
 74 75  2  0
 75 94  1  0
 76 75  1  0
 76 79  1  0
 77 74  1  0
 77 78  1  0
 78 76  2  0
 79 80  1  0
 80 81  2  0
 82 85  1  0
 82 81  1  0
 83 82  2  0
 84 83  1  0
 84 79  2  0
 85 86  1  0
 86 87  1  0
 87 88  2  0
 89 88  1  0
 89 93  1  0
 90 89  2  0
 91 86  2  0
 91 90  1  0
 92 91  1  0
 94 95  1  0
 95 98  1  0
 95 97  1  0
 96 94  2  0
 99100  1  0
 99 74  1  0
101 99  1  0
M  ISO  4  11 101  12 101  64 100  72 100
M  END
>  <TORSDO>  (78) 
F 28

>  <SCORE>  (78) 
-11.285

>  <name>  (78) 
78

>  <ligand_id>  (78) 
78

>  <original_smiles>  (78) 
[H]c1c([H])c([H])c2c(c1[H])C([H])([H])C([H])([H])C([H])([H])C2([H])N([H])C(=O)C1([H])N(C(=O)C([H])(N([H])C(=O)C([H])(N([H])C([H])([H])[H])C([H])([H])[H])C(C([H])([H])[H])(C([H])([H])[H])C([H])([H])[H])C([H])([H])c2c([H])c(OC([H])([H])C(=O)N([H])C([H])([H])C([H])([H])C(=O)N([H])C([H])([H])C([H])([H])C([H])([H])C([H])([H])C([H])([H])C([H])([H])N([H])C(=O)C([H])([H])N([H])C(=O)N3C([H])([H])C([H])([H])C([H])([H])C([H])(n4nc(-c5c([H])c([H])c(Oc6c([H])c([H])c(F)c([H])c6F)c([H])c5[H])c(C(=O)N([H])[H])c4N([H])[H])C3([H])[H])c([H])c([H])c2C1([H])[H]

>  <smiles>  (78) 
[H]c1c([H])c([H])c2c(c1[H])C([H])([H])C([H])([H])C([H])([H])C2([H])N([H])C(=O)C1([H])N(C(=O)C([H])(N([H])C(=O)C([H])(N([H])C([H])([H])[H])C([H])([H])[H])C(C([H])([H])[H])(C([H])([H])[H])C([H])([H])[H])C([H])([H])c2c([H])c(OC([H])([H])C(=O)N([H])C([H])([H])C([H])([H])C(=O)N([H])C([H])([H])C([H])([H])C([H])([H])C([H])([H])C([H])([H])C([H])([H])N([H])C(=O)C([H])([H])N([H])C(=O)N3C([H])([H])C([H])([H])C([H])([H])C([H])(n4nc(-c5c([H])c([H])c(Oc6c([H])c([H])c(F)c([H])c6F)c([H])c5[H])c(C(=O)N([H])[H])c4N([H])[H])C3([H])[H])c([H])c([H])c2C1([H])[H]

$$$$
79:0:0
     RDKit          3D

102109  0  0  1  0  0  0  0  0999 V2000
  -33.7030  -28.0790   22.5630 C   0  0  0  0  0  0  0  0  0  0  0  0
  -34.2220  -28.8940   21.6330 N   0  0  0  0  0  0  0  0  0  0  0  0
  -34.4020  -27.4800   23.3830 O   0  0  0  0  0  0  0  0  0  0  0  0
  -33.5780  -29.3830   21.0250 H   0  0  0  0  0  0  0  0  0  0  0  0
  -35.6470  -29.0990   21.3750 C   0  0  0  0  0  2  0  0  0  0  0  0
  -36.0460  -28.6130   19.9670 C   0  0  0  0  0  2  0  0  0  0  0  0
  -35.3700  -29.4090   18.8350 C   0  0  0  0  0  2  0  0  0  0  0  0
  -35.3760  -28.6760   17.4850 C   0  0  0  0  0  2  0  0  0  0  0  0
  -34.7330  -29.5320   16.3790 C   0  0  0  0  0  2  0  0  0  0  0  0
  -34.4710  -28.7800   15.0620 C   0  0  0  0  0  2  0  0  0  0  0  0
  -33.2050  -28.0150   15.0900 N   0  0  0  0  0  4  0  0  0  0  0  0
  -32.4500  -28.6370   15.3320 H   0  0  0  0  0  0  0  0  0  0  0  0
  -33.2710  -27.3110   15.8070 H   0  0  0  0  0  0  0  0  0  0  0  0
  -32.8930  -27.3560   13.8050 C   0  0  0  0  0  2  0  0  0  0  0  0
  -31.6370  -26.4640   13.8750 C   0  0  0  0  0  2  0  0  0  0  0  0
  -31.4640  -25.5950   12.6100 C   0  0  0  0  0  2  0  0  0  0  0  0
  -30.2440  -26.9930   10.9260 C   0  0  0  0  0  0  0  0  0  0  0  0
  -29.6250  -27.5290    8.5990 C   0  0  0  0  0  2  0  0  0  0  0  0
  -28.3820  -28.4200    8.4470 C   0  0  0  0  0  2  0  0  0  0  0  0
  -27.1000  -27.5710    8.4530 C   0  0  0  0  0  2  0  0  0  0  0  0
  -27.0500  -26.5910    9.6530 C   0  0  0  0  0  3  0  0  0  0  0  0
  -28.3630  -25.7900    9.7620 C   0  0  0  0  0  2  0  0  0  0  0  0
  -29.4910  -26.7400    9.8290 N   0  0  0  0  0  0  0  0  0  0  0  0
  -30.9550  -27.9940   11.0570 O   0  0  0  0  0  0  0  0  0  0  0  0
  -30.3260  -25.9500   11.7620 N   0  0  0  0  0  0  0  0  0  0  0  0
  -29.6850  -25.1960   11.5540 H   0  0  0  0  0  0  0  0  0  0  0  0
  -24.9200  -25.4350   10.5240 C   0  0  0  0  0  0  0  0  0  0  0  0
  -24.0230  -24.5960    9.9180 C   0  0  0  0  0  0  0  0  0  0  0  0
  -24.5060  -24.3950    8.5890 C   0  0  0  0  0  0  0  0  0  0  0  0
  -25.8900  -25.7050    9.5710 N   0  0  0  0  0  0  0  0  0  0  0  0
  -25.6610  -25.0270    8.4180 N   0  0  0  0  0  0  0  0  0  0  0  0
  -23.9080  -23.6850    7.4510 C   0  0  0  0  0  0  0  0  0  0  0  0
  -24.5900  -22.6380    6.7920 C   0  0  0  0  0  3  0  0  0  0  0  0
  -23.9870  -21.9600    5.7100 C   0  0  0  0  0  3  0  0  0  0  0  0
  -22.6890  -22.3240    5.2810 C   0  0  0  0  0  0  0  0  0  0  0  0
  -22.0230  -23.3800    5.9260 C   0  0  0  0  0  3  0  0  0  0  0  0
  -22.6260  -24.0570    6.9990 C   0  0  0  0  0  3  0  0  0  0  0  0
  -22.0340  -21.7390    4.2240 O   0  0  0  0  0  0  0  0  0  0  0  0
  -22.2980  -20.4480    3.8390 C   0  0  0  0  0  0  0  0  0  0  0  0
  -22.0750  -19.3550    4.7020 C   0  0  0  0  0  3  0  0  0  0  0  0
  -22.2930  -18.0400    4.2420 C   0  0  0  0  0  3  0  0  0  0  0  0
  -22.7240  -17.8170    2.9210 C   0  0  0  0  0  0  0  0  0  0  0  0
  -22.9430  -18.9070    2.0580 C   0  0  0  0  0  3  0  0  0  0  0  0
  -22.7270  -20.2190    2.5160 C   0  0  0  0  0  0  0  0  0  0  0  0
  -22.9180  -21.2630    1.6750 F   0  0  0  0  0  0  0  0  0  0  0  0
  -22.9270  -16.5550    2.4760 F   0  0  0  0  0  0  0  0  0  0  0  0
  -22.7400  -24.0830   10.5050 C   0  0  0  0  0  0  0  0  0  0  0  0
  -22.3900  -22.8340   10.2170 N   0  0  0  0  0  0  0  0  0  0  0  0
  -22.0610  -24.7750   11.2630 O   0  0  0  0  0  0  0  0  0  0  0  0
  -22.9570  -22.2580    9.6120 H   0  0  0  0  0  0  0  0  0  0  0  0
  -21.5430  -22.4470   10.6090 H   0  0  0  0  0  0  0  0  0  0  0  0
  -24.9820  -26.0030   11.7920 N   0  0  0  0  0  0  0  0  0  0  0  0
  -24.2560  -25.8620   12.4860 H   0  0  0  0  0  0  0  0  0  0  0  0
  -25.7080  -26.6380   12.1010 H   0  0  0  0  0  0  0  0  0  0  0  0
  -32.1830  -27.8970   22.5550 C   0  0  0  0  0  2  0  0  0  0  0  0
  -31.7150  -26.5460   23.1510 C   0  0  0  0  0  2  0  0  0  0  0  0
  -30.6780  -25.8690   22.3370 N   0  0  0  0  0  4  0  0  0  0  0  0
  -30.2680  -25.1450   22.9090 H   0  0  0  0  0  0  0  0  0  0  0  0
  -31.1320  -25.4060   21.5650 H   0  0  0  0  0  0  0  0  0  0  0  0
  -29.5970  -26.7470   21.8280 C   0  0  0  0  0  2  0  0  0  0  0  0
  -28.7510  -26.0550   20.7470 C   0  0  0  0  0  2  0  0  0  0  0  0
  -28.4680  -27.0210   19.7400 O   0  0  0  0  0  0  0  0  0  0  0  0
  -24.6480  -31.9400   23.1710 C   0  0  0  0  0  0  0  0  0  0  0  0
  -27.2770  -27.6860   19.8610 C   0  0  0  0  0  0  0  0  0  0  0  0
  -23.4250  -30.6010   21.4860 C   0  0  0  0  0  3  0  0  0  0  0  0
  -24.8650  -29.1330   19.9810 C   0  0  0  0  0  0  0  0  0  0  0  0
  -25.9390  -30.9960   21.2580 C   0  0  0  0  0  2  0  0  0  0  0  0
  -26.0240  -29.6530   20.5700 C   0  0  0  0  0  0  0  0  0  0  0  0
  -27.2360  -28.9360   20.5070 C   0  0  0  0  0  3  0  0  0  0  0  0
  -26.1050  -27.1630   19.2760 C   0  0  0  0  0  3  0  0  0  0  0  0
  -24.8970  -27.8820   19.3370 C   0  0  0  0  0  3  0  0  0  0  0  0
  -23.6170  -29.9780   20.0780 C   0  0  0  0  0  2  0  0  0  0  0  0
  -24.6900  -31.1920   22.0310 N   0  0  0  0  0  0  0  0  0  0  0  0
  -23.5750  -32.1800   23.7400 O   0  0  0  0  0  0  0  0  0  0  0  0
  -22.7980  -29.5330   22.4110 C   0  0  0  0  0  0  0  0  0  0  0  0
  -21.4780  -29.3270   22.2750 N   0  0  0  0  0  0  0  0  0  0  0  0
  -23.4950  -28.8940   23.2050 O   0  0  0  0  0  0  0  0  0  0  0  0
  -20.9780  -29.8960   21.6070 H   0  0  0  0  0  0  0  0  0  0  0  0
  -18.1140  -28.1310   22.8030 C   0  0  0  0  0  0  0  0  0  0  0  0
  -20.6790  -28.3460   23.0090 C   0  0  0  0  0  3  0  0  0  0  0  0
  -20.7510  -26.9560   22.3380 C   0  0  0  0  0  2  0  0  0  0  0  0
  -19.6140  -26.7130   21.3420 C   0  0  0  0  0  2  0  0  0  0  0  0
  -18.2540  -26.8280   22.0380 C   0  0  0  0  0  2  0  0  0  0  0  0
  -19.2540  -28.8520   23.2460 C   0  0  0  0  0  0  0  0  0  0  0  0
  -19.0680  -30.0770   23.9230 C   0  0  0  0  0  3  0  0  0  0  0  0
  -17.7740  -30.5780   24.1630 C   0  0  0  0  0  3  0  0  0  0  0  0
  -16.6480  -29.8520   23.7380 C   0  0  0  0  0  3  0  0  0  0  0  0
  -16.8190  -28.6310   23.0620 C   0  0  0  0  0  3  0  0  0  0  0  0
  -25.9420  -32.5470   23.7990 C   0  0  0  0  0  3  0  0  0  0  0  0
  -26.5600  -31.6520   24.9430 C   0  0  1  0  0  0  0  0  0  0  0  0
  -25.5240  -31.1880   25.9940 C   0  0  0  0  0  1  0  0  0  0  0  0
  -27.2310  -30.3930   24.3440 C   0  0  0  0  0  1  0  0  0  0  0  0
  -27.6690  -32.4390   25.6820 C   0  0  0  0  0  1  0  0  0  0  0  0
  -25.6010  -33.8830   24.3090 N   0  0  0  0  0  0  0  0  0  0  0  0
  -25.9410  -35.0330   23.7120 C   0  0  0  0  0  0  0  0  0  0  0  0
  -26.6460  -35.0800   22.7000 O   0  0  0  0  0  0  0  0  0  0  0  0
  -24.9780  -33.9200   25.1020 H   0  0  0  0  0  0  0  0  0  0  0  0
  -24.2140  -36.8470   23.5240 C   0  0  0  0  0  1  0  0  0  0  0  0
  -25.4150  -36.3380   24.3360 C   0  0  0  0  0  3  0  0  0  0  0  0
  -27.4920  -37.1020   25.4000 C   0  0  0  0  0  1  0  0  0  0  0  0
  -26.4420  -37.3980   24.4280 N   0  0  0  0  0  0  0  0  0  0  0  0
  -26.0200  -38.2880   24.6800 H   0  0  0  0  0  0  0  0  0  0  0  0
  1  3  2  0
  2  1  1  0
  4  2  1  0
  5  2  1  0
  6  5  1  0
  7  6  1  0
  8  7  1  0
  9  8  1  0
 10 11  1  0
 10  9  1  0
 11 12  1  0
 11 13  1  0
 14 15  1  0
 14 11  1  0
 16 15  1  0
 17 24  2  0
 17 25  1  0
 18 23  1  0
 19 20  1  0
 19 18  1  0
 21 20  1  0
 21 22  1  0
 22 23  1  0
 23 17  1  0
 25 16  1  0
 26 25  1  0
 27 52  1  0
 28 47  1  0
 28 27  2  0
 29 28  1  0
 30 21  1  0
 30 27  1  0
 31 29  2  0
 31 30  1  0
 32 29  1  0
 33 32  2  0
 34 33  1  0
 35 34  2  0
 35 36  1  0
 36 37  2  0
 37 32  1  0
 38 35  1  0
 39 38  1  0
 39 40  1  0
 41 40  2  0
 42 41  1  0
 43 44  1  0
 43 42  2  0
 44 39  2  0
 45 44  1  0
 46 42  1  0
 47 49  2  0
 48 47  1  0
 48 51  1  0
 50 48  1  0
 52 54  1  0
 52 53  1  0
 55  1  1  0
 55 56  1  0
 57 58  1  0
 57 56  1  0
 59 57  1  0
 60 57  1  0
 61 60  1  0
 62 64  1  0
 62 61  1  0
 63 74  2  0
 64 69  1  0
 65 73  1  0
 65 75  1  0
 66 72  1  0
 66 68  1  0
 67 73  1  0
 68 67  1  0
 69 68  2  0
 70 71  1  0
 70 64  2  0
 71 66  2  0
 72 65  1  0
 73 63  1  0
 75 77  2  0
 76 75  1  0
 78 76  1  0
 79 88  2  0
 79 84  1  0
 80 76  1  0
 80 84  1  0
 81 80  1  0
 82 83  1  0
 82 81  1  0
 83 79  1  0
 84 85  2  0
 85 86  1  0
 87 86  2  0
 88 87  1  0
 89 63  1  0
 89 94  1  0
 89 90  1  0
 90 93  1  1
 90 91  1  0
 92 90  1  0
 94 97  1  0
 95 94  1  0
 95 99  1  0
 96 95  2  0
 99 98  1  0
 99101  1  0
101102  1  0
101100  1  0
M  ISO  4  17 100  25 100  61 101  62 101
M  END
>  <TORSDO>  (79) 
F 31

>  <SCORE>  (79) 
-4.694

>  <name>  (79) 
79

>  <ligand_id>  (79) 
79

>  <original_smiles>  (79) 
[H]c1c([H])c([H])c2c(c1[H])C([H])([H])C([H])([H])C([H])([H])C2([H])N([H])C(=O)C1([H])N(C(=O)C([H])(N([H])C(=O)C([H])(N([H])C([H])([H])[H])C([H])([H])[H])C(C([H])([H])[H])(C([H])([H])[H])C([H])([H])[H])C([H])([H])c2c([H])c(OC([H])([H])C([H])([H])[N+]([H])([H])C([H])([H])C([H])([H])C(=O)N([H])C([H])([H])C([H])([H])C([H])([H])C([H])([H])C([H])([H])C([H])([H])[N+]([H])([H])C([H])([H])C([H])([H])C([H])([H])N([H])C(=O)N3C([H])([H])C([H])([H])C([H])([H])C([H])(n4nc(-c5c([H])c([H])c(Oc6c([H])c([H])c(F)c([H])c6F)c([H])c5[H])c(C(=O)N([H])[H])c4N([H])[H])C3([H])[H])c([H])c([H])c2C1([H])[H]

>  <smiles>  (79) 
[H]c1c([H])c([H])c2c(c1[H])C([H])([H])C([H])([H])C([H])([H])C2([H])N([H])C(=O)C1([H])N(C(=O)C([H])(N([H])C(=O)C([H])(N([H])C([H])([H])[H])C([H])([H])[H])C(C([H])([H])[H])(C([H])([H])[H])C([H])([H])[H])C([H])([H])c2c([H])c(OC([H])([H])C([H])([H])[N+]([H])([H])C([H])([H])C([H])([H])C(=O)N([H])C([H])([H])C([H])([H])C([H])([H])C([H])([H])C([H])([H])C([H])([H])[N+]([H])([H])C([H])([H])C([H])([H])C([H])([H])N([H])C(=O)N3C([H])([H])C([H])([H])C([H])([H])C([H])(n4nc(-c5c([H])c([H])c(Oc6c([H])c([H])c(F)c([H])c6F)c([H])c5[H])c(C(=O)N([H])[H])c4N([H])[H])C3([H])[H])c([H])c([H])c2C1([H])[H]

$$$$
80:0:0
     RDKit          3D

 93101  0  0  1  0  0  0  0  0999 V2000
  -32.2690  -20.8610   22.1350 C   0  0  0  0  0  2  0  0  0  0  0  0
  -30.2620  -21.2580   20.9000 C   0  0  0  0  0  2  0  0  0  0  0  0
  -32.0360  -19.3360   22.0850 C   0  0  0  0  0  2  0  0  0  0  0  0
  -30.0000  -19.7410   20.7890 C   0  0  0  0  0  2  0  0  0  0  0  0
  -31.6990  -21.5670   20.9800 N   0  0  0  0  0  0  0  0  0  0  0  0
  -30.5860  -19.0330   21.9570 N   0  0  1  0  0  4  0  0  0  0  0  0
  -30.1550  -19.4580   22.7650 H   0  0  0  0  0  0  0  0  0  0  0  0
  -31.9830  -23.0090   21.0730 C   0  0  0  0  0  2  0  0  0  0  0  0
  -31.5790  -23.8720   19.8630 C   0  0  0  0  0  2  0  0  0  0  0  0
  -30.2250  -24.2940   19.9930 O   0  0  0  0  0  0  0  0  0  0  0  0
  -29.8150  -25.1480   18.9310 C   0  0  0  0  0  2  0  0  0  0  0  0
  -28.3590  -25.6010   19.1300 C   0  0  0  0  0  2  0  0  0  0  0  0
  -28.2730  -26.7020   20.0420 O   0  0  0  0  0  0  0  0  0  0  0  0
  -24.5140  -31.8390   23.2480 C   0  0  0  0  0  0  0  0  0  0  0  0
  -27.0780  -27.3910   20.0950 C   0  0  0  0  0  0  0  0  0  0  0  0
  -23.2740  -30.4620   21.6100 C   0  0  0  0  0  3  0  0  0  0  0  0
  -24.6910  -28.9120   20.1700 C   0  0  0  0  0  0  0  0  0  0  0  0
  -25.8010  -30.7870   21.3910 C   0  0  0  0  0  2  0  0  0  0  0  0
  -25.8610  -29.4170   20.7510 C   0  0  0  0  0  0  0  0  0  0  0  0
  -27.0520  -28.6590   20.7200 C   0  0  0  0  0  3  0  0  0  0  0  0
  -25.8760  -26.8870   19.5390 C   0  0  0  0  0  3  0  0  0  0  0  0
  -24.6900  -27.6420   19.5730 C   0  0  0  0  0  3  0  0  0  0  0  0
  -23.4640  -29.7900   20.2250 C   0  0  0  0  0  2  0  0  0  0  0  0
  -24.5490  -31.0440   22.1420 N   0  0  0  0  0  0  0  0  0  0  0  0
  -23.4420  -32.1230   23.8000 O   0  0  0  0  0  0  0  0  0  0  0  0
  -22.6190  -29.4420   22.5690 C   0  0  0  0  0  0  0  0  0  0  0  0
  -21.2950  -29.2640   22.4380 N   0  0  0  0  0  0  0  0  0  0  0  0
  -23.3000  -28.8160   23.3870 O   0  0  0  0  0  0  0  0  0  0  0  0
  -20.8090  -29.8210   21.7500 H   0  0  0  0  0  0  0  0  0  0  0  0
  -17.9180  -28.0760   22.9180 C   0  0  0  0  0  0  0  0  0  0  0  0
  -20.4730  -28.3310   23.2080 C   0  0  0  0  0  3  0  0  0  0  0  0
  -20.5790  -26.8980   22.6400 C   0  0  0  0  0  2  0  0  0  0  0  0
  -19.4840  -26.5720   21.6190 C   0  0  0  0  0  2  0  0  0  0  0  0
  -18.0980  -26.7220   22.2520 C   0  0  0  0  0  2  0  0  0  0  0  0
  -19.0350  -28.8380   23.3530 C   0  0  0  0  0  0  0  0  0  0  0  0
  -18.8130  -30.1040   23.9360 C   0  0  0  0  0  3  0  0  0  0  0  0
  -17.5080  -30.6100   24.0870 C   0  0  0  0  0  3  0  0  0  0  0  0
  -16.4060  -29.8440   23.6690 C   0  0  0  0  0  3  0  0  0  0  0  0
  -16.6120  -28.5790   23.0900 C   0  0  0  0  0  3  0  0  0  0  0  0
  -25.8160  -32.4460   23.8590 C   0  0  0  0  0  3  0  0  0  0  0  0
  -25.5350  -33.8510   24.1840 N   0  0  0  0  0  0  0  0  0  0  0  0
  -25.8910  -34.8930   23.4210 C   0  0  0  0  0  0  0  0  0  0  0  0
  -26.5650  -34.7730   22.3950 O   0  0  0  0  0  0  0  0  0  0  0  0
  -24.9390  -34.0220   24.9800 H   0  0  0  0  0  0  0  0  0  0  0  0
  -24.2120  -36.7240   23.0390 C   0  0  0  0  0  1  0  0  0  0  0  0
  -25.4290  -36.2920   23.8720 C   0  0  0  0  0  3  0  0  0  0  0  0
  -27.5690  -37.1260   24.7430 C   0  0  0  0  0  1  0  0  0  0  0  0
  -26.4890  -37.3190   23.7780 N   0  0  0  0  0  0  0  0  0  0  0  0
  -26.1020  -38.2490   23.9200 H   0  0  0  0  0  0  0  0  0  0  0  0
  -26.3280  -31.6670   25.1320 C   0  0  1  0  0  0  0  0  0  0  0  0
  -25.2390  -31.4510   26.2060 C   0  0  0  0  0  1  0  0  0  0  0  0
  -26.8840  -30.2810   24.7340 C   0  0  0  0  0  1  0  0  0  0  0  0
  -27.4970  -32.4410   25.7870 C   0  0  0  0  0  1  0  0  0  0  0  0
  -30.2480  -17.5840   22.0630 C   0  0  0  0  0  2  0  0  0  0  0  0
  -30.5530  -16.7590   20.7930 C   0  0  0  0  0  2  0  0  0  0  0  0
  -30.8070  -14.3520   20.2670 C   0  0  0  0  0  0  0  0  0  0  0  0
  -30.3930  -12.2820   19.0040 C   0  0  0  0  0  2  0  0  0  0  0  0
  -29.4170  -12.5880   17.8500 C   0  0  0  0  0  2  0  0  0  0  0  0
  -27.9560  -12.4670   18.3240 C   0  0  0  0  0  2  0  0  0  0  0  0
  -27.6890  -13.2420   19.6430 C   0  0  0  0  0  3  0  0  0  0  0  0
  -28.7730  -12.9270   20.7000 C   0  0  0  0  0  2  0  0  0  0  0  0
  -30.0890  -13.2110   20.1040 N   0  0  0  0  0  0  0  0  0  0  0  0
  -31.8980  -14.5450   19.7270 O   0  0  0  0  0  0  0  0  0  0  0  0
  -30.1750  -15.3440   20.9130 N   0  0  0  0  0  0  0  0  0  0  0  0
  -29.2750  -15.1240   21.3150 H   0  0  0  0  0  0  0  0  0  0  0  0
  -25.3090  -13.8670   20.4080 C   0  0  0  0  0  0  0  0  0  0  0  0
  -24.2460  -13.1010   20.8040 C   0  0  0  0  0  0  0  0  0  0  0  0
  -24.6980  -11.7470   20.7610 C   0  0  0  0  0  0  0  0  0  0  0  0
  -26.3440  -12.9800   20.1510 N   0  0  0  0  0  0  0  0  0  0  0  0
  -25.9790  -11.7000   20.4200 N   0  0  0  0  0  0  0  0  0  0  0  0
  -23.9710  -10.4890   20.9710 C   0  0  0  0  0  0  0  0  0  0  0  0
  -24.4140   -9.5250   21.9040 C   0  0  0  0  0  3  0  0  0  0  0  0
  -23.6870   -8.3310   22.0990 C   0  0  0  0  0  3  0  0  0  0  0  0
  -22.5040   -8.0920   21.3610 C   0  0  0  0  0  0  0  0  0  0  0  0
  -22.0810   -9.0450   20.4180 C   0  0  0  0  0  3  0  0  0  0  0  0
  -22.8070  -10.2300   20.2210 C   0  0  0  0  0  3  0  0  0  0  0  0
  -21.7480   -6.9500   21.4660 O   0  0  0  0  0  0  0  0  0  0  0  0
  -21.7030   -6.2200   22.6280 C   0  0  0  0  0  0  0  0  0  0  0  0
  -21.2660   -6.7860   23.8460 C   0  0  0  0  0  3  0  0  0  0  0  0
  -21.1680   -5.9830   25.0000 C   0  0  0  0  0  3  0  0  0  0  0  0
  -21.4950   -4.6150   24.9360 C   0  0  0  0  0  0  0  0  0  0  0  0
  -21.9260   -4.0500   23.7230 C   0  0  0  0  0  3  0  0  0  0  0  0
  -22.0260   -4.8490   22.5720 C   0  0  0  0  0  0  0  0  0  0  0  0
  -22.4200   -4.2940   21.4010 F   0  0  0  0  0  0  0  0  0  0  0  0
  -21.3940   -3.8410   26.0420 F   0  0  0  0  0  0  0  0  0  0  0  0
  -22.8570  -13.5850   21.1120 C   0  0  0  0  0  0  0  0  0  0  0  0
  -22.1480  -12.8930   21.9960 N   0  0  0  0  0  0  0  0  0  0  0  0
  -22.4140  -14.6160   20.6050 O   0  0  0  0  0  0  0  0  0  0  0  0
  -22.5210  -12.0600   22.4280 H   0  0  0  0  0  0  0  0  0  0  0  0
  -21.2190  -13.2000   22.2450 H   0  0  0  0  0  0  0  0  0  0  0  0
  -25.4780  -15.2360   20.2260 N   0  0  0  0  0  0  0  0  0  0  0  0
  -24.7150  -15.8910   20.3500 H   0  0  0  0  0  0  0  0  0  0  0  0
  -26.3170  -15.6710   19.8620 H   0  0  0  0  0  0  0  0  0  0  0  0
  2  5  1  0
  3  1  1  0
  4  2  1  0
  4  6  1  0
  5  8  1  0
  5  1  1  0
  6 54  1  0
  6  3  1  0
  6  7  1  1
  9 10  1  0
  9  8  1  0
 11 12  1  0
 11 10  1  0
 12 13  1  0
 13 15  1  0
 14 25  2  0
 15 20  1  0
 16 24  1  0
 16 26  1  0
 17 23  1  0
 17 19  1  0
 18 24  1  0
 19 18  1  0
 20 19  2  0
 21 22  1  0
 21 15  2  0
 22 17  2  0
 23 16  1  0
 24 14  1  0
 26 28  2  0
 27 26  1  0
 29 27  1  0
 30 39  2  0
 30 35  1  0
 31 27  1  0
 31 35  1  0
 32 31  1  0
 33 34  1  0
 33 32  1  0
 34 30  1  0
 35 36  2  0
 36 37  1  0
 38 37  2  0
 39 38  1  0
 40 14  1  0
 40 41  1  0
 40 50  1  0
 41 44  1  0
 42 46  1  0
 42 41  1  0
 43 42  2  0
 46 45  1  0
 48 46  1  0
 48 49  1  0
 48 47  1  0
 50 53  1  1
 50 51  1  0
 52 50  1  0
 55 64  1  0
 55 54  1  0
 56 64  1  0
 57 62  1  0
 58 59  1  0
 58 57  1  0
 60 59  1  0
 60 69  1  0
 60 61  1  0
 62 56  1  0
 62 61  1  0
 63 56  2  0
 64 65  1  0
 66 67  2  0
 67 86  1  0
 68 67  1  0
 68 71  1  0
 69 66  1  0
 69 70  1  0
 70 68  2  0
 71 72  1  0
 72 73  2  0
 74 77  1  0
 74 73  1  0
 75 74  2  0
 76 75  1  0
 76 71  2  0
 77 78  1  0
 78 79  1  0
 79 80  2  0
 81 80  1  0
 81 85  1  0
 82 81  2  0
 83 78  2  0
 83 82  1  0
 84 83  1  0
 86 87  1  0
 87 90  1  0
 87 89  1  0
 88 86  2  0
 91 92  1  0
 91 66  1  0
 93 91  1  0
M  ISO  4  12 101  13 101  56 100  64 100
M  END
>  <TORSDO>  (80) 
F 23

>  <SCORE>  (80) 
-12.498

>  <name>  (80) 
80

>  <ligand_id>  (80) 
80

>  <original_smiles>  (80) 
[H]c1c([H])c([H])c2c(c1[H])C([H])([H])C([H])([H])C([H])([H])C2([H])N([H])C(=O)C1([H])N(C(=O)C([H])(N([H])C(=O)C([H])(N([H])C([H])([H])[H])C([H])([H])[H])C(C([H])([H])[H])(C([H])([H])[H])C([H])([H])[H])C([H])([H])c2c([H])c(OC([H])([H])C([H])([H])OC([H])([H])C([H])([H])N3C([H])([H])C([H])([H])[N+]([H])(C([H])([H])C([H])([H])N([H])C(=O)N4C([H])([H])C([H])([H])C([H])([H])C([H])(n5nc(-c6c([H])c([H])c(Oc7c([H])c([H])c(F)c([H])c7F)c([H])c6[H])c(C(=O)N([H])[H])c5N([H])[H])C4([H])[H])C([H])([H])C3([H])[H])c([H])c([H])c2C1([H])[H]

>  <smiles>  (80) 
[H]c1c([H])c([H])c2c(c1[H])C([H])([H])C([H])([H])C([H])([H])C2([H])N([H])C(=O)C1([H])N(C(=O)C([H])(N([H])C(=O)C([H])(N([H])C([H])([H])[H])C([H])([H])[H])C(C([H])([H])[H])(C([H])([H])[H])C([H])([H])[H])C([H])([H])c2c([H])c(OC([H])([H])C([H])([H])OC([H])([H])C([H])([H])N3C([H])([H])C([H])([H])[N+]([H])(C([H])([H])C([H])([H])N([H])C(=O)N4C([H])([H])C([H])([H])C([H])([H])C([H])(n5nc(-c6c([H])c([H])c(Oc7c([H])c([H])c(F)c([H])c7F)c([H])c6[H])c(C(=O)N([H])[H])c5N([H])[H])C4([H])[H])C([H])([H])C3([H])[H])c([H])c([H])c2C1([H])[H]

$$$$
81:0:0
     RDKit          3D

 90 97  0  0  1  0  0  0  0  0999 V2000
  -29.3290  -23.3200   21.1010 N   0  0  0  0  0  4  0  0  0  0  0  0
  -29.4590  -23.1770   22.0920 H   0  0  0  0  0  0  0  0  0  0  0  0
  -28.3670  -23.1050   20.9030 H   0  0  0  0  0  0  0  0  0  0  0  0
  -30.1670  -22.3330   20.3850 C   0  0  0  0  0  2  0  0  0  0  0  0
  -29.3810  -21.0380   20.0790 C   0  0  0  0  0  2  0  0  0  0  0  0
  -29.0720  -20.1340   21.2970 C   0  0  0  0  0  2  0  0  0  0  0  0
  -30.1360  -19.0590   21.5940 C   0  0  0  0  0  2  0  0  0  0  0  0
  -29.8630  -17.7070   20.9020 C   0  0  0  0  0  2  0  0  0  0  0  0
  -30.9370  -16.6490   21.2180 C   0  0  0  0  0  2  0  0  0  0  0  0
  -31.0100  -14.3820   20.1160 C   0  0  0  0  0  0  0  0  0  0  0  0
  -30.6300  -12.2350   18.9580 C   0  0  0  0  0  2  0  0  0  0  0  0
  -29.6590  -12.4560   17.7810 C   0  0  0  0  0  2  0  0  0  0  0  0
  -28.2000  -12.3210   18.2530 C   0  0  0  0  0  2  0  0  0  0  0  0
  -27.9050  -13.2000   19.4980 C   0  0  0  0  0  3  0  0  0  0  0  0
  -28.9720  -12.9750   20.5890 C   0  0  0  0  0  2  0  0  0  0  0  0
  -30.3010  -13.2290   19.9940 N   0  0  0  0  0  0  0  0  0  0  0  0
  -32.0610  -14.5990   19.5040 O   0  0  0  0  0  0  0  0  0  0  0  0
  -30.4580  -15.2970   20.9230 N   0  0  0  0  0  0  0  0  0  0  0  0
  -29.6070  -15.0150   21.3810 H   0  0  0  0  0  0  0  0  0  0  0  0
  -25.5340  -13.8880   20.2380 C   0  0  0  0  0  0  0  0  0  0  0  0
  -24.4540  -13.1520   20.6450 C   0  0  0  0  0  0  0  0  0  0  0  0
  -24.8810  -11.7890   20.6340 C   0  0  0  0  0  0  0  0  0  0  0  0
  -26.5550  -12.9750   20.0070 N   0  0  0  0  0  0  0  0  0  0  0  0
  -26.1630  -11.7070   20.3020 N   0  0  0  0  0  0  0  0  0  0  0  0
  -24.1290  -10.5490   20.8690 C   0  0  0  0  0  0  0  0  0  0  0  0
  -24.5520   -9.5970   21.8240 C   0  0  0  0  0  3  0  0  0  0  0  0
  -23.8030   -8.4190   22.0400 C   0  0  0  0  0  3  0  0  0  0  0  0
  -22.6210   -8.1850   21.3000 C   0  0  0  0  0  0  0  0  0  0  0  0
  -22.2180   -9.1230   20.3340 C   0  0  0  0  0  3  0  0  0  0  0  0
  -22.9650  -10.2900   20.1160 C   0  0  0  0  0  3  0  0  0  0  0  0
  -21.8430   -7.0580   21.4250 O   0  0  0  0  0  0  0  0  0  0  0  0
  -21.7760   -6.3590   22.6040 C   0  0  0  0  0  0  0  0  0  0  0  0
  -21.3680   -6.9690   23.8100 C   0  0  0  0  0  3  0  0  0  0  0  0
  -21.2430   -6.1970   24.9830 C   0  0  0  0  0  3  0  0  0  0  0  0
  -21.5190   -4.8160   24.9500 C   0  0  0  0  0  0  0  0  0  0  0  0
  -21.9180   -4.2060   23.7490 C   0  0  0  0  0  3  0  0  0  0  0  0
  -22.0430   -4.9750   22.5790 C   0  0  0  0  0  0  0  0  0  0  0  0
  -22.4110   -4.3770   21.4190 F   0  0  0  0  0  0  0  0  0  0  0  0
  -21.3910   -4.0740   26.0750 F   0  0  0  0  0  0  0  0  0  0  0  0
  -23.0770  -13.6680   20.9430 C   0  0  0  0  0  0  0  0  0  0  0  0
  -22.3570  -13.0080   21.8430 N   0  0  0  0  0  0  0  0  0  0  0  0
  -22.6490  -14.6910   20.4110 O   0  0  0  0  0  0  0  0  0  0  0  0
  -22.7170  -12.1790   22.2930 H   0  0  0  0  0  0  0  0  0  0  0  0
  -21.4320  -13.3330   22.0900 H   0  0  0  0  0  0  0  0  0  0  0  0
  -25.7350  -15.2500   20.0290 N   0  0  0  0  0  0  0  0  0  0  0  0
  -24.9960  -15.9380   20.1220 H   0  0  0  0  0  0  0  0  0  0  0  0
  -26.6060  -15.6480   19.6980 H   0  0  0  0  0  0  0  0  0  0  0  0
  -29.5590  -24.7530   20.7800 C   0  0  0  0  0  2  0  0  0  0  0  0
  -28.2890  -25.3970   20.2060 C   0  0  0  0  0  2  0  0  0  0  0  0
  -28.4080  -26.8210   20.1940 O   0  0  0  0  0  0  0  0  0  0  0  0
  -24.5540  -31.9390   23.2550 C   0  0  0  0  0  0  0  0  0  0  0  0
  -27.2200  -27.5190   20.1750 C   0  0  0  0  0  0  0  0  0  0  0  0
  -23.3510  -30.5250   21.6200 C   0  0  0  0  0  3  0  0  0  0  0  0
  -24.8120  -28.9950   20.1960 C   0  0  0  0  0  0  0  0  0  0  0  0
  -25.8740  -30.9000   21.4190 C   0  0  0  0  0  2  0  0  0  0  0  0
  -25.9660  -29.5320   20.7780 C   0  0  0  0  0  0  0  0  0  0  0  0
  -27.1700  -28.8000   20.7650 C   0  0  0  0  0  3  0  0  0  0  0  0
  -26.0440  -26.9950   19.5830 C   0  0  0  0  0  3  0  0  0  0  0  0
  -24.8410  -27.7270   19.5960 C   0  0  0  0  0  3  0  0  0  0  0  0
  -23.5630  -29.8460   20.2420 C   0  0  0  0  0  2  0  0  0  0  0  0
  -24.6110  -31.1350   22.1570 N   0  0  0  0  0  0  0  0  0  0  0  0
  -23.4710  -32.2100   23.7930 O   0  0  0  0  0  0  0  0  0  0  0  0
  -22.7100  -29.5000   22.5830 C   0  0  0  0  0  0  0  0  0  0  0  0
  -21.3860  -29.3120   22.4610 N   0  0  0  0  0  0  0  0  0  0  0  0
  -23.3990  -28.8790   23.3970 O   0  0  0  0  0  0  0  0  0  0  0  0
  -20.8910  -29.8650   21.7750 H   0  0  0  0  0  0  0  0  0  0  0  0
  -18.0200  -28.1080   22.9550 C   0  0  0  0  0  0  0  0  0  0  0  0
  -20.5760  -28.3770   23.2360 C   0  0  0  0  0  3  0  0  0  0  0  0
  -20.6860  -26.9430   22.6710 C   0  0  0  0  0  2  0  0  0  0  0  0
  -19.5920  -26.6120   21.6510 C   0  0  0  0  0  2  0  0  0  0  0  0
  -18.2040  -26.7580   22.2830 C   0  0  0  0  0  2  0  0  0  0  0  0
  -19.1350  -28.8740   23.3880 C   0  0  0  0  0  0  0  0  0  0  0  0
  -18.9110  -30.1400   23.9750 C   0  0  0  0  0  3  0  0  0  0  0  0
  -17.6050  -30.6380   24.1320 C   0  0  0  0  0  3  0  0  0  0  0  0
  -16.5050  -29.8700   23.7170 C   0  0  0  0  0  3  0  0  0  0  0  0
  -16.7130  -28.6060   23.1340 C   0  0  0  0  0  3  0  0  0  0  0  0
  -25.8380  -32.5780   23.8690 C   0  0  0  0  0  3  0  0  0  0  0  0
  -26.3680  -31.8110   25.1430 C   0  0  1  0  0  0  0  0  0  0  0  0
  -25.2810  -31.5690   26.2150 C   0  0  0  0  0  1  0  0  0  0  0  0
  -26.9580  -30.4370   24.7480 C   0  0  0  0  0  1  0  0  0  0  0  0
  -27.5160  -32.6150   25.7970 C   0  0  0  0  0  1  0  0  0  0  0  0
  -25.5230  -33.9760   24.1940 N   0  0  0  0  0  0  0  0  0  0  0  0
  -25.8600  -35.0270   23.4360 C   0  0  0  0  0  0  0  0  0  0  0  0
  -26.5360  -34.9220   22.4090 O   0  0  0  0  0  0  0  0  0  0  0  0
  -24.9210  -34.1310   24.9900 H   0  0  0  0  0  0  0  0  0  0  0  0
  -24.1300  -36.8150   23.0590 C   0  0  0  0  0  1  0  0  0  0  0  0
  -25.3620  -36.4120   23.8860 C   0  0  0  0  0  3  0  0  0  0  0  0
  -27.4860  -37.3020   24.7400 C   0  0  0  0  0  1  0  0  0  0  0  0
  -26.3930  -37.4690   23.7860 N   0  0  0  0  0  0  0  0  0  0  0  0
  -25.9850  -38.3880   23.9260 H   0  0  0  0  0  0  0  0  0  0  0  0
  1  2  1  0
  3  1  1  0
  4  1  1  0
  5  4  1  0
  5  6  1  0
  6  7  1  0
  8  9  1  0
  8  7  1  0
 10 18  1  0
 11 16  1  0
 12 13  1  0
 12 11  1  0
 14 13  1  0
 14 23  1  0
 14 15  1  0
 16 10  1  0
 16 15  1  0
 17 10  2  0
 18  9  1  0
 18 19  1  0
 20 21  2  0
 21 40  1  0
 22 21  1  0
 22 25  1  0
 23 20  1  0
 23 24  1  0
 24 22  2  0
 25 26  1  0
 26 27  2  0
 28 31  1  0
 28 27  1  0
 29 28  2  0
 30 29  1  0
 30 25  2  0
 31 32  1  0
 32 33  1  0
 33 34  2  0
 35 34  1  0
 35 39  1  0
 36 35  2  0
 37 32  2  0
 37 36  1  0
 38 37  1  0
 40 41  1  0
 41 44  1  0
 41 43  1  0
 42 40  2  0
 45 46  1  0
 45 20  1  0
 47 45  1  0
 48  1  1  0
 49 48  1  0
 50 49  1  0
 51 62  2  0
 52 50  1  0
 52 57  1  0
 53 61  1  0
 53 63  1  0
 54 60  1  0
 54 56  1  0
 55 61  1  0
 56 55  1  0
 57 56  2  0
 58 59  1  0
 58 52  2  0
 59 54  2  0
 60 53  1  0
 61 51  1  0
 63 65  2  0
 64 63  1  0
 66 64  1  0
 67 76  2  0
 67 72  1  0
 68 64  1  0
 68 72  1  0
 69 68  1  0
 70 71  1  0
 70 69  1  0
 71 67  1  0
 72 73  2  0
 73 74  1  0
 75 74  2  0
 76 75  1  0
 77 51  1  0
 77 82  1  0
 77 78  1  0
 78 81  1  1
 78 79  1  0
 80 78  1  0
 82 85  1  0
 83 87  1  0
 83 82  1  0
 84 83  2  0
 87 86  1  0
 89 87  1  0
 89 90  1  0
 89 88  1  0
M  ISO  4  10 100  18 100  49 101  50 101
M  END
>  <TORSDO>  (81) 
F 24

>  <SCORE>  (81) 
-11.828

>  <name>  (81) 
81

>  <ligand_id>  (81) 
81

>  <original_smiles>  (81) 
[H]c1c([H])c([H])c2c(c1[H])C([H])([H])C([H])([H])C([H])([H])C2([H])N([H])C(=O)C1([H])N(C(=O)C([H])(N([H])C(=O)C([H])(N([H])C([H])([H])[H])C([H])([H])[H])C(C([H])([H])[H])(C([H])([H])[H])C([H])([H])[H])C([H])([H])c2c([H])c(OC([H])([H])C([H])([H])[N+]([H])([H])C([H])([H])C([H])([H])C([H])([H])C([H])([H])C([H])([H])C([H])([H])N([H])C(=O)N3C([H])([H])C([H])([H])C([H])([H])C([H])(n4nc(-c5c([H])c([H])c(Oc6c([H])c([H])c(F)c([H])c6F)c([H])c5[H])c(C(=O)N([H])[H])c4N([H])[H])C3([H])[H])c([H])c([H])c2C1([H])[H]

>  <smiles>  (81) 
[H]c1c([H])c([H])c2c(c1[H])C([H])([H])C([H])([H])C([H])([H])C2([H])N([H])C(=O)C1([H])N(C(=O)C([H])(N([H])C(=O)C([H])(N([H])C([H])([H])[H])C([H])([H])[H])C(C([H])([H])[H])(C([H])([H])[H])C([H])([H])[H])C([H])([H])c2c([H])c(OC([H])([H])C([H])([H])[N+]([H])([H])C([H])([H])C([H])([H])C([H])([H])C([H])([H])C([H])([H])C([H])([H])N([H])C(=O)N3C([H])([H])C([H])([H])C([H])([H])C([H])(n4nc(-c5c([H])c([H])c(Oc6c([H])c([H])c(F)c([H])c6F)c([H])c5[H])c(C(=O)N([H])[H])c4N([H])[H])C3([H])[H])c([H])c([H])c2C1([H])[H]

$$$$
82:0:0
     RDKit          3D

 95 96  0  0  1  0  0  0  0  0999 V2000
  -18.9650  -29.3390   21.3200 C   0  0  0  0  0  0  0  0  0  0  0  0
  -18.0170  -30.4850   21.5230 C   0  0  0  0  0  1  0  0  0  0  0  0
  -19.7980  -29.6140   20.1430 N   0  0  0  0  0  0  0  0  0  0  0  0
  -18.7170  -28.3520   22.3480 N   0  0  0  0  0  0  0  0  0  0  0  0
  -19.5470  -30.5410   19.8210 H   0  0  0  0  0  0  0  0  0  0  0  0
  -17.9930  -28.4950   23.0370 H   0  0  0  0  0  0  0  0  0  0  0  0
  -20.5180  -25.8090   22.9140 C   0  0  0  0  0 15  0  0  0  0  0  0
  -22.6040  -25.0740   22.0710 C   0  0  0  0  0  1  0  0  0  0  0  0
  -24.9360  -25.0170   21.7330 C   0  0  0  0  0 15  0  0  0  0  0  0
  -26.9320  -24.8180   20.5440 C   0  0  0  0  0 15  0  0  0  0  0  0
  -29.2250  -24.4950   20.3010 C   0  0  0  0  0 15  0  0  0  0  0  0
  -31.2630  -24.6010   19.1790 C   0  0  0  0  0 15  0  0  0  0  0  0
  -34.9830  -24.2160   18.4270 C   0  0  0  0  0  0  0  0  0  0  0  0
  -37.3480  -24.6470   16.8160 C   0  0  0  0  0  2  0  0  0  0  0  0
  -37.5570  -25.8830   15.8420 C   0  0  0  0  0  2  0  0  0  0  0  0
  -36.5950  -25.8100   14.6530 C   0  0  0  0  0  2  0  0  0  0  0  0
  -35.2890  -25.1980   15.1760 C   0  0  0  0  0  3  0  0  0  0  0  0
  -35.4460  -23.8430   15.8490 C   0  0  0  0  0  2  0  0  0  0  0  0
  -35.8260  -24.2580   17.1590 N   0  0  0  0  0  0  0  0  0  0  0  0
  -36.0350  -24.1480   19.1730 O   0  0  0  0  0  0  0  0  0  0  0  0
  -33.2950  -24.2040   18.9760 N   0  0  0  0  0  2  0  0  0  0  0  0
  -33.4840  -23.8760   19.9160 H   0  0  0  0  0  0  0  0  0  0  0  0
  -32.9420  -25.4500   14.4620 C   0  0  0  0  0  0  0  0  0  0  0  0
  -32.2960  -25.0760   13.3300 C   0  0  0  0  0  0  0  0  0  0  0  0
  -33.2650  -24.4030   12.5220 C   0  0  0  0  0  0  0  0  0  0  0  0
  -34.2390  -25.0440   14.2570 N   0  0  0  0  0  0  0  0  0  0  0  0
  -34.4290  -24.3260   13.1380 N   0  0  0  0  0  0  0  0  0  0  0  0
  -33.1800  -23.9010   11.1600 C   0  0  0  0  0  0  0  0  0  0  0  0
  -33.4770  -22.5580   10.8450 C   0  0  0  0  0  3  0  0  0  0  0  0
  -33.3700  -22.1060    9.5150 C   0  0  0  0  0  3  0  0  0  0  0  0
  -32.9630  -23.0010    8.4960 C   0  0  0  0  0  0  0  0  0  0  0  0
  -32.6990  -24.3430    8.8160 C   0  0  0  0  0  3  0  0  0  0  0  0
  -32.8110  -24.7950   10.1370 C   0  0  0  0  0  3  0  0  0  0  0  0
  -32.8490  -22.6570    7.1730 O   0  0  0  0  0  0  0  0  0  0  0  0
  -32.5120  -21.3850    6.7920 C   0  0  0  0  0  0  0  0  0  0  0  0
  -31.2970  -20.7830    7.1870 C   0  0  0  0  0  3  0  0  0  0  0  0
  -30.9600  -19.5010    6.7110 C   0  0  0  0  0  3  0  0  0  0  0  0
  -31.8310  -18.8250    5.8360 C   0  0  0  0  0  0  0  0  0  0  0  0
  -33.0390  -19.4240    5.4390 C   0  0  0  0  0  3  0  0  0  0  0  0
  -33.3770  -20.7020    5.9150 C   0  0  0  0  0  0  0  0  0  0  0  0
  -34.5330  -21.2860    5.5140 F   0  0  0  0  0  0  0  0  0  0  0  0
  -31.5050  -17.5960    5.3710 F   0  0  0  0  0  0  0  0  0  0  0  0
  -30.8860  -25.4270   12.9840 C   0  0  0  0  0  0  0  0  0  0  0  0
  -30.2230  -24.5840   12.2040 N   0  0  0  0  0  0  0  0  0  0  0  0
  -30.3520  -26.4300   13.4510 O   0  0  0  0  0  0  0  0  0  0  0  0
  -30.6660  -23.7530   11.8400 H   0  0  0  0  0  0  0  0  0  0  0  0
  -29.2610  -24.7750   11.9660 H   0  0  0  0  0  0  0  0  0  0  0  0
  -32.5470  -26.1110   15.6250 N   0  0  0  0  0  0  0  0  0  0  0  0
  -31.6080  -26.4750   15.7170 H   0  0  0  0  0  0  0  0  0  0  0  0
  -33.1460  -26.3580   16.4020 H   0  0  0  0  0  0  0  0  0  0  0  0
  -20.7830  -29.0860   18.9860 C   0  0  0  0  0  2  0  0  0  0  0  0
  -22.4990  -29.0990   18.8610 C   0  0  0  0  0  2  0  0  0  0  0  0
  -23.7870  -28.2980   18.0620 C   0  0  0  0  0  2  0  0  0  0  0  0
  -25.1190  -27.4790   18.8310 C   0  0  0  0  0  2  0  0  0  0  0  0
  -26.6730  -27.8010   19.0960 O   0  0  0  0  0  0  0  0  0  0  0  0
  -23.5340  -27.3000   24.8260 C   0  0  0  0  0  0  0  0  0  0  0  0
  -26.9010  -28.7280   20.0440 C   0  0  0  0  0  3  0  0  0  0  0  0
  -22.7870  -28.3360   22.7720 C   0  0  0  0  0  3  0  0  0  0  0  0
  -24.5680  -29.4390   21.2840 C   0  0  0  0  0  3  0  0  0  0  0  0
  -25.2140  -28.5700   23.4870 C   0  0  0  0  0  2  0  0  0  0  0  0
  -25.5350  -28.7770   22.0280 C   0  0  0  0  0  0  0  0  0  0  0  0
  -26.7440  -28.3840   21.4100 C   0  0  0  0  0  3  0  0  0  0  0  0
  -26.2020  -29.7860   19.5150 C   0  0  0  0  0  3  0  0  0  0  0  0
  -24.9620  -30.0590   20.0900 C   0  0  0  0  0  3  0  0  0  0  0  0
  -23.2040  -29.5840   21.9400 C   0  0  0  0  0  2  0  0  0  0  0  0
  -23.8510  -28.0500   23.7470 N   0  0  0  0  0  0  0  0  0  0  0  0
  -22.3890  -26.8650   25.0150 O   0  0  0  0  0  0  0  0  0  0  0  0
  -22.5140  -27.0480   21.9740 C   0  0  0  0  0  3  0  0  0  0  0  0
  -21.5170  -27.1010   21.1330 N   0  0  0  0  0  0  0  0  0  0  0  0
  -23.2040  -26.0300   22.0650 O   0  0  0  0  0  0  0  0  0  0  0  0
  -20.9370  -27.9220   21.0350 H   0  0  0  0  0  0  0  0  0  0  0  0
  -19.3840  -26.5650   18.1450 C   0  0  0  0  0  0  0  0  0  0  0  0
  -21.3430  -26.0810   20.1680 C   0  0  0  0  0  0  0  0  0  0  0  0
  -22.0790  -26.0360   18.8700 C   0  0  0  0  0  3  0  0  0  0  0  0
  -21.5660  -26.4590   17.4050 C   0  0  0  0  0  3  0  0  0  0  0  0
  -20.1240  -26.6700   16.9760 C   0  0  0  0  0  3  0  0  0  0  0  0
  -20.0940  -26.2850   19.8300 C   0  0  0  0  0  0  0  0  0  0  0  0
  -19.0570  -25.6320   21.0350 C   0  0  0  0  0  3  0  0  0  0  0  0
  -17.5060  -25.2850   20.6830 C   0  0  0  0  0  3  0  0  0  0  0  0
  -16.8650  -25.5100   19.2170 C   0  0  0  0  0  3  0  0  0  0  0  0
  -17.7250  -26.1100   17.9420 C   0  0  0  0  0  3  0  0  0  0  0  0
  -24.6200  -26.9990   25.8800 C   0  0  0  0  0  3  0  0  0  0  0  0
  -25.3740  -25.6450   25.6120 C   0  0  1  0  0  0  0  0  0  0  0  0
  -24.4320  -24.4430   25.3740 C   0  0  0  0  0  1  0  0  0  0  0  0
  -26.3060  -25.7500   24.3800 C   0  0  0  0  0  1  0  0  0  0  0  0
  -26.2750  -25.3300   26.8250 C   0  0  0  0  0  1  0  0  0  0  0  0
  -23.9430  -26.9990   27.1780 N   0  0  0  0  0  0  0  0  0  0  0  0
  -23.9580  -28.0280   28.0330 C   0  0  0  0  0  0  0  0  0  0  0  0
  -24.6230  -29.0490   27.8430 O   0  0  0  0  0  0  0  0  0  0  0  0
  -23.3350  -26.2170   27.3740 H   0  0  0  0  0  0  0  0  0  0  0  0
  -21.8200  -28.7210   29.1600 C   0  0  0  0  0  1  0  0  0  0  0  0
  -23.1050  -27.8930   29.3060 C   0  0  0  0  0  3  0  0  0  0  0  0
  -24.9220  -27.3910   30.8760 C   0  0  0  0  0  1  0  0  0  0  0  0
  -23.8240  -28.2910   30.5340 N   0  0  0  0  0  0  0  0  0  0  0  0
  -23.1880  -28.3320   31.3260 H   0  0  0  0  0  0  0  0  0  0  0  0
  1  2  1  0
  1  4  2  0
  3  1  1  0
  4  6  1  0
  5  3  1  0
 13 21  1  0
 13 20  2  0
 14 19  1  0
 15 14  1  0
 16 17  1  0
 16 15  1  0
 17 26  1  0
 17 18  1  0
 18 19  1  0
 19 13  1  0
 21 22  1  0
 23 48  1  0
 24 23  2  0
 25 27  2  0
 25 24  1  0
 26 23  1  0
 27 26  1  0
 28 25  1  0
 29 28  1  0
 30 29  2  0
 31 32  2  0
 31 30  1  0
 32 33  1  0
 33 28  2  0
 34 31  1  0
 35 34  1  0
 35 36  1  0
 37 36  2  0
 38 37  1  0
 39 38  2  0
 39 40  1  0
 40 35  2  0
 41 40  1  0
 42 38  1  0
 43 24  1  0
 43 45  2  0
 44 43  1  0
 46 44  1  0
 47 44  1  0
 48 49  1  0
 48 50  1  0
 51  3  1  0
 52 51  1  0
 53 54  1  0
 53 52  1  0
 54 55  1  0
 56 67  2  0
 57 55  1  0
 57 62  1  0
 58 68  1  0
 58 66  1  0
 59 64  1  0
 59 65  1  0
 59 61  1  0
 60 66  1  0
 61 60  1  0
 62 61  2  0
 63 57  1  0
 63 64  2  0
 65 58  1  0
 66 56  1  0
 68 70  1  0
 69 68  1  0
 70  8  1  0
 71 69  1  0
 72 77  1  0
 73 69  1  0
 74 73  2  0
 75 74  1  0
 76 75  2  0
 76 72  1  0
 77 73  1  0
 77 78  2  0
 79 78  1  0
 80 79  2  0
 81 72  2  0
 81 80  1  0
 82 56  1  0
 82 87  1  0
 83 82  1  0
 83 86  1  1
 84 83  1  0
 85 83  1  0
 87 90  1  0
 87 88  1  0
 88 92  1  0
 89 88  2  0
 92 91  1  0
 92 94  1  0
 94 93  1  0
 94 95  1  0
M  ISO  4  13 100  21 100  54 101  55 101
M  END
>  <TORSDO>  (82) 
F 26

>  <SCORE>  (82) 
14.596

>  <name>  (82) 
82

>  <ligand_id>  (82) 
82

>  <original_smiles>  (82) 
[H]c1c([H])c([H])c2c(c1[H])C([H])([H])C([H])([H])C([H])([H])C2([H])N([H])C(=O)C1([H])N(C(=O)C([H])(N([H])C(=O)C([H])(N([H])C([H])([H])[H])C([H])([H])[H])C(C([H])([H])[H])(C([H])([H])[H])C([H])([H])[H])C([H])([H])c2c([H])c(OC([H])([H])C([H])([H])C([H])([H])C([H])([H])N([H])C(=[N+]([H])C([H])([H])C([H])([H])C([H])([H])C([H])([H])C([H])([H])C([H])([H])N([H])C(=O)N3C([H])([H])C([H])([H])C([H])([H])C([H])(n4nc(-c5c([H])c([H])c(Oc6c([H])c([H])c(F)c([H])c6F)c([H])c5[H])c(C(=O)N([H])[H])c4N([H])[H])C3([H])[H])C([H])([H])[H])c([H])c([H])c2C1([H])[H]

>  <smiles>  (82) 
[H]c1c([H])c([H])c2c(c1[H])C([H])([H])C([H])([H])C([H])([H])C2([H])N([H])C(=O)C1([H])N(C(=O)C([H])(N([H])C(=O)C([H])(N([H])C([H])([H])[H])C([H])([H])[H])C(C([H])([H])[H])(C([H])([H])[H])C([H])([H])[H])C([H])([H])c2c([H])c(OC([H])([H])C([H])([H])C([H])([H])C([H])([H])N([H])C(=[N+]([H])C([H])([H])C([H])([H])C([H])([H])C([H])([H])C([H])([H])C([H])([H])N([H])C(=O)N3C([H])([H])C([H])([H])C([H])([H])C([H])(n4nc(-c5c([H])c([H])c(Oc6c([H])c([H])c(F)c([H])c6F)c([H])c5[H])c(C(=O)N([H])[H])c4N([H])[H])C3([H])[H])C([H])([H])[H])c([H])c([H])c2C1([H])[H]

$$$$
83:0:0
     RDKit          3D

103110  0  0  1  0  0  0  0  0999 V2000
  -32.1560  -24.3320   20.4250 C   0  0  0  0  0  0  0  0  0  0  0  0
  -31.5200  -23.7630   21.4580 N   0  0  0  0  0  0  0  0  0  0  0  0
  -31.8150  -24.1780   19.2540 O   0  0  0  0  0  0  0  0  0  0  0  0
  -31.9100  -23.9290   22.3790 H   0  0  0  0  0  0  0  0  0  0  0  0
  -30.2240  -23.0770   21.4490 C   0  0  0  0  0  2  0  0  0  0  0  0
  -30.0730  -21.9540   20.4040 C   0  0  0  0  0  2  0  0  0  0  0  0
  -28.7760  -21.1580   20.6170 C   0  0  0  0  0  2  0  0  0  0  0  0
  -28.4410  -20.2000   19.4540 C   0  0  0  0  0  2  0  0  0  0  0  0
  -27.7370  -18.9080   19.9090 C   0  0  0  0  0  2  0  0  0  0  0  0
  -29.5630  -17.2800   20.3330 C   0  0  0  0  0  0  0  0  0  0  0  0
  -28.6140  -18.1140   20.7670 N   0  0  0  0  0  0  0  0  0  0  0  0
  -29.7340  -17.0340   19.1390 O   0  0  0  0  0  0  0  0  0  0  0  0
  -28.5170  -18.2360   21.7660 H   0  0  0  0  0  0  0  0  0  0  0  0
  -30.4470  -16.6220   21.3960 C   0  0  0  0  0  2  0  0  0  0  0  0
  -30.7900  -14.3260   20.5220 C   0  0  0  0  0  0  0  0  0  0  0  0
  -30.4550  -12.2150   19.3010 C   0  0  0  0  0  2  0  0  0  0  0  0
  -29.5330  -12.4540   18.0900 C   0  0  0  0  0  2  0  0  0  0  0  0
  -28.0490  -12.3460   18.4960 C   0  0  0  0  0  2  0  0  0  0  0  0
  -27.7150  -13.1840   19.7600 C   0  0  0  0  0  3  0  0  0  0  0  0
  -28.7420  -12.9040   20.8800 C   0  0  0  0  0  2  0  0  0  0  0  0
  -30.0920  -13.1770   20.3460 N   0  0  0  0  0  0  0  0  0  0  0  0
  -31.8390  -14.5930   19.9250 O   0  0  0  0  0  0  0  0  0  0  0  0
  -30.2200  -15.1850   21.3700 N   0  0  0  0  0  0  0  0  0  0  0  0
  -29.3810  -14.8580   21.8250 H   0  0  0  0  0  0  0  0  0  0  0  0
  -25.3060  -13.8460   20.4070 C   0  0  0  0  0  0  0  0  0  0  0  0
  -24.2210  -13.0980   20.7790 C   0  0  0  0  0  0  0  0  0  0  0  0
  -24.6630  -11.7400   20.7840 C   0  0  0  0  0  0  0  0  0  0  0  0
  -26.3440  -12.9450   20.2140 N   0  0  0  0  0  0  0  0  0  0  0  0
  -25.9560  -11.6750   20.4930 N   0  0  0  0  0  0  0  0  0  0  0  0
  -23.9160  -10.4940   20.9940 C   0  0  0  0  0  0  0  0  0  0  0  0
  -24.3410   -9.5260   21.9320 C   0  0  0  0  0  3  0  0  0  0  0  0
  -23.5980   -8.3420   22.1270 C   0  0  0  0  0  3  0  0  0  0  0  0
  -22.4140   -8.1180   21.3830 C   0  0  0  0  0  0  0  0  0  0  0  0
  -22.0090   -9.0730   20.4330 C   0  0  0  0  0  3  0  0  0  0  0  0
  -22.7530  -10.2480   20.2370 C   0  0  0  0  0  3  0  0  0  0  0  0
  -21.6410   -6.9880   21.4890 O   0  0  0  0  0  0  0  0  0  0  0  0
  -21.6100   -6.2410   22.6400 C   0  0  0  0  0  0  0  0  0  0  0  0
  -21.2530   -6.8030   23.8840 C   0  0  0  0  0  3  0  0  0  0  0  0
  -21.1660   -5.9830   25.0280 C   0  0  0  0  0  3  0  0  0  0  0  0
  -21.4250   -4.6030   24.9260 C   0  0  0  0  0  0  0  0  0  0  0  0
  -21.7740   -4.0410   23.6860 C   0  0  0  0  0  3  0  0  0  0  0  0
  -21.8640   -4.8570   22.5450 C   0  0  0  0  0  0  0  0  0  0  0  0
  -22.1800   -4.3060   21.3490 F   0  0  0  0  0  0  0  0  0  0  0  0
  -21.3330   -3.8140   26.0220 F   0  0  0  0  0  0  0  0  0  0  0  0
  -22.8260  -13.6020   21.0230 C   0  0  0  0  0  0  0  0  0  0  0  0
  -22.0740  -12.9390   21.8950 N   0  0  0  0  0  0  0  0  0  0  0  0
  -22.4090  -14.6210   20.4750 O   0  0  0  0  0  0  0  0  0  0  0  0
  -22.4230  -12.1160   22.3650 H   0  0  0  0  0  0  0  0  0  0  0  0
  -21.1380  -13.2600   22.0980 H   0  0  0  0  0  0  0  0  0  0  0  0
  -25.4910  -15.2100   20.2040 N   0  0  0  0  0  0  0  0  0  0  0  0
  -24.7280  -15.8700   20.2980 H   0  0  0  0  0  0  0  0  0  0  0  0
  -26.3490  -15.6380   19.8780 H   0  0  0  0  0  0  0  0  0  0  0  0
  -33.3270  -25.2560   20.7470 C   0  0  0  0  0  2  0  0  0  0  0  0
  -32.9230  -26.6640   20.5320 N   0  0  0  0  0  4  0  0  0  0  0  0
  -33.2530  -27.2070   21.3150 H   0  0  0  0  0  0  0  0  0  0  0  0
  -31.9150  -26.6770   20.5610 H   0  0  0  0  0  0  0  0  0  0  0  0
  -33.4050  -27.2860   19.2730 C   0  0  0  0  0  2  0  0  0  0  0  0
  -32.8640  -28.7210   19.0850 C   0  0  0  0  0  2  0  0  0  0  0  0
  -31.8380  -28.8210   18.0890 O   0  0  0  0  0  0  0  0  0  0  0  0
  -30.5100  -28.4830   18.4900 C   0  0  0  0  0  2  0  0  0  0  0  0
  -30.2180  -26.9970   18.2300 C   0  0  0  0  0  2  0  0  0  0  0  0
  -28.7830  -26.5680   18.5400 C   0  0  0  0  0  2  0  0  0  0  0  0
  -28.4650  -26.8120   19.9150 O   0  0  0  0  0  0  0  0  0  0  0  0
  -24.6450  -31.8630   23.1910 C   0  0  0  0  0  0  0  0  0  0  0  0
  -27.2670  -27.4590   20.0670 C   0  0  0  0  0  0  0  0  0  0  0  0
  -23.4220  -30.4560   21.5630 C   0  0  0  0  0  3  0  0  0  0  0  0
  -24.8610  -28.9140   20.1360 C   0  0  0  0  0  0  0  0  0  0  0  0
  -25.9400  -30.8220   21.3390 C   0  0  0  0  0  2  0  0  0  0  0  0
  -26.0180  -29.4470   20.7170 C   0  0  0  0  0  0  0  0  0  0  0  0
  -27.2250  -28.7150   20.7020 C   0  0  0  0  0  3  0  0  0  0  0  0
  -26.0870  -26.9110   19.5190 C   0  0  0  0  0  3  0  0  0  0  0  0
  -24.8840  -27.6360   19.5490 C   0  0  0  0  0  3  0  0  0  0  0  0
  -23.6160  -29.7650   20.1860 C   0  0  0  0  0  2  0  0  0  0  0  0
  -24.6880  -31.0620   22.0910 N   0  0  0  0  0  0  0  0  0  0  0  0
  -23.5700  -32.1360   23.7430 O   0  0  0  0  0  0  0  0  0  0  0  0
  -22.7800  -29.4380   22.5310 C   0  0  0  0  0  0  0  0  0  0  0  0
  -21.4530  -29.2650   22.4220 N   0  0  0  0  0  0  0  0  0  0  0  0
  -23.4730  -28.8060   23.3340 O   0  0  0  0  0  0  0  0  0  0  0  0
  -20.9560  -29.8250   21.7440 H   0  0  0  0  0  0  0  0  0  0  0  0
  -18.0800  -28.0940   22.9550 C   0  0  0  0  0  0  0  0  0  0  0  0
  -20.6420  -28.3300   23.1980 C   0  0  0  0  0  3  0  0  0  0  0  0
  -20.7290  -26.9010   22.6150 C   0  0  0  0  0  2  0  0  0  0  0  0
  -19.6130  -26.5900   21.6130 C   0  0  0  0  0  2  0  0  0  0  0  0
  -18.2390  -26.7450   22.2740 C   0  0  0  0  0  2  0  0  0  0  0  0
  -19.2100  -28.8460   23.3740 C   0  0  0  0  0  0  0  0  0  0  0  0
  -19.0110  -30.1110   23.9680 C   0  0  0  0  0  3  0  0  0  0  0  0
  -17.7140  -30.6250   24.1490 C   0  0  0  0  0  3  0  0  0  0  0  0
  -16.5970  -29.8700   23.7500 C   0  0  0  0  0  3  0  0  0  0  0  0
  -16.7820  -28.6070   23.1600 C   0  0  0  0  0  3  0  0  0  0  0  0
  -25.9400  -32.4920   23.7960 C   0  0  0  0  0  3  0  0  0  0  0  0
  -26.4930  -31.6980   25.0420 C   0  0  1  0  0  0  0  0  0  0  0  0
  -25.4280  -31.4290   26.1300 C   0  0  0  0  0  1  0  0  0  0  0  0
  -27.0740  -30.3340   24.6020 C   0  0  0  0  0  1  0  0  0  0  0  0
  -27.6550  -32.4850   25.6930 C   0  0  0  0  0  1  0  0  0  0  0  0
  -25.6290  -33.8820   24.1600 N   0  0  0  0  0  0  0  0  0  0  0  0
  -25.9390  -34.9490   23.4110 C   0  0  0  0  0  0  0  0  0  0  0  0
  -26.5900  -34.8670   22.3650 O   0  0  0  0  0  0  0  0  0  0  0  0
  -25.0520  -34.0170   24.9780 H   0  0  0  0  0  0  0  0  0  0  0  0
  -24.1880  -36.7290   23.1200 C   0  0  0  0  0  1  0  0  0  0  0  0
  -25.4500  -36.3250   23.8990 C   0  0  0  0  0  3  0  0  0  0  0  0
  -27.5960  -37.2130   24.6950 C   0  0  0  0  0  1  0  0  0  0  0  0
  -26.4700  -37.3910   23.7810 N   0  0  0  0  0  0  0  0  0  0  0  0
  -26.0590  -38.3010   23.9620 H   0  0  0  0  0  0  0  0  0  0  0  0
  1 53  1  0
  1  2  1  0
  2  4  1  0
  3  1  2  0
  5  2  1  0
  6  7  1  0
  6  5  1  0
  8  9  1  0
  8  7  1  0
  9 11  1  0
 10 11  1  0
 10 14  1  0
 11 13  1  0
 12 10  2  0
 15 23  1  0
 16 21  1  0
 17 18  1  0
 17 16  1  0
 19 18  1  0
 19 28  1  0
 19 20  1  0
 21 15  1  0
 21 20  1  0
 22 15  2  0
 23 14  1  0
 23 24  1  0
 25 26  2  0
 26 27  1  0
 26 45  1  0
 27 30  1  0
 28 25  1  0
 28 29  1  0
 29 27  2  0
 30 31  1  0
 31 32  2  0
 33 36  1  0
 33 32  1  0
 34 33  2  0
 35 34  1  0
 35 30  2  0
 36 37  1  0
 37 38  1  0
 38 39  2  0
 40 39  1  0
 40 44  1  0
 41 40  2  0
 42 37  2  0
 42 41  1  0
 43 42  1  0
 45 46  1  0
 46 49  1  0
 46 48  1  0
 47 45  2  0
 50 51  1  0
 50 25  1  0
 52 50  1  0
 54 56  1  0
 54 53  1  0
 54 55  1  0
 57 54  1  0
 58 57  1  0
 59 60  1  0
 59 58  1  0
 61 60  1  0
 61 62  1  0
 62 63  1  0
 63 65  1  0
 64 75  2  0
 65 70  1  0
 66 74  1  0
 66 76  1  0
 67 73  1  0
 67 69  1  0
 68 74  1  0
 69 68  1  0
 70 69  2  0
 71 72  1  0
 71 65  2  0
 72 67  2  0
 73 66  1  0
 74 64  1  0
 76 78  2  0
 77 76  1  0
 79 77  1  0
 80 89  2  0
 80 85  1  0
 81 77  1  0
 81 85  1  0
 82 81  1  0
 83 84  1  0
 83 82  1  0
 84 80  1  0
 85 86  2  0
 86 87  1  0
 88 87  2  0
 89 88  1  0
 90 64  1  0
 90 95  1  0
 90 91  1  0
 91 94  1  1
 91 92  1  0
 93 91  1  0
 95 98  1  0
 96100  1  0
 96 95  1  0
 97 96  2  0
100 99  1  0
102100  1  0
102103  1  0
102101  1  0
M  ISO  4  15 100  23 100  62 101  63 101
M  END
>  <TORSDO>  (83) 
F 31

>  <SCORE>  (83) 
-10.487

>  <name>  (83) 
83

>  <ligand_id>  (83) 
83

>  <original_smiles>  (83) 
[H]c1c([H])c([H])c2c(c1[H])C([H])([H])C([H])([H])C([H])([H])C2([H])N([H])C(=O)C1([H])N(C(=O)C([H])(N([H])C(=O)C([H])(N([H])C([H])([H])[H])C([H])([H])[H])C(C([H])([H])[H])(C([H])([H])[H])C([H])([H])[H])C([H])([H])c2c([H])c(OC([H])([H])C([H])([H])C([H])([H])OC([H])([H])C([H])([H])[N+]([H])([H])C([H])([H])C(=O)N([H])C([H])([H])C([H])([H])C([H])([H])C([H])([H])C([H])([H])N([H])C(=O)C([H])([H])N([H])C(=O)N3C([H])([H])C([H])([H])C([H])([H])C([H])(n4nc(-c5c([H])c([H])c(Oc6c([H])c([H])c(F)c([H])c6F)c([H])c5[H])c(C(=O)N([H])[H])c4N([H])[H])C3([H])[H])c([H])c([H])c2C1([H])[H]

>  <smiles>  (83) 
[H]c1c([H])c([H])c2c(c1[H])C([H])([H])C([H])([H])C([H])([H])C2([H])N([H])C(=O)C1([H])N(C(=O)C([H])(N([H])C(=O)C([H])(N([H])C([H])([H])[H])C([H])([H])[H])C(C([H])([H])[H])(C([H])([H])[H])C([H])([H])[H])C([H])([H])c2c([H])c(OC([H])([H])C([H])([H])C([H])([H])OC([H])([H])C([H])([H])[N+]([H])([H])C([H])([H])C(=O)N([H])C([H])([H])C([H])([H])C([H])([H])C([H])([H])C([H])([H])N([H])C(=O)C([H])([H])N([H])C(=O)N3C([H])([H])C([H])([H])C([H])([H])C([H])(n4nc(-c5c([H])c([H])c(Oc6c([H])c([H])c(F)c([H])c6F)c([H])c5[H])c(C(=O)N([H])[H])c4N([H])[H])C3([H])[H])c([H])c([H])c2C1([H])[H]

$$$$
84:0:0
     RDKit          3D

 94101  0  0  1  0  0  0  0  0999 V2000
  -25.4450  -21.5310   20.4960 C   0  0  0  0  0  2  0  0  0  0  0  0
  -26.1610  -20.1960   20.7690 C   0  0  0  0  0  2  0  0  0  0  0  0
  -26.8350  -19.5900   19.5290 C   0  0  0  0  0  2  0  0  0  0  0  0
  -28.1130  -18.8180   19.8720 C   0  0  0  0  0  2  0  0  0  0  0  0
  -30.3970  -19.7160   19.5240 C   0  0  0  0  0  0  0  0  0  0  0  0
  -29.2140  -19.3110   19.0610 N   0  0  0  0  0  0  0  0  0  0  0  0
  -30.6710  -19.7560   20.7260 O   0  0  0  0  0  0  0  0  0  0  0  0
  -29.0730  -19.3240   18.0590 H   0  0  0  0  0  0  0  0  0  0  0  0
  -31.4080  -20.1450   18.4650 C   0  0  0  0  0  2  0  0  0  0  0  0
  -33.7850  -19.8710   18.2370 C   0  0  0  0  0  0  0  0  0  0  0  0
  -35.4130  -18.1080   17.6790 C   0  0  0  0  0  2  0  0  0  0  0  0
  -34.9150  -17.2020   16.5390 C   0  0  0  0  0  2  0  0  0  0  0  0
  -34.0620  -16.0490   17.1000 C   0  0  0  0  0  2  0  0  0  0  0  0
  -32.9630  -16.5440   18.0760 C   0  0  0  0  0  3  0  0  0  0  0  0
  -33.5470  -17.5190   19.1250 C   0  0  0  0  0  2  0  0  0  0  0  0
  -34.2470  -18.6080   18.4210 N   0  0  0  0  0  0  0  0  0  0  0  0
  -34.3060  -20.6900   17.4770 O   0  0  0  0  0  0  0  0  0  0  0  0
  -32.7620  -20.2430   19.0030 N   0  0  0  0  0  0  0  0  0  0  0  0
  -32.9050  -21.1580   19.4060 H   0  0  0  0  0  0  0  0  0  0  0  0
  -32.7350  -14.5210   19.6560 C   0  0  0  0  0  0  0  0  0  0  0  0
  -31.6710  -13.7180   19.9660 C   0  0  0  0  0  0  0  0  0  0  0  0
  -30.5790  -14.1860   19.1730 C   0  0  0  0  0  0  0  0  0  0  0  0
  -32.2710  -15.4220   18.7090 N   0  0  0  0  0  0  0  0  0  0  0  0
  -30.9770  -15.1750   18.3820 N   0  0  0  0  0  0  0  0  0  0  0  0
  -29.1650  -13.7900   19.1630 C   0  0  0  0  0  0  0  0  0  0  0  0
  -28.7770  -12.4420   18.9960 C   0  0  0  0  0  3  0  0  0  0  0  0
  -27.4130  -12.0820   19.0080 C   0  0  0  0  0  3  0  0  0  0  0  0
  -26.4200  -13.0710   19.1950 C   0  0  0  0  0  0  0  0  0  0  0  0
  -26.8090  -14.4140   19.3400 C   0  0  0  0  0  3  0  0  0  0  0  0
  -28.1670  -14.7730   19.3230 C   0  0  0  0  0  3  0  0  0  0  0  0
  -25.0700  -12.8190   19.1970 O   0  0  0  0  0  0  0  0  0  0  0  0
  -24.4370  -12.3020   20.2990 C   0  0  0  0  0  0  0  0  0  0  0  0
  -24.2490  -13.0600   21.4760 C   0  0  0  0  0  3  0  0  0  0  0  0
  -23.5340  -12.5120   22.5590 C   0  0  0  0  0  3  0  0  0  0  0  0
  -22.9950  -11.2140   22.4650 C   0  0  0  0  0  0  0  0  0  0  0  0
  -23.1740  -10.4620   21.2910 C   0  0  0  0  0  3  0  0  0  0  0  0
  -23.8900  -11.0050   20.2100 C   0  0  0  0  0  0  0  0  0  0  0  0
  -24.0440  -10.2830   19.0740 F   0  0  0  0  0  0  0  0  0  0  0  0
  -22.2950  -10.6930   23.4990 F   0  0  0  0  0  0  0  0  0  0  0  0
  -31.6390  -12.6360   21.0090 C   0  0  0  0  0  0  0  0  0  0  0  0
  -30.8500  -11.5910   20.7900 N   0  0  0  0  0  0  0  0  0  0  0  0
  -32.3600  -12.6910   22.0060 O   0  0  0  0  0  0  0  0  0  0  0  0
  -30.2740  -11.5290   19.9620 H   0  0  0  0  0  0  0  0  0  0  0  0
  -30.8210  -10.8330   21.4600 H   0  0  0  0  0  0  0  0  0  0  0  0
  -34.0470  -14.5770   20.1180 N   0  0  0  0  0  0  0  0  0  0  0  0
  -34.3810  -13.9680   20.8560 H   0  0  0  0  0  0  0  0  0  0  0  0
  -34.7310  -15.2640   19.8290 H   0  0  0  0  0  0  0  0  0  0  0  0
  -26.2180  -22.7650   20.9740 C   0  0  0  0  0  2  0  0  0  0  0  0
  -27.2750  -23.0460   20.0700 O   0  0  0  0  0  0  0  0  0  0  0  0
  -28.1520  -24.0310   20.5840 C   0  0  0  0  0  2  0  0  0  0  0  0
  -29.3980  -24.1500   19.6990 C   0  0  0  0  0  2  0  0  0  0  0  0
  -30.3760  -25.1790   20.2860 C   0  0  0  0  0  2  0  0  0  0  0  0
  -31.0690  -26.0670   19.2310 C   0  0  0  0  0  2  0  0  0  0  0  0
  -30.8520  -27.4540   19.5030 O   0  0  0  0  0  0  0  0  0  0  0  0
  -26.5060  -30.1340   24.4200 C   0  0  0  0  0  0  0  0  0  0  0  0
  -29.5640  -27.8700   19.7700 C   0  0  0  0  0  0  0  0  0  0  0  0
  -25.4030  -29.2860   22.3730 C   0  0  0  0  0  3  0  0  0  0  0  0
  -26.9570  -28.7340   20.4310 C   0  0  0  0  0  0  0  0  0  0  0  0
  -27.8000  -30.1730   22.2920 C   0  0  0  0  0  2  0  0  0  0  0  0
  -28.0560  -29.2080   21.1560 C   0  0  0  0  0  0  0  0  0  0  0  0
  -29.3610  -28.7860   20.8240 C   0  0  0  0  0  3  0  0  0  0  0  0
  -28.4400  -27.3990   19.0480 C   0  0  0  0  0  3  0  0  0  0  0  0
  -27.1410  -27.8220   19.3790 C   0  0  0  0  0  3  0  0  0  0  0  0
  -25.5970  -29.2480   20.8350 C   0  0  0  0  0  2  0  0  0  0  0  0
  -26.5900  -29.8580   23.0880 N   0  0  0  0  0  0  0  0  0  0  0  0
  -25.4480  -29.9630   25.0420 O   0  0  0  0  0  0  0  0  0  0  0  0
  -25.0220  -27.8680   22.8560 C   0  0  0  0  0  0  0  0  0  0  0  0
  -23.9640  -27.2990   22.2580 N   0  0  0  0  0  0  0  0  0  0  0  0
  -25.6860  -27.2960   23.7250 O   0  0  0  0  0  0  0  0  0  0  0  0
  -23.4730  -27.8360   21.5580 H   0  0  0  0  0  0  0  0  0  0  0  0
  -21.6840  -24.7710   21.0490 C   0  0  0  0  0  0  0  0  0  0  0  0
  -23.4470  -25.9570   22.5210 C   0  0  0  0  0  3  0  0  0  0  0  0
  -24.4370  -24.8750   22.0320 C   0  0  0  0  0  2  0  0  0  0  0  0
  -24.1480  -24.3950   20.6060 C   0  0  0  0  0  2  0  0  0  0  0  0
  -22.7350  -23.8130   20.5110 C   0  0  0  0  0  2  0  0  0  0  0  0
  -22.0230  -25.7870   21.9810 C   0  0  0  0  0  0  0  0  0  0  0  0
  -21.0180  -26.6740   22.4230 C   0  0  0  0  0  3  0  0  0  0  0  0
  -19.6960  -26.5560   21.9530 C   0  0  0  0  0  3  0  0  0  0  0  0
  -19.3630  -25.5380   21.0430 C   0  0  0  0  0  3  0  0  0  0  0  0
  -20.3540  -24.6460   20.5950 C   0  0  0  0  0  3  0  0  0  0  0  0
  -27.7220  -30.7000   25.2170 C   0  0  0  0  0  3  0  0  0  0  0  0
  -28.0960  -29.8330   26.4820 C   0  0  1  0  0  0  0  0  0  0  0  0
  -26.8980  -29.5560   27.4200 C   0  0  0  0  0  1  0  0  0  0  0  0
  -28.6860  -28.4690   26.0530 C   0  0  0  0  0  1  0  0  0  0  0  0
  -29.1900  -30.5510   27.3050 C   0  0  0  0  0  1  0  0  0  0  0  0
  -27.3910  -32.0760   25.6080 N   0  0  0  0  0  0  0  0  0  0  0  0
  -27.8310  -33.1740   24.9760 C   0  0  0  0  0  0  0  0  0  0  0  0
  -28.6270  -33.1290   24.0340 O   0  0  0  0  0  0  0  0  0  0  0  0
  -26.6990  -32.1870   26.3360 H   0  0  0  0  0  0  0  0  0  0  0  0
  -26.1870  -35.0250   24.5300 C   0  0  0  0  0  1  0  0  0  0  0  0
  -27.3040  -34.5350   25.4660 C   0  0  0  0  0  3  0  0  0  0  0  0
  -29.2990  -35.3260   26.6570 C   0  0  0  0  0  1  0  0  0  0  0  0
  -28.3550  -35.5710   25.5710 N   0  0  0  0  0  0  0  0  0  0  0  0
  -27.9410  -36.4890   25.7100 H   0  0  0  0  0  0  0  0  0  0  0  0
  1  2  1  0
  1 48  1  0
  3  4  1  0
  3  2  1  0
  5  7  2  0
  6  5  1  0
  6  4  1  0
  8  6  1  0
  9 18  1  0
  9  5  1  0
 10 16  1  0
 10 18  1  0
 11 16  1  0
 12 13  1  0
 12 11  1  0
 14 13  1  0
 14 23  1  0
 14 15  1  0
 16 15  1  0
 17 10  2  0
 18 19  1  0
 20 21  2  0
 20 45  1  0
 21 40  1  0
 22 21  1  0
 23 20  1  0
 24 23  1  0
 24 22  2  0
 25 22  1  0
 25 30  1  0
 26 27  1  0
 26 25  2  0
 27 28  2  0
 28 31  1  0
 28 29  1  0
 30 29  2  0
 31 32  1  0
 32 33  1  0
 33 34  2  0
 35 34  1  0
 35 39  1  0
 36 35  2  0
 37 32  2  0
 37 36  1  0
 38 37  1  0
 40 42  2  0
 41 40  1  0
 41 44  1  0
 43 41  1  0
 45 46  1  0
 47 45  1  0
 49 50  1  0
 49 48  1  0
 51 52  1  0
 51 50  1  0
 53 54  1  0
 53 52  1  0
 54 56  1  0
 55 66  2  0
 56 61  1  0
 57 67  1  0
 57 65  1  0
 58 64  1  0
 58 60  1  0
 59 65  1  0
 60 59  1  0
 61 60  2  0
 62 63  1  0
 62 56  2  0
 63 58  2  0
 64 57  1  0
 65 55  1  0
 67 69  2  0
 68 67  1  0
 70 68  1  0
 71 76  1  0
 72 68  1  0
 73 72  1  0
 74 73  1  0
 75 74  1  0
 75 71  1  0
 76 77  2  0
 76 72  1  0
 78 77  1  0
 79 78  2  0
 80 79  1  0
 80 71  2  0
 81 55  1  0
 81 86  1  0
 81 82  1  0
 82 85  1  1
 82 83  1  0
 84 82  1  0
 86 89  1  0
 87 91  1  0
 87 86  1  0
 88 87  2  0
 91 90  1  0
 91 93  1  0
 93 94  1  0
 93 92  1  0
M  ISO  4  10 100  18 100  53 101  54 101
M  END
>  <TORSDO>  (84) 
F 27

>  <SCORE>  (84) 
2.452

>  <name>  (84) 
84

>  <ligand_id>  (84) 
84

>  <original_smiles>  (84) 
[H]c1c([H])c([H])c2c(c1[H])C([H])([H])C([H])([H])C([H])([H])C2([H])N([H])C(=O)C1([H])N(C(=O)C([H])(N([H])C(=O)C([H])(N([H])C([H])([H])[H])C([H])([H])[H])C(C([H])([H])[H])(C([H])([H])[H])C([H])([H])[H])C([H])([H])c2c([H])c(OC([H])([H])C([H])([H])C([H])([H])C([H])([H])OC([H])([H])C([H])([H])C([H])([H])C([H])([H])C([H])([H])N([H])C(=O)C([H])([H])N([H])C(=O)N3C([H])([H])C([H])([H])C([H])([H])C([H])(n4nc(-c5c([H])c([H])c(Oc6c([H])c([H])c(F)c([H])c6F)c([H])c5[H])c(C(=O)N([H])[H])c4N([H])[H])C3([H])[H])c([H])c([H])c2C1([H])[H]

>  <smiles>  (84) 
[H]c1c([H])c([H])c2c(c1[H])C([H])([H])C([H])([H])C([H])([H])C2([H])N([H])C(=O)C1([H])N(C(=O)C([H])(N([H])C(=O)C([H])(N([H])C([H])([H])[H])C([H])([H])[H])C(C([H])([H])[H])(C([H])([H])[H])C([H])([H])[H])C([H])([H])c2c([H])c(OC([H])([H])C([H])([H])C([H])([H])C([H])([H])OC([H])([H])C([H])([H])C([H])([H])C([H])([H])C([H])([H])N([H])C(=O)C([H])([H])N([H])C(=O)N3C([H])([H])C([H])([H])C([H])([H])C([H])(n4nc(-c5c([H])c([H])c(Oc6c([H])c([H])c(F)c([H])c6F)c([H])c5[H])c(C(=O)N([H])[H])c4N([H])[H])C3([H])[H])c([H])c([H])c2C1([H])[H]

$$$$
85:0:0
     RDKit          3D

 96 98  0  0  1  0  0  0  0  0999 V2000
  -20.0840  -25.8890   22.6070 C   0  0  0  0  0  2  0  0  0  0  0  0
  -20.8430  -25.6380   21.2750 N   0  0  0  0  0  0  0  0  0  0  0  0
  -19.4170  -24.8670   22.8530 O   0  0  0  0  0  1  0  0  0  0  0  0
  -21.3880  -26.4830   21.1650 H   0  0  0  0  0  0  0  0  0  0  0  0
  -20.2440  -28.2380   24.2260 C   0  0  0  0  0 15  0  0  0  0  0  0
  -22.0300  -28.6800   25.2050 C   0  0  0  0  0  1  0  0  0  0  0  0
  -23.7150  -27.9960   24.9070 N   0  0  0  0  0  4  0  0  0  0  0  0
  -24.3160  -28.7900   25.1560 H   0  0  0  0  0  0  0  0  0  0  0  0
  -23.8220  -27.3770   25.6960 H   0  0  0  0  0  0  0  0  0  0  0  0
  -24.7120  -27.1310   23.6330 C   0  0  0  0  0  1  0  0  0  0  0  0
  -25.6510  -27.4000   21.8950 C   0  0  0  0  0  1  0  0  0  0  0  0
  -25.5040  -27.4490   20.1370 O   0  0  0  0  0  0  0  0  0  0  0  0
  -25.4310  -30.2060   24.1020 C   0  0  0  0  0  0  0  0  0  0  0  0
  -25.7200  -28.4820   19.1860 C   0  0  0  0  0  3  0  0  0  0  0  0
  -23.5750  -30.5090   22.3010 C   0  0  0  0  0  3  0  0  0  0  0  0
  -24.3380  -30.6120   19.9440 C   0  0  0  0  0  0  0  0  0  0  0  0
  -26.0270  -30.8350   21.7960 C   0  0  0  0  0  2  0  0  0  0  0  0
  -25.6430  -30.3780   20.4140 C   0  0  0  0  0  0  0  0  0  0  0  0
  -26.4740  -29.4810   19.7550 C   0  0  0  0  0  2  0  0  0  0  0  0
  -24.6230  -28.8360   18.3510 C   0  0  0  0  0  3  0  0  0  0  0  0
  -23.8540  -29.9300   18.8000 C   0  0  0  0  0  3  0  0  0  0  0  0
  -23.4380  -31.2710   20.9660 C   0  0  0  0  0  2  0  0  0  0  0  0
  -25.0250  -30.4330   22.7980 N   0  0  0  0  0  0  0  0  0  0  0  0
  -24.6040  -30.1380   25.0200 O   0  0  0  0  0  0  0  0  0  0  0  0
  -22.9030  -29.1900   21.7770 C   0  0  0  0  0  0  0  0  0  0  0  0
  -21.7020  -28.8880   21.7060 N   0  0  0  0  0  0  0  0  0  0  0  0
  -23.3410  -28.1890   21.3730 O   0  0  0  0  0  0  0  0  0  0  0  0
  -21.1710  -29.7210   21.5030 H   0  0  0  0  0  0  0  0  0  0  0  0
  -17.4010  -28.2160   21.4330 C   0  0  0  0  0  0  0  0  0  0  0  0
  -20.6790  -27.8400   22.2090 C   0  0  0  0  0  1  0  0  0  0  0  0
  -21.0880  -27.8800   20.1960 C   0  0  0  0  0  1  0  0  0  0  0  0
  -19.5840  -28.0040   19.0150 C   0  0  0  0  0  3  0  0  0  0  0  0
  -17.8120  -28.0910   19.6740 C   0  0  0  0  0  3  0  0  0  0  0  0
  -18.5180  -28.1090   22.6840 C   0  0  0  0  0  3  0  0  0  0  0  0
  -17.9660  -29.0560   23.6640 C   0  0  0  0  0  3  0  0  0  0  0  0
  -16.9090  -30.0280   23.4800 C   0  0  0  0  0  3  0  0  0  0  0  0
  -16.0290  -30.0110   22.3950 C   0  0  0  0  0  3  0  0  0  0  0  0
  -16.2390  -29.0340   21.4320 C   0  0  0  0  0  3  0  0  0  0  0  0
  -26.9470  -30.0570   24.5430 C   0  0  0  0  0  3  0  0  0  0  0  0
  -27.1020  -30.8510   25.7680 N   0  0  0  0  0  0  0  0  0  0  0  0
  -27.6860  -32.0530   25.8290 C   0  0  0  0  0  0  0  0  0  0  0  0
  -28.1570  -32.6160   24.8370 O   0  0  0  0  0  0  0  0  0  0  0  0
  -26.6800  -30.4800   26.6060 H   0  0  0  0  0  0  0  0  0  0  0  0
  -26.6100  -33.7690   27.3130 C   0  0  0  0  0  1  0  0  0  0  0  0
  -27.7470  -32.7410   27.2050 C   0  0  0  0  0  3  0  0  0  0  0  0
  -30.1450  -32.4570   27.6480 C   0  0  0  0  0  1  0  0  0  0  0  0
  -29.0430  -33.4000   27.4740 N   0  0  0  0  0  0  0  0  0  0  0  0
  -28.9860  -33.9780   28.3090 H   0  0  0  0  0  0  0  0  0  0  0  0
  -27.5070  -28.5900   24.8320 C   0  0  1  0  0  0  0  0  0  0  0  0
  -26.6340  -27.7670   25.8180 C   0  0  0  0  0  1  0  0  0  0  0  0
  -27.8100  -27.7730   23.5570 C   0  0  0  0  0  1  0  0  0  0  0  0
  -28.9140  -28.6820   25.4750 C   0  0  0  0  0  1  0  0  0  0  0  0
  -21.1540  -24.7440   19.8590 C   0  0  0  0  0  3  0  0  0  0  0  0
  -22.4240  -24.8800   18.5060 C   0  0  0  0  0  3  0  0  0  0  0  0
  -22.6600  -24.2430   16.7750 C   0  0  0  0  0  3  0  0  0  0  0  0
  -23.9710  -24.2960   15.4560 C   0  0  0  0  0  3  0  0  0  0  0  0
  -24.1490  -23.8360   13.6620 C   0  0  0  0  0  3  0  0  0  0  0  0
  -25.4910  -23.8450   12.3730 C   0  0  0  0  0  3  0  0  0  0  0  0
  -26.4660  -23.3560    9.4730 C   0  0  0  0  0  0  0  0  0  0  0  0
  -26.2740  -23.5680    6.8570 C   0  0  0  0  0  2  0  0  0  0  0  0
  -25.4130  -24.8150    6.4990 C   0  0  0  0  0  2  0  0  0  0  0  0
  -23.9100  -24.5630    6.7520 C   0  0  0  0  0  2  0  0  0  0  0  0
  -23.6970  -23.7970    8.0780 C   0  0  0  0  0  3  0  0  0  0  0  0
  -24.5550  -22.5350    8.1340 C   0  0  0  0  0  2  0  0  0  0  0  0
  -25.8860  -23.0610    8.2290 N   0  0  0  0  0  0  0  0  0  0  0  0
  -27.6860  -23.6260    9.3350 O   0  0  0  0  0  0  0  0  0  0  0  0
  -25.5890  -23.4310   10.7170 N   0  0  0  0  0  0  0  0  0  0  0  0
  -24.6760  -23.1060   10.4270 H   0  0  0  0  0  0  0  0  0  0  0  0
  -21.6110  -23.7020    9.5060 C   0  0  0  0  0  0  0  0  0  0  0  0
  -20.3720  -23.1850    9.2660 C   0  0  0  0  0  0  0  0  0  0  0  0
  -20.4310  -22.6110    7.9590 C   0  0  0  0  0  0  0  0  0  0  0  0
  -22.3350  -23.4470    8.3580 N   0  0  0  0  0  0  0  0  0  0  0  0
  -21.6480  -22.7190    7.4530 N   0  0  0  0  0  0  0  0  0  0  0  0
  -19.3850  -22.0270    7.1240 C   0  0  0  0  0  0  0  0  0  0  0  0
  -19.5200  -20.7360    6.5670 C   0  0  0  0  0  3  0  0  0  0  0  0
  -18.4860  -20.1940    5.7760 C   0  0  0  0  0  3  0  0  0  0  0  0
  -17.3090  -20.9430    5.5390 C   0  0  0  0  0  0  0  0  0  0  0  0
  -17.1950  -22.2370    6.0760 C   0  0  0  0  0  3  0  0  0  0  0  0
  -18.2250  -22.7790    6.8590 C   0  0  0  0  0  3  0  0  0  0  0  0
  -16.2630  -20.5060    4.7640 O   0  0  0  0  0  0  0  0  0  0  0  0
  -15.9910  -19.1700    4.6110 C   0  0  0  0  0  0  0  0  0  0  0  0
  -15.7060  -18.3380    5.7150 C   0  0  0  0  0  3  0  0  0  0  0  0
  -15.3600  -16.9880    5.5060 C   0  0  0  0  0  3  0  0  0  0  0  0
  -15.2930  -16.4720    4.1980 C   0  0  0  0  0  0  0  0  0  0  0  0
  -15.5720  -17.3020    3.0980 C   0  0  0  0  0  3  0  0  0  0  0  0
  -15.9180  -18.6480    3.3050 C   0  0  0  0  0  0  0  0  0  0  0  0
  -16.1650  -19.4500    2.2410 F   0  0  0  0  0  0  0  0  0  0  0  0
  -14.9530  -15.1770    3.9960 F   0  0  0  0  0  0  0  0  0  0  0  0
  -19.1710  -23.3170   10.1520 C   0  0  0  0  0  0  0  0  0  0  0  0
  -18.2730  -22.3390   10.1150 N   0  0  0  0  0  0  0  0  0  0  0  0
  -19.0480  -24.2690   10.9190 O   0  0  0  0  0  0  0  0  0  0  0  0
  -18.3840  -21.5470    9.5010 H   0  0  0  0  0  0  0  0  0  0  0  0
  -17.4610  -22.3840   10.7140 H   0  0  0  0  0  0  0  0  0  0  0  0
  -22.1740  -24.3880   10.5780 N   0  0  0  0  0  0  0  0  0  0  0  0
  -21.6110  -24.6690   11.3720 H   0  0  0  0  0  0  0  0  0  0  0  0
  -23.0390  -24.9090   10.5170 H   0  0  0  0  0  0  0  0  0  0  0  0
  1  3  1  0
  2  1  1  0
  4  2  1  0
  7  8  1  0
  7  6  1  0
  7  9  1  0
 10  7  1  0
 12 11  1  0
 13 24  2  0
 14 19  1  0
 14 12  1  0
 15 25  1  0
 15 23  1  0
 16 18  2  0
 16 22  1  0
 17 23  1  0
 18 17  1  0
 19 18  1  0
 20 21  2  0
 20 14  1  0
 21 16  1  0
 22 15  1  0
 23 13  1  0
 26 25  1  0
 26 30  1  0
 27 25  2  0
 28 26  1  0
 29 34  1  0
 32 33  2  0
 32 31  1  0
 33 29  1  0
 34 35  2  0
 36 35  1  0
 37 36  2  0
 38 29  2  0
 38 37  1  0
 39 13  1  0
 39 49  1  0
 39 40  1  0
 40 41  1  0
 40 43  1  0
 41 45  1  0
 42 41  2  0
 45 44  1  0
 45 47  1  0
 47 46  1  0
 47 48  1  0
 49 52  1  1
 49 50  1  0
 51 49  1  0
 53  2  1  0
 54 53  2  0
 55 54  1  0
 56 55  2  0
 57 56  1  0
 58 57  2  0
 59 67  1  0
 60 65  1  0
 61 62  1  0
 61 60  1  0
 63 62  1  0
 63 64  1  0
 63 72  1  0
 64 65  1  0
 65 59  1  0
 66 59  2  0
 67 58  1  0
 68 67  1  0
 69 94  1  0
 70 69  2  0
 70 89  1  0
 71 70  1  0
 72 69  1  0
 73 71  2  0
 73 72  1  0
 74 71  1  0
 75 74  2  0
 76 75  1  0
 77 76  2  0
 77 78  1  0
 78 79  2  0
 79 74  1  0
 80 77  1  0
 81 80  1  0
 81 82  1  0
 83 82  2  0
 84 83  1  0
 85 86  1  0
 85 84  2  0
 86 81  2  0
 87 86  1  0
 88 84  1  0
 89 91  2  0
 90 89  1  0
 90 93  1  0
 92 90  1  0
 94 95  1  0
 96 94  1  0
M  ISO  4  11 101  12 101  59 100  67 100
M  END
>  <TORSDO>  (85) 
F 27

>  <SCORE>  (85) 
4.073

>  <name>  (85) 
85

>  <ligand_id>  (85) 
85

>  <original_smiles>  (85) 
[H]c1c([H])c([H])c2c(c1[H])C([H])([H])C([H])([H])C([H])([H])C2([H])N([H])C(=O)C1([H])N(C(=O)C([H])(N([H])C(=O)C([H])(N([H])C([H])([H])[H])C([H])([H])[H])C(C([H])([H])[H])(C([H])([H])[H])C([H])([H])[H])C([H])([H])c2c([H])c(OC([H])([H])C([H])([H])[N+]([H])([H])C([H])([H])C([H])([H])C(=O)N([H])C([H])([H])C([H])([H])C([H])([H])C([H])([H])C([H])([H])C([H])([H])N([H])C(=O)N3C([H])([H])C([H])([H])C([H])([H])C([H])(n4nc(-c5c([H])c([H])c(Oc6c([H])c([H])c(F)c([H])c6F)c([H])c5[H])c(C(=O)N([H])[H])c4N([H])[H])C3([H])[H])c([H])c([H])c2C1([H])[H]

>  <smiles>  (85) 
[H]c1c([H])c([H])c2c(c1[H])C([H])([H])C([H])([H])C([H])([H])C2([H])N([H])C(=O)C1([H])N(C(=O)C([H])(N([H])C(=O)C([H])(N([H])C([H])([H])[H])C([H])([H])[H])C(C([H])([H])[H])(C([H])([H])[H])C([H])([H])[H])C([H])([H])c2c([H])c(OC([H])([H])C([H])([H])[N+]([H])([H])C([H])([H])C([H])([H])C(=O)N([H])C([H])([H])C([H])([H])C([H])([H])C([H])([H])C([H])([H])C([H])([H])N([H])C(=O)N3C([H])([H])C([H])([H])C([H])([H])C([H])(n4nc(-c5c([H])c([H])c(Oc6c([H])c([H])c(F)c([H])c6F)c([H])c5[H])c(C(=O)N([H])[H])c4N([H])[H])C3([H])[H])c([H])c([H])c2C1([H])[H]

$$$$
86:0:0
     RDKit          3D

101 99  0  0  1  0  0  0  0  0999 V2000
  -22.4640  -29.5020   23.9020 C   0  0  0  0  0  0  0  0  0  0  0  0
  -23.2660  -28.4360   24.2190 N   0  0  0  0  0  0  0  0  0  0  0  0
  -22.0130  -30.1680   24.8340 O   0  0  0  0  0  0  0  0  0  0  0  0
  -23.5980  -27.9570   23.3880 H   0  0  0  0  0  0  0  0  0  0  0  0
  -23.5910  -27.7460   25.5080 C   0  0  0  0  0  2  0  0  0  0  0  0
  -24.6230  -26.5060   25.5180 C   0  0  0  0  0  2  0  0  0  0  0  0
  -26.0720  -26.7680   25.1990 N   0  0  0  0  0  4  0  0  0  0  0  0
  -26.0370  -27.1260   24.2390 H   0  0  0  0  0  0  0  0  0  0  0  0
  -26.4340  -27.4930   25.8000 H   0  0  0  0  0  0  0  0  0  0  0  0
  -27.0920  -25.6540   25.0980 C   0  0  0  0  0  2  0  0  0  0  0  0
  -27.9560  -25.6440   23.7570 C   0  0  0  0  0  2  0  0  0  0  0  0
  -29.4950  -25.3140   23.8180 C   0  0  0  0  0  2  0  0  0  0  0  0
  -30.2310  -24.7680   22.5240 C   0  0  0  0  0  2  0  0  0  0  0  0
  -30.7860  -25.6770   21.5260 O   0  0  0  0  0  0  0  0  0  0  0  0
  -26.1740  -30.5050   23.1880 C   0  0  0  0  0  0  0  0  0  0  0  0
  -29.7960  -26.4040   20.9480 C   0  0  0  0  0  0  0  0  0  0  0  0
  -25.5730  -29.0530   21.2810 C   0  0  0  0  0  3  0  0  0  0  0  0
  -27.4460  -27.7310   20.2160 C   0  0  0  0  0  0  0  0  0  0  0  0
  -27.9920  -29.6630   21.7290 C   0  0  0  0  0  2  0  0  0  0  0  0
  -28.3490  -28.3360   21.1030 C   0  0  0  0  0  0  0  0  0  0  0  0
  -29.5420  -27.6880   21.4500 C   0  0  0  0  0  3  0  0  0  0  0  0
  -28.9220  -25.8130   20.0110 C   0  0  0  0  0  3  0  0  0  0  0  0
  -27.7340  -26.4730   19.6490 C   0  0  0  0  0  3  0  0  0  0  0  0
  -26.1670  -28.4980   19.9610 C   0  0  0  0  0  2  0  0  0  0  0  0
  -26.5800  -29.7520   22.1290 N   0  0  0  0  0  0  0  0  0  0  0  0
  -24.9800  -30.6920   23.4060 O   0  0  0  0  0  0  0  0  0  0  0  0
  -25.0300  -27.8430   22.0310 C   0  0  0  0  0  0  0  0  0  0  0  0
  -23.9290  -27.2460   21.6650 N   0  0  0  0  0  0  0  0  0  0  0  0
  -25.5770  -27.4140   23.0150 O   0  0  0  0  0  0  0  0  0  0  0  0
  -23.3890  -27.6510   20.9030 H   0  0  0  0  0  0  0  0  0  0  0  0
  -21.0010  -24.6770   20.9120 C   0  0  0  0  0  0  0  0  0  0  0  0
  -23.5110  -25.9130   22.0310 C   0  0  0  0  0  2  0  0  0  0  0  0
  -24.8520  -25.0080   20.8310 C   0  0  0  0  0 15  0  0  0  0  0  0
  -23.8950  -23.5850   19.5940 C   0  0  0  0  0 15  0  0  0  0  0  0
  -21.9300  -23.4540   19.9880 C   0  0  0  0  0  1  0  0  0  0  0  0
  -21.6740  -25.6860   21.8760 C   0  0  0  0  0  0  0  0  0  0  0  0
  -20.7520  -26.7770   22.1950 C   0  0  0  0  0  3  0  0  0  0  0  0
  -19.5360  -27.1700   21.5530 C   0  0  0  0  0  3  0  0  0  0  0  0
  -18.9930  -26.3000   20.6080 C   0  0  0  0  0  3  0  0  0  0  0  0
  -19.6990  -25.0790   20.3520 C   0  0  0  0  0  3  0  0  0  0  0  0
  -27.1740  -31.1930   24.1650 C   0  0  0  0  0  3  0  0  0  0  0  0
  -27.4170  -30.4030   25.5080 C   0  0  1  0  0  0  0  0  0  0  0  0
  -26.1220  -29.9260   26.1860 C   0  0  0  0  0  1  0  0  0  0  0  0
  -28.3350  -29.1940   25.2510 C   0  0  0  0  0  1  0  0  0  0  0  0
  -28.1610  -31.2870   26.5280 C   0  0  0  0  0  1  0  0  0  0  0  0
  -26.6250  -32.5170   24.4580 N   0  0  0  0  0  0  0  0  0  0  0  0
  -27.0810  -33.6460   23.9090 C   0  0  0  0  0  0  0  0  0  0  0  0
  -28.0670  -33.6760   23.1680 O   0  0  0  0  0  0  0  0  0  0  0  0
  -25.7840  -32.5510   25.0160 H   0  0  0  0  0  0  0  0  0  0  0  0
  -25.4810  -35.3720   23.0310 C   0  0  0  0  0  1  0  0  0  0  0  0
  -26.3310  -34.9470   24.2390 C   0  0  0  0  0  3  0  0  0  0  0  0
  -27.9600  -35.7890   25.8700 C   0  0  0  0  0  1  0  0  0  0  0  0
  -27.2310  -36.0510   24.6330 N   0  0  0  0  0  0  0  0  0  0  0  0
  -26.7110  -36.9170   24.7480 H   0  0  0  0  0  0  0  0  0  0  0  0
  -21.9740  -29.9420   22.4110 C   0  0  0  0  0  2  0  0  0  0  0  0
  -22.3180  -29.5810   20.8220 C   0  0  0  0  0  3  0  0  0  0  0  0
  -22.4890  -28.2160   19.9050 C   0  0  0  0  0  3  0  0  0  0  0  0
  -22.9640  -27.8530   18.2990 C   0  0  0  0  0  1  0  0  0  0  0  0
  -25.0890  -28.5160   16.2120 C   0  0  0  0  0 15  0  0  0  0  0  0
  -25.4470  -27.5800   14.1220 C   0  0  0  0  0 15  0  0  0  0  0  0
  -25.7440  -27.4930   11.8520 C   0  0  0  0  0 15  0  0  0  0  0  0
  -26.3430  -26.4840    9.8830 C   0  0  0  0  0 15  0  0  0  0  0  0
  -26.3970  -26.2880    7.6000 C   0  0  0  0  0 15  0  0  0  0  0  0
  -27.1800  -25.1360    4.1340 C   0  0  0  0  0  0  0  0  0  0  0  0
  -28.2910  -23.7500    1.8720 C   0  0  0  0  0  2  0  0  0  0  0  0
  -29.0280  -22.3610    2.0410 C   0  0  0  0  0  2  0  0  0  0  0  0
  -30.3560  -22.5230    2.7930 C   0  0  0  0  0  2  0  0  0  0  0  0
  -30.1690  -23.6380    3.8340 C   0  0  0  0  0  3  0  0  0  0  0  0
  -29.6560  -24.9520    3.2650 C   0  0  0  0  0  2  0  0  0  0  0  0
  -28.2570  -24.6560    3.1810 N   0  0  0  0  0  0  0  0  0  0  0  0
  -26.2330  -25.0410    3.2700 O   0  0  0  0  0  0  0  0  0  0  0  0
  -27.1630  -25.5630    5.8340 N   0  0  0  0  0  2  0  0  0  0  0  0
  -28.1380  -25.3980    6.0710 H   0  0  0  0  0  0  0  0  0  0  0  0
  -31.2130  -24.2870    5.9780 C   0  0  0  0  0  0  0  0  0  0  0  0
  -32.5060  -24.5100    6.3270 C   0  0  0  0  0  0  0  0  0  0  0  0
  -33.2760  -24.3410    5.1340 C   0  0  0  0  0  0  0  0  0  0  0  0
  -31.2780  -23.9570    4.6440 N   0  0  0  0  0  0  0  0  0  0  0  0
  -32.5000  -24.0810    4.0970 N   0  0  0  0  0  0  0  0  0  0  0  0
  -34.7170  -24.3240    4.9290 C   0  0  0  0  0  0  0  0  0  0  0  0
  -35.3460  -25.2040    4.0230 C   0  0  0  0  0  3  0  0  0  0  0  0
  -36.7460  -25.1710    3.8600 C   0  0  0  0  0  3  0  0  0  0  0  0
  -37.5210  -24.2530    4.6090 C   0  0  0  0  0  0  0  0  0  0  0  0
  -36.8830  -23.3590    5.4850 C   0  0  0  0  0  3  0  0  0  0  0  0
  -35.4890  -23.3900    5.6410 C   0  0  0  0  0  3  0  0  0  0  0  0
  -38.8840  -24.1350    4.5070 O   0  0  0  0  0  0  0  0  0  0  0  0
  -39.6690  -25.2040    4.1640 C   0  0  0  0  0  0  0  0  0  0  0  0
  -39.6870  -26.3930    4.9250 C   0  0  0  0  0  3  0  0  0  0  0  0
  -40.5640  -27.4380    4.5750 C   0  0  0  0  0  3  0  0  0  0  0  0
  -41.4280  -27.2940    3.4720 C   0  0  0  0  0  0  0  0  0  0  0  0
  -41.4130  -26.1100    2.7150 C   0  0  0  0  0  3  0  0  0  0  0  0
  -40.5370  -25.0670    3.0630 C   0  0  0  0  0  0  0  0  0  0  0  0
  -40.5400  -23.9190    2.3430 F   0  0  0  0  0  0  0  0  0  0  0  0
  -42.2770  -28.2950    3.1420 F   0  0  0  0  0  0  0  0  0  0  0  0
  -32.9980  -24.7400    7.7180 C   0  0  0  0  0  0  0  0  0  0  0  0
  -34.0610  -25.5180    7.8670 N   0  0  0  0  0  0  0  0  0  0  0  0
  -32.4050  -24.2640    8.6850 O   0  0  0  0  0  0  0  0  0  0  0  0
  -34.5290  -25.9240    7.0700 H   0  0  0  0  0  0  0  0  0  0  0  0
  -34.4130  -25.7130    8.7930 H   0  0  0  0  0  0  0  0  0  0  0  0
  -30.0010  -24.2980    6.6710 N   0  0  0  0  0  0  0  0  0  0  0  0
  -30.1010  -24.3430    7.6810 H   0  0  0  0  0  0  0  0  0  0  0  0
  -29.3440  -23.5740    6.4080 H   0  0  0  0  0  0  0  0  0  0  0  0
  1  2  1  0
  1  3  2  0
  2  5  1  0
  4  2  1  0
  5  6  1  0
  7  6  1  0
  7  9  1  0
  8  7  1  0
 10  7  1  0
 11 12  1  0
 11 10  1  0
 13 12  1  0
 14 13  1  0
 15 26  2  0
 16 21  1  0
 16 14  1  0
 17 27  1  0
 17 25  1  0
 18 20  1  0
 19 25  1  0
 20 21  2  0
 20 19  1  0
 22 16  2  0
 23 22  1  0
 23 18  2  0
 24 18  1  0
 24 17  1  0
 25 15  1  0
 27 29  2  0
 28 27  1  0
 28 32  1  0
 30 28  1  0
 31 36  1  0
 35 31  1  0
 36 32  1  0
 36 37  2  0
 38 37  1  0
 39 38  2  0
 40 39  1  0
 40 31  2  0
 41 15  1  0
 41 46  1  0
 41 42  1  0
 42 43  1  1
 42 45  1  0
 44 42  1  0
 46 49  1  0
 47 51  1  0
 47 46  1  0
 48 47  2  0
 51 50  1  0
 51 53  1  0
 53 54  1  0
 53 52  1  0
 55  1  1  0
 56 55  1  0
 57 56  2  0
 58 57  1  0
 64 72  1  0
 65 66  1  0
 65 70  1  0
 66 67  1  0
 68 67  1  0
 68 77  1  0
 69 68  1  0
 70 69  1  0
 70 64  1  0
 71 64  2  0
 72 73  1  0
 74 75  2  0
 74 99  1  0
 75 94  1  0
 76 75  1  0
 77 74  1  0
 78 77  1  0
 78 76  2  0
 79 76  1  0
 79 84  1  0
 80 79  2  0
 81 80  1  0
 81 82  2  0
 82 83  1  0
 83 84  2  0
 85 82  1  0
 86 85  1  0
 86 87  1  0
 88 87  2  0
 89 88  1  0
 90 91  1  0
 90 89  2  0
 91 86  2  0
 92 91  1  0
 93 89  1  0
 94 95  1  0
 94 96  2  0
 95 98  1  0
 97 95  1  0
 99100  1  0
101 99  1  0
M  ISO  4  13 101  14 101  64 100  72 100
M  END
>  <TORSDO>  (86) 
F 32

>  <SCORE>  (86) 
-2.633

>  <name>  (86) 
86

>  <ligand_id>  (86) 
86

>  <original_smiles>  (86) 
[H]c1c([H])c([H])c2c(c1[H])C([H])([H])C([H])([H])C([H])([H])C2([H])N([H])C(=O)C1([H])N(C(=O)C([H])(N([H])C(=O)C([H])(N([H])C([H])([H])[H])C([H])([H])[H])C(C([H])([H])[H])(C([H])([H])[H])C([H])([H])[H])C([H])([H])c2c([H])c(OC([H])([H])C([H])([H])C([H])([H])C([H])([H])[N+]([H])([H])C([H])([H])C([H])([H])N([H])C(=O)C([H])([H])C([H])([H])C([H])([H])C([H])([H])C([H])([H])C([H])([H])C([H])([H])C([H])([H])C([H])([H])N([H])C(=O)N3C([H])([H])C([H])([H])C([H])([H])C([H])(n4nc(-c5c([H])c([H])c(Oc6c([H])c([H])c(F)c([H])c6F)c([H])c5[H])c(C(=O)N([H])[H])c4N([H])[H])C3([H])[H])c([H])c([H])c2C1([H])[H]

>  <smiles>  (86) 
[H]c1c([H])c([H])c2c(c1[H])C([H])([H])C([H])([H])C([H])([H])C2([H])N([H])C(=O)C1([H])N(C(=O)C([H])(N([H])C(=O)C([H])(N([H])C([H])([H])[H])C([H])([H])[H])C(C([H])([H])[H])(C([H])([H])[H])C([H])([H])[H])C([H])([H])c2c([H])c(OC([H])([H])C([H])([H])C([H])([H])C([H])([H])[N+]([H])([H])C([H])([H])C([H])([H])N([H])C(=O)C([H])([H])C([H])([H])C([H])([H])C([H])([H])C([H])([H])C([H])([H])C([H])([H])C([H])([H])C([H])([H])N([H])C(=O)N3C([H])([H])C([H])([H])C([H])([H])C([H])(n4nc(-c5c([H])c([H])c(Oc6c([H])c([H])c(F)c([H])c6F)c([H])c5[H])c(C(=O)N([H])[H])c4N([H])[H])C3([H])[H])c([H])c([H])c2C1([H])[H]

$$$$
87:0:0
     RDKit          3D

101108  0  0  1  0  0  0  0  0999 V2000
  -31.3730  -20.0970   24.1580 N   0  0  0  0  0  4  0  0  0  0  0  0
  -32.1900  -20.3970   24.6700 H   0  0  0  0  0  0  0  0  0  0  0  0
  -30.6580  -19.8930   24.8370 H   0  0  0  0  0  0  0  0  0  0  0  0
  -30.8580  -21.1780   23.2900 C   0  0  0  0  0  2  0  0  0  0  0  0
  -30.1890  -22.3470   24.0430 C   0  0  0  0  0  2  0  0  0  0  0  0
  -29.8370  -23.4740   23.0540 C   0  0  0  0  0  2  0  0  0  0  0  0
  -29.1120  -24.6800   23.6870 C   0  0  0  0  0  2  0  0  0  0  0  0
  -29.1700  -25.8690   22.8090 N   0  0  0  0  0  4  0  0  0  0  0  0
  -30.1220  -25.9850   22.5030 H   0  0  0  0  0  0  0  0  0  0  0  0
  -28.9380  -26.6810   23.3630 H   0  0  0  0  0  0  0  0  0  0  0  0
  -28.2600  -25.8370   21.6400 C   0  0  0  0  0  2  0  0  0  0  0  0
  -28.7850  -26.6720   20.4670 C   0  0  0  0  0  2  0  0  0  0  0  0
  -27.7520  -26.7340   19.4890 O   0  0  0  0  0  0  0  0  0  0  0  0
  -24.4130  -31.8950   23.1790 C   0  0  0  0  0  0  0  0  0  0  0  0
  -26.6460  -27.5160   19.7270 C   0  0  0  0  0  0  0  0  0  0  0  0
  -23.0260  -30.6140   21.5750 C   0  0  0  0  0  3  0  0  0  0  0  0
  -24.3040  -29.0700   20.0010 C   0  0  0  0  0  0  0  0  0  0  0  0
  -25.5390  -30.8770   21.2040 C   0  0  0  0  0  2  0  0  0  0  0  0
  -25.5160  -29.5270   20.5280 C   0  0  0  0  0  0  0  0  0  0  0  0
  -26.6860  -28.7570   20.4060 C   0  0  0  0  0  3  0  0  0  0  0  0
  -25.4160  -27.0640   19.2020 C   0  0  0  0  0  3  0  0  0  0  0  0
  -24.2430  -27.8290   19.3440 C   0  0  0  0  0  3  0  0  0  0  0  0
  -23.1040  -29.9710   20.1630 C   0  0  0  0  0  2  0  0  0  0  0  0
  -24.3480  -31.1420   22.0430 N   0  0  0  0  0  0  0  0  0  0  0  0
  -23.3880  -32.1950   23.8060 O   0  0  0  0  0  0  0  0  0  0  0  0
  -22.4020  -29.5820   22.5390 C   0  0  0  0  0  0  0  0  0  0  0  0
  -21.0730  -29.4090   22.4470 N   0  0  0  0  0  0  0  0  0  0  0  0
  -23.1080  -28.9400   23.3210 O   0  0  0  0  0  0  0  0  0  0  0  0
  -20.5660  -29.9760   21.7830 H   0  0  0  0  0  0  0  0  0  0  0  0
  -17.7130  -28.2070   22.9810 C   0  0  0  0  0  0  0  0  0  0  0  0
  -20.2730  -28.4660   23.2280 C   0  0  0  0  0  3  0  0  0  0  0  0
  -20.3730  -27.0370   22.6460 C   0  0  0  0  0  2  0  0  0  0  0  0
  -19.2600  -26.7160   21.6430 C   0  0  0  0  0  2  0  0  0  0  0  0
  -17.8860  -26.8570   22.3040 C   0  0  0  0  0  2  0  0  0  0  0  0
  -18.8350  -28.9700   23.4000 C   0  0  0  0  0  0  0  0  0  0  0  0
  -18.6220  -30.2340   23.9900 C   0  0  0  0  0  3  0  0  0  0  0  0
  -17.3190  -30.7340   24.1710 C   0  0  0  0  0  3  0  0  0  0  0  0
  -16.2100  -29.9650   23.7730 C   0  0  0  0  0  3  0  0  0  0  0  0
  -16.4100  -28.7040   23.1830 C   0  0  0  0  0  3  0  0  0  0  0  0
  -25.7700  -32.4350   23.7260 C   0  0  0  0  0  3  0  0  0  0  0  0
  -25.5690  -33.8410   24.1020 N   0  0  0  0  0  0  0  0  0  0  0  0
  -25.9420  -34.8850   23.3510 C   0  0  0  0  0  0  0  0  0  0  0  0
  -26.5620  -34.7640   22.2910 O   0  0  0  0  0  0  0  0  0  0  0  0
  -25.0090  -34.0170   24.9230 H   0  0  0  0  0  0  0  0  0  0  0  0
  -24.3150  -36.7890   23.1090 C   0  0  0  0  0  1  0  0  0  0  0  0
  -25.5630  -36.2900   23.8580 C   0  0  0  0  0  3  0  0  0  0  0  0
  -27.7830  -37.0160   24.6100 C   0  0  0  0  0  1  0  0  0  0  0  0
  -26.6530  -37.2780   23.7220 N   0  0  0  0  0  0  0  0  0  0  0  0
  -26.3120  -38.2170   23.9150 H   0  0  0  0  0  0  0  0  0  0  0  0
  -26.3310  -31.6020   24.9440 C   0  0  1  0  0  0  0  0  0  0  0  0
  -25.2960  -31.3840   26.0700 C   0  0  0  0  0  1  0  0  0  0  0  0
  -26.8240  -30.2130   24.4750 C   0  0  0  0  0  1  0  0  0  0  0  0
  -27.5610  -32.3220   25.5520 C   0  0  0  0  0  1  0  0  0  0  0  0
  -31.6370  -18.8120   23.4660 C   0  0  0  0  0  2  0  0  0  0  0  0
  -32.8040  -18.8050   22.4460 C   0  0  0  0  0  2  0  0  0  0  0  0
  -32.6120  -19.6720   21.1800 C   0  0  0  0  0  2  0  0  0  0  0  0
  -33.1940  -19.0540   19.8860 C   0  0  0  0  0  2  0  0  0  0  0  0
  -32.2470  -19.1850   18.6770 C   0  0  0  0  0  2  0  0  0  0  0  0
  -30.3850  -17.5240   18.6100 C   0  0  0  0  0  0  0  0  0  0  0  0
  -30.9250  -18.6730   19.0200 N   0  0  0  0  0  0  0  0  0  0  0  0
  -30.8620  -16.8290   17.7110 O   0  0  0  0  0  0  0  0  0  0  0  0
  -30.3940  -19.2100   19.6910 H   0  0  0  0  0  0  0  0  0  0  0  0
  -29.0830  -17.1230   19.3080 C   0  0  0  0  0  2  0  0  0  0  0  0
  -30.0440  -15.0070   20.4470 C   0  0  0  0  0  0  0  0  0  0  0  0
  -30.0310  -12.6720   19.7730 C   0  0  0  0  0  2  0  0  0  0  0  0
  -29.1790  -12.5770   18.4780 C   0  0  0  0  0  2  0  0  0  0  0  0
  -27.6700  -12.8950   18.6820 C   0  0  0  0  0  2  0  0  0  0  0  0
  -27.2790  -12.9060   20.1600 C   0  0  0  0  0  3  0  0  0  0  0  0
  -28.2040  -13.5330   21.2040 C   0  0  0  0  0  2  0  0  0  0  0  0
  -29.5230  -13.7770   20.5970 N   0  0  0  0  0  0  0  0  0  0  0  0
  -31.2460  -15.2250   20.3000 O   0  0  0  0  0  0  0  0  0  0  0  0
  -29.0880  -15.8970   20.1200 N   0  0  0  0  0  0  0  0  0  0  0  0
  -28.1630  -15.5280   20.2770 H   0  0  0  0  0  0  0  0  0  0  0  0
  -24.7890  -13.7400   20.6310 C   0  0  0  0  0  0  0  0  0  0  0  0
  -23.7120  -12.9490   20.9650 C   0  0  0  0  0  0  0  0  0  0  0  0
  -24.1970  -11.6100   20.9620 C   0  0  0  0  0  0  0  0  0  0  0  0
  -25.8600  -12.8480   20.4870 N   0  0  0  0  0  0  0  0  0  0  0  0
  -25.4740  -11.5850   20.7150 N   0  0  0  0  0  0  0  0  0  0  0  0
  -23.5570  -10.3150   21.1280 C   0  0  0  0  0  0  0  0  0  0  0  0
  -23.9920   -9.4160   22.1290 C   0  0  0  0  0  3  0  0  0  0  0  0
  -23.3730   -8.1580   22.2710 C   0  0  0  0  0  3  0  0  0  0  0  0
  -22.3130   -7.7980   21.4060 C   0  0  0  0  0  0  0  0  0  0  0  0
  -21.9060   -8.6870   20.3970 C   0  0  0  0  0  3  0  0  0  0  0  0
  -22.5270   -9.9340   20.2490 C   0  0  0  0  0  3  0  0  0  0  0  0
  -21.6560   -6.5960   21.4560 O   0  0  0  0  0  0  0  0  0  0  0  0
  -21.4850   -5.9300   22.6400 C   0  0  0  0  0  0  0  0  0  0  0  0
  -20.8150   -6.5150   23.7370 C   0  0  0  0  0  3  0  0  0  0  0  0
  -20.5940   -5.7610   24.9070 C   0  0  0  0  0  3  0  0  0  0  0  0
  -21.0370   -4.4250   24.9760 C   0  0  0  0  0  0  0  0  0  0  0  0
  -21.7020   -3.8440   23.8830 C   0  0  0  0  0  3  0  0  0  0  0  0
  -21.9210   -4.5930   22.7140 C   0  0  0  0  0  0  0  0  0  0  0  0
  -22.5380   -4.0230   21.6520 F   0  0  0  0  0  0  0  0  0  0  0  0
  -20.8170   -3.6950   26.0950 F   0  0  0  0  0  0  0  0  0  0  0  0
  -22.2840  -13.3630   21.1770 C   0  0  0  0  0  0  0  0  0  0  0  0
  -21.5540  -12.6150   21.9980 N   0  0  0  0  0  0  0  0  0  0  0  0
  -21.8160  -14.3670   20.6430 O   0  0  0  0  0  0  0  0  0  0  0  0
  -21.9550  -11.8100   22.4580 H   0  0  0  0  0  0  0  0  0  0  0  0
  -20.5920  -12.8600   22.1840 H   0  0  0  0  0  0  0  0  0  0  0  0
  -24.9170  -15.1120   20.4330 N   0  0  0  0  0  0  0  0  0  0  0  0
  -24.1080  -15.7230   20.4560 H   0  0  0  0  0  0  0  0  0  0  0  0
  -25.7470  -15.5680   20.0750 H   0  0  0  0  0  0  0  0  0  0  0  0
  1  2  1  0
  1  3  1  0
  4  5  1  0
  4  1  1  0
  6  7  1  0
  6  5  1  0
  8 10  1  0
  8  7  1  0
  9  8  1  0
 11  8  1  0
 12 11  1  0
 13 15  1  0
 13 12  1  0
 14 25  2  0
 15 20  1  0
 16 24  1  0
 16 26  1  0
 17 23  1  0
 17 19  1  0
 18 24  1  0
 19 18  1  0
 20 19  2  0
 21 22  1  0
 21 15  2  0
 22 17  2  0
 23 16  1  0
 24 14  1  0
 26 28  2  0
 27 26  1  0
 29 27  1  0
 30 39  2  0
 30 35  1  0
 31 27  1  0
 31 35  1  0
 32 31  1  0
 33 34  1  0
 33 32  1  0
 34 30  1  0
 35 36  2  0
 36 37  1  0
 38 37  2  0
 39 38  1  0
 40 14  1  0
 40 41  1  0
 40 50  1  0
 41 44  1  0
 42 46  1  0
 42 41  1  0
 43 42  2  0
 46 45  1  0
 48 46  1  0
 48 49  1  0
 48 47  1  0
 50 53  1  1
 50 51  1  0
 52 50  1  0
 54  1  1  0
 55 54  1  0
 56 55  1  0
 57 56  1  0
 58 60  1  0
 58 57  1  0
 59 60  1  0
 59 63  1  0
 60 62  1  0
 61 59  2  0
 63 72  1  0
 64 70  1  0
 65 70  1  0
 66 67  1  0
 66 65  1  0
 68 67  1  0
 68 77  1  0
 68 69  1  0
 70 69  1  0
 71 64  2  0
 72 73  1  0
 72 64  1  0
 74 75  2  0
 75 94  1  0
 76 75  1  0
 76 79  1  0
 77 74  1  0
 77 78  1  0
 78 76  2  0
 79 80  1  0
 80 81  2  0
 82 85  1  0
 82 81  1  0
 83 82  2  0
 84 83  1  0
 84 79  2  0
 85 86  1  0
 86 91  2  0
 86 87  1  0
 87 88  2  0
 88 89  1  0
 89 93  1  0
 90 89  2  0
 91 90  1  0
 92 91  1  0
 94 95  1  0
 95 98  1  0
 95 97  1  0
 96 94  2  0
 99100  1  0
 99 74  1  0
101 99  1  0
M  ISO  4  12 101  13 101  64 100  72 100
M  END
>  <TORSDO>  (87) 
F 30

>  <SCORE>  (87) 
-9.225

>  <name>  (87) 
87

>  <ligand_id>  (87) 
87

>  <original_smiles>  (87) 
[H]c1c([H])c([H])c2c(c1[H])C([H])([H])C([H])([H])C([H])([H])C2([H])N([H])C(=O)C1([H])N(C(=O)C([H])(N([H])C(=O)C([H])(N([H])C([H])([H])[H])C([H])([H])[H])C(C([H])([H])[H])(C([H])([H])[H])C([H])([H])[H])C([H])([H])c2c([H])c(OC([H])([H])C([H])([H])[N+]([H])([H])C([H])([H])C([H])([H])C([H])([H])C([H])([H])[N+]([H])([H])C([H])([H])C([H])([H])C([H])([H])C([H])([H])C([H])([H])N([H])C(=O)C([H])([H])N([H])C(=O)N3C([H])([H])C([H])([H])C([H])([H])C([H])(n4nc(-c5c([H])c([H])c(Oc6c([H])c([H])c(F)c([H])c6F)c([H])c5[H])c(C(=O)N([H])[H])c4N([H])[H])C3([H])[H])c([H])c([H])c2C1([H])[H]

>  <smiles>  (87) 
[H]c1c([H])c([H])c2c(c1[H])C([H])([H])C([H])([H])C([H])([H])C2([H])N([H])C(=O)C1([H])N(C(=O)C([H])(N([H])C(=O)C([H])(N([H])C([H])([H])[H])C([H])([H])[H])C(C([H])([H])[H])(C([H])([H])[H])C([H])([H])[H])C([H])([H])c2c([H])c(OC([H])([H])C([H])([H])[N+]([H])([H])C([H])([H])C([H])([H])C([H])([H])C([H])([H])[N+]([H])([H])C([H])([H])C([H])([H])C([H])([H])C([H])([H])C([H])([H])N([H])C(=O)C([H])([H])N([H])C(=O)N3C([H])([H])C([H])([H])C([H])([H])C([H])(n4nc(-c5c([H])c([H])c(Oc6c([H])c([H])c(F)c([H])c6F)c([H])c5[H])c(C(=O)N([H])[H])c4N([H])[H])C3([H])[H])c([H])c([H])c2C1([H])[H]

$$$$
88:0:0
     RDKit          3D

 97104  0  0  1  0  0  0  0  0999 V2000
  -27.3270  -16.5400   20.5920 C   0  0  0  0  0  2  0  0  0  0  0  0
  -28.9050  -18.5220   19.2130 C   0  0  0  0  0  0  0  0  0  0  0  0
  -27.6830  -17.9440   19.7900 N   0  0  0  0  0  0  0  0  0  0  0  0
  -29.9410  -17.9260   19.5050 O   0  0  0  0  0  0  0  0  0  0  0  0
  -26.8580  -18.4680   19.5240 H   0  0  0  0  0  0  0  0  0  0  0  0
  -29.1480  -19.8550   18.1290 C   0  0  0  0  0  2  0  0  0  0  0  0
  -30.2600  -21.2530   18.1470 C   0  0  0  0  0  3  0  0  0  0  0  0
  -30.3260  -22.7380   17.1640 C   0  0  0  0  0  3  0  0  0  0  0  0
  -31.0130  -24.2360   17.2440 O   0  0  0  0  0  0  0  0  0  0  0  0
  -25.6800  -27.7560   20.6950 C   0  0  0  0  0  0  0  0  0  0  0  0
  -30.2360  -25.4640   17.3060 C   0  0  0  0  0  0  0  0  0  0  0  0
  -25.7130  -27.6490   18.2390 C   0  0  0  0  0  3  0  0  0  0  0  0
  -27.9900  -27.2500   17.1300 C   0  0  0  0  0  0  0  0  0  0  0  0
  -27.9270  -27.8460   19.5380 C   0  0  0  0  0  2  0  0  0  0  0  0
  -28.6170  -27.1040   18.3730 C   0  0  0  0  0  0  0  0  0  0  0  0
  -29.7650  -26.2220   18.4670 C   0  0  0  0  0  3  0  0  0  0  0  0
  -29.7210  -25.8990   16.0790 C   0  0  0  0  0  3  0  0  0  0  0  0
  -28.5840  -26.7110   15.9870 C   0  0  0  0  0  3  0  0  0  0  0  0
  -26.6590  -27.9760   17.0540 C   0  0  0  0  0  2  0  0  0  0  0  0
  -26.4300  -27.7420   19.5520 N   0  0  0  0  0  0  0  0  0  0  0  0
  -24.4410  -27.6930   20.6590 O   0  0  0  0  0  0  0  0  0  0  0  0
  -25.0330  -26.2710   18.0180 C   0  0  0  0  0  0  0  0  0  0  0  0
  -24.0270  -26.2150   17.1280 N   0  0  0  0  0  0  0  0  0  0  0  0
  -25.4220  -25.2770   18.6390 O   0  0  0  0  0  0  0  0  0  0  0  0
  -23.7540  -27.0730   16.6700 H   0  0  0  0  0  0  0  0  0  0  0  0
  -21.3830  -24.9650   14.9880 C   0  0  0  0  0  0  0  0  0  0  0  0
  -23.2770  -25.0130   16.7490 C   0  0  0  0  0  3  0  0  0  0  0  0
  -24.0810  -24.1440   15.7560 C   0  0  0  0  0  2  0  0  0  0  0  0
  -23.7600  -24.4510   14.2900 C   0  0  0  0  0  2  0  0  0  0  0  0
  -22.2720  -24.2220   14.0060 C   0  0  0  0  0  2  0  0  0  0  0  0
  -21.8580  -25.3490   16.2700 C   0  0  0  0  0  0  0  0  0  0  0  0
  -20.9960  -26.0620   17.1330 C   0  0  0  0  0  3  0  0  0  0  0  0
  -19.6870  -26.3920   16.7320 C   0  0  0  0  0  3  0  0  0  0  0  0
  -19.2180  -25.9970   15.4680 C   0  0  0  0  0  3  0  0  0  0  0  0
  -20.0630  -25.2820   14.6010 C   0  0  0  0  0  3  0  0  0  0  0  0
  -26.3420  -27.8720   22.1000 C   0  0  0  0  0  3  0  0  0  0  0  0
  -25.4410  -28.6650   22.9520 N   0  0  0  0  0  0  0  0  0  0  0  0
  -25.6370  -29.9490   23.2870 C   0  0  0  0  0  0  0  0  0  0  0  0
  -26.6440  -30.5770   22.9550 O   0  0  0  0  0  0  0  0  0  0  0  0
  -24.5660  -28.2330   23.2100 H   0  0  0  0  0  0  0  0  0  0  0  0
  -23.6650  -31.5150   23.2100 C   0  0  0  0  0  1  0  0  0  0  0  0
  -24.5430  -30.6440   24.1230 C   0  0  0  0  0  3  0  0  0  0  0  0
  -25.6760  -30.6810   26.3020 C   0  0  0  0  0  1  0  0  0  0  0  0
  -25.0790  -31.4690   25.2270 N   0  0  0  0  0  0  0  0  0  0  0  0
  -24.3500  -32.0520   25.6270 H   0  0  0  0  0  0  0  0  0  0  0  0
  -26.6300  -26.4690   22.7660 C   0  0  1  0  0  0  0  0  0  0  0  0
  -25.4010  -25.5280   22.7900 C   0  0  0  0  0  1  0  0  0  0  0  0
  -27.7680  -25.7290   22.0280 C   0  0  0  0  0  1  0  0  0  0  0  0
  -27.1070  -26.6710   24.2230 C   0  0  0  0  0  1  0  0  0  0  0  0
  -26.2400  -15.1590   20.2590 C   0  0  0  0  0  2  0  0  0  0  0  0
  -26.3960  -13.3480   19.9770 C   0  0  0  0  0  2  0  0  0  0  0  0
  -26.8210  -12.1680   18.5660 C   0  0  0  0  0  2  0  0  0  0  0  0
  -28.3450  -11.8920   17.4250 C   0  0  0  0  0  3  0  0  0  0  0  0
  -30.2430  -11.5740   17.6880 C   0  0  0  0  0  3  0  0  0  0  0  0
  -31.3620  -11.3950   18.9910 N   0  0  0  0  0  4  0  0  0  0  0  0
  -30.8480  -11.8150   19.7660 H   0  0  0  0  0  0  0  0  0  0  0  0
  -32.0620  -12.0840   18.7660 H   0  0  0  0  0  0  0  0  0  0  0  0
  -32.2910  -10.2130   19.7020 C   0  0  0  0  0  3  0  0  0  0  0  0
  -33.7500  -10.2430   20.8770 C   0  0  0  0  0  3  0  0  0  0  0  0
  -34.9080   -8.3620   23.1190 C   0  0  0  0  0  0  0  0  0  0  0  0
  -33.8830   -6.2510   22.8110 C   0  0  0  0  0  2  0  0  0  0  0  0
  -33.5370   -6.5940   21.3630 C   0  0  0  0  0  2  0  0  0  0  0  0
  -32.3490   -7.5930   21.3210 C   0  0  0  0  0  2  0  0  0  0  0  0
  -32.1560   -8.5980   22.5800 C   0  0  0  0  0  3  0  0  0  0  0  0
  -32.5610   -7.9940   23.8710 C   0  0  0  0  0  2  0  0  0  0  0  0
  -33.8920   -7.5370   23.5000 N   0  0  0  0  0  0  0  0  0  0  0  0
  -35.9790   -8.0060   23.6710 O   0  0  0  0  0  0  0  0  0  0  0  0
  -34.7480   -9.2050   21.8610 N   0  0  0  0  0  0  0  0  0  0  0  0
  -35.6960   -9.3710   21.5540 H   0  0  0  0  0  0  0  0  0  0  0  0
  -31.2970  -10.9780   22.4560 C   0  0  0  0  0  0  0  0  0  0  0  0
  -30.1190  -11.4500   22.0920 C   0  0  0  0  0  0  0  0  0  0  0  0
  -29.2460  -10.1640   22.1420 C   0  0  0  0  0  0  0  0  0  0  0  0
  -31.1670   -9.5930   22.5680 N   0  0  0  0  0  0  0  0  0  0  0  0
  -29.9600   -9.1240   22.4430 N   0  0  0  0  0  0  0  0  0  0  0  0
  -27.8460   -9.5680   21.8900 C   0  0  0  0  0  0  0  0  0  0  0  0
  -27.1590   -8.8450   22.8940 C   0  0  0  0  0  3  0  0  0  0  0  0
  -25.8080   -8.4480   22.7300 C   0  0  0  0  0  3  0  0  0  0  0  0
  -25.0760   -8.8460   21.5860 C   0  0  0  0  0  0  0  0  0  0  0  0
  -25.7760   -9.4300   20.5320 C   0  0  0  0  0  3  0  0  0  0  0  0
  -27.1660   -9.5790   20.6460 C   0  0  0  0  0  3  0  0  0  0  0  0
  -23.7430   -8.6050   21.3600 O   0  0  0  0  0  0  0  0  0  0  0  0
  -22.9360   -8.0600   22.3210 C   0  0  0  0  0  0  0  0  0  0  0  0
  -22.5910   -8.7810   23.4850 C   0  0  0  0  0  3  0  0  0  0  0  0
  -21.7080   -8.2160   24.4240 C   0  0  0  0  0  3  0  0  0  0  0  0
  -21.1650   -6.9380   24.1990 C   0  0  0  0  0  0  0  0  0  0  0  0
  -21.5010   -6.2220   23.0360 C   0  0  0  0  0  3  0  0  0  0  0  0
  -22.3820   -6.7840   22.0950 C   0  0  0  0  0  0  0  0  0  0  0  0
  -22.6880   -6.1000   20.9660 F   0  0  0  0  0  0  0  0  0  0  0  0
  -20.3140   -6.3970   25.1020 F   0  0  0  0  0  0  0  0  0  0  0  0
  -30.1580  -13.0050   21.5240 C   0  0  0  0  0  0  0  0  0  0  0  0
  -29.1970  -13.8740   21.1680 N   0  0  0  0  0  0  0  0  0  0  0  0
  -31.1570  -13.5270   21.1350 O   0  0  0  0  0  0  0  0  0  0  0  0
  -28.2300  -13.6380   21.3390 H   0  0  0  0  0  0  0  0  0  0  0  0
  -29.4540  -14.7590   20.7580 H   0  0  0  0  0  0  0  0  0  0  0  0
  -32.4770  -11.6910   22.5010 N   0  0  0  0  0  0  0  0  0  0  0  0
  -32.4900  -12.6980   22.4030 H   0  0  0  0  0  0  0  0  0  0  0  0
  -33.2970  -11.3330   22.9710 H   0  0  0  0  0  0  0  0  0  0  0  0
  2  4  2  0
  2  3  1  0
  3  1  1  0
  5  3  1  0
  6  7  1  0
  6  2  1  0
  8  9  1  0
  8  7  2  0
  9 11  1  0
 11 16  1  0
 12 22  1  0
 12 20  1  0
 13 15  1  0
 14 20  1  0
 15 16  2  0
 15 14  1  0
 17 11  2  0
 18 17  1  0
 18 13  2  0
 19 13  1  0
 19 12  1  0
 20 10  1  0
 21 10  2  0
 22 24  2  0
 23 22  1  0
 25 23  1  0
 26 31  1  0
 27 23  1  0
 28 27  1  0
 29 28  1  0
 30 29  1  0
 30 26  1  0
 31 27  1  0
 31 32  2  0
 33 32  1  0
 34 33  2  0
 35 26  2  0
 35 34  1  0
 36 10  1  0
 36 46  1  0
 36 37  1  0
 37 40  1  0
 37 38  1  0
 38 42  1  0
 39 38  2  0
 42 41  1  0
 42 44  1  0
 44 45  1  0
 44 43  1  0
 46 47  1  1
 46 49  1  0
 48 46  1  0
 50  1  1  0
 51 50  1  0
 52 51  1  0
 53 54  2  0
 53 52  1  0
 54 55  1  0
 55 58  1  0
 55 56  1  0
 57 55  1  0
 58 59  2  0
 59 68  1  0
 60 66  1  0
 60 67  2  0
 61 66  1  0
 62 61  1  0
 63 62  1  0
 64 63  1  0
 64 65  1  0
 66 65  1  0
 68 60  1  0
 69 68  1  0
 70 95  1  0
 70 73  1  0
 71 72  1  0
 71 70  2  0
 72 74  2  0
 73 64  1  0
 74 73  1  0
 75 72  1  0
 75 76  1  0
 77 76  2  0
 78 77  1  0
 79 80  1  0
 79 78  2  0
 80 75  2  0
 81 78  1  0
 81 82  1  0
 82 83  1  0
 83 84  2  0
 85 84  1  0
 85 89  1  0
 86 85  2  0
 87 82  2  0
 87 86  1  0
 88 87  1  0
 90 71  1  0
 91 93  1  0
 91 90  1  0
 92 90  2  0
 94 91  1  0
 95 97  1  0
 96 95  1  0
M  ISO  4   8 101   9 101  60 100  68 100
M  END
>  <TORSDO>  (88) 
F 28

>  <SCORE>  (88) 
-8.230

>  <name>  (88) 
88

>  <ligand_id>  (88) 
88

>  <original_smiles>  (88) 
[H]c1c([H])c([H])c2c(c1[H])C([H])([H])C([H])([H])C([H])([H])C2([H])N([H])C(=O)C1([H])N(C(=O)C([H])(N([H])C(=O)C([H])(N([H])C([H])([H])[H])C([H])([H])[H])C(C([H])([H])[H])(C([H])([H])[H])C([H])([H])[H])C([H])([H])c2c([H])c(OC([H])([H])C([H])([H])C([H])([H])C(=O)N([H])C([H])([H])C([H])([H])C([H])([H])C([H])([H])C([H])([H])C([H])([H])[N+]([H])([H])C([H])([H])C([H])([H])N([H])C(=O)N3C([H])([H])C([H])([H])C([H])([H])C([H])(n4nc(-c5c([H])c([H])c(Oc6c([H])c([H])c(F)c([H])c6F)c([H])c5[H])c(C(=O)N([H])[H])c4N([H])[H])C3([H])[H])c([H])c([H])c2C1([H])[H]

>  <smiles>  (88) 
[H]c1c([H])c([H])c2c(c1[H])C([H])([H])C([H])([H])C([H])([H])C2([H])N([H])C(=O)C1([H])N(C(=O)C([H])(N([H])C(=O)C([H])(N([H])C([H])([H])[H])C([H])([H])[H])C(C([H])([H])[H])(C([H])([H])[H])C([H])([H])[H])C([H])([H])c2c([H])c(OC([H])([H])C([H])([H])C([H])([H])C(=O)N([H])C([H])([H])C([H])([H])C([H])([H])C([H])([H])C([H])([H])C([H])([H])[N+]([H])([H])C([H])([H])C([H])([H])N([H])C(=O)N3C([H])([H])C([H])([H])C([H])([H])C([H])(n4nc(-c5c([H])c([H])c(Oc6c([H])c([H])c(F)c([H])c6F)c([H])c5[H])c(C(=O)N([H])[H])c4N([H])[H])C3([H])[H])c([H])c([H])c2C1([H])[H]

$$$$
89:0:0
     RDKit          3D

 93100  0  0  1  0  0  0  0  0999 V2000
  -26.9760  -22.9280   21.2710 N   0  0  0  0  0  4  0  0  0  0  0  0
  -26.8670  -22.7500   20.2850 H   0  0  0  0  0  0  0  0  0  0  0  0
  -26.0940  -22.6900   21.7010 H   0  0  0  0  0  0  0  0  0  0  0  0
  -27.9950  -22.0130   21.8400 C   0  0  0  0  0  2  0  0  0  0  0  0
  -27.8070  -20.5590   21.3520 C   0  0  0  0  0  2  0  0  0  0  0  0
  -28.5440  -20.1850   20.0470 C   0  0  0  0  0  2  0  0  0  0  0  0
  -30.6380  -19.8860   21.7230 O   0  0  0  0  0  0  0  0  0  0  0  0
  -31.0600  -20.9650   19.4770 O   0  0  0  0  0  0  0  0  0  0  0  0
  -30.3560  -19.9530   20.2810 S   0  0  2  0  0  0  0  0  0  0  0  0
  -30.6450  -18.2910   19.5430 C   0  0  0  0  0  2  0  0  0  0  0  0
  -31.8530  -17.5390   20.1520 C   0  0  0  0  0  2  0  0  0  0  0  0
  -32.1000  -15.0680   19.6180 C   0  0  0  0  0  0  0  0  0  0  0  0
  -31.7100  -12.7100   18.9760 C   0  0  0  0  0  2  0  0  0  0  0  0
  -30.7330  -12.6380   17.7870 C   0  0  0  0  0  2  0  0  0  0  0  0
  -29.2680  -12.6650   18.2690 C   0  0  0  0  0  2  0  0  0  0  0  0
  -28.9950  -13.8120   19.2770 C   0  0  0  0  0  3  0  0  0  0  0  0
  -30.0620  -13.8050   20.3920 C   0  0  0  0  0  2  0  0  0  0  0  0
  -31.3940  -13.9150   19.7580 N   0  0  0  0  0  0  0  0  0  0  0  0
  -33.1220  -15.1740   18.9310 O   0  0  0  0  0  0  0  0  0  0  0  0
  -31.5570  -16.1080   20.2630 N   0  0  0  0  0  0  0  0  0  0  0  0
  -30.7870  -15.8620   20.8700 H   0  0  0  0  0  0  0  0  0  0  0  0
  -26.7740  -14.7560   20.1830 C   0  0  0  0  0  0  0  0  0  0  0  0
  -25.6170  -14.1420   20.5820 C   0  0  0  0  0  0  0  0  0  0  0  0
  -25.8460  -12.7400   20.4380 C   0  0  0  0  0  0  0  0  0  0  0  0
  -27.6430  -13.7350   19.8270 N   0  0  0  0  0  0  0  0  0  0  0  0
  -27.0890  -12.5140   20.0320 N   0  0  0  0  0  0  0  0  0  0  0  0
  -24.9360  -11.5990   20.6060 C   0  0  0  0  0  0  0  0  0  0  0  0
  -25.2540  -10.5220   21.4620 C   0  0  0  0  0  3  0  0  0  0  0  0
  -24.3570   -9.4450   21.6200 C   0  0  0  0  0  3  0  0  0  0  0  0
  -23.1270   -9.4380   20.9220 C   0  0  0  0  0  0  0  0  0  0  0  0
  -22.8240  -10.5040   20.0560 C   0  0  0  0  0  3  0  0  0  0  0  0
  -23.7190  -11.5730   19.8960 C   0  0  0  0  0  3  0  0  0  0  0  0
  -22.2040   -8.4230   20.9950 O   0  0  0  0  0  0  0  0  0  0  0  0
  -22.0490   -7.6690   22.1310 C   0  0  0  0  0  0  0  0  0  0  0  0
  -21.7410   -8.2570   23.3770 C   0  0  0  0  0  3  0  0  0  0  0  0
  -21.5200   -7.4410   24.5040 C   0  0  0  0  0  3  0  0  0  0  0  0
  -21.5980   -6.0400   24.3870 C   0  0  0  0  0  0  0  0  0  0  0  0
  -21.9000   -5.4530   23.1470 C   0  0  0  0  0  3  0  0  0  0  0  0
  -22.1220   -6.2660   22.0200 C   0  0  0  0  0  0  0  0  0  0  0  0
  -22.3910   -5.6950   20.8220 F   0  0  0  0  0  0  0  0  0  0  0  0
  -21.3790   -5.2570   25.4680 F   0  0  0  0  0  0  0  0  0  0  0  0
  -24.3370  -14.8170   20.9850 C   0  0  0  0  0  0  0  0  0  0  0  0
  -23.5700  -14.1920   21.8720 N   0  0  0  0  0  0  0  0  0  0  0  0
  -24.0340  -15.9290   20.5520 O   0  0  0  0  0  0  0  0  0  0  0  0
  -23.8300  -13.2920   22.2450 H   0  0  0  0  0  0  0  0  0  0  0  0
  -22.7100  -14.6230   22.1850 H   0  0  0  0  0  0  0  0  0  0  0  0
  -27.1510  -16.0900   20.0730 N   0  0  0  0  0  0  0  0  0  0  0  0
  -26.4940  -16.8430   20.2520 H   0  0  0  0  0  0  0  0  0  0  0  0
  -28.0130  -16.4060   19.6470 H   0  0  0  0  0  0  0  0  0  0  0  0
  -27.1960  -24.3790   21.5010 C   0  0  0  0  0  2  0  0  0  0  0  0
  -28.5500  -24.8910   20.9560 C   0  0  0  0  0  2  0  0  0  0  0  0
  -28.7190  -26.4280   20.9580 C   0  0  0  0  0  2  0  0  0  0  0  0
  -28.2820  -27.0240   19.7330 O   0  0  0  0  0  0  0  0  0  0  0  0
  -24.6990  -31.9670   23.3790 C   0  0  0  0  0  0  0  0  0  0  0  0
  -27.1520  -27.7890   19.8480 C   0  0  0  0  0  0  0  0  0  0  0  0
  -23.4020  -30.7000   21.6950 C   0  0  0  0  0  3  0  0  0  0  0  0
  -24.7760  -29.2850   20.0760 C   0  0  0  0  0  0  0  0  0  0  0  0
  -25.9120  -31.0810   21.3930 C   0  0  0  0  0  2  0  0  0  0  0  0
  -25.9610  -29.7600   20.6570 C   0  0  0  0  0  0  0  0  0  0  0  0
  -27.1540  -29.0150   20.5500 C   0  0  0  0  0  3  0  0  0  0  0  0
  -25.9650  -27.3380   19.2390 C   0  0  0  0  0  3  0  0  0  0  0  0
  -24.7720  -28.0730   19.3630 C   0  0  0  0  0  3  0  0  0  0  0  0
  -23.5390  -30.1320   20.2560 C   0  0  0  0  0  2  0  0  0  0  0  0
  -24.6940  -31.2560   22.2170 N   0  0  0  0  0  0  0  0  0  0  0  0
  -23.6470  -32.1970   23.9910 O   0  0  0  0  0  0  0  0  0  0  0  0
  -22.7950  -29.6060   22.6040 C   0  0  0  0  0  0  0  0  0  0  0  0
  -21.4760  -29.3870   22.4760 N   0  0  0  0  0  0  0  0  0  0  0  0
  -23.5060  -28.9590   23.3780 O   0  0  0  0  0  0  0  0  0  0  0  0
  -20.9620  -29.9650   21.8250 H   0  0  0  0  0  0  0  0  0  0  0  0
  -18.1710  -27.9810   22.8500 C   0  0  0  0  0  0  0  0  0  0  0  0
  -20.6980  -28.3830   23.2020 C   0  0  0  0  0  3  0  0  0  0  0  0
  -20.9050  -26.9770   22.5940 C   0  0  0  0  0  2  0  0  0  0  0  0
  -19.8520  -26.6110   21.5430 C   0  0  0  0  0  2  0  0  0  0  0  0
  -18.4470  -26.6600   22.1520 C   0  0  0  0  0  2  0  0  0  0  0  0
  -19.2300  -28.7980   23.3290 C   0  0  0  0  0  0  0  0  0  0  0  0
  -18.9200  -30.0310   23.9420 C   0  0  0  0  0  3  0  0  0  0  0  0
  -17.5830  -30.4520   24.0810 C   0  0  0  0  0  3  0  0  0  0  0  0
  -16.5390  -29.6300   23.6220 C   0  0  0  0  0  3  0  0  0  0  0  0
  -16.8330  -28.3970   23.0130 C   0  0  0  0  0  3  0  0  0  0  0  0
  -26.0170  -32.5470   23.9780 C   0  0  0  0  0  3  0  0  0  0  0  0
  -26.5660  -31.7090   25.1960 C   0  0  1  0  0  0  0  0  0  0  0  0
  -25.5070  -31.4360   26.2900 C   0  0  0  0  0  1  0  0  0  0  0  0
  -27.1130  -30.3440   24.7160 C   0  0  0  0  0  1  0  0  0  0  0  0
  -27.7520  -32.4530   25.8540 C   0  0  0  0  0  1  0  0  0  0  0  0
  -25.7500  -33.9330   24.3750 N   0  0  0  0  0  0  0  0  0  0  0  0
  -26.0960  -35.0110   23.6590 C   0  0  0  0  0  0  0  0  0  0  0  0
  -26.7490  -34.9380   22.6140 O   0  0  0  0  0  0  0  0  0  0  0  0
  -25.1740  -34.0680   25.1930 H   0  0  0  0  0  0  0  0  0  0  0  0
  -24.4050  -36.8560   23.4160 C   0  0  0  0  0  1  0  0  0  0  0  0
  -25.6510  -36.3880   24.1860 C   0  0  0  0  0  3  0  0  0  0  0  0
  -27.8230  -37.1820   25.0080 C   0  0  0  0  0  1  0  0  0  0  0  0
  -26.7050  -37.4210   24.0990 N   0  0  0  0  0  0  0  0  0  0  0  0
  -26.3250  -38.3420   24.3010 H   0  0  0  0  0  0  0  0  0  0  0  0
  1 50  1  0
  1  3  1  0
  1  4  1  0
  2  1  1  0
  5  4  1  0
  9  6  1  1
  6  5  1  0
  8  9  2  0
  9  7  2  0
 10 11  1  0
 10  9  1  0
 11 20  1  0
 12 18  1  0
 12 20  1  0
 13 18  1  0
 14 15  1  0
 14 13  1  0
 16 15  1  0
 16 25  1  0
 16 17  1  0
 18 17  1  0
 19 12  2  0
 20 21  1  0
 22 23  2  0
 23 42  1  0
 24 23  1  0
 24 27  1  0
 25 26  1  0
 25 22  1  0
 26 24  2  0
 27 28  1  0
 28 29  2  0
 30 33  1  0
 30 29  1  0
 31 30  2  0
 32 31  1  0
 32 27  2  0
 33 34  1  0
 34 35  1  0
 35 36  2  0
 37 36  1  0
 37 41  1  0
 38 37  2  0
 39 34  2  0
 39 38  1  0
 40 39  1  0
 42 43  1  0
 43 46  1  0
 43 45  1  0
 44 42  2  0
 47 22  1  0
 47 48  1  0
 49 47  1  0
 51 52  1  0
 51 50  1  0
 53 55  1  0
 53 52  1  0
 54 65  2  0
 55 60  1  0
 56 64  1  0
 56 66  1  0
 57 63  1  0
 57 59  1  0
 58 64  1  0
 59 58  1  0
 60 59  2  0
 61 62  1  0
 61 55  2  0
 62 57  2  0
 63 56  1  0
 64 54  1  0
 66 68  2  0
 67 66  1  0
 69 67  1  0
 70 79  2  0
 70 75  1  0
 71 67  1  0
 71 75  1  0
 72 71  1  0
 73 74  1  0
 73 72  1  0
 74 70  1  0
 75 76  2  0
 76 77  1  0
 78 77  2  0
 79 78  1  0
 80 54  1  0
 80 85  1  0
 80 81  1  0
 81 84  1  1
 81 82  1  0
 83 81  1  0
 85 88  1  0
 86 90  1  0
 86 85  1  0
 87 86  2  0
 90 89  1  0
 92 90  1  0
 92 93  1  0
 92 91  1  0
M  ISO  4  12 100  20 100  52 101  53 101
M  END
>  <TORSDO>  (89) 
F 25

>  <SCORE>  (89) 
-9.458

>  <name>  (89) 
89

>  <ligand_id>  (89) 
89

>  <original_smiles>  (89) 
[H]c1c([H])c([H])c2c(c1[H])C([H])([H])C([H])([H])C([H])([H])C2([H])N([H])C(=O)C1([H])N(C(=O)C([H])(N([H])C(=O)C([H])(N([H])C([H])([H])[H])C([H])([H])[H])C(C([H])([H])[H])(C([H])([H])[H])C([H])([H])[H])C([H])([H])c2c([H])c(OC([H])([H])C([H])([H])C([H])([H])[N+]([H])([H])C([H])([H])C([H])([H])C([H])([H])S(=O)(=O)C([H])([H])C([H])([H])N([H])C(=O)N3C([H])([H])C([H])([H])C([H])([H])C([H])(n4nc(-c5c([H])c([H])c(Oc6c([H])c([H])c(F)c([H])c6F)c([H])c5[H])c(C(=O)N([H])[H])c4N([H])[H])C3([H])[H])c([H])c([H])c2C1([H])[H]

>  <smiles>  (89) 
[H]c1c([H])c([H])c2c(c1[H])C([H])([H])C([H])([H])C([H])([H])C2([H])N([H])C(=O)C1([H])N(C(=O)C([H])(N([H])C(=O)C([H])(N([H])C([H])([H])[H])C([H])([H])[H])C(C([H])([H])[H])(C([H])([H])[H])C([H])([H])[H])C([H])([H])c2c([H])c(OC([H])([H])C([H])([H])C([H])([H])[N+]([H])([H])C([H])([H])C([H])([H])C([H])([H])S(=O)(=O)C([H])([H])C([H])([H])N([H])C(=O)N3C([H])([H])C([H])([H])C([H])([H])C([H])(n4nc(-c5c([H])c([H])c(Oc6c([H])c([H])c(F)c([H])c6F)c([H])c5[H])c(C(=O)N([H])[H])c4N([H])[H])C3([H])[H])c([H])c([H])c2C1([H])[H]

$$$$
90:0:0
     RDKit          3D

106113  0  0  1  0  0  0  0  0999 V2000
  -22.0430  -23.8640   21.5700 C   0  0  0  0  0  0  0  0  0  0  0  0
  -21.0580  -23.0990   21.0860 N   0  0  0  0  0  0  0  0  0  0  0  0
  -22.1920  -25.0490   21.2570 O   0  0  0  0  0  0  0  0  0  0  0  0
  -20.9980  -22.1500   21.4360 H   0  0  0  0  0  0  0  0  0  0  0  0
  -20.0950  -23.4780   20.0540 C   0  0  0  0  0  2  0  0  0  0  0  0
  -20.3770  -22.7550   18.7210 C   0  0  0  0  0  2  0  0  0  0  0  0
  -21.6210  -23.2830   17.9890 C   0  0  0  0  0  2  0  0  0  0  0  0
  -22.2640  -22.2550   17.0480 C   0  0  0  0  0  2  0  0  0  0  0  0
  -23.6420  -22.7220   16.5530 C   0  0  0  0  0  2  0  0  0  0  0  0
  -24.6250  -21.5750   16.3000 C   0  0  0  0  0  2  0  0  0  0  0  0
  -25.0130  -21.0140   17.5440 O   0  0  0  0  0  0  0  0  0  0  0  0
  -26.2530  -20.3300   17.4670 C   0  0  0  0  0  2  0  0  0  0  0  0
  -26.5880  -19.7440   18.8410 C   0  0  0  0  0  2  0  0  0  0  0  0
  -28.1040  -19.5640   19.0260 C   0  0  0  0  0  2  0  0  0  0  0  0
  -28.5050  -19.0020   20.4000 C   0  0  0  0  0  2  0  0  0  0  0  0
  -29.0850  -16.6340   19.8540 C   0  0  0  0  0  0  0  0  0  0  0  0
  -29.7750  -14.2690   19.8880 C   0  0  0  0  0  2  0  0  0  0  0  0
  -29.1280  -13.4350   18.7700 C   0  0  0  0  0  2  0  0  0  0  0  0
  -27.7560  -12.9020   19.2150 C   0  0  0  0  0  2  0  0  0  0  0  0
  -26.8510  -14.0170   19.7990 C   0  0  0  0  0  3  0  0  0  0  0  0
  -27.6100  -14.8520   20.8550 C   0  0  0  0  0  2  0  0  0  0  0  0
  -28.8600  -15.3590   20.2540 N   0  0  0  0  0  0  0  0  0  0  0  0
  -29.9850  -16.9570   19.0740 O   0  0  0  0  0  0  0  0  0  0  0  0
  -28.3430  -17.5510   20.4870 N   0  0  0  0  0  0  0  0  0  0  0  0
  -27.6680  -17.2010   21.1520 H   0  0  0  0  0  0  0  0  0  0  0  0
  -24.4370  -14.1120   20.6970 C   0  0  0  0  0  0  0  0  0  0  0  0
  -23.5650  -13.1290   21.0800 C   0  0  0  0  0  0  0  0  0  0  0  0
  -24.2690  -11.8960   20.9260 C   0  0  0  0  0  0  0  0  0  0  0  0
  -25.6110  -13.4640   20.3410 N   0  0  0  0  0  0  0  0  0  0  0  0
  -25.5150  -12.1230   20.5320 N   0  0  0  0  0  0  0  0  0  0  0  0
  -23.8110  -10.5090   21.0760 C   0  0  0  0  0  0  0  0  0  0  0  0
  -24.3570   -9.6520   22.0570 C   0  0  0  0  0  3  0  0  0  0  0  0
  -23.8870   -8.3280   22.1930 C   0  0  0  0  0  3  0  0  0  0  0  0
  -22.8600   -7.8480   21.3460 C   0  0  0  0  0  0  0  0  0  0  0  0
  -22.3360   -8.6970   20.3550 C   0  0  0  0  0  3  0  0  0  0  0  0
  -22.8070  -10.0140   20.2180 C   0  0  0  0  0  3  0  0  0  0  0  0
  -22.3600   -6.5700   21.3880 O   0  0  0  0  0  0  0  0  0  0  0  0
  -22.1300   -5.9250   22.5770 C   0  0  0  0  0  0  0  0  0  0  0  0
  -21.2840   -6.4680   23.5680 C   0  0  0  0  0  3  0  0  0  0  0  0
  -21.0200   -5.7400   24.7450 C   0  0  0  0  0  3  0  0  0  0  0  0
  -21.5940   -4.4690   24.9310 C   0  0  0  0  0  0  0  0  0  0  0  0
  -22.4340   -3.9240   23.9430 C   0  0  0  0  0  3  0  0  0  0  0  0
  -22.6980   -4.6500   22.7680 C   0  0  0  0  0  0  0  0  0  0  0  0
  -23.4910   -4.1110   21.8110 F   0  0  0  0  0  0  0  0  0  0  0  0
  -21.3360   -3.7650   26.0580 F   0  0  0  0  0  0  0  0  0  0  0  0
  -22.1280  -13.3110   21.4770 C   0  0  0  0  0  0  0  0  0  0  0  0
  -21.6220  -12.4530   22.3550 N   0  0  0  0  0  0  0  0  0  0  0  0
  -21.4600  -14.2490   21.0440 O   0  0  0  0  0  0  0  0  0  0  0  0
  -22.1760  -11.6960   22.7260 H   0  0  0  0  0  0  0  0  0  0  0  0
  -20.6650  -12.5560   22.6610 H   0  0  0  0  0  0  0  0  0  0  0  0
  -24.3270  -15.4970   20.6050 N   0  0  0  0  0  0  0  0  0  0  0  0
  -23.4650  -15.9880   20.8130 H   0  0  0  0  0  0  0  0  0  0  0  0
  -25.0630  -16.1090   20.2760 H   0  0  0  0  0  0  0  0  0  0  0  0
  -23.0140  -23.1910   22.5500 C   0  0  0  0  0  2  0  0  0  0  0  0
  -25.1690  -23.6900   21.3970 C   0  0  0  0  0  0  0  0  0  0  0  0
  -24.3760  -23.7230   22.4760 N   0  0  0  0  0  0  0  0  0  0  0  0
  -24.8000  -23.2390   20.3120 O   0  0  0  0  0  0  0  0  0  0  0  0
  -24.7410  -24.1410   23.3210 H   0  0  0  0  0  0  0  0  0  0  0  0
  -26.5920  -24.2320   21.5650 C   0  0  0  0  0  2  0  0  0  0  0  0
  -27.6210  -23.6730   20.5450 C   0  0  0  0  0  2  0  0  0  0  0  0
  -27.2640  -23.8920   19.1200 N   0  0  0  0  0  4  0  0  0  0  0  0
  -26.3360  -23.5240   18.9690 H   0  0  0  0  0  0  0  0  0  0  0  0
  -27.8980  -23.3370   18.5650 H   0  0  0  0  0  0  0  0  0  0  0  0
  -27.3620  -25.3030   18.6710 C   0  0  0  0  0  2  0  0  0  0  0  0
  -27.0910  -25.5030   17.1550 C   0  0  0  0  0  2  0  0  0  0  0  0
  -27.1480  -26.8900   16.7830 O   0  0  0  0  0  0  0  0  0  0  0  0
  -25.5940  -29.2760   23.2570 C   0  0  0  0  0  0  0  0  0  0  0  0
  -26.3210  -27.7020   17.5180 C   0  0  0  0  0  0  0  0  0  0  0  0
  -23.8520  -29.6300   21.5350 C   0  0  0  0  0  3  0  0  0  0  0  0
  -24.5780  -29.2250   19.1250 C   0  0  0  0  0  0  0  0  0  0  0  0
  -26.3240  -29.5390   20.8890 C   0  0  0  0  0  2  0  0  0  0  0  0
  -25.8900  -28.9810   19.5520 C   0  0  0  0  0  0  0  0  0  0  0  0
  -26.7700  -28.2250   18.7490 C   0  0  0  0  0  3  0  0  0  0  0  0
  -25.0010  -27.9620   17.0910 C   0  0  0  0  0  3  0  0  0  0  0  0
  -24.1260  -28.7170   17.8940 C   0  0  0  0  0  3  0  0  0  0  0  0
  -23.7010  -30.0420   20.0440 C   0  0  0  0  0  2  0  0  0  0  0  0
  -25.2840  -29.4440   21.9390 N   0  0  0  0  0  0  0  0  0  0  0  0
  -24.7190  -29.3180   24.1340 O   0  0  0  0  0  0  0  0  0  0  0  0
  -22.9760  -28.3830   21.7910 C   0  0  0  0  0  0  0  0  0  0  0  0
  -21.6470  -28.5640   21.7200 N   0  0  0  0  0  0  0  0  0  0  0  0
  -23.4890  -27.2840   22.0190 O   0  0  0  0  0  0  0  0  0  0  0  0
  -21.3070  -29.4940   21.5240 H   0  0  0  0  0  0  0  0  0  0  0  0
  -18.1010  -27.9170   21.5200 C   0  0  0  0  0  0  0  0  0  0  0  0
  -20.6280  -27.5310   21.8980 C   0  0  0  0  0  3  0  0  0  0  0  0
  -20.5670  -26.5960   20.6690 C   0  0  0  0  0  2  0  0  0  0  0  0
  -19.5340  -27.0330   19.6260 C   0  0  0  0  0  2  0  0  0  0  0  0
  -18.1330  -27.0870   20.2460 C   0  0  0  0  0  2  0  0  0  0  0  0
  -19.2750  -28.1380   22.2870 C   0  0  0  0  0  0  0  0  0  0  0  0
  -19.1980  -28.9420   23.4440 C   0  0  0  0  0  3  0  0  0  0  0  0
  -17.9770  -29.5170   23.8400 C   0  0  0  0  0  3  0  0  0  0  0  0
  -16.8130  -29.2840   23.0860 C   0  0  0  0  0  3  0  0  0  0  0  0
  -16.8760  -28.4810   21.9330 C   0  0  0  0  0  3  0  0  0  0  0  0
  -27.0640  -29.0470   23.7270 C   0  0  0  0  0  3  0  0  0  0  0  0
  -27.3240  -27.5880   24.2710 C   0  0  1  0  0  0  0  0  0  0  0  0
  -26.3190  -27.1440   25.3590 C   0  0  0  0  0  1  0  0  0  0  0  0
  -27.2590  -26.5560   23.1200 C   0  0  0  0  0  1  0  0  0  0  0  0
  -28.7470  -27.4950   24.8720 C   0  0  0  0  0  1  0  0  0  0  0  0
  -27.3610  -30.0490   24.7570 N   0  0  0  0  0  0  0  0  0  0  0  0
  -28.0840  -31.1590   24.5540 C   0  0  0  0  0  0  0  0  0  0  0  0
  -28.6400  -31.4080   23.4810 O   0  0  0  0  0  0  0  0  0  0  0  0
  -26.8940  -29.9350   25.6440 H   0  0  0  0  0  0  0  0  0  0  0  0
  -27.2570  -33.3360   25.5030 C   0  0  0  0  0  1  0  0  0  0  0  0
  -28.2100  -32.1510   25.7270 C   0  0  0  0  0  3  0  0  0  0  0  0
  -30.5090  -31.6250   26.4050 C   0  0  0  0  0  1  0  0  0  0  0  0
  -29.5870  -32.6520   25.9280 N   0  0  0  0  0  0  0  0  0  0  0  0
  -29.5990  -33.4220   26.5900 H   0  0  0  0  0  0  0  0  0  0  0  0
  1 54  1  0
  2  4  1  0
  2  1  1  0
  3  1  2  0
  5  2  1  0
  6  5  1  0
  7  6  1  0
  8  7  1  0
  9  8  1  0
 10  9  1  0
 10 11  1  0
 12 11  1  0
 12 13  1  0
 13 14  1  0
 14 15  1  0
 15 24  1  0
 16 22  1  0
 16 24  1  0
 17 22  1  0
 18 19  1  0
 18 17  1  0
 20 19  1  0
 20 29  1  0
 20 21  1  0
 22 21  1  0
 23 16  2  0
 24 25  1  0
 26 27  2  0
 27 46  1  0
 28 31  1  0
 28 27  1  0
 29 30  1  0
 29 26  1  0
 30 28  2  0
 31 32  1  0
 32 33  2  0
 34 37  1  0
 34 33  1  0
 35 34  2  0
 36 35  1  0
 36 31  2  0
 37 38  1  0
 38 43  2  0
 38 39  1  0
 39 40  2  0
 40 41  1  0
 41 45  1  0
 42 41  2  0
 43 42  1  0
 44 43  1  0
 46 47  1  0
 47 50  1  0
 47 49  1  0
 48 46  2  0
 51 26  1  0
 51 52  1  0
 53 51  1  0
 55 59  1  0
 55 56  1  0
 56 54  1  0
 56 58  1  0
 57 55  2  0
 60 59  1  0
 61 60  1  0
 62 61  1  0
 63 61  1  0
 64 61  1  0
 65 64  1  0
 66 65  1  0
 66 68  1  0
 67 78  2  0
 68 73  1  0
 69 79  1  0
 69 77  1  0
 70 72  1  0
 70 76  1  0
 71 77  1  0
 72 71  1  0
 73 72  2  0
 74 68  2  0
 74 75  1  0
 75 70  2  0
 76 69  1  0
 77 67  1  0
 79 81  2  0
 80 79  1  0
 82 80  1  0
 83 92  2  0
 83 88  1  0
 84 80  1  0
 84 88  1  0
 85 84  1  0
 86 87  1  0
 86 85  1  0
 87 83  1  0
 88 89  2  0
 89 90  1  0
 91 90  2  0
 92 91  1  0
 93 67  1  0
 93 94  1  0
 93 98  1  0
 94 97  1  1
 94 95  1  0
 96 94  1  0
 98101  1  0
 99 98  1  0
 99103  1  0
100 99  2  0
103102  1  0
103105  1  0
105104  1  0
105106  1  0
M  ISO  4  16 100  24 100  65 101  66 101
M  END
>  <TORSDO>  (90) 
F 34

>  <SCORE>  (90) 
-5.572

>  <name>  (90) 
90

>  <ligand_id>  (90) 
90

>  <original_smiles>  (90) 
[H]c1c([H])c([H])c2c(c1[H])C([H])([H])C([H])([H])C([H])([H])C2([H])N([H])C(=O)C1([H])N(C(=O)C([H])(N([H])C(=O)C([H])(N([H])C([H])([H])[H])C([H])([H])[H])C(C([H])([H])[H])(C([H])([H])[H])C([H])([H])[H])C([H])([H])c2c([H])c(OC([H])([H])C([H])([H])[N+]([H])([H])C([H])([H])C([H])([H])C(=O)N([H])C([H])([H])C(=O)N([H])C([H])([H])C([H])([H])C([H])([H])C([H])([H])C([H])([H])C([H])([H])OC([H])([H])C([H])([H])C([H])([H])C([H])([H])N([H])C(=O)N3C([H])([H])C([H])([H])C([H])([H])C([H])(n4nc(-c5c([H])c([H])c(Oc6c([H])c([H])c(F)c([H])c6F)c([H])c5[H])c(C(=O)N([H])[H])c4N([H])[H])C3([H])[H])c([H])c([H])c2C1([H])[H]

>  <smiles>  (90) 
[H]c1c([H])c([H])c2c(c1[H])C([H])([H])C([H])([H])C([H])([H])C2([H])N([H])C(=O)C1([H])N(C(=O)C([H])(N([H])C(=O)C([H])(N([H])C([H])([H])[H])C([H])([H])[H])C(C([H])([H])[H])(C([H])([H])[H])C([H])([H])[H])C([H])([H])c2c([H])c(OC([H])([H])C([H])([H])[N+]([H])([H])C([H])([H])C([H])([H])C(=O)N([H])C([H])([H])C(=O)N([H])C([H])([H])C([H])([H])C([H])([H])C([H])([H])C([H])([H])C([H])([H])OC([H])([H])C([H])([H])C([H])([H])C([H])([H])N([H])C(=O)N3C([H])([H])C([H])([H])C([H])([H])C([H])(n4nc(-c5c([H])c([H])c(Oc6c([H])c([H])c(F)c([H])c6F)c([H])c5[H])c(C(=O)N([H])[H])c4N([H])[H])C3([H])[H])c([H])c([H])c2C1([H])[H]

$$$$
91:0:0
     RDKit          3D

104111  0  0  1  0  0  0  0  0999 V2000
  -30.3660  -18.8830   21.6860 C   0  0  0  0  0  2  0  0  0  0  0  0
  -31.4290  -18.5890   20.6090 C   0  0  0  0  0  2  0  0  0  0  0  0
  -32.7810  -18.1570   21.1960 C   0  0  0  0  0  2  0  0  0  0  0  0
  -33.7990  -17.7270   20.1220 C   0  0  0  0  0  2  0  0  0  0  0  0
  -35.1660  -17.3140   20.7040 C   0  0  0  0  0  2  0  0  0  0  0  0
  -34.9030  -15.0060   21.6010 C   0  0  0  0  0  0  0  0  0  0  0  0
  -35.0070  -16.3280   21.7680 N   0  0  0  0  0  0  0  0  0  0  0  0
  -35.1670  -14.4410   20.5380 O   0  0  0  0  0  0  0  0  0  0  0  0
  -34.8300  -16.6910   22.6950 H   0  0  0  0  0  0  0  0  0  0  0  0
  -34.3870  -14.2260   22.8120 C   0  0  0  0  0  2  0  0  0  0  0  0
  -33.8530  -12.8200   22.4720 C   0  0  0  0  0  2  0  0  0  0  0  0
  -32.9450  -12.2390   23.5720 C   0  0  0  0  0  2  0  0  0  0  0  0
  -31.4290  -12.3100   23.2940 C   0  0  0  0  0  2  0  0  0  0  0  0
  -30.7790  -13.7170   23.3050 C   0  0  0  0  0  2  0  0  0  0  0  0
  -30.8890  -14.2170   20.7990 C   0  0  0  0  0  0  0  0  0  0  0  0
  -30.4050  -12.2760   19.3770 C   0  0  0  0  0  2  0  0  0  0  0  0
  -29.4750  -12.5460   18.1870 C   0  0  0  0  0  2  0  0  0  0  0  0
  -28.0090  -12.3730   18.6080 C   0  0  0  0  0  2  0  0  0  0  0  0
  -27.6670  -13.2070   19.8650 C   0  0  0  0  0  3  0  0  0  0  0  0
  -28.7010  -12.9950   20.9920 C   0  0  0  0  0  2  0  0  0  0  0  0
  -30.0700  -13.1840   20.4810 N   0  0  0  0  0  0  0  0  0  0  0  0
  -31.6620  -14.7400   19.9970 O   0  0  0  0  0  0  0  0  0  0  0  0
  -30.9960  -14.5330   22.1010 N   0  0  0  0  0  0  0  0  0  0  0  0
  -31.5610  -15.3540   22.2550 H   0  0  0  0  0  0  0  0  0  0  0  0
  -25.2620  -13.8170   20.5660 C   0  0  0  0  0  0  0  0  0  0  0  0
  -24.1860  -13.0440   20.9150 C   0  0  0  0  0  0  0  0  0  0  0  0
  -24.6420  -11.6910   20.8710 C   0  0  0  0  0  0  0  0  0  0  0  0
  -26.3060  -12.9350   20.3300 N   0  0  0  0  0  0  0  0  0  0  0  0
  -25.9340  -11.6500   20.5720 N   0  0  0  0  0  0  0  0  0  0  0  0
  -23.9070  -10.4300   21.0390 C   0  0  0  0  0  0  0  0  0  0  0  0
  -24.3620   -9.4210   21.9170 C   0  0  0  0  0  3  0  0  0  0  0  0
  -23.6280   -8.2250   22.0750 C   0  0  0  0  0  3  0  0  0  0  0  0
  -22.4270   -8.0290   21.3550 C   0  0  0  0  0  0  0  0  0  0  0  0
  -21.9900   -9.0260   20.4650 C   0  0  0  0  0  3  0  0  0  0  0  0
  -22.7240  -10.2140   20.3050 C   0  0  0  0  0  3  0  0  0  0  0  0
  -21.6640   -6.8880   21.4240 O   0  0  0  0  0  0  0  0  0  0  0  0
  -21.6860   -6.0730   22.5280 C   0  0  0  0  0  0  0  0  0  0  0  0
  -21.4020   -6.5640   23.8210 C   0  0  0  0  0  3  0  0  0  0  0  0
  -21.3660   -5.6790   24.9170 C   0  0  0  0  0  3  0  0  0  0  0  0
  -21.6050   -4.3050   24.7230 C   0  0  0  0  0  0  0  0  0  0  0  0
  -21.8820   -3.8140   23.4350 C   0  0  0  0  0  3  0  0  0  0  0  0
  -21.9190   -4.6960   22.3400 C   0  0  0  0  0  0  0  0  0  0  0  0
  -22.1660   -4.2140   21.0980 F   0  0  0  0  0  0  0  0  0  0  0  0
  -21.5620   -3.4540   25.7740 F   0  0  0  0  0  0  0  0  0  0  0  0
  -22.7890  -13.5240   21.1830 C   0  0  0  0  0  0  0  0  0  0  0  0
  -22.0530  -12.8240   22.0380 N   0  0  0  0  0  0  0  0  0  0  0  0
  -22.3570  -14.5550   20.6680 O   0  0  0  0  0  0  0  0  0  0  0  0
  -22.4130  -11.9890   22.4770 H   0  0  0  0  0  0  0  0  0  0  0  0
  -21.1150  -13.1270   22.2580 H   0  0  0  0  0  0  0  0  0  0  0  0
  -25.4340  -15.1890   20.4110 N   0  0  0  0  0  0  0  0  0  0  0  0
  -24.6730  -15.8480   20.5340 H   0  0  0  0  0  0  0  0  0  0  0  0
  -26.2960  -15.6310   20.1150 H   0  0  0  0  0  0  0  0  0  0  0  0
  -30.7140  -20.0420   22.6440 C   0  0  0  0  0  2  0  0  0  0  0  0
  -30.1660  -22.1040   21.3700 C   0  0  0  0  0  0  0  0  0  0  0  0
  -31.0490  -21.2680   21.9260 N   0  0  0  0  0  0  0  0  0  0  0  0
  -28.9470  -21.9360   21.4500 O   0  0  0  0  0  0  0  0  0  0  0  0
  -32.0330  -21.4870   21.8270 H   0  0  0  0  0  0  0  0  0  0  0  0
  -30.7280  -23.2890   20.5890 C   0  0  0  0  0  2  0  0  0  0  0  0
  -29.6320  -24.1720   20.1510 N   0  0  0  0  0  4  0  0  0  0  0  0
  -29.2150  -24.5820   20.9730 H   0  0  0  0  0  0  0  0  0  0  0  0
  -28.9260  -23.5750   19.7470 H   0  0  0  0  0  0  0  0  0  0  0  0
  -30.0190  -25.2410   19.2060 C   0  0  0  0  0  2  0  0  0  0  0  0
  -28.8110  -26.1210   18.8690 C   0  0  0  0  0  2  0  0  0  0  0  0
  -28.4270  -26.7810   20.0730 O   0  0  0  0  0  0  0  0  0  0  0  0
  -24.6100  -31.8710   23.2140 C   0  0  0  0  0  0  0  0  0  0  0  0
  -27.2400  -27.4750   20.0680 C   0  0  0  0  0  0  0  0  0  0  0  0
  -23.3960  -30.4950   21.5540 C   0  0  0  0  0  3  0  0  0  0  0  0
  -24.8410  -28.9650   20.1150 C   0  0  0  0  0  0  0  0  0  0  0  0
  -25.9220  -30.8430   21.3640 C   0  0  0  0  0  2  0  0  0  0  0  0
  -25.9980  -29.4790   20.7140 C   0  0  0  0  0  0  0  0  0  0  0  0
  -27.1940  -28.7330   20.7030 C   0  0  0  0  0  3  0  0  0  0  0  0
  -26.0600  -26.9560   19.4860 C   0  0  0  0  0  3  0  0  0  0  0  0
  -24.8640  -27.6980   19.5080 C   0  0  0  0  0  3  0  0  0  0  0  0
  -23.6020  -29.8280   20.1670 C   0  0  0  0  0  2  0  0  0  0  0  0
  -24.6610  -31.0840   22.1020 N   0  0  0  0  0  0  0  0  0  0  0  0
  -23.5310  -32.1450   23.7550 O   0  0  0  0  0  0  0  0  0  0  0  0
  -22.7380  -29.4670   22.5010 C   0  0  0  0  0  0  0  0  0  0  0  0
  -21.4120  -29.3030   22.3750 N   0  0  0  0  0  0  0  0  0  0  0  0
  -23.4180  -28.8210   23.3030 O   0  0  0  0  0  0  0  0  0  0  0  0
  -20.9270  -29.8760   21.6980 H   0  0  0  0  0  0  0  0  0  0  0  0
  -18.0270  -28.1370   22.8490 C   0  0  0  0  0  0  0  0  0  0  0  0
  -20.5850  -28.3650   23.1330 C   0  0  0  0  0  3  0  0  0  0  0  0
  -20.6750  -26.9390   22.5420 C   0  0  0  0  0  2  0  0  0  0  0  0
  -19.5740  -26.6380   21.5210 C   0  0  0  0  0  2  0  0  0  0  0  0
  -18.1920  -26.7920   22.1620 C   0  0  0  0  0  2  0  0  0  0  0  0
  -19.1510  -28.8830   23.2910 C   0  0  0  0  0  0  0  0  0  0  0  0
  -18.9440  -30.1440   23.8920 C   0  0  0  0  0  3  0  0  0  0  0  0
  -17.6450  -30.6580   24.0570 C   0  0  0  0  0  3  0  0  0  0  0  0
  -16.5340  -29.9090   23.6320 C   0  0  0  0  0  3  0  0  0  0  0  0
  -16.7260  -28.6500   23.0350 C   0  0  0  0  0  3  0  0  0  0  0  0
  -25.9010  -32.4840   23.8420 C   0  0  0  0  0  3  0  0  0  0  0  0
  -26.4460  -31.6610   25.0730 C   0  0  1  0  0  0  0  0  0  0  0  0
  -25.3740  -31.3700   26.1490 C   0  0  0  0  0  1  0  0  0  0  0  0
  -27.0280  -30.3050   24.6080 C   0  0  0  0  0  1  0  0  0  0  0  0
  -27.6050  -32.4310   25.7470 C   0  0  0  0  0  1  0  0  0  0  0  0
  -25.5890  -33.8640   24.2350 N   0  0  0  0  0  0  0  0  0  0  0  0
  -25.9030  -34.9490   23.5140 C   0  0  0  0  0  0  0  0  0  0  0  0
  -26.5590  -34.8930   22.4700 O   0  0  0  0  0  0  0  0  0  0  0  0
  -25.0050  -33.9810   25.0500 H   0  0  0  0  0  0  0  0  0  0  0  0
  -24.1490  -36.7320   23.2640 C   0  0  0  0  0  1  0  0  0  0  0  0
  -25.4100  -36.3120   24.0340 C   0  0  0  0  0  3  0  0  0  0  0  0
  -27.5580  -37.1820   24.8460 C   0  0  0  0  0  1  0  0  0  0  0  0
  -26.4300  -37.3800   23.9410 N   0  0  0  0  0  0  0  0  0  0  0  0
  -26.0190  -38.2880   24.1390 H   0  0  0  0  0  0  0  0  0  0  0  0
  1 53  1  0
  2  3  1  0
  2  1  1  0
  4  5  1  0
  4  3  1  0
  5  7  1  0
  6  7  1  0
  6 10  1  0
  7  9  1  0
  8  6  2  0
 11 10  1  0
 11 12  1  0
 13 14  1  0
 13 12  1  0
 15 23  1  0
 16 21  1  0
 17 18  1  0
 17 16  1  0
 19 18  1  0
 19 28  1  0
 19 20  1  0
 21 15  1  0
 21 20  1  0
 22 15  2  0
 23 24  1  0
 23 14  1  0
 25 26  2  0
 26 45  1  0
 27 26  1  0
 27 30  1  0
 28 25  1  0
 28 29  1  0
 29 27  2  0
 30 31  1  0
 31 32  2  0
 33 36  1  0
 33 32  1  0
 34 33  2  0
 35 34  1  0
 35 30  2  0
 36 37  1  0
 37 38  1  0
 38 39  2  0
 40 39  1  0
 40 44  1  0
 41 40  2  0
 42 37  2  0
 42 41  1  0
 43 42  1  0
 45 46  1  0
 46 49  1  0
 46 48  1  0
 47 45  2  0
 50 51  1  0
 50 25  1  0
 52 50  1  0
 54 56  2  0
 54 55  1  0
 55 53  1  0
 57 55  1  0
 58 54  1  0
 59 58  1  0
 59 60  1  0
 61 59  1  0
 62 59  1  0
 63 62  1  0
 63 64  1  0
 65 76  2  0
 66 64  1  0
 66 71  1  0
 67 75  1  0
 67 77  1  0
 68 74  1  0
 68 70  1  0
 69 75  1  0
 70 69  1  0
 71 70  2  0
 72 73  1  0
 72 66  2  0
 73 68  2  0
 74 67  1  0
 75 65  1  0
 77 79  2  0
 78 77  1  0
 80 78  1  0
 81 90  2  0
 81 86  1  0
 82 78  1  0
 82 86  1  0
 83 82  1  0
 84 85  1  0
 84 83  1  0
 85 81  1  0
 86 87  2  0
 87 88  1  0
 89 88  2  0
 90 89  1  0
 91 65  1  0
 91 96  1  0
 91 92  1  0
 92 95  1  1
 92 93  1  0
 94 92  1  0
 96 99  1  0
 97101  1  0
 97 96  1  0
 98 97  2  0
101100  1  0
103101  1  0
103104  1  0
103102  1  0
M  ISO  4  15 100  23 100  63 101  64 101
M  END
>  <TORSDO>  (91) 
F 32

>  <SCORE>  (91) 
7.335

>  <name>  (91) 
91

>  <ligand_id>  (91) 
91

>  <original_smiles>  (91) 
[H]c1c([H])c([H])c2c(c1[H])C([H])([H])C([H])([H])C([H])([H])C2([H])N([H])C(=O)C1([H])N(C(=O)C([H])(N([H])C(=O)C([H])(N([H])C([H])([H])[H])C([H])([H])[H])C(C([H])([H])[H])(C([H])([H])[H])C([H])([H])[H])C([H])([H])c2c([H])c(OC([H])([H])C([H])([H])[N+]([H])([H])C([H])([H])C(=O)N([H])C([H])([H])C([H])([H])C([H])([H])C([H])([H])C([H])([H])C([H])([H])N([H])C(=O)C([H])([H])C([H])([H])C([H])([H])C([H])([H])C([H])([H])N([H])C(=O)N3C([H])([H])C([H])([H])C([H])([H])C([H])(n4nc(-c5c([H])c([H])c(Oc6c([H])c([H])c(F)c([H])c6F)c([H])c5[H])c(C(=O)N([H])[H])c4N([H])[H])C3([H])[H])c([H])c([H])c2C1([H])[H]

>  <smiles>  (91) 
[H]c1c([H])c([H])c2c(c1[H])C([H])([H])C([H])([H])C([H])([H])C2([H])N([H])C(=O)C1([H])N(C(=O)C([H])(N([H])C(=O)C([H])(N([H])C([H])([H])[H])C([H])([H])[H])C(C([H])([H])[H])(C([H])([H])[H])C([H])([H])[H])C([H])([H])c2c([H])c(OC([H])([H])C([H])([H])[N+]([H])([H])C([H])([H])C(=O)N([H])C([H])([H])C([H])([H])C([H])([H])C([H])([H])C([H])([H])C([H])([H])N([H])C(=O)C([H])([H])C([H])([H])C([H])([H])C([H])([H])C([H])([H])N([H])C(=O)N3C([H])([H])C([H])([H])C([H])([H])C([H])(n4nc(-c5c([H])c([H])c(Oc6c([H])c([H])c(F)c([H])c6F)c([H])c5[H])c(C(=O)N([H])[H])c4N([H])[H])C3([H])[H])c([H])c([H])c2C1([H])[H]

$$$$
92:0:0
     RDKit          3D

104111  0  0  1  0  0  0  0  0999 V2000
  -30.3660  -18.8830   21.6860 C   0  0  0  0  0  2  0  0  0  0  0  0
  -31.4290  -18.5890   20.6090 C   0  0  0  0  0  2  0  0  0  0  0  0
  -32.7810  -18.1570   21.1960 C   0  0  0  0  0  2  0  0  0  0  0  0
  -33.7990  -17.7270   20.1220 C   0  0  0  0  0  2  0  0  0  0  0  0
  -35.1660  -17.3140   20.7040 C   0  0  0  0  0  2  0  0  0  0  0  0
  -34.9030  -15.0060   21.6010 C   0  0  0  0  0  0  0  0  0  0  0  0
  -35.0070  -16.3280   21.7680 N   0  0  0  0  0  0  0  0  0  0  0  0
  -35.1670  -14.4410   20.5380 O   0  0  0  0  0  0  0  0  0  0  0  0
  -34.8300  -16.6910   22.6950 H   0  0  0  0  0  0  0  0  0  0  0  0
  -34.3870  -14.2260   22.8120 C   0  0  0  0  0  2  0  0  0  0  0  0
  -33.8530  -12.8200   22.4720 C   0  0  0  0  0  2  0  0  0  0  0  0
  -32.9450  -12.2390   23.5720 C   0  0  0  0  0  2  0  0  0  0  0  0
  -31.4290  -12.3100   23.2940 C   0  0  0  0  0  2  0  0  0  0  0  0
  -30.7790  -13.7170   23.3050 C   0  0  0  0  0  2  0  0  0  0  0  0
  -30.8890  -14.2170   20.7990 C   0  0  0  0  0  0  0  0  0  0  0  0
  -30.4050  -12.2760   19.3770 C   0  0  0  0  0  2  0  0  0  0  0  0
  -29.4750  -12.5460   18.1870 C   0  0  0  0  0  2  0  0  0  0  0  0
  -28.0090  -12.3730   18.6080 C   0  0  0  0  0  2  0  0  0  0  0  0
  -27.6670  -13.2070   19.8650 C   0  0  0  0  0  3  0  0  0  0  0  0
  -28.7010  -12.9950   20.9920 C   0  0  0  0  0  2  0  0  0  0  0  0
  -30.0700  -13.1840   20.4810 N   0  0  0  0  0  0  0  0  0  0  0  0
  -31.6620  -14.7400   19.9970 O   0  0  0  0  0  0  0  0  0  0  0  0
  -30.9960  -14.5330   22.1010 N   0  0  0  0  0  0  0  0  0  0  0  0
  -31.5610  -15.3540   22.2550 H   0  0  0  0  0  0  0  0  0  0  0  0
  -25.2620  -13.8170   20.5660 C   0  0  0  0  0  0  0  0  0  0  0  0
  -24.1860  -13.0440   20.9150 C   0  0  0  0  0  0  0  0  0  0  0  0
  -24.6420  -11.6910   20.8710 C   0  0  0  0  0  0  0  0  0  0  0  0
  -26.3060  -12.9350   20.3300 N   0  0  0  0  0  0  0  0  0  0  0  0
  -25.9340  -11.6500   20.5720 N   0  0  0  0  0  0  0  0  0  0  0  0
  -23.9070  -10.4300   21.0390 C   0  0  0  0  0  0  0  0  0  0  0  0
  -24.3620   -9.4210   21.9170 C   0  0  0  0  0  3  0  0  0  0  0  0
  -23.6280   -8.2250   22.0750 C   0  0  0  0  0  3  0  0  0  0  0  0
  -22.4270   -8.0290   21.3550 C   0  0  0  0  0  0  0  0  0  0  0  0
  -21.9900   -9.0260   20.4650 C   0  0  0  0  0  3  0  0  0  0  0  0
  -22.7240  -10.2140   20.3050 C   0  0  0  0  0  3  0  0  0  0  0  0
  -21.6640   -6.8880   21.4240 O   0  0  0  0  0  0  0  0  0  0  0  0
  -21.6860   -6.0730   22.5280 C   0  0  0  0  0  0  0  0  0  0  0  0
  -21.4020   -6.5640   23.8210 C   0  0  0  0  0  3  0  0  0  0  0  0
  -21.3660   -5.6790   24.9170 C   0  0  0  0  0  3  0  0  0  0  0  0
  -21.6050   -4.3050   24.7230 C   0  0  0  0  0  0  0  0  0  0  0  0
  -21.8820   -3.8140   23.4350 C   0  0  0  0  0  3  0  0  0  0  0  0
  -21.9190   -4.6960   22.3400 C   0  0  0  0  0  0  0  0  0  0  0  0
  -22.1660   -4.2140   21.0980 F   0  0  0  0  0  0  0  0  0  0  0  0
  -21.5620   -3.4540   25.7740 F   0  0  0  0  0  0  0  0  0  0  0  0
  -22.7890  -13.5240   21.1830 C   0  0  0  0  0  0  0  0  0  0  0  0
  -22.0530  -12.8240   22.0380 N   0  0  0  0  0  0  0  0  0  0  0  0
  -22.3570  -14.5550   20.6680 O   0  0  0  0  0  0  0  0  0  0  0  0
  -22.4130  -11.9890   22.4770 H   0  0  0  0  0  0  0  0  0  0  0  0
  -21.1150  -13.1270   22.2580 H   0  0  0  0  0  0  0  0  0  0  0  0
  -25.4340  -15.1890   20.4110 N   0  0  0  0  0  0  0  0  0  0  0  0
  -24.6730  -15.8480   20.5340 H   0  0  0  0  0  0  0  0  0  0  0  0
  -26.2960  -15.6310   20.1150 H   0  0  0  0  0  0  0  0  0  0  0  0
  -30.7140  -20.0420   22.6440 C   0  0  0  0  0  2  0  0  0  0  0  0
  -30.1660  -22.1040   21.3700 C   0  0  0  0  0  0  0  0  0  0  0  0
  -31.0490  -21.2680   21.9260 N   0  0  0  0  0  0  0  0  0  0  0  0
  -28.9470  -21.9360   21.4500 O   0  0  0  0  0  0  0  0  0  0  0  0
  -32.0330  -21.4870   21.8270 H   0  0  0  0  0  0  0  0  0  0  0  0
  -30.7280  -23.2890   20.5890 C   0  0  0  0  0  2  0  0  0  0  0  0
  -29.6320  -24.1720   20.1510 N   0  0  0  0  0  4  0  0  0  0  0  0
  -29.2150  -24.5820   20.9730 H   0  0  0  0  0  0  0  0  0  0  0  0
  -28.9260  -23.5750   19.7470 H   0  0  0  0  0  0  0  0  0  0  0  0
  -30.0190  -25.2410   19.2060 C   0  0  0  0  0  2  0  0  0  0  0  0
  -28.8110  -26.1210   18.8690 C   0  0  0  0  0  2  0  0  0  0  0  0
  -28.4270  -26.7810   20.0730 O   0  0  0  0  0  0  0  0  0  0  0  0
  -24.6100  -31.8710   23.2140 C   0  0  0  0  0  0  0  0  0  0  0  0
  -27.2400  -27.4750   20.0680 C   0  0  0  0  0  0  0  0  0  0  0  0
  -23.3960  -30.4950   21.5540 C   0  0  0  0  0  3  0  0  0  0  0  0
  -24.8410  -28.9650   20.1150 C   0  0  0  0  0  0  0  0  0  0  0  0
  -25.9220  -30.8430   21.3640 C   0  0  0  0  0  2  0  0  0  0  0  0
  -25.9980  -29.4790   20.7140 C   0  0  0  0  0  0  0  0  0  0  0  0
  -27.1940  -28.7330   20.7030 C   0  0  0  0  0  3  0  0  0  0  0  0
  -26.0600  -26.9560   19.4860 C   0  0  0  0  0  3  0  0  0  0  0  0
  -24.8640  -27.6980   19.5080 C   0  0  0  0  0  3  0  0  0  0  0  0
  -23.6020  -29.8280   20.1670 C   0  0  0  0  0  2  0  0  0  0  0  0
  -24.6610  -31.0840   22.1020 N   0  0  0  0  0  0  0  0  0  0  0  0
  -23.5310  -32.1450   23.7550 O   0  0  0  0  0  0  0  0  0  0  0  0
  -22.7380  -29.4670   22.5010 C   0  0  0  0  0  0  0  0  0  0  0  0
  -21.4120  -29.3030   22.3750 N   0  0  0  0  0  0  0  0  0  0  0  0
  -23.4180  -28.8210   23.3030 O   0  0  0  0  0  0  0  0  0  0  0  0
  -20.9270  -29.8760   21.6980 H   0  0  0  0  0  0  0  0  0  0  0  0
  -18.0270  -28.1370   22.8490 C   0  0  0  0  0  0  0  0  0  0  0  0
  -20.5850  -28.3650   23.1330 C   0  0  0  0  0  3  0  0  0  0  0  0
  -20.6750  -26.9390   22.5420 C   0  0  0  0  0  2  0  0  0  0  0  0
  -19.5740  -26.6380   21.5210 C   0  0  0  0  0  2  0  0  0  0  0  0
  -18.1920  -26.7920   22.1620 C   0  0  0  0  0  2  0  0  0  0  0  0
  -19.1510  -28.8830   23.2910 C   0  0  0  0  0  0  0  0  0  0  0  0
  -18.9440  -30.1440   23.8920 C   0  0  0  0  0  3  0  0  0  0  0  0
  -17.6450  -30.6580   24.0570 C   0  0  0  0  0  3  0  0  0  0  0  0
  -16.5340  -29.9090   23.6320 C   0  0  0  0  0  3  0  0  0  0  0  0
  -16.7260  -28.6500   23.0350 C   0  0  0  0  0  3  0  0  0  0  0  0
  -25.9010  -32.4840   23.8420 C   0  0  0  0  0  3  0  0  0  0  0  0
  -26.4460  -31.6610   25.0730 C   0  0  1  0  0  0  0  0  0  0  0  0
  -25.3740  -31.3700   26.1490 C   0  0  0  0  0  1  0  0  0  0  0  0
  -27.0280  -30.3050   24.6080 C   0  0  0  0  0  1  0  0  0  0  0  0
  -27.6050  -32.4310   25.7470 C   0  0  0  0  0  1  0  0  0  0  0  0
  -25.5890  -33.8640   24.2350 N   0  0  0  0  0  0  0  0  0  0  0  0
  -25.9030  -34.9490   23.5140 C   0  0  0  0  0  0  0  0  0  0  0  0
  -26.5590  -34.8930   22.4700 O   0  0  0  0  0  0  0  0  0  0  0  0
  -25.0050  -33.9810   25.0500 H   0  0  0  0  0  0  0  0  0  0  0  0
  -24.1490  -36.7320   23.2640 C   0  0  0  0  0  1  0  0  0  0  0  0
  -25.4100  -36.3120   24.0340 C   0  0  0  0  0  3  0  0  0  0  0  0
  -27.5580  -37.1820   24.8460 C   0  0  0  0  0  1  0  0  0  0  0  0
  -26.4300  -37.3800   23.9410 N   0  0  0  0  0  0  0  0  0  0  0  0
  -26.0190  -38.2880   24.1390 H   0  0  0  0  0  0  0  0  0  0  0  0
  1 53  1  0
  2  3  1  0
  2  1  1  0
  4  5  1  0
  4  3  1  0
  5  7  1  0
  6  7  1  0
  6 10  1  0
  7  9  1  0
  8  6  2  0
 11 10  1  0
 11 12  1  0
 13 14  1  0
 13 12  1  0
 15 23  1  0
 16 21  1  0
 17 18  1  0
 17 16  1  0
 19 18  1  0
 19 28  1  0
 19 20  1  0
 21 15  1  0
 21 20  1  0
 22 15  2  0
 23 24  1  0
 23 14  1  0
 25 26  2  0
 26 45  1  0
 27 26  1  0
 27 30  1  0
 28 25  1  0
 28 29  1  0
 29 27  2  0
 30 31  1  0
 31 32  2  0
 33 36  1  0
 33 32  1  0
 34 33  2  0
 35 34  1  0
 35 30  2  0
 36 37  1  0
 37 38  1  0
 38 39  2  0
 40 39  1  0
 40 44  1  0
 41 40  2  0
 42 37  2  0
 42 41  1  0
 43 42  1  0
 45 46  1  0
 46 49  1  0
 46 48  1  0
 47 45  2  0
 50 51  1  0
 50 25  1  0
 52 50  1  0
 54 56  2  0
 54 55  1  0
 55 53  1  0
 57 55  1  0
 58 54  1  0
 59 58  1  0
 59 60  1  0
 61 59  1  0
 62 59  1  0
 63 62  1  0
 63 64  1  0
 65 76  2  0
 66 64  1  0
 66 71  1  0
 67 75  1  0
 67 77  1  0
 68 74  1  0
 68 70  1  0
 69 75  1  0
 70 69  1  0
 71 70  2  0
 72 73  1  0
 72 66  2  0
 73 68  2  0
 74 67  1  0
 75 65  1  0
 77 79  2  0
 78 77  1  0
 80 78  1  0
 81 90  2  0
 81 86  1  0
 82 78  1  0
 82 86  1  0
 83 82  1  0
 84 85  1  0
 84 83  1  0
 85 81  1  0
 86 87  2  0
 87 88  1  0
 89 88  2  0
 90 89  1  0
 91 65  1  0
 91 96  1  0
 91 92  1  0
 92 95  1  1
 92 93  1  0
 94 92  1  0
 96 99  1  0
 97101  1  0
 97 96  1  0
 98 97  2  0
101100  1  0
103101  1  0
103104  1  0
103102  1  0
M  ISO  4  15 100  23 100  63 101  64 101
M  END
>  <TORSDO>  (92) 
F 32

>  <SCORE>  (92) 
7.335

>  <name>  (92) 
92

>  <ligand_id>  (92) 
92

>  <original_smiles>  (92) 
[H]c1c([H])c([H])c2c(c1[H])C([H])([H])C([H])([H])C([H])([H])C2([H])N([H])C(=O)C1([H])N(C(=O)C([H])(N([H])C(=O)C([H])(N([H])C([H])([H])[H])C([H])([H])[H])C(C([H])([H])[H])(C([H])([H])[H])C([H])([H])[H])C([H])([H])c2c([H])c(OC([H])([H])C([H])([H])[N+]([H])([H])C([H])([H])C(=O)N([H])C([H])([H])C([H])([H])C([H])([H])C([H])([H])C([H])([H])C([H])([H])N([H])C(=O)C([H])([H])C([H])([H])C([H])([H])C([H])([H])C([H])([H])N([H])C(=O)N3C([H])([H])C([H])([H])C([H])([H])C([H])(n4nc(-c5c([H])c([H])c(Oc6c([H])c([H])c(F)c([H])c6F)c([H])c5[H])c(C(=O)N([H])[H])c4N([H])[H])C3([H])[H])c([H])c([H])c2C1([H])[H]

>  <smiles>  (92) 
[H]c1c([H])c([H])c2c(c1[H])C([H])([H])C([H])([H])C([H])([H])C2([H])N([H])C(=O)C1([H])N(C(=O)C([H])(N([H])C(=O)C([H])(N([H])C([H])([H])[H])C([H])([H])[H])C(C([H])([H])[H])(C([H])([H])[H])C([H])([H])[H])C([H])([H])c2c([H])c(OC([H])([H])C([H])([H])[N+]([H])([H])C([H])([H])C(=O)N([H])C([H])([H])C([H])([H])C([H])([H])C([H])([H])C([H])([H])C([H])([H])N([H])C(=O)C([H])([H])C([H])([H])C([H])([H])C([H])([H])C([H])([H])N([H])C(=O)N3C([H])([H])C([H])([H])C([H])([H])C([H])(n4nc(-c5c([H])c([H])c(Oc6c([H])c([H])c(F)c([H])c6F)c([H])c5[H])c(C(=O)N([H])[H])c4N([H])[H])C3([H])[H])c([H])c([H])c2C1([H])[H]

$$$$
93:0:0
     RDKit          3D

106113  0  0  1  0  0  0  0  0999 V2000
  -30.8110  -21.3640   25.3870 C   0  0  0  0  0  2  0  0  0  0  0  0
  -30.2740  -22.8030   25.1990 C   0  0  0  0  0  2  0  0  0  0  0  0
  -29.8530  -22.9800   22.7180 C   0  0  0  0  0  0  0  0  0  0  0  0
  -30.4850  -23.3200   23.8470 N   0  0  0  0  0  0  0  0  0  0  0  0
  -28.8920  -22.2090   22.6720 O   0  0  0  0  0  0  0  0  0  0  0  0
  -31.2480  -23.9780   23.7480 H   0  0  0  0  0  0  0  0  0  0  0  0
  -30.4420  -23.5900   21.4460 C   0  0  0  0  0  2  0  0  0  0  0  0
  -29.7960  -23.0790   20.2220 N   0  0  0  0  0  4  0  0  0  0  0  0
  -28.8540  -23.4380   20.1780 H   0  0  0  0  0  0  0  0  0  0  0  0
  -29.7270  -22.0760   20.3140 H   0  0  0  0  0  0  0  0  0  0  0  0
  -30.5280  -23.4210   18.9840 C   0  0  0  0  0  2  0  0  0  0  0  0
  -29.5950  -23.5410   17.7760 C   0  0  0  0  0  2  0  0  0  0  0  0
  -30.2590  -24.2180   16.5630 C   0  0  0  0  0  2  0  0  0  0  0  0
  -29.2430  -24.5230   15.6100 O   0  0  0  0  0  0  0  0  0  0  0  0
  -25.8300  -27.8180   20.9440 C   0  0  0  0  0  0  0  0  0  0  0  0
  -28.1940  -25.3020   16.0380 C   0  0  0  0  0  0  0  0  0  0  0  0
  -24.6170  -27.7020   18.7880 C   0  0  0  0  0  3  0  0  0  0  0  0
  -25.9940  -26.9040   16.7900 C   0  0  0  0  0  0  0  0  0  0  0  0
  -27.1700  -27.7000   18.8530 C   0  0  0  0  0  2  0  0  0  0  0  0
  -27.1410  -26.8680   17.5890 C   0  0  0  0  0  0  0  0  0  0  0  0
  -28.2420  -26.0750   17.2210 C   0  0  0  0  0  3  0  0  0  0  0  0
  -27.0280  -25.3340   15.2440 C   0  0  0  0  0  3  0  0  0  0  0  0
  -25.9260  -26.1300   15.6150 C   0  0  0  0  0  3  0  0  0  0  0  0
  -24.8720  -27.8050   17.2580 C   0  0  0  0  0  2  0  0  0  0  0  0
  -25.8860  -27.7170   19.5860 N   0  0  0  0  0  0  0  0  0  0  0  0
  -24.7470  -27.9450   21.5300 O   0  0  0  0  0  0  0  0  0  0  0  0
  -23.7420  -26.4570   19.0520 C   0  0  0  0  0  0  0  0  0  0  0  0
  -22.4220  -26.6050   18.8490 N   0  0  0  0  0  0  0  0  0  0  0  0
  -24.2480  -25.3880   19.3990 O   0  0  0  0  0  0  0  0  0  0  0  0
  -22.0840  -27.5180   18.5780 H   0  0  0  0  0  0  0  0  0  0  0  0
  -18.8760  -25.9590   18.6560 C   0  0  0  0  0  0  0  0  0  0  0  0
  -21.4060  -25.5630   18.9940 C   0  0  0  0  0  3  0  0  0  0  0  0
  -21.3330  -24.6730   17.7310 C   0  0  0  0  0  2  0  0  0  0  0  0
  -20.2880  -25.1480   16.7180 C   0  0  0  0  0  2  0  0  0  0  0  0
  -18.8960  -25.1740   17.3540 C   0  0  0  0  0  2  0  0  0  0  0  0
  -20.0570  -26.1550   19.4160 C   0  0  0  0  0  0  0  0  0  0  0  0
  -19.9900  -26.9250   20.5980 C   0  0  0  0  0  3  0  0  0  0  0  0
  -18.7710  -27.4900   21.0200 C   0  0  0  0  0  3  0  0  0  0  0  0
  -17.6010  -27.2760   20.2700 C   0  0  0  0  0  3  0  0  0  0  0  0
  -17.6530  -26.5100   19.0920 C   0  0  0  0  0  3  0  0  0  0  0  0
  -27.1190  -27.8010   21.8260 C   0  0  0  0  0  3  0  0  0  0  0  0
  -27.5280  -26.3550   22.3080 C   0  0  1  0  0  0  0  0  0  0  0  0
  -26.3820  -25.5840   23.0010 C   0  0  0  0  0  1  0  0  0  0  0  0
  -28.0170  -25.5030   21.1150 C   0  0  0  0  0  1  0  0  0  0  0  0
  -28.7030  -26.4480   23.3100 C   0  0  0  0  0  1  0  0  0  0  0  0
  -26.8780  -28.6840   22.9750 N   0  0  0  0  0  0  0  0  0  0  0  0
  -27.3840  -29.9170   23.1040 C   0  0  0  0  0  0  0  0  0  0  0  0
  -28.1670  -30.4110   22.2870 O   0  0  0  0  0  0  0  0  0  0  0  0
  -26.2030  -28.3650   23.6550 H   0  0  0  0  0  0  0  0  0  0  0  0
  -25.8640  -31.7430   23.9250 C   0  0  0  0  0  1  0  0  0  0  0  0
  -26.9480  -30.7330   24.3340 C   0  0  0  0  0  3  0  0  0  0  0  0
  -29.0100  -30.5470   25.6560 C   0  0  0  0  0  1  0  0  0  0  0  0
  -28.0630  -31.4440   24.9940 N   0  0  0  0  0  0  0  0  0  0  0  0
  -27.7160  -32.1040   25.6850 H   0  0  0  0  0  0  0  0  0  0  0  0
  -32.1150  -21.0500   24.6130 C   0  0  0  0  0  2  0  0  0  0  0  0
  -31.8780  -20.6040   23.1590 C   0  0  0  0  0  2  0  0  0  0  0  0
  -33.1100  -20.8190   22.2560 C   0  0  0  0  0  2  0  0  0  0  0  0
  -32.7860  -20.7670   20.7480 C   0  0  0  0  0  2  0  0  0  0  0  0
  -32.8300  -19.3870   20.2170 N   0  0  0  0  0  4  0  0  0  0  0  0
  -32.5340  -18.7520   20.9380 H   0  0  0  0  0  0  0  0  0  0  0  0
  -33.7820  -19.1570   19.9840 H   0  0  0  0  0  0  0  0  0  0  0  0
  -31.9780  -19.1500   19.0310 C   0  0  0  0  0  2  0  0  0  0  0  0
  -32.2820  -17.7920   18.3660 C   0  0  0  0  0  2  0  0  0  0  0  0
  -31.8110  -16.3150   20.3080 C   0  0  0  0  0  0  0  0  0  0  0  0
  -32.6110  -16.7380   19.3240 N   0  0  0  0  0  0  0  0  0  0  0  0
  -30.7310  -16.8440   20.5670 O   0  0  0  0  0  0  0  0  0  0  0  0
  -33.4470  -16.1920   19.1470 H   0  0  0  0  0  0  0  0  0  0  0  0
  -32.2880  -15.1130   21.1210 C   0  0  0  0  0  2  0  0  0  0  0  0
  -31.5390  -13.2100   19.7240 C   0  0  0  0  0  0  0  0  0  0  0  0
  -30.7770  -11.1110   18.6870 C   0  0  0  0  0  2  0  0  0  0  0  0
  -29.7520  -11.3310   17.5600 C   0  0  0  0  0  2  0  0  0  0  0  0
  -28.3260  -11.4170   18.1330 C   0  0  0  0  0  2  0  0  0  0  0  0
  -28.2230  -12.4270   19.3040 C   0  0  0  0  0  3  0  0  0  0  0  0
  -29.3350  -12.1720   20.3460 C   0  0  0  0  0  2  0  0  0  0  0  0
  -30.6440  -12.1970   19.6660 N   0  0  0  0  0  0  0  0  0  0  0  0
  -32.4480  -13.3720   18.9050 O   0  0  0  0  0  0  0  0  0  0  0  0
  -31.4440  -13.9640   20.8210 N   0  0  0  0  0  0  0  0  0  0  0  0
  -30.6990  -13.7560   21.4660 H   0  0  0  0  0  0  0  0  0  0  0  0
  -26.0900  -13.4480   20.3310 C   0  0  0  0  0  0  0  0  0  0  0  0
  -24.9260  -12.8790   20.7660 C   0  0  0  0  0  0  0  0  0  0  0  0
  -25.0830  -11.4700   20.5890 C   0  0  0  0  0  0  0  0  0  0  0  0
  -26.8960  -12.3970   19.9160 N   0  0  0  0  0  0  0  0  0  0  0  0
  -26.2960  -11.1970   20.1260 N   0  0  0  0  0  0  0  0  0  0  0  0
  -24.1300  -10.3690   20.7760 C   0  0  0  0  0  0  0  0  0  0  0  0
  -24.4090   -9.2890   21.6430 C   0  0  0  0  0  3  0  0  0  0  0  0
  -23.4680   -8.2510   21.8190 C   0  0  0  0  0  3  0  0  0  0  0  0
  -22.2330   -8.2880   21.1310 C   0  0  0  0  0  0  0  0  0  0  0  0
  -21.9690   -9.3540   20.2520 C   0  0  0  0  0  3  0  0  0  0  0  0
  -22.9080  -10.3840   20.0730 C   0  0  0  0  0  3  0  0  0  0  0  0
  -21.2710   -7.3120   21.2200 O   0  0  0  0  0  0  0  0  0  0  0  0
  -21.1230   -6.5480   22.3500 C   0  0  0  0  0  0  0  0  0  0  0  0
  -20.8100   -7.1230   23.6010 C   0  0  0  0  0  3  0  0  0  0  0  0
  -20.5980   -6.2950   24.7230 C   0  0  0  0  0  3  0  0  0  0  0  0
  -20.6900   -4.8960   24.5930 C   0  0  0  0  0  0  0  0  0  0  0  0
  -20.9960   -4.3230   23.3460 C   0  0  0  0  0  3  0  0  0  0  0  0
  -21.2090   -5.1480   22.2280 C   0  0  0  0  0  0  0  0  0  0  0  0
  -21.4830   -4.5880   21.0250 F   0  0  0  0  0  0  0  0  0  0  0  0
  -20.4790   -4.1010   25.6680 F   0  0  0  0  0  0  0  0  0  0  0  0
  -23.6970  -13.6020   21.2400 C   0  0  0  0  0  0  0  0  0  0  0  0
  -22.9320  -12.9910   22.1370 N   0  0  0  0  0  0  0  0  0  0  0  0
  -23.4330  -14.7380   20.8470 O   0  0  0  0  0  0  0  0  0  0  0  0
  -23.1590  -12.0680   22.4760 H   0  0  0  0  0  0  0  0  0  0  0  0
  -22.1090  -13.4550   22.4940 H   0  0  0  0  0  0  0  0  0  0  0  0
  -26.5260  -14.7660   20.2310 N   0  0  0  0  0  0  0  0  0  0  0  0
  -25.9410  -15.5530   20.4850 H   0  0  0  0  0  0  0  0  0  0  0  0
  -27.4280  -15.0450   19.8660 H   0  0  0  0  0  0  0  0  0  0  0  0
  2  1  1  0
  3  4  1  0
  4  2  1  0
  5  3  2  0
  6  4  1  0
  7  3  1  0
  8 10  1  0
  8  7  1  0
  9  8  1  0
 11  8  1  0
 12 11  1  0
 13 12  1  0
 14 16  1  0
 14 13  1  0
 15 26  2  0
 16 21  1  0
 17 27  1  0
 17 25  1  0
 18 24  1  0
 18 20  1  0
 19 25  1  0
 20 19  1  0
 21 20  2  0
 22 23  1  0
 22 16  2  0
 23 18  2  0
 24 17  1  0
 25 15  1  0
 27 29  2  0
 28 27  1  0
 30 28  1  0
 31 40  2  0
 31 36  1  0
 32 28  1  0
 32 36  1  0
 33 32  1  0
 34 35  1  0
 34 33  1  0
 35 31  1  0
 36 37  2  0
 37 38  1  0
 39 38  2  0
 40 39  1  0
 41 15  1  0
 41 42  1  0
 41 46  1  0
 42 43  1  1
 42 45  1  0
 44 42  1  0
 46 47  1  0
 46 49  1  0
 47 51  1  0
 48 47  2  0
 51 50  1  0
 51 53  1  0
 53 52  1  0
 53 54  1  0
 55  1  1  0
 56 55  1  0
 57 56  1  0
 58 57  1  0
 59 58  1  0
 59 60  1  0
 61 59  1  0
 62 59  1  0
 63 62  1  0
 63 65  1  0
 64 66  2  0
 64 68  1  0
 65 64  1  0
 67 65  1  0
 69 77  1  0
 70 75  1  0
 71 72  1  0
 71 70  1  0
 73 72  1  0
 73 82  1  0
 73 74  1  0
 75 69  1  0
 75 74  1  0
 76 69  2  0
 77 68  1  0
 77 78  1  0
 79 80  2  0
 80 99  1  0
 81 80  1  0
 81 84  1  0
 82 83  1  0
 82 79  1  0
 83 81  2  0
 84 85  1  0
 85 86  2  0
 87 90  1  0
 87 86  1  0
 88 87  2  0
 89 88  1  0
 89 84  2  0
 90 91  1  0
 91 92  1  0
 92 93  2  0
 94 93  1  0
 94 98  1  0
 95 94  2  0
 96 91  2  0
 96 95  1  0
 97 96  1  0
 99100  1  0
100102  1  0
100103  1  0
101 99  2  0
104 79  1  0
104105  1  0
106104  1  0
M  ISO  4  13 101  14 101  69 100  77 100
M  END
>  <TORSDO>  (93) 
F 32

>  <SCORE>  (93) 
-5.376

>  <name>  (93) 
93

>  <ligand_id>  (93) 
93

>  <original_smiles>  (93) 
[H]c1c([H])c([H])c2c(c1[H])C([H])([H])C([H])([H])C([H])([H])C2([H])N([H])C(=O)C1([H])N(C(=O)C([H])(N([H])C(=O)C([H])(N([H])C([H])([H])[H])C([H])([H])[H])C(C([H])([H])[H])(C([H])([H])[H])C([H])([H])[H])C([H])([H])c2c([H])c(OC([H])([H])C([H])([H])C([H])([H])[N+]([H])([H])C([H])([H])C(=O)N([H])C([H])([H])C([H])([H])C([H])([H])C([H])([H])C([H])([H])C([H])([H])[N+]([H])([H])C([H])([H])C([H])([H])N([H])C(=O)C([H])([H])N([H])C(=O)N3C([H])([H])C([H])([H])C([H])([H])C([H])(n4nc(-c5c([H])c([H])c(Oc6c([H])c([H])c(F)c([H])c6F)c([H])c5[H])c(C(=O)N([H])[H])c4N([H])[H])C3([H])[H])c([H])c([H])c2C1([H])[H]

>  <smiles>  (93) 
[H]c1c([H])c([H])c2c(c1[H])C([H])([H])C([H])([H])C([H])([H])C2([H])N([H])C(=O)C1([H])N(C(=O)C([H])(N([H])C(=O)C([H])(N([H])C([H])([H])[H])C([H])([H])[H])C(C([H])([H])[H])(C([H])([H])[H])C([H])([H])[H])C([H])([H])c2c([H])c(OC([H])([H])C([H])([H])C([H])([H])[N+]([H])([H])C([H])([H])C(=O)N([H])C([H])([H])C([H])([H])C([H])([H])C([H])([H])C([H])([H])C([H])([H])[N+]([H])([H])C([H])([H])C([H])([H])N([H])C(=O)C([H])([H])N([H])C(=O)N3C([H])([H])C([H])([H])C([H])([H])C([H])(n4nc(-c5c([H])c([H])c(Oc6c([H])c([H])c(F)c([H])c6F)c([H])c5[H])c(C(=O)N([H])[H])c4N([H])[H])C3([H])[H])c([H])c([H])c2C1([H])[H]

$$$$
94:0:0
     RDKit          3D

 96103  0  0  1  0  0  0  0  0999 V2000
  -27.1570  -24.6460   21.5220 C   0  0  0  0  0  2  0  0  0  0  0  0
  -28.1810  -25.5330   20.8050 C   0  0  0  0  0  0  0  0  0  0  0  0
  -28.4650  -25.2470   19.5280 N   0  0  0  0  0  0  0  0  0  0  0  0
  -28.7210  -26.4590   21.4140 O   0  0  0  0  0  0  0  0  0  0  0  0
  -28.0070  -24.4480   19.1090 H   0  0  0  0  0  0  0  0  0  0  0  0
  -29.4560  -25.9470   18.7110 C   0  0  0  0  0  2  0  0  0  0  0  0
  -28.8600  -26.4860   17.3960 C   0  0  0  0  0  2  0  0  0  0  0  0
  -28.6160  -25.4090   16.3270 C   0  0  0  0  0  2  0  0  0  0  0  0
  -27.7420  -25.9130   15.1670 C   0  0  0  0  0  2  0  0  0  0  0  0
  -27.1070  -27.2650   15.4950 C   0  0  0  0  0  2  0  0  0  0  0  0
  -24.5350  -27.0980   15.3840 C   0  0  0  0  0  0  0  0  0  0  0  0
  -23.0670  -27.4480   13.4290 C   0  0  0  0  0  2  0  0  0  0  0  0
  -23.0910  -26.2330   12.4760 C   0  0  0  0  0  2  0  0  0  0  0  0
  -24.2820  -26.2810   11.4950 C   0  0  0  0  0  2  0  0  0  0  0  0
  -25.6140  -26.6270   12.2060 C   0  0  0  0  0  3  0  0  0  0  0  0
  -25.3930  -27.8760   13.0810 C   0  0  0  0  0  2  0  0  0  0  0  0
  -24.3800  -27.5450   14.0990 N   0  0  0  0  0  0  0  0  0  0  0  0
  -23.5750  -26.7160   16.0560 O   0  0  0  0  0  0  0  0  0  0  0  0
  -25.7380  -27.1350   15.9930 N   0  0  0  0  0  0  0  0  0  0  0  0
  -25.6820  -26.8780   16.9670 H   0  0  0  0  0  0  0  0  0  0  0  0
  -27.7580  -25.9760   10.9260 C   0  0  0  0  0  0  0  0  0  0  0  0
  -28.4450  -26.6030    9.9180 C   0  0  0  0  0  0  0  0  0  0  0  0
  -27.7460  -27.8210    9.6640 C   0  0  0  0  0  0  0  0  0  0  0  0
  -26.7020  -26.8160   11.2490 N   0  0  0  0  0  0  0  0  0  0  0  0
  -26.7300  -27.9520   10.5060 N   0  0  0  0  0  0  0  0  0  0  0  0
  -27.9450  -28.8430    8.6310 C   0  0  0  0  0  0  0  0  0  0  0  0
  -28.8190  -29.9360    8.8290 C   0  0  0  0  0  3  0  0  0  0  0  0
  -29.0030  -30.8980    7.8130 C   0  0  0  0  0  3  0  0  0  0  0  0
  -28.3170  -30.7700    6.5830 C   0  0  0  0  0  0  0  0  0  0  0  0
  -27.4300  -29.6950    6.4010 C   0  0  0  0  0  3  0  0  0  0  0  0
  -27.2420  -28.7420    7.4140 C   0  0  0  0  0  3  0  0  0  0  0  0
  -28.4180  -31.6660    5.5490 O   0  0  0  0  0  0  0  0  0  0  0  0
  -29.5930  -32.3200    5.2720 C   0  0  0  0  0  0  0  0  0  0  0  0
  -30.7340  -31.6330    4.8050 C   0  0  0  0  0  3  0  0  0  0  0  0
  -31.9000  -32.3490    4.4710 C   0  0  0  0  0  3  0  0  0  0  0  0
  -31.9240  -33.7520    4.5910 C   0  0  0  0  0  0  0  0  0  0  0  0
  -30.7870  -34.4370    5.0520 C   0  0  0  0  0  3  0  0  0  0  0  0
  -29.6240  -33.7240    5.3890 C   0  0  0  0  0  0  0  0  0  0  0  0
  -28.5270  -34.3940    5.8140 F   0  0  0  0  0  0  0  0  0  0  0  0
  -33.0410  -34.4400    4.2610 F   0  0  0  0  0  0  0  0  0  0  0  0
  -29.6280  -26.0620    9.1690 C   0  0  0  0  0  0  0  0  0  0  0  0
  -30.6790  -26.8590    9.0210 N   0  0  0  0  0  0  0  0  0  0  0  0
  -29.6440  -24.9060    8.7500 O   0  0  0  0  0  0  0  0  0  0  0  0
  -30.6680  -27.8040    9.3740 H   0  0  0  0  0  0  0  0  0  0  0  0
  -31.5170  -26.5090    8.5720 H   0  0  0  0  0  0  0  0  0  0  0  0
  -27.9330  -24.7600   11.5780 N   0  0  0  0  0  0  0  0  0  0  0  0
  -28.6870  -24.1250   11.3390 H   0  0  0  0  0  0  0  0  0  0  0  0
  -27.3070  -24.3850   12.2770 H   0  0  0  0  0  0  0  0  0  0  0  0
  -26.8640  -25.1780   22.8690 N   0  0  0  0  0  4  0  0  0  0  0  0
  -27.4200  -26.0170   22.9410 H   0  0  0  0  0  0  0  0  0  0  0  0
  -27.1840  -24.5230   23.5630 H   0  0  0  0  0  0  0  0  0  0  0  0
  -25.4450  -25.5210   23.1170 C   0  0  0  0  0  2  0  0  0  0  0  0
  -25.2280  -27.0420   23.2260 C   0  0  0  0  0  2  0  0  0  0  0  0
  -24.3660  -27.4190   24.4430 C   0  0  0  0  0  2  0  0  0  0  0  0
  -24.6130  -28.8510   24.9510 C   0  0  0  0  0  2  0  0  0  0  0  0
  -25.7830  -28.8950   25.7560 O   0  0  0  0  0  0  0  0  0  0  0  0
  -30.7030  -33.9440   26.7540 C   0  0  0  0  0  0  0  0  0  0  0  0
  -26.8330  -29.6230   25.2610 C   0  0  0  0  0  0  0  0  0  0  0  0
  -30.6020  -32.9650   24.4810 C   0  0  0  0  0  3  0  0  0  0  0  0
  -29.1200  -30.9080   24.2360 C   0  0  0  0  0  0  0  0  0  0  0  0
  -29.8530  -31.6200   26.5190 C   0  0  0  0  0  2  0  0  0  0  0  0
  -28.8650  -30.9200   25.6130 C   0  0  0  0  0  0  0  0  0  0  0  0
  -27.7180  -30.2840   26.1320 C   0  0  0  0  0  3  0  0  0  0  0  0
  -27.0900  -29.6180   23.8750 C   0  0  0  0  0  3  0  0  0  0  0  0
  -28.2280  -30.2640   23.3540 C   0  0  0  0  0  3  0  0  0  0  0  0
  -30.3790  -31.6010   23.7710 C   0  0  0  0  0  2  0  0  0  0  0  0
  -30.3720  -32.8880   25.9610 N   0  0  0  0  0  0  0  0  0  0  0  0
  -31.2310  -34.9580   26.2780 O   0  0  0  0  0  0  0  0  0  0  0  0
  -29.7280  -34.0320   23.7840 C   0  0  0  0  0  0  0  0  0  0  0  0
  -30.3820  -35.0270   23.1640 N   0  0  0  0  0  0  0  0  0  0  0  0
  -28.4970  -33.9390   23.7800 O   0  0  0  0  0  0  0  0  0  0  0  0
  -31.3910  -35.0400   23.2220 H   0  0  0  0  0  0  0  0  0  0  0  0
  -30.5700  -38.5780   22.5120 C   0  0  0  0  0  0  0  0  0  0  0  0
  -29.7740  -36.1200   22.4080 C   0  0  0  0  0  3  0  0  0  0  0  0
  -30.2710  -36.1280   20.9440 C   0  0  0  0  0  2  0  0  0  0  0  0
  -31.4840  -37.0370   20.7230 C   0  0  0  0  0  2  0  0  0  0  0  0
  -31.1510  -38.4810   21.1110 C   0  0  0  0  0  2  0  0  0  0  0  0
  -29.9380  -37.4640   23.1270 C   0  0  0  0  0  0  0  0  0  0  0  0
  -29.4490  -37.5960   24.4460 C   0  0  0  0  0  3  0  0  0  0  0  0
  -29.5780  -38.8130   25.1420 C   0  0  0  0  0  3  0  0  0  0  0  0
  -30.1930  -39.9150   24.5240 C   0  0  0  0  0  3  0  0  0  0  0  0
  -30.6830  -39.7980   23.2100 C   0  0  0  0  0  3  0  0  0  0  0  0
  -30.4500  -33.9260   28.2960 C   0  0  0  0  0  3  0  0  0  0  0  0
  -31.5970  -34.5810   28.9400 N   0  0  0  0  0  0  0  0  0  0  0  0
  -32.4390  -33.9780   29.7920 C   0  0  0  0  0  0  0  0  0  0  0  0
  -32.2820  -32.8170   30.1800 O   0  0  0  0  0  0  0  0  0  0  0  0
  -31.8100  -35.5200   28.6390 H   0  0  0  0  0  0  0  0  0  0  0  0
  -34.9280  -33.9670   30.1300 C   0  0  0  0  0  1  0  0  0  0  0  0
  -33.6430  -34.7950   30.2960 C   0  0  0  0  0  3  0  0  0  0  0  0
  -32.5530  -36.3250   31.8750 C   0  0  0  0  0  1  0  0  0  0  0  0
  -33.5120  -35.2370   31.7010 N   0  0  0  0  0  0  0  0  0  0  0  0
  -34.4100  -35.5420   32.0690 H   0  0  0  0  0  0  0  0  0  0  0  0
  -29.0970  -34.6210   28.7180 C   0  0  1  0  0  0  0  0  0  0  0  0
  -28.9930  -36.0930   28.2620 C   0  0  0  0  0  1  0  0  0  0  0  0
  -27.8870  -33.8570   28.1340 C   0  0  0  0  0  1  0  0  0  0  0  0
  -28.9450  -34.5850   30.2570 C   0  0  0  0  0  1  0  0  0  0  0  0
  1 49  1  0
  2  4  2  0
  2  1  1  0
  3  2  1  0
  5  3  1  0
  6  3  1  0
  7  6  1  0
  8  7  1  0
  9 10  1  0
  9  8  1  0
 10 19  1  0
 11 19  1  0
 11 18  2  0
 12 17  1  0
 13 12  1  0
 14 15  1  0
 14 13  1  0
 15 24  1  0
 15 16  1  0
 16 17  1  0
 17 11  1  0
 19 20  1  0
 21 24  1  0
 21 46  1  0
 22 21  2  0
 23 22  1  0
 23 25  2  0
 25 24  1  0
 26 27  1  0
 26 23  1  0
 28 27  2  0
 29 28  1  0
 30 29  2  0
 30 31  1  0
 31 26  2  0
 32 29  1  0
 33 38  1  0
 33 32  1  0
 34 33  2  0
 35 36  2  0
 35 34  1  0
 36 37  1  0
 37 38  2  0
 38 39  1  0
 40 36  1  0
 41 22  1  0
 42 41  1  0
 42 44  1  0
 43 41  2  0
 45 42  1  0
 46 48  1  0
 47 46  1  0
 49 50  1  0
 49 52  1  0
 49 51  1  0
 52 53  1  0
 53 54  1  0
 54 55  1  0
 55 56  1  0
 58 56  1  0
 58 63  1  0
 59 69  1  0
 59 67  1  0
 60 62  1  0
 62 63  2  0
 62 61  1  0
 64 58  2  0
 65 64  1  0
 65 60  2  0
 66 60  1  0
 66 59  1  0
 67 61  1  0
 67 57  1  0
 68 57  2  0
 70 72  1  0
 70 69  1  0
 71 69  2  0
 73 78  2  0
 73 82  1  0
 74 78  1  0
 74 70  1  0
 75 74  1  0
 76 75  1  0
 76 77  1  0
 77 73  1  0
 78 79  1  0
 79 80  2  0
 81 80  1  0
 82 81  2  0
 83 57  1  0
 83 93  1  0
 83 84  1  0
 84 85  1  0
 85 86  2  0
 85 89  1  0
 87 84  1  0
 89 88  1  0
 89 91  1  0
 91 90  1  0
 91 92  1  0
 93 96  1  1
 94 93  1  0
 95 93  1  0
M  ISO  4  11 100  19 100  55 101  56 101
M  END
>  <TORSDO>  (94) 
F 27

>  <SCORE>  (94) 
-5.655

>  <name>  (94) 
94

>  <ligand_id>  (94) 
94

>  <original_smiles>  (94) 
[H]c1c([H])c([H])c2c(c1[H])C([H])([H])C([H])([H])C([H])([H])C2([H])N([H])C(=O)C1([H])N(C(=O)C([H])(N([H])C(=O)C([H])(N([H])C([H])([H])[H])C([H])([H])[H])C(C([H])([H])[H])(C([H])([H])[H])C([H])([H])[H])C([H])([H])c2c([H])c(OC([H])([H])C([H])([H])C([H])([H])C([H])([H])[N+]([H])([H])C([H])([H])C(=O)N([H])C([H])([H])C([H])([H])C([H])([H])C([H])([H])C([H])([H])N([H])C(=O)N3C([H])([H])C([H])([H])C([H])([H])C([H])(n4nc(-c5c([H])c([H])c(Oc6c([H])c([H])c(F)c([H])c6F)c([H])c5[H])c(C(=O)N([H])[H])c4N([H])[H])C3([H])[H])c([H])c([H])c2C1([H])[H]

>  <smiles>  (94) 
[H]c1c([H])c([H])c2c(c1[H])C([H])([H])C([H])([H])C([H])([H])C2([H])N([H])C(=O)C1([H])N(C(=O)C([H])(N([H])C(=O)C([H])(N([H])C([H])([H])[H])C([H])([H])[H])C(C([H])([H])[H])(C([H])([H])[H])C([H])([H])[H])C([H])([H])c2c([H])c(OC([H])([H])C([H])([H])C([H])([H])C([H])([H])[N+]([H])([H])C([H])([H])C(=O)N([H])C([H])([H])C([H])([H])C([H])([H])C([H])([H])C([H])([H])N([H])C(=O)N3C([H])([H])C([H])([H])C([H])([H])C([H])(n4nc(-c5c([H])c([H])c(Oc6c([H])c([H])c(F)c([H])c6F)c([H])c5[H])c(C(=O)N([H])[H])c4N([H])[H])C3([H])[H])c([H])c([H])c2C1([H])[H]

$$$$
95:0:0
     RDKit          3D

 97104  0  0  1  0  0  0  0  0999 V2000
  -24.0840  -23.4520   22.6720 C   0  0  0  0  0  2  0  0  0  0  0  0
  -23.8220  -22.0950   22.0070 C   0  0  0  0  0  0  0  0  0  0  0  0
  -23.4150  -21.0940   22.8020 N   0  0  0  0  0  0  0  0  0  0  0  0
  -23.9620  -21.9590   20.7880 O   0  0  0  0  0  0  0  0  0  0  0  0
  -23.3130  -21.2920   23.7890 H   0  0  0  0  0  0  0  0  0  0  0  0
  -23.0790  -19.7470   22.3490 C   0  0  0  0  0  2  0  0  0  0  0  0
  -24.2730  -18.7770   22.4750 C   0  0  0  0  0  2  0  0  0  0  0  0
  -25.0490  -18.6450   21.1560 C   0  0  0  0  0  2  0  0  0  0  0  0
  -26.4580  -18.0510   21.3230 C   0  0  0  0  0  2  0  0  0  0  0  0
  -27.1790  -17.9730   19.9730 C   0  0  0  0  0  2  0  0  0  0  0  0
  -28.6860  -17.6820   20.0700 C   0  0  0  0  0  2  0  0  0  0  0  0
  -30.0860  -16.1070   18.6900 C   0  0  0  0  0  0  0  0  0  0  0  0
  -30.5240  -13.6870   18.6010 C   0  0  0  0  0  2  0  0  0  0  0  0
  -29.5230  -12.9970   17.6490 C   0  0  0  0  0  2  0  0  0  0  0  0
  -28.2190  -12.6320   18.3850 C   0  0  0  0  0  2  0  0  0  0  0  0
  -27.6530  -13.8050   19.2280 C   0  0  0  0  0  3  0  0  0  0  0  0
  -28.7720  -14.4300   20.0870 C   0  0  0  0  0  2  0  0  0  0  0  0
  -29.8570  -14.8590   19.1860 N   0  0  0  0  0  0  0  0  0  0  0  0
  -30.9840  -16.3510   17.8830 O   0  0  0  0  0  0  0  0  0  0  0  0
  -29.1280  -17.0300   18.8410 N   0  0  0  0  0  0  0  0  0  0  0  0
  -29.1840  -17.7000   18.0860 H   0  0  0  0  0  0  0  0  0  0  0  0
  -25.6110  -14.1430   20.7620 C   0  0  0  0  0  0  0  0  0  0  0  0
  -24.7090  -13.2620   21.2920 C   0  0  0  0  0  0  0  0  0  0  0  0
  -25.1130  -11.9680   20.8460 C   0  0  0  0  0  0  0  0  0  0  0  0
  -26.5180  -13.3780   20.0450 N   0  0  0  0  0  0  0  0  0  0  0  0
  -26.2340  -12.0530   20.1400 N   0  0  0  0  0  0  0  0  0  0  0  0
  -24.4660  -10.6580   20.9990 C   0  0  0  0  0  0  0  0  0  0  0  0
  -24.9250   -9.7160   21.9460 C   0  0  0  0  0  3  0  0  0  0  0  0
  -24.2780   -8.4700   22.0880 C   0  0  0  0  0  3  0  0  0  0  0  0
  -23.1580   -8.1570   21.2840 C   0  0  0  0  0  0  0  0  0  0  0  0
  -22.7170   -9.0890   20.3290 C   0  0  0  0  0  3  0  0  0  0  0  0
  -23.3660  -10.3270   20.1840 C   0  0  0  0  0  3  0  0  0  0  0  0
  -22.4810   -6.9610   21.3350 O   0  0  0  0  0  0  0  0  0  0  0  0
  -22.1510   -6.3730   22.5280 C   0  0  0  0  0  0  0  0  0  0  0  0
  -21.2430   -6.9720   23.4280 C   0  0  0  0  0  3  0  0  0  0  0  0
  -20.8770   -6.3010   24.6120 C   0  0  0  0  0  3  0  0  0  0  0  0
  -21.4080   -5.0270   24.8910 C   0  0  0  0  0  0  0  0  0  0  0  0
  -22.3070   -4.4250   23.9950 C   0  0  0  0  0  3  0  0  0  0  0  0
  -22.6760   -5.0960   22.8140 C   0  0  0  0  0  0  0  0  0  0  0  0
  -23.5260   -4.5040   21.9420 F   0  0  0  0  0  0  0  0  0  0  0  0
  -21.0520   -4.3770   26.0250 F   0  0  0  0  0  0  0  0  0  0  0  0
  -23.4810  -13.6070   22.0870 C   0  0  0  0  0  0  0  0  0  0  0  0
  -23.0590  -12.7180   22.9770 N   0  0  0  0  0  0  0  0  0  0  0  0
  -22.9190  -14.6940   21.9570 O   0  0  0  0  0  0  0  0  0  0  0  0
  -23.5350  -11.8370   23.1010 H   0  0  0  0  0  0  0  0  0  0  0  0
  -22.2480  -12.9240   23.5440 H   0  0  0  0  0  0  0  0  0  0  0  0
  -25.7200  -15.5290   20.8130 N   0  0  0  0  0  0  0  0  0  0  0  0
  -25.0410  -16.1040   21.3000 H   0  0  0  0  0  0  0  0  0  0  0  0
  -26.4380  -16.0680   20.3470 H   0  0  0  0  0  0  0  0  0  0  0  0
  -25.5570  -24.6230   21.0490 C   0  0  0  0  0  0  0  0  0  0  0  0
  -24.3920  -24.4880   21.6860 N   0  0  0  0  0  0  0  0  0  0  0  0
  -26.5410  -23.9300   21.3120 O   0  0  0  0  0  0  0  0  0  0  0  0
  -23.6270  -25.0830   21.4070 H   0  0  0  0  0  0  0  0  0  0  0  0
  -25.4980  -25.6560   20.0310 C   0  0  0  0  0  3  0  0  0  0  0  0
  -26.6110  -26.0550   19.3840 C   0  0  0  0  0  3  0  0  0  0  0  0
  -26.6460  -27.1190   18.3000 C   0  0  0  0  0  2  0  0  0  0  0  0
  -26.9230  -28.4160   18.8340 O   0  0  0  0  0  0  0  0  0  0  0  0
  -24.8590  -32.4930   24.2620 C   0  0  0  0  0  0  0  0  0  0  0  0
  -25.8860  -29.1460   19.3770 C   0  0  0  0  0  0  0  0  0  0  0  0
  -23.0610  -31.7800   22.7210 C   0  0  0  0  0  3  0  0  0  0  0  0
  -23.8330  -30.7030   20.5450 C   0  0  0  0  0  0  0  0  0  0  0  0
  -25.4690  -32.0290   21.8920 C   0  0  0  0  0  2  0  0  0  0  0  0
  -25.1710  -30.9400   20.8850 C   0  0  0  0  0  0  0  0  0  0  0  0
  -26.1990  -30.1710   20.2980 C   0  0  0  0  0  3  0  0  0  0  0  0
  -24.5280  -28.9250   19.0430 C   0  0  0  0  0  3  0  0  0  0  0  0
  -23.5060  -29.6940   19.6250 C   0  0  0  0  0  3  0  0  0  0  0  0
  -22.7920  -31.5760   21.2060 C   0  0  0  0  0  2  0  0  0  0  0  0
  -24.4990  -32.0950   23.0110 N   0  0  0  0  0  0  0  0  0  0  0  0
  -24.0140  -32.6420   25.1550 O   0  0  0  0  0  0  0  0  0  0  0  0
  -22.5370  -30.5450   23.4860 C   0  0  0  0  0  0  0  0  0  0  0  0
  -21.2570  -30.2080   23.2700 N   0  0  0  0  0  0  0  0  0  0  0  0
  -23.2830  -29.8980   24.2270 O   0  0  0  0  0  0  0  0  0  0  0  0
  -20.7120  -30.7940   22.6510 H   0  0  0  0  0  0  0  0  0  0  0  0
  -18.2620  -28.2040   23.0380 C   0  0  0  0  0  0  0  0  0  0  0  0
  -20.5590  -29.0630   23.8510 C   0  0  0  0  0  3  0  0  0  0  0  0
  -21.1330  -27.7290   23.3180 C   0  0  0  0  0  2  0  0  0  0  0  0
  -20.3840  -27.1990   22.0910 C   0  0  0  0  0  2  0  0  0  0  0  0
  -18.9060  -26.9730   22.4240 C   0  0  0  0  0  2  0  0  0  0  0  0
  -19.0390  -29.1930   23.6950 C   0  0  0  0  0  0  0  0  0  0  0  0
  -18.3950  -30.3350   24.2180 C   0  0  0  0  0  3  0  0  0  0  0  0
  -17.0030  -30.4960   24.0950 C   0  0  0  0  0  3  0  0  0  0  0  0
  -16.2350  -29.5050   23.4570 C   0  0  0  0  0  3  0  0  0  0  0  0
  -16.8630  -28.3610   22.9340 C   0  0  0  0  0  3  0  0  0  0  0  0
  -26.3450  -32.8040   24.6270 C   0  0  0  0  0  3  0  0  0  0  0  0
  -26.9340  -31.8320   25.7210 C   0  0  1  0  0  0  0  0  0  0  0  0
  -26.0260  -31.6720   26.9620 C   0  0  0  0  0  1  0  0  0  0  0  0
  -27.1760  -30.4250   25.1280 C   0  0  0  0  0  1  0  0  0  0  0  0
  -28.3110  -32.3520   26.2000 C   0  0  0  0  0  1  0  0  0  0  0  0
  -26.4050  -34.1980   25.0820 N   0  0  0  0  0  0  0  0  0  0  0  0
  -26.7830  -35.2310   24.3170 C   0  0  0  0  0  0  0  0  0  0  0  0
  -27.1920  -35.0960   23.1610 O   0  0  0  0  0  0  0  0  0  0  0  0
  -26.0350  -34.3890   26.0020 H   0  0  0  0  0  0  0  0  0  0  0  0
  -25.4200  -37.3410   24.4340 C   0  0  0  0  0  1  0  0  0  0  0  0
  -26.6930  -36.6400   24.9360 C   0  0  0  0  0  3  0  0  0  0  0  0
  -29.0820  -37.0400   25.3370 C   0  0  0  0  0  1  0  0  0  0  0  0
  -27.8730  -37.4850   24.6480 N   0  0  0  0  0  0  0  0  0  0  0  0
  -27.6970  -38.4510   24.9080 H   0  0  0  0  0  0  0  0  0  0  0  0
  2  1  1  0
  2  3  1  0
  3  5  1  0
  4  2  2  0
  6  7  1  0
  6  3  1  0
  8  9  1  0
  8  7  1  0
 10 11  1  0
 10  9  1  0
 12 20  1  0
 12 18  1  0
 13 18  1  0
 14 15  1  0
 14 13  1  0
 16 15  1  0
 16 25  1  0
 16 17  1  0
 18 17  1  0
 19 12  2  0
 20 11  1  0
 21 20  1  0
 22 47  1  0
 22 23  2  0
 23 42  1  0
 24 27  1  0
 24 23  1  0
 25 26  1  0
 25 22  1  0
 26 24  2  0
 27 28  1  0
 28 29  2  0
 30 33  1  0
 30 29  1  0
 31 30  2  0
 32 31  1  0
 32 27  2  0
 33 34  1  0
 34 39  2  0
 34 35  1  0
 35 36  2  0
 36 37  1  0
 37 41  1  0
 38 37  2  0
 39 38  1  0
 40 39  1  0
 42 43  1  0
 43 45  1  0
 43 46  1  0
 44 42  2  0
 47 48  1  0
 49 47  1  0
 50 52  2  0
 50 51  1  0
 51  1  1  0
 53 51  1  0
 54 50  1  0
 55 54  2  0
 56 57  1  0
 56 55  1  0
 57 59  1  0
 58 69  2  0
 59 64  1  0
 60 68  1  0
 60 70  1  0
 61 63  1  0
 61 67  1  0
 62 68  1  0
 63 62  1  0
 64 63  2  0
 65 59  2  0
 65 66  1  0
 66 61  2  0
 67 60  1  0
 68 58  1  0
 70 72  2  0
 71 70  1  0
 73 71  1  0
 74 79  1  0
 75 71  1  0
 76 75  1  0
 77 78  1  0
 77 76  1  0
 78 74  1  0
 79 75  1  0
 79 80  2  0
 81 80  1  0
 82 81  2  0
 83 74  2  0
 83 82  1  0
 84 58  1  0
 84 89  1  0
 84 85  1  0
 85 88  1  1
 85 86  1  0
 87 85  1  0
 89 92  1  0
 90 94  1  0
 90 89  1  0
 91 90  2  0
 94 93  1  0
 96 97  1  0
 96 94  1  0
 96 95  1  0
M  ISO  4  12 100  20 100  56 101  57 101
M  END
>  <TORSDO>  (95) 
F 26

>  <SCORE>  (95) 
32.970

>  <name>  (95) 
95

>  <ligand_id>  (95) 
95

>  <original_smiles>  (95) 
[H]C(C(=O)N([H])C([H])([H])C(=O)N([H])C([H])([H])C([H])([H])C([H])([H])C([H])([H])C([H])([H])C([H])([H])N([H])C(=O)N1C([H])([H])C([H])([H])C([H])([H])C([H])(n2nc(-c3c([H])c([H])c(Oc4c([H])c([H])c(F)c([H])c4F)c([H])c3[H])c(C(=O)N([H])[H])c2N([H])[H])C1([H])[H])=C([H])C([H])([H])Oc1c([H])c([H])c2c(c1[H])C([H])([H])N(C(=O)C([H])(N([H])C(=O)C([H])(N([H])C([H])([H])[H])C([H])([H])[H])C(C([H])([H])[H])(C([H])([H])[H])C([H])([H])[H])C([H])(C(=O)N([H])C1([H])c3c([H])c([H])c([H])c([H])c3C([H])([H])C([H])([H])C1([H])[H])C2([H])[H]

>  <smiles>  (95) 
[H]C(C(=O)N([H])C([H])([H])C(=O)N([H])C([H])([H])C([H])([H])C([H])([H])C([H])([H])C([H])([H])C([H])([H])N([H])C(=O)N1C([H])([H])C([H])([H])C([H])([H])C([H])(n2nc(-c3c([H])c([H])c(Oc4c([H])c([H])c(F)c([H])c4F)c([H])c3[H])c(C(=O)N([H])[H])c2N([H])[H])C1([H])[H])=C([H])C([H])([H])Oc1c([H])c([H])c2c(c1[H])C([H])([H])N(C(=O)C([H])(N([H])C(=O)C([H])(N([H])C([H])([H])[H])C([H])([H])[H])C(C([H])([H])[H])(C([H])([H])[H])C([H])([H])[H])C([H])(C(=O)N([H])C1([H])c3c([H])c([H])c([H])c([H])c3C([H])([H])C([H])([H])C1([H])[H])C2([H])[H]

$$$$
96:0:0
     RDKit          3D

100107  0  0  1  0  0  0  0  0999 V2000
  -24.5070  -21.1920   18.1730 C   0  0  0  0  0  0  0  0  0  0  0  0
  -24.4800  -22.4870   18.5170 N   0  0  0  0  0  0  0  0  0  0  0  0
  -23.8270  -20.3310   18.7360 O   0  0  0  0  0  0  0  0  0  0  0  0
  -25.0970  -23.1160   18.0180 H   0  0  0  0  0  0  0  0  0  0  0  0
  -23.5550  -23.0940   19.4790 C   0  0  0  0  0  2  0  0  0  0  0  0
  -23.8430  -22.7330   20.9510 C   0  0  0  0  0  2  0  0  0  0  0  0
  -24.7820  -23.6880   21.7110 C   0  0  0  0  0  2  0  0  0  0  0  0
  -26.2630  -23.6660   21.2870 C   0  0  0  0  0  2  0  0  0  0  0  0
  -26.6630  -24.7900   20.3110 C   0  0  0  0  0  2  0  0  0  0  0  0
  -28.1880  -25.0110   20.2410 C   0  0  0  0  0  2  0  0  0  0  0  0
  -28.6880  -26.1170   19.2770 C   0  0  0  0  0  2  0  0  0  0  0  0
  -28.6450  -27.4530   19.8000 O   0  0  0  0  0  0  0  0  0  0  0  0
  -24.7060  -32.0040   23.5720 C   0  0  0  0  0  0  0  0  0  0  0  0
  -27.4480  -28.1370   19.8630 C   0  0  0  0  0  0  0  0  0  0  0  0
  -23.5380  -30.8460   21.7280 C   0  0  0  0  0  3  0  0  0  0  0  0
  -25.0230  -29.5840   20.0880 C   0  0  0  0  0  0  0  0  0  0  0  0
  -26.0560  -31.2830   21.6040 C   0  0  0  0  0  2  0  0  0  0  0  0
  -26.1700  -30.0300   20.7590 C   0  0  0  0  0  0  0  0  0  0  0  0
  -27.3810  -29.3110   20.6490 C   0  0  0  0  0  3  0  0  0  0  0  0
  -26.2870  -27.7240   19.1690 C   0  0  0  0  0  3  0  0  0  0  0  0
  -25.0770  -28.4260   19.2960 C   0  0  0  0  0  3  0  0  0  0  0  0
  -23.7620  -30.4000   20.2590 C   0  0  0  0  0  2  0  0  0  0  0  0
  -24.7850  -31.3840   22.3610 N   0  0  0  0  0  0  0  0  0  0  0  0
  -23.6180  -32.1630   24.1420 O   0  0  0  0  0  0  0  0  0  0  0  0
  -22.9100  -29.6700   22.5130 C   0  0  0  0  0  0  0  0  0  0  0  0
  -21.5980  -29.4580   22.3210 N   0  0  0  0  0  0  0  0  0  0  0  0
  -23.6010  -28.9620   23.2490 O   0  0  0  0  0  0  0  0  0  0  0  0
  -21.0930  -30.1030   21.7310 H   0  0  0  0  0  0  0  0  0  0  0  0
  -18.2850  -28.0080   22.4770 C   0  0  0  0  0  0  0  0  0  0  0  0
  -20.8050  -28.3850   22.9200 C   0  0  0  0  0  3  0  0  0  0  0  0
  -21.0360  -27.0420   22.1940 C   0  0  0  0  0  2  0  0  0  0  0  0
  -20.0070  -26.7640   21.0940 C   0  0  0  0  0  2  0  0  0  0  0  0
  -18.5870  -26.7530   21.6770 C   0  0  0  0  0  2  0  0  0  0  0  0
  -19.3290  -28.7800   23.0490 C   0  0  0  0  0  0  0  0  0  0  0  0
  -19.0000  -29.9550   23.7590 C   0  0  0  0  0  3  0  0  0  0  0  0
  -17.6610  -30.3580   23.9040 C   0  0  0  0  0  3  0  0  0  0  0  0
  -16.6290  -29.5830   23.3430 C   0  0  0  0  0  3  0  0  0  0  0  0
  -16.9410  -28.4070   22.6360 C   0  0  0  0  0  3  0  0  0  0  0  0
  -25.9760  -32.5610   24.2880 C   0  0  0  0  0  3  0  0  0  0  0  0
  -26.4220  -31.6900   25.5270 C   0  0  1  0  0  0  0  0  0  0  0  0
  -25.2820  -31.4070   26.5340 C   0  0  0  0  0  1  0  0  0  0  0  0
  -26.9850  -30.3270   25.0650 C   0  0  0  0  0  1  0  0  0  0  0  0
  -27.5670  -32.4020   26.2840 C   0  0  0  0  0  1  0  0  0  0  0  0
  -25.6810  -33.9410   24.7020 N   0  0  0  0  0  0  0  0  0  0  0  0
  -26.0760  -35.0340   24.0350 C   0  0  0  0  0  0  0  0  0  0  0  0
  -26.7960  -34.9830   23.0330 O   0  0  0  0  0  0  0  0  0  0  0  0
  -25.0490  -34.0580   25.4820 H   0  0  0  0  0  0  0  0  0  0  0  0
  -24.4090  -36.8890   23.6960 C   0  0  0  0  0  1  0  0  0  0  0  0
  -25.5890  -36.4010   24.5540 C   0  0  0  0  0  3  0  0  0  0  0  0
  -27.6910  -37.1610   25.5700 C   0  0  0  0  0  1  0  0  0  0  0  0
  -26.6490  -37.4330   24.5820 N   0  0  0  0  0  0  0  0  0  0  0  0
  -26.2600  -38.3530   24.7730 H   0  0  0  0  0  0  0  0  0  0  0  0
  -25.4200  -20.7740   17.0260 C   0  0  0  0  0  2  0  0  0  0  0  0
  -26.0140  -19.4610   17.3350 N   0  0  0  0  0  4  0  0  0  0  0  0
  -25.9880  -18.8760   16.5140 H   0  0  0  0  0  0  0  0  0  0  0  0
  -25.3930  -19.0590   18.0260 H   0  0  0  0  0  0  0  0  0  0  0  0
  -27.3960  -19.5230   17.8560 C   0  0  0  0  0  2  0  0  0  0  0  0
  -27.6740  -18.4880   18.9570 C   0  0  0  0  0  2  0  0  0  0  0  0
  -29.0880  -18.6470   19.5360 C   0  0  0  0  0  2  0  0  0  0  0  0
  -29.3580  -17.6890   20.7000 C   0  0  0  0  0  2  0  0  0  0  0  0
  -30.8290  -17.7220   21.1550 C   0  0  0  0  0  2  0  0  0  0  0  0
  -31.2050  -16.6180   22.1620 C   0  0  0  0  0  2  0  0  0  0  0  0
  -31.1390  -14.5930   20.7070 C   0  0  0  0  0  0  0  0  0  0  0  0
  -30.7600  -12.5760   19.3500 C   0  0  0  0  0  2  0  0  0  0  0  0
  -29.8380  -12.8490   18.1480 C   0  0  0  0  0  2  0  0  0  0  0  0
  -28.3590  -12.7120   18.5490 C   0  0  0  0  0  2  0  0  0  0  0  0
  -28.0150  -13.5200   19.8290 C   0  0  0  0  0  3  0  0  0  0  0  0
  -29.0360  -13.2240   20.9480 C   0  0  0  0  0  2  0  0  0  0  0  0
  -30.3950  -13.4940   20.4370 N   0  0  0  0  0  0  0  0  0  0  0  0
  -32.1490  -14.9130   20.0730 O   0  0  0  0  0  0  0  0  0  0  0  0
  -30.7100  -15.3070   21.7530 N   0  0  0  0  0  0  0  0  0  0  0  0
  -29.9140  -14.9390   22.2510 H   0  0  0  0  0  0  0  0  0  0  0  0
  -25.6150  -14.1590   20.5160 C   0  0  0  0  0  0  0  0  0  0  0  0
  -24.5230  -13.3950   20.8350 C   0  0  0  0  0  0  0  0  0  0  0  0
  -24.9550  -12.0350   20.7540 C   0  0  0  0  0  0  0  0  0  0  0  0
  -26.6450  -13.2620   20.2670 N   0  0  0  0  0  0  0  0  0  0  0  0
  -26.2480  -11.9790   20.4670 N   0  0  0  0  0  0  0  0  0  0  0  0
  -24.2000  -10.7820   20.8810 C   0  0  0  0  0  0  0  0  0  0  0  0
  -24.5880   -9.7740   21.7910 C   0  0  0  0  0  3  0  0  0  0  0  0
  -23.8370   -8.5850   21.9070 C   0  0  0  0  0  3  0  0  0  0  0  0
  -22.6830   -8.3950   21.1100 C   0  0  0  0  0  0  0  0  0  0  0  0
  -22.3130   -9.3930   20.1890 C   0  0  0  0  0  3  0  0  0  0  0  0
  -23.0650  -10.5730   20.0730 C   0  0  0  0  0  3  0  0  0  0  0  0
  -21.9050   -7.2620   21.1340 O   0  0  0  0  0  0  0  0  0  0  0  0
  -21.7930   -6.4910   22.2630 C   0  0  0  0  0  0  0  0  0  0  0  0
  -21.3330   -7.0240   23.4870 C   0  0  0  0  0  3  0  0  0  0  0  0
  -21.1660   -6.1810   24.6030 C   0  0  0  0  0  3  0  0  0  0  0  0
  -21.4510   -4.8070   24.4980 C   0  0  0  0  0  0  0  0  0  0  0  0
  -21.9040   -4.2730   23.2790 C   0  0  0  0  0  3  0  0  0  0  0  0
  -22.0730   -5.1140   22.1650 C   0  0  0  0  0  0  0  0  0  0  0  0
  -22.4880   -4.5900   20.9850 F   0  0  0  0  0  0  0  0  0  0  0  0
  -21.2850   -3.9940   25.5680 F   0  0  0  0  0  0  0  0  0  0  0  0
  -23.1320  -13.8900   21.1040 C   0  0  0  0  0  0  0  0  0  0  0  0
  -22.3820  -13.1870   21.9470 N   0  0  0  0  0  0  0  0  0  0  0  0
  -22.7160  -14.9360   20.6080 O   0  0  0  0  0  0  0  0  0  0  0  0
  -22.7300  -12.3390   22.3710 H   0  0  0  0  0  0  0  0  0  0  0  0
  -21.4480  -13.4990   22.1700 H   0  0  0  0  0  0  0  0  0  0  0  0
  -25.8150  -15.5300   20.4020 N   0  0  0  0  0  0  0  0  0  0  0  0
  -25.0720  -16.2020   20.5660 H   0  0  0  0  0  0  0  0  0  0  0  0
  -26.7010  -15.9590   20.1680 H   0  0  0  0  0  0  0  0  0  0  0  0
  1  2  1  0
  1  3  2  0
  2  5  1  0
  4  2  1  0
  5  6  1  0
  6  7  1  0
  8  7  1  0
  9  8  1  0
 10  9  1  0
 11 12  1  0
 11 10  1  0
 12 14  1  0
 13 24  2  0
 14 19  1  0
 15 23  1  0
 15 25  1  0
 16 22  1  0
 16 18  1  0
 17 23  1  0
 18 17  1  0
 19 18  2  0
 20 21  1  0
 20 14  2  0
 21 16  2  0
 22 15  1  0
 23 13  1  0
 25 27  2  0
 26 25  1  0
 28 26  1  0
 29 38  2  0
 29 34  1  0
 30 26  1  0
 30 34  1  0
 31 30  1  0
 32 33  1  0
 32 31  1  0
 33 29  1  0
 34 35  2  0
 35 36  1  0
 37 36  2  0
 38 37  1  0
 39 13  1  0
 39 44  1  0
 39 40  1  0
 40 43  1  1
 40 41  1  0
 42 40  1  0
 44 47  1  0
 45 49  1  0
 45 44  1  0
 46 45  2  0
 49 48  1  0
 49 51  1  0
 51 52  1  0
 51 50  1  0
 53 54  1  0
 53  1  1  0
 54 57  1  0
 54 56  1  0
 55 54  1  0
 57 58  1  0
 58 59  1  0
 59 60  1  0
 60 61  1  0
 61 62  1  0
 63 71  1  0
 64 69  1  0
 65 66  1  0
 65 64  1  0
 67 66  1  0
 67 76  1  0
 67 68  1  0
 69 63  1  0
 69 68  1  0
 70 63  2  0
 71 62  1  0
 71 72  1  0
 73 74  2  0
 74 93  1  0
 75 74  1  0
 75 78  1  0
 76 77  1  0
 76 73  1  0
 77 75  2  0
 78 79  1  0
 79 80  2  0
 81 84  1  0
 81 80  1  0
 82 81  2  0
 83 82  1  0
 83 78  2  0
 84 85  1  0
 85 86  1  0
 86 87  2  0
 88 87  1  0
 88 92  1  0
 89 88  2  0
 90 85  2  0
 90 89  1  0
 91 90  1  0
 93 94  1  0
 94 97  1  0
 94 96  1  0
 95 93  2  0
 98 73  1  0
 98 99  1  0
100 98  1  0
M  ISO  4  11 101  12 101  63 100  71 100
M  END
>  <TORSDO>  (96) 
F 31

>  <SCORE>  (96) 
-7.711

>  <name>  (96) 
96

>  <ligand_id>  (96) 
96

>  <original_smiles>  (96) 
[H]c1c([H])c([H])c2c(c1[H])C([H])([H])C([H])([H])C([H])([H])C2([H])N([H])C(=O)C1([H])N(C(=O)C([H])(N([H])C(=O)C([H])(N([H])C([H])([H])[H])C([H])([H])[H])C(C([H])([H])[H])(C([H])([H])[H])C([H])([H])[H])C([H])([H])c2c([H])c(OC([H])([H])C([H])([H])C([H])([H])C([H])([H])C([H])([H])C([H])([H])C([H])([H])N([H])C(=O)C([H])([H])[N+]([H])([H])C([H])([H])C([H])([H])C([H])([H])C([H])([H])C([H])([H])C([H])([H])N([H])C(=O)N3C([H])([H])C([H])([H])C([H])([H])C([H])(n4nc(-c5c([H])c([H])c(Oc6c([H])c([H])c(F)c([H])c6F)c([H])c5[H])c(C(=O)N([H])[H])c4N([H])[H])C3([H])[H])c([H])c([H])c2C1([H])[H]

>  <smiles>  (96) 
[H]c1c([H])c([H])c2c(c1[H])C([H])([H])C([H])([H])C([H])([H])C2([H])N([H])C(=O)C1([H])N(C(=O)C([H])(N([H])C(=O)C([H])(N([H])C([H])([H])[H])C([H])([H])[H])C(C([H])([H])[H])(C([H])([H])[H])C([H])([H])[H])C([H])([H])c2c([H])c(OC([H])([H])C([H])([H])C([H])([H])C([H])([H])C([H])([H])C([H])([H])C([H])([H])N([H])C(=O)C([H])([H])[N+]([H])([H])C([H])([H])C([H])([H])C([H])([H])C([H])([H])C([H])([H])C([H])([H])N([H])C(=O)N3C([H])([H])C([H])([H])C([H])([H])C([H])(n4nc(-c5c([H])c([H])c(Oc6c([H])c([H])c(F)c([H])c6F)c([H])c5[H])c(C(=O)N([H])[H])c4N([H])[H])C3([H])[H])c([H])c([H])c2C1([H])[H]

$$$$
97:0:0
     RDKit          3D

103110  0  0  1  0  0  0  0  0999 V2000
  -25.5780  -24.7960   24.4040 C   0  0  0  0  0  2  0  0  0  0  0  0
  -26.7550  -26.9880   24.2840 C   0  0  0  0  0  0  0  0  0  0  0  0
  -26.7520  -25.6630   24.4700 N   0  0  0  0  0  0  0  0  0  0  0  0
  -25.7400  -27.6270   23.9980 O   0  0  0  0  0  0  0  0  0  0  0  0
  -27.6330  -25.2260   24.7110 H   0  0  0  0  0  0  0  0  0  0  0  0
  -28.0880  -27.7140   24.4660 C   0  0  0  0  0  2  0  0  0  0  0  0
  -28.3150  -28.8320   23.4320 C   0  0  0  0  0  2  0  0  0  0  0  0
  -28.9030  -28.3380   22.0990 C   0  0  0  0  0  2  0  0  0  0  0  0
  -30.3010  -28.9210   21.8450 C   0  0  0  0  0  2  0  0  0  0  0  0
  -31.0210  -28.2560   20.6660 C   0  0  0  0  0  2  0  0  0  0  0  0
  -32.5340  -28.5060   20.6940 C   0  0  0  0  0  2  0  0  0  0  0  0
  -33.2500  -27.9530   19.4520 C   0  0  0  0  0  2  0  0  0  0  0  0
  -34.7460  -28.3040   19.4300 C   0  0  0  0  0  2  0  0  0  0  0  0
  -35.3440  -28.4170   18.0180 C   0  0  0  0  0  2  0  0  0  0  0  0
  -36.5980  -27.0080   16.4260 C   0  0  0  0  0  0  0  0  0  0  0  0
  -37.6510  -25.4830   14.8000 C   0  0  0  0  0  2  0  0  0  0  0  0
  -36.7690  -25.3210   13.5470 C   0  0  0  0  0  2  0  0  0  0  0  0
  -35.7280  -24.2040   13.7480 C   0  0  0  0  0  2  0  0  0  0  0  0
  -34.9470  -24.3550   15.0800 C   0  0  0  0  0  3  0  0  0  0  0  0
  -35.9230  -24.5820   16.2580 C   0  0  0  0  0  2  0  0  0  0  0  0
  -36.7730  -25.7460   15.9510 N   0  0  0  0  0  0  0  0  0  0  0  0
  -37.1820  -27.9920   15.9590 O   0  0  0  0  0  0  0  0  0  0  0  0
  -35.7560  -27.1290   17.4590 N   0  0  0  0  0  0  0  0  0  0  0  0
  -35.3380  -26.2880   17.8260 H   0  0  0  0  0  0  0  0  0  0  0  0
  -32.8690  -23.1480   16.0100 C   0  0  0  0  0  0  0  0  0  0  0  0
  -32.4250  -21.8590   15.8750 C   0  0  0  0  0  0  0  0  0  0  0  0
  -33.4040  -21.1870   15.0800 C   0  0  0  0  0  0  0  0  0  0  0  0
  -34.0710  -23.2100   15.3180 N   0  0  0  0  0  0  0  0  0  0  0  0
  -34.4120  -22.0010   14.8030 N   0  0  0  0  0  0  0  0  0  0  0  0
  -33.4120  -19.8280   14.5210 C   0  0  0  0  0  0  0  0  0  0  0  0
  -34.5030  -18.9530   14.7200 C   0  0  0  0  0  3  0  0  0  0  0  0
  -34.4800  -17.6470   14.1850 C   0  0  0  0  0  3  0  0  0  0  0  0
  -33.3570  -17.2020   13.4490 C   0  0  0  0  0  0  0  0  0  0  0  0
  -32.2850  -18.0850   13.2320 C   0  0  0  0  0  3  0  0  0  0  0  0
  -32.3130  -19.3880   13.7600 C   0  0  0  0  0  3  0  0  0  0  0  0
  -33.2570  -15.9590   12.8710 O   0  0  0  0  0  0  0  0  0  0  0  0
  -33.8760  -14.8620   13.4140 C   0  0  0  0  0  0  0  0  0  0  0  0
  -33.5650  -14.3960   14.7110 C   0  0  0  0  0  3  0  0  0  0  0  0
  -34.1720  -13.2250   15.2020 C   0  0  0  0  0  3  0  0  0  0  0  0
  -35.0830  -12.5120   14.3990 C   0  0  0  0  0  0  0  0  0  0  0  0
  -35.3870  -12.9700   13.1040 C   0  0  0  0  0  3  0  0  0  0  0  0
  -34.7840  -14.1400   12.6130 C   0  0  0  0  0  0  0  0  0  0  0  0
  -35.0660  -14.5660   11.3580 F   0  0  0  0  0  0  0  0  0  0  0  0
  -35.6600  -11.3790   14.8670 F   0  0  0  0  0  0  0  0  0  0  0  0
  -31.1220  -21.3060   16.3710 C   0  0  0  0  0  0  0  0  0  0  0  0
  -31.1330  -20.0910   16.9080 N   0  0  0  0  0  0  0  0  0  0  0  0
  -30.0870  -21.9710   16.3290 O   0  0  0  0  0  0  0  0  0  0  0  0
  -31.9860  -19.5530   16.9650 H   0  0  0  0  0  0  0  0  0  0  0  0
  -30.2770  -19.6960   17.2680 H   0  0  0  0  0  0  0  0  0  0  0  0
  -32.3480  -24.2740   16.6430 N   0  0  0  0  0  0  0  0  0  0  0  0
  -31.4490  -24.2680   17.1090 H   0  0  0  0  0  0  0  0  0  0  0  0
  -32.7860  -25.1870   16.6330 H   0  0  0  0  0  0  0  0  0  0  0  0
  -24.6710  -25.1110   23.1960 C   0  0  0  0  0  2  0  0  0  0  0  0
  -25.4220  -25.6780   21.9730 C   0  0  0  0  0  2  0  0  0  0  0  0
  -24.5190  -26.0660   20.7860 C   0  0  0  0  0  2  0  0  0  0  0  0
  -23.1460  -26.4220   21.2090 N   0  0  0  0  0  4  0  0  0  0  0  0
  -23.2000  -27.1480   21.9050 H   0  0  0  0  0  0  0  0  0  0  0  0
  -22.7290  -25.6100   21.6380 H   0  0  0  0  0  0  0  0  0  0  0  0
  -22.2710  -26.9030   20.1170 C   0  0  0  0  0  2  0  0  0  0  0  0
  -20.8120  -27.0890   20.5790 C   0  0  0  0  0  2  0  0  0  0  0  0
  -19.9530  -27.8670   19.5620 C   0  0  0  0  0  2  0  0  0  0  0  0
  -18.4320  -27.6910   19.7330 C   0  0  0  0  0  2  0  0  0  0  0  0
  -17.9110  -26.8900   18.6730 O   0  0  0  0  0  0  0  0  0  0  0  0
  -13.6080  -24.0690   23.5990 C   0  0  0  0  0  0  0  0  0  0  0  0
  -17.0550  -25.8860   19.0430 C   0  0  0  0  0  0  0  0  0  0  0  0
  -14.1070  -22.6360   21.6400 C   0  0  0  0  0  3  0  0  0  0  0  0
  -15.2850  -23.7950   19.6970 C   0  0  0  0  0  0  0  0  0  0  0  0
  -14.1390  -25.1800   21.4370 C   0  0  0  0  0  2  0  0  0  0  0  0
  -15.2020  -25.0190   20.3720 C   0  0  0  0  0  0  0  0  0  0  0  0
  -16.0860  -26.0690   20.0530 C   0  0  0  0  0  3  0  0  0  0  0  0
  -17.1210  -24.6590   18.3580 C   0  0  0  0  0  3  0  0  0  0  0  0
  -16.2500  -23.6040   18.6910 C   0  0  0  0  0  3  0  0  0  0  0  0
  -14.2950  -22.7280   20.0990 C   0  0  0  0  0  2  0  0  0  0  0  0
  -13.9620  -23.9820   22.2850 N   0  0  0  0  0  0  0  0  0  0  0  0
  -13.3590  -23.0530   24.2600 O   0  0  0  0  0  0  0  0  0  0  0  0
  -15.2670  -21.7980   22.2240 C   0  0  0  0  0  0  0  0  0  0  0  0
  -14.9220  -20.7470   22.9840 N   0  0  0  0  0  0  0  0  0  0  0  0
  -16.4420  -22.0760   21.9650 O   0  0  0  0  0  0  0  0  0  0  0  0
  -13.9390  -20.5900   23.1610 H   0  0  0  0  0  0  0  0  0  0  0  0
  -15.1510  -18.0950   25.4210 C   0  0  0  0  0  0  0  0  0  0  0  0
  -15.8430  -19.7960   23.6040 C   0  0  0  0  0  3  0  0  0  0  0  0
  -16.0770  -18.5710   22.6890 C   0  0  0  0  0  2  0  0  0  0  0  0
  -15.1250  -17.4080   22.9840 C   0  0  0  0  0  2  0  0  0  0  0  0
  -15.2780  -16.9440   24.4350 C   0  0  0  0  0  2  0  0  0  0  0  0
  -15.4000  -19.4350   25.0250 C   0  0  0  0  0  0  0  0  0  0  0  0
  -15.2320  -20.4720   25.9690 C   0  0  0  0  0  3  0  0  0  0  0  0
  -14.8260  -20.1860   27.2870 C   0  0  0  0  0  3  0  0  0  0  0  0
  -14.5960  -18.8560   27.6770 C   0  0  0  0  0  3  0  0  0  0  0  0
  -14.7640  -17.8150   26.7470 C   0  0  0  0  0  3  0  0  0  0  0  0
  -13.4790  -25.4470   24.3230 C   0  0  0  0  0  3  0  0  0  0  0  0
  -12.0950  -25.5660   24.8020 N   0  0  0  0  0  0  0  0  0  0  0  0
  -11.0200  -25.6390   24.0080 C   0  0  0  0  0  0  0  0  0  0  0  0
  -11.0980  -25.6830   22.7760 O   0  0  0  0  0  0  0  0  0  0  0  0
  -11.9520  -25.4800   25.7980 H   0  0  0  0  0  0  0  0  0  0  0  0
   -9.2880  -24.2540   25.1960 C   0  0  0  0  0  1  0  0  0  0  0  0
   -9.6360  -25.6620   24.6870 C   0  0  0  0  0  3  0  0  0  0  0  0
   -8.7110  -27.5580   23.4320 C   0  0  0  0  0  1  0  0  0  0  0  0
   -8.5560  -26.1550   23.8060 N   0  0  0  0  0  0  0  0  0  0  0  0
   -7.6490  -26.0440   24.2510 H   0  0  0  0  0  0  0  0  0  0  0  0
  -14.5030  -25.6250   25.5120 C   0  0  1  0  0  0  0  0  0  0  0  0
  -14.2870  -24.6250   26.6700 C   0  0  0  0  0  1  0  0  0  0  0  0
  -15.9560  -25.4590   25.0080 C   0  0  0  0  0  1  0  0  0  0  0  0
  -14.3890  -27.0540   26.0950 C   0  0  0  0  0  1  0  0  0  0  0  0
  1  3  1  0
  2  6  1  0
  2  3  1  0
  3  5  1  0
  4  2  2  0
  7  6  1  0
  8  7  1  0
  9  8  1  0
 10 11  1  0
 10  9  1  0
 12 11  1  0
 13 12  1  0
 14 13  1  0
 15 23  1  0
 16 21  1  0
 17 18  1  0
 17 16  1  0
 19 18  1  0
 19 28  1  0
 19 20  1  0
 21 20  1  0
 21 15  1  0
 22 15  2  0
 23 24  1  0
 23 14  1  0
 25 50  1  0
 26 25  2  0
 26 45  1  0
 27 26  1  0
 28 25  1  0
 29 27  2  0
 29 28  1  0
 30 31  1  0
 30 27  1  0
 32 31  2  0
 33 32  1  0
 34 33  2  0
 34 35  1  0
 35 30  2  0
 36 37  1  0
 36 33  1  0
 37 38  1  0
 38 39  2  0
 40 44  1  0
 40 39  1  0
 41 40  2  0
 42 41  1  0
 42 37  2  0
 43 42  1  0
 45 46  1  0
 46 48  1  0
 46 49  1  0
 47 45  2  0
 50 51  1  0
 52 50  1  0
 53  1  1  0
 54 53  1  0
 55 56  1  0
 55 54  1  0
 56 58  1  0
 56 57  1  0
 59 60  1  0
 59 56  1  0
 61 62  1  0
 61 60  1  0
 63 65  1  0
 63 62  1  0
 64 75  2  0
 65 70  1  0
 66 76  1  0
 66 74  1  0
 67 73  1  0
 67 69  1  0
 68 74  1  0
 69 68  1  0
 70 69  2  0
 71 72  1  0
 71 65  2  0
 72 67  2  0
 73 66  1  0
 74 64  1  0
 76 77  1  0
 77 79  1  0
 78 76  2  0
 80 89  1  0
 81 77  1  0
 81 85  1  0
 82 83  1  0
 82 81  1  0
 83 84  1  0
 84 80  1  0
 85 80  2  0
 85 86  1  0
 86 87  2  0
 87 88  1  0
 89 88  2  0
 90 64  1  0
 90 91  1  0
 90100  1  0
 91 94  1  0
 92 96  1  0
 92 91  1  0
 93 92  2  0
 96 95  1  0
 97 98  1  0
 98 99  1  0
 98 96  1  0
100103  1  1
100101  1  0
102100  1  0
M  ISO  4  15 100  23 100  62 101  63 101
M  END
>  <TORSDO>  (97) 
F 34

>  <SCORE>  (97) 
-1.168

>  <name>  (97) 
97

>  <ligand_id>  (97) 
97

>  <original_smiles>  (97) 
[H]c1c([H])c([H])c2c(c1[H])C([H])([H])C([H])([H])C([H])([H])C2([H])N([H])C(=O)C1([H])N(C(=O)C([H])(N([H])C(=O)C([H])(N([H])C([H])([H])[H])C([H])([H])[H])C(C([H])([H])[H])(C([H])([H])[H])C([H])([H])[H])C([H])([H])c2c([H])c(OC([H])([H])C([H])([H])C([H])([H])C([H])([H])[N+]([H])([H])C([H])([H])C([H])([H])C([H])([H])C([H])([H])N([H])C(=O)C([H])([H])C([H])([H])C([H])([H])C([H])([H])C([H])([H])C([H])([H])C([H])([H])C([H])([H])C([H])([H])N([H])C(=O)N3C([H])([H])C([H])([H])C([H])([H])C([H])(n4nc(-c5c([H])c([H])c(Oc6c([H])c([H])c(F)c([H])c6F)c([H])c5[H])c(C(=O)N([H])[H])c4N([H])[H])C3([H])[H])c([H])c([H])c2C1([H])[H]

>  <smiles>  (97) 
[H]c1c([H])c([H])c2c(c1[H])C([H])([H])C([H])([H])C([H])([H])C2([H])N([H])C(=O)C1([H])N(C(=O)C([H])(N([H])C(=O)C([H])(N([H])C([H])([H])[H])C([H])([H])[H])C(C([H])([H])[H])(C([H])([H])[H])C([H])([H])[H])C([H])([H])c2c([H])c(OC([H])([H])C([H])([H])C([H])([H])C([H])([H])[N+]([H])([H])C([H])([H])C([H])([H])C([H])([H])C([H])([H])N([H])C(=O)C([H])([H])C([H])([H])C([H])([H])C([H])([H])C([H])([H])C([H])([H])C([H])([H])C([H])([H])C([H])([H])N([H])C(=O)N3C([H])([H])C([H])([H])C([H])([H])C([H])(n4nc(-c5c([H])c([H])c(Oc6c([H])c([H])c(F)c([H])c6F)c([H])c5[H])c(C(=O)N([H])[H])c4N([H])[H])C3([H])[H])c([H])c([H])c2C1([H])[H]

$$$$
98:0:0
     RDKit          3D

100107  0  0  1  0  0  0  0  0999 V2000
  -29.9250  -23.0540   23.2100 C   0  0  0  0  0  0  0  0  0  0  0  0
  -30.1440  -24.3600   23.3350 N   0  0  0  0  0  0  0  0  0  0  0  0
  -29.6150  -22.5370   22.1340 O   0  0  0  0  0  0  0  0  0  0  0  0
  -30.2540  -24.7420   24.2650 H   0  0  0  0  0  0  0  0  0  0  0  0
  -30.0340  -22.1910   24.4650 C   0  0  0  0  0  2  0  0  0  0  0  0
  -30.5170  -20.8570   24.0710 N   0  0  0  0  0  4  0  0  0  0  0  0
  -29.8540  -20.6000   23.3520 H   0  0  0  0  0  0  0  0  0  0  0  0
  -30.4550  -20.2030   24.8310 H   0  0  0  0  0  0  0  0  0  0  0  0
  -31.8630  -20.8490   23.4560 C   0  0  0  0  0  2  0  0  0  0  0  0
  -31.9280  -19.9180   22.2290 C   0  0  0  0  0  2  0  0  0  0  0  0
  -32.3990  -20.6340   20.9450 C   0  0  0  0  0  2  0  0  0  0  0  0
  -31.2940  -20.7800   19.8720 C   0  0  0  0  0  2  0  0  0  0  0  0
  -31.3040  -22.1750   19.2300 C   0  0  0  0  0  2  0  0  0  0  0  0
  -30.0640  -22.5290   18.3880 C   0  0  0  0  0  2  0  0  0  0  0  0
  -30.2620  -23.8980   17.7040 C   0  0  0  0  0  2  0  0  0  0  0  0
  -29.3980  -24.1580   16.4610 C   0  0  0  0  0  2  0  0  0  0  0  0
  -27.6330  -25.8350   15.9450 C   0  0  0  0  0  0  0  0  0  0  0  0
  -25.4660  -26.2290   14.8580 C   0  0  0  0  0  2  0  0  0  0  0  0
  -24.8770  -27.6350   15.0350 C   0  0  0  0  0  2  0  0  0  0  0  0
  -24.0700  -27.7180   16.3390 C   0  0  0  0  0  2  0  0  0  0  0  0
  -24.8740  -27.2100   17.5620 C   0  0  0  0  0  3  0  0  0  0  0  0
  -25.5080  -25.8280   17.2800 C   0  0  0  0  0  2  0  0  0  0  0  0
  -26.2860  -25.8970   16.0310 N   0  0  0  0  0  0  0  0  0  0  0  0
  -28.2880  -26.3580   15.0370 O   0  0  0  0  0  0  0  0  0  0  0  0
  -28.1590  -24.8890   16.7400 N   0  0  0  0  0  0  0  0  0  0  0  0
  -27.5150  -24.4600   17.3860 H   0  0  0  0  0  0  0  0  0  0  0  0
  -24.3140  -27.6830   20.0340 C   0  0  0  0  0  0  0  0  0  0  0  0
  -23.1800  -27.4730   20.7700 C   0  0  0  0  0  0  0  0  0  0  0  0
  -22.2430  -26.8560   19.8850 C   0  0  0  0  0  0  0  0  0  0  0  0
  -24.0430  -27.1890   18.7660 N   0  0  0  0  0  0  0  0  0  0  0  0
  -22.8010  -26.6450   18.7000 N   0  0  0  0  0  0  0  0  0  0  0  0
  -20.8300  -26.5070   20.0810 C   0  0  0  0  0  0  0  0  0  0  0  0
  -20.3880  -25.1650   20.0460 C   0  0  0  0  0  3  0  0  0  0  0  0
  -19.0270  -24.8540   20.2550 C   0  0  0  0  0  3  0  0  0  0  0  0
  -18.0920  -25.8870   20.5060 C   0  0  0  0  0  0  0  0  0  0  0  0
  -18.5340  -27.2220   20.5170 C   0  0  0  0  0  3  0  0  0  0  0  0
  -19.8870  -27.5310   20.3030 C   0  0  0  0  0  3  0  0  0  0  0  0
  -16.7470  -25.6790   20.6960 O   0  0  0  0  0  0  0  0  0  0  0  0
  -16.2780  -24.5910   21.3870 C   0  0  0  0  0  0  0  0  0  0  0  0
  -16.7690  -24.2530   22.6680 C   0  0  0  0  0  3  0  0  0  0  0  0
  -16.2080  -23.1700   23.3720 C   0  0  0  0  0  3  0  0  0  0  0  0
  -15.1530  -22.4290   22.8050 C   0  0  0  0  0  0  0  0  0  0  0  0
  -14.6590  -22.7690   21.5350 C   0  0  0  0  0  3  0  0  0  0  0  0
  -15.2180  -23.8500   20.8300 C   0  0  0  0  0  0  0  0  0  0  0  0
  -14.7230  -24.1840   19.6140 F   0  0  0  0  0  0  0  0  0  0  0  0
  -14.6100  -21.3940   23.4870 F   0  0  0  0  0  0  0  0  0  0  0  0
  -22.9370  -27.9090   22.1870 C   0  0  0  0  0  0  0  0  0  0  0  0
  -22.2260  -27.1030   22.9660 N   0  0  0  0  0  0  0  0  0  0  0  0
  -23.4240  -28.9510   22.6270 O   0  0  0  0  0  0  0  0  0  0  0  0
  -21.8420  -26.2380   22.6150 H   0  0  0  0  0  0  0  0  0  0  0  0
  -22.0650  -27.3530   23.9320 H   0  0  0  0  0  0  0  0  0  0  0  0
  -25.5460  -28.2620   20.3300 N   0  0  0  0  0  0  0  0  0  0  0  0
  -25.7510  -28.6670   21.2380 H   0  0  0  0  0  0  0  0  0  0  0  0
  -26.2980  -28.3820   19.6650 H   0  0  0  0  0  0  0  0  0  0  0  0
  -29.8850  -25.3340   22.2830 C   0  0  0  0  0  2  0  0  0  0  0  0
  -29.8080  -26.7290   22.9140 C   0  0  0  0  0  3  0  0  0  0  0  0
  -29.0780  -26.6290   24.1310 O   0  0  0  0  0  0  0  0  0  0  0  0
  -28.5300  -27.4070   24.1750 H   0  0  0  0  0  0  0  0  0  0  0  0
  -29.0850  -27.7330   22.0070 C   0  0  0  0  0  2  0  0  0  0  0  0
  -29.3070  -29.0120   22.5710 O   0  0  0  0  0  0  0  0  0  0  0  0
  -28.7660  -32.6470   28.6770 C   0  0  0  0  0  0  0  0  0  0  0  0
  -28.5130  -29.3790   23.6300 C   0  0  0  0  0  0  0  0  0  0  0  0
  -26.8050  -31.2750   28.0600 C   0  0  0  0  0  3  0  0  0  0  0  0
  -26.8450  -30.2750   25.7150 C   0  0  0  0  0  0  0  0  0  0  0  0
  -28.3830  -32.1690   26.2600 C   0  0  0  0  0  2  0  0  0  0  0  0
  -28.0360  -30.9530   25.4320 C   0  0  0  0  0  0  0  0  0  0  0  0
  -28.8720  -30.5130   24.3830 C   0  0  0  0  0  3  0  0  0  0  0  0
  -27.3240  -28.6810   23.9420 C   0  0  0  0  0  3  0  0  0  0  0  0
  -26.4900  -29.1260   24.9830 C   0  0  0  0  0  3  0  0  0  0  0  0
  -25.9820  -30.8460   26.8170 C   0  0  0  0  0  2  0  0  0  0  0  0
  -28.0430  -32.0380   27.6970 N   0  0  0  0  0  0  0  0  0  0  0  0
  -28.3990  -32.6170   29.8600 O   0  0  0  0  0  0  0  0  0  0  0  0
  -27.0910  -30.0200   28.9130 C   0  0  0  0  0  0  0  0  0  0  0  0
  -26.0590  -29.5320   29.6230 N   0  0  0  0  0  0  0  0  0  0  0  0
  -28.2020  -29.4840   28.8960 O   0  0  0  0  0  0  0  0  0  0  0  0
  -25.1890  -30.0430   29.5970 H   0  0  0  0  0  0  0  0  0  0  0  0
  -24.0360  -27.4390   31.7570 C   0  0  0  0  0  0  0  0  0  0  0  0
  -26.0840  -28.3360   30.4630 C   0  0  0  0  0  3  0  0  0  0  0  0
  -25.9790  -27.0470   29.6140 C   0  0  0  0  0  2  0  0  0  0  0  0
  -24.5410  -26.5510   29.4460 C   0  0  0  0  0  2  0  0  0  0  0  0
  -23.9100  -26.2600   30.8100 C   0  0  0  0  0  2  0  0  0  0  0  0
  -25.0450  -28.4230   31.5870 C   0  0  0  0  0  0  0  0  0  0  0  0
  -25.0870  -29.5210   32.4730 C   0  0  0  0  0  3  0  0  0  0  0  0
  -24.1500  -29.6390   33.5180 C   0  0  0  0  0  3  0  0  0  0  0  0
  -23.1610  -28.6560   33.6900 C   0  0  0  0  0  3  0  0  0  0  0  0
  -23.1080  -27.5590   32.8130 C   0  0  0  0  0  3  0  0  0  0  0  0
  -30.0760  -33.4370   28.3600 C   0  0  0  0  0  3  0  0  0  0  0  0
  -30.2880  -34.4040   29.4460 N   0  0  0  0  0  0  0  0  0  0  0  0
  -30.1330  -35.7290   29.3240 C   0  0  0  0  0  0  0  0  0  0  0  0
  -29.8690  -36.2760   28.2480 O   0  0  0  0  0  0  0  0  0  0  0  0
  -30.4510  -34.0280   30.3670 H   0  0  0  0  0  0  0  0  0  0  0  0
  -28.9450  -37.1910   30.9840 C   0  0  0  0  0  1  0  0  0  0  0  0
  -30.3000  -36.5830   30.5930 C   0  0  0  0  0  3  0  0  0  0  0  0
  -32.6760  -37.1640   30.3960 C   0  0  0  0  0  1  0  0  0  0  0  0
  -31.3050  -37.6590   30.4460 N   0  0  0  0  0  0  0  0  0  0  0  0
  -31.2340  -38.3300   31.2070 H   0  0  0  0  0  0  0  0  0  0  0  0
  -31.3330  -32.4980   28.1930 C   0  0  1  0  0  0  0  0  0  0  0  0
  -31.5920  -31.5750   29.4030 C   0  0  0  0  0  1  0  0  0  0  0  0
  -31.1760  -31.6050   26.9410 C   0  0  0  0  0  1  0  0  0  0  0  0
  -32.5990  -33.3580   27.9690 C   0  0  0  0  0  1  0  0  0  0  0  0
  1  2  1  0
  1  5  1  0
  2  4  1  0
  3  1  2  0
  6  5  1  0
  6  8  1  0
  7  6  1  0
  9  6  1  0
 10  9  1  0
 11 10  1  0
 12 11  1  0
 13 12  1  0
 14 13  1  0
 15 14  1  0
 16 25  1  0
 16 15  1  0
 17 23  1  0
 17 25  1  0
 18 19  1  0
 18 23  1  0
 19 20  1  0
 21 20  1  0
 21 30  1  0
 22 21  1  0
 23 22  1  0
 24 17  2  0
 25 26  1  0
 27 52  1  0
 27 28  2  0
 28 47  1  0
 29 32  1  0
 29 28  1  0
 30 27  1  0
 31 30  1  0
 31 29  2  0
 32 37  1  0
 33 32  2  0
 33 34  1  0
 34 35  2  0
 35 36  1  0
 35 38  1  0
 37 36  2  0
 38 39  1  0
 39 40  1  0
 40 41  2  0
 42 41  1  0
 42 46  1  0
 43 42  2  0
 44 39  2  0
 44 43  1  0
 45 44  1  0
 47 49  2  0
 47 48  1  0
 48 51  1  0
 50 48  1  0
 52 53  1  0
 54 52  1  0
 55 56  1  0
 55  2  1  0
 56 59  1  0
 56 57  1  0
 57 58  1  0
 59 60  1  0
 60 62  1  0
 61 72  2  0
 62 68  2  0
 62 67  1  0
 63 73  1  0
 64 70  1  0
 65 71  1  0
 66 64  1  0
 66 65  1  0
 67 66  2  0
 68 69  1  0
 69 64  2  0
 70 63  1  0
 71 63  1  0
 71 61  1  0
 73 74  1  0
 75 73  2  0
 76 74  1  0
 77 86  1  0
 78 74  1  0
 78 82  1  0
 79 78  1  0
 80 79  1  0
 80 81  1  0
 81 77  1  0
 82 77  2  0
 82 83  1  0
 83 84  2  0
 84 85  1  0
 86 85  2  0
 87 61  1  0
 87 88  1  0
 88 91  1  0
 89 88  1  0
 89 93  1  0
 90 89  2  0
 93 92  1  0
 94 95  1  0
 95 93  1  0
 95 96  1  0
 97 87  1  0
 97 98  1  1
 99 97  1  0
100 97  1  0
M  ISO  4  17 100  25 100  59 101  60 101
M  END
>  <TORSDO>  (98) 
F 30

>  <SCORE>  (98) 
-5.681

>  <name>  (98) 
98

>  <ligand_id>  (98) 
98

>  <original_smiles>  (98) 
[H]OC([H])(C([H])([H])Oc1c([H])c([H])c2c(c1[H])C([H])([H])N(C(=O)C([H])(N([H])C(=O)C([H])(N([H])C([H])([H])[H])C([H])([H])[H])C(C([H])([H])[H])(C([H])([H])[H])C([H])([H])[H])C([H])(C(=O)N([H])C1([H])c3c([H])c([H])c([H])c([H])c3C([H])([H])C([H])([H])C1([H])[H])C2([H])[H])C([H])([H])N([H])C(=O)C([H])([H])[N+]([H])([H])C([H])([H])C([H])([H])C([H])([H])C([H])([H])C([H])([H])C([H])([H])C([H])([H])C([H])([H])N([H])C(=O)N1C([H])([H])C([H])([H])C([H])([H])C([H])(n2nc(-c3c([H])c([H])c(Oc4c([H])c([H])c(F)c([H])c4F)c([H])c3[H])c(C(=O)N([H])[H])c2N([H])[H])C1([H])[H]

>  <smiles>  (98) 
[H]OC([H])(C([H])([H])Oc1c([H])c([H])c2c(c1[H])C([H])([H])N(C(=O)C([H])(N([H])C(=O)C([H])(N([H])C([H])([H])[H])C([H])([H])[H])C(C([H])([H])[H])(C([H])([H])[H])C([H])([H])[H])C([H])(C(=O)N([H])C1([H])c3c([H])c([H])c([H])c([H])c3C([H])([H])C([H])([H])C1([H])[H])C2([H])[H])C([H])([H])N([H])C(=O)C([H])([H])[N+]([H])([H])C([H])([H])C([H])([H])C([H])([H])C([H])([H])C([H])([H])C([H])([H])C([H])([H])C([H])([H])N([H])C(=O)N1C([H])([H])C([H])([H])C([H])([H])C([H])(n2nc(-c3c([H])c([H])c(Oc4c([H])c([H])c(F)c([H])c4F)c([H])c3[H])c(C(=O)N([H])[H])c2N([H])[H])C1([H])[H]

$$$$
