0:0:0
     RDKit          3D

 94101  0  0  1  0  0  0  0  0999 V2000
  -31.2630  -23.5420   18.5740 C   0  0  0  0  0  2  0  0  0  0  0  0
  -31.9940  -24.8580   18.9200 C   0  0  0  0  0  2  0  0  0  0  0  0
  -31.0750  -25.9850   19.2030 N   0  0  0  0  0  4  0  0  0  0  0  0
  -30.2350  -25.8930   18.6530 H   0  0  0  0  0  0  0  0  0  0  0  0
  -31.5330  -26.8250   18.8810 H   0  0  0  0  0  0  0  0  0  0  0  0
  -30.7170  -26.1880   20.6260 C   0  0  0  0  0  2  0  0  0  0  0  0
  -29.5860  -27.2090   20.7720 C   0  0  0  0  0  2  0  0  0  0  0  0
  -28.4310  -26.7120   20.0890 O   0  0  0  0  0  0  0  0  0  0  0  0
  -24.6260  -31.8970   23.1880 C   0  0  0  0  0  0  0  0  0  0  0  0
  -27.2770  -27.4660   20.1450 C   0  0  0  0  0  0  0  0  0  0  0  0
  -23.4000  -30.4720   21.5700 C   0  0  0  0  0  3  0  0  0  0  0  0
  -24.8460  -28.9170   20.1540 C   0  0  0  0  0  0  0  0  0  0  0  0
  -25.9120  -30.8480   21.3390 C   0  0  0  0  0  2  0  0  0  0  0  0
  -25.9970  -29.4680   20.7270 C   0  0  0  0  0  0  0  0  0  0  0  0
  -27.2060  -28.7510   20.7310 C   0  0  0  0  0  3  0  0  0  0  0  0
  -26.1090  -26.9210   19.5680 C   0  0  0  0  0  3  0  0  0  0  0  0
  -24.8940  -27.6360   19.5760 C   0  0  0  0  0  3  0  0  0  0  0  0
  -23.5970  -29.7660   20.1980 C   0  0  0  0  0  2  0  0  0  0  0  0
  -24.6640  -31.0880   22.0920 N   0  0  0  0  0  0  0  0  0  0  0  0
  -23.5520  -32.1750   23.7400 O   0  0  0  0  0  0  0  0  0  0  0  0
  -22.7610  -29.4650   22.5500 C   0  0  0  0  0  0  0  0  0  0  0  0
  -21.4350  -29.2850   22.4430 N   0  0  0  0  0  0  0  0  0  0  0  0
  -23.4550  -28.8450   23.3600 O   0  0  0  0  0  0  0  0  0  0  0  0
  -20.9370  -29.8410   21.7630 H   0  0  0  0  0  0  0  0  0  0  0  0
  -18.0650  -28.1120   22.9860 C   0  0  0  0  0  0  0  0  0  0  0  0
  -20.6250  -28.3580   23.2300 C   0  0  0  0  0  3  0  0  0  0  0  0
  -20.7150  -26.9210   22.6660 C   0  0  0  0  0  2  0  0  0  0  0  0
  -19.6020  -26.5960   21.6660 C   0  0  0  0  0  2  0  0  0  0  0  0
  -18.2280  -26.7540   22.3220 C   0  0  0  0  0  2  0  0  0  0  0  0
  -19.1910  -28.8730   23.3970 C   0  0  0  0  0  0  0  0  0  0  0  0
  -18.9850  -30.1450   23.9720 C   0  0  0  0  0  3  0  0  0  0  0  0
  -17.6860  -30.6550   24.1450 C   0  0  0  0  0  3  0  0  0  0  0  0
  -16.5730  -29.8910   23.7530 C   0  0  0  0  0  3  0  0  0  0  0  0
  -16.7640  -28.6220   23.1780 C   0  0  0  0  0  3  0  0  0  0  0  0
  -25.9230  -32.5290   23.7840 C   0  0  0  0  0  3  0  0  0  0  0  0
  -26.4870  -31.7380   25.0260 C   0  0  1  0  0  0  0  0  0  0  0  0
  -25.4270  -31.4590   26.1160 C   0  0  0  0  0  1  0  0  0  0  0  0
  -27.0870  -30.3810   24.5830 C   0  0  0  0  0  1  0  0  0  0  0  0
  -27.6400  -32.5370   25.6780 C   0  0  0  0  0  1  0  0  0  0  0  0
  -25.6110  -33.9160   24.1470 N   0  0  0  0  0  0  0  0  0  0  0  0
  -25.9150  -34.9850   23.3980 C   0  0  0  0  0  0  0  0  0  0  0  0
  -26.5600  -34.9070   22.3470 O   0  0  0  0  0  0  0  0  0  0  0  0
  -25.0370  -34.0500   24.9680 H   0  0  0  0  0  0  0  0  0  0  0  0
  -24.1560  -36.7590   23.1160 C   0  0  0  0  0  1  0  0  0  0  0  0
  -25.4220  -36.3580   23.8910 C   0  0  0  0  0  3  0  0  0  0  0  0
  -27.5690  -37.2530   24.6770 C   0  0  0  0  0  1  0  0  0  0  0  0
  -26.4380  -37.4260   23.7680 N   0  0  0  0  0  0  0  0  0  0  0  0
  -26.0250  -38.3370   23.9450 H   0  0  0  0  0  0  0  0  0  0  0  0
  -30.7280  -22.7610   19.7920 C   0  0  0  0  0  2  0  0  0  0  0  0
  -30.0500  -21.5170   19.3910 N   0  0  0  0  0  4  0  0  0  0  0  0
  -29.1690  -21.7350   18.9470 H   0  0  0  0  0  0  0  0  0  0  0  0
  -30.6300  -21.0580   18.7080 H   0  0  0  0  0  0  0  0  0  0  0  0
  -29.8120  -20.5500   20.4800 C   0  0  0  0  0  2  0  0  0  0  0  0
  -29.6310  -19.1590   19.8600 C   0  0  0  0  0  2  0  0  0  0  0  0
  -29.6470  -17.9700   20.8320 C   0  0  0  0  0  2  0  0  0  0  0  0
  -29.7500  -16.6810   20.0040 C   0  0  0  0  0  2  0  0  0  0  0  0
  -30.6070  -14.4330   20.4430 C   0  0  0  0  0  0  0  0  0  0  0  0
  -30.3190  -12.2760   19.3230 C   0  0  0  0  0  2  0  0  0  0  0  0
  -29.3760  -12.5220   18.1240 C   0  0  0  0  0  2  0  0  0  0  0  0
  -27.9000  -12.3970   18.5600 C   0  0  0  0  0  2  0  0  0  0  0  0
  -27.5780  -13.2190   19.8380 C   0  0  0  0  0  3  0  0  0  0  0  0
  -28.6380  -12.9560   20.9370 C   0  0  0  0  0  2  0  0  0  0  0  0
  -29.9660  -13.2410   20.3700 N   0  0  0  0  0  0  0  0  0  0  0  0
  -31.7310  -14.6340   19.9660 O   0  0  0  0  0  0  0  0  0  0  0  0
  -29.8090  -15.4520   20.7930 N   0  0  0  0  0  0  0  0  0  0  0  0
  -28.9490  -15.1870   21.2510 H   0  0  0  0  0  0  0  0  0  0  0  0
  -25.1880  -13.8420   20.5690 C   0  0  0  0  0  0  0  0  0  0  0  0
  -24.1200  -13.0720   20.9460 C   0  0  0  0  0  0  0  0  0  0  0  0
  -24.5760  -11.7200   20.9100 C   0  0  0  0  0  0  0  0  0  0  0  0
  -26.2270  -12.9550   20.3240 N   0  0  0  0  0  0  0  0  0  0  0  0
  -25.8620  -11.6750   20.5850 N   0  0  0  0  0  0  0  0  0  0  0  0
  -23.8500  -10.4590   21.1080 C   0  0  0  0  0  0  0  0  0  0  0  0
  -24.3120   -9.4720   22.0070 C   0  0  0  0  0  3  0  0  0  0  0  0
  -23.5840   -8.2780   22.1930 C   0  0  0  0  0  3  0  0  0  0  0  0
  -22.3800   -8.0610   21.4810 C   0  0  0  0  0  0  0  0  0  0  0  0
  -21.9370   -9.0370   20.5710 C   0  0  0  0  0  3  0  0  0  0  0  0
  -22.6660  -10.2230   20.3830 C   0  0  0  0  0  3  0  0  0  0  0  0
  -21.6230   -6.9180   21.5770 O   0  0  0  0  0  0  0  0  0  0  0  0
  -21.6420   -6.1360   22.7050 C   0  0  0  0  0  0  0  0  0  0  0  0
  -21.3280   -6.6590   23.9790 C   0  0  0  0  0  3  0  0  0  0  0  0
  -21.2880   -5.8050   25.1000 C   0  0  0  0  0  3  0  0  0  0  0  0
  -21.5540   -4.4320   24.9480 C   0  0  0  0  0  0  0  0  0  0  0  0
  -21.8620   -3.9080   23.6800 C   0  0  0  0  0  3  0  0  0  0  0  0
  -21.9030   -4.7580   22.5610 C   0  0  0  0  0  0  0  0  0  0  0  0
  -22.1800   -4.2470   21.3370 F   0  0  0  0  0  0  0  0  0  0  0  0
  -21.5090   -3.6090   26.0220 F   0  0  0  0  0  0  0  0  0  0  0  0
  -22.7280  -13.5540   21.2370 C   0  0  0  0  0  0  0  0  0  0  0  0
  -22.0100  -12.8640   22.1150 N   0  0  0  0  0  0  0  0  0  0  0  0
  -22.2860  -14.5780   20.7180 O   0  0  0  0  0  0  0  0  0  0  0  0
  -22.3790  -12.0360   22.5590 H   0  0  0  0  0  0  0  0  0  0  0  0
  -21.0770  -13.1730   22.3490 H   0  0  0  0  0  0  0  0  0  0  0  0
  -25.3520  -15.2130   20.3950 N   0  0  0  0  0  0  0  0  0  0  0  0
  -24.5820  -15.8630   20.5210 H   0  0  0  0  0  0  0  0  0  0  0  0
  -26.1940  -15.6610   20.0580 H   0  0  0  0  0  0  0  0  0  0  0  0
  1  2  1  0
  1 49  1  0
  2  3  1  0
  3  6  1  0
  4  3  1  0
  5  3  1  0
  6  7  1  0
  8 10  1  0
  8  7  1  0
  9 20  2  0
 10 15  1  0
 11 19  1  0
 11 21  1  0
 12 18  1  0
 12 14  1  0
 13 19  1  0
 14 15  2  0
 14 13  1  0
 16 17  1  0
 16 10  2  0
 17 12  2  0
 18 11  1  0
 19  9  1  0
 21 23  2  0
 22 21  1  0
 24 22  1  0
 25 34  2  0
 25 30  1  0
 26 22  1  0
 26 30  1  0
 27 26  1  0
 28 29  1  0
 28 27  1  0
 29 25  1  0
 30 31  2  0
 31 32  1  0
 33 32  2  0
 34 33  1  0
 35  9  1  0
 35 40  1  0
 35 36  1  0
 36 39  1  1
 36 37  1  0
 38 36  1  0
 40 43  1  0
 41 45  1  0
 41 40  1  0
 42 41  2  0
 45 44  1  0
 47 45  1  0
 47 48  1  0
 47 46  1  0
 50 49  1  0
 50 53  1  0
 51 50  1  0
 52 50  1  0
 54 53  1  0
 54 55  1  0
 56 65  1  0
 56 55  1  0
 57 65  1  0
 58 63  1  0
 59 60  1  0
 59 58  1  0
 61 60  1  0
 61 70  1  0
 61 62  1  0
 63 57  1  0
 63 62  1  0
 64 57  2  0
 65 66  1  0
 67 68  2  0
 68 87  1  0
 69 68  1  0
 69 72  1  0
 70 67  1  0
 70 71  1  0
 71 69  2  0
 72 73  1  0
 73 74  2  0
 75 78  1  0
 75 74  1  0
 76 75  2  0
 77 76  1  0
 77 72  2  0
 78 79  1  0
 79 80  1  0
 80 81  2  0
 82 81  1  0
 82 86  1  0
 83 82  2  0
 84 79  2  0
 84 83  1  0
 85 84  1  0
 87 88  1  0
 88 91  1  0
 88 90  1  0
 89 87  2  0
 92 93  1  0
 92 67  1  0
 94 92  1  0
M  ISO  4   7 101   8 101  57 100  65 100
M  END
>  <TORSDO>  (1) 
F 26

>  <SCORE>  (1) 
-11.668

>  <name>  (1) 
0

>  <ligand_id>  (1) 
0

>  <original_smiles>  (1) 
[H]c1c([H])c([H])c2c(c1[H])C([H])([H])C([H])([H])C([H])([H])C2([H])N([H])C(=O)C1([H])N(C(=O)C([H])(N([H])C(=O)C([H])(N([H])C([H])([H])[H])C([H])([H])[H])C(C([H])([H])[H])(C([H])([H])[H])C([H])([H])[H])C([H])([H])c2c([H])c(OC([H])([H])C([H])([H])[N+]([H])([H])C([H])([H])C([H])([H])C([H])([H])[N+]([H])([H])C([H])([H])C([H])([H])C([H])([H])C([H])([H])N([H])C(=O)N3C([H])([H])C([H])([H])C([H])([H])C([H])(n4nc(-c5c([H])c([H])c(Oc6c([H])c([H])c(F)c([H])c6F)c([H])c5[H])c(C(=O)N([H])[H])c4N([H])[H])C3([H])[H])c([H])c([H])c2C1([H])[H]

>  <smiles>  (1) 
[H]c1c([H])c([H])c2c(c1[H])C([H])([H])C([H])([H])C([H])([H])C2([H])N([H])C(=O)C1([H])N(C(=O)C([H])(N([H])C(=O)C([H])(N([H])C([H])([H])[H])C([H])([H])[H])C(C([H])([H])[H])(C([H])([H])[H])C([H])([H])[H])C([H])([H])c2c([H])c(OC([H])([H])C([H])([H])[N+]([H])([H])C([H])([H])C([H])([H])C([H])([H])[N+]([H])([H])C([H])([H])C([H])([H])C([H])([H])C([H])([H])N([H])C(=O)N3C([H])([H])C([H])([H])C([H])([H])C([H])(n4nc(-c5c([H])c([H])c(Oc6c([H])c([H])c(F)c([H])c6F)c([H])c5[H])c(C(=O)N([H])[H])c4N([H])[H])C3([H])[H])c([H])c([H])c2C1([H])[H]

$$$$
1:0:0
     RDKit          3D

106113  0  0  1  0  0  0  0  0999 V2000
  -31.1500  -17.9020   17.5490 C   0  0  0  0  0  3  0  0  0  0  0  0
  -30.2080  -18.7300   17.0580 C   0  0  0  0  0  3  0  0  0  0  0  0
  -29.7370  -19.8590   17.8430 C   0  0  0  0  0  0  0  0  0  0  0  0
  -28.9600  -20.6850   17.1320 N   0  0  0  0  0  0  0  0  0  0  0  0
  -30.0030  -20.0730   19.0270 O   0  0  0  0  0  0  0  0  0  0  0  0
  -28.7850  -20.4440   16.1650 H   0  0  0  0  0  0  0  0  0  0  0  0
  -28.3410  -21.9120   17.6350 C   0  0  0  0  0  2  0  0  0  0  0  0
  -29.3620  -23.0570   17.8010 C   0  0  0  0  0  2  0  0  0  0  0  0
  -28.7370  -24.3110   18.2730 N   0  0  0  0  0  4  0  0  0  0  0  0
  -28.2690  -24.1360   19.1500 H   0  0  0  0  0  0  0  0  0  0  0  0
  -28.0370  -24.5870   17.6020 H   0  0  0  0  0  0  0  0  0  0  0  0
  -29.7000  -25.4230   18.4640 C   0  0  0  0  0  2  0  0  0  0  0  0
  -29.0050  -26.7660   18.7280 C   0  0  0  0  0  2  0  0  0  0  0  0
  -28.3970  -26.7540   20.0190 O   0  0  0  0  0  0  0  0  0  0  0  0
  -24.6110  -31.8710   23.2140 C   0  0  0  0  0  0  0  0  0  0  0  0
  -27.2320  -27.4730   20.0780 C   0  0  0  0  0  0  0  0  0  0  0  0
  -23.3960  -30.4950   21.5540 C   0  0  0  0  0  3  0  0  0  0  0  0
  -24.8420  -28.9620   20.1210 C   0  0  0  0  0  0  0  0  0  0  0  0
  -25.9220  -30.8430   21.3650 C   0  0  0  0  0  2  0  0  0  0  0  0
  -26.0000  -29.4780   20.7180 C   0  0  0  0  0  0  0  0  0  0  0  0
  -27.1980  -28.7330   20.7090 C   0  0  0  0  0  3  0  0  0  0  0  0
  -26.0570  -26.9520   19.4980 C   0  0  0  0  0  3  0  0  0  0  0  0
  -24.8610  -27.6930   19.5170 C   0  0  0  0  0  3  0  0  0  0  0  0
  -23.6040  -29.8290   20.1680 C   0  0  0  0  0  2  0  0  0  0  0  0
  -24.6610  -31.0840   22.1030 N   0  0  0  0  0  0  0  0  0  0  0  0
  -23.5310  -32.1450   23.7560 O   0  0  0  0  0  0  0  0  0  0  0  0
  -22.7380  -29.4670   22.5010 C   0  0  0  0  0  0  0  0  0  0  0  0
  -21.4120  -29.3020   22.3750 N   0  0  0  0  0  0  0  0  0  0  0  0
  -23.4170  -28.8200   23.3030 O   0  0  0  0  0  0  0  0  0  0  0  0
  -20.9260  -29.8770   21.7000 H   0  0  0  0  0  0  0  0  0  0  0  0
  -18.0260  -28.1370   22.8500 C   0  0  0  0  0  0  0  0  0  0  0  0
  -20.5850  -28.3650   23.1330 C   0  0  0  0  0  3  0  0  0  0  0  0
  -20.6750  -26.9390   22.5420 C   0  0  0  0  0  2  0  0  0  0  0  0
  -19.5730  -26.6380   21.5210 C   0  0  0  0  0  2  0  0  0  0  0  0
  -18.1910  -26.7920   22.1620 C   0  0  0  0  0  2  0  0  0  0  0  0
  -19.1510  -28.8820   23.2910 C   0  0  0  0  0  0  0  0  0  0  0  0
  -18.9450  -30.1430   23.8920 C   0  0  0  0  0  3  0  0  0  0  0  0
  -17.6450  -30.6580   24.0570 C   0  0  0  0  0  3  0  0  0  0  0  0
  -16.5340  -29.9090   23.6320 C   0  0  0  0  0  3  0  0  0  0  0  0
  -16.7260  -28.6500   23.0340 C   0  0  0  0  0  3  0  0  0  0  0  0
  -25.9010  -32.4840   23.8420 C   0  0  0  0  0  3  0  0  0  0  0  0
  -25.5890  -33.8640   24.2350 N   0  0  0  0  0  0  0  0  0  0  0  0
  -25.9020  -34.9490   23.5140 C   0  0  0  0  0  0  0  0  0  0  0  0
  -26.5590  -34.8930   22.4700 O   0  0  0  0  0  0  0  0  0  0  0  0
  -25.0050  -33.9810   25.0500 H   0  0  0  0  0  0  0  0  0  0  0  0
  -24.1480  -36.7330   23.2640 C   0  0  0  0  0  1  0  0  0  0  0  0
  -25.4110  -36.3130   24.0340 C   0  0  0  0  0  3  0  0  0  0  0  0
  -27.5580  -37.1820   24.8460 C   0  0  0  0  0  1  0  0  0  0  0  0
  -26.4290  -37.3810   23.9410 N   0  0  0  0  0  0  0  0  0  0  0  0
  -26.0190  -38.2890   24.1410 H   0  0  0  0  0  0  0  0  0  0  0  0
  -26.4450  -31.6610   25.0740 C   0  0  1  0  0  0  0  0  0  0  0  0
  -25.3740  -31.3710   26.1500 C   0  0  0  0  0  1  0  0  0  0  0  0
  -27.0280  -30.3060   24.6100 C   0  0  0  0  0  1  0  0  0  0  0  0
  -27.6040  -32.4320   25.7490 C   0  0  0  0  0  1  0  0  0  0  0  0
  -31.6620  -16.7460   16.8340 C   0  0  0  0  0  3  0  0  0  0  0  0
  -32.6290  -15.9710   17.3570 C   0  0  0  0  0  3  0  0  0  0  0  0
  -33.1410  -14.7940   16.6760 C   0  0  0  0  0  0  0  0  0  0  0  0
  -33.9270  -14.0730   17.4810 N   0  0  0  0  0  0  0  0  0  0  0  0
  -32.9110  -14.4750   15.5070 O   0  0  0  0  0  0  0  0  0  0  0  0
  -34.0160  -14.3750   18.4420 H   0  0  0  0  0  0  0  0  0  0  0  0
  -34.6330  -12.8440   17.1410 C   0  0  0  0  0  2  0  0  0  0  0  0
  -35.7730  -12.6210   18.1460 C   0  0  0  0  0  2  0  0  0  0  0  0
  -35.2160  -12.6010   19.4540 O   0  0  0  0  0  0  0  0  0  0  0  0
  -36.1300  -12.9450   20.4900 C   0  0  0  0  0  2  0  0  0  0  0  0
  -35.3700  -13.0160   21.8280 C   0  0  0  0  0  2  0  0  0  0  0  0
  -34.1140  -13.8970   21.7160 C   0  0  0  0  0  2  0  0  0  0  0  0
  -33.3340  -14.1340   23.0230 C   0  0  0  0  0  2  0  0  0  0  0  0
  -32.0750  -15.0200   22.8380 C   0  0  0  0  0  2  0  0  0  0  0  0
  -30.8660  -14.2150   20.7960 C   0  0  0  0  0  0  0  0  0  0  0  0
  -30.4100  -12.2930   19.3440 C   0  0  0  0  0  2  0  0  0  0  0  0
  -29.4630  -12.5610   18.1680 C   0  0  0  0  0  2  0  0  0  0  0  0
  -28.0000  -12.3880   18.6060 C   0  0  0  0  0  2  0  0  0  0  0  0
  -27.6680  -13.2080   19.8790 C   0  0  0  0  0  3  0  0  0  0  0  0
  -28.7110  -12.9590   20.9930 C   0  0  0  0  0  2  0  0  0  0  0  0
  -30.0650  -13.1840   20.4570 N   0  0  0  0  0  0  0  0  0  0  0  0
  -31.6520  -14.7650   20.0220 O   0  0  0  0  0  0  0  0  0  0  0  0
  -30.9930  -14.3360   22.1240 N   0  0  0  0  0  0  0  0  0  0  0  0
  -30.3650  -13.7720   22.6780 H   0  0  0  0  0  0  0  0  0  0  0  0
  -25.2600  -13.8160   20.5690 C   0  0  0  0  0  0  0  0  0  0  0  0
  -24.1840  -13.0440   20.9170 C   0  0  0  0  0  0  0  0  0  0  0  0
  -24.6390  -11.6900   20.8720 C   0  0  0  0  0  0  0  0  0  0  0  0
  -26.3060  -12.9340   20.3410 N   0  0  0  0  0  0  0  0  0  0  0  0
  -25.9330  -11.6490   20.5780 N   0  0  0  0  0  0  0  0  0  0  0  0
  -23.9050  -10.4280   21.0380 C   0  0  0  0  0  0  0  0  0  0  0  0
  -24.3610   -9.4210   21.9170 C   0  0  0  0  0  3  0  0  0  0  0  0
  -23.6290   -8.2240   22.0750 C   0  0  0  0  0  3  0  0  0  0  0  0
  -22.4270   -8.0270   21.3540 C   0  0  0  0  0  0  0  0  0  0  0  0
  -21.9890   -9.0240   20.4650 C   0  0  0  0  0  3  0  0  0  0  0  0
  -22.7220  -10.2120   20.3040 C   0  0  0  0  0  3  0  0  0  0  0  0
  -21.6640   -6.8860   21.4240 O   0  0  0  0  0  0  0  0  0  0  0  0
  -21.6860   -6.0710   22.5270 C   0  0  0  0  0  0  0  0  0  0  0  0
  -21.4020   -6.5620   23.8210 C   0  0  0  0  0  3  0  0  0  0  0  0
  -21.3660   -5.6770   24.9180 C   0  0  0  0  0  3  0  0  0  0  0  0
  -21.6050   -4.3030   24.7230 C   0  0  0  0  0  0  0  0  0  0  0  0
  -21.8830   -3.8120   23.4360 C   0  0  0  0  0  3  0  0  0  0  0  0
  -21.9200   -4.6930   22.3410 C   0  0  0  0  0  0  0  0  0  0  0  0
  -22.1660   -4.2120   21.0980 F   0  0  0  0  0  0  0  0  0  0  0  0
  -21.5630   -3.4530   25.7750 F   0  0  0  0  0  0  0  0  0  0  0  0
  -22.7850  -13.5230   21.1830 C   0  0  0  0  0  0  0  0  0  0  0  0
  -22.0500  -12.8230   22.0390 N   0  0  0  0  0  0  0  0  0  0  0  0
  -22.3540  -14.5540   20.6670 O   0  0  0  0  0  0  0  0  0  0  0  0
  -22.4110  -11.9920   22.4820 H   0  0  0  0  0  0  0  0  0  0  0  0
  -21.1120  -13.1270   22.2580 H   0  0  0  0  0  0  0  0  0  0  0  0
  -25.4290  -15.1890   20.4120 N   0  0  0  0  0  0  0  0  0  0  0  0
  -24.6670  -15.8480   20.5280 H   0  0  0  0  0  0  0  0  0  0  0  0
  -26.2920  -15.6280   20.1150 H   0  0  0  0  0  0  0  0  0  0  0  0
  2  1  2  0
  2  3  1  0
  3  5  2  0
  4  7  1  0
  4  3  1  0
  6  4  1  0
  7  8  1  0
  8  9  1  0
  9 12  1  0
  9 10  1  0
 11  9  1  0
 12 13  1  0
 13 14  1  0
 14 16  1  0
 15 26  2  0
 16 21  1  0
 17 25  1  0
 17 27  1  0
 18 24  1  0
 18 20  1  0
 19 25  1  0
 20 19  1  0
 21 20  2  0
 22 23  1  0
 22 16  2  0
 23 18  2  0
 24 17  1  0
 25 15  1  0
 27 29  2  0
 28 27  1  0
 30 28  1  0
 31 40  2  0
 31 36  1  0
 32 28  1  0
 32 36  1  0
 33 32  1  0
 34 35  1  0
 34 33  1  0
 35 31  1  0
 36 37  2  0
 37 38  1  0
 39 38  2  0
 40 39  1  0
 41 15  1  0
 41 42  1  0
 41 51  1  0
 42 45  1  0
 43 47  1  0
 43 42  1  0
 44 43  2  0
 47 46  1  0
 49 47  1  0
 49 50  1  0
 49 48  1  0
 51 54  1  1
 51 52  1  0
 53 51  1  0
 55 56  2  0
 55  1  1  0
 57 56  1  0
 57 58  1  0
 58 60  1  0
 59 57  2  0
 61 58  1  0
 61 62  1  0
 62 63  1  0
 63 64  1  0
 64 65  1  0
 66 65  1  0
 66 67  1  0
 68 67  1  0
 69 77  1  0
 70 75  1  0
 71 72  1  0
 71 70  1  0
 73 72  1  0
 73 82  1  0
 73 74  1  0
 75 69  1  0
 75 74  1  0
 76 69  2  0
 77 78  1  0
 77 68  1  0
 79 80  2  0
 80 99  1  0
 81 80  1  0
 81 84  1  0
 82 79  1  0
 82 83  1  0
 83 81  2  0
 84 85  1  0
 85 86  2  0
 87 90  1  0
 87 86  1  0
 88 87  2  0
 89 88  1  0
 89 84  2  0
 90 91  1  0
 91 92  1  0
 92 93  2  0
 94 93  1  0
 94 98  1  0
 95 94  2  0
 96 91  2  0
 96 95  1  0
 97 96  1  0
 99100  1  0
100103  1  0
100102  1  0
101 99  2  0
104105  1  0
104 79  1  0
106104  1  0
M  ISO  4  13 101  14 101  69 100  77 100
M  END
>  <TORSDO>  (2) 
F 32

>  <SCORE>  (2) 
-3.826

>  <name>  (2) 
1

>  <ligand_id>  (2) 
1

>  <original_smiles>  (2) 
[H]C(C(=O)N([H])C([H])([H])C([H])([H])OC([H])([H])C([H])([H])C([H])([H])C([H])([H])C([H])([H])N([H])C(=O)N1C([H])([H])C([H])([H])C([H])([H])C([H])(n2nc(-c3c([H])c([H])c(Oc4c([H])c([H])c(F)c([H])c4F)c([H])c3[H])c(C(=O)N([H])[H])c2N([H])[H])C1([H])[H])=C([H])C([H])=C([H])C(=O)N([H])C([H])([H])C([H])([H])[N+]([H])([H])C([H])([H])C([H])([H])Oc1c([H])c([H])c2c(c1[H])C([H])([H])N(C(=O)C([H])(N([H])C(=O)C([H])(N([H])C([H])([H])[H])C([H])([H])[H])C(C([H])([H])[H])(C([H])([H])[H])C([H])([H])[H])C([H])(C(=O)N([H])C1([H])c3c([H])c([H])c([H])c([H])c3C([H])([H])C([H])([H])C1([H])[H])C2([H])[H]

>  <smiles>  (2) 
[H]C(C(=O)N([H])C([H])([H])C([H])([H])OC([H])([H])C([H])([H])C([H])([H])C([H])([H])C([H])([H])N([H])C(=O)N1C([H])([H])C([H])([H])C([H])([H])C([H])(n2nc(-c3c([H])c([H])c(Oc4c([H])c([H])c(F)c([H])c4F)c([H])c3[H])c(C(=O)N([H])[H])c2N([H])[H])C1([H])[H])=C([H])C([H])=C([H])C(=O)N([H])C([H])([H])C([H])([H])[N+]([H])([H])C([H])([H])C([H])([H])Oc1c([H])c([H])c2c(c1[H])C([H])([H])N(C(=O)C([H])(N([H])C(=O)C([H])(N([H])C([H])([H])[H])C([H])([H])[H])C(C([H])([H])[H])(C([H])([H])[H])C([H])([H])[H])C([H])(C(=O)N([H])C1([H])c3c([H])c([H])c([H])c([H])c3C([H])([H])C([H])([H])C1([H])[H])C2([H])[H]

$$$$
2:0:0
     RDKit          3D

100107  0  0  1  0  0  0  0  0999 V2000
  -24.0320  -22.1490   19.3540 C   0  0  0  0  0  2  0  0  0  0  0  0
  -25.3100  -21.4150   19.2240 N   0  0  0  0  0  4  0  0  0  0  0  0
  -26.0380  -22.0800   19.0320 H   0  0  0  0  0  0  0  0  0  0  0  0
  -25.4990  -20.9740   20.1110 H   0  0  0  0  0  0  0  0  0  0  0  0
  -25.3410  -20.3720   18.1680 C   0  0  0  0  0  2  0  0  0  0  0  0
  -26.4380  -19.3210   18.4470 C   0  0  0  0  0  2  0  0  0  0  0  0
  -27.8610  -19.8940   18.6450 C   0  0  0  0  0  2  0  0  0  0  0  0
  -28.9320  -18.7900   18.7760 C   0  0  0  0  0  2  0  0  0  0  0  0
  -29.1770  -18.4090   20.1910 N   0  0  0  0  0  4  0  0  0  0  0  0
  -28.3570  -18.6130   20.7400 H   0  0  0  0  0  0  0  0  0  0  0  0
  -29.9340  -18.9660   20.5570 H   0  0  0  0  0  0  0  0  0  0  0  0
  -29.5030  -16.9850   20.3880 C   0  0  0  0  0  2  0  0  0  0  0  0
  -30.0540  -16.6630   21.8000 C   0  0  0  0  0  2  0  0  0  0  0  0
  -30.8670  -14.5060   20.9700 C   0  0  0  0  0  0  0  0  0  0  0  0
  -30.4110  -12.8890   19.1780 C   0  0  0  0  0  2  0  0  0  0  0  0
  -29.5420  -13.5360   18.0710 C   0  0  0  0  0  2  0  0  0  0  0  0
  -28.0710  -13.7980   18.4920 C   0  0  0  0  0  2  0  0  0  0  0  0
  -27.7350  -13.1920   19.8530 C   0  0  0  0  0  3  0  0  0  0  0  0
  -28.7600  -13.1540   20.9890 C   0  0  0  0  0  2  0  0  0  0  0  0
  -30.1020  -13.5040   20.4800 N   0  0  0  0  0  0  0  0  0  0  0  0
  -31.9210  -14.8850   20.4600 O   0  0  0  0  0  0  0  0  0  0  0  0
  -30.2740  -15.2250   21.9300 N   0  0  0  0  0  0  0  0  0  0  0  0
  -29.5420  -14.7370   22.4220 H   0  0  0  0  0  0  0  0  0  0  0  0
  -25.2840  -14.0420   20.4520 C   0  0  0  0  0  0  0  0  0  0  0  0
  -24.2060  -13.2620   20.8070 C   0  0  0  0  0  0  0  0  0  0  0  0
  -24.6840  -11.9200   20.7890 C   0  0  0  0  0  0  0  0  0  0  0  0
  -26.3350  -13.1420   20.2480 N   0  0  0  0  0  0  0  0  0  0  0  0
  -25.9510  -11.8830   20.4980 N   0  0  0  0  0  0  0  0  0  0  0  0
  -24.0390  -10.6330   20.9720 C   0  0  0  0  0  0  0  0  0  0  0  0
  -24.5360   -9.7050   21.9130 C   0  0  0  0  0  3  0  0  0  0  0  0
  -23.9060   -8.4560   22.0780 C   0  0  0  0  0  3  0  0  0  0  0  0
  -22.7750   -8.1370   21.2910 C   0  0  0  0  0  0  0  0  0  0  0  0
  -22.3090   -9.0530   20.3300 C   0  0  0  0  0  3  0  0  0  0  0  0
  -22.9410  -10.2930   20.1630 C   0  0  0  0  0  3  0  0  0  0  0  0
  -22.1070   -6.9420   21.3590 O   0  0  0  0  0  0  0  0  0  0  0  0
  -21.9080   -6.3080   22.5540 C   0  0  0  0  0  0  0  0  0  0  0  0
  -21.2250   -6.9250   23.6260 C   0  0  0  0  0  3  0  0  0  0  0  0
  -20.9840   -6.2080   24.8120 C   0  0  0  0  0  3  0  0  0  0  0  0
  -21.4070   -4.8720   24.9300 C   0  0  0  0  0  0  0  0  0  0  0  0
  -22.0850   -4.2550   23.8610 C   0  0  0  0  0  3  0  0  0  0  0  0
  -22.3290   -4.9680   22.6780 C   0  0  0  0  0  0  0  0  0  0  0  0
  -22.9670   -4.3640   21.6450 F   0  0  0  0  0  0  0  0  0  0  0  0
  -21.1620   -4.1790   26.0680 F   0  0  0  0  0  0  0  0  0  0  0  0
  -22.7910  -13.6830   21.0890 C   0  0  0  0  0  0  0  0  0  0  0  0
  -22.1140  -12.9700   21.9830 N   0  0  0  0  0  0  0  0  0  0  0  0
  -22.2930  -14.6740   20.5590 O   0  0  0  0  0  0  0  0  0  0  0  0
  -22.5280  -12.1600   22.4140 H   0  0  0  0  0  0  0  0  0  0  0  0
  -21.1730  -13.2360   22.2340 H   0  0  0  0  0  0  0  0  0  0  0  0
  -25.4420  -15.4140   20.2940 N   0  0  0  0  0  0  0  0  0  0  0  0
  -24.7170  -16.0700   20.5590 H   0  0  0  0  0  0  0  0  0  0  0  0
  -26.3620  -15.8190   20.2120 H   0  0  0  0  0  0  0  0  0  0  0  0
  -24.1390  -23.3170   20.3690 C   0  0  0  0  0  2  0  0  0  0  0  0
  -25.2900  -24.3380   20.1650 C   0  0  0  0  0  2  0  0  0  0  0  0
  -26.2460  -24.4230   21.3850 C   0  0  0  0  0  2  0  0  0  0  0  0
  -27.1110  -25.6320   21.4010 N   0  0  0  0  0  4  0  0  0  0  0  0
  -27.0900  -25.9980   22.3420 H   0  0  0  0  0  0  0  0  0  0  0  0
  -26.7280  -26.3480   20.8020 H   0  0  0  0  0  0  0  0  0  0  0  0
  -28.5370  -25.4050   21.0490 C   0  0  0  0  0  2  0  0  0  0  0  0
  -29.3000  -26.7250   20.8100 C   0  0  0  0  0  2  0  0  0  0  0  0
  -28.7800  -27.3930   19.6640 O   0  0  0  0  0  0  0  0  0  0  0  0
  -24.4960  -31.7410   23.3790 C   0  0  0  0  0  0  0  0  0  0  0  0
  -27.5600  -27.9990   19.8120 C   0  0  0  0  0  0  0  0  0  0  0  0
  -23.4370  -30.4720   21.5340 C   0  0  0  0  0  3  0  0  0  0  0  0
  -25.0400  -29.2490   19.9680 C   0  0  0  0  0  0  0  0  0  0  0  0
  -25.9220  -31.0590   21.4550 C   0  0  0  0  0  2  0  0  0  0  0  0
  -26.1330  -29.7900   20.6570 C   0  0  0  0  0  0  0  0  0  0  0  0
  -27.3970  -29.1670   20.5880 C   0  0  0  0  0  3  0  0  0  0  0  0
  -26.4570  -27.4630   19.1160 C   0  0  0  0  0  3  0  0  0  0  0  0
  -25.1950  -28.0820   19.1970 C   0  0  0  0  0  3  0  0  0  0  0  0
  -23.7280  -29.9910   20.0850 C   0  0  0  0  0  2  0  0  0  0  0  0
  -24.6340  -31.1000   22.1840 N   0  0  0  0  0  0  0  0  0  0  0  0
  -23.3880  -31.8510   23.9210 O   0  0  0  0  0  0  0  0  0  0  0  0
  -22.8600  -29.2850   22.3410 C   0  0  0  0  0  0  0  0  0  0  0  0
  -21.5780  -28.9660   22.1020 N   0  0  0  0  0  0  0  0  0  0  0  0
  -23.5670  -28.6600   23.1380 O   0  0  0  0  0  0  0  0  0  0  0  0
  -21.0650  -29.5310   21.4370 H   0  0  0  0  0  0  0  0  0  0  0  0
  -18.3600  -27.3260   22.2160 C   0  0  0  0  0  0  0  0  0  0  0  0
  -20.8400  -27.8600   22.7080 C   0  0  0  0  0  3  0  0  0  0  0  0
  -21.1640  -26.5260   21.9950 C   0  0  0  0  0  2  0  0  0  0  0  0
  -20.1720  -26.1860   20.8780 C   0  0  0  0  0  2  0  0  0  0  0  0
  -18.7520  -26.0820   21.4400 C   0  0  0  0  0  2  0  0  0  0  0  0
  -19.3420  -28.1720   22.7980 C   0  0  0  0  0  0  0  0  0  0  0  0
  -18.9250  -29.3400   23.4740 C   0  0  0  0  0  3  0  0  0  0  0  0
  -17.5590  -29.6610   23.5790 C   0  0  0  0  0  3  0  0  0  0  0  0
  -16.5910  -28.8110   23.0170 C   0  0  0  0  0  3  0  0  0  0  0  0
  -16.9920  -27.6440   22.3390 C   0  0  0  0  0  3  0  0  0  0  0  0
  -25.7180  -32.3840   24.1040 C   0  0  0  0  0  3  0  0  0  0  0  0
  -25.4010  -33.8010   24.3190 N   0  0  0  0  0  0  0  0  0  0  0  0
  -25.8290  -34.8030   23.5400 C   0  0  0  0  0  0  0  0  0  0  0  0
  -26.6000  -34.6310   22.5920 O   0  0  0  0  0  0  0  0  0  0  0  0
  -24.7270  -34.0080   25.0410 H   0  0  0  0  0  0  0  0  0  0  0  0
  -24.1740  -36.5890   22.9070 C   0  0  0  0  0  1  0  0  0  0  0  0
  -25.3220  -36.2230   23.8620 C   0  0  0  0  0  3  0  0  0  0  0  0
  -27.3710  -37.1450   24.8540 C   0  0  0  0  0  1  0  0  0  0  0  0
  -26.3780  -37.2560   23.7880 N   0  0  0  0  0  0  0  0  0  0  0  0
  -25.9740  -38.1880   23.8270 H   0  0  0  0  0  0  0  0  0  0  0  0
  -26.0760  -31.6730   25.4670 C   0  0  1  0  0  0  0  0  0  0  0  0
  -24.8640  -31.4730   26.4070 C   0  0  0  0  0  1  0  0  0  0  0  0
  -26.7080  -30.2850   25.2080 C   0  0  0  0  0  1  0  0  0  0  0  0
  -27.1360  -32.5060   26.2260 C   0  0  0  0  0  1  0  0  0  0  0  0
  1 52  1  0
  2  1  1  0
  2  4  1  0
  3  2  1  0
  5  6  1  0
  5  2  1  0
  6  7  1  0
  7  8  1  0
  8  9  1  0
  9 12  1  0
  9 11  1  0
  9 10  1  0
 12 13  1  0
 13 22  1  0
 14 22  1  0
 15 20  1  0
 16 17  1  0
 16 15  1  0
 18 17  1  0
 18 27  1  0
 18 19  1  0
 20 14  1  0
 20 19  1  0
 21 14  2  0
 22 23  1  0
 24 25  2  0
 25 44  1  0
 26 25  1  0
 26 29  1  0
 27 24  1  0
 27 28  1  0
 28 26  2  0
 29 30  1  0
 30 31  2  0
 32 35  1  0
 32 31  1  0
 33 32  2  0
 34 33  1  0
 34 29  2  0
 35 36  1  0
 36 41  2  0
 36 37  1  0
 37 38  2  0
 38 39  1  0
 39 43  1  0
 40 39  2  0
 41 40  1  0
 42 41  1  0
 44 45  1  0
 45 48  1  0
 45 47  1  0
 46 44  2  0
 49 24  1  0
 49 50  1  0
 51 49  1  0
 53 52  1  0
 53 54  1  0
 54 55  1  0
 55 56  1  0
 57 55  1  0
 58 55  1  0
 59 58  1  0
 60 62  1  0
 60 59  1  0
 61 72  2  0
 62 67  1  0
 63 71  1  0
 63 73  1  0
 64 70  1  0
 64 66  1  0
 65 71  1  0
 66 65  1  0
 67 66  2  0
 68 69  1  0
 68 62  2  0
 69 64  2  0
 70 63  1  0
 71 61  1  0
 73 75  2  0
 74 73  1  0
 76 74  1  0
 77 86  2  0
 77 82  1  0
 78 74  1  0
 78 82  1  0
 79 78  1  0
 80 81  1  0
 80 79  1  0
 81 77  1  0
 82 83  2  0
 83 84  1  0
 85 84  2  0
 86 85  1  0
 87 61  1  0
 87 88  1  0
 87 97  1  0
 88 91  1  0
 89 93  1  0
 89 88  1  0
 90 89  2  0
 93 92  1  0
 95 96  1  0
 95 93  1  0
 95 94  1  0
 97100  1  1
 97 98  1  0
 99 97  1  0
M  ISO  4  14 100  22 100  59 101  60 101
M  END
>  <TORSDO>  (3) 
F 30

>  <SCORE>  (3) 
-9.098

>  <name>  (3) 
2

>  <ligand_id>  (3) 
2

>  <original_smiles>  (3) 
[H]c1c([H])c([H])c2c(c1[H])C([H])([H])C([H])([H])C([H])([H])C2([H])N([H])C(=O)C1([H])N(C(=O)C([H])(N([H])C(=O)C([H])(N([H])C([H])([H])[H])C([H])([H])[H])C(C([H])([H])[H])(C([H])([H])[H])C([H])([H])[H])C([H])([H])c2c([H])c(OC([H])([H])C([H])([H])[N+]([H])([H])C([H])([H])C([H])([H])C([H])([H])C([H])([H])[N+]([H])([H])C([H])([H])C([H])([H])C([H])([H])C([H])([H])[N+]([H])([H])C([H])([H])C([H])([H])N([H])C(=O)N3C([H])([H])C([H])([H])C([H])([H])C([H])(n4nc(-c5c([H])c([H])c(Oc6c([H])c([H])c(F)c([H])c6F)c([H])c5[H])c(C(=O)N([H])[H])c4N([H])[H])C3([H])[H])c([H])c([H])c2C1([H])[H]

>  <smiles>  (3) 
[H]c1c([H])c([H])c2c(c1[H])C([H])([H])C([H])([H])C([H])([H])C2([H])N([H])C(=O)C1([H])N(C(=O)C([H])(N([H])C(=O)C([H])(N([H])C([H])([H])[H])C([H])([H])[H])C(C([H])([H])[H])(C([H])([H])[H])C([H])([H])[H])C([H])([H])c2c([H])c(OC([H])([H])C([H])([H])[N+]([H])([H])C([H])([H])C([H])([H])C([H])([H])C([H])([H])[N+]([H])([H])C([H])([H])C([H])([H])C([H])([H])C([H])([H])[N+]([H])([H])C([H])([H])C([H])([H])N([H])C(=O)N3C([H])([H])C([H])([H])C([H])([H])C([H])(n4nc(-c5c([H])c([H])c(Oc6c([H])c([H])c(F)c([H])c6F)c([H])c5[H])c(C(=O)N([H])[H])c4N([H])[H])C3([H])[H])c([H])c([H])c2C1([H])[H]

$$$$
3:0:0
     RDKit          3D

 99106  0  0  1  0  0  0  0  0999 V2000
  -30.9810  -20.8060   19.3800 C   0  0  0  0  0  2  0  0  0  0  0  0
  -30.7190  -22.0010   20.2160 N   0  0  0  0  0  0  0  0  0  0  0  0
  -31.2140  -22.8010   19.8180 H   0  0  0  0  0  0  0  0  0  0  0  0
  -29.3280  -22.4300   20.5010 C   0  0  0  0  0  2  0  0  0  0  0  0
  -28.6800  -23.3380   19.4250 C   0  0  0  0  0  2  0  0  0  0  0  0
  -28.7720  -24.7760   19.7150 N   0  0  0  0  0  0  0  0  0  0  0  0
  -28.4970  -24.9800   20.6790 H   0  0  0  0  0  0  0  0  0  0  0  0
  -30.0740  -25.3960   19.4870 C   0  0  0  0  0  2  0  0  0  0  0  0
  -29.9890  -26.9310   19.6090 C   0  0  0  0  0  2  0  0  0  0  0  0
  -29.3870  -27.2990   20.8540 O   0  0  0  0  0  0  0  0  0  0  0  0
  -24.9460  -32.0870   23.7150 C   0  0  0  0  0  0  0  0  0  0  0  0
  -28.1480  -27.8960   20.7910 C   0  0  0  0  0  0  0  0  0  0  0  0
  -23.9830  -30.6440   21.9470 C   0  0  0  0  0  3  0  0  0  0  0  0
  -25.6500  -29.2070   20.6590 C   0  0  0  0  0  0  0  0  0  0  0  0
  -26.4910  -31.1390   22.0070 C   0  0  0  0  0  2  0  0  0  0  0  0
  -26.7110  -29.7910   21.3620 C   0  0  0  0  0  0  0  0  0  0  0  0
  -27.9550  -29.1280   21.4490 C   0  0  0  0  0  3  0  0  0  0  0  0
  -27.0670  -27.3120   20.0940 C   0  0  0  0  0  3  0  0  0  0  0  0
  -25.8150  -27.9540   20.0430 C   0  0  0  0  0  3  0  0  0  0  0  0
  -24.3610  -29.9900   20.5910 C   0  0  0  0  0  2  0  0  0  0  0  0
  -25.1500  -31.3090   22.6140 N   0  0  0  0  0  0  0  0  0  0  0  0
  -23.8060  -32.2900   24.1500 O   0  0  0  0  0  0  0  0  0  0  0  0
  -23.3040  -29.5790   22.8320 C   0  0  0  0  0  0  0  0  0  0  0  0
  -21.9980  -29.3640   22.6070 N   0  0  0  0  0  0  0  0  0  0  0  0
  -23.9470  -28.9470   23.6730 O   0  0  0  0  0  0  0  0  0  0  0  0
  -21.5400  -29.9220   21.9000 H   0  0  0  0  0  0  0  0  0  0  0  0
  -18.6170  -28.1230   22.8980 C   0  0  0  0  0  0  0  0  0  0  0  0
  -21.1580  -28.3790   23.2880 C   0  0  0  0  0  3  0  0  0  0  0  0
  -21.2960  -26.9850   22.6310 C   0  0  0  0  0  2  0  0  0  0  0  0
  -20.2360  -26.7180   21.5570 C   0  0  0  0  0  2  0  0  0  0  0  0
  -18.8310  -26.8170   22.1550 C   0  0  0  0  0  2  0  0  0  0  0  0
  -19.7120  -28.8650   23.4160 C   0  0  0  0  0  0  0  0  0  0  0  0
  -19.4600  -30.0920   24.0680 C   0  0  0  0  0  3  0  0  0  0  0  0
  -18.1450  -30.5740   24.2150 C   0  0  0  0  0  3  0  0  0  0  0  0
  -17.0640  -29.8260   23.7170 C   0  0  0  0  0  3  0  0  0  0  0  0
  -17.3010  -28.6040   23.0620 C   0  0  0  0  0  3  0  0  0  0  0  0
  -26.1330  -32.7740   24.4610 C   0  0  0  0  0  3  0  0  0  0  0  0
  -26.5600  -32.0200   25.7800 C   0  0  1  0  0  0  0  0  0  0  0  0
  -25.3780  -31.6870   26.7190 C   0  0  0  0  0  1  0  0  0  0  0  0
  -27.2800  -30.6930   25.4470 C   0  0  0  0  0  1  0  0  0  0  0  0
  -27.5670  -32.8850   26.5750 C   0  0  0  0  0  1  0  0  0  0  0  0
  -25.7270  -34.1540   24.7590 N   0  0  0  0  0  0  0  0  0  0  0  0
  -26.0790  -35.2240   24.0330 C   0  0  0  0  0  0  0  0  0  0  0  0
  -26.8500  -35.1580   23.0720 O   0  0  0  0  0  0  0  0  0  0  0  0
  -25.0520  -34.2770   25.4990 H   0  0  0  0  0  0  0  0  0  0  0  0
  -24.3050  -36.9290   23.5070 C   0  0  0  0  0  1  0  0  0  0  0  0
  -25.4790  -36.5840   24.4360 C   0  0  0  0  0  3  0  0  0  0  0  0
  -27.4850  -37.5660   25.4620 C   0  0  0  0  0  1  0  0  0  0  0  0
  -26.4650  -37.6880   24.4240 N   0  0  0  0  0  0  0  0  0  0  0  0
  -26.0000  -38.5850   24.5400 H   0  0  0  0  0  0  0  0  0  0  0  0
  -32.2300  -20.0430   19.9340 C   0  0  0  0  0  2  0  0  0  0  0  0
  -33.0980  -19.3380   18.9500 N   0  0  0  0  0  0  0  0  0  0  0  0
  -33.9370  -18.9970   19.4290 H   0  0  0  0  0  0  0  0  0  0  0  0
  -32.5810  -18.2690   18.0530 C   0  0  0  0  0  2  0  0  0  0  0  0
  -32.3700  -16.8440   18.6860 C   0  0  0  0  0  2  0  0  0  0  0  0
  -31.2470  -16.7780   19.6620 N   0  0  0  0  0  4  0  0  0  0  0  0
  -31.6340  -16.9160   20.5780 H   0  0  0  0  0  0  0  0  0  0  0  0
  -30.6280  -17.5350   19.4370 H   0  0  0  0  0  0  0  0  0  0  0  0
  -30.4260  -15.5340   19.6850 C   0  0  0  0  0  3  0  0  0  0  0  0
  -29.0920  -15.6260   20.5150 C   0  0  0  0  0  3  0  0  0  0  0  0
  -28.5140  -17.0100   20.9640 C   0  0  0  0  0  2  0  0  0  0  0  0
  -28.6000  -18.5410   18.9530 C   0  0  0  0  0  0  0  0  0  0  0  0
  -28.3090  -19.4510   16.6850 C   0  0  0  0  0  2  0  0  0  0  0  0
  -28.6810  -20.9370   16.5550 C   0  0  0  0  0  2  0  0  0  0  0  0
  -27.4260  -21.7850   16.7970 C   0  0  0  0  0  2  0  0  0  0  0  0
  -26.7760  -21.4510   18.1670 C   0  0  0  0  0  3  0  0  0  0  0  0
  -26.5740  -19.9170   18.3430 C   0  0  0  0  0  2  0  0  0  0  0  0
  -27.8220  -19.1880   18.0470 N   0  0  0  0  0  0  0  0  0  0  0  0
  -29.8120  -18.3870   18.8320 O   0  0  0  0  0  0  0  0  0  0  0  0
  -27.9400  -17.8700   19.9060 N   0  0  0  0  0  0  0  0  0  0  0  0
  -26.9390  -18.0070   19.8950 H   0  0  0  0  0  0  0  0  0  0  0  0
  -25.0100  -22.7900   19.4920 C   0  0  0  0  0  0  0  0  0  0  0  0
  -23.8700  -23.4330   19.1000 C   0  0  0  0  0  0  0  0  0  0  0  0
  -23.7410  -23.1900   17.6940 C   0  0  0  0  0  0  0  0  0  0  0  0
  -25.5300  -22.1930   18.3520 N   0  0  0  0  0  0  0  0  0  0  0  0
  -24.7200  -22.3970   17.2810 N   0  0  0  0  0  0  0  0  0  0  0  0
  -22.7790  -23.7110   16.7170 C   0  0  0  0  0  0  0  0  0  0  0  0
  -21.9950  -22.8470   15.9230 C   0  0  0  0  0  3  0  0  0  0  0  0
  -21.0630  -23.3660   15.0000 C   0  0  0  0  0  3  0  0  0  0  0  0
  -20.9010  -24.7620   14.8630 C   0  0  0  0  0  0  0  0  0  0  0  0
  -21.6960  -25.6200   15.6400 C   0  0  0  0  0  3  0  0  0  0  0  0
  -22.6290  -25.1040   16.5560 C   0  0  0  0  0  3  0  0  0  0  0  0
  -20.0330  -25.3590   13.9790 O   0  0  0  0  0  0  0  0  0  0  0  0
  -18.8730  -24.7450   13.5820 C   0  0  0  0  0  0  0  0  0  0  0  0
  -17.8850  -24.3440   14.5090 C   0  0  0  0  0  3  0  0  0  0  0  0
  -16.6800  -23.7770   14.0490 C   0  0  0  0  0  3  0  0  0  0  0  0
  -16.4550  -23.6260   12.6680 C   0  0  0  0  0  0  0  0  0  0  0  0
  -17.4390  -24.0220   11.7450 C   0  0  0  0  0  3  0  0  0  0  0  0
  -18.6460  -24.5820   12.2000 C   0  0  0  0  0  0  0  0  0  0  0  0
  -19.5790  -24.9890   11.3110 F   0  0  0  0  0  0  0  0  0  0  0  0
  -15.2970  -23.0850   12.2190 F   0  0  0  0  0  0  0  0  0  0  0  0
  -22.9820  -24.2930   19.9530 C   0  0  0  0  0  0  0  0  0  0  0  0
  -21.6830  -24.2950   19.6720 N   0  0  0  0  0  0  0  0  0  0  0  0
  -23.4300  -24.9220   20.9120 O   0  0  0  0  0  0  0  0  0  0  0  0
  -21.3150  -23.7640   18.8970 H   0  0  0  0  0  0  0  0  0  0  0  0
  -21.0400  -24.8170   20.2480 H   0  0  0  0  0  0  0  0  0  0  0  0
  -25.6730  -22.6840   20.7110 N   0  0  0  0  0  0  0  0  0  0  0  0
  -25.3380  -23.1290   21.5570 H   0  0  0  0  0  0  0  0  0  0  0  0
  -26.5360  -22.1750   20.8380 H   0  0  0  0  0  0  0  0  0  0  0  0
  1 51  1  0
  1  2  1  0
  2  4  1  0
  3  2  1  0
  5  6  1  0
  5  4  1  0
  6  7  1  0
  8  9  1  0
  8  6  1  0
  9 10  1  0
 11 22  2  0
 12 10  1  0
 12 17  1  0
 13 21  1  0
 13 23  1  0
 14 16  1  0
 15 21  1  0
 16 17  2  0
 16 15  1  0
 18 12  2  0
 19 18  1  0
 19 14  2  0
 20 14  1  0
 20 13  1  0
 21 11  1  0
 23 25  2  0
 24 23  1  0
 26 24  1  0
 27 36  2  0
 27 32  1  0
 28 24  1  0
 28 32  1  0
 29 28  1  0
 30 31  1  0
 30 29  1  0
 31 27  1  0
 32 33  2  0
 33 34  1  0
 35 34  2  0
 36 35  1  0
 37 11  1  0
 37 42  1  0
 37 38  1  0
 38 41  1  1
 38 39  1  0
 40 38  1  0
 42 45  1  0
 43 47  1  0
 43 42  1  0
 44 43  2  0
 47 46  1  0
 49 47  1  0
 49 50  1  0
 49 48  1  0
 52 53  1  0
 52 51  1  0
 54 55  1  0
 54 52  1  0
 55 56  1  0
 56 59  1  0
 56 57  1  0
 58 56  1  0
 59 60  2  0
 60 61  1  0
 62 70  1  0
 63 68  1  0
 64 63  1  0
 64 65  1  0
 66 65  1  0
 66 67  1  0
 66 75  1  0
 68 67  1  0
 68 62  1  0
 69 62  2  0
 70 61  1  0
 71 70  1  0
 72 97  1  0
 73 72  2  0
 73 92  1  0
 74 73  1  0
 75 72  1  0
 76 74  2  0
 76 75  1  0
 77 74  1  0
 78 77  2  0
 79 78  1  0
 80 79  2  0
 80 81  1  0
 81 82  2  0
 82 77  1  0
 83 80  1  0
 84 83  1  0
 84 85  1  0
 86 85  2  0
 87 86  1  0
 88 89  1  0
 88 87  2  0
 89 84  2  0
 90 89  1  0
 91 87  1  0
 92 94  2  0
 93 92  1  0
 93 96  1  0
 95 93  1  0
 97 99  1  0
 97 98  1  0
M  ISO  4   9 101  10 101  62 100  70 100
M  END
>  <TORSDO>  (4) 
F 30

>  <SCORE>  (4) 
-6.528

>  <name>  (4) 
3

>  <ligand_id>  (4) 
3

>  <original_smiles>  (4) 
[H]c1c([H])c([H])c2c(c1[H])C([H])([H])C([H])([H])C([H])([H])C2([H])N([H])C(=O)C1([H])N(C(=O)C([H])(N([H])C(=O)C([H])(N([H])C([H])([H])[H])C([H])([H])[H])C(C([H])([H])[H])(C([H])([H])[H])C([H])([H])[H])C([H])([H])c2c([H])c(OC([H])([H])C([H])([H])N([H])C([H])([H])C([H])([H])N([H])C([H])([H])C([H])([H])N([H])C([H])([H])C([H])([H])[N+]([H])([H])C([H])([H])C([H])([H])C([H])([H])N([H])C(=O)N3C([H])([H])C([H])([H])C([H])([H])C([H])(n4nc(-c5c([H])c([H])c(Oc6c([H])c([H])c(F)c([H])c6F)c([H])c5[H])c(C(=O)N([H])[H])c4N([H])[H])C3([H])[H])c([H])c([H])c2C1([H])[H]

>  <smiles>  (4) 
[H]c1c([H])c([H])c2c(c1[H])C([H])([H])C([H])([H])C([H])([H])C2([H])N([H])C(=O)C1([H])N(C(=O)C([H])(N([H])C(=O)C([H])(N([H])C([H])([H])[H])C([H])([H])[H])C(C([H])([H])[H])(C([H])([H])[H])C([H])([H])[H])C([H])([H])c2c([H])c(OC([H])([H])C([H])([H])N([H])C([H])([H])C([H])([H])N([H])C([H])([H])C([H])([H])N([H])C([H])([H])C([H])([H])[N+]([H])([H])C([H])([H])C([H])([H])C([H])([H])N([H])C(=O)N3C([H])([H])C([H])([H])C([H])([H])C([H])(n4nc(-c5c([H])c([H])c(Oc6c([H])c([H])c(F)c([H])c6F)c([H])c5[H])c(C(=O)N([H])[H])c4N([H])[H])C3([H])[H])c([H])c([H])c2C1([H])[H]

$$$$
4:0:0
     RDKit          3D

 92 99  0  0  1  0  0  0  0  0999 V2000
  -29.3760  -21.7880   20.6670 C   0  0  0  0  0  2  0  0  0  0  0  0
  -28.9710  -22.9550   19.8230 N   0  0  0  0  0  4  0  0  0  0  0  0
  -29.6400  -23.0400   19.0720 H   0  0  0  0  0  0  0  0  0  0  0  0
  -28.0820  -22.7380   19.3990 H   0  0  0  0  0  0  0  0  0  0  0  0
  -28.8520  -24.2800   20.5180 C   0  0  0  0  0  2  0  0  0  0  0  0
  -28.6300  -25.4780   19.5420 C   0  0  0  0  0  2  0  0  0  0  0  0
  -28.4430  -26.7550   20.2050 O   0  0  0  0  0  0  0  0  0  0  0  0
  -24.5950  -31.9290   23.2510 C   0  0  0  0  0  0  0  0  0  0  0  0
  -27.2400  -27.4510   20.1760 C   0  0  0  0  0  0  0  0  0  0  0  0
  -23.3900  -30.5240   21.6130 C   0  0  0  0  0  3  0  0  0  0  0  0
  -24.8420  -28.9830   20.1880 C   0  0  0  0  0  0  0  0  0  0  0  0
  -25.9170  -30.8770   21.4100 C   0  0  0  0  0  2  0  0  0  0  0  0
  -26.0000  -29.5010   20.7760 C   0  0  0  0  0  0  0  0  0  0  0  0
  -27.1960  -28.7420   20.7660 C   0  0  0  0  0  3  0  0  0  0  0  0
  -26.0470  -26.9490   19.6010 C   0  0  0  0  0  3  0  0  0  0  0  0
  -24.8600  -27.7090   19.6000 C   0  0  0  0  0  3  0  0  0  0  0  0
  -23.5980  -29.8460   20.2320 C   0  0  0  0  0  2  0  0  0  0  0  0
  -24.6540  -31.1270   22.1490 N   0  0  0  0  0  0  0  0  0  0  0  0
  -23.5150  -32.1990   23.7910 O   0  0  0  0  0  0  0  0  0  0  0  0
  -22.7400  -29.5040   22.5780 C   0  0  0  0  0  0  0  0  0  0  0  0
  -21.4160  -29.3160   22.4470 N   0  0  0  0  0  0  0  0  0  0  0  0
  -23.4240  -28.8850   23.3970 O   0  0  0  0  0  0  0  0  0  0  0  0
  -20.9250  -29.8710   21.7610 H   0  0  0  0  0  0  0  0  0  0  0  0
  -18.0440  -28.1130   22.9340 C   0  0  0  0  0  0  0  0  0  0  0  0
  -20.6000  -28.3790   23.2180 C   0  0  0  0  0  3  0  0  0  0  0  0
  -20.7070  -26.9460   22.6460 C   0  0  0  0  0  2  0  0  0  0  0  0
  -19.6100  -26.6180   21.6280 C   0  0  0  0  0  2  0  0  0  0  0  0
  -18.2250  -26.7630   22.2640 C   0  0  0  0  0  2  0  0  0  0  0  0
  -19.1590  -28.8800   23.3670 C   0  0  0  0  0  0  0  0  0  0  0  0
  -18.9350  -30.1460   23.9510 C   0  0  0  0  0  3  0  0  0  0  0  0
  -17.6270  -30.6430   24.1100 C   0  0  0  0  0  3  0  0  0  0  0  0
  -16.5270  -29.8730   23.6940 C   0  0  0  0  0  3  0  0  0  0  0  0
  -16.7360  -28.6100   23.1120 C   0  0  0  0  0  3  0  0  0  0  0  0
  -25.8810  -32.5630   23.8700 C   0  0  0  0  0  3  0  0  0  0  0  0
  -25.5710  -33.9610   24.1960 N   0  0  0  0  0  0  0  0  0  0  0  0
  -25.9070  -35.0130   23.4360 C   0  0  0  0  0  0  0  0  0  0  0  0
  -26.5810  -34.9070   22.4070 O   0  0  0  0  0  0  0  0  0  0  0  0
  -24.9790  -34.1190   24.9990 H   0  0  0  0  0  0  0  0  0  0  0  0
  -24.1820  -36.8050   23.0660 C   0  0  0  0  0  1  0  0  0  0  0  0
  -25.4170  -36.4030   23.8880 C   0  0  0  0  0  3  0  0  0  0  0  0
  -27.5450  -37.2830   24.7350 C   0  0  0  0  0  1  0  0  0  0  0  0
  -26.4520  -37.4530   23.7830 N   0  0  0  0  0  0  0  0  0  0  0  0
  -26.0470  -38.3750   23.9270 H   0  0  0  0  0  0  0  0  0  0  0  0
  -26.3990  -31.7930   25.1470 C   0  0  1  0  0  0  0  0  0  0  0  0
  -25.3070  -31.5510   26.2150 C   0  0  0  0  0  1  0  0  0  0  0  0
  -26.9820  -30.4180   24.7510 C   0  0  0  0  0  1  0  0  0  0  0  0
  -27.5490  -32.5880   25.8090 C   0  0  0  0  0  1  0  0  0  0  0  0
  -29.2800  -20.4110   19.9280 C   0  0  0  0  0  2  0  0  0  0  0  0
  -29.6260  -17.9490   20.3780 C   0  0  0  0  0  0  0  0  0  0  0  0
  -29.7000  -19.2490   20.7420 N   0  0  0  0  0  0  0  0  0  0  0  0
  -29.1620  -17.5990   19.2920 O   0  0  0  0  0  0  0  0  0  0  0  0
  -30.0900  -19.4440   21.6550 H   0  0  0  0  0  0  0  0  0  0  0  0
  -31.6150  -17.0840   21.8030 C   0  0  0  0  0  1  0  0  0  0  0  0
  -30.1460  -16.8840   21.3770 C   0  0  0  0  0  3  0  0  0  0  0  0
  -30.4900  -14.5410   20.3480 C   0  0  0  0  0  0  0  0  0  0  0  0
  -30.2070  -12.4180   19.1070 C   0  0  0  0  0  2  0  0  0  0  0  0
  -29.2200  -12.6470   17.9430 C   0  0  0  0  0  2  0  0  0  0  0  0
  -27.7620  -12.4720   18.4140 C   0  0  0  0  0  2  0  0  0  0  0  0
  -27.4560  -13.2480   19.7230 C   0  0  0  0  0  3  0  0  0  0  0  0
  -28.5490  -12.9850   20.7820 C   0  0  0  0  0  2  0  0  0  0  0  0
  -29.8450  -13.3510   20.1870 N   0  0  0  0  0  0  0  0  0  0  0  0
  -31.5790  -14.7730   19.8180 O   0  0  0  0  0  0  0  0  0  0  0  0
  -29.8080  -15.4760   21.0450 N   0  0  0  0  0  0  0  0  0  0  0  0
  -28.9030  -15.1730   21.3680 H   0  0  0  0  0  0  0  0  0  0  0  0
  -25.0640  -13.7930   20.4980 C   0  0  0  0  0  0  0  0  0  0  0  0
  -24.0220  -12.9920   20.8850 C   0  0  0  0  0  0  0  0  0  0  0  0
  -24.5130  -11.6520   20.8270 C   0  0  0  0  0  0  0  0  0  0  0  0
  -26.1220  -12.9370   20.2310 N   0  0  0  0  0  0  0  0  0  0  0  0
  -25.7950  -11.6440   20.4870 N   0  0  0  0  0  0  0  0  0  0  0  0
  -23.8200  -10.3710   21.0210 C   0  0  0  0  0  0  0  0  0  0  0  0
  -24.2810   -9.4160   21.9550 C   0  0  0  0  0  3  0  0  0  0  0  0
  -23.5880   -8.2010   22.1390 C   0  0  0  0  0  3  0  0  0  0  0  0
  -22.4200   -7.9290   21.3870 C   0  0  0  0  0  0  0  0  0  0  0  0
  -21.9780   -8.8730   20.4430 C   0  0  0  0  0  3  0  0  0  0  0  0
  -22.6720  -10.0800   20.2580 C   0  0  0  0  0  3  0  0  0  0  0  0
  -21.6980   -6.7640   21.4750 O   0  0  0  0  0  0  0  0  0  0  0  0
  -21.6610   -6.0270   22.6330 C   0  0  0  0  0  0  0  0  0  0  0  0
  -21.2010   -6.5770   23.8490 C   0  0  0  0  0  3  0  0  0  0  0  0
  -21.1140   -5.7670   24.9990 C   0  0  0  0  0  3  0  0  0  0  0  0
  -21.4760   -4.4080   24.9330 C   0  0  0  0  0  0  0  0  0  0  0  0
  -21.9280   -3.8580   23.7210 C   0  0  0  0  0  3  0  0  0  0  0  0
  -22.0180   -4.6660   22.5740 C   0  0  0  0  0  0  0  0  0  0  0  0
  -22.4350   -4.1260   21.4030 F   0  0  0  0  0  0  0  0  0  0  0  0
  -21.3850   -3.6280   26.0340 F   0  0  0  0  0  0  0  0  0  0  0  0
  -22.6230  -13.4330   21.1990 C   0  0  0  0  0  0  0  0  0  0  0  0
  -21.9350  -12.7110   22.0780 N   0  0  0  0  0  0  0  0  0  0  0  0
  -22.1490  -14.4550   20.7040 O   0  0  0  0  0  0  0  0  0  0  0  0
  -22.3350  -11.8860   22.4990 H   0  0  0  0  0  0  0  0  0  0  0  0
  -20.9990  -12.9890   22.3330 H   0  0  0  0  0  0  0  0  0  0  0  0
  -25.1940  -15.1680   20.3300 N   0  0  0  0  0  0  0  0  0  0  0  0
  -24.4120  -15.8030   20.4490 H   0  0  0  0  0  0  0  0  0  0  0  0
  -26.0180  -15.6220   19.9560 H   0  0  0  0  0  0  0  0  0  0  0  0
  2  5  1  0
  2  1  1  0
  3  2  1  0
  4  2  1  0
  6  7  1  0
  6  5  1  0
  8 19  2  0
  9  7  1  0
  9 14  1  0
 10 18  1  0
 10 20  1  0
 11 17  1  0
 11 13  1  0
 12 18  1  0
 13 12  1  0
 14 13  2  0
 15  9  2  0
 16 15  1  0
 16 11  2  0
 17 10  1  0
 18  8  1  0
 20 22  2  0
 21 20  1  0
 23 21  1  0
 24 33  2  0
 24 29  1  0
 25 21  1  0
 25 29  1  0
 26 25  1  0
 27 28  1  0
 27 26  1  0
 28 24  1  0
 29 30  2  0
 30 31  1  0
 32 31  2  0
 33 32  1  0
 34  8  1  0
 34 35  1  0
 34 44  1  0
 35 38  1  0
 36 40  1  0
 36 35  1  0
 37 36  2  0
 40 39  1  0
 42 40  1  0
 42 43  1  0
 42 41  1  0
 44 47  1  1
 44 45  1  0
 46 44  1  0
 48  1  1  0
 48 50  1  0
 49 50  1  0
 49 54  1  0
 50 52  1  0
 51 49  2  0
 54 53  1  0
 55 63  1  0
 56 61  1  0
 57 58  1  0
 57 56  1  0
 59 58  1  0
 59 68  1  0
 59 60  1  0
 61 55  1  0
 61 60  1  0
 62 55  2  0
 63 64  1  0
 63 54  1  0
 65 66  2  0
 66 85  1  0
 67 66  1  0
 67 70  1  0
 68 69  1  0
 68 65  1  0
 69 67  2  0
 70 71  1  0
 71 72  2  0
 73 76  1  0
 73 72  1  0
 74 73  2  0
 75 74  1  0
 75 70  2  0
 76 77  1  0
 77 78  1  0
 78 79  2  0
 80 79  1  0
 80 84  1  0
 81 80  2  0
 82 77  2  0
 82 81  1  0
 83 82  1  0
 85 86  1  0
 86 89  1  0
 86 88  1  0
 87 85  2  0
 90 91  1  0
 90 65  1  0
 92 90  1  0
M  ISO  4   6 101   7 101  55 100  63 100
M  END
>  <TORSDO>  (5) 
F 22

>  <SCORE>  (5) 
-12.903

>  <name>  (5) 
4

>  <ligand_id>  (5) 
4

>  <original_smiles>  (5) 
[H]c1c([H])c([H])c2c(c1[H])C([H])([H])C([H])([H])C([H])([H])C2([H])N([H])C(=O)C1([H])N(C(=O)C([H])(N([H])C(=O)C([H])(N([H])C([H])([H])[H])C([H])([H])[H])C(C([H])([H])[H])(C([H])([H])[H])C([H])([H])[H])C([H])([H])c2c([H])c(OC([H])([H])C([H])([H])[N+]([H])([H])C([H])([H])C([H])([H])N([H])C(=O)C([H])(N([H])C(=O)N3C([H])([H])C([H])([H])C([H])([H])C([H])(n4nc(-c5c([H])c([H])c(Oc6c([H])c([H])c(F)c([H])c6F)c([H])c5[H])c(C(=O)N([H])[H])c4N([H])[H])C3([H])[H])C([H])([H])[H])c([H])c([H])c2C1([H])[H]

>  <smiles>  (5) 
[H]c1c([H])c([H])c2c(c1[H])C([H])([H])C([H])([H])C([H])([H])C2([H])N([H])C(=O)C1([H])N(C(=O)C([H])(N([H])C(=O)C([H])(N([H])C([H])([H])[H])C([H])([H])[H])C(C([H])([H])[H])(C([H])([H])[H])C([H])([H])[H])C([H])([H])c2c([H])c(OC([H])([H])C([H])([H])[N+]([H])([H])C([H])([H])C([H])([H])N([H])C(=O)C([H])(N([H])C(=O)N3C([H])([H])C([H])([H])C([H])([H])C([H])(n4nc(-c5c([H])c([H])c(Oc6c([H])c([H])c(F)c([H])c6F)c([H])c5[H])c(C(=O)N([H])[H])c4N([H])[H])C3([H])[H])C([H])([H])[H])c([H])c([H])c2C1([H])[H]

$$$$
5:0:0
     RDKit          3D

 96103  0  0  1  0  0  0  0  0999 V2000
  -26.7780  -21.2650   19.2780 C   0  0  0  0  0  2  0  0  0  0  0  0
  -26.3870  -22.6300   18.8700 N   0  0  0  0  0  4  0  0  0  0  0  0
  -26.3320  -23.2110   19.6900 H   0  0  0  0  0  0  0  0  0  0  0  0
  -25.4620  -22.5840   18.4720 H   0  0  0  0  0  0  0  0  0  0  0  0
  -27.2920  -23.2370   17.8680 C   0  0  0  0  0  2  0  0  0  0  0  0
  -27.5540  -24.7270   18.1380 C   0  0  0  0  0  2  0  0  0  0  0  0
  -28.6290  -25.3010   17.1950 C   0  0  0  0  0  2  0  0  0  0  0  0
  -29.1600  -26.6950   17.5820 C   0  0  0  0  0  2  0  0  0  0  0  0
  -28.3750  -27.7160   16.9760 O   0  0  0  0  0  0  0  0  0  0  0  0
  -25.5230  -29.1410   23.3510 C   0  0  0  0  0  0  0  0  0  0  0  0
  -27.2920  -28.1290   17.7070 C   0  0  0  0  0  0  0  0  0  0  0  0
  -23.9580  -29.1210   21.4350 C   0  0  0  0  0  3  0  0  0  0  0  0
  -25.0380  -29.0410   19.1270 C   0  0  0  0  0  0  0  0  0  0  0  0
  -26.4250  -29.7010   21.1000 C   0  0  0  0  0  2  0  0  0  0  0  0
  -26.3090  -29.1140   19.7100 C   0  0  0  0  0  0  0  0  0  0  0  0
  -27.4420  -28.6510   19.0080 C   0  0  0  0  0  3  0  0  0  0  0  0
  -26.0150  -28.0830   17.1180 C   0  0  0  0  0  3  0  0  0  0  0  0
  -24.8820  -28.5210   17.8290 C   0  0  0  0  0  3  0  0  0  0  0  0
  -23.8780  -29.5560   19.9470 C   0  0  0  0  0  2  0  0  0  0  0  0
  -25.3310  -29.2930   22.0110 N   0  0  0  0  0  0  0  0  0  0  0  0
  -24.5730  -28.9050   24.1110 O   0  0  0  0  0  0  0  0  0  0  0  0
  -23.4210  -27.6780   21.5540 C   0  0  0  0  0  0  0  0  0  0  0  0
  -22.1160  -27.5030   21.2940 N   0  0  0  0  0  0  0  0  0  0  0  0
  -24.1750  -26.7450   21.8450 O   0  0  0  0  0  0  0  0  0  0  0  0
  -21.5630  -28.3190   21.0730 H   0  0  0  0  0  0  0  0  0  0  0  0
  -18.9480  -25.9400   20.5410 C   0  0  0  0  0  0  0  0  0  0  0  0
  -21.3990  -26.2270   21.3070 C   0  0  0  0  0  3  0  0  0  0  0  0
  -21.7770  -25.3630   20.0820 C   0  0  0  0  0  2  0  0  0  0  0  0
  -20.8310  -25.5550   18.8940 C   0  0  0  0  0  2  0  0  0  0  0  0
  -19.3940  -25.2020   19.2900 C   0  0  0  0  0  2  0  0  0  0  0  0
  -19.8910  -26.4340   21.4810 C   0  0  0  0  0  0  0  0  0  0  0  0
  -19.4250  -27.1440   22.6080 C   0  0  0  0  0  3  0  0  0  0  0  0
  -18.0490  -27.3580   22.8080 C   0  0  0  0  0  3  0  0  0  0  0  0
  -17.1190  -26.8510   21.8830 C   0  0  0  0  0  3  0  0  0  0  0  0
  -17.5690  -26.1410   20.7560 C   0  0  0  0  0  3  0  0  0  0  0  0
  -26.9370  -29.2830   23.9960 C   0  0  0  0  0  3  0  0  0  0  0  0
  -27.4740  -27.9360   24.6180 C   0  0  1  0  0  0  0  0  0  0  0  0
  -26.4820  -27.2640   25.5940 C   0  0  0  0  0  1  0  0  0  0  0  0
  -27.8080  -26.9160   23.5040 C   0  0  0  0  0  1  0  0  0  0  0  0
  -28.7910  -28.2000   25.3860 C   0  0  0  0  0  1  0  0  0  0  0  0
  -26.8530  -30.3320   25.0210 N   0  0  0  0  0  0  0  0  0  0  0  0
  -27.3830  -31.5570   24.9000 C   0  0  0  0  0  0  0  0  0  0  0  0
  -28.0640  -31.8980   23.9310 O   0  0  0  0  0  0  0  0  0  0  0  0
  -26.2610  -30.1410   25.8150 H   0  0  0  0  0  0  0  0  0  0  0  0
  -26.0490  -33.5760   25.5850 C   0  0  0  0  0  1  0  0  0  0  0  0
  -27.1120  -32.5620   26.0360 C   0  0  0  0  0  3  0  0  0  0  0  0
  -29.2830  -32.4180   27.1750 C   0  0  0  0  0  1  0  0  0  0  0  0
  -28.3240  -33.2790   26.4870 N   0  0  0  0  0  0  0  0  0  0  0  0
  -28.0790  -34.0420   27.1110 H   0  0  0  0  0  0  0  0  0  0  0  0
  -28.2150  -21.2180   19.8400 C   0  0  0  0  0  2  0  0  0  0  0  0
  -30.1830  -20.0050   18.8310 C   0  0  0  0  0  3  0  0  0  0  0  0
  -28.9690  -19.9730   19.4120 C   0  0  0  0  0  3  0  0  0  0  0  0
  -30.8730  -18.7870   18.4460 C   0  0  0  0  0  0  0  0  0  0  0  0
  -32.1940  -18.9020   18.6250 N   0  0  0  0  0  0  0  0  0  0  0  0
  -30.3360  -17.7590   18.0250 O   0  0  0  0  0  0  0  0  0  0  0  0
  -32.5360  -19.7910   18.9660 H   0  0  0  0  0  0  0  0  0  0  0  0
  -33.1840  -17.8460   18.4720 C   0  0  0  0  0  2  0  0  0  0  0  0
  -32.6060  -16.5810   17.8170 C   0  0  0  0  0  2  0  0  0  0  0  0
  -32.8700  -14.6610   19.3510 C   0  0  0  0  0  0  0  0  0  0  0  0
  -32.9990  -12.9130   21.0760 C   0  0  0  0  0  2  0  0  0  0  0  0
  -32.4710  -11.5580   20.5670 C   0  0  0  0  0  2  0  0  0  0  0  0
  -30.9480  -11.4600   20.7630 C   0  0  0  0  0  2  0  0  0  0  0  0
  -30.1940  -12.7050   20.2270 C   0  0  0  0  0  3  0  0  0  0  0  0
  -30.8530  -14.0100   20.7290 C   0  0  0  0  0  2  0  0  0  0  0  0
  -32.2850  -13.9840   20.3710 N   0  0  0  0  0  0  0  0  0  0  0  0
  -34.0120  -14.4350   18.9430 O   0  0  0  0  0  0  0  0  0  0  0  0
  -32.1500  -15.6600   18.8440 N   0  0  0  0  0  0  0  0  0  0  0  0
  -31.2020  -15.7710   19.1750 H   0  0  0  0  0  0  0  0  0  0  0  0
  -27.8490  -13.6800   20.6720 C   0  0  0  0  0  0  0  0  0  0  0  0
  -26.6460  -13.0840   20.9340 C   0  0  0  0  0  0  0  0  0  0  0  0
  -26.9040  -11.6810   20.9860 C   0  0  0  0  0  0  0  0  0  0  0  0
  -28.7720  -12.6500   20.5720 N   0  0  0  0  0  0  0  0  0  0  0  0
  -28.1990  -11.4440   20.8170 N   0  0  0  0  0  0  0  0  0  0  0  0
  -25.9840  -10.5460   21.1320 C   0  0  0  0  0  0  0  0  0  0  0  0
  -25.9030   -9.8110   22.3360 C   0  0  0  0  0  3  0  0  0  0  0  0
  -25.0020   -8.7320   22.4570 C   0  0  0  0  0  3  0  0  0  0  0  0
  -24.1600   -8.3850   21.3710 C   0  0  0  0  0  0  0  0  0  0  0  0
  -24.2610   -9.1060   20.1680 C   0  0  0  0  0  3  0  0  0  0  0  0
  -25.1660  -10.1740   20.0470 C   0  0  0  0  0  3  0  0  0  0  0  0
  -23.2680   -7.3400   21.3900 O   0  0  0  0  0  0  0  0  0  0  0  0
  -22.4970   -7.0710   22.4920 C   0  0  0  0  0  0  0  0  0  0  0  0
  -21.5160   -7.9770   22.9550 C   0  0  0  0  0  3  0  0  0  0  0  0
  -20.6970   -7.6270   24.0480 C   0  0  0  0  0  3  0  0  0  0  0  0
  -20.8490   -6.3740   24.6690 C   0  0  0  0  0  0  0  0  0  0  0  0
  -21.8230   -5.4710   24.2060 C   0  0  0  0  0  3  0  0  0  0  0  0
  -22.6410   -5.8160   23.1180 C   0  0  0  0  0  0  0  0  0  0  0  0
  -23.5600   -4.9340   22.6610 F   0  0  0  0  0  0  0  0  0  0  0  0
  -20.0560   -6.0350   25.7120 F   0  0  0  0  0  0  0  0  0  0  0  0
  -25.3130  -13.7660   21.0490 C   0  0  0  0  0  0  0  0  0  0  0  0
  -24.4230  -13.2460   21.8860 N   0  0  0  0  0  0  0  0  0  0  0  0
  -25.0720  -14.7980   20.4250 O   0  0  0  0  0  0  0  0  0  0  0  0
  -24.6220  -12.4070   22.4100 H   0  0  0  0  0  0  0  0  0  0  0  0
  -23.5200  -13.6890   21.9960 H   0  0  0  0  0  0  0  0  0  0  0  0
  -28.2330  -15.0070   20.4960 N   0  0  0  0  0  0  0  0  0  0  0  0
  -27.5730  -15.7680   20.6070 H   0  0  0  0  0  0  0  0  0  0  0  0
  -29.1990  -15.3060   20.5250 H   0  0  0  0  0  0  0  0  0  0  0  0
  1 50  1  0
  2  1  1  0
  2  3  1  0
  4  2  1  0
  5  6  1  0
  5  2  1  0
  7  8  1  0
  7  6  1  0
  9  8  1  0
  9 11  1  0
 10 21  2  0
 11 16  1  0
 12 22  1  0
 12 20  1  0
 13 15  1  0
 13 19  1  0
 14 20  1  0
 15 14  1  0
 16 15  2  0
 17 11  2  0
 17 18  1  0
 18 13  2  0
 19 12  1  0
 20 10  1  0
 22 24  2  0
 23 22  1  0
 25 23  1  0
 26 35  2  0
 26 31  1  0
 27 23  1  0
 27 31  1  0
 28 27  1  0
 29 30  1  0
 29 28  1  0
 30 26  1  0
 31 32  2  0
 32 33  1  0
 34 33  2  0
 35 34  1  0
 36 10  1  0
 36 37  1  0
 36 41  1  0
 37 40  1  1
 37 38  1  0
 39 37  1  0
 41 44  1  0
 42 41  1  0
 42 46  1  0
 43 42  2  0
 46 45  1  0
 46 48  1  0
 48 49  1  0
 48 47  1  0
 51 52  2  0
 52 50  1  0
 53 54  1  0
 53 51  1  0
 54 56  1  0
 55 53  2  0
 57 54  1  0
 58 57  1  0
 58 67  1  0
 59 65  1  0
 61 62  1  0
 61 60  1  0
 63 72  1  0
 63 64  1  0
 63 62  1  0
 65 64  1  0
 65 60  1  0
 66 59  2  0
 67 68  1  0
 67 59  1  0
 69 70  2  0
 70 71  1  0
 70 89  1  0
 71 74  1  0
 72 69  1  0
 72 73  1  0
 73 71  2  0
 74 75  1  0
 75 76  2  0
 77 80  1  0
 77 76  1  0
 78 77  2  0
 79 78  1  0
 79 74  2  0
 80 81  1  0
 81 82  2  0
 81 86  1  0
 82 83  1  0
 83 84  2  0
 84 88  1  0
 85 84  1  0
 86 85  2  0
 87 86  1  0
 89 90  1  0
 90 93  1  0
 90 92  1  0
 91 89  2  0
 94 96  1  0
 94 95  1  0
 94 69  1  0
M  ISO  4   8 101   9 101  59 100  67 100
M  END
>  <TORSDO>  (6) 
F 26

>  <SCORE>  (6) 
-6.308

>  <name>  (6) 
5

>  <ligand_id>  (6) 
5

>  <original_smiles>  (6) 
[H]C(C(=O)N([H])C([H])([H])C([H])([H])N([H])C(=O)N1C([H])([H])C([H])([H])C([H])([H])C([H])(n2nc(-c3c([H])c([H])c(Oc4c([H])c([H])c(F)c([H])c4F)c([H])c3[H])c(C(=O)N([H])[H])c2N([H])[H])C1([H])[H])=C([H])C([H])([H])C([H])([H])[N+]([H])([H])C([H])([H])C([H])([H])C([H])([H])C([H])([H])Oc1c([H])c([H])c2c(c1[H])C([H])([H])N(C(=O)C([H])(N([H])C(=O)C([H])(N([H])C([H])([H])[H])C([H])([H])[H])C(C([H])([H])[H])(C([H])([H])[H])C([H])([H])[H])C([H])(C(=O)N([H])C1([H])c3c([H])c([H])c([H])c([H])c3C([H])([H])C([H])([H])C1([H])[H])C2([H])[H]

>  <smiles>  (6) 
[H]C(C(=O)N([H])C([H])([H])C([H])([H])N([H])C(=O)N1C([H])([H])C([H])([H])C([H])([H])C([H])(n2nc(-c3c([H])c([H])c(Oc4c([H])c([H])c(F)c([H])c4F)c([H])c3[H])c(C(=O)N([H])[H])c2N([H])[H])C1([H])[H])=C([H])C([H])([H])C([H])([H])[N+]([H])([H])C([H])([H])C([H])([H])C([H])([H])C([H])([H])Oc1c([H])c([H])c2c(c1[H])C([H])([H])N(C(=O)C([H])(N([H])C(=O)C([H])(N([H])C([H])([H])[H])C([H])([H])[H])C(C([H])([H])[H])(C([H])([H])[H])C([H])([H])[H])C([H])(C(=O)N([H])C1([H])c3c([H])c([H])c([H])c([H])c3C([H])([H])C([H])([H])C1([H])[H])C2([H])[H]

$$$$
6:0:0
     RDKit          3D

 94101  0  0  1  0  0  0  0  0999 V2000
  -29.6420  -20.9360   21.3980 C   0  0  0  0  0  2  0  0  0  0  0  0
  -30.6720  -19.9460   21.1280 N   0  0  0  0  0  0  0  0  0  0  0  0
  -31.5750  -20.4220   21.0650 H   0  0  0  0  0  0  0  0  0  0  0  0
  -30.7350  -18.9250   22.1710 C   0  0  0  0  0  2  0  0  0  0  0  0
  -31.8620  -17.9180   21.9090 C   0  0  0  0  0  2  0  0  0  0  0  0
  -31.8940  -16.8860   22.9590 N   0  0  0  0  0  4  0  0  0  0  0  0
  -32.0680  -17.3110   23.8560 H   0  0  0  0  0  0  0  0  0  0  0  0
  -30.9930  -16.4390   22.9960 H   0  0  0  0  0  0  0  0  0  0  0  0
  -32.8850  -15.8220   22.7330 C   0  0  0  0  0  2  0  0  0  0  0  0
  -32.2320  -14.4410   22.8820 C   0  0  0  0  0  2  0  0  0  0  0  0
  -30.8940  -14.1770   20.8090 C   0  0  0  0  0  0  0  0  0  0  0  0
  -30.3960  -12.2840   19.3380 C   0  0  0  0  0  2  0  0  0  0  0  0
  -29.4510  -12.5440   18.1610 C   0  0  0  0  0  2  0  0  0  0  0  0
  -27.9900  -12.3770   18.6060 C   0  0  0  0  0  2  0  0  0  0  0  0
  -27.6620  -13.2040   19.8750 C   0  0  0  0  0  3  0  0  0  0  0  0
  -28.7060  -12.9650   20.9880 C   0  0  0  0  0  2  0  0  0  0  0  0
  -30.0550  -13.1890   20.4400 N   0  0  0  0  0  0  0  0  0  0  0  0
  -31.7480  -14.6780   20.0730 O   0  0  0  0  0  0  0  0  0  0  0  0
  -30.9730  -14.2790   22.1430 N   0  0  0  0  0  0  0  0  0  0  0  0
  -30.2410  -13.7850   22.6350 H   0  0  0  0  0  0  0  0  0  0  0  0
  -25.2580  -13.8170   20.5690 C   0  0  0  0  0  0  0  0  0  0  0  0
  -24.1830  -13.0440   20.9180 C   0  0  0  0  0  0  0  0  0  0  0  0
  -24.6370  -11.6910   20.8720 C   0  0  0  0  0  0  0  0  0  0  0  0
  -26.3030  -12.9340   20.3400 N   0  0  0  0  0  0  0  0  0  0  0  0
  -25.9300  -11.6490   20.5780 N   0  0  0  0  0  0  0  0  0  0  0  0
  -23.9040  -10.4290   21.0390 C   0  0  0  0  0  0  0  0  0  0  0  0
  -24.3590   -9.4210   21.9180 C   0  0  0  0  0  3  0  0  0  0  0  0
  -23.6280   -8.2240   22.0750 C   0  0  0  0  0  3  0  0  0  0  0  0
  -22.4260   -8.0270   21.3540 C   0  0  0  0  0  0  0  0  0  0  0  0
  -21.9890   -9.0250   20.4640 C   0  0  0  0  0  3  0  0  0  0  0  0
  -22.7210  -10.2130   20.3050 C   0  0  0  0  0  3  0  0  0  0  0  0
  -21.6630   -6.8870   21.4240 O   0  0  0  0  0  0  0  0  0  0  0  0
  -21.6850   -6.0730   22.5280 C   0  0  0  0  0  0  0  0  0  0  0  0
  -21.4020   -6.5640   23.8220 C   0  0  0  0  0  3  0  0  0  0  0  0
  -21.3650   -5.6800   24.9180 C   0  0  0  0  0  3  0  0  0  0  0  0
  -21.6040   -4.3050   24.7230 C   0  0  0  0  0  0  0  0  0  0  0  0
  -21.8810   -3.8150   23.4350 C   0  0  0  0  0  3  0  0  0  0  0  0
  -21.9190   -4.6960   22.3410 C   0  0  0  0  0  0  0  0  0  0  0  0
  -22.1660   -4.2140   21.0980 F   0  0  0  0  0  0  0  0  0  0  0  0
  -21.5620   -3.4540   25.7740 F   0  0  0  0  0  0  0  0  0  0  0  0
  -22.7850  -13.5240   21.1850 C   0  0  0  0  0  0  0  0  0  0  0  0
  -22.0490  -12.8230   22.0400 N   0  0  0  0  0  0  0  0  0  0  0  0
  -22.3540  -14.5560   20.6720 O   0  0  0  0  0  0  0  0  0  0  0  0
  -22.4090  -11.9870   22.4770 H   0  0  0  0  0  0  0  0  0  0  0  0
  -21.1110  -13.1270   22.2610 H   0  0  0  0  0  0  0  0  0  0  0  0
  -25.4330  -15.1890   20.4080 N   0  0  0  0  0  0  0  0  0  0  0  0
  -24.6710  -15.8520   20.5120 H   0  0  0  0  0  0  0  0  0  0  0  0
  -26.2970  -15.6230   20.1070 H   0  0  0  0  0  0  0  0  0  0  0  0
  -29.7340  -22.1070   20.4180 C   0  0  0  0  0  2  0  0  0  0  0  0
  -28.9470  -23.2150   20.9310 N   0  0  0  0  0  0  0  0  0  0  0  0
  -29.2550  -23.4240   21.8820 H   0  0  0  0  0  0  0  0  0  0  0  0
  -29.0370  -24.4320   20.1290 C   0  0  0  0  0  2  0  0  0  0  0  0
  -28.3460  -25.5850   20.8610 C   0  0  0  0  0  2  0  0  0  0  0  0
  -28.3980  -26.7620   20.0660 O   0  0  0  0  0  0  0  0  0  0  0  0
  -24.6100  -31.8710   23.2130 C   0  0  0  0  0  0  0  0  0  0  0  0
  -27.2350  -27.4820   20.0830 C   0  0  0  0  0  0  0  0  0  0  0  0
  -23.3960  -30.4940   21.5530 C   0  0  0  0  0  3  0  0  0  0  0  0
  -24.8430  -28.9650   20.1160 C   0  0  0  0  0  0  0  0  0  0  0  0
  -25.9200  -30.8500   21.3590 C   0  0  0  0  0  2  0  0  0  0  0  0
  -26.0000  -29.4880   20.7070 C   0  0  0  0  0  0  0  0  0  0  0  0
  -27.2030  -28.7530   20.6880 C   0  0  0  0  0  3  0  0  0  0  0  0
  -26.0660  -26.9590   19.4930 C   0  0  0  0  0  3  0  0  0  0  0  0
  -24.8670  -27.6960   19.5090 C   0  0  0  0  0  3  0  0  0  0  0  0
  -23.6010  -29.8240   20.1680 C   0  0  0  0  0  2  0  0  0  0  0  0
  -24.6600  -31.0850   22.1010 N   0  0  0  0  0  0  0  0  0  0  0  0
  -23.5310  -32.1440   23.7560 O   0  0  0  0  0  0  0  0  0  0  0  0
  -22.7380  -29.4670   22.5010 C   0  0  0  0  0  0  0  0  0  0  0  0
  -21.4120  -29.3020   22.3750 N   0  0  0  0  0  0  0  0  0  0  0  0
  -23.4170  -28.8220   23.3040 O   0  0  0  0  0  0  0  0  0  0  0  0
  -20.9270  -29.8730   21.6960 H   0  0  0  0  0  0  0  0  0  0  0  0
  -18.0270  -28.1370   22.8500 C   0  0  0  0  0  0  0  0  0  0  0  0
  -20.5850  -28.3650   23.1340 C   0  0  0  0  0  3  0  0  0  0  0  0
  -20.6770  -26.9390   22.5420 C   0  0  0  0  0  2  0  0  0  0  0  0
  -19.5750  -26.6390   21.5210 C   0  0  0  0  0  2  0  0  0  0  0  0
  -18.1920  -26.7920   22.1620 C   0  0  0  0  0  2  0  0  0  0  0  0
  -19.1510  -28.8820   23.2920 C   0  0  0  0  0  0  0  0  0  0  0  0
  -18.9440  -30.1440   23.8920 C   0  0  0  0  0  3  0  0  0  0  0  0
  -17.6440  -30.6580   24.0560 C   0  0  0  0  0  3  0  0  0  0  0  0
  -16.5340  -29.9080   23.6320 C   0  0  0  0  0  3  0  0  0  0  0  0
  -16.7250  -28.6500   23.0340 C   0  0  0  0  0  3  0  0  0  0  0  0
  -25.9020  -32.4840   23.8410 C   0  0  0  0  0  3  0  0  0  0  0  0
  -26.4470  -31.6600   25.0720 C   0  0  1  0  0  0  0  0  0  0  0  0
  -25.3750  -31.3680   26.1480 C   0  0  0  0  0  1  0  0  0  0  0  0
  -27.0280  -30.3050   24.6050 C   0  0  0  0  0  1  0  0  0  0  0  0
  -27.6070  -32.4290   25.7470 C   0  0  0  0  0  1  0  0  0  0  0  0
  -25.5890  -33.8640   24.2350 N   0  0  0  0  0  0  0  0  0  0  0  0
  -25.9030  -34.9490   23.5140 C   0  0  0  0  0  0  0  0  0  0  0  0
  -26.5580  -34.8930   22.4690 O   0  0  0  0  0  0  0  0  0  0  0  0
  -25.0050  -33.9800   25.0510 H   0  0  0  0  0  0  0  0  0  0  0  0
  -24.1490  -36.7320   23.2640 C   0  0  0  0  0  1  0  0  0  0  0  0
  -25.4100  -36.3120   24.0340 C   0  0  0  0  0  3  0  0  0  0  0  0
  -27.5580  -37.1810   24.8460 C   0  0  0  0  0  1  0  0  0  0  0  0
  -26.4290  -37.3800   23.9400 N   0  0  0  0  0  0  0  0  0  0  0  0
  -26.0190  -38.2880   24.1420 H   0  0  0  0  0  0  0  0  0  0  0  0
  2  1  1  0
  2  4  1  0
  3  2  1  0
  5  4  1  0
  5  6  1  0
  6  8  1  0
  6  7  1  0
  9 10  1  0
  9  6  1  0
 11 19  1  0
 12 17  1  0
 13 14  1  0
 13 12  1  0
 15 14  1  0
 15 24  1  0
 15 16  1  0
 17 11  1  0
 17 16  1  0
 18 11  2  0
 19 20  1  0
 19 10  1  0
 21 22  2  0
 22 41  1  0
 23 22  1  0
 23 26  1  0
 24 21  1  0
 24 25  1  0
 25 23  2  0
 26 27  1  0
 27 28  2  0
 29 32  1  0
 29 28  1  0
 30 29  2  0
 31 30  1  0
 31 26  2  0
 32 33  1  0
 33 34  1  0
 34 35  2  0
 36 35  1  0
 36 40  1  0
 37 36  2  0
 38 33  2  0
 38 37  1  0
 39 38  1  0
 41 42  1  0
 42 45  1  0
 42 44  1  0
 43 41  2  0
 46 47  1  0
 46 21  1  0
 48 46  1  0
 49 50  1  0
 49  1  1  0
 50 51  1  0
 52 53  1  0
 52 50  1  0
 54 56  1  0
 54 53  1  0
 55 66  2  0
 56 61  1  0
 57 65  1  0
 57 67  1  0
 58 64  1  0
 58 60  1  0
 59 65  1  0
 60 59  1  0
 61 60  2  0
 62 63  1  0
 62 56  2  0
 63 58  2  0
 64 57  1  0
 65 55  1  0
 67 69  2  0
 68 67  1  0
 70 68  1  0
 71 80  2  0
 71 76  1  0
 72 68  1  0
 72 76  1  0
 73 72  1  0
 74 75  1  0
 74 73  1  0
 75 71  1  0
 76 77  2  0
 77 78  1  0
 79 78  2  0
 80 79  1  0
 81 55  1  0
 81 86  1  0
 81 82  1  0
 82 85  1  1
 82 83  1  0
 84 82  1  0
 86 89  1  0
 87 91  1  0
 87 86  1  0
 88 87  2  0
 91 90  1  0
 93 91  1  0
 93 94  1  0
 93 92  1  0
M  ISO  4  11 100  19 100  53 101  54 101
M  END
>  <TORSDO>  (7) 
F 26

>  <SCORE>  (7) 
-2.703

>  <name>  (7) 
6

>  <ligand_id>  (7) 
6

>  <original_smiles>  (7) 
[H]c1c([H])c([H])c2c(c1[H])C([H])([H])C([H])([H])C([H])([H])C2([H])N([H])C(=O)C1([H])N(C(=O)C([H])(N([H])C(=O)C([H])(N([H])C([H])([H])[H])C([H])([H])[H])C(C([H])([H])[H])(C([H])([H])[H])C([H])([H])[H])C([H])([H])c2c([H])c(OC([H])([H])C([H])([H])N([H])C([H])([H])C([H])([H])N([H])C([H])([H])C([H])([H])[N+]([H])([H])C([H])([H])C([H])([H])N([H])C(=O)N3C([H])([H])C([H])([H])C([H])([H])C([H])(n4nc(-c5c([H])c([H])c(Oc6c([H])c([H])c(F)c([H])c6F)c([H])c5[H])c(C(=O)N([H])[H])c4N([H])[H])C3([H])[H])c([H])c([H])c2C1([H])[H]

>  <smiles>  (7) 
[H]c1c([H])c([H])c2c(c1[H])C([H])([H])C([H])([H])C([H])([H])C2([H])N([H])C(=O)C1([H])N(C(=O)C([H])(N([H])C(=O)C([H])(N([H])C([H])([H])[H])C([H])([H])[H])C(C([H])([H])[H])(C([H])([H])[H])C([H])([H])[H])C([H])([H])c2c([H])c(OC([H])([H])C([H])([H])N([H])C([H])([H])C([H])([H])N([H])C([H])([H])C([H])([H])[N+]([H])([H])C([H])([H])C([H])([H])N([H])C(=O)N3C([H])([H])C([H])([H])C([H])([H])C([H])(n4nc(-c5c([H])c([H])c(Oc6c([H])c([H])c(F)c([H])c6F)c([H])c5[H])c(C(=O)N([H])[H])c4N([H])[H])C3([H])[H])c([H])c([H])c2C1([H])[H]

$$$$
7:0:0
     RDKit          3D

 99106  0  0  1  0  0  0  0  0999 V2000
  -30.9810  -20.8060   19.3800 C   0  0  0  0  0  2  0  0  0  0  0  0
  -30.7190  -22.0010   20.2160 N   0  0  0  0  0  0  0  0  0  0  0  0
  -31.2140  -22.8010   19.8180 H   0  0  0  0  0  0  0  0  0  0  0  0
  -29.3280  -22.4300   20.5010 C   0  0  0  0  0  2  0  0  0  0  0  0
  -28.6800  -23.3380   19.4250 C   0  0  0  0  0  2  0  0  0  0  0  0
  -28.7720  -24.7760   19.7150 N   0  0  0  0  0  0  0  0  0  0  0  0
  -28.4970  -24.9800   20.6790 H   0  0  0  0  0  0  0  0  0  0  0  0
  -30.0740  -25.3960   19.4870 C   0  0  0  0  0  2  0  0  0  0  0  0
  -29.9890  -26.9310   19.6090 C   0  0  0  0  0  2  0  0  0  0  0  0
  -29.3870  -27.2990   20.8540 O   0  0  0  0  0  0  0  0  0  0  0  0
  -24.9460  -32.0870   23.7150 C   0  0  0  0  0  0  0  0  0  0  0  0
  -28.1480  -27.8960   20.7910 C   0  0  0  0  0  0  0  0  0  0  0  0
  -23.9830  -30.6440   21.9470 C   0  0  0  0  0  3  0  0  0  0  0  0
  -25.6500  -29.2070   20.6590 C   0  0  0  0  0  0  0  0  0  0  0  0
  -26.4910  -31.1390   22.0070 C   0  0  0  0  0  2  0  0  0  0  0  0
  -26.7110  -29.7910   21.3620 C   0  0  0  0  0  0  0  0  0  0  0  0
  -27.9550  -29.1280   21.4490 C   0  0  0  0  0  3  0  0  0  0  0  0
  -27.0670  -27.3120   20.0940 C   0  0  0  0  0  3  0  0  0  0  0  0
  -25.8150  -27.9540   20.0430 C   0  0  0  0  0  3  0  0  0  0  0  0
  -24.3610  -29.9900   20.5910 C   0  0  0  0  0  2  0  0  0  0  0  0
  -25.1500  -31.3090   22.6140 N   0  0  0  0  0  0  0  0  0  0  0  0
  -23.8060  -32.2900   24.1500 O   0  0  0  0  0  0  0  0  0  0  0  0
  -23.3040  -29.5790   22.8320 C   0  0  0  0  0  0  0  0  0  0  0  0
  -21.9980  -29.3640   22.6070 N   0  0  0  0  0  0  0  0  0  0  0  0
  -23.9470  -28.9470   23.6730 O   0  0  0  0  0  0  0  0  0  0  0  0
  -21.5400  -29.9220   21.9000 H   0  0  0  0  0  0  0  0  0  0  0  0
  -18.6170  -28.1230   22.8980 C   0  0  0  0  0  0  0  0  0  0  0  0
  -21.1580  -28.3790   23.2880 C   0  0  0  0  0  3  0  0  0  0  0  0
  -21.2960  -26.9850   22.6310 C   0  0  0  0  0  2  0  0  0  0  0  0
  -20.2360  -26.7180   21.5570 C   0  0  0  0  0  2  0  0  0  0  0  0
  -18.8310  -26.8170   22.1550 C   0  0  0  0  0  2  0  0  0  0  0  0
  -19.7120  -28.8650   23.4160 C   0  0  0  0  0  0  0  0  0  0  0  0
  -19.4600  -30.0920   24.0680 C   0  0  0  0  0  3  0  0  0  0  0  0
  -18.1450  -30.5740   24.2150 C   0  0  0  0  0  3  0  0  0  0  0  0
  -17.0640  -29.8260   23.7170 C   0  0  0  0  0  3  0  0  0  0  0  0
  -17.3010  -28.6040   23.0620 C   0  0  0  0  0  3  0  0  0  0  0  0
  -26.1330  -32.7740   24.4610 C   0  0  0  0  0  3  0  0  0  0  0  0
  -26.5600  -32.0200   25.7800 C   0  0  1  0  0  0  0  0  0  0  0  0
  -25.3780  -31.6870   26.7190 C   0  0  0  0  0  1  0  0  0  0  0  0
  -27.2800  -30.6930   25.4470 C   0  0  0  0  0  1  0  0  0  0  0  0
  -27.5670  -32.8850   26.5750 C   0  0  0  0  0  1  0  0  0  0  0  0
  -25.7270  -34.1540   24.7590 N   0  0  0  0  0  0  0  0  0  0  0  0
  -26.0790  -35.2240   24.0330 C   0  0  0  0  0  0  0  0  0  0  0  0
  -26.8500  -35.1580   23.0720 O   0  0  0  0  0  0  0  0  0  0  0  0
  -25.0520  -34.2770   25.4990 H   0  0  0  0  0  0  0  0  0  0  0  0
  -24.3050  -36.9290   23.5070 C   0  0  0  0  0  1  0  0  0  0  0  0
  -25.4790  -36.5840   24.4360 C   0  0  0  0  0  3  0  0  0  0  0  0
  -27.4850  -37.5660   25.4620 C   0  0  0  0  0  1  0  0  0  0  0  0
  -26.4650  -37.6880   24.4240 N   0  0  0  0  0  0  0  0  0  0  0  0
  -26.0000  -38.5850   24.5400 H   0  0  0  0  0  0  0  0  0  0  0  0
  -32.2300  -20.0430   19.9340 C   0  0  0  0  0  2  0  0  0  0  0  0
  -33.0980  -19.3380   18.9500 N   0  0  0  0  0  0  0  0  0  0  0  0
  -33.9370  -18.9970   19.4290 H   0  0  0  0  0  0  0  0  0  0  0  0
  -32.5810  -18.2690   18.0530 C   0  0  0  0  0  2  0  0  0  0  0  0
  -32.3700  -16.8440   18.6860 C   0  0  0  0  0  2  0  0  0  0  0  0
  -31.2470  -16.7780   19.6620 N   0  0  0  0  0  4  0  0  0  0  0  0
  -31.6340  -16.9160   20.5780 H   0  0  0  0  0  0  0  0  0  0  0  0
  -30.6280  -17.5350   19.4370 H   0  0  0  0  0  0  0  0  0  0  0  0
  -30.4260  -15.5340   19.6850 C   0  0  0  0  0  3  0  0  0  0  0  0
  -29.0920  -15.6260   20.5150 C   0  0  0  0  0  3  0  0  0  0  0  0
  -28.5140  -17.0100   20.9640 C   0  0  0  0  0  2  0  0  0  0  0  0
  -28.6000  -18.5410   18.9530 C   0  0  0  0  0  0  0  0  0  0  0  0
  -28.3090  -19.4510   16.6850 C   0  0  0  0  0  2  0  0  0  0  0  0
  -28.6810  -20.9370   16.5550 C   0  0  0  0  0  2  0  0  0  0  0  0
  -27.4260  -21.7850   16.7970 C   0  0  0  0  0  2  0  0  0  0  0  0
  -26.7760  -21.4510   18.1670 C   0  0  0  0  0  3  0  0  0  0  0  0
  -26.5740  -19.9170   18.3430 C   0  0  0  0  0  2  0  0  0  0  0  0
  -27.8220  -19.1880   18.0470 N   0  0  0  0  0  0  0  0  0  0  0  0
  -29.8120  -18.3870   18.8320 O   0  0  0  0  0  0  0  0  0  0  0  0
  -27.9400  -17.8700   19.9060 N   0  0  0  0  0  0  0  0  0  0  0  0
  -26.9390  -18.0070   19.8950 H   0  0  0  0  0  0  0  0  0  0  0  0
  -25.0100  -22.7900   19.4920 C   0  0  0  0  0  0  0  0  0  0  0  0
  -23.8700  -23.4330   19.1000 C   0  0  0  0  0  0  0  0  0  0  0  0
  -23.7410  -23.1900   17.6940 C   0  0  0  0  0  0  0  0  0  0  0  0
  -25.5300  -22.1930   18.3520 N   0  0  0  0  0  0  0  0  0  0  0  0
  -24.7200  -22.3970   17.2810 N   0  0  0  0  0  0  0  0  0  0  0  0
  -22.7790  -23.7110   16.7170 C   0  0  0  0  0  0  0  0  0  0  0  0
  -21.9950  -22.8470   15.9230 C   0  0  0  0  0  3  0  0  0  0  0  0
  -21.0630  -23.3660   15.0000 C   0  0  0  0  0  3  0  0  0  0  0  0
  -20.9010  -24.7620   14.8630 C   0  0  0  0  0  0  0  0  0  0  0  0
  -21.6960  -25.6200   15.6400 C   0  0  0  0  0  3  0  0  0  0  0  0
  -22.6290  -25.1040   16.5560 C   0  0  0  0  0  3  0  0  0  0  0  0
  -20.0330  -25.3590   13.9790 O   0  0  0  0  0  0  0  0  0  0  0  0
  -18.8730  -24.7450   13.5820 C   0  0  0  0  0  0  0  0  0  0  0  0
  -17.8850  -24.3440   14.5090 C   0  0  0  0  0  3  0  0  0  0  0  0
  -16.6800  -23.7770   14.0490 C   0  0  0  0  0  3  0  0  0  0  0  0
  -16.4550  -23.6260   12.6680 C   0  0  0  0  0  0  0  0  0  0  0  0
  -17.4390  -24.0220   11.7450 C   0  0  0  0  0  3  0  0  0  0  0  0
  -18.6460  -24.5820   12.2000 C   0  0  0  0  0  0  0  0  0  0  0  0
  -19.5790  -24.9890   11.3110 F   0  0  0  0  0  0  0  0  0  0  0  0
  -15.2970  -23.0850   12.2190 F   0  0  0  0  0  0  0  0  0  0  0  0
  -22.9820  -24.2930   19.9530 C   0  0  0  0  0  0  0  0  0  0  0  0
  -21.6830  -24.2950   19.6720 N   0  0  0  0  0  0  0  0  0  0  0  0
  -23.4300  -24.9220   20.9120 O   0  0  0  0  0  0  0  0  0  0  0  0
  -21.3150  -23.7640   18.8970 H   0  0  0  0  0  0  0  0  0  0  0  0
  -21.0400  -24.8170   20.2480 H   0  0  0  0  0  0  0  0  0  0  0  0
  -25.6730  -22.6840   20.7110 N   0  0  0  0  0  0  0  0  0  0  0  0
  -25.3380  -23.1290   21.5570 H   0  0  0  0  0  0  0  0  0  0  0  0
  -26.5360  -22.1750   20.8380 H   0  0  0  0  0  0  0  0  0  0  0  0
  1 51  1  0
  1  2  1  0
  2  4  1  0
  3  2  1  0
  5  6  1  0
  5  4  1  0
  6  7  1  0
  8  9  1  0
  8  6  1  0
  9 10  1  0
 11 22  2  0
 12 10  1  0
 12 17  1  0
 13 21  1  0
 13 23  1  0
 14 16  1  0
 15 21  1  0
 16 17  2  0
 16 15  1  0
 18 12  2  0
 19 18  1  0
 19 14  2  0
 20 14  1  0
 20 13  1  0
 21 11  1  0
 23 25  2  0
 24 23  1  0
 26 24  1  0
 27 36  2  0
 27 32  1  0
 28 24  1  0
 28 32  1  0
 29 28  1  0
 30 31  1  0
 30 29  1  0
 31 27  1  0
 32 33  2  0
 33 34  1  0
 35 34  2  0
 36 35  1  0
 37 11  1  0
 37 42  1  0
 37 38  1  0
 38 41  1  1
 38 39  1  0
 40 38  1  0
 42 45  1  0
 43 47  1  0
 43 42  1  0
 44 43  2  0
 47 46  1  0
 49 47  1  0
 49 50  1  0
 49 48  1  0
 52 53  1  0
 52 51  1  0
 54 55  1  0
 54 52  1  0
 55 56  1  0
 56 59  1  0
 56 57  1  0
 58 56  1  0
 59 60  2  0
 60 61  1  0
 62 70  1  0
 63 68  1  0
 64 63  1  0
 64 65  1  0
 66 65  1  0
 66 67  1  0
 66 75  1  0
 68 67  1  0
 68 62  1  0
 69 62  2  0
 70 61  1  0
 71 70  1  0
 72 97  1  0
 73 72  2  0
 73 92  1  0
 74 73  1  0
 75 72  1  0
 76 74  2  0
 76 75  1  0
 77 74  1  0
 78 77  2  0
 79 78  1  0
 80 79  2  0
 80 81  1  0
 81 82  2  0
 82 77  1  0
 83 80  1  0
 84 83  1  0
 84 85  1  0
 86 85  2  0
 87 86  1  0
 88 89  1  0
 88 87  2  0
 89 84  2  0
 90 89  1  0
 91 87  1  0
 92 94  2  0
 93 92  1  0
 93 96  1  0
 95 93  1  0
 97 99  1  0
 97 98  1  0
M  ISO  4   9 101  10 101  62 100  70 100
M  END
>  <TORSDO>  (8) 
F 30

>  <SCORE>  (8) 
-6.528

>  <name>  (8) 
7

>  <ligand_id>  (8) 
7

>  <original_smiles>  (8) 
[H]c1c([H])c([H])c2c(c1[H])C([H])([H])C([H])([H])C([H])([H])C2([H])N([H])C(=O)C1([H])N(C(=O)C([H])(N([H])C(=O)C([H])(N([H])C([H])([H])[H])C([H])([H])[H])C(C([H])([H])[H])(C([H])([H])[H])C([H])([H])[H])C([H])([H])c2c([H])c(OC([H])([H])C([H])([H])N([H])C([H])([H])C([H])([H])N([H])C([H])([H])C([H])([H])N([H])C([H])([H])C([H])([H])[N+]([H])([H])C([H])([H])C([H])([H])C([H])([H])N([H])C(=O)N3C([H])([H])C([H])([H])C([H])([H])C([H])(n4nc(-c5c([H])c([H])c(Oc6c([H])c([H])c(F)c([H])c6F)c([H])c5[H])c(C(=O)N([H])[H])c4N([H])[H])C3([H])[H])c([H])c([H])c2C1([H])[H]

>  <smiles>  (8) 
[H]c1c([H])c([H])c2c(c1[H])C([H])([H])C([H])([H])C([H])([H])C2([H])N([H])C(=O)C1([H])N(C(=O)C([H])(N([H])C(=O)C([H])(N([H])C([H])([H])[H])C([H])([H])[H])C(C([H])([H])[H])(C([H])([H])[H])C([H])([H])[H])C([H])([H])c2c([H])c(OC([H])([H])C([H])([H])N([H])C([H])([H])C([H])([H])N([H])C([H])([H])C([H])([H])N([H])C([H])([H])C([H])([H])[N+]([H])([H])C([H])([H])C([H])([H])C([H])([H])N([H])C(=O)N3C([H])([H])C([H])([H])C([H])([H])C([H])(n4nc(-c5c([H])c([H])c(Oc6c([H])c([H])c(F)c([H])c6F)c([H])c5[H])c(C(=O)N([H])[H])c4N([H])[H])C3([H])[H])c([H])c([H])c2C1([H])[H]

$$$$
8:0:0
     RDKit          3D

 96103  0  0  1  0  0  0  0  0999 V2000
  -30.1320  -23.1100   15.3350 C   0  0  0  0  0  2  0  0  0  0  0  0
  -29.0880  -24.1420   15.5570 N   0  0  0  0  0  4  0  0  0  0  0  0
  -28.7040  -24.3310   14.6420 H   0  0  0  0  0  0  0  0  0  0  0  0
  -28.3240  -23.7880   16.1060 H   0  0  0  0  0  0  0  0  0  0  0  0
  -29.5420  -25.4630   16.0540 C   0  0  0  0  0  2  0  0  0  0  0  0
  -29.4090  -25.6260   17.5830 C   0  0  0  0  0  2  0  0  0  0  0  0
  -29.6420  -27.0770   18.0470 C   0  0  0  0  0  2  0  0  0  0  0  0
  -29.6180  -27.2410   19.5780 C   0  0  0  0  0  2  0  0  0  0  0  0
  -28.4300  -26.6710   20.1150 O   0  0  0  0  0  0  0  0  0  0  0  0
  -24.6310  -31.8510   23.2150 C   0  0  0  0  0  0  0  0  0  0  0  0
  -27.2970  -27.4450   20.1250 C   0  0  0  0  0  0  0  0  0  0  0  0
  -23.4270  -30.4420   21.5750 C   0  0  0  0  0  3  0  0  0  0  0  0
  -24.8860  -28.9100   20.1480 C   0  0  0  0  0  0  0  0  0  0  0  0
  -25.9500  -30.8140   21.3790 C   0  0  0  0  0  2  0  0  0  0  0  0
  -26.0400  -29.4500   20.7310 C   0  0  0  0  0  0  0  0  0  0  0  0
  -27.2500  -28.7250   20.7200 C   0  0  0  0  0  3  0  0  0  0  0  0
  -26.1230  -26.9000   19.5680 C   0  0  0  0  0  3  0  0  0  0  0  0
  -24.9180  -27.6300   19.5670 C   0  0  0  0  0  3  0  0  0  0  0  0
  -23.6330  -29.7570   20.1980 C   0  0  0  0  0  2  0  0  0  0  0  0
  -24.6870  -31.0500   22.1130 N   0  0  0  0  0  0  0  0  0  0  0  0
  -23.5520  -32.1200   23.7550 O   0  0  0  0  0  0  0  0  0  0  0  0
  -22.7820  -29.4200   22.5380 C   0  0  0  0  0  0  0  0  0  0  0  0
  -21.4560  -29.2440   22.4170 N   0  0  0  0  0  0  0  0  0  0  0  0
  -23.4670  -28.7920   23.3470 O   0  0  0  0  0  0  0  0  0  0  0  0
  -20.9660  -29.8010   21.7310 H   0  0  0  0  0  0  0  0  0  0  0  0
  -18.0770  -28.0810   22.9390 C   0  0  0  0  0  0  0  0  0  0  0  0
  -20.6380  -28.3090   23.1890 C   0  0  0  0  0  3  0  0  0  0  0  0
  -20.7230  -26.8800   22.6020 C   0  0  0  0  0  2  0  0  0  0  0  0
  -19.6080  -26.5780   21.5970 C   0  0  0  0  0  2  0  0  0  0  0  0
  -18.2330  -26.7340   22.2520 C   0  0  0  0  0  2  0  0  0  0  0  0
  -19.2060  -28.8280   23.3640 C   0  0  0  0  0  0  0  0  0  0  0  0
  -19.0080  -30.0920   23.9620 C   0  0  0  0  0  3  0  0  0  0  0  0
  -17.7100  -30.6050   24.1420 C   0  0  0  0  0  3  0  0  0  0  0  0
  -16.5940  -29.8540   23.7360 C   0  0  0  0  0  3  0  0  0  0  0  0
  -16.7780  -28.5920   23.1410 C   0  0  0  0  0  3  0  0  0  0  0  0
  -25.9200  -32.4800   23.8310 C   0  0  0  0  0  3  0  0  0  0  0  0
  -25.6100  -33.8750   24.1690 N   0  0  0  0  0  0  0  0  0  0  0  0
  -25.9380  -34.9320   23.4150 C   0  0  0  0  0  0  0  0  0  0  0  0
  -26.6060  -34.8350   22.3820 O   0  0  0  0  0  0  0  0  0  0  0  0
  -25.0170  -34.0220   24.9720 H   0  0  0  0  0  0  0  0  0  0  0  0
  -24.2030  -36.7140   23.0650 C   0  0  0  0  0  1  0  0  0  0  0  0
  -25.4450  -36.3160   23.8760 C   0  0  0  0  0  3  0  0  0  0  0  0
  -27.5770  -37.2040   24.7070 C   0  0  0  0  0  1  0  0  0  0  0  0
  -26.4730  -37.3730   23.7660 N   0  0  0  0  0  0  0  0  0  0  0  0
  -26.0640  -38.2910   23.9220 H   0  0  0  0  0  0  0  0  0  0  0  0
  -26.4430  -31.7020   25.0980 C   0  0  1  0  0  0  0  0  0  0  0  0
  -25.3540  -31.4490   26.1660 C   0  0  0  0  0  1  0  0  0  0  0  0
  -27.0340  -30.3320   24.6920 C   0  0  0  0  0  1  0  0  0  0  0  0
  -27.5930  -32.4950   25.7640 C   0  0  0  0  0  1  0  0  0  0  0  0
  -30.6870  -22.4450   16.6140 C   0  0  0  0  0  2  0  0  0  0  0  0
  -29.7000  -21.4910   17.3120 C   0  0  0  0  0  2  0  0  0  0  0  0
  -30.3220  -20.8990   18.4930 N   0  0  0  0  0  0  0  0  0  0  0  0
  -30.3710  -21.6020   19.2310 H   0  0  0  0  0  0  0  0  0  0  0  0
  -29.5430  -19.7540   18.9570 C   0  0  0  0  0  2  0  0  0  0  0  0
  -30.1630  -19.1130   20.2200 C   0  0  0  0  0  2  0  0  0  0  0  0
  -30.0510  -17.6380   20.1830 N   0  0  0  0  0  4  0  0  0  0  0  0
  -29.0750  -17.4240   20.0650 H   0  0  0  0  0  0  0  0  0  0  0  0
  -30.5500  -17.3030   19.3740 H   0  0  0  0  0  0  0  0  0  0  0  0
  -30.5570  -16.9410   21.3910 C   0  0  0  0  0  2  0  0  0  0  0  0
  -30.0240  -15.4930   21.5260 C   0  0  0  0  0  2  0  0  0  0  0  0
  -30.6750  -14.4340   20.6100 C   0  0  0  0  0  0  0  0  0  0  0  0
  -30.3940  -12.3370   19.3260 C   0  0  0  0  0  2  0  0  0  0  0  0
  -29.4580  -12.5940   18.1290 C   0  0  0  0  0  2  0  0  0  0  0  0
  -27.9750  -12.4610   18.5380 C   0  0  0  0  0  2  0  0  0  0  0  0
  -27.6400  -13.2530   19.8310 C   0  0  0  0  0  3  0  0  0  0  0  0
  -28.6820  -12.9410   20.9300 C   0  0  0  0  0  2  0  0  0  0  0  0
  -30.0130  -13.2670   20.3940 N   0  0  0  0  0  0  0  0  0  0  0  0
  -31.7460  -14.7000   20.0530 O   0  0  0  0  0  0  0  0  0  0  0  0
  -25.2230  -13.8740   20.4850 C   0  0  0  0  0  0  0  0  0  0  0  0
  -24.1510  -13.1050   20.8490 C   0  0  0  0  0  0  0  0  0  0  0  0
  -24.6150  -11.7540   20.8430 C   0  0  0  0  0  0  0  0  0  0  0  0
  -26.2760  -12.9900   20.2850 N   0  0  0  0  0  0  0  0  0  0  0  0
  -25.9080  -11.7120   20.5510 N   0  0  0  0  0  0  0  0  0  0  0  0
  -23.8860  -10.4940   21.0410 C   0  0  0  0  0  0  0  0  0  0  0  0
  -24.3210   -9.5300   21.9760 C   0  0  0  0  0  3  0  0  0  0  0  0
  -23.5940   -8.3340   22.1600 C   0  0  0  0  0  3  0  0  0  0  0  0
  -22.4180   -8.0960   21.4100 C   0  0  0  0  0  0  0  0  0  0  0  0
  -22.0030   -9.0490   20.4630 C   0  0  0  0  0  3  0  0  0  0  0  0
  -22.7300  -10.2360   20.2780 C   0  0  0  0  0  3  0  0  0  0  0  0
  -21.6620   -6.9520   21.5020 O   0  0  0  0  0  0  0  0  0  0  0  0
  -21.6350   -6.2010   22.6510 C   0  0  0  0  0  0  0  0  0  0  0  0
  -21.2490   -6.7510   23.8920 C   0  0  0  0  0  3  0  0  0  0  0  0
  -21.1650   -5.9270   25.0330 C   0  0  0  0  0  3  0  0  0  0  0  0
  -21.4590   -4.5540   24.9320 C   0  0  0  0  0  0  0  0  0  0  0  0
  -21.8400   -4.0030   23.6950 C   0  0  0  0  0  3  0  0  0  0  0  0
  -21.9240   -4.8250   22.5580 C   0  0  0  0  0  0  0  0  0  0  0  0
  -22.2710   -4.2860   21.3640 F   0  0  0  0  0  0  0  0  0  0  0  0
  -21.3710   -3.7590   26.0240 F   0  0  0  0  0  0  0  0  0  0  0  0
  -22.7500  -13.5840   21.0990 C   0  0  0  0  0  0  0  0  0  0  0  0
  -22.0130  -12.8980   21.9670 N   0  0  0  0  0  0  0  0  0  0  0  0
  -22.3190  -14.6030   20.5610 O   0  0  0  0  0  0  0  0  0  0  0  0
  -22.3760  -12.0710   22.4170 H   0  0  0  0  0  0  0  0  0  0  0  0
  -21.0740  -13.2050   22.1800 H   0  0  0  0  0  0  0  0  0  0  0  0
  -25.3820  -15.2440   20.2910 N   0  0  0  0  0  0  0  0  0  0  0  0
  -24.5930  -15.8780   20.3700 H   0  0  0  0  0  0  0  0  0  0  0  0
  -26.2150  -15.6920   19.9340 H   0  0  0  0  0  0  0  0  0  0  0  0
  1  2  1  0
  1 50  1  0
  2  5  1  0
  2  4  1  0
  3  2  1  0
  5  6  1  0
  6  7  1  0
  7  8  1  0
  8  9  1  0
  9 11  1  0
 10 21  2  0
 11 16  1  0
 12 20  1  0
 12 22  1  0
 13 19  1  0
 13 15  1  0
 14 20  1  0
 15 14  1  0
 16 15  2  0
 17 11  2  0
 18 17  1  0
 18 13  2  0
 19 12  1  0
 20 10  1  0
 22 24  2  0
 23 22  1  0
 25 23  1  0
 26 35  2  0
 26 31  1  0
 27 23  1  0
 27 31  1  0
 28 27  1  0
 29 30  1  0
 29 28  1  0
 30 26  1  0
 31 32  2  0
 32 33  1  0
 34 33  2  0
 35 34  1  0
 36 10  1  0
 36 37  1  0
 36 46  1  0
 37 40  1  0
 38 42  1  0
 38 37  1  0
 39 38  2  0
 42 41  1  0
 44 42  1  0
 44 45  1  0
 44 43  1  0
 46 49  1  1
 46 47  1  0
 48 46  1  0
 50 51  1  0
 51 52  1  0
 52 54  1  0
 52 53  1  0
 54 55  1  0
 56 55  1  0
 56 59  1  0
 57 56  1  0
 58 56  1  0
 59 60  1  0
 61 60  1  0
 62 67  1  0
 63 64  1  0
 63 62  1  0
 65 64  1  0
 65 72  1  0
 65 66  1  0
 67 61  1  0
 67 66  1  0
 68 61  2  0
 69 70  2  0
 70 89  1  0
 71 70  1  0
 71 74  1  0
 72 69  1  0
 72 73  1  0
 73 71  2  0
 74 75  1  0
 75 76  2  0
 77 80  1  0
 77 76  1  0
 78 77  2  0
 79 78  1  0
 79 74  2  0
 80 81  1  0
 81 82  1  0
 82 83  2  0
 84 83  1  0
 84 88  1  0
 85 84  2  0
 86 81  2  0
 86 85  1  0
 87 86  1  0
 89 90  1  0
 90 93  1  0
 90 92  1  0
 91 89  2  0
 94 95  1  0
 94 69  1  0
 96 94  1  0
M  ISO  4   8 101   9 101  60 100  61 100
M  END
>  <TORSDO>  (9) 
F 29

>  <SCORE>  (9) 
-10.880

>  <name>  (9) 
8

>  <ligand_id>  (9) 
8

>  <original_smiles>  (9) 
[H]c1c([H])c([H])c2c(c1[H])C([H])([H])C([H])([H])C([H])([H])C2([H])N([H])C(=O)C1([H])N(C(=O)C([H])(N([H])C(=O)C([H])(N([H])C([H])([H])[H])C([H])([H])[H])C(C([H])([H])[H])(C([H])([H])[H])C([H])([H])[H])C([H])([H])c2c([H])c(OC([H])([H])C([H])([H])C([H])([H])C([H])([H])[N+]([H])([H])C([H])([H])C([H])([H])C([H])([H])N([H])C([H])([H])C([H])([H])[N+]([H])([H])C([H])([H])C([H])([H])C(=O)N3C([H])([H])C([H])([H])C([H])([H])C([H])(n4nc(-c5c([H])c([H])c(Oc6c([H])c([H])c(F)c([H])c6F)c([H])c5[H])c(C(=O)N([H])[H])c4N([H])[H])C3([H])[H])c([H])c([H])c2C1([H])[H]

>  <smiles>  (9) 
[H]c1c([H])c([H])c2c(c1[H])C([H])([H])C([H])([H])C([H])([H])C2([H])N([H])C(=O)C1([H])N(C(=O)C([H])(N([H])C(=O)C([H])(N([H])C([H])([H])[H])C([H])([H])[H])C(C([H])([H])[H])(C([H])([H])[H])C([H])([H])[H])C([H])([H])c2c([H])c(OC([H])([H])C([H])([H])C([H])([H])C([H])([H])[N+]([H])([H])C([H])([H])C([H])([H])C([H])([H])N([H])C([H])([H])C([H])([H])[N+]([H])([H])C([H])([H])C([H])([H])C(=O)N3C([H])([H])C([H])([H])C([H])([H])C([H])(n4nc(-c5c([H])c([H])c(Oc6c([H])c([H])c(F)c([H])c6F)c([H])c5[H])c(C(=O)N([H])[H])c4N([H])[H])C3([H])[H])c([H])c([H])c2C1([H])[H]

$$$$
9:0:0
     RDKit          3D

 99106  0  0  1  0  0  0  0  0999 V2000
  -23.7770  -21.6270   24.5210 C   0  0  0  0  0  2  0  0  0  0  0  0
  -24.3500  -19.2120   24.8310 C   0  0  0  0  0  0  0  0  0  0  0  0
  -23.6740  -20.1990   24.2290 N   0  0  0  0  0  0  0  0  0  0  0  0
  -25.1690  -19.4080   25.7300 O   0  0  0  0  0  0  0  0  0  0  0  0
  -23.0130  -19.9350   23.5100 H   0  0  0  0  0  0  0  0  0  0  0  0
  -24.0630  -17.7900   24.3550 C   0  0  0  0  0  2  0  0  0  0  0  0
  -25.3100  -17.0600   24.0430 N   0  0  0  0  0  4  0  0  0  0  0  0
  -25.1600  -16.0860   24.2510 H   0  0  0  0  0  0  0  0  0  0  0  0
  -26.0160  -17.4130   24.6730 H   0  0  0  0  0  0  0  0  0  0  0  0
  -25.7770  -17.1900   22.6440 C   0  0  0  0  0  2  0  0  0  0  0  0
  -27.1190  -16.4710   22.4000 C   0  0  0  0  0  2  0  0  0  0  0  0
  -27.5240  -16.4410   20.9130 C   0  0  0  0  0  2  0  0  0  0  0  0
  -29.1050  -15.0490   19.6280 C   0  0  0  0  0  0  0  0  0  0  0  0
  -28.9860  -12.8780   18.4580 C   0  0  0  0  0  2  0  0  0  0  0  0
  -27.8440  -12.8410   17.4260 C   0  0  0  0  0  2  0  0  0  0  0  0
  -26.5230  -12.4150   18.0930 C   0  0  0  0  0  2  0  0  0  0  0  0
  -26.2230  -13.2220   19.3810 C   0  0  0  0  0  3  0  0  0  0  0  0
  -27.4610  -13.2470   20.3070 C   0  0  0  0  0  2  0  0  0  0  0  0
  -28.6010  -13.7890   19.5480 N   0  0  0  0  0  0  0  0  0  0  0  0
  -29.9400  -15.4950   18.8400 O   0  0  0  0  0  0  0  0  0  0  0  0
  -28.8040  -15.7530   20.7270 N   0  0  0  0  0  0  0  0  0  0  0  0
  -29.5720  -16.3640   20.9670 H   0  0  0  0  0  0  0  0  0  0  0  0
  -23.9300  -13.3890   20.5410 C   0  0  0  0  0  0  0  0  0  0  0  0
  -23.0910  -12.4320   21.0470 C   0  0  0  0  0  0  0  0  0  0  0  0
  -23.7540  -11.1820   20.8500 C   0  0  0  0  0  0  0  0  0  0  0  0
  -25.0440  -12.7080   20.0730 N   0  0  0  0  0  0  0  0  0  0  0  0
  -24.9520  -11.3760   20.3130 N   0  0  0  0  0  0  0  0  0  0  0  0
  -23.2950   -9.8080   21.0870 C   0  0  0  0  0  0  0  0  0  0  0  0
  -23.9450   -8.9630   22.0140 C   0  0  0  0  0  3  0  0  0  0  0  0
  -23.4750   -7.6510   22.2380 C   0  0  0  0  0  3  0  0  0  0  0  0
  -22.3420   -7.1740   21.5380 C   0  0  0  0  0  0  0  0  0  0  0  0
  -21.7110   -8.0120   20.6010 C   0  0  0  0  0  3  0  0  0  0  0  0
  -22.1840   -9.3150   20.3750 C   0  0  0  0  0  3  0  0  0  0  0  0
  -21.8300   -5.9060   21.6720 O   0  0  0  0  0  0  0  0  0  0  0  0
  -21.8360   -5.2520   22.8770 C   0  0  0  0  0  0  0  0  0  0  0  0
  -21.1980   -5.7840   24.0190 C   0  0  0  0  0  3  0  0  0  0  0  0
  -21.1680   -5.0450   25.2180 C   0  0  0  0  0  3  0  0  0  0  0  0
  -21.7660   -3.7730   25.2780 C   0  0  0  0  0  0  0  0  0  0  0  0
  -22.3980   -3.2390   24.1410 C   0  0  0  0  0  3  0  0  0  0  0  0
  -22.4300   -3.9750   22.9440 C   0  0  0  0  0  0  0  0  0  0  0  0
  -23.0210   -3.4460   21.8460 F   0  0  0  0  0  0  0  0  0  0  0  0
  -21.7310   -3.0600   26.4270 F   0  0  0  0  0  0  0  0  0  0  0  0
  -21.7090  -12.6510   21.5920 C   0  0  0  0  0  0  0  0  0  0  0  0
  -21.2860  -11.8260   22.5430 N   0  0  0  0  0  0  0  0  0  0  0  0
  -21.0130  -13.5910   21.2100 O   0  0  0  0  0  0  0  0  0  0  0  0
  -21.8620  -11.0640   22.8710 H   0  0  0  0  0  0  0  0  0  0  0  0
  -20.3700  -11.9560   22.9480 H   0  0  0  0  0  0  0  0  0  0  0  0
  -23.8290  -14.7720   20.4220 N   0  0  0  0  0  0  0  0  0  0  0  0
  -22.9570  -15.2490   20.6270 H   0  0  0  0  0  0  0  0  0  0  0  0
  -24.4650  -15.3320   19.8690 H   0  0  0  0  0  0  0  0  0  0  0  0
  -24.8290  -22.3230   23.6380 C   0  0  0  0  0  2  0  0  0  0  0  0
  -24.7900  -23.8550   23.7580 C   0  0  0  0  0  2  0  0  0  0  0  0
  -25.5530  -24.4940   22.6670 N   0  0  0  0  0  4  0  0  0  0  0  0
  -25.1090  -25.3700   22.4450 H   0  0  0  0  0  0  0  0  0  0  0  0
  -25.4900  -23.9120   21.8480 H   0  0  0  0  0  0  0  0  0  0  0  0
  -26.9710  -24.7740   22.9850 C   0  0  0  0  0  2  0  0  0  0  0  0
  -27.9120  -24.4140   21.8180 C   0  0  0  0  0  2  0  0  0  0  0  0
  -29.0230  -25.4550   21.5790 C   0  0  0  0  0  2  0  0  0  0  0  0
  -28.7670  -26.2410   20.4170 O   0  0  0  0  0  0  0  0  0  0  0  0
  -24.7260  -31.3260   23.3400 C   0  0  0  0  0  0  0  0  0  0  0  0
  -27.5830  -26.9310   20.4150 C   0  0  0  0  0  0  0  0  0  0  0  0
  -23.6180  -29.8950   21.6510 C   0  0  0  0  0  3  0  0  0  0  0  0
  -25.1610  -28.3670   20.3130 C   0  0  0  0  0  0  0  0  0  0  0  0
  -26.1400  -30.2910   21.5740 C   0  0  0  0  0  2  0  0  0  0  0  0
  -26.2750  -28.9140   20.9620 C   0  0  0  0  0  0  0  0  0  0  0  0
  -27.4870  -28.1960   21.0270 C   0  0  0  0  0  3  0  0  0  0  0  0
  -26.4660  -26.3990   19.7390 C   0  0  0  0  0  3  0  0  0  0  0  0
  -25.2470  -27.1020   19.7040 C   0  0  0  0  0  3  0  0  0  0  0  0
  -23.9030  -29.2050   20.2890 C   0  0  0  0  0  2  0  0  0  0  0  0
  -24.8430  -30.5190   22.2470 N   0  0  0  0  0  0  0  0  0  0  0  0
  -23.6170  -31.5870   23.8260 O   0  0  0  0  0  0  0  0  0  0  0  0
  -22.9360  -28.8720   22.5870 C   0  0  0  0  0  0  0  0  0  0  0  0
  -21.6420  -28.6070   22.3410 N   0  0  0  0  0  0  0  0  0  0  0  0
  -23.5710  -28.3150   23.4850 O   0  0  0  0  0  0  0  0  0  0  0  0
  -21.1890  -29.1070   21.5890 H   0  0  0  0  0  0  0  0  0  0  0  0
  -18.3110  -27.2310   22.5490 C   0  0  0  0  0  0  0  0  0  0  0  0
  -20.8070  -27.6520   23.0690 C   0  0  0  0  0  3  0  0  0  0  0  0
  -21.0490  -26.2090   22.5710 C   0  0  0  0  0  2  0  0  0  0  0  0
  -20.0800  -25.7840   21.4640 C   0  0  0  0  0  2  0  0  0  0  0  0
  -18.6330  -25.8700   21.9560 C   0  0  0  0  0  2  0  0  0  0  0  0
  -19.3330  -28.0740   23.0570 C   0  0  0  0  0  0  0  0  0  0  0  0
  -18.9830  -29.3450   23.5650 C   0  0  0  0  0  3  0  0  0  0  0  0
  -17.6430  -29.7730   23.5740 C   0  0  0  0  0  3  0  0  0  0  0  0
  -16.6330  -28.9270   23.0840 C   0  0  0  0  0  3  0  0  0  0  0  0
  -16.9670  -27.6580   22.5770 C   0  0  0  0  0  3  0  0  0  0  0  0
  -25.9760  -31.9750   24.0150 C   0  0  0  0  0  3  0  0  0  0  0  0
  -25.6550  -33.3810   24.2820 N   0  0  0  0  0  0  0  0  0  0  0  0
  -26.0210  -34.4060   23.5000 C   0  0  0  0  0  0  0  0  0  0  0  0
  -26.7400  -34.2670   22.5050 O   0  0  0  0  0  0  0  0  0  0  0  0
  -25.0250  -33.5650   25.0490 H   0  0  0  0  0  0  0  0  0  0  0  0
  -24.3000  -36.1710   23.0100 C   0  0  0  0  0  1  0  0  0  0  0  0
  -25.5120  -35.8080   23.8830 C   0  0  0  0  0  3  0  0  0  0  0  0
  -27.6070  -36.7420   24.7600 C   0  0  0  0  0  1  0  0  0  0  0  0
  -26.5450  -36.8610   23.7640 N   0  0  0  0  0  0  0  0  0  0  0  0
  -26.1300  -37.7850   23.8540 H   0  0  0  0  0  0  0  0  0  0  0  0
  -26.4190  -31.2400   25.3380 C   0  0  1  0  0  0  0  0  0  0  0  0
  -25.2560  -30.9850   26.3250 C   0  0  0  0  0  1  0  0  0  0  0  0
  -27.0700  -29.8750   25.0140 C   0  0  0  0  0  1  0  0  0  0  0  0
  -27.4940  -32.0780   26.0690 C   0  0  0  0  0  1  0  0  0  0  0  0
  2  4  2  0
  3  1  1  0
  3  2  1  0
  5  3  1  0
  6  2  1  0
  7  8  1  0
  7  6  1  0
  7  9  1  0
 10  7  1  0
 11 10  1  0
 12 11  1  0
 13 21  1  0
 14 19  1  0
 15 16  1  0
 15 14  1  0
 17 16  1  0
 17 26  1  0
 17 18  1  0
 19 13  1  0
 19 18  1  0
 20 13  2  0
 21 12  1  0
 21 22  1  0
 23 24  2  0
 24 43  1  0
 25 24  1  0
 25 28  1  0
 26 27  1  0
 26 23  1  0
 27 25  2  0
 28 29  1  0
 29 30  2  0
 31 34  1  0
 31 30  1  0
 32 31  2  0
 33 32  1  0
 33 28  2  0
 34 35  1  0
 35 40  2  0
 35 36  1  0
 36 37  2  0
 37 38  1  0
 38 42  1  0
 39 38  2  0
 40 39  1  0
 41 40  1  0
 43 44  1  0
 44 46  1  0
 44 47  1  0
 45 43  2  0
 48 23  1  0
 48 49  1  0
 50 48  1  0
 51 52  1  0
 51  1  1  0
 53 56  1  0
 53 52  1  0
 54 53  1  0
 55 53  1  0
 57 56  1  0
 58 57  1  0
 59 58  1  0
 60 71  2  0
 61 59  1  0
 61 66  1  0
 62 70  1  0
 62 72  1  0
 63 65  1  0
 64 70  1  0
 65 66  2  0
 65 64  1  0
 67 61  2  0
 68 67  1  0
 68 63  2  0
 69 63  1  0
 69 62  1  0
 70 60  1  0
 72 74  2  0
 73 72  1  0
 75 73  1  0
 76 85  2  0
 76 81  1  0
 77 73  1  0
 78 77  1  0
 79 80  1  0
 79 78  1  0
 80 76  1  0
 81 77  1  0
 81 82  2  0
 82 83  1  0
 84 83  2  0
 85 84  1  0
 86 60  1  0
 86 87  1  0
 86 96  1  0
 87 90  1  0
 88 92  1  0
 88 87  1  0
 89 88  2  0
 92 91  1  0
 94 95  1  0
 94 92  1  0
 94 93  1  0
 96 99  1  1
 96 97  1  0
 98 96  1  0
M  ISO  4  13 100  21 100  58 101  59 101
M  END
>  <TORSDO>  (10) 
F 28

>  <SCORE>  (10) 
34.477

>  <name>  (10) 
9

>  <ligand_id>  (10) 
9

>  <original_smiles>  (10) 
[H]c1c([H])c([H])c2c(c1[H])C([H])([H])C([H])([H])C([H])([H])C2([H])N([H])C(=O)C1([H])N(C(=O)C([H])(N([H])C(=O)C([H])(N([H])C([H])([H])[H])C([H])([H])[H])C(C([H])([H])[H])(C([H])([H])[H])C([H])([H])[H])C([H])([H])c2c([H])c(OC([H])([H])C([H])([H])C([H])([H])[N+]([H])([H])C([H])([H])C([H])([H])C([H])([H])N([H])C(=O)C([H])([H])[N+]([H])([H])C([H])([H])C([H])([H])C([H])([H])N([H])C(=O)N3C([H])([H])C([H])([H])C([H])([H])C([H])(n4nc(-c5c([H])c([H])c(Oc6c([H])c([H])c(F)c([H])c6F)c([H])c5[H])c(C(=O)N([H])[H])c4N([H])[H])C3([H])[H])c([H])c([H])c2C1([H])[H]

>  <smiles>  (10) 
[H]c1c([H])c([H])c2c(c1[H])C([H])([H])C([H])([H])C([H])([H])C2([H])N([H])C(=O)C1([H])N(C(=O)C([H])(N([H])C(=O)C([H])(N([H])C([H])([H])[H])C([H])([H])[H])C(C([H])([H])[H])(C([H])([H])[H])C([H])([H])[H])C([H])([H])c2c([H])c(OC([H])([H])C([H])([H])C([H])([H])[N+]([H])([H])C([H])([H])C([H])([H])C([H])([H])N([H])C(=O)C([H])([H])[N+]([H])([H])C([H])([H])C([H])([H])C([H])([H])N([H])C(=O)N3C([H])([H])C([H])([H])C([H])([H])C([H])(n4nc(-c5c([H])c([H])c(Oc6c([H])c([H])c(F)c([H])c6F)c([H])c5[H])c(C(=O)N([H])[H])c4N([H])[H])C3([H])[H])c([H])c([H])c2C1([H])[H]

$$$$
11:0:0
     RDKit          3D

100107  0  0  1  0  0  0  0  0999 V2000
  -25.1900  -24.2880   24.9390 C   0  0  0  0  0  2  0  0  0  0  0  0
  -26.2290  -24.5950   25.9470 N   0  0  0  0  0  4  0  0  0  0  0  0
  -27.0350  -24.0070   25.8050 H   0  0  0  0  0  0  0  0  0  0  0  0
  -25.8480  -24.3380   26.8440 H   0  0  0  0  0  0  0  0  0  0  0  0
  -26.6420  -26.0120   26.0400 C   0  0  0  0  0  2  0  0  0  0  0  0
  -27.9540  -26.2820   25.2770 C   0  0  0  0  0  2  0  0  0  0  0  0
  -28.1710  -27.7710   24.9520 C   0  0  0  0  0  2  0  0  0  0  0  0
  -29.4330  -27.9550   24.2150 N   0  0  0  0  0  4  0  0  0  0  0  0
  -28.8830  -27.5570   23.4700 H   0  0  0  0  0  0  0  0  0  0  0  0
  -29.3810  -28.8230   24.7260 H   0  0  0  0  0  0  0  0  0  0  0  0
  -29.6810  -28.9600   23.1640 C   0  0  0  0  0  2  0  0  0  0  0  0
  -31.1100  -28.7790   22.6200 C   0  0  0  0  0  2  0  0  0  0  0  0
  -31.4270  -29.5560   21.3330 C   0  0  0  0  0  2  0  0  0  0  0  0
  -33.1780  -29.3540   19.5720 C   0  0  0  0  0  0  0  0  0  0  0  0
  -34.5790  -28.5160   17.7270 C   0  0  0  0  0  2  0  0  0  0  0  0
  -33.7740  -27.5110   16.8780 C   0  0  0  0  0  2  0  0  0  0  0  0
  -33.8710  -26.0890   17.4700 C   0  0  0  0  0  2  0  0  0  0  0  0
  -33.5820  -26.0560   18.9930 C   0  0  0  0  0  3  0  0  0  0  0  0
  -34.3950  -27.1480   19.7240 C   0  0  0  0  0  2  0  0  0  0  0  0
  -34.0830  -28.4550   19.1070 N   0  0  0  0  0  0  0  0  0  0  0  0
  -32.8070  -30.3530   18.9470 O   0  0  0  0  0  0  0  0  0  0  0  0
  -32.6620  -29.0340   20.7620 N   0  0  0  0  0  0  0  0  0  0  0  0
  -33.0780  -28.2350   21.2140 H   0  0  0  0  0  0  0  0  0  0  0  0
  -32.9270  -23.7830   20.0190 C   0  0  0  0  0  0  0  0  0  0  0  0
  -33.6760  -22.6940   20.3750 C   0  0  0  0  0  0  0  0  0  0  0  0
  -35.0340  -23.0400   20.0990 C   0  0  0  0  0  0  0  0  0  0  0  0
  -33.8310  -24.7300   19.5560 N   0  0  0  0  0  0  0  0  0  0  0  0
  -35.1100  -24.2880   19.6560 N   0  0  0  0  0  0  0  0  0  0  0  0
  -36.2600  -22.2370   20.1770 C   0  0  0  0  0  0  0  0  0  0  0  0
  -37.3740  -22.6590   20.9350 C   0  0  0  0  0  3  0  0  0  0  0  0
  -38.5350  -21.8600   21.0080 C   0  0  0  0  0  3  0  0  0  0  0  0
  -38.5890  -20.6240   20.3200 C   0  0  0  0  0  0  0  0  0  0  0  0
  -37.4850  -20.2200   19.5470 C   0  0  0  0  0  3  0  0  0  0  0  0
  -36.3330  -21.0210   19.4720 C   0  0  0  0  0  3  0  0  0  0  0  0
  -39.6860  -19.7970   20.3100 O   0  0  0  0  0  0  0  0  0  0  0  0
  -40.5610  -19.7470   21.3650 C   0  0  0  0  0  0  0  0  0  0  0  0
  -40.1330  -19.4230   22.6710 C   0  0  0  0  0  3  0  0  0  0  0  0
  -41.0750  -19.3160   23.7130 C   0  0  0  0  0  3  0  0  0  0  0  0
  -42.4420  -19.5220   23.4510 C   0  0  0  0  0  0  0  0  0  0  0  0
  -42.8710  -19.8420   22.1510 C   0  0  0  0  0  3  0  0  0  0  0  0
  -41.9310  -19.9510   21.1100 C   0  0  0  0  0  0  0  0  0  0  0  0
  -42.3500  -20.2370   19.8540 F   0  0  0  0  0  0  0  0  0  0  0  0
  -43.3490  -19.4120   24.4490 F   0  0  0  0  0  0  0  0  0  0  0  0
  -33.1540  -21.3730   20.8620 C   0  0  0  0  0  0  0  0  0  0  0  0
  -33.9130  -20.6930   21.7150 N   0  0  0  0  0  0  0  0  0  0  0  0
  -32.0470  -20.9560   20.5240 O   0  0  0  0  0  0  0  0  0  0  0  0
  -34.8140  -21.0450   22.0070 H   0  0  0  0  0  0  0  0  0  0  0  0
  -33.5860  -19.8100   22.0810 H   0  0  0  0  0  0  0  0  0  0  0  0
  -31.5600  -24.0400   20.0300 N   0  0  0  0  0  0  0  0  0  0  0  0
  -30.8800  -23.3400   20.3070 H   0  0  0  0  0  0  0  0  0  0  0  0
  -31.1340  -24.8940   19.6900 H   0  0  0  0  0  0  0  0  0  0  0  0
  -25.7490  -23.7150   23.6150 C   0  0  0  0  0  2  0  0  0  0  0  0
  -24.8800  -24.0500   22.3940 C   0  0  0  0  0  2  0  0  0  0  0  0
  -25.3520  -25.3070   21.6430 C   0  0  0  0  0  2  0  0  0  0  0  0
  -26.4100  -24.9810   20.6620 N   0  0  0  0  0  4  0  0  0  0  0  0
  -26.0940  -25.3810   19.7900 H   0  0  0  0  0  0  0  0  0  0  0  0
  -26.4640  -23.9830   20.5240 H   0  0  0  0  0  0  0  0  0  0  0  0
  -27.7610  -25.5360   20.9320 C   0  0  0  0  0  2  0  0  0  0  0  0
  -28.4690  -25.9720   19.6260 C   0  0  0  0  0  2  0  0  0  0  0  0
  -28.4950  -27.3980   19.4680 O   0  0  0  0  0  0  0  0  0  0  0  0
  -24.8860  -31.9680   23.5150 C   0  0  0  0  0  0  0  0  0  0  0  0
  -27.3110  -28.0860   19.6200 C   0  0  0  0  0  0  0  0  0  0  0  0
  -23.5620  -30.7900   21.7890 C   0  0  0  0  0  3  0  0  0  0  0  0
  -24.9090  -29.4990   20.0500 C   0  0  0  0  0  0  0  0  0  0  0  0
  -26.0580  -31.2240   21.4500 C   0  0  0  0  0  2  0  0  0  0  0  0
  -26.1020  -29.9600   20.6180 C   0  0  0  0  0  0  0  0  0  0  0  0
  -27.3040  -29.2550   20.4110 C   0  0  0  0  0  3  0  0  0  0  0  0
  -26.1090  -27.6620   19.0110 C   0  0  0  0  0  3  0  0  0  0  0  0
  -24.9030  -28.3450   19.2490 C   0  0  0  0  0  3  0  0  0  0  0  0
  -23.6670  -30.3180   20.3140 C   0  0  0  0  0  2  0  0  0  0  0  0
  -24.8570  -31.3340   22.3100 N   0  0  0  0  0  0  0  0  0  0  0  0
  -23.8510  -32.1400   24.1730 O   0  0  0  0  0  0  0  0  0  0  0  0
  -22.9990  -29.6290   22.6410 C   0  0  0  0  0  0  0  0  0  0  0  0
  -21.7000  -29.3360   22.4700 N   0  0  0  0  0  0  0  0  0  0  0  0
  -23.7300  -28.9960   23.4070 O   0  0  0  0  0  0  0  0  0  0  0  0
  -21.1630  -29.9070   21.8330 H   0  0  0  0  0  0  0  0  0  0  0  0
  -18.5030  -27.6690   22.6420 C   0  0  0  0  0  0  0  0  0  0  0  0
  -20.9690  -28.2610   23.1430 C   0  0  0  0  0  3  0  0  0  0  0  0
  -21.3160  -26.8830   22.5350 C   0  0  0  0  0  2  0  0  0  0  0  0
  -20.3580  -26.4580   21.4190 C   0  0  0  0  0  2  0  0  0  0  0  0
  -18.9210  -26.3870   21.9430 C   0  0  0  0  0  2  0  0  0  0  0  0
  -19.4660  -28.5570   23.1940 C   0  0  0  0  0  0  0  0  0  0  0  0
  -19.0280  -29.7510   23.8000 C   0  0  0  0  0  3  0  0  0  0  0  0
  -17.6560  -30.0670   23.8650 C   0  0  0  0  0  3  0  0  0  0  0  0
  -16.7080  -29.1760   23.3350 C   0  0  0  0  0  3  0  0  0  0  0  0
  -17.1300  -27.9780   22.7310 C   0  0  0  0  0  3  0  0  0  0  0  0
  -26.2150  -32.5290   24.1140 C   0  0  0  0  0  3  0  0  0  0  0  0
  -25.9500  -33.8990   24.5740 N   0  0  0  0  0  0  0  0  0  0  0  0
  -26.2630  -35.0070   23.8860 C   0  0  0  0  0  0  0  0  0  0  0  0
  -26.8800  -34.9800   22.8170 O   0  0  0  0  0  0  0  0  0  0  0  0
  -25.3980  -33.9960   25.4140 H   0  0  0  0  0  0  0  0  0  0  0  0
  -24.5410  -36.8340   23.7770 C   0  0  0  0  0  1  0  0  0  0  0  0
  -25.8210  -36.3570   24.4790 C   0  0  0  0  0  3  0  0  0  0  0  0
  -28.0160  -37.1510   25.2440 C   0  0  0  0  0  1  0  0  0  0  0  0
  -26.8600  -37.4070   24.3870 N   0  0  0  0  0  0  0  0  0  0  0  0
  -26.4790  -38.3150   24.6350 H   0  0  0  0  0  0  0  0  0  0  0  0
  -26.7910  -31.6450   25.2850 C   0  0  1  0  0  0  0  0  0  0  0  0
  -25.7630  -31.3420   26.3980 C   0  0  0  0  0  1  0  0  0  0  0  0
  -27.3130  -30.2950   24.7430 C   0  0  0  0  0  1  0  0  0  0  0  0
  -27.9990  -32.3590   25.9360 C   0  0  0  0  0  1  0  0  0  0  0  0
  1  2  1  0
  2  5  1  0
  2  4  1  0
  3  2  1  0
  6  5  1  0
  7  6  1  0
  8 10  1  0
  8  7  1  0
  9  8  1  0
 11  8  1  0
 12 11  1  0
 13 12  1  0
 14 22  1  0
 15 20  1  0
 16 17  1  0
 16 15  1  0
 18 17  1  0
 18 27  1  0
 18 19  1  0
 20 14  1  0
 20 19  1  0
 21 14  2  0
 22 23  1  0
 22 13  1  0
 24 49  1  0
 24 25  2  0
 25 44  1  0
 26 29  1  0
 26 25  1  0
 27 28  1  0
 27 24  1  0
 28 26  2  0
 29 30  1  0
 30 31  2  0
 32 31  1  0
 33 32  2  0
 34 33  1  0
 34 29  2  0
 35 32  1  0
 35 36  1  0
 36 37  1  0
 37 38  2  0
 39 38  1  0
 39 43  1  0
 40 39  2  0
 41 36  2  0
 41 40  1  0
 42 41  1  0
 44 45  1  0
 45 47  1  0
 45 48  1  0
 46 44  2  0
 49 50  1  0
 51 49  1  0
 52  1  1  0
 53 52  1  0
 54 53  1  0
 55 58  1  0
 55 54  1  0
 56 55  1  0
 57 55  1  0
 59 58  1  0
 60 62  1  0
 60 59  1  0
 61 72  2  0
 62 67  1  0
 63 71  1  0
 63 73  1  0
 64 70  1  0
 64 66  1  0
 65 71  1  0
 66 65  1  0
 67 66  2  0
 68 69  1  0
 68 62  2  0
 69 64  2  0
 70 63  1  0
 71 61  1  0
 73 75  2  0
 74 73  1  0
 76 74  1  0
 77 86  2  0
 77 82  1  0
 78 74  1  0
 78 82  1  0
 79 78  1  0
 80 81  1  0
 80 79  1  0
 81 77  1  0
 82 83  2  0
 83 84  1  0
 85 84  2  0
 86 85  1  0
 87 61  1  0
 87 88  1  0
 87 97  1  0
 88 91  1  0
 89 93  1  0
 89 88  1  0
 90 89  2  0
 93 92  1  0
 95 93  1  0
 95 96  1  0
 95 94  1  0
 97100  1  1
 97 98  1  0
 99 97  1  0
M  ISO  4  14 100  22 100  59 101  60 101
M  END
>  <TORSDO>  (11) 
F 30

>  <SCORE>  (11) 
-0.206

>  <name>  (11) 
11

>  <ligand_id>  (11) 
11

>  <original_smiles>  (11) 
[H]c1c([H])c([H])c2c(c1[H])C([H])([H])C([H])([H])C([H])([H])C2([H])N([H])C(=O)C1([H])N(C(=O)C([H])(N([H])C(=O)C([H])(N([H])C([H])([H])[H])C([H])([H])[H])C(C([H])([H])[H])(C([H])([H])[H])C([H])([H])[H])C([H])([H])c2c([H])c(OC([H])([H])C([H])([H])[N+]([H])([H])C([H])([H])C([H])([H])C([H])([H])C([H])([H])[N+]([H])([H])C([H])([H])C([H])([H])C([H])([H])[N+]([H])([H])C([H])([H])C([H])([H])C([H])([H])N([H])C(=O)N3C([H])([H])C([H])([H])C([H])([H])C([H])(n4nc(-c5c([H])c([H])c(Oc6c([H])c([H])c(F)c([H])c6F)c([H])c5[H])c(C(=O)N([H])[H])c4N([H])[H])C3([H])[H])c([H])c([H])c2C1([H])[H]

>  <smiles>  (11) 
[H]c1c([H])c([H])c2c(c1[H])C([H])([H])C([H])([H])C([H])([H])C2([H])N([H])C(=O)C1([H])N(C(=O)C([H])(N([H])C(=O)C([H])(N([H])C([H])([H])[H])C([H])([H])[H])C(C([H])([H])[H])(C([H])([H])[H])C([H])([H])[H])C([H])([H])c2c([H])c(OC([H])([H])C([H])([H])[N+]([H])([H])C([H])([H])C([H])([H])C([H])([H])C([H])([H])[N+]([H])([H])C([H])([H])C([H])([H])C([H])([H])[N+]([H])([H])C([H])([H])C([H])([H])C([H])([H])N([H])C(=O)N3C([H])([H])C([H])([H])C([H])([H])C([H])(n4nc(-c5c([H])c([H])c(Oc6c([H])c([H])c(F)c([H])c6F)c([H])c5[H])c(C(=O)N([H])[H])c4N([H])[H])C3([H])[H])c([H])c([H])c2C1([H])[H]

$$$$
13:0:0
     RDKit          3D

 95102  0  0  1  0  0  0  0  0999 V2000
  -28.6990  -21.2620   21.1310 C   0  0  0  0  0  0  0  0  0  0  0  0
  -28.9820  -21.8340   22.1910 O   0  0  0  0  0  0  0  0  0  0  0  0
  -29.5110  -20.0190   20.6730 C   0  0  0  0  0  0  0  0  0  0  0  0
  -30.6770  -20.1900   20.2810 O   0  0  0  0  0  0  0  0  0  0  0  0
  -28.9230  -18.5750   20.7770 C   0  0  0  0  0  0  0  0  0  0  0  0
  -29.8540  -17.7140   21.2290 N   0  0  0  0  0  0  0  0  0  0  0  0
  -27.7760  -18.2540   20.4510 O   0  0  0  0  0  0  0  0  0  0  0  0
  -30.7290  -18.1540   21.4750 H   0  0  0  0  0  0  0  0  0  0  0  0
  -29.7950  -16.2590   21.3330 C   0  0  0  0  0  2  0  0  0  0  0  0
  -31.2250  -15.6800   21.2090 C   0  0  0  0  0  2  0  0  0  0  0  0
  -31.9120  -13.9930   19.4510 C   0  0  0  0  0  0  0  0  0  0  0  0
  -31.3750  -11.6330   18.9980 C   0  0  0  0  0  2  0  0  0  0  0  0
  -30.3680  -11.4910   17.8390 C   0  0  0  0  0  2  0  0  0  0  0  0
  -28.9210  -11.5900   18.3620 C   0  0  0  0  0  2  0  0  0  0  0  0
  -28.7070  -12.8140   19.2920 C   0  0  0  0  0  3  0  0  0  0  0  0
  -29.8100  -12.8950   20.3610 C   0  0  0  0  0  2  0  0  0  0  0  0
  -31.1220  -12.9100   19.6890 N   0  0  0  0  0  0  0  0  0  0  0  0
  -32.9040  -13.9460   18.7210 O   0  0  0  0  0  0  0  0  0  0  0  0
  -31.4710  -15.1950   19.8450 N   0  0  0  0  0  0  0  0  0  0  0  0
  -31.8890  -15.9090   19.2690 H   0  0  0  0  0  0  0  0  0  0  0  0
  -26.5970  -13.8690   20.3210 C   0  0  0  0  0  0  0  0  0  0  0  0
  -25.4280  -13.3180   20.7730 C   0  0  0  0  0  0  0  0  0  0  0  0
  -25.5620  -11.9080   20.6010 C   0  0  0  0  0  0  0  0  0  0  0  0
  -27.3810  -12.8040   19.9060 N   0  0  0  0  0  0  0  0  0  0  0  0
  -26.7670  -11.6140   20.1300 N   0  0  0  0  0  0  0  0  0  0  0  0
  -24.5970  -10.8200   20.8040 C   0  0  0  0  0  0  0  0  0  0  0  0
  -24.8980   -9.7010   21.6090 C   0  0  0  0  0  3  0  0  0  0  0  0
  -23.9410   -8.6820   21.8050 C   0  0  0  0  0  3  0  0  0  0  0  0
  -22.6700   -8.7730   21.1930 C   0  0  0  0  0  0  0  0  0  0  0  0
  -22.3840   -9.8770   20.3710 C   0  0  0  0  0  3  0  0  0  0  0  0
  -23.3380  -10.8900   20.1760 C   0  0  0  0  0  3  0  0  0  0  0  0
  -21.6920   -7.8140   21.2990 O   0  0  0  0  0  0  0  0  0  0  0  0
  -21.5810   -7.0220   22.4120 C   0  0  0  0  0  0  0  0  0  0  0  0
  -21.4300   -7.5680   23.7060 C   0  0  0  0  0  3  0  0  0  0  0  0
  -21.2480   -6.7160   24.8130 C   0  0  0  0  0  3  0  0  0  0  0  0
  -21.2120   -5.3200   24.6290 C   0  0  0  0  0  0  0  0  0  0  0  0
  -21.3550   -4.7760   23.3410 C   0  0  0  0  0  3  0  0  0  0  0  0
  -21.5380   -5.6240   22.2350 C   0  0  0  0  0  0  0  0  0  0  0  0
  -21.6560   -5.0950   20.9940 F   0  0  0  0  0  0  0  0  0  0  0  0
  -21.0300   -4.5020   25.6910 F   0  0  0  0  0  0  0  0  0  0  0  0
  -24.2150  -14.0670   21.2440 C   0  0  0  0  0  0  0  0  0  0  0  0
  -23.4800  -13.5020   22.1960 N   0  0  0  0  0  0  0  0  0  0  0  0
  -23.9370  -15.1790   20.8010 O   0  0  0  0  0  0  0  0  0  0  0  0
  -23.7150  -12.5980   22.5780 H   0  0  0  0  0  0  0  0  0  0  0  0
  -22.6650  -13.9840   22.5490 H   0  0  0  0  0  0  0  0  0  0  0  0
  -27.0530  -15.1770   20.2070 N   0  0  0  0  0  0  0  0  0  0  0  0
  -26.4660  -15.9730   20.4350 H   0  0  0  0  0  0  0  0  0  0  0  0
  -27.9360  -15.4430   19.7880 H   0  0  0  0  0  0  0  0  0  0  0  0
  -27.6410  -21.8550   20.1900 C   0  0  0  0  0  2  0  0  0  0  0  0
  -28.1830  -23.0610   19.4950 N   0  0  0  0  0  4  0  0  0  0  0  0
  -27.7750  -23.0600   18.5720 H   0  0  0  0  0  0  0  0  0  0  0  0
  -29.1750  -22.9360   19.3740 H   0  0  0  0  0  0  0  0  0  0  0  0
  -27.9120  -24.3890   20.1330 C   0  0  0  0  0  2  0  0  0  0  0  0
  -28.6050  -25.5680   19.3860 C   0  0  0  0  0  2  0  0  0  0  0  0
  -28.5420  -26.8480   20.0500 O   0  0  0  0  0  0  0  0  0  0  0  0
  -24.6400  -31.8220   23.3260 C   0  0  0  0  0  0  0  0  0  0  0  0
  -27.3630  -27.5720   20.0350 C   0  0  0  0  0  0  0  0  0  0  0  0
  -23.4740  -30.5070   21.5860 C   0  0  0  0  0  3  0  0  0  0  0  0
  -24.9630  -29.0710   20.1000 C   0  0  0  0  0  0  0  0  0  0  0  0
  -26.0030  -30.8880   21.4650 C   0  0  0  0  0  2  0  0  0  0  0  0
  -26.1080  -29.5630   20.7360 C   0  0  0  0  0  0  0  0  0  0  0  0
  -27.3080  -28.8160   20.7070 C   0  0  0  0  0  3  0  0  0  0  0  0
  -26.1990  -27.1100   19.3840 C   0  0  0  0  0  3  0  0  0  0  0  0
  -25.0000  -27.8390   19.4290 C   0  0  0  0  0  3  0  0  0  0  0  0
  -23.7140  -29.9170   20.1730 C   0  0  0  0  0  2  0  0  0  0  0  0
  -24.7210  -31.0860   22.1820 N   0  0  0  0  0  0  0  0  0  0  0  0
  -23.5470  -32.0560   23.8580 O   0  0  0  0  0  0  0  0  0  0  0  0
  -22.8220  -29.4230   22.4740 C   0  0  0  0  0  0  0  0  0  0  0  0
  -21.5030  -29.2270   22.3090 N   0  0  0  0  0  0  0  0  0  0  0  0
  -23.5000  -28.7600   23.2630 O   0  0  0  0  0  0  0  0  0  0  0  0
  -21.0120  -29.8100   21.6470 H   0  0  0  0  0  0  0  0  0  0  0  0
  -18.1410  -27.9630   22.6790 C   0  0  0  0  0  0  0  0  0  0  0  0
  -20.6910  -28.2370   23.0130 C   0  0  0  0  0  3  0  0  0  0  0  0
  -20.8210  -26.8410   22.3610 C   0  0  0  0  0  2  0  0  0  0  0  0
  -19.7430  -26.5640   21.3070 C   0  0  0  0  0  2  0  0  0  0  0  0
  -18.3460  -26.6590   21.9250 C   0  0  0  0  0  2  0  0  0  0  0  0
  -19.2410  -28.7110   23.1760 C   0  0  0  0  0  0  0  0  0  0  0  0
  -18.9950  -29.9360   23.8320 C   0  0  0  0  0  3  0  0  0  0  0  0
  -17.6820  -30.4150   23.9950 C   0  0  0  0  0  3  0  0  0  0  0  0
  -16.5960  -29.6610   23.5170 C   0  0  0  0  0  3  0  0  0  0  0  0
  -16.8270  -28.4350   22.8680 C   0  0  0  0  0  3  0  0  0  0  0  0
  -25.9140  -32.4270   23.9990 C   0  0  0  0  0  3  0  0  0  0  0  0
  -25.6010  -33.8170   24.3530 N   0  0  0  0  0  0  0  0  0  0  0  0
  -25.9500  -34.8850   23.6260 C   0  0  0  0  0  0  0  0  0  0  0  0
  -26.6430  -34.8050   22.6070 O   0  0  0  0  0  0  0  0  0  0  0  0
  -24.9900  -33.9520   25.1440 H   0  0  0  0  0  0  0  0  0  0  0  0
  -24.2220  -36.6800   23.2810 C   0  0  0  0  0  1  0  0  0  0  0  0
  -25.4510  -36.2630   24.1030 C   0  0  0  0  0  3  0  0  0  0  0  0
  -27.5700  -37.1420   24.9830 C   0  0  0  0  0  1  0  0  0  0  0  0
  -26.4830  -37.3190   24.0240 N   0  0  0  0  0  0  0  0  0  0  0  0
  -26.0720  -38.2350   24.1780 H   0  0  0  0  0  0  0  0  0  0  0  0
  -26.3870  -31.6220   25.2700 C   0  0  1  0  0  0  0  0  0  0  0  0
  -25.2620  -31.3650   26.2990 C   0  0  0  0  0  1  0  0  0  0  0  0
  -26.9800  -30.2520   24.8690 C   0  0  0  0  0  1  0  0  0  0  0  0
  -27.5150  -32.3970   25.9890 C   0  0  0  0  0  1  0  0  0  0  0  0
  1  2  2  0
  3  5  1  0
  3  1  1  0
  4  3  2  0
  5  6  1  0
  6  9  1  0
  6  8  1  0
  7  5  2  0
 10  9  1  0
 11 17  1  0
 11 19  1  0
 12 17  1  0
 13 14  1  0
 13 12  1  0
 15 14  1  0
 15 24  1  0
 15 16  1  0
 17 16  1  0
 18 11  2  0
 19 10  1  0
 20 19  1  0
 21 22  2  0
 22 41  1  0
 23 22  1  0
 23 26  1  0
 24 25  1  0
 24 21  1  0
 25 23  2  0
 26 27  1  0
 27 28  2  0
 29 32  1  0
 29 28  1  0
 30 29  2  0
 31 30  1  0
 31 26  2  0
 32 33  1  0
 33 34  1  0
 34 35  2  0
 36 35  1  0
 36 40  1  0
 37 36  2  0
 38 33  2  0
 38 37  1  0
 39 38  1  0
 41 42  1  0
 42 45  1  0
 42 44  1  0
 43 41  2  0
 46 21  1  0
 46 47  1  0
 48 46  1  0
 49  1  1  0
 50 53  1  0
 50 49  1  0
 51 50  1  0
 52 50  1  0
 54 55  1  0
 54 53  1  0
 56 67  2  0
 57 55  1  0
 57 62  1  0
 58 66  1  0
 58 68  1  0
 59 65  1  0
 59 61  1  0
 60 66  1  0
 61 60  1  0
 62 61  2  0
 63 64  1  0
 63 57  2  0
 64 59  2  0
 65 58  1  0
 66 56  1  0
 68 70  2  0
 69 68  1  0
 71 69  1  0
 72 81  2  0
 72 77  1  0
 73 69  1  0
 73 77  1  0
 74 73  1  0
 75 76  1  0
 75 74  1  0
 76 72  1  0
 77 78  2  0
 78 79  1  0
 80 79  2  0
 81 80  1  0
 82 56  1  0
 82 83  1  0
 82 92  1  0
 83 86  1  0
 84 88  1  0
 84 83  1  0
 85 84  2  0
 88 87  1  0
 90 88  1  0
 90 91  1  0
 90 89  1  0
 92 95  1  1
 92 93  1  0
 94 92  1  0
M  ISO  4  11 100  19 100  54 101  55 101
M  END
>  <TORSDO>  (12) 
F 24

>  <SCORE>  (12) 
-11.838

>  <name>  (12) 
13

>  <ligand_id>  (12) 
13

>  <original_smiles>  (12) 
[H]c1c([H])c([H])c2c(c1[H])C([H])([H])C([H])([H])C([H])([H])C2([H])N([H])C(=O)C1([H])N(C(=O)C([H])(N([H])C(=O)C([H])(N([H])C([H])([H])[H])C([H])([H])[H])C(C([H])([H])[H])(C([H])([H])[H])C([H])([H])[H])C([H])([H])c2c([H])c(OC([H])([H])C([H])([H])[N+]([H])([H])C([H])([H])C(=O)C(=O)C(=O)N([H])C([H])([H])C([H])([H])N([H])C(=O)N3C([H])([H])C([H])([H])C([H])([H])C([H])(n4nc(-c5c([H])c([H])c(Oc6c([H])c([H])c(F)c([H])c6F)c([H])c5[H])c(C(=O)N([H])[H])c4N([H])[H])C3([H])[H])c([H])c([H])c2C1([H])[H]

>  <smiles>  (12) 
[H]c1c([H])c([H])c2c(c1[H])C([H])([H])C([H])([H])C([H])([H])C2([H])N([H])C(=O)C1([H])N(C(=O)C([H])(N([H])C(=O)C([H])(N([H])C([H])([H])[H])C([H])([H])[H])C(C([H])([H])[H])(C([H])([H])[H])C([H])([H])[H])C([H])([H])c2c([H])c(OC([H])([H])C([H])([H])[N+]([H])([H])C([H])([H])C(=O)C(=O)C(=O)N([H])C([H])([H])C([H])([H])N([H])C(=O)N3C([H])([H])C([H])([H])C([H])([H])C([H])(n4nc(-c5c([H])c([H])c(Oc6c([H])c([H])c(F)c([H])c6F)c([H])c5[H])c(C(=O)N([H])[H])c4N([H])[H])C3([H])[H])c([H])c([H])c2C1([H])[H]

$$$$
14:0:0
     RDKit          3D

105112  0  0  1  0  0  0  0  0999 V2000
  -21.5200  -31.7720   23.4070 C   0  0  0  0  0  2  0  0  0  0  0  0
  -22.0020  -32.9840   22.2310 C   0  0  0  0  0  2  0  0  0  0  0  0
  -23.6310  -32.7920   19.9640 C   0  0  0  0  0  0  0  0  0  0  0  0
  -23.2780  -33.1190   21.2870 N   0  0  0  0  0  0  0  0  0  0  0  0
  -22.7230  -32.5740   19.1620 O   0  0  0  0  0  0  0  0  0  0  0  0
  -24.0740  -33.4230   21.8320 H   0  0  0  0  0  0  0  0  0  0  0  0
  -25.1730  -32.5920   19.4110 C   0  0  0  0  0  2  0  0  0  0  0  0
  -25.6930  -31.2430   18.7520 N   0  0  0  0  0  4  0  0  0  0  0  0
  -25.3830  -31.2600   17.7900 H   0  0  0  0  0  0  0  0  0  0  0  0
  -25.1550  -30.5020   19.1800 H   0  0  0  0  0  0  0  0  0  0  0  0
  -27.1890  -30.7260   18.7490 C   0  0  0  0  0  2  0  0  0  0  0  0
  -27.6600  -29.1600   18.3260 C   0  0  0  0  0  2  0  0  0  0  0  0
  -28.1920  -27.9740   19.1780 O   0  0  0  0  0  0  0  0  0  0  0  0
  -24.8360  -31.8200   23.2840 C   0  0  0  0  0  0  0  0  0  0  0  0
  -27.2510  -27.5660   20.0360 C   0  0  0  0  0  0  0  0  0  0  0  0
  -23.4070  -30.2940   21.6040 C   0  0  0  0  0  3  0  0  0  0  0  0
  -24.8390  -28.8160   20.2110 C   0  0  0  0  0  0  0  0  0  0  0  0
  -25.9480  -30.5690   21.6770 C   0  0  0  0  0  2  0  0  0  0  0  0
  -25.9440  -29.2810   20.9450 C   0  0  0  0  0  0  0  0  0  0  0  0
  -27.1300  -28.5710   20.9710 C   0  0  0  0  0  3  0  0  0  0  0  0
  -26.1330  -26.9310   19.4640 C   0  0  0  0  0  3  0  0  0  0  0  0
  -24.8970  -27.5890   19.5360 C   0  0  0  0  0  3  0  0  0  0  0  0
  -23.5940  -29.6200   20.2250 C   0  0  0  0  0  2  0  0  0  0  0  0
  -24.6850  -30.8980   22.2640 N   0  0  0  0  0  0  0  0  0  0  0  0
  -23.9270  -32.3490   23.8440 O   0  0  0  0  0  0  0  0  0  0  0  0
  -22.7200  -29.1890   22.3510 C   0  0  0  0  0  0  0  0  0  0  0  0
  -21.3800  -29.1230   22.3270 N   0  0  0  0  0  0  0  0  0  0  0  0
  -23.4190  -28.3320   22.8310 O   0  0  0  0  0  0  0  0  0  0  0  0
  -20.8940  -29.8580   21.8340 H   0  0  0  0  0  0  0  0  0  0  0  0
  -17.9630  -28.0950   22.7910 C   0  0  0  0  0  0  0  0  0  0  0  0
  -20.5080  -28.2370   23.0780 C   0  0  0  0  0  3  0  0  0  0  0  0
  -20.5900  -26.8190   22.5020 C   0  0  0  0  0  2  0  0  0  0  0  0
  -19.5040  -26.5640   21.4680 C   0  0  0  0  0  2  0  0  0  0  0  0
  -18.1240  -26.7530   22.1010 C   0  0  0  0  0  2  0  0  0  0  0  0
  -19.0880  -28.8070   23.2580 C   0  0  0  0  0  0  0  0  0  0  0  0
  -18.8480  -30.0290   23.9330 C   0  0  0  0  0  3  0  0  0  0  0  0
  -17.5650  -30.5760   24.0740 C   0  0  0  0  0  3  0  0  0  0  0  0
  -16.4620  -29.8680   23.5860 C   0  0  0  0  0  3  0  0  0  0  0  0
  -16.6640  -28.6190   22.9720 C   0  0  0  0  0  3  0  0  0  0  0  0
  -26.1400  -32.4370   23.8480 C   0  0  0  0  0  3  0  0  0  0  0  0
  -25.8310  -33.8430   24.2380 N   0  0  0  0  0  0  0  0  0  0  0  0
  -25.9760  -34.9320   23.4760 C   0  0  0  0  0  0  0  0  0  0  0  0
  -26.5370  -34.8860   22.3810 O   0  0  0  0  0  0  0  0  0  0  0  0
  -25.3200  -33.9460   25.1020 H   0  0  0  0  0  0  0  0  0  0  0  0
  -24.1640  -36.6950   23.2570 C   0  0  0  0  0  1  0  0  0  0  0  0
  -25.4370  -36.2770   24.0160 C   0  0  0  0  0  3  0  0  0  0  0  0
  -27.5640  -37.1820   24.8480 C   0  0  0  0  0  1  0  0  0  0  0  0
  -26.4280  -37.3730   23.9510 N   0  0  0  0  0  0  0  0  0  0  0  0
  -25.9950  -38.2630   24.1840 H   0  0  0  0  0  0  0  0  0  0  0  0
  -26.6020  -31.6490   25.1340 C   0  0  1  0  0  0  0  0  0  0  0  0
  -25.5270  -31.4480   26.2280 C   0  0  0  0  0  1  0  0  0  0  0  0
  -27.1720  -30.2580   24.7770 C   0  0  0  0  0  1  0  0  0  0  0  0
  -27.7430  -32.4350   25.8030 C   0  0  0  0  0  1  0  0  0  0  0  0
  -22.1370  -30.9110   24.8510 C   0  0  0  0  0  2  0  0  0  0  0  0
  -22.6840  -29.3690   25.4450 C   0  0  0  0  0  2  0  0  0  0  0  0
  -23.9980  -28.5250   25.1680 N   0  0  0  0  0  4  0  0  0  0  0  0
  -24.8240  -29.0110   25.4790 H   0  0  0  0  0  0  0  0  0  0  0  0
  -23.9920  -28.5290   24.1410 H   0  0  0  0  0  0  0  0  0  0  0  0
  -24.1800  -26.9670   25.4040 C   0  0  0  0  0  2  0  0  0  0  0  0
  -24.8720  -25.9330   24.2670 C   0  0  0  0  0  2  0  0  0  0  0  0
  -25.6510  -24.6310   24.5500 O   0  0  0  0  0  0  0  0  0  0  0  0
  -25.7060  -23.3840   23.6450 C   0  0  0  0  0  3  0  0  0  0  0  0
  -26.9980  -22.3160   23.4960 C   0  0  0  0  0  3  0  0  0  0  0  0
  -26.9390  -20.7510   22.8800 C   0  0  0  0  0  3  0  0  0  0  0  0
  -28.2660  -19.7890   22.5020 C   0  0  0  0  0  3  0  0  0  0  0  0
  -28.2390  -18.1730   22.0530 C   0  0  0  0  0  3  0  0  0  0  0  0
  -29.5800  -17.2930   21.5700 C   0  0  0  0  0  3  0  0  0  0  0  0
  -30.4210  -14.8040   20.6960 C   0  0  0  0  0  0  0  0  0  0  0  0
  -30.4460  -12.5460   19.5080 C   0  0  0  0  0  2  0  0  0  0  0  0
  -29.5220  -12.5650   18.2650 C   0  0  0  0  0  2  0  0  0  0  0  0
  -28.0450  -12.3570   18.6530 C   0  0  0  0  0  2  0  0  0  0  0  0
  -27.6360  -13.2140   19.8780 C   0  0  0  0  0  3  0  0  0  0  0  0
  -28.6470  -13.0650   21.0270 C   0  0  0  0  0  2  0  0  0  0  0  0
  -29.9320  -13.5260   20.5080 N   0  0  0  0  0  0  0  0  0  0  0  0
  -31.5590  -15.0600   20.2700 O   0  0  0  0  0  0  0  0  0  0  0  0
  -29.5380  -15.7590   21.2620 N   0  0  0  0  0  0  0  0  0  0  0  0
  -28.6580  -15.3370   21.5230 H   0  0  0  0  0  0  0  0  0  0  0  0
  -25.2470  -13.8160   20.5670 C   0  0  0  0  0  0  0  0  0  0  0  0
  -24.1730  -13.0400   20.9180 C   0  0  0  0  0  0  0  0  0  0  0  0
  -24.6300  -11.6890   20.8710 C   0  0  0  0  0  0  0  0  0  0  0  0
  -26.2820  -12.9300   20.3270 N   0  0  0  0  0  0  0  0  0  0  0  0
  -25.9220  -11.6450   20.5680 N   0  0  0  0  0  0  0  0  0  0  0  0
  -23.8980  -10.4260   21.0420 C   0  0  0  0  0  0  0  0  0  0  0  0
  -24.3540   -9.4200   21.9190 C   0  0  0  0  0  3  0  0  0  0  0  0
  -23.6230   -8.2230   22.0760 C   0  0  0  0  0  3  0  0  0  0  0  0
  -22.4230   -8.0240   21.3540 C   0  0  0  0  0  0  0  0  0  0  0  0
  -21.9840   -9.0210   20.4660 C   0  0  0  0  0  3  0  0  0  0  0  0
  -22.7140  -10.2090   20.3080 C   0  0  0  0  0  3  0  0  0  0  0  0
  -21.6640   -6.8810   21.4220 O   0  0  0  0  0  0  0  0  0  0  0  0
  -21.6860   -6.0680   22.5260 C   0  0  0  0  0  0  0  0  0  0  0  0
  -21.4010   -6.5610   23.8170 C   0  0  0  0  0  3  0  0  0  0  0  0
  -21.3660   -5.6780   24.9150 C   0  0  0  0  0  3  0  0  0  0  0  0
  -21.6060   -4.3040   24.7230 C   0  0  0  0  0  0  0  0  0  0  0  0
  -21.8820   -3.8100   23.4350 C   0  0  0  0  0  3  0  0  0  0  0  0
  -21.9190   -4.6910   22.3400 C   0  0  0  0  0  0  0  0  0  0  0  0
  -22.1670   -4.2080   21.0990 F   0  0  0  0  0  0  0  0  0  0  0  0
  -21.5650   -3.4550   25.7760 F   0  0  0  0  0  0  0  0  0  0  0  0
  -22.7760  -13.5240   21.1840 C   0  0  0  0  0  0  0  0  0  0  0  0
  -22.0440  -12.8220   22.0430 N   0  0  0  0  0  0  0  0  0  0  0  0
  -22.3430  -14.5530   20.6700 O   0  0  0  0  0  0  0  0  0  0  0  0
  -22.4080  -11.9900   22.4810 H   0  0  0  0  0  0  0  0  0  0  0  0
  -21.1070  -13.1260   22.2720 H   0  0  0  0  0  0  0  0  0  0  0  0
  -25.4250  -15.1860   20.4110 N   0  0  0  0  0  0  0  0  0  0  0  0
  -24.6640  -15.8500   20.5100 H   0  0  0  0  0  0  0  0  0  0  0  0
  -26.2670  -15.6090   20.0400 H   0  0  0  0  0  0  0  0  0  0  0  0
  1 54  1  0
  2  1  1  0
  3  4  1  0
  4  6  1  0
  4  2  1  0
  5  3  2  0
  7  3  1  0
  8 10  1  0
  8  7  1  0
  9  8  1  0
 11  8  1  0
 12 11  1  0
 12 13  1  0
 13 15  1  0
 14 25  2  0
 15 20  1  0
 16 24  1  0
 16 26  1  0
 17 23  1  0
 17 19  1  0
 18 24  1  0
 19 20  2  0
 19 18  1  0
 21 22  1  0
 21 15  2  0
 22 17  2  0
 23 16  1  0
 24 14  1  0
 26 28  2  0
 27 26  1  0
 29 27  1  0
 30 39  2  0
 30 35  1  0
 31 27  1  0
 31 35  1  0
 32 31  1  0
 33 34  1  0
 33 32  1  0
 34 30  1  0
 35 36  2  0
 36 37  1  0
 38 37  2  0
 39 38  1  0
 40 14  1  0
 40 41  1  0
 40 50  1  0
 41 44  1  0
 42 46  1  0
 42 41  1  0
 43 42  2  0
 46 45  1  0
 48 46  1  0
 48 49  1  0
 48 47  1  0
 50 53  1  1
 50 51  1  0
 52 50  1  0
 54 55  1  0
 56 59  1  0
 56 55  1  0
 56 57  1  0
 58 56  1  0
 60 61  1  0
 60 59  1  0
 62 61  1  0
 63 62  2  0
 64 63  1  0
 65 64  2  0
 66 65  1  0
 67 66  2  0
 68 76  1  0
 69 74  1  0
 70 71  1  0
 70 69  1  0
 72 71  1  0
 72 81  1  0
 72 73  1  0
 74 68  1  0
 74 73  1  0
 75 68  2  0
 76 77  1  0
 76 67  1  0
 78 79  2  0
 79 98  1  0
 80 79  1  0
 80 83  1  0
 81 78  1  0
 81 82  1  0
 82 80  2  0
 83 84  1  0
 84 85  2  0
 86 89  1  0
 86 85  1  0
 87 86  2  0
 88 87  1  0
 88 83  2  0
 89 90  1  0
 90 91  1  0
 91 92  2  0
 93 92  1  0
 93 97  1  0
 94 93  2  0
 95 90  2  0
 95 94  1  0
 96 95  1  0
 98 99  1  0
 99102  1  0
 99101  1  0
100 98  2  0
103104  1  0
103 78  1  0
105103  1  0
M  ISO  4  12 101  13 101  68 100  76 100
M  END
>  <TORSDO>  (13) 
F 34

>  <SCORE>  (13) 
36.681

>  <name>  (13) 
14

>  <ligand_id>  (13) 
14

>  <original_smiles>  (13) 
[H]c1c([H])c([H])c2c(c1[H])C([H])([H])C([H])([H])C([H])([H])C2([H])N([H])C(=O)C1([H])N(C(=O)C([H])(N([H])C(=O)C([H])(N([H])C([H])([H])[H])C([H])([H])[H])C(C([H])([H])[H])(C([H])([H])[H])C([H])([H])[H])C([H])([H])c2c([H])c(OC([H])([H])C([H])([H])[N+]([H])([H])C([H])([H])C(=O)N([H])C([H])([H])C([H])([H])C([H])([H])C([H])([H])[N+]([H])([H])C([H])([H])C([H])([H])OC([H])([H])C([H])([H])C([H])([H])C([H])([H])C([H])([H])C([H])([H])N([H])C(=O)N3C([H])([H])C([H])([H])C([H])([H])C([H])(n4nc(-c5c([H])c([H])c(Oc6c([H])c([H])c(F)c([H])c6F)c([H])c5[H])c(C(=O)N([H])[H])c4N([H])[H])C3([H])[H])c([H])c([H])c2C1([H])[H]

>  <smiles>  (13) 
[H]c1c([H])c([H])c2c(c1[H])C([H])([H])C([H])([H])C([H])([H])C2([H])N([H])C(=O)C1([H])N(C(=O)C([H])(N([H])C(=O)C([H])(N([H])C([H])([H])[H])C([H])([H])[H])C(C([H])([H])[H])(C([H])([H])[H])C([H])([H])[H])C([H])([H])c2c([H])c(OC([H])([H])C([H])([H])[N+]([H])([H])C([H])([H])C(=O)N([H])C([H])([H])C([H])([H])C([H])([H])C([H])([H])[N+]([H])([H])C([H])([H])C([H])([H])OC([H])([H])C([H])([H])C([H])([H])C([H])([H])C([H])([H])C([H])([H])N([H])C(=O)N3C([H])([H])C([H])([H])C([H])([H])C([H])(n4nc(-c5c([H])c([H])c(Oc6c([H])c([H])c(F)c([H])c6F)c([H])c5[H])c(C(=O)N([H])[H])c4N([H])[H])C3([H])[H])c([H])c([H])c2C1([H])[H]

$$$$
15:0:0
     RDKit          3D

 95102  0  0  1  0  0  0  0  0999 V2000
  -25.4010  -22.6930   20.0140 C   0  0  0  0  0  0  0  0  0  0  0  0
  -25.8770  -23.3360   18.9390 N   0  0  0  0  0  0  0  0  0  0  0  0
  -24.2920  -22.9280   20.4970 O   0  0  0  0  0  0  0  0  0  0  0  0
  -26.7850  -23.0150   18.6250 H   0  0  0  0  0  0  0  0  0  0  0  0
  -25.1880  -24.3720   18.1770 C   0  0  0  0  0  2  0  0  0  0  0  0
  -26.1560  -25.3040   17.4230 C   0  0  0  0  0  2  0  0  0  0  0  0
  -27.3160  -25.8550   18.2810 C   0  0  0  0  0  2  0  0  0  0  0  0
  -28.1780  -26.9220   17.5780 C   0  0  0  0  0  2  0  0  0  0  0  0
  -27.3920  -27.9360   16.9410 O   0  0  0  0  0  0  0  0  0  0  0  0
  -25.3870  -29.9620   23.4660 C   0  0  0  0  0  0  0  0  0  0  0  0
  -26.4270  -28.5020   17.7370 C   0  0  0  0  0  0  0  0  0  0  0  0
  -23.6130  -29.9320   21.7440 C   0  0  0  0  0  3  0  0  0  0  0  0
  -24.4070  -29.6530   19.3350 C   0  0  0  0  0  0  0  0  0  0  0  0
  -26.0540  -30.3210   21.0950 C   0  0  0  0  0  2  0  0  0  0  0  0
  -25.7410  -29.6690   19.7660 C   0  0  0  0  0  0  0  0  0  0  0  0
  -26.7570  -29.0910   18.9760 C   0  0  0  0  0  3  0  0  0  0  0  0
  -25.0900  -28.5240   17.2950 C   0  0  0  0  0  3  0  0  0  0  0  0
  -24.0760  -29.0840   18.0930 C   0  0  0  0  0  3  0  0  0  0  0  0
  -23.3840  -30.2870   20.2510 C   0  0  0  0  0  2  0  0  0  0  0  0
  -25.0510  -30.0420   22.1490 N   0  0  0  0  0  0  0  0  0  0  0  0
  -24.5220  -29.8320   24.3430 O   0  0  0  0  0  0  0  0  0  0  0  0
  -23.0080  -28.5370   22.0190 C   0  0  0  0  0  0  0  0  0  0  0  0
  -21.6760  -28.4280   21.8870 N   0  0  0  0  0  0  0  0  0  0  0  0
  -23.7290  -27.5790   22.3140 O   0  0  0  0  0  0  0  0  0  0  0  0
  -21.1520  -29.2590   21.6490 H   0  0  0  0  0  0  0  0  0  0  0  0
  -18.3950  -26.9960   21.4420 C   0  0  0  0  0  0  0  0  0  0  0  0
  -20.8960  -27.2060   22.0590 C   0  0  0  0  0  3  0  0  0  0  0  0
  -21.1630  -26.2180   20.9010 C   0  0  0  0  0  2  0  0  0  0  0  0
  -20.1660  -26.3690   19.7490 C   0  0  0  0  0  2  0  0  0  0  0  0
  -18.7360  -26.1250   20.2430 C   0  0  0  0  0  2  0  0  0  0  0  0
  -19.4110  -27.5190   22.2840 C   0  0  0  0  0  0  0  0  0  0  0  0
  -19.0420  -28.3640   23.3550 C   0  0  0  0  0  3  0  0  0  0  0  0
  -17.6900  -28.6670   23.6010 C   0  0  0  0  0  3  0  0  0  0  0  0
  -16.6880  -28.1250   22.7780 C   0  0  0  0  0  3  0  0  0  0  0  0
  -17.0420  -27.2950   21.6990 C   0  0  0  0  0  3  0  0  0  0  0  0
  -26.8700  -30.0500   23.9350 C   0  0  0  0  0  3  0  0  0  0  0  0
  -27.4450  -28.6700   24.4370 C   0  0  1  0  0  0  0  0  0  0  0  0
  -26.5530  -27.9750   25.4910 C   0  0  0  0  0  1  0  0  0  0  0  0
  -27.6240  -27.6930   23.2500 C   0  0  0  0  0  1  0  0  0  0  0  0
  -28.8440  -28.8790   25.0620 C   0  0  0  0  0  1  0  0  0  0  0  0
  -26.9400  -31.0600   24.9970 N   0  0  0  0  0  0  0  0  0  0  0  0
  -27.4080  -32.3050   24.8370 C   0  0  0  0  0  0  0  0  0  0  0  0
  -27.8990  -32.7020   23.7760 O   0  0  0  0  0  0  0  0  0  0  0  0
  -26.5160  -30.8110   25.8770 H   0  0  0  0  0  0  0  0  0  0  0  0
  -26.1260  -34.2190   25.8490 C   0  0  0  0  0  1  0  0  0  0  0  0
  -27.3120  -33.2590   26.0440 C   0  0  0  0  0  3  0  0  0  0  0  0
  -29.6730  -33.2210   26.7200 C   0  0  0  0  0  1  0  0  0  0  0  0
  -28.5460  -34.0380   26.2790 N   0  0  0  0  0  0  0  0  0  0  0  0
  -28.3890  -34.7640   26.9720 H   0  0  0  0  0  0  0  0  0  0  0  0
  -26.3090  -21.6160   20.6220 C   0  0  0  0  0  2  0  0  0  0  0  0
  -27.5230  -21.5950   19.8900 O   0  0  0  0  0  0  0  0  0  0  0  0
  -28.4950  -20.6980   20.3850 C   0  0  0  0  0  2  0  0  0  0  0  0
  -29.7860  -21.0690   19.6550 C   0  0  0  0  0  2  0  0  0  0  0  0
  -30.0150  -20.1820   18.4210 C   0  0  0  0  0  2  0  0  0  0  0  0
  -31.4980  -19.9630   18.1070 C   0  0  0  0  0  2  0  0  0  0  0  0
  -31.7800  -18.5250   17.6420 C   0  0  0  0  0  2  0  0  0  0  0  0
  -33.2100  -18.0500   17.9730 C   0  0  0  0  0  2  0  0  0  0  0  0
  -33.7500  -15.8460   18.9920 C   0  0  0  0  0  0  0  0  0  0  0  0
  -33.6800  -13.5470   19.8760 C   0  0  0  0  0  2  0  0  0  0  0  0
  -32.8550  -12.6000   18.9840 C   0  0  0  0  0  2  0  0  0  0  0  0
  -31.3510  -12.6830   19.3050 C   0  0  0  0  0  2  0  0  0  0  0  0
  -30.8370  -14.1440   19.3730 C   0  0  0  0  0  3  0  0  0  0  0  0
  -31.7570  -14.9960   20.2730 C   0  0  0  0  0  2  0  0  0  0  0  0
  -33.1420  -14.9070   19.7590 N   0  0  0  0  0  0  0  0  0  0  0  0
  -34.7750  -15.6370   18.3310 O   0  0  0  0  0  0  0  0  0  0  0  0
  -33.1490  -17.0380   19.0180 N   0  0  0  0  0  0  0  0  0  0  0  0
  -32.4080  -17.1440   19.7000 H   0  0  0  0  0  0  0  0  0  0  0  0
  -28.6430  -15.2990   20.0840 C   0  0  0  0  0  0  0  0  0  0  0  0
  -27.4030  -14.7980   20.3890 C   0  0  0  0  0  0  0  0  0  0  0  0
  -27.5190  -13.3780   20.2920 C   0  0  0  0  0  0  0  0  0  0  0  0
  -29.4410  -14.1970   19.8140 N   0  0  0  0  0  0  0  0  0  0  0  0
  -28.7650  -13.0350   19.9920 N   0  0  0  0  0  0  0  0  0  0  0  0
  -26.5040  -12.3230   20.4150 C   0  0  0  0  0  0  0  0  0  0  0  0
  -26.5690  -11.3460   21.4350 C   0  0  0  0  0  3  0  0  0  0  0  0
  -25.5750  -10.3520   21.5410 C   0  0  0  0  0  3  0  0  0  0  0  0
  -24.4960  -10.3260   20.6230 C   0  0  0  0  0  0  0  0  0  0  0  0
  -24.4470  -11.2850   19.5960 C   0  0  0  0  0  3  0  0  0  0  0  0
  -25.4430  -12.2720   19.4910 C   0  0  0  0  0  3  0  0  0  0  0  0
  -23.4990   -9.3830   20.6350 O   0  0  0  0  0  0  0  0  0  0  0  0
  -22.9960   -8.8790   21.8090 C   0  0  0  0  0  0  0  0  0  0  0  0
  -22.3740   -9.7060   22.7690 C   0  0  0  0  0  3  0  0  0  0  0  0
  -21.8090   -9.1370   23.9280 C   0  0  0  0  0  3  0  0  0  0  0  0
  -21.8580   -7.7450   24.1250 C   0  0  0  0  0  0  0  0  0  0  0  0
  -22.4720   -6.9180   23.1680 C   0  0  0  0  0  3  0  0  0  0  0  0
  -23.0380   -7.4860   22.0120 C   0  0  0  0  0  0  0  0  0  0  0  0
  -23.6120   -6.6830   21.0820 F   0  0  0  0  0  0  0  0  0  0  0  0
  -21.3070   -7.1950   25.2320 F   0  0  0  0  0  0  0  0  0  0  0  0
  -26.1620  -15.5940   20.6650 C   0  0  0  0  0  0  0  0  0  0  0  0
  -25.2710  -15.0700   21.5000 N   0  0  0  0  0  0  0  0  0  0  0  0
  -25.9980  -16.7130   20.1800 O   0  0  0  0  0  0  0  0  0  0  0  0
  -25.4230  -14.1700   21.9300 H   0  0  0  0  0  0  0  0  0  0  0  0
  -24.4310  -15.5850   21.7200 H   0  0  0  0  0  0  0  0  0  0  0  0
  -29.1500  -16.5910   20.0100 N   0  0  0  0  0  0  0  0  0  0  0  0
  -28.5960  -17.3990   20.2730 H   0  0  0  0  0  0  0  0  0  0  0  0
  -30.1200  -16.8150   19.8270 H   0  0  0  0  0  0  0  0  0  0  0  0
  1  3  2  0
  1 50  1  0
  2  1  1  0
  4  2  1  0
  5  2  1  0
  6  5  1  0
  6  7  1  0
  8  7  1  0
  9  8  1  0
  9 11  1  0
 10 21  2  0
 11 16  1  0
 12 22  1  0
 12 20  1  0
 13 15  1  0
 13 19  1  0
 14 20  1  0
 15 14  1  0
 16 15  2  0
 17 11  2  0
 17 18  1  0
 18 13  2  0
 19 12  1  0
 20 10  1  0
 22 24  2  0
 23 22  1  0
 25 23  1  0
 26 35  2  0
 26 31  1  0
 27 23  1  0
 27 31  1  0
 28 27  1  0
 29 30  1  0
 29 28  1  0
 30 26  1  0
 31 32  2  0
 32 33  1  0
 34 33  2  0
 35 34  1  0
 36 10  1  0
 36 37  1  0
 36 41  1  0
 37 40  1  1
 37 38  1  0
 39 37  1  0
 41 44  1  0
 42 41  1  0
 42 46  1  0
 43 42  2  0
 46 45  1  0
 46 48  1  0
 48 47  1  0
 48 49  1  0
 51 52  1  0
 51 50  1  0
 53 52  1  0
 54 53  1  0
 55 54  1  0
 56 57  1  0
 56 55  1  0
 57 66  1  0
 58 66  1  0
 58 64  1  0
 60 61  1  0
 60 59  1  0
 62 61  1  0
 62 71  1  0
 62 63  1  0
 64 59  1  0
 64 63  1  0
 65 58  2  0
 66 67  1  0
 68 69  2  0
 69 88  1  0
 70 69  1  0
 70 73  1  0
 71 72  1  0
 71 68  1  0
 72 70  2  0
 73 74  1  0
 74 75  2  0
 76 79  1  0
 76 75  1  0
 77 76  2  0
 78 77  1  0
 78 73  2  0
 79 80  1  0
 80 85  2  0
 80 81  1  0
 81 82  2  0
 82 83  1  0
 83 87  1  0
 84 83  2  0
 85 84  1  0
 86 85  1  0
 88 89  1  0
 89 92  1  0
 89 91  1  0
 90 88  2  0
 93 68  1  0
 93 94  1  0
 95 93  1  0
M  ISO  4   8 101   9 101  58 100  66 100
M  END
>  <TORSDO>  (14) 
F 28

>  <SCORE>  (14) 
-2.987

>  <name>  (14) 
15

>  <ligand_id>  (14) 
15

>  <original_smiles>  (14) 
[H]c1c([H])c([H])c2c(c1[H])C([H])([H])C([H])([H])C([H])([H])C2([H])N([H])C(=O)C1([H])N(C(=O)C([H])(N([H])C(=O)C([H])(N([H])C([H])([H])[H])C([H])([H])[H])C(C([H])([H])[H])(C([H])([H])[H])C([H])([H])[H])C([H])([H])c2c([H])c(OC([H])([H])C([H])([H])C([H])([H])C([H])([H])N([H])C(=O)C([H])([H])OC([H])([H])C([H])([H])C([H])([H])C([H])([H])C([H])([H])C([H])([H])N([H])C(=O)N3C([H])([H])C([H])([H])C([H])([H])C([H])(n4nc(-c5c([H])c([H])c(Oc6c([H])c([H])c(F)c([H])c6F)c([H])c5[H])c(C(=O)N([H])[H])c4N([H])[H])C3([H])[H])c([H])c([H])c2C1([H])[H]

>  <smiles>  (14) 
[H]c1c([H])c([H])c2c(c1[H])C([H])([H])C([H])([H])C([H])([H])C2([H])N([H])C(=O)C1([H])N(C(=O)C([H])(N([H])C(=O)C([H])(N([H])C([H])([H])[H])C([H])([H])[H])C(C([H])([H])[H])(C([H])([H])[H])C([H])([H])[H])C([H])([H])c2c([H])c(OC([H])([H])C([H])([H])C([H])([H])C([H])([H])N([H])C(=O)C([H])([H])OC([H])([H])C([H])([H])C([H])([H])C([H])([H])C([H])([H])C([H])([H])N([H])C(=O)N3C([H])([H])C([H])([H])C([H])([H])C([H])(n4nc(-c5c([H])c([H])c(Oc6c([H])c([H])c(F)c([H])c6F)c([H])c5[H])c(C(=O)N([H])[H])c4N([H])[H])C3([H])[H])c([H])c([H])c2C1([H])[H]

$$$$
16:0:0
     RDKit          3D

 95102  0  0  1  0  0  0  0  0999 V2000
  -28.7200  -23.1600   24.5240 C   0  0  0  0  0  2  0  0  0  0  0  0
  -28.8400  -21.7770   23.8280 C   0  0  0  0  0  2  0  0  0  0  0  0
  -30.2210  -21.2250   23.8740 N   0  0  0  0  0  4  0  0  0  0  0  0
  -30.6120  -21.3890   24.7890 H   0  0  0  0  0  0  0  0  0  0  0  0
  -30.1680  -20.2240   23.7580 H   0  0  0  0  0  0  0  0  0  0  0  0
  -31.1170  -21.7390   22.8040 C   0  0  0  0  0  2  0  0  0  0  0  0
  -32.5890  -21.3060   22.9690 C   0  0  0  0  0  2  0  0  0  0  0  0
  -33.2940  -21.0200   21.6190 C   0  0  0  0  0  2  0  0  0  0  0  0
  -34.7840  -20.6580   21.7860 C   0  0  0  0  0  2  0  0  0  0  0  0
  -35.3680  -19.7010   20.7240 C   0  0  0  0  0  2  0  0  0  0  0  0
  -34.8960  -17.5630   19.5820 C   0  0  0  0  0  0  0  0  0  0  0  0
  -34.4310  -15.3140   18.6800 C   0  0  0  0  0  2  0  0  0  0  0  0
  -33.5760  -15.3340   17.3990 C   0  0  0  0  0  2  0  0  0  0  0  0
  -32.0810  -15.3490   17.7520 C   0  0  0  0  0  2  0  0  0  0  0  0
  -31.7290  -16.4400   18.7960 C   0  0  0  0  0  3  0  0  0  0  0  0
  -32.6930  -16.3980   20.0060 C   0  0  0  0  0  2  0  0  0  0  0  0
  -34.0800  -16.4780   19.5080 N   0  0  0  0  0  0  0  0  0  0  0  0
  -35.9620  -17.6420   18.9620 O   0  0  0  0  0  0  0  0  0  0  0  0
  -34.5230  -18.5420   20.4200 N   0  0  0  0  0  0  0  0  0  0  0  0
  -33.6430  -18.4390   20.9030 H   0  0  0  0  0  0  0  0  0  0  0  0
  -29.4220  -17.3420   19.4910 C   0  0  0  0  0  0  0  0  0  0  0  0
  -28.2350  -16.7140   19.7620 C   0  0  0  0  0  0  0  0  0  0  0  0
  -28.4910  -15.3160   19.6280 C   0  0  0  0  0  0  0  0  0  0  0  0
  -30.3320  -16.3370   19.2150 N   0  0  0  0  0  0  0  0  0  0  0  0
  -29.7720  -15.1070   19.3550 N   0  0  0  0  0  0  0  0  0  0  0  0
  -27.5770  -14.1650   19.6890 C   0  0  0  0  0  0  0  0  0  0  0  0
  -27.7450  -13.1390   20.6450 C   0  0  0  0  0  3  0  0  0  0  0  0
  -26.8430  -12.0550   20.6970 C   0  0  0  0  0  3  0  0  0  0  0  0
  -25.7570  -11.9900   19.7910 C   0  0  0  0  0  0  0  0  0  0  0  0
  -25.6070  -13.0020   18.8280 C   0  0  0  0  0  3  0  0  0  0  0  0
  -26.5080  -14.0790   18.7740 C   0  0  0  0  0  3  0  0  0  0  0  0
  -24.8490  -10.9580   19.7500 O   0  0  0  0  0  0  0  0  0  0  0  0
  -24.4250  -10.3250   20.8890 C   0  0  0  0  0  0  0  0  0  0  0  0
  -23.7760  -11.0250   21.9300 C   0  0  0  0  0  3  0  0  0  0  0  0
  -23.2960  -10.3280   23.0570 C   0  0  0  0  0  3  0  0  0  0  0  0
  -23.4490   -8.9300   23.1390 C   0  0  0  0  0  0  0  0  0  0  0  0
  -24.0880   -8.2310   22.1000 C   0  0  0  0  0  3  0  0  0  0  0  0
  -24.5690   -8.9250   20.9770 C   0  0  0  0  0  0  0  0  0  0  0  0
  -25.1670   -8.2430   19.9690 F   0  0  0  0  0  0  0  0  0  0  0  0
  -22.9770   -8.2590   24.2150 F   0  0  0  0  0  0  0  0  0  0  0  0
  -26.9150  -17.3740   20.0390 C   0  0  0  0  0  0  0  0  0  0  0  0
  -26.0660  -16.7270   20.8310 N   0  0  0  0  0  0  0  0  0  0  0  0
  -26.6500  -18.4930   19.6000 O   0  0  0  0  0  0  0  0  0  0  0  0
  -26.2960  -15.8170   21.2020 H   0  0  0  0  0  0  0  0  0  0  0  0
  -25.1770  -17.1430   21.0690 H   0  0  0  0  0  0  0  0  0  0  0  0
  -29.7960  -18.6810   19.4270 N   0  0  0  0  0  0  0  0  0  0  0  0
  -29.1450  -19.4390   19.5960 H   0  0  0  0  0  0  0  0  0  0  0  0
  -30.7160  -18.9960   19.1470 H   0  0  0  0  0  0  0  0  0  0  0  0
  -28.0620  -24.2780   23.6760 C   0  0  0  0  0  2  0  0  0  0  0  0
  -28.8720  -24.6230   22.4830 N   0  0  0  0  0  4  0  0  0  0  0  0
  -28.6280  -23.9810   21.7450 H   0  0  0  0  0  0  0  0  0  0  0  0
  -29.8470  -24.4870   22.7030 H   0  0  0  0  0  0  0  0  0  0  0  0
  -28.7080  -26.0020   21.9600 C   0  0  0  0  0  2  0  0  0  0  0  0
  -29.2150  -26.0970   20.5020 C   0  0  0  0  0  2  0  0  0  0  0  0
  -29.1110  -27.4160   19.9660 O   0  0  0  0  0  0  0  0  0  0  0  0
  -24.5790  -31.7610   23.2310 C   0  0  0  0  0  0  0  0  0  0  0  0
  -27.8490  -27.9540   19.9590 C   0  0  0  0  0  0  0  0  0  0  0  0
  -23.6010  -30.3670   21.4360 C   0  0  0  0  0  3  0  0  0  0  0  0
  -25.2780  -29.1230   19.9690 C   0  0  0  0  0  0  0  0  0  0  0  0
  -26.0650  -31.0430   21.3680 C   0  0  0  0  0  2  0  0  0  0  0  0
  -26.3400  -29.7490   20.6370 C   0  0  0  0  0  0  0  0  0  0  0  0
  -27.6260  -29.1740   20.6250 C   0  0  0  0  0  3  0  0  0  0  0  0
  -26.7760  -27.3300   19.2850 C   0  0  0  0  0  3  0  0  0  0  0  0
  -25.4910  -27.9050   19.2920 C   0  0  0  0  0  3  0  0  0  0  0  0
  -23.9350  -29.8170   20.0220 C   0  0  0  0  0  2  0  0  0  0  0  0
  -24.7640  -31.0680   22.0720 N   0  0  0  0  0  0  0  0  0  0  0  0
  -23.4570  -31.8640   23.7440 O   0  0  0  0  0  0  0  0  0  0  0  0
  -23.0440  -29.2060   22.2900 C   0  0  0  0  0  0  0  0  0  0  0  0
  -21.7590  -28.8770   22.0830 N   0  0  0  0  0  0  0  0  0  0  0  0
  -23.7650  -28.6030   23.0880 O   0  0  0  0  0  0  0  0  0  0  0  0
  -21.2300  -29.4200   21.4140 H   0  0  0  0  0  0  0  0  0  0  0  0
  -18.5430  -27.2560   22.3110 C   0  0  0  0  0  0  0  0  0  0  0  0
  -21.0340  -27.7910   22.7380 C   0  0  0  0  0  3  0  0  0  0  0  0
  -21.3360  -26.4330   22.0620 C   0  0  0  0  0  2  0  0  0  0  0  0
  -20.3260  -26.0620   20.9710 C   0  0  0  0  0  2  0  0  0  0  0  0
  -18.9110  -25.9940   21.5510 C   0  0  0  0  0  2  0  0  0  0  0  0
  -19.5410  -28.1070   22.8530 C   0  0  0  0  0  0  0  0  0  0  0  0
  -19.1450  -29.2870   23.5200 C   0  0  0  0  0  3  0  0  0  0  0  0
  -17.7830  -29.6170   23.6510 C   0  0  0  0  0  3  0  0  0  0  0  0
  -16.7980  -28.7630   23.1280 C   0  0  0  0  0  3  0  0  0  0  0  0
  -17.1800  -27.5840   22.4620 C   0  0  0  0  0  3  0  0  0  0  0  0
  -25.7610  -32.4800   23.9540 C   0  0  0  0  0  3  0  0  0  0  0  0
  -25.3370  -33.8560   24.2390 N   0  0  0  0  0  0  0  0  0  0  0  0
  -25.6820  -34.9220   23.5040 C   0  0  0  0  0  0  0  0  0  0  0  0
  -26.4640  -34.8550   22.5520 O   0  0  0  0  0  0  0  0  0  0  0  0
  -24.6590  -33.9770   24.9770 H   0  0  0  0  0  0  0  0  0  0  0  0
  -23.8940  -36.5960   22.9430 C   0  0  0  0  0  1  0  0  0  0  0  0
  -25.0630  -36.2770   23.8890 C   0  0  0  0  0  3  0  0  0  0  0  0
  -27.0530  -37.2850   24.9180 C   0  0  0  0  0  1  0  0  0  0  0  0
  -26.0370  -37.3910   23.8730 N   0  0  0  0  0  0  0  0  0  0  0  0
  -25.5650  -38.2860   23.9760 H   0  0  0  0  0  0  0  0  0  0  0  0
  -26.2130  -31.7520   25.2790 C   0  0  1  0  0  0  0  0  0  0  0  0
  -25.0440  -31.4250   26.2360 C   0  0  0  0  0  1  0  0  0  0  0  0
  -26.9410  -30.4280   24.9500 C   0  0  0  0  0  1  0  0  0  0  0  0
  -27.2290  -32.6320   26.0430 C   0  0  0  0  0  1  0  0  0  0  0  0
  2  3  1  0
  2  1  1  0
  3  4  1  0
  5  3  1  0
  6  7  1  0
  6  3  1  0
  8  9  1  0
  8  7  1  0
 10  9  1  0
 11 19  1  0
 12 17  1  0
 13 14  1  0
 13 12  1  0
 15 14  1  0
 15 24  1  0
 15 16  1  0
 17 11  1  0
 17 16  1  0
 18 11  2  0
 19 10  1  0
 19 20  1  0
 21 22  2  0
 22 41  1  0
 23 26  1  0
 23 22  1  0
 24 25  1  0
 24 21  1  0
 25 23  2  0
 26 27  1  0
 27 28  2  0
 29 28  1  0
 30 29  2  0
 31 30  1  0
 31 26  2  0
 32 29  1  0
 32 33  1  0
 33 38  2  0
 33 34  1  0
 34 35  2  0
 35 36  1  0
 36 40  1  0
 37 36  2  0
 38 37  1  0
 39 38  1  0
 41 42  1  0
 42 45  1  0
 42 44  1  0
 43 41  2  0
 46 21  1  0
 46 47  1  0
 48 46  1  0
 49  1  1  0
 50 52  1  0
 50 49  1  0
 51 50  1  0
 53 50  1  0
 54 53  1  0
 55 54  1  0
 56 67  2  0
 57 55  1  0
 57 62  1  0
 58 66  1  0
 58 68  1  0
 59 65  1  0
 59 61  1  0
 60 66  1  0
 61 60  1  0
 62 61  2  0
 63 64  1  0
 63 57  2  0
 64 59  2  0
 65 58  1  0
 66 56  1  0
 68 70  2  0
 69 68  1  0
 71 69  1  0
 72 81  2  0
 72 77  1  0
 73 69  1  0
 73 77  1  0
 74 73  1  0
 75 76  1  0
 75 74  1  0
 76 72  1  0
 77 78  2  0
 78 79  1  0
 80 79  2  0
 81 80  1  0
 82 56  1  0
 82 83  1  0
 82 92  1  0
 83 86  1  0
 84 88  1  0
 84 83  1  0
 85 84  2  0
 88 87  1  0
 90 88  1  0
 90 91  1  0
 90 89  1  0
 92 95  1  1
 92 93  1  0
 94 92  1  0
M  ISO  4  11 100  19 100  54 101  55 101
M  END
>  <TORSDO>  (15) 
F 27

>  <SCORE>  (15) 
-0.220

>  <name>  (15) 
16

>  <ligand_id>  (15) 
16

>  <original_smiles>  (15) 
[H]c1c([H])c([H])c2c(c1[H])C([H])([H])C([H])([H])C([H])([H])C2([H])N([H])C(=O)C1([H])N(C(=O)C([H])(N([H])C(=O)C([H])(N([H])C([H])([H])[H])C([H])([H])[H])C(C([H])([H])[H])(C([H])([H])[H])C([H])([H])[H])C([H])([H])c2c([H])c(OC([H])([H])C([H])([H])[N+]([H])([H])C([H])([H])C([H])([H])C([H])([H])[N+]([H])([H])C([H])([H])C([H])([H])C([H])([H])C([H])([H])C([H])([H])N([H])C(=O)N3C([H])([H])C([H])([H])C([H])([H])C([H])(n4nc(-c5c([H])c([H])c(Oc6c([H])c([H])c(F)c([H])c6F)c([H])c5[H])c(C(=O)N([H])[H])c4N([H])[H])C3([H])[H])c([H])c([H])c2C1([H])[H]

>  <smiles>  (15) 
[H]c1c([H])c([H])c2c(c1[H])C([H])([H])C([H])([H])C([H])([H])C2([H])N([H])C(=O)C1([H])N(C(=O)C([H])(N([H])C(=O)C([H])(N([H])C([H])([H])[H])C([H])([H])[H])C(C([H])([H])[H])(C([H])([H])[H])C([H])([H])[H])C([H])([H])c2c([H])c(OC([H])([H])C([H])([H])[N+]([H])([H])C([H])([H])C([H])([H])C([H])([H])[N+]([H])([H])C([H])([H])C([H])([H])C([H])([H])C([H])([H])C([H])([H])N([H])C(=O)N3C([H])([H])C([H])([H])C([H])([H])C([H])(n4nc(-c5c([H])c([H])c(Oc6c([H])c([H])c(F)c([H])c6F)c([H])c5[H])c(C(=O)N([H])[H])c4N([H])[H])C3([H])[H])c([H])c([H])c2C1([H])[H]

$$$$
17:0:0
     RDKit          3D

 91 98  0  0  1  0  0  0  0  0999 V2000
  -29.4920  -22.4850   20.2130 C   0  0  0  0  0  0  0  0  0  0  0  0
  -29.9890  -23.4740   19.4550 N   0  0  0  0  0  0  0  0  0  0  0  0
  -28.7070  -22.6960   21.1400 O   0  0  0  0  0  0  0  0  0  0  0  0
  -30.6860  -23.2410   18.7610 H   0  0  0  0  0  0  0  0  0  0  0  0
  -29.7740  -20.0950   20.6150 C   0  0  0  0  0  3  0  0  0  0  0  0
  -30.0590  -21.1900   19.8750 C   0  0  0  0  0  3  0  0  0  0  0  0
  -30.2130  -17.8750   21.4130 C   0  0  0  0  0  3  0  0  0  0  0  0
  -30.3870  -18.7880   20.4300 C   0  0  0  0  0  0  0  0  0  0  0  0
  -31.2070  -18.5080   19.1740 C   0  0  0  0  0  1  0  0  0  0  0  0
  -30.9480  -16.5550   21.5930 C   0  0  0  0  0  2  0  0  0  0  0  0
  -30.7450  -14.3710   20.4830 C   0  0  0  0  0  0  0  0  0  0  0  0
  -30.3300  -12.2650   19.2840 C   0  0  0  0  0  2  0  0  0  0  0  0
  -29.3920  -12.5340   18.0930 C   0  0  0  0  0  2  0  0  0  0  0  0
  -27.9190  -12.4230   18.5250 C   0  0  0  0  0  2  0  0  0  0  0  0
  -27.6100  -13.2200   19.8230 C   0  0  0  0  0  3  0  0  0  0  0  0
  -28.6780  -12.9680   20.9130 C   0  0  0  0  0  2  0  0  0  0  0  0
  -30.0010  -13.2440   20.3300 N   0  0  0  0  0  0  0  0  0  0  0  0
  -31.8440  -14.5270   19.9430 O   0  0  0  0  0  0  0  0  0  0  0  0
  -30.2000  -15.3550   21.2080 N   0  0  0  0  0  0  0  0  0  0  0  0
  -29.2780  -15.2060   21.5910 H   0  0  0  0  0  0  0  0  0  0  0  0
  -25.2120  -13.8110   20.5430 C   0  0  0  0  0  0  0  0  0  0  0  0
  -24.1520  -13.0360   20.9150 C   0  0  0  0  0  0  0  0  0  0  0  0
  -24.6190  -11.6840   20.8850 C   0  0  0  0  0  0  0  0  0  0  0  0
  -26.2630  -12.9370   20.3090 N   0  0  0  0  0  0  0  0  0  0  0  0
  -25.9070  -11.6530   20.5710 N   0  0  0  0  0  0  0  0  0  0  0  0
  -23.8970  -10.4200   21.0800 C   0  0  0  0  0  0  0  0  0  0  0  0
  -24.3510   -9.4410   21.9920 C   0  0  0  0  0  3  0  0  0  0  0  0
  -23.6270   -8.2420   22.1760 C   0  0  0  0  0  3  0  0  0  0  0  0
  -22.4380   -8.0120   21.4440 C   0  0  0  0  0  0  0  0  0  0  0  0
  -22.0040   -8.9790   20.5200 C   0  0  0  0  0  3  0  0  0  0  0  0
  -22.7280  -10.1680   20.3340 C   0  0  0  0  0  3  0  0  0  0  0  0
  -21.6880   -6.8650   21.5350 O   0  0  0  0  0  0  0  0  0  0  0  0
  -21.6790   -6.0990   22.6740 C   0  0  0  0  0  0  0  0  0  0  0  0
  -21.3060   -6.6320   23.9260 C   0  0  0  0  0  3  0  0  0  0  0  0
  -21.2460   -5.7930   25.0570 C   0  0  0  0  0  3  0  0  0  0  0  0
  -21.5480   -4.4240   24.9380 C   0  0  0  0  0  0  0  0  0  0  0  0
  -21.9150   -3.8910   23.6890 C   0  0  0  0  0  3  0  0  0  0  0  0
  -21.9770   -4.7260   22.5590 C   0  0  0  0  0  0  0  0  0  0  0  0
  -22.3100   -4.2040   21.3550 F   0  0  0  0  0  0  0  0  0  0  0  0
  -21.4830   -3.6150   26.0200 F   0  0  0  0  0  0  0  0  0  0  0  0
  -22.7540  -13.5070   21.1920 C   0  0  0  0  0  0  0  0  0  0  0  0
  -22.0330  -12.8140   22.0660 N   0  0  0  0  0  0  0  0  0  0  0  0
  -22.3060  -14.5260   20.6660 O   0  0  0  0  0  0  0  0  0  0  0  0
  -22.4080  -11.9880   22.5110 H   0  0  0  0  0  0  0  0  0  0  0  0
  -21.0980  -13.1120   22.2980 H   0  0  0  0  0  0  0  0  0  0  0  0
  -25.3710  -15.1830   20.3640 N   0  0  0  0  0  0  0  0  0  0  0  0
  -24.5970  -15.8310   20.4740 H   0  0  0  0  0  0  0  0  0  0  0  0
  -26.2190  -15.6290   20.0380 H   0  0  0  0  0  0  0  0  0  0  0  0
  -29.8440  -24.9020   19.7490 C   0  0  0  0  0  2  0  0  0  0  0  0
  -28.4160  -25.4430   19.5890 C   0  0  0  0  0  2  0  0  0  0  0  0
  -28.3920  -26.7750   20.1040 O   0  0  0  0  0  0  0  0  0  0  0  0
  -24.5930  -31.8760   23.2400 C   0  0  0  0  0  0  0  0  0  0  0  0
  -27.1880  -27.4460   20.1300 C   0  0  0  0  0  0  0  0  0  0  0  0
  -23.3630  -30.4810   21.6100 C   0  0  0  0  0  3  0  0  0  0  0  0
  -24.7940  -28.9490   20.1640 C   0  0  0  0  0  0  0  0  0  0  0  0
  -25.8870  -30.8380   21.3860 C   0  0  0  0  0  2  0  0  0  0  0  0
  -25.9590  -29.4750   20.7360 C   0  0  0  0  0  0  0  0  0  0  0  0
  -27.1590  -28.7310   20.7160 C   0  0  0  0  0  3  0  0  0  0  0  0
  -25.9910  -26.9080   19.5980 C   0  0  0  0  0  3  0  0  0  0  0  0
  -24.8040  -27.6640   19.5970 C   0  0  0  0  0  3  0  0  0  0  0  0
  -23.5450  -29.7960   20.2300 C   0  0  0  0  0  2  0  0  0  0  0  0
  -24.6350  -31.0750   22.1380 N   0  0  0  0  0  0  0  0  0  0  0  0
  -23.5200  -32.1490   23.7910 O   0  0  0  0  0  0  0  0  0  0  0  0
  -22.7150  -29.4600   22.5710 C   0  0  0  0  0  0  0  0  0  0  0  0
  -21.3900  -29.2790   22.4490 N   0  0  0  0  0  0  0  0  0  0  0  0
  -23.4020  -28.8290   23.3790 O   0  0  0  0  0  0  0  0  0  0  0  0
  -20.8940  -29.8370   21.7660 H   0  0  0  0  0  0  0  0  0  0  0  0
  -18.0210  -28.0760   22.9660 C   0  0  0  0  0  0  0  0  0  0  0  0
  -20.5810  -28.3380   23.2250 C   0  0  0  0  0  3  0  0  0  0  0  0
  -20.6810  -26.9010   22.6560 C   0  0  0  0  0  2  0  0  0  0  0  0
  -19.5760  -26.5780   21.6450 C   0  0  0  0  0  2  0  0  0  0  0  0
  -18.1950  -26.7240   22.2910 C   0  0  0  0  0  2  0  0  0  0  0  0
  -19.1410  -28.8380   23.3930 C   0  0  0  0  0  0  0  0  0  0  0  0
  -18.9240  -30.1040   23.9810 C   0  0  0  0  0  3  0  0  0  0  0  0
  -17.6210  -30.6100   24.1400 C   0  0  0  0  0  3  0  0  0  0  0  0
  -16.5150  -29.8420   23.7320 C   0  0  0  0  0  3  0  0  0  0  0  0
  -16.7160  -28.5750   23.1550 C   0  0  0  0  0  3  0  0  0  0  0  0
  -25.8840  -32.5090   23.8480 C   0  0  0  0  0  3  0  0  0  0  0  0
  -25.5670  -33.9020   24.1940 N   0  0  0  0  0  0  0  0  0  0  0  0
  -25.8800  -34.9640   23.4400 C   0  0  0  0  0  0  0  0  0  0  0  0
  -26.5290  -34.8700   22.3960 O   0  0  0  0  0  0  0  0  0  0  0  0
  -24.9810  -34.0410   25.0040 H   0  0  0  0  0  0  0  0  0  0  0  0
  -24.1300  -36.7450   23.1380 C   0  0  0  0  0  1  0  0  0  0  0  0
  -25.3960  -36.3510   23.9160 C   0  0  0  0  0  3  0  0  0  0  0  0
  -27.5490  -37.2410   24.6860 C   0  0  0  0  0  1  0  0  0  0  0  0
  -26.4200  -37.4120   23.7750 N   0  0  0  0  0  0  0  0  0  0  0  0
  -26.0160  -38.3300   23.9440 H   0  0  0  0  0  0  0  0  0  0  0  0
  -26.4130  -31.7320   25.1140 C   0  0  1  0  0  0  0  0  0  0  0  0
  -25.3310  -31.4890   26.1940 C   0  0  0  0  0  1  0  0  0  0  0  0
  -26.9930  -30.3590   24.7090 C   0  0  0  0  0  1  0  0  0  0  0  0
  -27.5670  -32.5270   25.7690 C   0  0  0  0  0  1  0  0  0  0  0  0
  1  3  2  0
  2 49  1  0
  2  1  1  0
  4  2  1  0
  6  1  1  0
  6  5  2  0
  7 10  1  0
  8  5  1  0
  8  7  2  0
  9  8  1  0
 11 19  1  0
 12 17  1  0
 13 14  1  0
 13 12  1  0
 15 14  1  0
 15 24  1  0
 15 16  1  0
 17 11  1  0
 17 16  1  0
 18 11  2  0
 19 20  1  0
 19 10  1  0
 21 22  2  0
 22 41  1  0
 23 22  1  0
 23 26  1  0
 24 21  1  0
 24 25  1  0
 25 23  2  0
 26 27  1  0
 27 28  2  0
 29 32  1  0
 29 28  1  0
 30 29  2  0
 31 30  1  0
 31 26  2  0
 32 33  1  0
 33 34  1  0
 34 35  2  0
 36 35  1  0
 36 40  1  0
 37 36  2  0
 38 33  2  0
 38 37  1  0
 39 38  1  0
 41 42  1  0
 42 45  1  0
 42 44  1  0
 43 41  2  0
 46 47  1  0
 46 21  1  0
 48 46  1  0
 50 49  1  0
 50 51  1  0
 51 53  1  0
 52 63  2  0
 53 58  1  0
 54 62  1  0
 54 64  1  0
 55 61  1  0
 55 57  1  0
 56 62  1  0
 57 56  1  0
 58 57  2  0
 59 53  2  0
 60 59  1  0
 60 55  2  0
 61 54  1  0
 62 52  1  0
 64 66  2  0
 65 64  1  0
 67 65  1  0
 68 77  2  0
 68 73  1  0
 69 65  1  0
 69 73  1  0
 70 69  1  0
 71 72  1  0
 71 70  1  0
 72 68  1  0
 73 74  2  0
 74 75  1  0
 76 75  2  0
 77 76  1  0
 78 52  1  0
 78 79  1  0
 78 88  1  0
 79 82  1  0
 80 84  1  0
 80 79  1  0
 81 80  2  0
 84 83  1  0
 86 84  1  0
 86 87  1  0
 86 85  1  0
 88 91  1  1
 88 89  1  0
 90 88  1  0
M  ISO  4  11 100  19 100  50 101  51 101
M  END
>  <TORSDO>  (16) 
F 21

>  <SCORE>  (16) 
-13.447

>  <name>  (16) 
17

>  <ligand_id>  (16) 
17

>  <original_smiles>  (16) 
[H]C(C(=O)N([H])C([H])([H])C([H])([H])Oc1c([H])c([H])c2c(c1[H])C([H])([H])N(C(=O)C([H])(N([H])C(=O)C([H])(N([H])C([H])([H])[H])C([H])([H])[H])C(C([H])([H])[H])(C([H])([H])[H])C([H])([H])[H])C([H])(C(=O)N([H])C1([H])c3c([H])c([H])c([H])c([H])c3C([H])([H])C([H])([H])C1([H])[H])C2([H])[H])=C([H])C(=C([H])C([H])([H])N([H])C(=O)N1C([H])([H])C([H])([H])C([H])([H])C([H])(n2nc(-c3c([H])c([H])c(Oc4c([H])c([H])c(F)c([H])c4F)c([H])c3[H])c(C(=O)N([H])[H])c2N([H])[H])C1([H])[H])C([H])([H])[H]

>  <smiles>  (16) 
[H]C(C(=O)N([H])C([H])([H])C([H])([H])Oc1c([H])c([H])c2c(c1[H])C([H])([H])N(C(=O)C([H])(N([H])C(=O)C([H])(N([H])C([H])([H])[H])C([H])([H])[H])C(C([H])([H])[H])(C([H])([H])[H])C([H])([H])[H])C([H])(C(=O)N([H])C1([H])c3c([H])c([H])c([H])c([H])c3C([H])([H])C([H])([H])C1([H])[H])C2([H])[H])=C([H])C(=C([H])C([H])([H])N([H])C(=O)N1C([H])([H])C([H])([H])C([H])([H])C([H])(n2nc(-c3c([H])c([H])c(Oc4c([H])c([H])c(F)c([H])c4F)c([H])c3[H])c(C(=O)N([H])[H])c2N([H])[H])C1([H])[H])C([H])([H])[H]

$$$$
18:0:0
     RDKit          3D

 91 99  0  0  1  0  0  0  0  0999 V2000
  -28.7500  -20.7330   20.4700 C   0  0  0  0  0  2  0  0  0  0  0  0
  -30.0840  -20.1090   20.9360 C   0  0  0  0  0  2  0  0  0  0  0  0
  -30.8250  -14.4880   19.6830 C   0  0  0  0  0  0  0  0  0  0  0  0
  -30.3180  -12.4660   18.3640 C   0  0  0  0  0  2  0  0  0  0  0  0
  -29.2090  -12.7770   17.3390 C   0  0  0  0  0  2  0  0  0  0  0  0
  -27.8140  -12.5920   17.9680 C   0  0  0  0  0  2  0  0  0  0  0  0
  -27.6750  -13.3130   19.3360 C   0  0  0  0  0  3  0  0  0  0  0  0
  -28.8780  -12.9860   20.2490 C   0  0  0  0  0  2  0  0  0  0  0  0
  -30.1150  -13.3380   19.5280 N   0  0  0  0  0  0  0  0  0  0  0  0
  -31.8120  -14.7790   19.0000 O   0  0  0  0  0  0  0  0  0  0  0  0
  -30.0120  -16.6730   22.7020 C   0  0  0  0  0  2  0  0  0  0  0  0
  -30.6570  -15.5220   21.8920 C   0  0  0  0  0  2  0  0  0  0  0  0
  -29.5550  -16.5410   19.8380 C   0  0  0  0  0  2  0  0  0  0  0  0
  -30.5110  -18.0990   22.3720 C   0  0  0  0  0  2  0  0  0  0  0  0
  -30.3480  -17.8570   19.9190 C   0  0  0  0  0  2  0  0  0  0  0  0
  -30.2440  -15.4120   20.4790 N   0  0  0  0  0  0  0  0  0  0  0  0
  -29.9330  -18.6340   21.1120 N   0  0  2  0  0  4  0  0  0  0  0  0
  -28.9380  -18.4890   21.1980 H   0  0  0  0  0  0  0  0  0  0  0  0
  -25.4150  -13.8460   20.4520 C   0  0  0  0  0  0  0  0  0  0  0  0
  -24.4120  -13.0380   20.9150 C   0  0  0  0  0  0  0  0  0  0  0  0
  -24.8510  -11.6970   20.6910 C   0  0  0  0  0  0  0  0  0  0  0  0
  -26.4060  -12.9940   19.9880 N   0  0  0  0  0  0  0  0  0  0  0  0
  -26.0770  -11.6920   20.1840 N   0  0  0  0  0  0  0  0  0  0  0  0
  -24.1510  -10.4190   20.8760 C   0  0  0  0  0  0  0  0  0  0  0  0
  -24.6920   -9.3910   21.6790 C   0  0  0  0  0  3  0  0  0  0  0  0
  -23.9930   -8.1770   21.8550 C   0  0  0  0  0  3  0  0  0  0  0  0
  -22.7400   -7.9810   21.2270 C   0  0  0  0  0  0  0  0  0  0  0  0
  -22.2180   -8.9990   20.4090 C   0  0  0  0  0  3  0  0  0  0  0  0
  -22.9170  -10.2050   20.2300 C   0  0  0  0  0  3  0  0  0  0  0  0
  -22.0030   -6.8250   21.3180 O   0  0  0  0  0  0  0  0  0  0  0  0
  -22.0620   -6.0210   22.4280 C   0  0  0  0  0  0  0  0  0  0  0  0
  -21.7710   -6.5120   23.7200 C   0  0  0  0  0  3  0  0  0  0  0  0
  -21.7760   -5.6350   24.8230 C   0  0  0  0  0  3  0  0  0  0  0  0
  -22.0610   -4.2690   24.6360 C   0  0  0  0  0  0  0  0  0  0  0  0
  -22.3460   -3.7780   23.3500 C   0  0  0  0  0  3  0  0  0  0  0  0
  -22.3450   -4.6520   22.2490 C   0  0  0  0  0  0  0  0  0  0  0  0
  -22.6000   -4.1710   21.0080 F   0  0  0  0  0  0  0  0  0  0  0  0
  -22.0570   -3.4250   25.6950 F   0  0  0  0  0  0  0  0  0  0  0  0
  -23.0770  -13.4820   21.4410 C   0  0  0  0  0  0  0  0  0  0  0  0
  -22.4900  -12.7180   22.3560 N   0  0  0  0  0  0  0  0  0  0  0  0
  -22.5660  -14.5390   21.0750 O   0  0  0  0  0  0  0  0  0  0  0  0
  -22.9160  -11.8620   22.6770 H   0  0  0  0  0  0  0  0  0  0  0  0
  -21.6030  -12.9980   22.7450 H   0  0  0  0  0  0  0  0  0  0  0  0
  -25.5580  -15.2280   20.3660 N   0  0  0  0  0  0  0  0  0  0  0  0
  -24.8060  -15.8600   20.6160 H   0  0  0  0  0  0  0  0  0  0  0  0
  -26.3180  -15.6900   19.8830 H   0  0  0  0  0  0  0  0  0  0  0  0
  -28.8990  -22.0170   19.8680 O   0  0  0  0  0  0  0  0  0  0  0  0
  -29.0020  -23.1070   20.7790 C   0  0  0  0  0  2  0  0  0  0  0  0
  -28.6760  -24.4000   20.0090 C   0  0  0  0  0  2  0  0  0  0  0  0
  -28.5810  -25.6460   20.9050 C   0  0  0  0  0  2  0  0  0  0  0  0
  -28.5290  -26.8290   20.1090 O   0  0  0  0  0  0  0  0  0  0  0  0
  -24.6720  -31.9280   23.2020 C   0  0  0  0  0  0  0  0  0  0  0  0
  -27.3400  -27.5150   20.1380 C   0  0  0  0  0  0  0  0  0  0  0  0
  -23.4680  -30.5150   21.5650 C   0  0  0  0  0  3  0  0  0  0  0  0
  -24.9290  -28.9760   20.1470 C   0  0  0  0  0  0  0  0  0  0  0  0
  -25.9860  -30.8970   21.3540 C   0  0  0  0  0  2  0  0  0  0  0  0
  -26.0800  -29.5240   20.7260 C   0  0  0  0  0  0  0  0  0  0  0  0
  -27.2900  -28.7990   20.7170 C   0  0  0  0  0  3  0  0  0  0  0  0
  -26.1770  -26.9670   19.5600 C   0  0  0  0  0  3  0  0  0  0  0  0
  -24.9690  -27.6950   19.5640 C   0  0  0  0  0  3  0  0  0  0  0  0
  -23.6770  -29.8250   20.1880 C   0  0  0  0  0  2  0  0  0  0  0  0
  -24.7260  -31.1290   22.0990 N   0  0  0  0  0  0  0  0  0  0  0  0
  -23.5930  -32.1930   23.7480 O   0  0  0  0  0  0  0  0  0  0  0  0
  -22.8250  -29.4940   22.5330 C   0  0  0  0  0  0  0  0  0  0  0  0
  -21.4990  -29.3170   22.4170 N   0  0  0  0  0  0  0  0  0  0  0  0
  -23.5150  -28.8640   23.3380 O   0  0  0  0  0  0  0  0  0  0  0  0
  -21.0050  -29.8790   21.7370 H   0  0  0  0  0  0  0  0  0  0  0  0
  -18.1240  -28.1370   22.9420 C   0  0  0  0  0  0  0  0  0  0  0  0
  -20.6850  -28.3800   23.1890 C   0  0  0  0  0  3  0  0  0  0  0  0
  -20.7750  -26.9500   22.6050 C   0  0  0  0  0  2  0  0  0  0  0  0
  -19.6620  -26.6390   21.5990 C   0  0  0  0  0  2  0  0  0  0  0  0
  -18.2870  -26.7880   22.2580 C   0  0  0  0  0  2  0  0  0  0  0  0
  -19.2510  -28.8900   23.3640 C   0  0  0  0  0  0  0  0  0  0  0  0
  -19.0460  -30.1520   23.9620 C   0  0  0  0  0  3  0  0  0  0  0  0
  -17.7460  -30.6610   24.1410 C   0  0  0  0  0  3  0  0  0  0  0  0
  -16.6330  -29.9050   23.7360 C   0  0  0  0  0  3  0  0  0  0  0  0
  -16.8230  -28.6440   23.1430 C   0  0  0  0  0  3  0  0  0  0  0  0
  -25.9590  -32.5620   23.8180 C   0  0  0  0  0  3  0  0  0  0  0  0
  -25.6490  -33.9580   24.1520 N   0  0  0  0  0  0  0  0  0  0  0  0
  -25.9720  -35.0120   23.3900 C   0  0  0  0  0  0  0  0  0  0  0  0
  -26.6350  -34.9090   22.3540 O   0  0  0  0  0  0  0  0  0  0  0  0
  -25.0600  -34.1110   24.9580 H   0  0  0  0  0  0  0  0  0  0  0  0
  -24.2320  -36.7930   23.0440 C   0  0  0  0  0  1  0  0  0  0  0  0
  -25.4810  -36.3980   23.8490 C   0  0  0  0  0  3  0  0  0  0  0  0
  -27.6170  -37.2920   24.6630 C   0  0  0  0  0  1  0  0  0  0  0  0
  -26.5060  -37.4560   23.7270 N   0  0  0  0  0  0  0  0  0  0  0  0
  -26.0990  -38.3740   23.8780 H   0  0  0  0  0  0  0  0  0  0  0  0
  -26.4890  -31.7890   25.0870 C   0  0  1  0  0  0  0  0  0  0  0  0
  -25.4050  -31.5410   26.1630 C   0  0  0  0  0  1  0  0  0  0  0  0
  -27.0750  -30.4180   24.6820 C   0  0  0  0  0  1  0  0  0  0  0  0
  -27.6420  -32.5860   25.7440 C   0  0  0  0  0  1  0  0  0  0  0  0
  1  2  1  0
  2 17  1  0
  3 16  1  0
  4  9  1  0
  5  6  1  0
  5  4  1  0
  7  6  1  0
  7 22  1  0
  7  8  1  0
  9  3  1  0
  9  8  1  0
 10  3  2  0
 12 11  1  0
 13 15  1  0
 13 16  1  0
 14 11  1  0
 15 17  1  0
 16 12  1  0
 17 18  1  1
 17 14  1  0
 19 20  2  0
 20 39  1  0
 21 24  1  0
 21 20  1  0
 22 23  1  0
 22 19  1  0
 23 21  2  0
 24 25  1  0
 25 26  2  0
 27 30  1  0
 27 26  1  0
 28 27  2  0
 29 28  1  0
 29 24  2  0
 30 31  1  0
 31 32  1  0
 32 33  2  0
 34 33  1  0
 34 38  1  0
 35 34  2  0
 36 31  2  0
 36 35  1  0
 37 36  1  0
 39 40  1  0
 40 42  1  0
 40 43  1  0
 41 39  2  0
 44 19  1  0
 44 45  1  0
 46 44  1  0
 47  1  1  0
 47 48  1  0
 49 48  1  0
 49 50  1  0
 51 53  1  0
 51 50  1  0
 52 63  2  0
 53 58  1  0
 54 62  1  0
 54 64  1  0
 55 61  1  0
 55 57  1  0
 56 62  1  0
 57 56  1  0
 58 57  2  0
 59 60  1  0
 59 53  2  0
 60 55  2  0
 61 54  1  0
 62 52  1  0
 64 66  2  0
 65 64  1  0
 67 65  1  0
 68 77  2  0
 68 73  1  0
 69 65  1  0
 69 73  1  0
 70 69  1  0
 71 72  1  0
 71 70  1  0
 72 68  1  0
 73 74  2  0
 74 75  1  0
 76 75  2  0
 77 76  1  0
 78 52  1  0
 78 79  1  0
 78 88  1  0
 79 82  1  0
 80 84  1  0
 80 79  1  0
 81 80  2  0
 84 83  1  0
 86 84  1  0
 86 87  1  0
 86 85  1  0
 88 91  1  1
 88 89  1  0
 90 88  1  0
M  ISO  4   3 100  16 100  50 101  51 101
M  END
>  <TORSDO>  (17) 
F 21

>  <SCORE>  (17) 
-11.052

>  <name>  (17) 
18

>  <ligand_id>  (17) 
18

>  <original_smiles>  (17) 
[H]c1c([H])c([H])c2c(c1[H])C([H])([H])C([H])([H])C([H])([H])C2([H])N([H])C(=O)C1([H])N(C(=O)C([H])(N([H])C(=O)C([H])(N([H])C([H])([H])[H])C([H])([H])[H])C(C([H])([H])[H])(C([H])([H])[H])C([H])([H])[H])C([H])([H])c2c([H])c(OC([H])([H])C([H])([H])C([H])([H])OC([H])([H])C([H])([H])[N+]3([H])C([H])([H])C([H])([H])N(C(=O)N4C([H])([H])C([H])([H])C([H])([H])C([H])(n5nc(-c6c([H])c([H])c(Oc7c([H])c([H])c(F)c([H])c7F)c([H])c6[H])c(C(=O)N([H])[H])c5N([H])[H])C4([H])[H])C([H])([H])C([H])([H])C3([H])[H])c([H])c([H])c2C1([H])[H]

>  <smiles>  (17) 
[H]c1c([H])c([H])c2c(c1[H])C([H])([H])C([H])([H])C([H])([H])C2([H])N([H])C(=O)C1([H])N(C(=O)C([H])(N([H])C(=O)C([H])(N([H])C([H])([H])[H])C([H])([H])[H])C(C([H])([H])[H])(C([H])([H])[H])C([H])([H])[H])C([H])([H])c2c([H])c(OC([H])([H])C([H])([H])C([H])([H])OC([H])([H])C([H])([H])[N+]3([H])C([H])([H])C([H])([H])N(C(=O)N4C([H])([H])C([H])([H])C([H])([H])C([H])(n5nc(-c6c([H])c([H])c(Oc7c([H])c([H])c(F)c([H])c7F)c([H])c6[H])c(C(=O)N([H])[H])c5N([H])[H])C4([H])[H])C([H])([H])C([H])([H])C3([H])[H])c([H])c([H])c2C1([H])[H]

$$$$
19:0:0
     RDKit          3D

 92 99  0  0  1  0  0  0  0  0999 V2000
  -27.7450  -22.0340   20.9010 C   0  0  0  0  0  2  0  0  0  0  0  0
  -28.2720  -23.1040   20.0190 N   0  0  0  0  0  4  0  0  0  0  0  0
  -27.8640  -22.9850   19.1020 H   0  0  0  0  0  0  0  0  0  0  0  0
  -29.2690  -22.9970   19.9210 H   0  0  0  0  0  0  0  0  0  0  0  0
  -27.9950  -24.4780   20.4990 C   0  0  0  0  0  2  0  0  0  0  0  0
  -28.5300  -25.5480   19.5250 C   0  0  0  0  0  2  0  0  0  0  0  0
  -28.4170  -26.8520   20.0900 O   0  0  0  0  0  0  0  0  0  0  0  0
  -24.5730  -31.9140   23.2300 C   0  0  0  0  0  0  0  0  0  0  0  0
  -27.2020  -27.5040   20.0970 C   0  0  0  0  0  0  0  0  0  0  0  0
  -23.3540  -30.5180   21.5920 C   0  0  0  0  0  3  0  0  0  0  0  0
  -24.7910  -28.9860   20.1510 C   0  0  0  0  0  0  0  0  0  0  0  0
  -25.8730  -30.8800   21.3730 C   0  0  0  0  0  2  0  0  0  0  0  0
  -25.9510  -29.5100   20.7350 C   0  0  0  0  0  0  0  0  0  0  0  0
  -27.1530  -28.7740   20.7110 C   0  0  0  0  0  3  0  0  0  0  0  0
  -26.0200  -26.9840   19.5170 C   0  0  0  0  0  3  0  0  0  0  0  0
  -24.8190  -27.7190   19.5450 C   0  0  0  0  0  3  0  0  0  0  0  0
  -23.5480  -29.8420   20.2090 C   0  0  0  0  0  2  0  0  0  0  0  0
  -24.6190  -31.1190   22.1230 N   0  0  0  0  0  0  0  0  0  0  0  0
  -23.4960  -32.1850   23.7800 O   0  0  0  0  0  0  0  0  0  0  0  0
  -22.7110  -29.4930   22.5540 C   0  0  0  0  0  0  0  0  0  0  0  0
  -21.3870  -29.3070   22.4300 N   0  0  0  0  0  0  0  0  0  0  0  0
  -23.4000  -28.8670   23.3630 O   0  0  0  0  0  0  0  0  0  0  0  0
  -20.8920  -29.8670   21.7500 H   0  0  0  0  0  0  0  0  0  0  0  0
  -18.0170  -28.1040   22.9310 C   0  0  0  0  0  0  0  0  0  0  0  0
  -20.5750  -28.3660   23.1970 C   0  0  0  0  0  3  0  0  0  0  0  0
  -20.6800  -26.9370   22.6160 C   0  0  0  0  0  2  0  0  0  0  0  0
  -19.5750  -26.6180   21.6050 C   0  0  0  0  0  2  0  0  0  0  0  0
  -18.1960  -26.7550   22.2550 C   0  0  0  0  0  2  0  0  0  0  0  0
  -19.1360  -28.8670   23.3590 C   0  0  0  0  0  0  0  0  0  0  0  0
  -18.9180  -30.1300   23.9490 C   0  0  0  0  0  3  0  0  0  0  0  0
  -17.6120  -30.6300   24.1180 C   0  0  0  0  0  3  0  0  0  0  0  0
  -16.5080  -29.8630   23.7060 C   0  0  0  0  0  3  0  0  0  0  0  0
  -16.7120  -28.6020   23.1180 C   0  0  0  0  0  3  0  0  0  0  0  0
  -25.8650  -32.5400   23.8430 C   0  0  0  0  0  3  0  0  0  0  0  0
  -25.5630  -33.9380   24.1770 N   0  0  0  0  0  0  0  0  0  0  0  0
  -25.9000  -34.9890   23.4180 C   0  0  0  0  0  0  0  0  0  0  0  0
  -26.5710  -34.8830   22.3870 O   0  0  0  0  0  0  0  0  0  0  0  0
  -24.9670  -34.0930   24.9770 H   0  0  0  0  0  0  0  0  0  0  0  0
  -24.1820  -36.7890   23.0520 C   0  0  0  0  0  1  0  0  0  0  0  0
  -25.4160  -36.3790   23.8740 C   0  0  0  0  0  3  0  0  0  0  0  0
  -27.5490  -37.2480   24.7230 C   0  0  0  0  0  1  0  0  0  0  0  0
  -26.4550  -37.4270   23.7710 N   0  0  0  0  0  0  0  0  0  0  0  0
  -26.0540  -38.3490   23.9170 H   0  0  0  0  0  0  0  0  0  0  0  0
  -26.3890  -31.7650   25.1150 C   0  0  1  0  0  0  0  0  0  0  0  0
  -25.3020  -31.5230   26.1890 C   0  0  0  0  0  1  0  0  0  0  0  0
  -26.9660  -30.3890   24.7100 C   0  0  0  0  0  1  0  0  0  0  0  0
  -27.5470  -32.5540   25.7690 C   0  0  0  0  0  1  0  0  0  0  0  0
  -28.4590  -20.6840   20.6820 C   0  0  0  0  0  2  0  0  0  0  0  0
  -29.6770  -20.4720   21.6110 C   0  0  0  0  0  2  0  0  0  0  0  0
  -30.5030  -19.3060   21.2210 N   0  0  0  0  0  4  0  0  0  0  0  0
  -30.8100  -19.4240   20.2710 H   0  0  0  0  0  0  0  0  0  0  0  0
  -31.3330  -19.3190   21.7930 H   0  0  0  0  0  0  0  0  0  0  0  0
  -29.8690  -17.9770   21.3640 C   0  0  0  0  0  2  0  0  0  0  0  0
  -30.7640  -16.8880   20.7490 C   0  0  0  0  0  2  0  0  0  0  0  0
  -30.8480  -14.4740   20.3380 C   0  0  0  0  0  0  0  0  0  0  0  0
  -30.4730  -12.3270   19.2150 C   0  0  0  0  0  2  0  0  0  0  0  0
  -29.5310  -12.5440   18.0120 C   0  0  0  0  0  2  0  0  0  0  0  0
  -28.0600  -12.4340   18.4530 C   0  0  0  0  0  2  0  0  0  0  0  0
  -27.7380  -13.2870   19.7070 C   0  0  0  0  0  3  0  0  0  0  0  0
  -28.7990  -13.0840   20.8140 C   0  0  0  0  0  2  0  0  0  0  0  0
  -30.1280  -13.3300   20.2320 N   0  0  0  0  0  0  0  0  0  0  0  0
  -31.9650  -14.6180   19.8400 O   0  0  0  0  0  0  0  0  0  0  0  0
  -30.2150  -15.5310   20.8630 N   0  0  0  0  0  0  0  0  0  0  0  0
  -29.2840  -15.3950   21.2300 H   0  0  0  0  0  0  0  0  0  0  0  0
  -25.3390  -13.9100   20.4120 C   0  0  0  0  0  0  0  0  0  0  0  0
  -24.2700  -13.1440   20.7920 C   0  0  0  0  0  0  0  0  0  0  0  0
  -24.7290  -11.7900   20.7770 C   0  0  0  0  0  0  0  0  0  0  0  0
  -26.3840  -13.0250   20.1940 N   0  0  0  0  0  0  0  0  0  0  0  0
  -26.0200  -11.7470   20.4730 N   0  0  0  0  0  0  0  0  0  0  0  0
  -24.0020  -10.5300   20.9780 C   0  0  0  0  0  0  0  0  0  0  0  0
  -24.4280   -9.5720   21.9240 C   0  0  0  0  0  3  0  0  0  0  0  0
  -23.7000   -8.3790   22.1110 C   0  0  0  0  0  3  0  0  0  0  0  0
  -22.5290   -8.1340   21.3540 C   0  0  0  0  0  0  0  0  0  0  0  0
  -22.1220   -9.0810   20.3980 C   0  0  0  0  0  3  0  0  0  0  0  0
  -22.8510  -10.2670   20.2080 C   0  0  0  0  0  3  0  0  0  0  0  0
  -21.7700   -6.9920   21.4530 O   0  0  0  0  0  0  0  0  0  0  0  0
  -21.7140   -6.2620   22.6140 C   0  0  0  0  0  0  0  0  0  0  0  0
  -21.2870   -6.8330   23.8330 C   0  0  0  0  0  3  0  0  0  0  0  0
  -21.1800   -6.0290   24.9860 C   0  0  0  0  0  3  0  0  0  0  0  0
  -21.4900   -4.6580   24.9200 C   0  0  0  0  0  0  0  0  0  0  0  0
  -21.9080   -4.0870   23.7070 C   0  0  0  0  0  3  0  0  0  0  0  0
  -22.0200   -4.8870   22.5560 C   0  0  0  0  0  0  0  0  0  0  0  0
  -22.4040   -4.3280   21.3830 F   0  0  0  0  0  0  0  0  0  0  0  0
  -21.3770   -3.8840   26.0260 F   0  0  0  0  0  0  0  0  0  0  0  0
  -22.8720  -13.6250   21.0590 C   0  0  0  0  0  0  0  0  0  0  0  0
  -22.1360  -12.9440   21.9300 N   0  0  0  0  0  0  0  0  0  0  0  0
  -22.4390  -14.6470   20.5250 O   0  0  0  0  0  0  0  0  0  0  0  0
  -22.4910  -12.1210   22.3930 H   0  0  0  0  0  0  0  0  0  0  0  0
  -21.1960  -13.2540   22.1400 H   0  0  0  0  0  0  0  0  0  0  0  0
  -25.5080  -15.2780   20.2070 N   0  0  0  0  0  0  0  0  0  0  0  0
  -24.7380  -15.9340   20.2740 H   0  0  0  0  0  0  0  0  0  0  0  0
  -26.3480  -15.6930   19.8230 H   0  0  0  0  0  0  0  0  0  0  0  0
  2  5  1  0
  2  1  1  0
  3  2  1  0
  4  2  1  0
  6  7  1  0
  6  5  1  0
  7  9  1  0
  8 19  2  0
  9 14  1  0
 10 18  1  0
 10 20  1  0
 11 17  1  0
 11 13  1  0
 12 18  1  0
 13 12  1  0
 14 13  2  0
 15 16  1  0
 15  9  2  0
 16 11  2  0
 17 10  1  0
 18  8  1  0
 20 22  2  0
 21 20  1  0
 23 21  1  0
 24 33  2  0
 24 29  1  0
 25 21  1  0
 25 29  1  0
 26 25  1  0
 27 28  1  0
 27 26  1  0
 28 24  1  0
 29 30  2  0
 30 31  1  0
 32 31  2  0
 33 32  1  0
 34  8  1  0
 34 35  1  0
 34 44  1  0
 35 38  1  0
 36 40  1  0
 36 35  1  0
 37 36  2  0
 40 39  1  0
 42 40  1  0
 42 43  1  0
 42 41  1  0
 44 47  1  1
 44 45  1  0
 46 44  1  0
 48  1  1  0
 48 49  1  0
 50 53  1  0
 50 49  1  0
 50 52  1  0
 51 50  1  0
 54 63  1  0
 54 53  1  0
 55 63  1  0
 56 61  1  0
 57 58  1  0
 57 56  1  0
 59 58  1  0
 59 68  1  0
 59 60  1  0
 61 55  1  0
 61 60  1  0
 62 55  2  0
 63 64  1  0
 65 66  2  0
 66 85  1  0
 67 66  1  0
 67 70  1  0
 68 65  1  0
 68 69  1  0
 69 67  2  0
 70 71  1  0
 71 72  2  0
 73 76  1  0
 73 72  1  0
 74 73  2  0
 75 74  1  0
 75 70  2  0
 76 77  1  0
 77 78  1  0
 78 79  2  0
 80 79  1  0
 80 84  1  0
 81 80  2  0
 82 77  2  0
 82 81  1  0
 83 82  1  0
 85 86  1  0
 86 89  1  0
 86 88  1  0
 87 85  2  0
 90 91  1  0
 90 65  1  0
 92 90  1  0
M  ISO  4   6 101   7 101  55 100  63 100
M  END
>  <TORSDO>  (18) 
F 24

>  <SCORE>  (18) 
-12.253

>  <name>  (18) 
19

>  <ligand_id>  (18) 
19

>  <original_smiles>  (18) 
[H]c1c([H])c([H])c2c(c1[H])C([H])([H])C([H])([H])C([H])([H])C2([H])N([H])C(=O)C1([H])N(C(=O)C([H])(N([H])C(=O)C([H])(N([H])C([H])([H])[H])C([H])([H])[H])C(C([H])([H])[H])(C([H])([H])[H])C([H])([H])[H])C([H])([H])c2c([H])c(OC([H])([H])C([H])([H])[N+]([H])([H])C([H])([H])C([H])([H])C([H])([H])[N+]([H])([H])C([H])([H])C([H])([H])N([H])C(=O)N3C([H])([H])C([H])([H])C([H])([H])C([H])(n4nc(-c5c([H])c([H])c(Oc6c([H])c([H])c(F)c([H])c6F)c([H])c5[H])c(C(=O)N([H])[H])c4N([H])[H])C3([H])[H])c([H])c([H])c2C1([H])[H]

>  <smiles>  (18) 
[H]c1c([H])c([H])c2c(c1[H])C([H])([H])C([H])([H])C([H])([H])C2([H])N([H])C(=O)C1([H])N(C(=O)C([H])(N([H])C(=O)C([H])(N([H])C([H])([H])[H])C([H])([H])[H])C(C([H])([H])[H])(C([H])([H])[H])C([H])([H])[H])C([H])([H])c2c([H])c(OC([H])([H])C([H])([H])[N+]([H])([H])C([H])([H])C([H])([H])C([H])([H])[N+]([H])([H])C([H])([H])C([H])([H])N([H])C(=O)N3C([H])([H])C([H])([H])C([H])([H])C([H])(n4nc(-c5c([H])c([H])c(Oc6c([H])c([H])c(F)c([H])c6F)c([H])c5[H])c(C(=O)N([H])[H])c4N([H])[H])C3([H])[H])c([H])c([H])c2C1([H])[H]

$$$$
20:0:0
     RDKit          3D

 98102  0  0  1  0  0  0  0  0999 V2000
  -23.2180  -23.3920   20.9450 C   0  0  0  0  0  0  0  0  0  0  0  0
  -22.1820  -23.6530   21.8770 N   0  0  0  0  0  0  0  0  0  0  0  0
  -22.9130  -23.3690   19.7500 O   0  0  0  0  0  0  0  0  0  0  0  0
  -22.3970  -23.6670   22.8650 H   0  0  0  0  0  0  0  0  0  0  0  0
  -24.6660  -23.1080   21.3260 C   0  0  0  0  0  3  0  0  0  0  0  0
  -25.6600  -22.6590   20.4290 C   0  0  0  0  0  3  0  0  0  0  0  0
  -27.1000  -22.2750   20.7530 C   0  0  0  0  0  0  0  0  0  0  0  0
  -27.7600  -21.2550   20.0460 N   0  0  0  0  0  0  0  0  0  0  0  0
  -27.7050  -22.8260   21.6730 O   0  0  0  0  0  0  0  0  0  0  0  0
  -27.2390  -20.8430   19.2840 H   0  0  0  0  0  0  0  0  0  0  0  0
  -29.1120  -20.5540   20.3860 C   0  0  0  0  0  2  0  0  0  0  0  0
  -29.9890  -19.5900   19.3560 C   0  0  0  0  0  2  0  0  0  0  0  0
  -32.0990  -17.8060   19.7290 C   0  0  0  0  0  0  0  0  0  0  0  0
  -32.9690  -15.4290   19.5530 C   0  0  0  0  0  2  0  0  0  0  0  0
  -32.1840  -14.7130   18.4210 C   0  0  0  0  0  2  0  0  0  0  0  0
  -30.7830  -14.2550   18.8840 C   0  0  0  0  0  2  0  0  0  0  0  0
  -30.0500  -15.3640   19.6800 C   0  0  0  0  0  3  0  0  0  0  0  0
  -30.9650  -15.8820   20.8040 C   0  0  0  0  0  2  0  0  0  0  0  0
  -32.1090  -16.4930   20.1320 N   0  0  0  0  0  0  0  0  0  0  0  0
  -33.0950  -18.2600   19.1370 O   0  0  0  0  0  0  0  0  0  0  0  0
  -30.8560  -18.4470   19.9400 N   0  0  0  0  0  0  0  0  0  0  0  0
  -30.2980  -17.8630   20.5450 H   0  0  0  0  0  0  0  0  0  0  0  0
  -27.7370  -15.6880   20.7330 C   0  0  0  0  0  0  0  0  0  0  0  0
  -26.7580  -14.7930   21.0640 C   0  0  0  0  0  0  0  0  0  0  0  0
  -27.2720  -13.5050   20.7220 C   0  0  0  0  0  0  0  0  0  0  0  0
  -28.7740  -14.9300   20.2160 N   0  0  0  0  0  0  0  0  0  0  0  0
  -28.5100  -13.6030   20.2660 N   0  0  0  0  0  0  0  0  0  0  0  0
  -26.6370  -12.1840   20.7440 C   0  0  0  0  0  0  0  0  0  0  0  0
  -26.8560  -11.2780   21.8040 C   0  0  0  0  0  3  0  0  0  0  0  0
  -26.2200  -10.0180   21.8070 C   0  0  0  0  0  3  0  0  0  0  0  0
  -25.3570   -9.6570   20.7460 C   0  0  0  0  0  0  0  0  0  0  0  0
  -25.1640  -10.5560   19.6810 C   0  0  0  0  0  3  0  0  0  0  0  0
  -25.8000  -11.8070   19.6770 C   0  0  0  0  0  3  0  0  0  0  0  0
  -24.7180   -8.4460   20.6500 O   0  0  0  0  0  0  0  0  0  0  0  0
  -23.8390   -8.0200   21.6140 C   0  0  0  0  0  0  0  0  0  0  0  0
  -22.6860   -8.7620   21.9520 C   0  0  0  0  0  3  0  0  0  0  0  0
  -21.7750   -8.2520   22.8980 C   0  0  0  0  0  3  0  0  0  0  0  0
  -22.0090   -7.0000   23.4990 C   0  0  0  0  0  0  0  0  0  0  0  0
  -23.1530   -6.2590   23.1600 C   0  0  0  0  0  3  0  0  0  0  0  0
  -24.0640   -6.7670   22.2170 C   0  0  0  0  0  0  0  0  0  0  0  0
  -25.1550   -6.0380   21.8780 F   0  0  0  0  0  0  0  0  0  0  0  0
  -21.1280   -6.5070   24.4020 F   0  0  0  0  0  0  0  0  0  0  0  0
  -25.3850  -15.1180   21.5740 C   0  0  0  0  0  0  0  0  0  0  0  0
  -24.8270  -14.2610   22.4210 N   0  0  0  0  0  0  0  0  0  0  0  0
  -24.8180  -16.1640   21.2580 O   0  0  0  0  0  0  0  0  0  0  0  0
  -25.3030  -13.4130   22.6940 H   0  0  0  0  0  0  0  0  0  0  0  0
  -23.9120  -14.4570   22.8030 H   0  0  0  0  0  0  0  0  0  0  0  0
  -27.8250  -17.0760   20.8080 N   0  0  0  0  0  0  0  0  0  0  0  0
  -27.0470  -17.6440   21.1200 H   0  0  0  0  0  0  0  0  0  0  0  0
  -28.5790  -17.6200   20.4110 H   0  0  0  0  0  0  0  0  0  0  0  0
  -20.6990  -23.9020   21.4540 C   0  0  0  0  0  2  0  0  0  0  0  0
  -19.3940  -24.8860   21.9110 C   0  0  0  0  0  0  0  0  0  0  0  0
  -19.2000  -26.3220   21.5780 N   0  0  0  0  0  0  0  0  0  0  0  0
  -18.5020  -24.3270   22.5480 O   0  0  0  0  0  0  0  0  0  0  0  0
  -18.2760  -26.6400   21.8380 H   0  0  0  0  0  0  0  0  0  0  0  0
  -20.4930  -28.2910   20.6400 C   0  0  0  0  0  1  0  0  0  0  0  0
  -22.4580  -28.1500   19.8710 C   0  0  0  0  0  1  0  0  0  0  0  0
  -24.0710  -27.2090   19.8400 O   0  0  0  0  0  0  0  0  0  0  0  0
  -25.1600  -30.8710   23.6280 C   0  0  0  0  0  0  0  0  0  0  0  0
  -25.4320  -27.2910   19.2780 C   0  0  0  0  0  3  0  0  0  0  0  0
  -23.7250  -30.5410   21.6950 C   0  0  0  0  0  3  0  0  0  0  0  0
  -24.8040  -29.7350   19.4840 C   0  0  0  0  0  3  0  0  0  0  0  0
  -26.2340  -30.2260   21.4670 C   0  0  0  0  0  2  0  0  0  0  0  0
  -25.8670  -29.3390   20.3000 C   0  0  0  0  0  3  0  0  0  0  0  0
  -26.3630  -28.0460   20.0660 C   0  0  0  0  0  2  0  0  0  0  0  0
  -25.2540  -27.8250   18.0320 C   0  0  0  0  0  2  0  0  0  0  0  0
  -24.6400  -29.0730   18.2260 C   0  0  0  0  0  2  0  0  0  0  0  0
  -23.8020  -30.6670   20.1270 C   0  0  0  0  0  2  0  0  0  0  0  0
  -25.0710  -30.5920   22.3030 N   0  0  0  0  0  0  0  0  0  0  0  0
  -24.1590  -31.1660   24.2990 O   0  0  0  0  0  0  0  0  0  0  0  0
  -23.0540  -29.2770   22.2900 C   0  0  0  0  0  0  0  0  0  0  0  0
  -21.8440  -29.3670   22.7520 N   0  0  0  0  0  0  0  0  0  0  0  0
  -23.6350  -28.2130   22.4540 O   0  0  0  0  0  0  0  0  0  0  0  0
  -21.3890  -30.2700   22.7850 H   0  0  0  0  0  0  0  0  0  0  0  0
  -18.1600  -29.2620   22.2270 C   0  0  0  0  0  0  0  0  0  0  0  0
  -20.9910  -28.1870   22.9080 C   0  0  0  0  0  2  0  0  0  0  0  0
  -21.1130  -26.6750   21.3310 C   0  0  0  0  0  1  0  0  0  0  0  0
  -19.2330  -26.9300   19.9200 C   0  0  0  0  0  1  0  0  0  0  0  0
  -17.8880  -28.3140   20.6580 C   0  0  0  0  0  1  0  0  0  0  0  0
  -19.4680  -29.2340   23.1290 C   0  0  0  0  0  0  0  0  0  0  0  0
  -19.4510  -30.0850   24.2800 C   0  0  0  0  0  3  0  0  0  0  0  0
  -18.3180  -30.7990   24.7310 C   0  0  0  0  0  3  0  0  0  0  0  0
  -17.0930  -30.6530   24.0650 C   0  0  0  0  0  3  0  0  0  0  0  0
  -17.0250  -29.8990   22.8610 C   0  0  0  0  0  3  0  0  0  0  0  0
  -26.5310  -30.8530   24.3440 C   0  0  0  0  0  3  0  0  0  0  0  0
  -26.9050  -32.2570   24.5340 N   0  0  0  0  0  0  0  0  0  0  0  0
  -27.7800  -32.9110   23.7610 C   0  0  0  0  0  0  0  0  0  0  0  0
  -28.4290  -32.3570   22.8680 O   0  0  0  0  0  0  0  0  0  0  0  0
  -26.3750  -32.7830   25.2110 H   0  0  0  0  0  0  0  0  0  0  0  0
  -27.2900  -35.2300   22.9220 C   0  0  0  0  0  1  0  0  0  0  0  0
  -27.9720  -34.4130   24.0300 C   0  0  0  0  0  3  0  0  0  0  0  0
  -30.0570  -34.2440   25.3130 C   0  0  0  0  0  1  0  0  0  0  0  0
  -29.3930  -34.8080   24.1410 N   0  0  0  0  0  0  0  0  0  0  0  0
  -29.4820  -35.8200   24.1820 H   0  0  0  0  0  0  0  0  0  0  0  0
  -26.5040  -30.0830   25.7180 C   0  0  1  0  0  0  0  0  0  0  0  0
  -25.3760  -30.5380   26.6740 C   0  0  0  0  0  1  0  0  0  0  0  0
  -26.3440  -28.5600   25.5000 C   0  0  0  0  0  1  0  0  0  0  0  0
  -27.8580  -30.2850   26.4360 C   0  0  0  0  0  1  0  0  0  0  0  0
  1  5  1  0
  1  2  1  0
  2  4  1  0
  3  1  2  0
  6  7  1  0
  6  5  2  0
  7  9  2  0
  8 11  1  0
  8  7  1  0
 10  8  1  0
 12 21  1  0
 12 11  1  0
 13 21  1  0
 13 19  1  0
 14 19  1  0
 15 16  1  0
 15 14  1  0
 17 16  1  0
 17 26  1  0
 17 18  1  0
 19 18  1  0
 20 13  2  0
 21 22  1  0
 23 48  1  0
 23 24  2  0
 24 43  1  0
 25 28  1  0
 25 24  1  0
 26 27  1  0
 26 23  1  0
 27 25  2  0
 28 29  1  0
 29 30  2  0
 31 30  1  0
 32 31  2  0
 33 32  1  0
 33 28  2  0
 34 31  1  0
 34 35  1  0
 35 36  2  0
 35 40  1  0
 36 37  1  0
 37 38  2  0
 38 42  1  0
 39 38  1  0
 40 39  2  0
 41 40  1  0
 43 44  1  0
 44 46  1  0
 44 47  1  0
 45 43  2  0
 48 49  1  0
 50 48  1  0
 51  2  1  0
 51 52  1  0
 52 54  2  0
 53 55  1  0
 53 52  1  0
 56 77  1  0
 58 57  1  0
 59 70  2  0
 60 58  1  0
 60 65  1  0
 61 71  1  0
 61 69  1  0
 62 67  1  0
 62 68  1  0
 62 64  1  0
 63 69  1  0
 64 65  1  0
 64 63  1  0
 66 67  1  0
 66 60  1  0
 68 61  1  0
 69 59  1  0
 71 73  2  0
 71 72  1  0
 72 74  1  0
 72 76  1  0
 75 84  2  0
 75 80  1  0
 76 80  1  0
 78 53  1  0
 79 75  1  0
 80 81  2  0
 81 82  1  0
 83 82  2  0
 84 83  1  0
 85 59  1  0
 85 86  1  0
 85 95  1  0
 86 89  1  0
 87 91  1  0
 87 86  1  0
 88 87  2  0
 91 90  1  0
 91 93  1  0
 93 94  1  0
 93 92  1  0
 95 98  1  1
 95 96  1  0
 97 95  1  0
M  ISO  4  13 100  21 100  57 101  58 101
M  END
>  <TORSDO>  (19) 
F 24

>  <SCORE>  (19) 
-1.163

>  <name>  (19) 
20

>  <ligand_id>  (19) 
20

>  <original_smiles>  (19) 
[H]C(C(=O)N([H])C([H])([H])C(=O)N([H])C([H])([H])C([H])([H])Oc1c([H])c([H])c2c(c1[H])C([H])([H])N(C(=O)C([H])(N([H])C(=O)C([H])(N([H])C([H])([H])[H])C([H])([H])[H])C(C([H])([H])[H])(C([H])([H])[H])C([H])([H])[H])C([H])(C(=O)N([H])C1([H])c3c([H])c([H])c([H])c([H])c3C([H])([H])C([H])([H])C1([H])[H])C2([H])[H])=C([H])C(=O)N([H])C([H])([H])C([H])([H])N([H])C(=O)N1C([H])([H])C([H])([H])C([H])([H])C([H])(n2nc(-c3c([H])c([H])c(Oc4c([H])c([H])c(F)c([H])c4F)c([H])c3[H])c(C(=O)N([H])[H])c2N([H])[H])C1([H])[H]

>  <smiles>  (19) 
[H]C(C(=O)N([H])C([H])([H])C(=O)N([H])C([H])([H])C([H])([H])Oc1c([H])c([H])c2c(c1[H])C([H])([H])N(C(=O)C([H])(N([H])C(=O)C([H])(N([H])C([H])([H])[H])C([H])([H])[H])C(C([H])([H])[H])(C([H])([H])[H])C([H])([H])[H])C([H])(C(=O)N([H])C1([H])c3c([H])c([H])c([H])c([H])c3C([H])([H])C([H])([H])C1([H])[H])C2([H])[H])=C([H])C(=O)N([H])C([H])([H])C([H])([H])N([H])C(=O)N1C([H])([H])C([H])([H])C([H])([H])C([H])(n2nc(-c3c([H])c([H])c(Oc4c([H])c([H])c(F)c([H])c4F)c([H])c3[H])c(C(=O)N([H])[H])c2N([H])[H])C1([H])[H]

$$$$
21:0:0
     RDKit          3D

 96101  0  0  1  0  0  0  0  0999 V2000
  -21.9380  -26.4730   20.1420 N   0  0  0  0  0  4  0  0  0  0  0  0
  -21.7220  -26.1140   21.0610 H   0  0  0  0  0  0  0  0  0  0  0  0
  -21.1940  -26.0880   19.5760 H   0  0  0  0  0  0  0  0  0  0  0  0
  -23.1880  -25.4550   19.4610 C   0  0  0  0  0  3  0  0  0  0  0  0
  -24.3360  -24.0570   20.0440 C   0  0  0  0  0  3  0  0  0  0  0  0
  -25.4500  -22.6830   19.2910 C   0  0  0  0  0  2  0  0  0  0  0  0
  -26.7010  -21.5660   19.8260 N   0  0  0  0  0  4  0  0  0  0  0  0
  -26.4640  -21.4250   20.7980 H   0  0  0  0  0  0  0  0  0  0  0  0
  -27.5150  -22.1590   19.8310 H   0  0  0  0  0  0  0  0  0  0  0  0
  -27.3110  -19.9790   19.3260 C   0  0  0  0  0  2  0  0  0  0  0  0
  -28.8070  -18.8150   19.7410 C   0  0  0  0  0  2  0  0  0  0  0  0
  -30.3340  -15.9580   19.7010 C   0  0  0  0  0  0  0  0  0  0  0  0
  -30.7810  -13.4050   19.0700 C   0  0  0  0  0  2  0  0  0  0  0  0
  -29.9020  -12.8930   17.8950 C   0  0  0  0  0  2  0  0  0  0  0  0
  -28.4550  -12.6230   18.3500 C   0  0  0  0  0  2  0  0  0  0  0  0
  -27.9740  -13.6840   19.3660 C   0  0  0  0  0  3  0  0  0  0  0  0
  -28.9720  -13.9380   20.4930 C   0  0  0  0  0  2  0  0  0  0  0  0
  -30.0780  -14.5500   19.7870 N   0  0  0  0  0  0  0  0  0  0  0  0
  -31.5720  -16.0920   19.5200 O   0  0  0  0  0  0  0  0  0  0  0  0
  -29.2330  -17.0790   19.6780 N   0  0  0  0  0  0  0  0  0  0  0  0
  -28.3550  -16.5850   19.7530 H   0  0  0  0  0  0  0  0  0  0  0  0
  -25.7140  -14.4020   20.2160 C   0  0  0  0  0  0  0  0  0  0  0  0
  -24.6260  -13.6870   20.6310 C   0  0  0  0  0  0  0  0  0  0  0  0
  -25.0060  -12.3130   20.5690 C   0  0  0  0  0  0  0  0  0  0  0  0
  -26.6640  -13.4510   19.9050 N   0  0  0  0  0  0  0  0  0  0  0  0
  -26.2700  -12.1900   20.1960 N   0  0  0  0  0  0  0  0  0  0  0  0
  -24.2140  -11.0960   20.7690 C   0  0  0  0  0  0  0  0  0  0  0  0
  -24.5850  -10.1200   21.7200 C   0  0  0  0  0  3  0  0  0  0  0  0
  -23.7920   -8.9680   21.9030 C   0  0  0  0  0  3  0  0  0  0  0  0
  -22.6200   -8.7850   21.1320 C   0  0  0  0  0  0  0  0  0  0  0  0
  -22.2710   -9.7490   20.1690 C   0  0  0  0  0  3  0  0  0  0  0  0
  -23.0650  -10.8920   19.9830 C   0  0  0  0  0  3  0  0  0  0  0  0
  -21.8010   -7.6880   21.2270 O   0  0  0  0  0  0  0  0  0  0  0  0
  -21.6470   -7.0030   22.4060 C   0  0  0  0  0  0  0  0  0  0  0  0
  -21.1990   -7.6400   23.5830 C   0  0  0  0  0  3  0  0  0  0  0  0
  -20.9900   -6.8830   24.7540 C   0  0  0  0  0  3  0  0  0  0  0  0
  -21.2200   -5.4940   24.7470 C   0  0  0  0  0  0  0  0  0  0  0  0
  -21.6640   -4.8600   23.5730 C   0  0  0  0  0  3  0  0  0  0  0  0
  -21.8740   -5.6120   22.4060 C   0  0  0  0  0  0  0  0  0  0  0  0
  -22.2830   -4.9940   21.2710 F   0  0  0  0  0  0  0  0  0  0  0  0
  -21.0130   -4.7680   25.8690 F   0  0  0  0  0  0  0  0  0  0  0  0
  -23.2760  -14.2540   20.9440 C   0  0  0  0  0  0  0  0  0  0  0  0
  -22.5300  -13.6010   21.8280 N   0  0  0  0  0  0  0  0  0  0  0  0
  -22.8950  -15.3050   20.4370 O   0  0  0  0  0  0  0  0  0  0  0  0
  -22.8560  -12.7490   22.2610 H   0  0  0  0  0  0  0  0  0  0  0  0
  -21.6170  -13.9610   22.0770 H   0  0  0  0  0  0  0  0  0  0  0  0
  -25.9590  -15.7600   20.0480 N   0  0  0  0  0  0  0  0  0  0  0  0
  -25.1860  -16.4050   20.1560 H   0  0  0  0  0  0  0  0  0  0  0  0
  -26.6240  -16.0900   19.3620 H   0  0  0  0  0  0  0  0  0  0  0  0
  -21.2930  -28.1490   20.1810 C   0  0  0  0  0  1  0  0  0  0  0  0
  -21.1170  -29.6240   21.5760 C   0  0  0  0  0  1  0  0  0  0  0  0
  -21.9540  -29.9950   23.1820 N   0  0  0  0  0  0  0  0  0  0  0  0
  -22.0220  -31.0140   23.3190 H   0  0  0  0  0  0  0  0  0  0  0  0
  -23.4220  -29.3250   24.0510 C   0  0  0  0  0  1  0  0  0  0  0  0
  -25.3100  -28.6730   23.5010 C   0  0  0  0  0  1  0  0  0  0  0  0
  -26.3170  -27.5540   22.5080 O   0  0  0  0  0  0  0  0  0  0  0  0
  -24.5550  -31.7340   23.0680 C   0  0  0  0  0  0  0  0  0  0  0  0
  -26.8830  -27.5370   21.1960 C   0  0  0  0  0  3  0  0  0  0  0  0
  -23.7120  -29.7650   21.3370 C   0  0  0  0  0  3  0  0  0  0  0  0
  -25.1990  -28.9670   19.8390 C   0  0  0  0  0  0  0  0  0  0  0  0
  -25.9870  -30.8670   21.2960 C   0  0  0  0  0  2  0  0  0  0  0  0
  -26.2280  -29.5670   20.5880 C   0  0  0  0  0  0  0  0  0  0  0  0
  -27.3230  -28.8100   20.9600 C   0  0  0  0  0  2  0  0  0  0  0  0
  -26.2000  -26.8550   20.1380 C   0  0  0  0  0  2  0  0  0  0  0  0
  -25.2780  -27.6380   19.4240 C   0  0  0  0  0  2  0  0  0  0  0  0
  -23.9400  -29.6810   19.8540 C   0  0  0  0  0  2  0  0  0  0  0  0
  -24.6960  -30.8290   21.9880 N   0  0  0  0  0  0  0  0  0  0  0  0
  -23.4450  -32.1040   23.4950 O   0  0  0  0  0  0  0  0  0  0  0  0
  -23.2830  -28.0900   21.9230 C   0  0  0  0  0  0  0  0  0  0  0  0
  -22.1560  -27.5150   22.6810 N   0  0  0  0  0  0  0  0  0  0  0  0
  -23.9890  -27.1960   22.1230 O   0  0  0  0  0  0  0  0  0  0  0  0
  -22.5980  -26.6650   23.0010 H   0  0  0  0  0  0  0  0  0  0  0  0
  -18.0300  -27.6600   22.7970 C   0  0  0  0  0  0  0  0  0  0  0  0
  -20.6910  -27.5080   23.3160 C   0  0  0  0  0  3  0  0  0  0  0  0
  -20.3990  -26.0580   22.9750 C   0  0  0  0  0  2  0  0  0  0  0  0
  -19.3900  -25.7800   21.8450 C   0  0  0  0  0  2  0  0  0  0  0  0
  -18.0260  -26.2790   22.2100 C   0  0  0  0  0  2  0  0  0  0  0  0
  -19.2390  -28.3140   23.2430 C   0  0  0  0  0  0  0  0  0  0  0  0
  -18.9770  -29.6070   23.8060 C   0  0  0  0  0  3  0  0  0  0  0  0
  -17.6790  -30.1830   23.9080 C   0  0  0  0  0  3  0  0  0  0  0  0
  -16.5410  -29.4920   23.4630 C   0  0  0  0  0  3  0  0  0  0  0  0
  -16.7310  -28.2150   22.9250 C   0  0  0  0  0  3  0  0  0  0  0  0
  -25.7850  -32.3790   23.8570 C   0  0  0  0  0  3  0  0  0  0  0  0
  -25.3790  -33.7550   24.1590 N   0  0  0  0  0  0  0  0  0  0  0  0
  -25.7060  -34.8260   23.4350 C   0  0  0  0  0  0  0  0  0  0  0  0
  -26.4090  -34.7520   22.4230 O   0  0  0  0  0  0  0  0  0  0  0  0
  -24.7680  -33.8700   24.9550 H   0  0  0  0  0  0  0  0  0  0  0  0
  -23.9150  -36.5650   23.1210 C   0  0  0  0  0  1  0  0  0  0  0  0
  -25.1760  -36.1900   23.9170 C   0  0  0  0  0  3  0  0  0  0  0  0
  -27.2800  -37.1450   24.7540 C   0  0  0  0  0  1  0  0  0  0  0  0
  -26.1710  -37.2800   23.8130 N   0  0  0  0  0  0  0  0  0  0  0  0
  -25.7330  -38.1830   23.9740 H   0  0  0  0  0  0  0  0  0  0  0  0
  -26.2940  -31.7510   25.2520 C   0  0  1  0  0  0  0  0  0  0  0  0
  -25.1560  -31.5680   26.3010 C   0  0  0  0  0  1  0  0  0  0  0  0
  -27.1430  -30.4510   25.2170 C   0  0  0  0  0  1  0  0  0  0  0  0
  -27.3620  -32.7010   25.8680 C   0  0  0  0  0  1  0  0  0  0  0  0
  1 50  1  0
  1  2  1  0
  3  1  1  0
  4  5  2  0
  4  1  1  0
  6  7  1  0
  6  5  1  0
  7  9  1  0
  7  8  1  0
 10 11  1  0
 10  7  1  0
 12 18  1  0
 13 18  1  0
 14 15  1  0
 14 13  1  0
 16 15  1  0
 16 25  1  0
 16 17  1  0
 18 17  1  0
 19 12  2  0
 20 12  1  0
 20 11  1  0
 20 21  1  0
 22 23  2  0
 23 42  1  0
 24 23  1  0
 24 27  1  0
 25 26  1  0
 25 22  1  0
 26 24  2  0
 27 28  1  0
 28 29  2  0
 30 33  1  0
 30 29  1  0
 31 30  2  0
 32 31  1  0
 32 27  2  0
 33 34  1  0
 34 35  1  0
 35 36  2  0
 37 36  1  0
 37 41  1  0
 38 37  2  0
 39 34  2  0
 39 38  1  0
 40 39  1  0
 42 43  1  0
 43 46  1  0
 43 45  1  0
 44 42  2  0
 47 48  1  0
 47 22  1  0
 49 47  1  0
 51 52  1  0
 52 53  1  0
 52 54  1  0
 56 55  1  0
 57 68  2  0
 58 56  1  0
 59 69  1  0
 59 67  1  0
 60 66  1  0
 60 62  2  0
 61 67  1  0
 62 63  1  0
 62 61  1  0
 63 58  1  0
 64 58  1  0
 65 60  1  0
 65 64  1  0
 66 59  1  0
 67 57  1  0
 69 71  2  0
 69 70  1  0
 70 72  1  0
 73 82  2  0
 73 78  1  0
 74 70  1  0
 75 74  1  0
 76 77  1  0
 76 75  1  0
 77 73  1  0
 78 74  1  0
 78 79  2  0
 79 80  1  0
 81 80  2  0
 82 81  1  0
 83 57  1  0
 83 84  1  0
 83 93  1  0
 84 87  1  0
 85 89  1  0
 85 84  1  0
 86 85  2  0
 89 88  1  0
 91 89  1  0
 91 92  1  0
 91 90  1  0
 93 96  1  1
 93 94  1  0
 95 93  1  0
M  ISO  4  12 100  20 100  55 101  56 101
M  END
>  <TORSDO>  (20) 
F 27

>  <SCORE>  (20) 
-14.246

>  <name>  (20) 
21

>  <ligand_id>  (20) 
21

>  <original_smiles>  (20) 
[H]c1c([H])c([H])c2c(c1[H])C([H])([H])C([H])([H])C([H])([H])C2([H])N([H])C(=O)C1([H])N(C(=O)C([H])(N([H])C(=O)C([H])(N([H])C([H])([H])[H])C([H])([H])[H])C(C([H])([H])[H])(C([H])([H])[H])C([H])([H])[H])C([H])([H])c2c([H])c(OC([H])([H])C([H])([H])N([H])C([H])([H])C([H])([H])[N+]([H])([H])C([H])([H])C([H])([H])C([H])([H])[N+]([H])([H])C([H])([H])C([H])([H])N([H])C(=O)N3C([H])([H])C([H])([H])C([H])([H])C([H])(n4nc(-c5c([H])c([H])c(Oc6c([H])c([H])c(F)c([H])c6F)c([H])c5[H])c(C(=O)N([H])[H])c4N([H])[H])C3([H])[H])c([H])c([H])c2C1([H])[H]

>  <smiles>  (20) 
[H]c1c([H])c([H])c2c(c1[H])C([H])([H])C([H])([H])C([H])([H])C2([H])N([H])C(=O)C1([H])N(C(=O)C([H])(N([H])C(=O)C([H])(N([H])C([H])([H])[H])C([H])([H])[H])C(C([H])([H])[H])(C([H])([H])[H])C([H])([H])[H])C([H])([H])c2c([H])c(OC([H])([H])C([H])([H])N([H])C([H])([H])C([H])([H])[N+]([H])([H])C([H])([H])C([H])([H])C([H])([H])[N+]([H])([H])C([H])([H])C([H])([H])N([H])C(=O)N3C([H])([H])C([H])([H])C([H])([H])C([H])(n4nc(-c5c([H])c([H])c(Oc6c([H])c([H])c(F)c([H])c6F)c([H])c5[H])c(C(=O)N([H])[H])c4N([H])[H])C3([H])[H])c([H])c([H])c2C1([H])[H]

$$$$
22:0:0
     RDKit          3D

 99106  0  0  1  0  0  0  0  0999 V2000
  -30.1060  -18.7340   19.7140 O   0  0  0  0  0  0  0  0  0  0  0  0
  -29.2600  -19.2480   18.6770 C   0  0  0  0  0  2  0  0  0  0  0  0
  -30.0230  -19.1330   17.3440 C   0  0  0  0  0  2  0  0  0  0  0  0
  -29.3220  -18.2850   16.3170 N   0  0  0  0  0  4  0  0  0  0  0  0
  -29.3900  -17.3270   16.6190 H   0  0  0  0  0  0  0  0  0  0  0  0
  -28.3390  -18.5250   16.2980 H   0  0  0  0  0  0  0  0  0  0  0  0
  -29.8180  -18.3070   14.9050 C   0  0  0  0  0  2  0  0  0  0  0  0
  -30.5830  -19.6110   14.6530 C   0  0  0  0  0  2  0  0  0  0  0  0
  -31.1770  -20.0280   13.2890 C   0  0  0  0  0  2  0  0  0  0  0  0
  -32.4480  -21.0250   13.4190 C   0  0  0  0  0  2  0  0  0  0  0  0
  -33.4120  -19.9110   14.2050 C   0  0  0  0  0  2  0  0  0  0  0  0
  -33.4180  -19.2030   15.7400 C   0  0  0  0  0  2  0  0  0  0  0  0
  -34.7560  -19.4030   18.1310 C   0  0  0  0  0  0  0  0  0  0  0  0
  -37.2040  -18.8590   18.3410 C   0  0  0  0  0  2  0  0  0  0  0  0
  -38.1760  -20.0270   17.9500 C   0  0  0  0  0  2  0  0  0  0  0  0
  -38.0750  -20.5510   16.5020 C   0  0  0  0  0  2  0  0  0  0  0  0
  -36.6050  -20.5300   16.1140 C   0  0  0  0  0  3  0  0  0  0  0  0
  -36.2380  -19.0500   16.2830 C   0  0  0  0  0  2  0  0  0  0  0  0
  -35.9220  -18.9640   17.6520 N   0  0  0  0  0  0  0  0  0  0  0  0
  -34.6450  -19.6160   19.3580 O   0  0  0  0  0  0  0  0  0  0  0  0
  -33.8340  -19.7410   17.1410 N   0  0  0  0  0  0  0  0  0  0  0  0
  -33.1020  -20.3070   17.5510 H   0  0  0  0  0  0  0  0  0  0  0  0
  -36.0420  -22.4300   13.9320 C   0  0  0  0  0  0  0  0  0  0  0  0
  -36.1500  -22.0980   12.2450 C   0  0  0  0  0  0  0  0  0  0  0  0
  -36.6810  -20.3810   11.9840 C   0  0  0  0  0  0  0  0  0  0  0  0
  -36.4460  -20.8680   14.8330 N   0  0  0  0  0  0  0  0  0  0  0  0
  -36.8550  -19.5880   13.5650 N   0  0  0  0  0  0  0  0  0  0  0  0
  -37.4550  -19.8450   10.9350 C   0  0  0  0  0  0  0  0  0  0  0  0
  -37.1430  -18.5450   10.5430 C   0  0  0  0  0  3  0  0  0  0  0  0
  -37.8230  -17.9860    9.4610 C   0  0  0  0  0  3  0  0  0  0  0  0
  -38.8170  -18.7390    8.7960 C   0  0  0  0  0  0  0  0  0  0  0  0
  -39.1890  -20.0090    9.2670 C   0  0  0  0  0  3  0  0  0  0  0  0
  -38.5130  -20.5690   10.3530 C   0  0  0  0  0  3  0  0  0  0  0  0
  -39.4630  -18.2650    7.6920 O   0  0  0  0  0  0  0  0  0  0  0  0
  -38.8220  -17.3980    6.8510 C   0  0  0  0  0  0  0  0  0  0  0  0
  -37.6170  -17.7420    6.2010 C   0  0  0  0  0  3  0  0  0  0  0  0
  -37.0260  -16.8390    5.2980 C   0  0  0  0  0  3  0  0  0  0  0  0
  -37.6440  -15.6010    5.0420 C   0  0  0  0  0  0  0  0  0  0  0  0
  -38.8380  -15.2520    5.7010 C   0  0  0  0  0  3  0  0  0  0  0  0
  -39.4230  -16.1470    6.6100 C   0  0  0  0  0  0  0  0  0  0  0  0
  -40.5720  -15.8220    7.2470 F   0  0  0  0  0  0  0  0  0  0  0  0
  -37.0920  -14.7380    4.1600 F   0  0  0  0  0  0  0  0  0  0  0  0
  -36.0260  -23.0650   11.1580 C   0  0  0  0  0  0  0  0  0  0  0  0
  -35.6520  -22.5670    9.9880 N   0  0  0  0  0  0  0  0  0  0  0  0
  -36.2020  -24.2540   11.3710 O   0  0  0  0  0  0  0  0  0  0  0  0
  -35.4320  -21.5900    9.8450 H   0  0  0  0  0  0  0  0  0  0  0  0
  -35.5230  -23.2050    9.2150 H   0  0  0  0  0  0  0  0  0  0  0  0
  -35.8740  -23.5860   14.6520 N   0  0  0  0  0  0  0  0  0  0  0  0
  -35.6360  -24.4710   14.2300 H   0  0  0  0  0  0  0  0  0  0  0  0
  -36.0810  -23.6650   15.6400 H   0  0  0  0  0  0  0  0  0  0  0  0
  -30.7320  -19.6900   20.5750 C   0  0  0  0  0  2  0  0  0  0  0  0
  -29.7660  -20.2460   21.6420 C   0  0  0  0  0  2  0  0  0  0  0  0
  -29.8430  -21.7830   21.9000 C   0  0  0  0  0  2  0  0  0  0  0  0
  -28.4650  -22.3330   21.9930 N   0  0  0  0  0  4  0  0  0  0  0  0
  -28.0300  -21.9860   22.8350 H   0  0  0  0  0  0  0  0  0  0  0  0
  -27.9810  -21.9170   21.2160 H   0  0  0  0  0  0  0  0  0  0  0  0
  -28.2510  -23.8070   21.9030 C   0  0  0  0  0  2  0  0  0  0  0  0
  -26.9960  -24.1350   21.0370 C   0  0  0  0  0  2  0  0  0  0  0  0
  -26.1230  -25.1160   21.6290 O   0  0  0  0  0  0  0  0  0  0  0  0
  -19.2460  -26.2280   19.9320 C   0  0  0  0  0  0  0  0  0  0  0  0
  -25.2150  -25.8120   20.8400 C   0  0  0  0  0  0  0  0  0  0  0  0
  -20.9050  -27.4330   18.5500 C   0  0  0  0  0  3  0  0  0  0  0  0
  -23.3170  -27.3520   19.3850 C   0  0  0  0  0  0  0  0  0  0  0  0
  -21.4640  -26.7480   20.9530 C   0  0  0  0  0  2  0  0  0  0  0  0
  -22.9180  -26.6530   20.5300 C   0  0  0  0  0  0  0  0  0  0  0  0
  -23.8640  -25.8920   21.2590 C   0  0  0  0  0  3  0  0  0  0  0  0
  -25.5900  -26.5190   19.6720 C   0  0  0  0  0  3  0  0  0  0  0  0
  -24.6530  -27.2870   18.9510 C   0  0  0  0  0  3  0  0  0  0  0  0
  -22.2640  -28.1740   18.6760 C   0  0  0  0  0  2  0  0  0  0  0  0
  -20.4980  -26.7570   19.8240 N   0  0  0  0  0  0  0  0  0  0  0  0
  -18.4240  -26.3320   19.0110 O   0  0  0  0  0  0  0  0  0  0  0  0
  -20.9790  -26.4720   17.3410 C   0  0  0  0  0  0  0  0  0  0  0  0
  -21.0980  -27.0390   16.1290 N   0  0  0  0  0  0  0  0  0  0  0  0
  -20.9590  -25.2500   17.5060 O   0  0  0  0  0  0  0  0  0  0  0  0
  -21.1000  -28.0480   16.0780 H   0  0  0  0  0  0  0  0  0  0  0  0
  -21.6380  -27.4860   12.5810 C   0  0  0  0  0  0  0  0  0  0  0  0
  -21.2330  -26.3290   14.8580 C   0  0  0  0  0  3  0  0  0  0  0  0
  -22.6550  -25.7420   14.6970 C   0  0  0  0  0  2  0  0  0  0  0  0
  -23.6100  -26.6730   13.9430 C   0  0  0  0  0  2  0  0  0  0  0  0
  -23.0700  -26.9780   12.5430 C   0  0  0  0  0  2  0  0  0  0  0  0
  -20.7810  -27.1940   13.6750 C   0  0  0  0  0  0  0  0  0  0  0  0
  -19.4700  -27.7180   13.6760 C   0  0  0  0  0  3  0  0  0  0  0  0
  -19.0120  -28.5160   12.6110 C   0  0  0  0  0  3  0  0  0  0  0  0
  -19.8610  -28.7880   11.5230 C   0  0  0  0  0  3  0  0  0  0  0  0
  -21.1680  -28.2710   11.5080 C   0  0  0  0  0  3  0  0  0  0  0  0
  -18.7790  -25.4880   21.2260 C   0  0  0  0  0  3  0  0  0  0  0  0
  -17.6110  -26.2070   21.7500 N   0  0  0  0  0  0  0  0  0  0  0  0
  -17.6080  -26.9430   22.8690 C   0  0  0  0  0  0  0  0  0  0  0  0
  -18.5860  -27.0300   23.6160 O   0  0  0  0  0  0  0  0  0  0  0  0
  -16.7910  -26.2270   21.1600 H   0  0  0  0  0  0  0  0  0  0  0  0
  -16.5370  -29.2140   23.0330 C   0  0  0  0  0  1  0  0  0  0  0  0
  -16.3130  -27.7040   23.2160 C   0  0  0  0  0  3  0  0  0  0  0  0
  -15.2750  -26.0890   24.7480 C   0  0  0  0  0  1  0  0  0  0  0  0
  -15.8130  -27.4370   24.5830 N   0  0  0  0  0  0  0  0  0  0  0  0
  -15.0820  -28.0990   24.8300 H   0  0  0  0  0  0  0  0  0  0  0  0
  -18.4330  -23.9680   20.9810 C   0  0  1  0  0  0  0  0  0  0  0  0
  -17.4670  -23.7310   19.7970 C   0  0  0  0  0  1  0  0  0  0  0  0
  -19.7180  -23.1500   20.7130 C   0  0  0  0  0  1  0  0  0  0  0  0
  -17.7850  -23.3670   22.2520 C   0  0  0  0  0  1  0  0  0  0  0  0
  1 51  1  0
  2  1  1  0
  3  2  1  0
  4  5  1  0
  4  3  1  0
  6  4  1  0
  7  4  1  0
  8  7  1  0
  9 10  1  0
  9  8  1  0
 10 11  1  0
 11 12  1  0
 12 21  1  0
 13 20  2  0
 15 14  1  0
 16 15  1  0
 17 26  1  0
 17 18  1  0
 17 16  1  0
 18 19  1  0
 19 13  1  0
 19 14  1  0
 21 22  1  0
 21 13  1  0
 23 48  1  0
 23 26  1  0
 24 23  2  0
 25 24  1  0
 25 27  2  0
 27 26  1  0
 28 25  1  0
 29 28  1  0
 30 29  2  0
 31 32  2  0
 31 30  1  0
 32 33  1  0
 33 28  2  0
 34 31  1  0
 35 34  1  0
 36 35  2  0
 37 36  1  0
 38 37  2  0
 38 39  1  0
 39 40  2  0
 40 35  1  0
 40 41  1  0
 42 38  1  0
 43 45  2  0
 43 24  1  0
 44 43  1  0
 46 44  1  0
 47 44  1  0
 48 50  1  0
 49 48  1  0
 51 52  1  0
 52 53  1  0
 53 54  1  0
 54 55  1  0
 56 54  1  0
 57 54  1  0
 58 59  1  0
 58 57  1  0
 61 66  1  0
 61 59  1  0
 62 72  1  0
 62 69  1  0
 62 70  1  0
 63 65  1  0
 65 64  1  0
 65 66  2  0
 67 61  2  0
 68 63  2  0
 68 67  1  0
 69 63  1  0
 70 60  1  0
 70 64  1  0
 71 60  2  0
 72 74  2  0
 73 72  1  0
 75 73  1  0
 76 81  1  0
 77 73  1  0
 78 77  1  0
 79 78  1  0
 80 76  1  0
 80 79  1  0
 81 82  2  0
 81 77  1  0
 83 82  1  0
 84 83  2  0
 85 84  1  0
 85 76  2  0
 86 60  1  0
 86 87  1  0
 87 88  1  0
 88 92  1  0
 88 89  2  0
 90 87  1  0
 92 91  1  0
 92 94  1  0
 94 93  1  0
 94 95  1  0
 96 86  1  0
 96 99  1  1
 97 96  1  0
 98 96  1  0
M  ISO  4  13 100  21 100  58 101  59 101
M  END
>  <TORSDO>  (21) 
F 31

>  <SCORE>  (21) 
-4.189

>  <name>  (21) 
22

>  <ligand_id>  (21) 
22

>  <original_smiles>  (21) 
[H]c1c([H])c([H])c2c(c1[H])C([H])([H])C([H])([H])C([H])([H])C2([H])N([H])C(=O)C1([H])N(C(=O)C([H])(N([H])C(=O)C([H])(N([H])C([H])([H])[H])C([H])([H])[H])C(C([H])([H])[H])(C([H])([H])[H])C([H])([H])[H])C([H])([H])c2c([H])c(OC([H])([H])C([H])([H])[N+]([H])([H])C([H])([H])C([H])([H])C([H])([H])OC([H])([H])C([H])([H])[N+]([H])([H])C([H])([H])C([H])([H])C([H])([H])C([H])([H])C([H])([H])C([H])([H])N([H])C(=O)N3C([H])([H])C([H])([H])C([H])([H])C([H])(n4nc(-c5c([H])c([H])c(Oc6c([H])c([H])c(F)c([H])c6F)c([H])c5[H])c(C(=O)N([H])[H])c4N([H])[H])C3([H])[H])c([H])c([H])c2C1([H])[H]

>  <smiles>  (21) 
[H]c1c([H])c([H])c2c(c1[H])C([H])([H])C([H])([H])C([H])([H])C2([H])N([H])C(=O)C1([H])N(C(=O)C([H])(N([H])C(=O)C([H])(N([H])C([H])([H])[H])C([H])([H])[H])C(C([H])([H])[H])(C([H])([H])[H])C([H])([H])[H])C([H])([H])c2c([H])c(OC([H])([H])C([H])([H])[N+]([H])([H])C([H])([H])C([H])([H])C([H])([H])OC([H])([H])C([H])([H])[N+]([H])([H])C([H])([H])C([H])([H])C([H])([H])C([H])([H])C([H])([H])C([H])([H])N([H])C(=O)N3C([H])([H])C([H])([H])C([H])([H])C([H])(n4nc(-c5c([H])c([H])c(Oc6c([H])c([H])c(F)c([H])c6F)c([H])c5[H])c(C(=O)N([H])[H])c4N([H])[H])C3([H])[H])c([H])c([H])c2C1([H])[H]

$$$$
23:0:0
     RDKit          3D

 98105  0  0  1  0  0  0  0  0999 V2000
  -23.8260  -20.7760   19.4400 C   0  0  0  0  0  2  0  0  0  0  0  0
  -24.3950  -22.1380   19.8700 C   0  0  0  0  0  2  0  0  0  0  0  0
  -25.2950  -22.6360   18.8200 N   0  0  0  0  0  4  0  0  0  0  0  0
  -25.7190  -21.8060   18.4210 H   0  0  0  0  0  0  0  0  0  0  0  0
  -24.7370  -23.0640   18.0990 H   0  0  0  0  0  0  0  0  0  0  0  0
  -26.3250  -23.5880   19.2590 C   0  0  0  0  0  2  0  0  0  0  0  0
  -27.1380  -24.0770   18.0500 C   0  0  0  0  0  2  0  0  0  0  0  0
  -28.1110  -25.2030   18.4210 C   0  0  0  0  0  2  0  0  0  0  0  0
  -28.2780  -26.2410   17.2960 C   0  0  0  0  0  2  0  0  0  0  0  0
  -28.2010  -27.5500   17.8470 O   0  0  0  0  0  0  0  0  0  0  0  0
  -24.7660  -30.9690   23.0190 C   0  0  0  0  0  0  0  0  0  0  0  0
  -26.9800  -28.0510   18.2530 C   0  0  0  0  0  0  0  0  0  0  0  0
  -23.3330  -30.0890   21.2030 C   0  0  0  0  0  3  0  0  0  0  0  0
  -24.5650  -29.2200   19.1480 C   0  0  0  0  0  0  0  0  0  0  0  0
  -25.7760  -30.7030   20.7580 C   0  0  0  0  0  2  0  0  0  0  0  0
  -25.7870  -29.6300   19.6920 C   0  0  0  0  0  0  0  0  0  0  0  0
  -26.9920  -29.0480   19.2480 C   0  0  0  0  0  3  0  0  0  0  0  0
  -25.7340  -27.6350   17.7210 C   0  0  0  0  0  3  0  0  0  0  0  0
  -24.5310  -28.2170   18.1640 C   0  0  0  0  0  3  0  0  0  0  0  0
  -23.3230  -29.9120   19.6610 C   0  0  0  0  0  2  0  0  0  0  0  0
  -24.6530  -30.5830   21.7170 N   0  0  0  0  0  0  0  0  0  0  0  0
  -23.7870  -30.9610   23.7770 O   0  0  0  0  0  0  0  0  0  0  0  0
  -22.8820  -28.7620   21.8530 C   0  0  0  0  0  0  0  0  0  0  0  0
  -21.5910  -28.4290   21.6940 N   0  0  0  0  0  0  0  0  0  0  0  0
  -23.6870  -28.0460   22.4550 O   0  0  0  0  0  0  0  0  0  0  0  0
  -20.9960  -29.0720   21.1920 H   0  0  0  0  0  0  0  0  0  0  0  0
  -18.4980  -26.5650   21.6970 C   0  0  0  0  0  0  0  0  0  0  0  0
  -20.9520  -27.2100   22.1850 C   0  0  0  0  0  3  0  0  0  0  0  0
  -21.3390  -25.9920   21.3160 C   0  0  0  0  0  2  0  0  0  0  0  0
  -20.3410  -25.7150   20.1860 C   0  0  0  0  0  2  0  0  0  0  0  0
  -18.9430  -25.4600   20.7560 C   0  0  0  0  0  2  0  0  0  0  0  0
  -19.4410  -27.3960   22.3570 C   0  0  0  0  0  0  0  0  0  0  0  0
  -18.9730  -28.4310   23.1960 C   0  0  0  0  0  3  0  0  0  0  0  0
  -17.5940  -28.6400   23.3830 C   0  0  0  0  0  3  0  0  0  0  0  0
  -16.6650  -27.8040   22.7380 C   0  0  0  0  0  3  0  0  0  0  0  0
  -17.1170  -26.7690   21.9020 C   0  0  0  0  0  3  0  0  0  0  0  0
  -26.1250  -31.4620   23.6110 C   0  0  0  0  0  3  0  0  0  0  0  0
  -25.8820  -32.7650   24.2450 N   0  0  0  0  0  0  0  0  0  0  0  0
  -26.2100  -33.9460   23.7040 C   0  0  0  0  0  0  0  0  0  0  0  0
  -26.8200  -34.0470   22.6360 O   0  0  0  0  0  0  0  0  0  0  0  0
  -25.3350  -32.7590   25.0940 H   0  0  0  0  0  0  0  0  0  0  0  0
  -24.5560  -35.8370   23.8020 C   0  0  0  0  0  1  0  0  0  0  0  0
  -25.7930  -35.2160   24.4690 C   0  0  0  0  0  3  0  0  0  0  0  0
  -27.9780  -35.8150   25.4160 C   0  0  0  0  0  1  0  0  0  0  0  0
  -26.8700  -36.2270   24.5580 N   0  0  0  0  0  0  0  0  0  0  0  0
  -26.5090  -37.1100   24.9080 H   0  0  0  0  0  0  0  0  0  0  0  0
  -26.7610  -30.4480   24.6370 C   0  0  1  0  0  0  0  0  0  0  0  0
  -25.7870  -29.9990   25.7540 C   0  0  0  0  0  1  0  0  0  0  0  0
  -27.2590  -29.1770   23.9100 C   0  0  0  0  0  1  0  0  0  0  0  0
  -28.0000  -31.0880   25.3070 C   0  0  0  0  0  1  0  0  0  0  0  0
  -24.8810  -19.6500   19.4030 C   0  0  0  0  0  2  0  0  0  0  0  0
  -26.0020  -19.9660   18.5040 N   0  0  0  0  0  0  0  0  0  0  0  0
  -25.6220  -20.1040   17.5650 H   0  0  0  0  0  0  0  0  0  0  0  0
  -26.8520  -18.7790   18.3990 C   0  0  0  0  0  2  0  0  0  0  0  0
  -28.3200  -19.0890   18.0140 C   0  0  0  0  0  2  0  0  0  0  0  0
  -29.2090  -19.1530   19.1990 N   0  0  0  0  0  4  0  0  0  0  0  0
  -28.7520  -19.7260   19.8940 H   0  0  0  0  0  0  0  0  0  0  0  0
  -30.0540  -19.6220   18.9090 H   0  0  0  0  0  0  0  0  0  0  0  0
  -29.5770  -17.8270   19.7430 C   0  0  0  0  0  2  0  0  0  0  0  0
  -30.4270  -17.8770   21.0380 C   0  0  0  0  0  2  0  0  0  0  0  0
  -31.3100  -15.5440   20.9840 C   0  0  0  0  0  0  0  0  0  0  0  0
  -31.0760  -13.3450   19.8960 C   0  0  0  0  0  2  0  0  0  0  0  0
  -30.2200  -13.4700   18.6110 C   0  0  0  0  0  2  0  0  0  0  0  0
  -28.7230  -13.7790   18.8720 C   0  0  0  0  0  2  0  0  0  0  0  0
  -28.3440  -13.6790   20.3490 C   0  0  0  0  0  3  0  0  0  0  0  0
  -29.3190  -14.1060   21.4500 C   0  0  0  0  0  2  0  0  0  0  0  0
  -30.6560  -14.3610   20.8760 N   0  0  0  0  0  0  0  0  0  0  0  0
  -32.3910  -15.7820   20.4430 O   0  0  0  0  0  0  0  0  0  0  0  0
  -30.5920  -16.5170   21.5540 N   0  0  0  0  0  0  0  0  0  0  0  0
  -29.8100  -16.1580   22.0910 H   0  0  0  0  0  0  0  0  0  0  0  0
  -25.9220  -14.6310   20.9430 C   0  0  0  0  0  0  0  0  0  0  0  0
  -24.7900  -13.8950   21.1900 C   0  0  0  0  0  0  0  0  0  0  0  0
  -25.1840  -12.5350   21.0730 C   0  0  0  0  0  0  0  0  0  0  0  0
  -26.9270  -13.6880   20.6950 N   0  0  0  0  0  0  0  0  0  0  0  0
  -26.4560  -12.4430   20.8190 N   0  0  0  0  0  0  0  0  0  0  0  0
  -24.4540  -11.2810   21.1260 C   0  0  0  0  0  0  0  0  0  0  0  0
  -24.8360  -10.2580   22.0200 C   0  0  0  0  0  3  0  0  0  0  0  0
  -24.1240   -9.0440   22.0480 C   0  0  0  0  0  3  0  0  0  0  0  0
  -23.0270   -8.8540   21.1770 C   0  0  0  0  0  0  0  0  0  0  0  0
  -22.6790   -9.8650   20.2650 C   0  0  0  0  0  3  0  0  0  0  0  0
  -23.3890  -11.0730   20.2320 C   0  0  0  0  0  3  0  0  0  0  0  0
  -22.2840   -7.7030   21.1230 O   0  0  0  0  0  0  0  0  0  0  0  0
  -22.0350   -6.9620   22.2480 C   0  0  0  0  0  0  0  0  0  0  0  0
  -21.3700   -7.5060   23.3690 C   0  0  0  0  0  3  0  0  0  0  0  0
  -21.0720   -6.6850   24.4740 C   0  0  0  0  0  3  0  0  0  0  0  0
  -21.4290   -5.3230   24.4580 C   0  0  0  0  0  0  0  0  0  0  0  0
  -22.0880   -4.7810   23.3410 C   0  0  0  0  0  3  0  0  0  0  0  0
  -22.3900   -5.5980   22.2390 C   0  0  0  0  0  0  0  0  0  0  0  0
  -23.0070   -5.0680   21.1550 F   0  0  0  0  0  0  0  0  0  0  0  0
  -21.1320   -4.5330   25.5150 F   0  0  0  0  0  0  0  0  0  0  0  0
  -23.3980  -14.3920   21.4640 C   0  0  0  0  0  0  0  0  0  0  0  0
  -22.6210  -13.6340   22.2320 N   0  0  0  0  0  0  0  0  0  0  0  0
  -23.0030  -15.4720   21.0330 O   0  0  0  0  0  0  0  0  0  0  0  0
  -22.9420  -12.7470   22.5880 H   0  0  0  0  0  0  0  0  0  0  0  0
  -21.6930  -13.9550   22.4730 H   0  0  0  0  0  0  0  0  0  0  0  0
  -26.1600  -15.9970   20.9240 N   0  0  0  0  0  0  0  0  0  0  0  0
  -25.4450  -16.6490   21.2260 H   0  0  0  0  0  0  0  0  0  0  0  0
  -27.0980  -16.3630   20.9680 H   0  0  0  0  0  0  0  0  0  0  0  0
  1  2  1  0
  3  6  1  0
  3  2  1  0
  4  3  1  0
  5  3  1  0
  7  8  1  0
  7  6  1  0
  9 10  1  0
  9  8  1  0
 10 12  1  0
 11 22  2  0
 12 17  1  0
 13 21  1  0
 13 23  1  0
 14 20  1  0
 14 16  1  0
 15 21  1  0
 16 15  1  0
 17 16  2  0
 18 19  1  0
 18 12  2  0
 19 14  2  0
 20 13  1  0
 21 11  1  0
 23 25  2  0
 24 23  1  0
 26 24  1  0
 27 36  2  0
 27 32  1  0
 28 24  1  0
 28 32  1  0
 29 28  1  0
 30 31  1  0
 30 29  1  0
 31 27  1  0
 32 33  2  0
 33 34  1  0
 35 34  2  0
 36 35  1  0
 37 11  1  0
 37 38  1  0
 37 47  1  0
 38 41  1  0
 39 38  1  0
 39 43  1  0
 40 39  2  0
 43 42  1  0
 43 45  1  0
 45 46  1  0
 45 44  1  0
 47 50  1  1
 47 48  1  0
 49 47  1  0
 51  1  1  0
 52 51  1  0
 53 52  1  0
 54 52  1  0
 55 54  1  0
 55 56  1  0
 56 59  1  0
 56 57  1  0
 58 56  1  0
 59 60  1  0
 60 69  1  0
 61 69  1  0
 62 67  1  0
 63 64  1  0
 63 62  1  0
 65 64  1  0
 65 74  1  0
 65 66  1  0
 67 61  1  0
 67 66  1  0
 68 61  2  0
 69 70  1  0
 71 72  2  0
 72 91  1  0
 73 76  1  0
 73 72  1  0
 74 75  1  0
 74 71  1  0
 75 73  2  0
 76 77  1  0
 77 78  2  0
 79 78  1  0
 80 79  2  0
 81 80  1  0
 81 76  2  0
 82 79  1  0
 82 83  1  0
 83 84  1  0
 84 85  2  0
 86 85  1  0
 86 90  1  0
 87 86  2  0
 88 83  2  0
 88 87  1  0
 89 88  1  0
 91 92  1  0
 92 95  1  0
 92 94  1  0
 93 91  2  0
 96 71  1  0
 96 98  1  0
 96 97  1  0
M  ISO  4   9 101  10 101  61 100  69 100
M  END
>  <TORSDO>  (22) 
F 29

>  <SCORE>  (22) 
-3.091

>  <name>  (22) 
23

>  <ligand_id>  (22) 
23

>  <original_smiles>  (22) 
[H]c1c([H])c([H])c2c(c1[H])C([H])([H])C([H])([H])C([H])([H])C2([H])N([H])C(=O)C1([H])N(C(=O)C([H])(N([H])C(=O)C([H])(N([H])C([H])([H])[H])C([H])([H])[H])C(C([H])([H])[H])(C([H])([H])[H])C([H])([H])[H])C([H])([H])c2c([H])c(OC([H])([H])C([H])([H])C([H])([H])C([H])([H])[N+]([H])([H])C([H])([H])C([H])([H])C([H])([H])N([H])C([H])([H])C([H])([H])[N+]([H])([H])C([H])([H])C([H])([H])N([H])C(=O)N3C([H])([H])C([H])([H])C([H])([H])C([H])(n4nc(-c5c([H])c([H])c(Oc6c([H])c([H])c(F)c([H])c6F)c([H])c5[H])c(C(=O)N([H])[H])c4N([H])[H])C3([H])[H])c([H])c([H])c2C1([H])[H]

>  <smiles>  (22) 
[H]c1c([H])c([H])c2c(c1[H])C([H])([H])C([H])([H])C([H])([H])C2([H])N([H])C(=O)C1([H])N(C(=O)C([H])(N([H])C(=O)C([H])(N([H])C([H])([H])[H])C([H])([H])[H])C(C([H])([H])[H])(C([H])([H])[H])C([H])([H])[H])C([H])([H])c2c([H])c(OC([H])([H])C([H])([H])C([H])([H])C([H])([H])[N+]([H])([H])C([H])([H])C([H])([H])C([H])([H])N([H])C([H])([H])C([H])([H])[N+]([H])([H])C([H])([H])C([H])([H])N([H])C(=O)N3C([H])([H])C([H])([H])C([H])([H])C([H])(n4nc(-c5c([H])c([H])c(Oc6c([H])c([H])c(F)c([H])c6F)c([H])c5[H])c(C(=O)N([H])[H])c4N([H])[H])C3([H])[H])c([H])c([H])c2C1([H])[H]

$$$$
24:0:0
     RDKit          3D

 92 99  0  0  1  0  0  0  0  0999 V2000
  -30.6930  -22.4050   20.8030 C   0  0  0  0  0  2  0  0  0  0  0  0
  -29.4550  -23.1680   20.5170 N   0  0  0  0  0  4  0  0  0  0  0  0
  -28.7860  -22.9730   21.2460 H   0  0  0  0  0  0  0  0  0  0  0  0
  -29.0670  -22.8270   19.6500 H   0  0  0  0  0  0  0  0  0  0  0  0
  -29.6240  -24.6440   20.4230 C   0  0  0  0  0  2  0  0  0  0  0  0
  -28.3000  -25.3340   20.0460 C   0  0  0  0  0  2  0  0  0  0  0  0
  -28.3910  -26.7570   20.1710 O   0  0  0  0  0  0  0  0  0  0  0  0
  -24.5800  -31.9000   23.2520 C   0  0  0  0  0  0  0  0  0  0  0  0
  -27.2010  -27.4580   20.1600 C   0  0  0  0  0  0  0  0  0  0  0  0
  -23.3630  -30.5030   21.6160 C   0  0  0  0  0  3  0  0  0  0  0  0
  -24.8030  -28.9630   20.1850 C   0  0  0  0  0  0  0  0  0  0  0  0
  -25.8870  -30.8580   21.4040 C   0  0  0  0  0  2  0  0  0  0  0  0
  -25.9660  -29.4870   20.7650 C   0  0  0  0  0  0  0  0  0  0  0  0
  -27.1660  -28.7440   20.7450 C   0  0  0  0  0  3  0  0  0  0  0  0
  -26.0150  -26.9440   19.5780 C   0  0  0  0  0  3  0  0  0  0  0  0
  -24.8230  -27.6910   19.5890 C   0  0  0  0  0  3  0  0  0  0  0  0
  -23.5620  -29.8230   20.2350 C   0  0  0  0  0  2  0  0  0  0  0  0
  -24.6290  -31.1030   22.1490 N   0  0  0  0  0  0  0  0  0  0  0  0
  -23.5020  -32.1770   23.7980 O   0  0  0  0  0  0  0  0  0  0  0  0
  -22.7110  -29.4840   22.5790 C   0  0  0  0  0  0  0  0  0  0  0  0
  -21.3860  -29.3030   22.4530 N   0  0  0  0  0  0  0  0  0  0  0  0
  -23.3930  -28.8570   23.3920 O   0  0  0  0  0  0  0  0  0  0  0  0
  -20.8960  -29.8610   21.7680 H   0  0  0  0  0  0  0  0  0  0  0  0
  -18.0090  -28.1140   22.9470 C   0  0  0  0  0  0  0  0  0  0  0  0
  -20.5670  -28.3670   23.2220 C   0  0  0  0  0  3  0  0  0  0  0  0
  -20.6670  -26.9350   22.6490 C   0  0  0  0  0  2  0  0  0  0  0  0
  -19.5660  -26.6130   21.6340 C   0  0  0  0  0  2  0  0  0  0  0  0
  -18.1820  -26.7610   22.2760 C   0  0  0  0  0  2  0  0  0  0  0  0
  -19.1290  -28.8740   23.3750 C   0  0  0  0  0  0  0  0  0  0  0  0
  -18.9140  -30.1390   23.9630 C   0  0  0  0  0  3  0  0  0  0  0  0
  -17.6110  -30.6460   24.1280 C   0  0  0  0  0  3  0  0  0  0  0  0
  -16.5040  -29.8830   23.7140 C   0  0  0  0  0  3  0  0  0  0  0  0
  -16.7040  -28.6200   23.1300 C   0  0  0  0  0  3  0  0  0  0  0  0
  -25.8690  -32.5250   23.8670 C   0  0  0  0  0  3  0  0  0  0  0  0
  -25.5690  -33.9230   24.1980 N   0  0  0  0  0  0  0  0  0  0  0  0
  -25.9040  -34.9730   23.4380 C   0  0  0  0  0  0  0  0  0  0  0  0
  -26.5690  -34.8670   22.4030 O   0  0  0  0  0  0  0  0  0  0  0  0
  -24.9790  -34.0790   25.0010 H   0  0  0  0  0  0  0  0  0  0  0  0
  -24.1800  -36.7710   23.0870 C   0  0  0  0  0  1  0  0  0  0  0  0
  -25.4230  -36.3640   23.8930 C   0  0  0  0  0  3  0  0  0  0  0  0
  -27.5650  -37.2420   24.7090 C   0  0  0  0  0  1  0  0  0  0  0  0
  -26.4590  -37.4130   23.7720 N   0  0  0  0  0  0  0  0  0  0  0  0
  -26.0590  -38.3350   23.9190 H   0  0  0  0  0  0  0  0  0  0  0  0
  -26.3910  -31.7480   25.1370 C   0  0  1  0  0  0  0  0  0  0  0  0
  -25.3050  -31.5120   26.2120 C   0  0  0  0  0  1  0  0  0  0  0  0
  -26.9670  -30.3690   24.7350 C   0  0  0  0  0  1  0  0  0  0  0  0
  -27.5490  -32.5370   25.7940 C   0  0  0  0  0  1  0  0  0  0  0  0
  -30.4130  -20.9060   21.0740 C   0  0  0  0  0  2  0  0  0  0  0  0
  -31.7000  -20.0750   21.2730 C   0  0  0  0  0  2  0  0  0  0  0  0
  -30.9450  -17.6680   21.2140 C   0  0  0  0  0  0  0  0  0  0  0  0
  -31.4570  -18.7420   21.8340 N   0  0  0  0  0  0  0  0  0  0  0  0
  -30.5160  -17.7000   20.0590 O   0  0  0  0  0  0  0  0  0  0  0  0
  -31.7690  -18.5990   22.7870 H   0  0  0  0  0  0  0  0  0  0  0  0
  -30.9330  -16.3690   22.0370 C   0  0  0  0  0  2  0  0  0  0  0  0
  -30.7260  -14.4190   20.4770 C   0  0  0  0  0  0  0  0  0  0  0  0
  -30.3490  -12.3500   19.1790 C   0  0  0  0  0  2  0  0  0  0  0  0
  -29.3980  -12.5870   17.9910 C   0  0  0  0  0  2  0  0  0  0  0  0
  -27.9290  -12.4480   18.4310 C   0  0  0  0  0  2  0  0  0  0  0  0
  -27.6080  -13.2660   19.7110 C   0  0  0  0  0  3  0  0  0  0  0  0
  -28.6630  -12.9970   20.8050 C   0  0  0  0  0  2  0  0  0  0  0  0
  -29.9930  -13.2960   20.2460 N   0  0  0  0  0  0  0  0  0  0  0  0
  -31.7850  -14.6660   19.8940 O   0  0  0  0  0  0  0  0  0  0  0  0
  -30.2370  -15.2330   21.4210 N   0  0  0  0  0  0  0  0  0  0  0  0
  -29.3360  -14.9920   21.8030 H   0  0  0  0  0  0  0  0  0  0  0  0
  -25.2100  -13.8920   20.4070 C   0  0  0  0  0  0  0  0  0  0  0  0
  -24.1380  -13.1290   20.7870 C   0  0  0  0  0  0  0  0  0  0  0  0
  -24.5960  -11.7740   20.7740 C   0  0  0  0  0  0  0  0  0  0  0  0
  -26.2520  -13.0040   20.1890 N   0  0  0  0  0  0  0  0  0  0  0  0
  -25.8860  -11.7270   20.4690 N   0  0  0  0  0  0  0  0  0  0  0  0
  -23.8670  -10.5170   20.9810 C   0  0  0  0  0  0  0  0  0  0  0  0
  -24.3020   -9.5570   21.9210 C   0  0  0  0  0  3  0  0  0  0  0  0
  -23.5740   -8.3630   22.1140 C   0  0  0  0  0  3  0  0  0  0  0  0
  -22.3970   -8.1220   21.3660 C   0  0  0  0  0  0  0  0  0  0  0  0
  -21.9820   -9.0710   20.4140 C   0  0  0  0  0  3  0  0  0  0  0  0
  -22.7100  -10.2550   20.2200 C   0  0  0  0  0  3  0  0  0  0  0  0
  -21.6390   -6.9790   21.4680 O   0  0  0  0  0  0  0  0  0  0  0  0
  -21.6010   -6.2410   22.6230 C   0  0  0  0  0  0  0  0  0  0  0  0
  -21.2030   -6.8050   23.8550 C   0  0  0  0  0  3  0  0  0  0  0  0
  -21.1120   -5.9940   25.0040 C   0  0  0  0  0  3  0  0  0  0  0  0
  -21.4080   -4.6190   24.9210 C   0  0  0  0  0  0  0  0  0  0  0  0
  -21.8000   -4.0560   23.6940 C   0  0  0  0  0  3  0  0  0  0  0  0
  -21.8930   -4.8650   22.5480 C   0  0  0  0  0  0  0  0  0  0  0  0
  -22.2510   -4.3130   21.3630 F   0  0  0  0  0  0  0  0  0  0  0  0
  -21.3140   -3.8380   26.0220 F   0  0  0  0  0  0  0  0  0  0  0  0
  -22.7420  -13.6120   21.0520 C   0  0  0  0  0  0  0  0  0  0  0  0
  -22.0110  -12.9280   21.9250 N   0  0  0  0  0  0  0  0  0  0  0  0
  -22.3070  -14.6340   20.5220 O   0  0  0  0  0  0  0  0  0  0  0  0
  -22.3740  -12.1040   22.3800 H   0  0  0  0  0  0  0  0  0  0  0  0
  -21.0740  -13.2350   22.1430 H   0  0  0  0  0  0  0  0  0  0  0  0
  -25.3800  -15.2590   20.2100 N   0  0  0  0  0  0  0  0  0  0  0  0
  -24.6160  -15.9200   20.2990 H   0  0  0  0  0  0  0  0  0  0  0  0
  -26.2370  -15.6880   19.8800 H   0  0  0  0  0  0  0  0  0  0  0  0
  1 48  1  0
  2  1  1  0
  2  3  1  0
  4  2  1  0
  5  2  1  0
  6  7  1  0
  6  5  1  0
  8 19  2  0
  9  7  1  0
  9 14  1  0
 10 18  1  0
 10 20  1  0
 11 17  1  0
 11 13  1  0
 12 18  1  0
 13 12  1  0
 14 13  2  0
 15 16  1  0
 15  9  2  0
 16 11  2  0
 17 10  1  0
 18  8  1  0
 20 22  2  0
 21 20  1  0
 23 21  1  0
 24 33  2  0
 24 29  1  0
 25 21  1  0
 25 29  1  0
 26 25  1  0
 27 28  1  0
 27 26  1  0
 28 24  1  0
 29 30  2  0
 30 31  1  0
 32 31  2  0
 33 32  1  0
 34  8  1  0
 34 35  1  0
 34 44  1  0
 35 38  1  0
 36 40  1  0
 36 35  1  0
 37 36  2  0
 40 39  1  0
 42 40  1  0
 42 43  1  0
 42 41  1  0
 44 47  1  1
 44 45  1  0
 46 44  1  0
 48 49  1  0
 49 51  1  0
 50 51  1  0
 50 54  1  0
 51 53  1  0
 52 50  2  0
 55 63  1  0
 56 61  1  0
 57 58  1  0
 57 56  1  0
 59 58  1  0
 59 68  1  0
 59 60  1  0
 61 55  1  0
 61 60  1  0
 62 55  2  0
 63 64  1  0
 63 54  1  0
 65 66  2  0
 66 85  1  0
 67 66  1  0
 67 70  1  0
 68 65  1  0
 68 69  1  0
 69 67  2  0
 70 71  1  0
 71 72  2  0
 73 76  1  0
 73 72  1  0
 74 73  2  0
 75 74  1  0
 75 70  2  0
 76 77  1  0
 77 78  1  0
 78 79  2  0
 80 79  1  0
 80 84  1  0
 81 80  2  0
 82 77  2  0
 82 81  1  0
 83 82  1  0
 85 86  1  0
 86 89  1  0
 86 88  1  0
 87 85  2  0
 90 91  1  0
 90 65  1  0
 92 90  1  0
M  ISO  4   6 101   7 101  55 100  63 100
M  END
>  <TORSDO>  (23) 
F 23

>  <SCORE>  (23) 
-12.781

>  <name>  (23) 
24

>  <ligand_id>  (23) 
24

>  <original_smiles>  (23) 
[H]c1c([H])c([H])c2c(c1[H])C([H])([H])C([H])([H])C([H])([H])C2([H])N([H])C(=O)C1([H])N(C(=O)C([H])(N([H])C(=O)C([H])(N([H])C([H])([H])[H])C([H])([H])[H])C(C([H])([H])[H])(C([H])([H])[H])C([H])([H])[H])C([H])([H])c2c([H])c(OC([H])([H])C([H])([H])[N+]([H])([H])C([H])([H])C([H])([H])C([H])([H])N([H])C(=O)C([H])([H])N([H])C(=O)N3C([H])([H])C([H])([H])C([H])([H])C([H])(n4nc(-c5c([H])c([H])c(Oc6c([H])c([H])c(F)c([H])c6F)c([H])c5[H])c(C(=O)N([H])[H])c4N([H])[H])C3([H])[H])c([H])c([H])c2C1([H])[H]

>  <smiles>  (23) 
[H]c1c([H])c([H])c2c(c1[H])C([H])([H])C([H])([H])C([H])([H])C2([H])N([H])C(=O)C1([H])N(C(=O)C([H])(N([H])C(=O)C([H])(N([H])C([H])([H])[H])C([H])([H])[H])C(C([H])([H])[H])(C([H])([H])[H])C([H])([H])[H])C([H])([H])c2c([H])c(OC([H])([H])C([H])([H])[N+]([H])([H])C([H])([H])C([H])([H])C([H])([H])N([H])C(=O)C([H])([H])N([H])C(=O)N3C([H])([H])C([H])([H])C([H])([H])C([H])(n4nc(-c5c([H])c([H])c(Oc6c([H])c([H])c(F)c([H])c6F)c([H])c5[H])c(C(=O)N([H])[H])c4N([H])[H])C3([H])[H])c([H])c([H])c2C1([H])[H]

$$$$
25:0:0
     RDKit          3D

 88 95  0  0  1  0  0  0  0  0999 V2000
  -28.9510  -22.4480   19.8040 C   0  0  0  0  0  3  0  0  0  0  0  0
  -28.7330  -21.1010   20.4990 N   0  0  0  0  0  4  0  0  0  0  0  0
  -28.9560  -21.2090   21.4760 H   0  0  0  0  0  0  0  0  0  0  0  0
  -27.7520  -20.8830   20.4400 H   0  0  0  0  0  0  0  0  0  0  0  0
  -29.5220  -19.8970   19.9780 C   0  0  0  0  0  2  0  0  0  0  0  0
  -29.1700  -18.4220   20.5200 C   0  0  0  0  0  3  0  0  0  0  0  0
  -30.1670  -17.2220   20.1370 C   0  0  0  0  0  3  0  0  0  0  0  0
  -30.5810  -14.6710   20.3000 C   0  0  0  0  0  0  0  0  0  0  0  0
  -30.3530  -12.4160   19.2820 C   0  0  0  0  0  2  0  0  0  0  0  0
  -29.4060  -12.5250   18.0680 C   0  0  0  0  0  2  0  0  0  0  0  0
  -27.9380  -12.3710   18.5090 C   0  0  0  0  0  2  0  0  0  0  0  0
  -27.5850  -13.2520   19.7380 C   0  0  0  0  0  3  0  0  0  0  0  0
  -28.6490  -13.1310   20.8520 C   0  0  0  0  0  2  0  0  0  0  0  0
  -29.9480  -13.4570   20.2510 N   0  0  0  0  0  0  0  0  0  0  0  0
  -31.7610  -14.7830   19.9580 O   0  0  0  0  0  0  0  0  0  0  0  0
  -29.8020  -15.7920   20.4840 N   0  0  0  0  0  0  0  0  0  0  0  0
  -28.8380  -15.6150   20.7250 H   0  0  0  0  0  0  0  0  0  0  0  0
  -25.1970  -13.8510   20.4680 C   0  0  0  0  0  0  0  0  0  0  0  0
  -24.1340  -13.0790   20.8480 C   0  0  0  0  0  0  0  0  0  0  0  0
  -24.5990  -11.7290   20.8270 C   0  0  0  0  0  0  0  0  0  0  0  0
  -26.2420  -12.9720   20.2350 N   0  0  0  0  0  0  0  0  0  0  0  0
  -25.8890  -11.6900   20.5150 N   0  0  0  0  0  0  0  0  0  0  0  0
  -23.8740  -10.4660   21.0250 C   0  0  0  0  0  0  0  0  0  0  0  0
  -24.3170   -9.4980   21.9530 C   0  0  0  0  0  3  0  0  0  0  0  0
  -23.5920   -8.3020   22.1400 C   0  0  0  0  0  3  0  0  0  0  0  0
  -22.4110   -8.0650   21.3990 C   0  0  0  0  0  0  0  0  0  0  0  0
  -21.9870   -9.0200   20.4590 C   0  0  0  0  0  3  0  0  0  0  0  0
  -22.7140  -10.2080   20.2700 C   0  0  0  0  0  3  0  0  0  0  0  0
  -21.6560   -6.9200   21.4990 O   0  0  0  0  0  0  0  0  0  0  0  0
  -21.6320   -6.1710   22.6470 C   0  0  0  0  0  0  0  0  0  0  0  0
  -21.2390   -6.7200   23.8870 C   0  0  0  0  0  3  0  0  0  0  0  0
  -21.1590   -5.8970   25.0270 C   0  0  0  0  0  3  0  0  0  0  0  0
  -21.4630   -4.5270   24.9310 C   0  0  0  0  0  0  0  0  0  0  0  0
  -21.8490   -3.9770   23.6960 C   0  0  0  0  0  3  0  0  0  0  0  0
  -21.9310   -4.7970   22.5570 C   0  0  0  0  0  0  0  0  0  0  0  0
  -22.2830   -4.2560   21.3650 F   0  0  0  0  0  0  0  0  0  0  0  0
  -21.3790   -3.7330   26.0240 F   0  0  0  0  0  0  0  0  0  0  0  0
  -22.7360  -13.5560   21.1160 C   0  0  0  0  0  0  0  0  0  0  0  0
  -22.0080  -12.8680   21.9890 N   0  0  0  0  0  0  0  0  0  0  0  0
  -22.2970  -14.5770   20.5890 O   0  0  0  0  0  0  0  0  0  0  0  0
  -22.3730  -12.0410   22.4380 H   0  0  0  0  0  0  0  0  0  0  0  0
  -21.0690  -13.1710   22.2100 H   0  0  0  0  0  0  0  0  0  0  0  0
  -25.3550  -15.2210   20.2790 N   0  0  0  0  0  0  0  0  0  0  0  0
  -24.5790  -15.8640   20.3900 H   0  0  0  0  0  0  0  0  0  0  0  0
  -26.1820  -15.6630   19.8970 H   0  0  0  0  0  0  0  0  0  0  0  0
  -28.3480  -23.7930   20.4560 C   0  0  0  0  0  3  0  0  0  0  0  0
  -28.4470  -25.1430   19.5950 C   0  0  0  0  0  2  0  0  0  0  0  0
  -28.3450  -26.4900   20.2200 O   0  0  0  0  0  0  0  0  0  0  0  0
  -24.6090  -31.8690   23.2340 C   0  0  0  0  0  0  0  0  0  0  0  0
  -27.2010  -27.3020   20.1620 C   0  0  0  0  0  0  0  0  0  0  0  0
  -23.3970  -30.4720   21.5990 C   0  0  0  0  0  3  0  0  0  0  0  0
  -24.8380  -28.9190   20.1650 C   0  0  0  0  0  0  0  0  0  0  0  0
  -25.9370  -30.7880   21.4040 C   0  0  0  0  0  2  0  0  0  0  0  0
  -26.0100  -29.4080   20.7560 C   0  0  0  0  0  0  0  0  0  0  0  0
  -27.1920  -28.6100   20.7430 C   0  0  0  0  0  3  0  0  0  0  0  0
  -25.9990  -26.8580   19.5660 C   0  0  0  0  0  3  0  0  0  0  0  0
  -24.8360  -27.6520   19.5640 C   0  0  0  0  0  3  0  0  0  0  0  0
  -23.6040  -29.7950   20.2180 C   0  0  0  0  0  2  0  0  0  0  0  0
  -24.6680  -31.0610   22.1350 N   0  0  0  0  0  0  0  0  0  0  0  0
  -23.5270  -32.1460   23.7740 O   0  0  0  0  0  0  0  0  0  0  0  0
  -22.7400  -29.4540   22.5620 C   0  0  0  0  0  0  0  0  0  0  0  0
  -21.4140  -29.2740   22.4360 N   0  0  0  0  0  0  0  0  0  0  0  0
  -23.4220  -28.8290   23.3770 O   0  0  0  0  0  0  0  0  0  0  0  0
  -20.9220  -29.8340   21.7540 H   0  0  0  0  0  0  0  0  0  0  0  0
  -18.0400  -28.0750   22.9410 C   0  0  0  0  0  0  0  0  0  0  0  0
  -20.5980  -28.3370   23.2100 C   0  0  0  0  0  3  0  0  0  0  0  0
  -20.7020  -26.9050   22.6370 C   0  0  0  0  0  2  0  0  0  0  0  0
  -19.6010  -26.5810   21.6230 C   0  0  0  0  0  2  0  0  0  0  0  0
  -18.2180  -26.7250   22.2670 C   0  0  0  0  0  2  0  0  0  0  0  0
  -19.1570  -28.8390   23.3690 C   0  0  0  0  0  0  0  0  0  0  0  0
  -18.9350  -30.1040   23.9570 C   0  0  0  0  0  3  0  0  0  0  0  0
  -17.6290  -30.6030   24.1230 C   0  0  0  0  0  3  0  0  0  0  0  0
  -16.5260  -29.8350   23.7080 C   0  0  0  0  0  3  0  0  0  0  0  0
  -16.7320  -28.5730   23.1240 C   0  0  0  0  0  3  0  0  0  0  0  0
  -25.8950  -32.5000   23.8540 C   0  0  0  0  0  3  0  0  0  0  0  0
  -26.4160  -31.7280   25.1280 C   0  0  1  0  0  0  0  0  0  0  0  0
  -25.3280  -31.4910   26.2000 C   0  0  0  0  0  1  0  0  0  0  0  0
  -26.9950  -30.3500   24.7330 C   0  0  0  0  0  1  0  0  0  0  0  0
  -27.5710  -32.5200   25.7850 C   0  0  0  0  0  1  0  0  0  0  0  0
  -25.5860  -33.8980   24.1880 N   0  0  0  0  0  0  0  0  0  0  0  0
  -25.9150  -34.9520   23.4300 C   0  0  0  0  0  0  0  0  0  0  0  0
  -26.5790  -34.8500   22.3940 O   0  0  0  0  0  0  0  0  0  0  0  0
  -25.0010  -34.0510   24.9950 H   0  0  0  0  0  0  0  0  0  0  0  0
  -24.1860  -36.7450   23.0890 C   0  0  0  0  0  1  0  0  0  0  0  0
  -25.4320  -36.3400   23.8930 C   0  0  0  0  0  3  0  0  0  0  0  0
  -27.5710  -37.2230   24.7130 C   0  0  0  0  0  1  0  0  0  0  0  0
  -26.4630  -37.3930   23.7760 N   0  0  0  0  0  0  0  0  0  0  0  0
  -26.0590  -38.3130   23.9290 H   0  0  0  0  0  0  0  0  0  0  0  0
  1 46  2  0
  1  2  1  0
  2  3  1  0
  4  2  1  0
  5  2  1  0
  5  6  1  0
  7 16  1  0
  7  6  2  0
  8 16  1  0
  9 14  1  0
 10 11  1  0
 10  9  1  0
 12 11  1  0
 12 21  1  0
 12 13  1  0
 14  8  1  0
 14 13  1  0
 15  8  2  0
 16 17  1  0
 18 19  2  0
 19 38  1  0
 20 19  1  0
 20 23  1  0
 21 18  1  0
 21 22  1  0
 22 20  2  0
 23 24  1  0
 24 25  2  0
 26 29  1  0
 26 25  1  0
 27 26  2  0
 28 27  1  0
 28 23  2  0
 29 30  1  0
 30 31  1  0
 31 32  2  0
 33 32  1  0
 33 37  1  0
 34 33  2  0
 35 30  2  0
 35 34  1  0
 36 35  1  0
 38 39  1  0
 39 42  1  0
 39 41  1  0
 40 38  2  0
 43 44  1  0
 43 18  1  0
 45 43  1  0
 47 48  1  0
 47 46  1  0
 49 60  2  0
 50 48  1  0
 50 55  1  0
 51 59  1  0
 51 61  1  0
 52 58  1  0
 52 54  1  0
 53 59  1  0
 54 53  1  0
 55 54  2  0
 56 50  2  0
 57 56  1  0
 57 52  2  0
 58 51  1  0
 59 49  1  0
 61 63  2  0
 62 61  1  0
 64 62  1  0
 65 74  2  0
 65 70  1  0
 66 62  1  0
 66 70  1  0
 67 66  1  0
 68 69  1  0
 68 67  1  0
 69 65  1  0
 70 71  2  0
 71 72  1  0
 73 72  2  0
 74 73  1  0
 75 49  1  0
 75 80  1  0
 75 76  1  0
 76 79  1  1
 76 77  1  0
 78 76  1  0
 80 83  1  0
 81 85  1  0
 81 80  1  0
 82 81  2  0
 85 84  1  0
 87 85  1  0
 87 88  1  0
 87 86  1  0
M  ISO  4   8 100  16 100  47 101  48 101
M  END
>  <TORSDO>  (24) 
F 22

>  <SCORE>  (24) 
-12.828

>  <name>  (24) 
25

>  <ligand_id>  (24) 
25

>  <original_smiles>  (24) 
[H]c1c([H])c([H])c2c(c1[H])C([H])([H])C([H])([H])C([H])([H])C2([H])N([H])C(=O)C1([H])N(C(=O)C([H])(N([H])C(=O)C([H])(N([H])C([H])([H])[H])C([H])([H])[H])C(C([H])([H])[H])(C([H])([H])[H])C([H])([H])[H])C([H])([H])c2c([H])c(OC([H])([H])C([H])([H])C([H])([H])[N+]([H])([H])C([H])([H])C([H])([H])C([H])([H])N([H])C(=O)N3C([H])([H])C([H])([H])C([H])([H])C([H])(n4nc(-c5c([H])c([H])c(Oc6c([H])c([H])c(F)c([H])c6F)c([H])c5[H])c(C(=O)N([H])[H])c4N([H])[H])C3([H])[H])c([H])c([H])c2C1([H])[H]

>  <smiles>  (24) 
[H]c1c([H])c([H])c2c(c1[H])C([H])([H])C([H])([H])C([H])([H])C2([H])N([H])C(=O)C1([H])N(C(=O)C([H])(N([H])C(=O)C([H])(N([H])C([H])([H])[H])C([H])([H])[H])C(C([H])([H])[H])(C([H])([H])[H])C([H])([H])[H])C([H])([H])c2c([H])c(OC([H])([H])C([H])([H])C([H])([H])[N+]([H])([H])C([H])([H])C([H])([H])C([H])([H])N([H])C(=O)N3C([H])([H])C([H])([H])C([H])([H])C([H])(n4nc(-c5c([H])c([H])c(Oc6c([H])c([H])c(F)c([H])c6F)c([H])c5[H])c(C(=O)N([H])[H])c4N([H])[H])C3([H])[H])c([H])c([H])c2C1([H])[H]

$$$$
26:0:0
     RDKit          3D

 99106  0  0  1  0  0  0  0  0999 V2000
  -30.1430  -23.4740   23.4950 C   0  0  0  0  0  0  0  0  0  0  0  0
  -29.9610  -24.7550   23.1630 N   0  0  0  0  0  0  0  0  0  0  0  0
  -30.8700  -23.1300   24.4310 O   0  0  0  0  0  0  0  0  0  0  0  0
  -29.3750  -24.9830   22.3720 H   0  0  0  0  0  0  0  0  0  0  0  0
  -30.6380  -25.8620   23.8320 C   0  0  0  0  0  2  0  0  0  0  0  0
  -30.3650  -27.1950   23.1240 C   0  0  0  0  0  2  0  0  0  0  0  0
  -30.8420  -27.1050   21.7890 O   0  0  0  0  0  0  0  0  0  0  0  0
  -31.0600  -28.3700   21.1810 C   0  0  0  0  0  2  0  0  0  0  0  0
  -31.7340  -28.1330   19.8200 C   0  0  0  0  0  2  0  0  0  0  0  0
  -30.7850  -27.9300   18.6210 C   0  0  0  0  0  2  0  0  0  0  0  0
  -29.6070  -26.9660   18.8560 C   0  0  0  0  0  2  0  0  0  0  0  0
  -28.7360  -26.8060   17.5980 C   0  0  0  0  0  2  0  0  0  0  0  0
  -27.4520  -26.2650   17.9020 O   0  0  0  0  0  0  0  0  0  0  0  0
  -25.1460  -30.7650   22.9620 C   0  0  0  0  0  0  0  0  0  0  0  0
  -26.4920  -27.1290   18.3800 C   0  0  0  0  0  0  0  0  0  0  0  0
  -23.4950  -30.1340   21.2280 C   0  0  0  0  0  3  0  0  0  0  0  0
  -24.4330  -28.8770   19.2170 C   0  0  0  0  0  0  0  0  0  0  0  0
  -25.9950  -30.1470   20.7050 C   0  0  0  0  0  2  0  0  0  0  0  0
  -25.7310  -29.0310   19.7180 C   0  0  0  0  0  0  0  0  0  0  0  0
  -26.7620  -28.1670   19.3030 C   0  0  0  0  0  3  0  0  0  0  0  0
  -25.1750  -26.9660   17.9060 C   0  0  0  0  0  3  0  0  0  0  0  0
  -24.1450  -27.8400   18.3100 C   0  0  0  0  0  3  0  0  0  0  0  0
  -23.3970  -29.8650   19.7010 C   0  0  0  0  0  2  0  0  0  0  0  0
  -24.9070  -30.3400   21.6890 N   0  0  0  0  0  0  0  0  0  0  0  0
  -24.2150  -31.0300   23.7330 O   0  0  0  0  0  0  0  0  0  0  0  0
  -22.7680  -28.9910   21.9720 C   0  0  0  0  0  0  0  0  0  0  0  0
  -21.4270  -29.0330   21.9630 N   0  0  0  0  0  0  0  0  0  0  0  0
  -23.4040  -28.0810   22.5100 O   0  0  0  0  0  0  0  0  0  0  0  0
  -20.9820  -29.8190   21.5100 H   0  0  0  0  0  0  0  0  0  0  0  0
  -17.9500  -28.1890   22.4650 C   0  0  0  0  0  0  0  0  0  0  0  0
  -20.5290  -28.0450   22.5620 C   0  0  0  0  0  3  0  0  0  0  0  0
  -20.3920  -26.7980   21.6560 C   0  0  0  0  0  2  0  0  0  0  0  0
  -19.1990  -26.8770   20.6980 C   0  0  0  0  0  2  0  0  0  0  0  0
  -17.8920  -27.0350   21.4800 C   0  0  0  0  0  2  0  0  0  0  0  0
  -19.1900  -28.6740   22.9610 C   0  0  0  0  0  0  0  0  0  0  0  0
  -19.1900  -29.7730   23.8460 C   0  0  0  0  0  3  0  0  0  0  0  0
  -17.9820  -30.3820   24.2390 C   0  0  0  0  0  3  0  0  0  0  0  0
  -16.7570  -29.8860   23.7580 C   0  0  0  0  0  3  0  0  0  0  0  0
  -16.7430  -28.7910   22.8770 C   0  0  0  0  0  3  0  0  0  0  0  0
  -26.5990  -30.9640   23.5010 C   0  0  0  0  0  3  0  0  0  0  0  0
  -26.6140  -32.2110   24.2760 N   0  0  0  0  0  0  0  0  0  0  0  0
  -27.1190  -33.3720   23.8360 C   0  0  0  0  0  0  0  0  0  0  0  0
  -27.6900  -33.4840   22.7470 O   0  0  0  0  0  0  0  0  0  0  0  0
  -26.1100  -32.2060   25.1510 H   0  0  0  0  0  0  0  0  0  0  0  0
  -25.8040  -35.4750   24.2470 C   0  0  0  0  0  1  0  0  0  0  0  0
  -26.9660  -34.6030   24.7480 C   0  0  0  0  0  3  0  0  0  0  0  0
  -29.2770  -34.7540   25.5660 C   0  0  0  0  0  1  0  0  0  0  0  0
  -28.1960  -35.4190   24.8430 N   0  0  0  0  0  0  0  0  0  0  0  0
  -28.0050  -36.3060   25.3010 H   0  0  0  0  0  0  0  0  0  0  0  0
  -27.1060  -29.7530   24.3770 C   0  0  1  0  0  0  0  0  0  0  0  0
  -26.1110  -29.3210   25.4790 C   0  0  0  0  0  1  0  0  0  0  0  0
  -27.3920  -28.5210   23.4860 C   0  0  0  0  0  1  0  0  0  0  0  0
  -28.4400  -30.1270   25.0640 C   0  0  0  0  0  1  0  0  0  0  0  0
  -29.4450  -22.3960   22.6700 C   0  0  0  0  0  2  0  0  0  0  0  0
  -30.4170  -21.3090   22.4610 N   0  0  0  0  0  4  0  0  0  0  0  0
  -30.5390  -20.9190   23.3850 H   0  0  0  0  0  0  0  0  0  0  0  0
  -31.3030  -21.7090   22.1990 H   0  0  0  0  0  0  0  0  0  0  0  0
  -30.0320  -20.2410   21.5150 C   0  0  0  0  0  2  0  0  0  0  0  0
  -31.1060  -19.1350   21.5000 C   0  0  0  0  0  2  0  0  0  0  0  0
  -30.7430  -17.8950   20.6670 C   0  0  0  0  0  2  0  0  0  0  0  0
  -31.7020  -16.7300   20.9770 C   0  0  0  0  0  2  0  0  0  0  0  0
  -31.5280  -14.5030   19.8520 C   0  0  0  0  0  0  0  0  0  0  0  0
  -31.1770  -12.2040   19.0240 C   0  0  0  0  0  2  0  0  0  0  0  0
  -30.2080  -12.1790   17.8270 C   0  0  0  0  0  2  0  0  0  0  0  0
  -28.7420  -12.1300   18.3050 C   0  0  0  0  0  2  0  0  0  0  0  0
  -28.4320  -13.1960   19.3890 C   0  0  0  0  0  3  0  0  0  0  0  0
  -29.5000  -13.1560   20.5030 C   0  0  0  0  0  2  0  0  0  0  0  0
  -30.8230  -13.3440   19.8800 N   0  0  0  0  0  0  0  0  0  0  0  0
  -32.5220  -14.6820   19.1410 O   0  0  0  0  0  0  0  0  0  0  0  0
  -31.0910  -15.4360   20.7070 N   0  0  0  0  0  0  0  0  0  0  0  0
  -30.2860  -15.1800   21.2610 H   0  0  0  0  0  0  0  0  0  0  0  0
  -26.1220  -13.9890   20.2130 C   0  0  0  0  0  0  0  0  0  0  0  0
  -25.0120  -13.3000   20.6270 C   0  0  0  0  0  0  0  0  0  0  0  0
  -25.3610  -11.9160   20.5600 C   0  0  0  0  0  0  0  0  0  0  0  0
  -27.0810  -13.0290   19.9260 N   0  0  0  0  0  0  0  0  0  0  0  0
  -26.6270  -11.7760   20.1870 N   0  0  0  0  0  0  0  0  0  0  0  0
  -24.5460  -10.7130   20.7750 C   0  0  0  0  0  0  0  0  0  0  0  0
  -24.8750   -9.7640   21.7690 C   0  0  0  0  0  3  0  0  0  0  0  0
  -24.0670   -8.6250   21.9660 C   0  0  0  0  0  3  0  0  0  0  0  0
  -22.9130   -8.4270   21.1710 C   0  0  0  0  0  0  0  0  0  0  0  0
  -22.6030   -9.3610   20.1670 C   0  0  0  0  0  3  0  0  0  0  0  0
  -23.4120  -10.4920   19.9680 C   0  0  0  0  0  3  0  0  0  0  0  0
  -22.0830   -7.3370   21.2740 O   0  0  0  0  0  0  0  0  0  0  0  0
  -21.8210   -6.7460   22.4840 C   0  0  0  0  0  0  0  0  0  0  0  0
  -21.2040   -7.4490   23.5400 C   0  0  0  0  0  3  0  0  0  0  0  0
  -20.8920   -6.7840   24.7430 C   0  0  0  0  0  3  0  0  0  0  0  0
  -21.1850   -5.4150   24.8860 C   0  0  0  0  0  0  0  0  0  0  0  0
  -21.7940   -4.7100   23.8320 C   0  0  0  0  0  3  0  0  0  0  0  0
  -22.1070   -5.3740   22.6340 C   0  0  0  0  0  0  0  0  0  0  0  0
  -22.6750   -4.6850   21.6130 F   0  0  0  0  0  0  0  0  0  0  0  0
  -20.8770   -4.7720   26.0370 F   0  0  0  0  0  0  0  0  0  0  0  0
  -23.6740  -13.8830   20.9780 C   0  0  0  0  0  0  0  0  0  0  0  0
  -22.9460  -13.2420   21.8860 N   0  0  0  0  0  0  0  0  0  0  0  0
  -23.2870  -14.9400   20.4810 O   0  0  0  0  0  0  0  0  0  0  0  0
  -23.2720  -12.3850   22.3070 H   0  0  0  0  0  0  0  0  0  0  0  0
  -22.0490  -13.6140   22.1630 H   0  0  0  0  0  0  0  0  0  0  0  0
  -26.3900  -15.3430   20.0410 N   0  0  0  0  0  0  0  0  0  0  0  0
  -25.6900  -16.0610   20.1930 H   0  0  0  0  0  0  0  0  0  0  0  0
  -27.2660  -15.7120   19.6930 H   0  0  0  0  0  0  0  0  0  0  0  0
  1  3  2  0
  2  1  1  0
  2  5  1  0
  4  2  1  0
  6  5  1  0
  7  6  1  0
  8  7  1  0
  9  8  1  0
 10 11  1  0
 10  9  1  0
 12 13  1  0
 12 11  1  0
 13 15  1  0
 14 25  2  0
 15 20  1  0
 16 24  1  0
 16 26  1  0
 17 23  1  0
 17 19  1  0
 18 24  1  0
 19 18  1  0
 20 19  2  0
 21 22  1  0
 21 15  2  0
 22 17  2  0
 23 16  1  0
 24 14  1  0
 26 28  2  0
 27 26  1  0
 29 27  1  0
 30 39  2  0
 30 35  1  0
 31 27  1  0
 31 35  1  0
 32 31  1  0
 33 34  1  0
 33 32  1  0
 34 30  1  0
 35 36  2  0
 36 37  1  0
 38 37  2  0
 39 38  1  0
 40 14  1  0
 40 41  1  0
 40 50  1  0
 41 44  1  0
 42 41  1  0
 42 46  1  0
 43 42  2  0
 46 45  1  0
 46 48  1  0
 48 49  1  0
 48 47  1  0
 50 53  1  1
 50 51  1  0
 52 50  1  0
 54  1  1  0
 55 54  1  0
 55 56  1  0
 57 55  1  0
 58 55  1  0
 59 58  1  0
 60 61  1  0
 60 59  1  0
 62 68  1  0
 62 70  1  0
 63 68  1  0
 64 65  1  0
 64 63  1  0
 66 65  1  0
 66 75  1  0
 66 67  1  0
 68 67  1  0
 69 62  2  0
 70 61  1  0
 70 71  1  0
 72 73  2  0
 73 92  1  0
 74 73  1  0
 74 77  1  0
 75 76  1  0
 75 72  1  0
 76 74  2  0
 77 78  1  0
 78 79  2  0
 80 83  1  0
 80 79  1  0
 81 80  2  0
 82 81  1  0
 82 77  2  0
 83 84  1  0
 84 89  2  0
 84 85  1  0
 85 86  2  0
 86 87  1  0
 87 91  1  0
 88 87  2  0
 89 88  1  0
 90 89  1  0
 92 93  1  0
 93 96  1  0
 93 95  1  0
 94 92  2  0
 97 98  1  0
 97 72  1  0
 99 97  1  0
M  ISO  4  12 101  13 101  62 100  70 100
M  END
>  <TORSDO>  (25) 
F 30

>  <SCORE>  (25) 
-7.463

>  <name>  (25) 
26

>  <ligand_id>  (25) 
26

>  <original_smiles>  (25) 
[H]c1c([H])c([H])c2c(c1[H])C([H])([H])C([H])([H])C([H])([H])C2([H])N([H])C(=O)C1([H])N(C(=O)C([H])(N([H])C(=O)C([H])(N([H])C([H])([H])[H])C([H])([H])[H])C(C([H])([H])[H])(C([H])([H])[H])C([H])([H])[H])C([H])([H])c2c([H])c(OC([H])([H])C([H])([H])C([H])([H])C([H])([H])C([H])([H])OC([H])([H])C([H])([H])N([H])C(=O)C([H])([H])[N+]([H])([H])C([H])([H])C([H])([H])C([H])([H])C([H])([H])N([H])C(=O)N3C([H])([H])C([H])([H])C([H])([H])C([H])(n4nc(-c5c([H])c([H])c(Oc6c([H])c([H])c(F)c([H])c6F)c([H])c5[H])c(C(=O)N([H])[H])c4N([H])[H])C3([H])[H])c([H])c([H])c2C1([H])[H]

>  <smiles>  (25) 
[H]c1c([H])c([H])c2c(c1[H])C([H])([H])C([H])([H])C([H])([H])C2([H])N([H])C(=O)C1([H])N(C(=O)C([H])(N([H])C(=O)C([H])(N([H])C([H])([H])[H])C([H])([H])[H])C(C([H])([H])[H])(C([H])([H])[H])C([H])([H])[H])C([H])([H])c2c([H])c(OC([H])([H])C([H])([H])C([H])([H])C([H])([H])C([H])([H])OC([H])([H])C([H])([H])N([H])C(=O)C([H])([H])[N+]([H])([H])C([H])([H])C([H])([H])C([H])([H])C([H])([H])N([H])C(=O)N3C([H])([H])C([H])([H])C([H])([H])C([H])(n4nc(-c5c([H])c([H])c(Oc6c([H])c([H])c(F)c([H])c6F)c([H])c5[H])c(C(=O)N([H])[H])c4N([H])[H])C3([H])[H])c([H])c([H])c2C1([H])[H]

$$$$
27:0:0
     RDKit          3D

101108  0  0  1  0  0  0  0  0999 V2000
  -23.1040  -20.9950   24.8280 C   0  0  0  0  0  2  0  0  0  0  0  0
  -23.0280  -19.8850   23.8500 N   0  0  0  0  0  4  0  0  0  0  0  0
  -23.1030  -20.2670   22.9220 H   0  0  0  0  0  0  0  0  0  0  0  0
  -22.1050  -19.4830   23.9260 H   0  0  0  0  0  0  0  0  0  0  0  0
  -24.0090  -18.7940   24.0650 C   0  0  0  0  0  2  0  0  0  0  0  0
  -24.1610  -17.8520   22.8470 C   0  0  0  0  0  2  0  0  0  0  0  0
  -25.4560  -18.0590   22.0240 C   0  0  0  0  0  2  0  0  0  0  0  0
  -25.8120  -16.8360   21.2640 N   0  0  0  0  0  4  0  0  0  0  0  0
  -25.4160  -16.0550   21.7640 H   0  0  0  0  0  0  0  0  0  0  0  0
  -25.3800  -16.8530   20.3540 H   0  0  0  0  0  0  0  0  0  0  0  0
  -27.2580  -16.5440   21.1220 C   0  0  0  0  0  2  0  0  0  0  0  0
  -27.7740  -16.7270   19.6800 C   0  0  0  0  0  2  0  0  0  0  0  0
  -29.3190  -16.7090   19.5900 C   0  0  0  0  0  2  0  0  0  0  0  0
  -30.6280  -14.7670   18.7040 C   0  0  0  0  0  0  0  0  0  0  0  0
  -30.7870  -12.3600   19.2330 C   0  0  0  0  0  2  0  0  0  0  0  0
  -29.9350  -11.5410   18.2400 C   0  0  0  0  0  2  0  0  0  0  0  0
  -28.4610  -11.4660   18.6900 C   0  0  0  0  0  2  0  0  0  0  0  0
  -27.8870  -12.8500   19.0890 C   0  0  0  0  0  3  0  0  0  0  0  0
  -28.8580  -13.5510   20.0580 C   0  0  0  0  0  2  0  0  0  0  0  0
  -30.1610  -13.6830   19.3850 N   0  0  0  0  0  0  0  0  0  0  0  0
  -31.6820  -14.7480   18.0630 O   0  0  0  0  0  0  0  0  0  0  0  0
  -29.7860  -15.8000   18.5400 N   0  0  0  0  0  0  0  0  0  0  0  0
  -30.0070  -16.3030   17.6920 H   0  0  0  0  0  0  0  0  0  0  0  0
  -25.6040  -13.7150   19.9160 C   0  0  0  0  0  0  0  0  0  0  0  0
  -24.4990  -13.0630   20.3940 C   0  0  0  0  0  0  0  0  0  0  0  0
  -24.8360  -11.6740   20.4050 C   0  0  0  0  0  0  0  0  0  0  0  0
  -26.5480  -12.7310   19.6650 N   0  0  0  0  0  0  0  0  0  0  0  0
  -26.0910  -11.5020   20.0140 N   0  0  0  0  0  0  0  0  0  0  0  0
  -24.0180  -10.4950   20.7120 C   0  0  0  0  0  0  0  0  0  0  0  0
  -24.4550   -9.5090   21.6250 C   0  0  0  0  0  3  0  0  0  0  0  0
  -23.6410   -8.3930   21.9160 C   0  0  0  0  0  3  0  0  0  0  0  0
  -22.3760   -8.2550   21.2980 C   0  0  0  0  0  0  0  0  0  0  0  0
  -21.9570   -9.2270   20.3720 C   0  0  0  0  0  3  0  0  0  0  0  0
  -22.7700  -10.3340   20.0790 C   0  0  0  0  0  3  0  0  0  0  0  0
  -21.5300   -7.1920   21.4990 O   0  0  0  0  0  0  0  0  0  0  0  0
  -21.5810   -6.4420   22.6460 C   0  0  0  0  0  0  0  0  0  0  0  0
  -21.3190   -6.9990   23.9170 C   0  0  0  0  0  3  0  0  0  0  0  0
  -21.3160   -6.1740   25.0600 C   0  0  0  0  0  3  0  0  0  0  0  0
  -21.5650   -4.7940   24.9340 C   0  0  0  0  0  0  0  0  0  0  0  0
  -21.8220   -4.2370   23.6690 C   0  0  0  0  0  3  0  0  0  0  0  0
  -21.8270   -5.0580   22.5270 C   0  0  0  0  0  0  0  0  0  0  0  0
  -22.0550   -4.5120   21.3080 F   0  0  0  0  0  0  0  0  0  0  0  0
  -21.5530   -4.0010   26.0300 F   0  0  0  0  0  0  0  0  0  0  0  0
  -23.1730  -13.6790   20.7330 C   0  0  0  0  0  0  0  0  0  0  0  0
  -22.4630  -13.1130   21.7040 N   0  0  0  0  0  0  0  0  0  0  0  0
  -22.7800  -14.7000   20.1710 O   0  0  0  0  0  0  0  0  0  0  0  0
  -22.7890  -12.2830   22.1780 H   0  0  0  0  0  0  0  0  0  0  0  0
  -21.5760  -13.5130   21.9740 H   0  0  0  0  0  0  0  0  0  0  0  0
  -25.8780  -15.0550   19.6600 N   0  0  0  0  0  0  0  0  0  0  0  0
  -25.1500  -15.7580   19.6900 H   0  0  0  0  0  0  0  0  0  0  0  0
  -26.7100  -15.3670   19.1780 H   0  0  0  0  0  0  0  0  0  0  0  0
  -24.1540  -22.0600   24.4420 C   0  0  0  0  0  2  0  0  0  0  0  0
  -23.7150  -22.9660   23.2770 C   0  0  0  0  0  2  0  0  0  0  0  0
  -24.9000  -23.6400   22.5630 C   0  0  0  0  0  2  0  0  0  0  0  0
  -24.5130  -24.1410   21.1620 C   0  0  0  0  0  2  0  0  0  0  0  0
  -25.6900  -24.4320   20.3100 N   0  0  0  0  0  4  0  0  0  0  0  0
  -26.1710  -23.5740   20.0870 H   0  0  0  0  0  0  0  0  0  0  0  0
  -26.3230  -25.0070   20.8440 H   0  0  0  0  0  0  0  0  0  0  0  0
  -25.3310  -25.1520   19.0670 C   0  0  0  0  0  2  0  0  0  0  0  0
  -26.5420  -25.7900   18.3530 C   0  0  0  0  0  2  0  0  0  0  0  0
  -26.1330  -26.9720   17.6590 O   0  0  0  0  0  0  0  0  0  0  0  0
  -25.7650  -30.3020   23.9280 C   0  0  0  0  0  0  0  0  0  0  0  0
  -25.4630  -27.8690   18.4530 C   0  0  0  0  0  0  0  0  0  0  0  0
  -23.7450  -30.4470   22.5040 C   0  0  0  0  0  3  0  0  0  0  0  0
  -24.0310  -29.6530   20.0970 C   0  0  0  0  0  0  0  0  0  0  0  0
  -26.0620  -30.1700   21.4620 C   0  0  0  0  0  2  0  0  0  0  0  0
  -25.3940  -29.4280   20.3260 C   0  0  0  0  0  0  0  0  0  0  0  0
  -26.1160  -28.5320   19.5110 C   0  0  0  0  0  3  0  0  0  0  0  0
  -24.0970  -28.1250   18.2080 C   0  0  0  0  0  3  0  0  0  0  0  0
  -23.3720  -28.9980   19.0400 C   0  0  0  0  0  3  0  0  0  0  0  0
  -23.3350  -30.6280   21.0170 C   0  0  0  0  0  2  0  0  0  0  0  0
  -25.2250  -30.2800   22.6770 N   0  0  0  0  0  0  0  0  0  0  0  0
  -25.0610  -30.5000   24.9270 O   0  0  0  0  0  0  0  0  0  0  0  0
  -22.9240  -29.2810   23.1020 C   0  0  0  0  0  0  0  0  0  0  0  0
  -21.5920  -29.3500   22.9490 N   0  0  0  0  0  0  0  0  0  0  0  0
  -23.4840  -28.3350   23.6600 O   0  0  0  0  0  0  0  0  0  0  0  0
  -21.2110  -30.1640   22.4880 H   0  0  0  0  0  0  0  0  0  0  0  0
  -18.1880  -28.2180   22.5400 C   0  0  0  0  0  0  0  0  0  0  0  0
  -20.6230  -28.3500   23.3950 C   0  0  0  0  0  3  0  0  0  0  0  0
  -20.8430  -27.0000   22.6730 C   0  0  0  0  0  2  0  0  0  0  0  0
  -19.9890  -26.8470   21.4100 C   0  0  0  0  0  2  0  0  0  0  0  0
  -18.5010  -26.9580   21.7510 C   0  0  0  0  0  2  0  0  0  0  0  0
  -19.1880  -28.8800   23.2990 C   0  0  0  0  0  0  0  0  0  0  0  0
  -18.8530  -30.0700   23.9830 C   0  0  0  0  0  3  0  0  0  0  0  0
  -17.5480  -30.5910   23.9230 C   0  0  0  0  0  3  0  0  0  0  0  0
  -16.5570  -29.9220   23.1840 C   0  0  0  0  0  3  0  0  0  0  0  0
  -16.8770  -28.7370   22.4970 C   0  0  0  0  0  3  0  0  0  0  0  0
  -27.2950  -30.1020   24.1610 C   0  0  0  0  0  3  0  0  0  0  0  0
  -27.7530  -31.1830   25.0440 N   0  0  0  0  0  0  0  0  0  0  0  0
  -28.4250  -32.2670   24.6320 C   0  0  0  0  0  0  0  0  0  0  0  0
  -28.7900  -32.4260   23.4640 O   0  0  0  0  0  0  0  0  0  0  0  0
  -27.4450  -31.1470   26.0050 H   0  0  0  0  0  0  0  0  0  0  0  0
  -27.7670  -34.5260   25.5190 C   0  0  0  0  0  1  0  0  0  0  0  0
  -28.7400  -33.3480   25.6840 C   0  0  0  0  0  3  0  0  0  0  0  0
  -31.1170  -32.8410   26.0360 C   0  0  0  0  0  1  0  0  0  0  0  0
  -30.1330  -33.8390   25.6230 N   0  0  0  0  0  0  0  0  0  0  0  0
  -30.2520  -34.6610   26.2100 H   0  0  0  0  0  0  0  0  0  0  0  0
  -27.6540  -28.6910   24.7690 C   0  0  1  0  0  0  0  0  0  0  0  0
  -26.8470  -28.3430   26.0410 C   0  0  0  0  0  1  0  0  0  0  0  0
  -27.4090  -27.5700   23.7320 C   0  0  0  0  0  1  0  0  0  0  0  0
  -29.1590  -28.6400   25.1290 C   0  0  0  0  0  1  0  0  0  0  0  0
  2  4  1  0
  2  5  1  0
  2  1  1  0
  3  2  1  0
  6  5  1  0
  7  6  1  0
  8  9  1  0
  8  7  1  0
 10  8  1  0
 11  8  1  0
 12 11  1  0
 13 12  1  0
 14 20  1  0
 15 20  1  0
 16 17  1  0
 16 15  1  0
 18 17  1  0
 18 27  1  0
 18 19  1  0
 20 19  1  0
 21 14  2  0
 22 14  1  0
 22 13  1  0
 23 22  1  0
 24 25  2  0
 25 26  1  0
 25 44  1  0
 26 29  1  0
 27 24  1  0
 27 28  1  0
 28 26  2  0
 29 30  1  0
 30 31  2  0
 32 35  1  0
 32 31  1  0
 33 32  2  0
 34 33  1  0
 34 29  2  0
 35 36  1  0
 36 37  1  0
 37 38  2  0
 39 38  1  0
 39 43  1  0
 40 39  2  0
 41 36  2  0
 41 40  1  0
 42 41  1  0
 44 45  1  0
 45 48  1  0
 45 47  1  0
 46 44  2  0
 49 50  1  0
 49 24  1  0
 51 49  1  0
 52  1  1  0
 53 52  1  0
 54 53  1  0
 55 54  1  0
 56 58  1  0
 56 55  1  0
 57 56  1  0
 59 56  1  0
 60 59  1  0
 61 60  1  0
 61 63  1  0
 62 73  2  0
 63 68  1  0
 64 72  1  0
 64 74  1  0
 65 67  1  0
 65 71  1  0
 66 72  1  0
 67 66  1  0
 68 67  2  0
 69 63  2  0
 69 70  1  0
 70 65  2  0
 71 64  1  0
 72 62  1  0
 74 76  2  0
 75 74  1  0
 77 75  1  0
 78 83  1  0
 79 75  1  0
 80 79  1  0
 81 82  1  0
 81 80  1  0
 82 78  1  0
 83 79  1  0
 83 84  2  0
 85 84  1  0
 86 85  2  0
 87 78  2  0
 87 86  1  0
 88 62  1  0
 88 98  1  0
 88 89  1  0
 89 92  1  0
 90 89  1  0
 90 94  1  0
 91 90  2  0
 94 93  1  0
 96 94  1  0
 96 95  1  0
 96 97  1  0
 98101  1  1
 98 99  1  0
100 98  1  0
M  ISO  4  14 100  22 100  60 101  61 101
M  END
>  <TORSDO>  (26) 
F 31

>  <SCORE>  (26) 
23.505

>  <name>  (26) 
27

>  <ligand_id>  (26) 
27

>  <original_smiles>  (26) 
[H]c1c([H])c([H])c2c(c1[H])C([H])([H])C([H])([H])C([H])([H])C2([H])N([H])C(=O)C1([H])N(C(=O)C([H])(N([H])C(=O)C([H])(N([H])C([H])([H])[H])C([H])([H])[H])C(C([H])([H])[H])(C([H])([H])[H])C([H])([H])[H])C([H])([H])c2c([H])c(OC([H])([H])C([H])([H])[N+]([H])([H])C([H])([H])C([H])([H])C([H])([H])C([H])([H])C([H])([H])[N+]([H])([H])C([H])([H])C([H])([H])C([H])([H])[N+]([H])([H])C([H])([H])C([H])([H])C([H])([H])N([H])C(=O)N3C([H])([H])C([H])([H])C([H])([H])C([H])(n4nc(-c5c([H])c([H])c(Oc6c([H])c([H])c(F)c([H])c6F)c([H])c5[H])c(C(=O)N([H])[H])c4N([H])[H])C3([H])[H])c([H])c([H])c2C1([H])[H]

>  <smiles>  (26) 
[H]c1c([H])c([H])c2c(c1[H])C([H])([H])C([H])([H])C([H])([H])C2([H])N([H])C(=O)C1([H])N(C(=O)C([H])(N([H])C(=O)C([H])(N([H])C([H])([H])[H])C([H])([H])[H])C(C([H])([H])[H])(C([H])([H])[H])C([H])([H])[H])C([H])([H])c2c([H])c(OC([H])([H])C([H])([H])[N+]([H])([H])C([H])([H])C([H])([H])C([H])([H])C([H])([H])C([H])([H])[N+]([H])([H])C([H])([H])C([H])([H])C([H])([H])[N+]([H])([H])C([H])([H])C([H])([H])C([H])([H])N([H])C(=O)N3C([H])([H])C([H])([H])C([H])([H])C([H])(n4nc(-c5c([H])c([H])c(Oc6c([H])c([H])c(F)c([H])c6F)c([H])c5[H])c(C(=O)N([H])[H])c4N([H])[H])C3([H])[H])c([H])c([H])c2C1([H])[H]

$$$$
28:0:0
     RDKit          3D

 94101  0  0  1  0  0  0  0  0999 V2000
  -26.6220  -22.2050   20.1810 N   0  0  0  0  0  4  0  0  0  0  0  0
  -26.8150  -21.9160   19.2370 H   0  0  0  0  0  0  0  0  0  0  0  0
  -25.6350  -22.0660   20.3320 H   0  0  0  0  0  0  0  0  0  0  0  0
  -26.9080  -23.6480   20.2930 C   0  0  0  0  0  2  0  0  0  0  0  0
  -28.3890  -23.9760   20.0100 C   0  0  0  0  0  2  0  0  0  0  0  0
  -28.6680  -25.4820   20.0560 C   0  0  0  0  0  2  0  0  0  0  0  0
  -28.5340  -26.1720   18.6890 C   0  0  0  0  0  2  0  0  0  0  0  0
  -28.4050  -27.5730   18.8900 O   0  0  0  0  0  0  0  0  0  0  0  0
  -24.5180  -31.7250   23.1300 C   0  0  0  0  0  0  0  0  0  0  0  0
  -27.1560  -28.1050   19.1240 C   0  0  0  0  0  0  0  0  0  0  0  0
  -23.2580  -30.5370   21.3630 C   0  0  0  0  0  3  0  0  0  0  0  0
  -24.6710  -29.3650   19.5980 C   0  0  0  0  0  0  0  0  0  0  0  0
  -25.7280  -31.1140   21.0410 C   0  0  0  0  0  2  0  0  0  0  0  0
  -25.8390  -29.8810   20.1710 C   0  0  0  0  0  0  0  0  0  0  0  0
  -27.0800  -29.2590   19.9290 C   0  0  0  0  0  3  0  0  0  0  0  0
  -25.9630  -27.5810   18.5670 C   0  0  0  0  0  3  0  0  0  0  0  0
  -24.7260  -28.2090   18.8010 C   0  0  0  0  0  3  0  0  0  0  0  0
  -23.3870  -30.1100   19.8770 C   0  0  0  0  0  2  0  0  0  0  0  0
  -24.5240  -31.1300   21.9040 N   0  0  0  0  0  0  0  0  0  0  0  0
  -23.4730  -31.8250   23.7880 O   0  0  0  0  0  0  0  0  0  0  0  0
  -22.7530  -29.3250   22.1770 C   0  0  0  0  0  0  0  0  0  0  0  0
  -21.4500  -29.0240   22.0500 N   0  0  0  0  0  0  0  0  0  0  0  0
  -23.5270  -28.6640   22.8750 O   0  0  0  0  0  0  0  0  0  0  0  0
  -20.8820  -29.6190   21.4630 H   0  0  0  0  0  0  0  0  0  0  0  0
  -18.2620  -27.3510   22.3330 C   0  0  0  0  0  0  0  0  0  0  0  0
  -20.7610  -27.9050   22.6900 C   0  0  0  0  0  3  0  0  0  0  0  0
  -21.0560  -26.5770   21.9550 C   0  0  0  0  0  2  0  0  0  0  0  0
  -20.0130  -26.2340   20.8870 C   0  0  0  0  0  2  0  0  0  0  0  0
  -18.6200  -26.1220   21.5130 C   0  0  0  0  0  2  0  0  0  0  0  0
  -19.2680  -28.1960   22.8730 C   0  0  0  0  0  0  0  0  0  0  0  0
  -18.8810  -29.3450   23.5970 C   0  0  0  0  0  3  0  0  0  0  0  0
  -17.5220  -29.6510   23.7900 C   0  0  0  0  0  3  0  0  0  0  0  0
  -16.5300  -28.8010   23.2680 C   0  0  0  0  0  3  0  0  0  0  0  0
  -16.9010  -27.6540   22.5460 C   0  0  0  0  0  3  0  0  0  0  0  0
  -25.8150  -32.3310   23.7530 C   0  0  0  0  0  3  0  0  0  0  0  0
  -26.4020  -31.4650   24.9330 C   0  0  1  0  0  0  0  0  0  0  0  0
  -25.3640  -31.1110   26.0230 C   0  0  0  0  0  1  0  0  0  0  0  0
  -26.9920  -30.1390   24.3960 C   0  0  0  0  0  1  0  0  0  0  0  0
  -27.5660  -32.2240   25.6140 C   0  0  0  0  0  1  0  0  0  0  0  0
  -25.4910  -33.6880   24.2150 N   0  0  0  0  0  0  0  0  0  0  0  0
  -25.7910  -34.8080   23.5450 C   0  0  0  0  0  0  0  0  0  0  0  0
  -26.4430  -34.8110   22.4970 O   0  0  0  0  0  0  0  0  0  0  0  0
  -24.9090  -33.7600   25.0360 H   0  0  0  0  0  0  0  0  0  0  0  0
  -24.0280  -36.5960   23.3780 C   0  0  0  0  0  1  0  0  0  0  0  0
  -25.2870  -36.1410   24.1330 C   0  0  0  0  0  3  0  0  0  0  0  0
  -27.4190  -36.9850   25.0140 C   0  0  0  0  0  1  0  0  0  0  0  0
  -26.3010  -37.2170   24.1030 N   0  0  0  0  0  0  0  0  0  0  0  0
  -25.8800  -38.1130   24.3370 H   0  0  0  0  0  0  0  0  0  0  0  0
  -27.3470  -21.3410   21.1400 C   0  0  0  0  0  2  0  0  0  0  0  0
  -27.4420  -19.8960   20.6260 C   0  0  0  0  0  2  0  0  0  0  0  0
  -28.4600  -19.7190   19.4830 C   0  0  0  0  0  2  0  0  0  0  0  0
  -30.0720  -17.8970   18.9600 C   0  0  0  0  0  0  0  0  0  0  0  0
  -28.9030  -18.3360   19.4320 N   0  0  0  0  0  0  0  0  0  0  0  0
  -30.9760  -18.6340   18.5640 O   0  0  0  0  0  0  0  0  0  0  0  0
  -28.2470  -17.6310   19.7450 H   0  0  0  0  0  0  0  0  0  0  0  0
  -30.2100  -16.3850   18.9150 C   0  0  0  0  0  2  0  0  0  0  0  0
  -32.0490  -14.7620   18.9350 C   0  0  0  0  0  0  0  0  0  0  0  0
  -31.8410  -12.2980   18.9180 C   0  0  0  0  0  2  0  0  0  0  0  0
  -30.8120  -11.8330   17.8690 C   0  0  0  0  0  2  0  0  0  0  0  0
  -29.3780  -11.8580   18.4400 C   0  0  0  0  0  2  0  0  0  0  0  0
  -29.0490  -13.1950   19.1510 C   0  0  0  0  0  3  0  0  0  0  0  0
  -30.1780  -13.5500   20.1470 C   0  0  0  0  0  2  0  0  0  0  0  0
  -31.4410  -13.6320   19.3920 N   0  0  0  0  0  0  0  0  0  0  0  0
  -33.0730  -14.7430   18.2480 O   0  0  0  0  0  0  0  0  0  0  0  0
  -31.5340  -15.9300   19.3350 N   0  0  0  0  0  0  0  0  0  0  0  0
  -32.1920  -16.6940   19.2550 H   0  0  0  0  0  0  0  0  0  0  0  0
  -26.9420  -14.2110   20.2320 C   0  0  0  0  0  0  0  0  0  0  0  0
  -25.7920  -13.6330   20.6970 C   0  0  0  0  0  0  0  0  0  0  0  0
  -25.9510  -12.2270   20.5040 C   0  0  0  0  0  0  0  0  0  0  0  0
  -27.7410  -13.1630   19.7950 N   0  0  0  0  0  0  0  0  0  0  0  0
  -27.1520  -11.9610   20.0100 N   0  0  0  0  0  0  0  0  0  0  0  0
  -25.0090  -11.1200   20.7020 C   0  0  0  0  0  0  0  0  0  0  0  0
  -25.2870  -10.0680   21.6030 C   0  0  0  0  0  3  0  0  0  0  0  0
  -24.3600   -9.0210   21.7890 C   0  0  0  0  0  3  0  0  0  0  0  0
  -23.1380   -9.0200   21.0740 C   0  0  0  0  0  0  0  0  0  0  0  0
  -22.8770  -10.0570   20.1600 C   0  0  0  0  0  3  0  0  0  0  0  0
  -23.8040  -11.0960   19.9730 C   0  0  0  0  0  3  0  0  0  0  0  0
  -22.1880   -8.0330   21.1720 O   0  0  0  0  0  0  0  0  0  0  0  0
  -21.9410   -7.3890   22.3580 C   0  0  0  0  0  0  0  0  0  0  0  0
  -21.5350   -8.0880   23.5160 C   0  0  0  0  0  3  0  0  0  0  0  0
  -21.2260   -7.3780   24.6930 C   0  0  0  0  0  3  0  0  0  0  0  0
  -21.3120   -5.9740   24.7130 C   0  0  0  0  0  0  0  0  0  0  0  0
  -21.7100   -5.2760   23.5590 C   0  0  0  0  0  3  0  0  0  0  0  0
  -22.0220   -5.9830   22.3840 C   0  0  0  0  0  0  0  0  0  0  0  0
  -22.3860   -5.3040   21.2690 F   0  0  0  0  0  0  0  0  0  0  0  0
  -21.0070   -5.2910   25.8410 F   0  0  0  0  0  0  0  0  0  0  0  0
  -24.5690  -14.3470   21.1970 C   0  0  0  0  0  0  0  0  0  0  0  0
  -23.8330  -13.7320   22.1170 N   0  0  0  0  0  0  0  0  0  0  0  0
  -24.2840  -15.4780   20.8060 O   0  0  0  0  0  0  0  0  0  0  0  0
  -24.0770  -12.8110   22.4530 H   0  0  0  0  0  0  0  0  0  0  0  0
  -23.0150  -14.1890   22.4910 H   0  0  0  0  0  0  0  0  0  0  0  0
  -27.3640  -15.5340   20.1190 N   0  0  0  0  0  0  0  0  0  0  0  0
  -26.7030  -16.2860   20.2800 H   0  0  0  0  0  0  0  0  0  0  0  0
  -28.1100  -15.7990   19.4890 H   0  0  0  0  0  0  0  0  0  0  0  0
  1  4  1  0
  1  3  1  0
  1 49  1  0
  2  1  1  0
  5  6  1  0
  5  4  1  0
  7  8  1  0
  7  6  1  0
  8 10  1  0
  9 20  2  0
 10 15  1  0
 11 19  1  0
 11 21  1  0
 12 18  1  0
 12 14  1  0
 13 19  1  0
 14 13  1  0
 15 14  2  0
 16 17  1  0
 16 10  2  0
 17 12  2  0
 18 11  1  0
 19  9  1  0
 21 23  2  0
 22 21  1  0
 24 22  1  0
 25 34  2  0
 25 30  1  0
 26 22  1  0
 26 30  1  0
 27 26  1  0
 28 29  1  0
 28 27  1  0
 29 25  1  0
 30 31  2  0
 31 32  1  0
 33 32  2  0
 34 33  1  0
 35  9  1  0
 35 40  1  0
 35 36  1  0
 36 39  1  1
 36 37  1  0
 38 36  1  0
 40 43  1  0
 41 45  1  0
 41 40  1  0
 42 41  2  0
 45 44  1  0
 47 45  1  0
 47 48  1  0
 47 46  1  0
 50 49  1  0
 51 50  1  0
 52 53  1  0
 53 51  1  0
 53 55  1  0
 54 52  2  0
 56 52  1  0
 56 65  1  0
 57 65  1  0
 57 63  1  0
 58 63  1  0
 59 60  1  0
 59 58  1  0
 61 60  1  0
 61 70  1  0
 61 62  1  0
 63 62  1  0
 64 57  2  0
 66 65  1  0
 67 68  2  0
 68 87  1  0
 69 68  1  0
 69 72  1  0
 70 71  1  0
 70 67  1  0
 71 69  2  0
 72 73  1  0
 73 74  2  0
 75 78  1  0
 75 74  1  0
 76 75  2  0
 77 76  1  0
 77 72  2  0
 78 79  1  0
 79 84  2  0
 79 80  1  0
 80 81  2  0
 81 82  1  0
 82 86  1  0
 83 82  2  0
 84 83  1  0
 85 84  1  0
 87 88  1  0
 88 90  1  0
 88 91  1  0
 89 87  2  0
 92 67  1  0
 92 93  1  0
 94 92  1  0
M  ISO  4   7 101   8 101  57 100  65 100
M  END
>  <TORSDO>  (27) 
F 25

>  <SCORE>  (27) 
-8.010

>  <name>  (27) 
28

>  <ligand_id>  (27) 
28

>  <original_smiles>  (27) 
[H]c1c([H])c([H])c2c(c1[H])C([H])([H])C([H])([H])C([H])([H])C2([H])N([H])C(=O)C1([H])N(C(=O)C([H])(N([H])C(=O)C([H])(N([H])C([H])([H])[H])C([H])([H])[H])C(C([H])([H])[H])(C([H])([H])[H])C([H])([H])[H])C([H])([H])c2c([H])c(OC([H])([H])C([H])([H])C([H])([H])C([H])([H])[N+]([H])([H])C([H])([H])C([H])([H])C([H])([H])N([H])C(=O)C([H])([H])N([H])C(=O)N3C([H])([H])C([H])([H])C([H])([H])C([H])(n4nc(-c5c([H])c([H])c(Oc6c([H])c([H])c(F)c([H])c6F)c([H])c5[H])c(C(=O)N([H])[H])c4N([H])[H])C3([H])[H])c([H])c([H])c2C1([H])[H]

>  <smiles>  (27) 
[H]c1c([H])c([H])c2c(c1[H])C([H])([H])C([H])([H])C([H])([H])C2([H])N([H])C(=O)C1([H])N(C(=O)C([H])(N([H])C(=O)C([H])(N([H])C([H])([H])[H])C([H])([H])[H])C(C([H])([H])[H])(C([H])([H])[H])C([H])([H])[H])C([H])([H])c2c([H])c(OC([H])([H])C([H])([H])C([H])([H])C([H])([H])[N+]([H])([H])C([H])([H])C([H])([H])C([H])([H])N([H])C(=O)C([H])([H])N([H])C(=O)N3C([H])([H])C([H])([H])C([H])([H])C([H])(n4nc(-c5c([H])c([H])c(Oc6c([H])c([H])c(F)c([H])c6F)c([H])c5[H])c(C(=O)N([H])[H])c4N([H])[H])C3([H])[H])c([H])c([H])c2C1([H])[H]

$$$$
29:0:0
     RDKit          3D

 98105  0  0  1  0  0  0  0  0999 V2000
  -28.7980  -20.9150   26.0700 C   0  0  0  0  0  2  0  0  0  0  0  0
  -29.3240  -21.2660   24.7410 N   0  0  0  0  0  0  0  0  0  0  0  0
  -28.5910  -21.1120   24.0480 H   0  0  0  0  0  0  0  0  0  0  0  0
  -29.7950  -22.6390   24.6420 C   0  0  0  0  0  2  0  0  0  0  0  0
  -30.1540  -22.9940   23.1890 C   0  0  0  0  0  2  0  0  0  0  0  0
  -30.5560  -24.3940   23.0930 N   0  0  0  0  0  0  0  0  0  0  0  0
  -29.8600  -24.9760   23.5620 H   0  0  0  0  0  0  0  0  0  0  0  0
  -30.6980  -24.8640   21.7150 C   0  0  0  0  0  2  0  0  0  0  0  0
  -30.9960  -26.3700   21.6610 C   0  0  0  0  0  2  0  0  0  0  0  0
  -30.6690  -26.8480   20.3570 O   0  0  0  0  0  0  0  0  0  0  0  0
  -25.4970  -30.7300   23.2590 C   0  0  0  0  0  0  0  0  0  0  0  0
  -29.3790  -27.2990   20.2590 C   0  0  0  0  0  0  0  0  0  0  0  0
  -24.8080  -29.2140   21.4250 C   0  0  0  0  0  3  0  0  0  0  0  0
  -26.7090  -28.1700   20.0800 C   0  0  0  0  0  0  0  0  0  0  0  0
  -27.1730  -30.1750   21.5070 C   0  0  0  0  0  2  0  0  0  0  0  0
  -27.6400  -28.9130   20.8160 C   0  0  0  0  0  0  0  0  0  0  0  0
  -28.9770  -28.4820   20.9110 C   0  0  0  0  0  3  0  0  0  0  0  0
  -28.4440  -26.5620   19.5060 C   0  0  0  0  0  3  0  0  0  0  0  0
  -27.1040  -26.9900   19.4200 C   0  0  0  0  0  3  0  0  0  0  0  0
  -25.2940  -28.7010   20.0410 C   0  0  0  0  0  2  0  0  0  0  0  0
  -25.8350  -30.0510   22.1260 N   0  0  0  0  0  0  0  0  0  0  0  0
  -24.3370  -30.7060   23.6960 O   0  0  0  0  0  0  0  0  0  0  0  0
  -24.3360  -28.0010   22.2590 C   0  0  0  0  0  0  0  0  0  0  0  0
  -23.1310  -27.5030   21.9510 N   0  0  0  0  0  0  0  0  0  0  0  0
  -25.0590  -27.5150   23.1330 O   0  0  0  0  0  0  0  0  0  0  0  0
  -22.6020  -27.9630   21.2230 H   0  0  0  0  0  0  0  0  0  0  0  0
  -20.1400  -25.4800   21.9430 C   0  0  0  0  0  0  0  0  0  0  0  0
  -22.4940  -26.3420   22.5710 C   0  0  0  0  0  3  0  0  0  0  0  0
  -23.0270  -25.0240   21.9620 C   0  0  0  0  0  2  0  0  0  0  0  0
  -22.1760  -24.5100   20.7970 C   0  0  0  0  0  2  0  0  0  0  0  0
  -20.7350  -24.2640   21.2520 C   0  0  0  0  0  2  0  0  0  0  0  0
  -20.9670  -26.4630   22.5470 C   0  0  0  0  0  0  0  0  0  0  0  0
  -20.3650  -27.5940   23.1430 C   0  0  0  0  0  3  0  0  0  0  0  0
  -18.9650  -27.7470   23.1460 C   0  0  0  0  0  3  0  0  0  0  0  0
  -18.1510  -26.7610   22.5630 C   0  0  0  0  0  3  0  0  0  0  0  0
  -18.7370  -25.6300   21.9680 C   0  0  0  0  0  3  0  0  0  0  0  0
  -26.5410  -31.5870   24.0430 C   0  0  0  0  0  3  0  0  0  0  0  0
  -27.0050  -30.9190   25.3940 C   0  0  1  0  0  0  0  0  0  0  0  0
  -25.8310  -30.4690   26.2970 C   0  0  0  0  0  1  0  0  0  0  0  0
  -27.8910  -29.6830   25.1110 C   0  0  0  0  0  1  0  0  0  0  0  0
  -27.8780  -31.9110   26.2000 C   0  0  0  0  0  1  0  0  0  0  0  0
  -25.9370  -32.9010   24.2940 N   0  0  0  0  0  0  0  0  0  0  0  0
  -26.1870  -34.0020   23.5710 C   0  0  0  0  0  0  0  0  0  0  0  0
  -27.0190  -34.0310   22.6600 O   0  0  0  0  0  0  0  0  0  0  0  0
  -25.2080  -32.9400   24.9920 H   0  0  0  0  0  0  0  0  0  0  0  0
  -24.2440  -35.4440   22.9020 C   0  0  0  0  0  1  0  0  0  0  0  0
  -25.3880  -35.2720   23.9150 C   0  0  0  0  0  3  0  0  0  0  0  0
  -27.1540  -36.5230   25.0710 C   0  0  0  0  0  1  0  0  0  0  0  0
  -26.2170  -36.4970   23.9500 N   0  0  0  0  0  0  0  0  0  0  0  0
  -25.6320  -37.3260   24.0090 H   0  0  0  0  0  0  0  0  0  0  0  0
  -28.6770  -19.3900   26.1630 C   0  0  0  0  0  2  0  0  0  0  0  0
  -29.2860  -18.8490   24.9530 N   0  0  0  0  0  0  0  0  0  0  0  0
  -29.0860  -19.6030   24.2810 H   0  0  0  0  0  0  0  0  0  0  0  0
  -30.7390  -18.6190   25.0170 C   0  0  0  0  0  2  0  0  0  0  0  0
  -31.2880  -18.4400   23.5950 C   0  0  0  0  0  2  0  0  0  0  0  0
  -30.3540  -17.5930   22.8260 N   0  0  0  0  0  4  0  0  0  0  0  0
  -30.2560  -16.6950   23.2650 H   0  0  0  0  0  0  0  0  0  0  0  0
  -29.4660  -18.0630   22.9510 H   0  0  0  0  0  0  0  0  0  0  0  0
  -30.6680  -17.4490   21.3900 C   0  0  0  0  0  2  0  0  0  0  0  0
  -31.4380  -16.1460   21.1120 C   0  0  0  0  0  2  0  0  0  0  0  0
  -30.6000  -14.3950   19.5450 C   0  0  0  0  0  0  0  0  0  0  0  0
  -30.2400  -12.1270   18.6470 C   0  0  0  0  0  2  0  0  0  0  0  0
  -29.1490  -12.0360   17.5680 C   0  0  0  0  0  2  0  0  0  0  0  0
  -27.7680  -11.8430   18.2160 C   0  0  0  0  0  2  0  0  0  0  0  0
  -27.4880  -12.9000   19.3110 C   0  0  0  0  0  3  0  0  0  0  0  0
  -28.6640  -12.9900   20.3090 C   0  0  0  0  0  2  0  0  0  0  0  0
  -29.9140  -13.2280   19.5640 N   0  0  0  0  0  0  0  0  0  0  0  0
  -31.3670  -14.7270   18.6350 O   0  0  0  0  0  0  0  0  0  0  0  0
  -30.5540  -15.0520   20.7120 N   0  0  0  0  0  0  0  0  0  0  0  0
  -29.9690  -14.6330   21.4210 H   0  0  0  0  0  0  0  0  0  0  0  0
  -25.2810  -13.5270   20.4840 C   0  0  0  0  0  0  0  0  0  0  0  0
  -24.2540  -12.7600   20.9710 C   0  0  0  0  0  0  0  0  0  0  0  0
  -24.6360  -11.4020   20.7430 C   0  0  0  0  0  0  0  0  0  0  0  0
  -26.2240  -12.6350   19.9960 N   0  0  0  0  0  0  0  0  0  0  0  0
  -25.8480  -11.3470   20.2080 N   0  0  0  0  0  0  0  0  0  0  0  0
  -23.8930  -10.1540   20.9540 C   0  0  0  0  0  0  0  0  0  0  0  0
  -24.3590   -9.1590   21.8430 C   0  0  0  0  0  3  0  0  0  0  0  0
  -23.6180   -7.9730   22.0390 C   0  0  0  0  0  3  0  0  0  0  0  0
  -22.4000   -7.7740   21.3480 C   0  0  0  0  0  0  0  0  0  0  0  0
  -21.9530   -8.7580   20.4480 C   0  0  0  0  0  3  0  0  0  0  0  0
  -22.6930   -9.9350   20.2490 C   0  0  0  0  0  3  0  0  0  0  0  0
  -21.6260   -6.6430   21.4570 O   0  0  0  0  0  0  0  0  0  0  0  0
  -21.5180   -5.9570   22.6400 C   0  0  0  0  0  0  0  0  0  0  0  0
  -21.0400   -6.5720   23.8170 C   0  0  0  0  0  3  0  0  0  0  0  0
  -20.8770   -5.8110   24.9920 C   0  0  0  0  0  3  0  0  0  0  0  0
  -21.1850   -4.4380   24.9910 C   0  0  0  0  0  0  0  0  0  0  0  0
  -21.6550   -3.8220   23.8180 C   0  0  0  0  0  3  0  0  0  0  0  0
  -21.8200   -4.5800   22.6450 C   0  0  0  0  0  0  0  0  0  0  0  0
  -22.2530   -3.9780   21.5120 F   0  0  0  0  0  0  0  0  0  0  0  0
  -21.0210   -3.7060   26.1180 F   0  0  0  0  0  0  0  0  0  0  0  0
  -22.9520  -13.2580   21.5280 C   0  0  0  0  0  0  0  0  0  0  0  0
  -22.3640  -12.5190   22.4640 N   0  0  0  0  0  0  0  0  0  0  0  0
  -22.4740  -14.3330   21.1710 O   0  0  0  0  0  0  0  0  0  0  0  0
  -22.7640  -11.6440   22.7670 H   0  0  0  0  0  0  0  0  0  0  0  0
  -21.5010  -12.8350   22.8820 H   0  0  0  0  0  0  0  0  0  0  0  0
  -25.4800  -14.9000   20.3990 N   0  0  0  0  0  0  0  0  0  0  0  0
  -24.7790  -15.5700   20.6960 H   0  0  0  0  0  0  0  0  0  0  0  0
  -26.2930  -15.3390   19.9840 H   0  0  0  0  0  0  0  0  0  0  0  0
  1 51  1  0
  2  1  1  0
  3  2  1  0
  4  2  1  0
  5  4  1  0
  6  5  1  0
  6  7  1  0
  8  6  1  0
  9  8  1  0
 10  9  1  0
 11 22  2  0
 12 10  1  0
 12 17  1  0
 13 21  1  0
 13 23  1  0
 14 16  1  0
 15 21  1  0
 16 17  2  0
 16 15  1  0
 18 12  2  0
 19 18  1  0
 19 14  2  0
 20 14  1  0
 20 13  1  0
 21 11  1  0
 23 25  2  0
 24 23  1  0
 26 24  1  0
 27 36  2  0
 27 32  1  0
 28 24  1  0
 29 28  1  0
 30 31  1  0
 30 29  1  0
 31 27  1  0
 32 28  1  0
 32 33  2  0
 33 34  1  0
 35 34  2  0
 36 35  1  0
 37 11  1  0
 37 42  1  0
 37 38  1  0
 38 41  1  1
 38 39  1  0
 40 38  1  0
 42 45  1  0
 43 47  1  0
 43 42  1  0
 44 43  2  0
 47 46  1  0
 47 49  1  0
 49 50  1  0
 49 48  1  0
 52 54  1  0
 52 51  1  0
 53 52  1  0
 55 54  1  0
 56 58  1  0
 56 57  1  0
 56 55  1  0
 59 56  1  0
 60 59  1  0
 61 67  1  0
 61 69  1  0
 62 67  1  0
 63 64  1  0
 63 62  1  0
 65 64  1  0
 65 74  1  0
 65 66  1  0
 67 66  1  0
 68 61  2  0
 69 60  1  0
 69 70  1  0
 71 72  2  0
 72 91  1  0
 73 76  1  0
 73 72  1  0
 74 75  1  0
 74 71  1  0
 75 73  2  0
 76 77  1  0
 77 78  2  0
 79 82  1  0
 79 78  1  0
 80 79  2  0
 81 80  1  0
 81 76  2  0
 82 83  1  0
 83 88  2  0
 83 84  1  0
 84 85  2  0
 86 85  1  0
 86 90  1  0
 87 86  2  0
 88 87  1  0
 89 88  1  0
 91 92  1  0
 92 94  1  0
 92 95  1  0
 93 91  2  0
 96 71  1  0
 96 97  1  0
 98 96  1  0
M  ISO  4   9 101  10 101  61 100  69 100
M  END
>  <TORSDO>  (28) 
F 29

>  <SCORE>  (28) 
0.437

>  <name>  (28) 
29

>  <ligand_id>  (28) 
29

>  <original_smiles>  (28) 
[H]c1c([H])c([H])c2c(c1[H])C([H])([H])C([H])([H])C([H])([H])C2([H])N([H])C(=O)C1([H])N(C(=O)C([H])(N([H])C(=O)C([H])(N([H])C([H])([H])[H])C([H])([H])[H])C(C([H])([H])[H])(C([H])([H])[H])C([H])([H])[H])C([H])([H])c2c([H])c(OC([H])([H])C([H])([H])N([H])C([H])([H])C([H])([H])N([H])C([H])([H])C([H])([H])N([H])C([H])([H])C([H])([H])[N+]([H])([H])C([H])([H])C([H])([H])N([H])C(=O)N3C([H])([H])C([H])([H])C([H])([H])C([H])(n4nc(-c5c([H])c([H])c(Oc6c([H])c([H])c(F)c([H])c6F)c([H])c5[H])c(C(=O)N([H])[H])c4N([H])[H])C3([H])[H])c([H])c([H])c2C1([H])[H]

>  <smiles>  (28) 
[H]c1c([H])c([H])c2c(c1[H])C([H])([H])C([H])([H])C([H])([H])C2([H])N([H])C(=O)C1([H])N(C(=O)C([H])(N([H])C(=O)C([H])(N([H])C([H])([H])[H])C([H])([H])[H])C(C([H])([H])[H])(C([H])([H])[H])C([H])([H])[H])C([H])([H])c2c([H])c(OC([H])([H])C([H])([H])N([H])C([H])([H])C([H])([H])N([H])C([H])([H])C([H])([H])N([H])C([H])([H])C([H])([H])[N+]([H])([H])C([H])([H])C([H])([H])N([H])C(=O)N3C([H])([H])C([H])([H])C([H])([H])C([H])(n4nc(-c5c([H])c([H])c(Oc6c([H])c([H])c(F)c([H])c6F)c([H])c5[H])c(C(=O)N([H])[H])c4N([H])[H])C3([H])[H])c([H])c([H])c2C1([H])[H]

$$$$
31:0:0
     RDKit          3D

 93100  0  0  1  0  0  0  0  0999 V2000
  -26.2060  -23.1040   21.9730 N   0  0  0  0  0  4  0  0  0  0  0  0
  -26.8100  -23.1030   22.7720 H   0  0  0  0  0  0  0  0  0  0  0  0
  -25.2860  -22.8890   22.3200 H   0  0  0  0  0  0  0  0  0  0  0  0
  -26.1890  -24.4820   21.4180 C   0  0  0  0  0  2  0  0  0  0  0  0
  -27.5280  -25.2440   21.6570 C   0  0  0  0  0  2  0  0  0  0  0  0
  -28.2530  -25.7030   20.3470 C   0  0  0  0  0  2  0  0  0  0  0  0
  -28.3810  -27.1180   20.1130 O   0  0  0  0  0  0  0  0  0  0  0  0
  -24.5360  -32.0540   23.3660 C   0  0  0  0  0  0  0  0  0  0  0  0
  -27.2170  -27.8470   20.0590 C   0  0  0  0  0  0  0  0  0  0  0  0
  -23.3320  -30.6910   21.6970 C   0  0  0  0  0  3  0  0  0  0  0  0
  -24.7910  -29.2800   20.1780 C   0  0  0  0  0  0  0  0  0  0  0  0
  -25.8430  -31.1660   21.4370 C   0  0  0  0  0  2  0  0  0  0  0  0
  -25.9600  -29.8320   20.7220 C   0  0  0  0  0  0  0  0  0  0  0  0
  -27.1830  -29.1350   20.6410 C   0  0  0  0  0  3  0  0  0  0  0  0
  -26.0480  -27.3210   19.4790 C   0  0  0  0  0  3  0  0  0  0  0  0
  -24.8300  -28.0220   19.5510 C   0  0  0  0  0  3  0  0  0  0  0  0
  -23.5270  -30.0930   20.2850 C   0  0  0  0  0  2  0  0  0  0  0  0
  -24.5880  -31.3210   22.2180 N   0  0  0  0  0  0  0  0  0  0  0  0
  -23.4590  -32.2600   23.9460 O   0  0  0  0  0  0  0  0  0  0  0  0
  -22.7420  -29.5980   22.6230 C   0  0  0  0  0  0  0  0  0  0  0  0
  -21.4210  -29.3530   22.5060 N   0  0  0  0  0  0  0  0  0  0  0  0
  -23.4610  -28.9730   23.4050 O   0  0  0  0  0  0  0  0  0  0  0  0
  -20.8630  -29.9550   21.9160 H   0  0  0  0  0  0  0  0  0  0  0  0
  -18.1290  -27.8910   22.8870 C   0  0  0  0  0  0  0  0  0  0  0  0
  -20.6580  -28.3350   23.2340 C   0  0  0  0  0  3  0  0  0  0  0  0
  -20.8770  -26.9260   22.6260 C   0  0  0  0  0  2  0  0  0  0  0  0
  -19.8200  -26.5460   21.5850 C   0  0  0  0  0  2  0  0  0  0  0  0
  -18.4190  -26.5700   22.2060 C   0  0  0  0  0  2  0  0  0  0  0  0
  -19.1810  -28.7290   23.3480 C   0  0  0  0  0  0  0  0  0  0  0  0
  -18.8550  -29.9720   23.9340 C   0  0  0  0  0  3  0  0  0  0  0  0
  -17.5110  -30.3760   24.0790 C   0  0  0  0  0  3  0  0  0  0  0  0
  -16.4730  -29.5370   23.6330 C   0  0  0  0  0  3  0  0  0  0  0  0
  -16.7860  -28.2950   23.0480 C   0  0  0  0  0  3  0  0  0  0  0  0
  -25.8190  -32.6970   23.9860 C   0  0  0  0  0  3  0  0  0  0  0  0
  -26.3500  -31.9240   25.2540 C   0  0  1  0  0  0  0  0  0  0  0  0
  -25.2580  -31.6450   26.3110 C   0  0  0  0  0  1  0  0  0  0  0  0
  -26.9760  -30.5660   24.8500 C   0  0  0  0  0  1  0  0  0  0  0  0
  -27.4750  -32.7430   25.9220 C   0  0  0  0  0  1  0  0  0  0  0  0
  -25.4950  -34.0900   24.3170 N   0  0  0  0  0  0  0  0  0  0  0  0
  -25.8060  -35.1460   23.5500 C   0  0  0  0  0  0  0  0  0  0  0  0
  -26.4740  -35.0420   22.5160 O   0  0  0  0  0  0  0  0  0  0  0  0
  -24.9140  -34.2370   25.1270 H   0  0  0  0  0  0  0  0  0  0  0  0
  -24.0590  -36.9110   23.2030 C   0  0  0  0  0  1  0  0  0  0  0  0
  -25.3080  -36.5270   24.0110 C   0  0  0  0  0  3  0  0  0  0  0  0
  -27.4390  -37.4340   24.8220 C   0  0  0  0  0  1  0  0  0  0  0  0
  -26.3270  -37.5890   23.8900 N   0  0  0  0  0  0  0  0  0  0  0  0
  -25.9130  -38.5020   24.0380 H   0  0  0  0  0  0  0  0  0  0  0  0
  -26.5780  -22.0230   21.0100 C   0  0  0  0  0  2  0  0  0  0  0  0
  -27.8260  -21.2110   21.4130 C   0  0  0  0  0  2  0  0  0  0  0  0
  -28.2320  -20.1360   20.3760 C   0  0  0  0  0  2  0  0  0  0  0  0
  -29.5530  -19.5420   20.6980 N   0  0  0  0  0  4  0  0  0  0  0  0
  -29.6310  -19.4850   21.7010 H   0  0  0  0  0  0  0  0  0  0  0  0
  -30.2760  -20.1660   20.3690 H   0  0  0  0  0  0  0  0  0  0  0  0
  -29.7870  -18.1890   20.1540 C   0  0  0  0  0  2  0  0  0  0  0  0
  -31.2060  -17.6540   20.4870 C   0  0  0  0  0  2  0  0  0  0  0  0
  -31.9870  -15.2050   20.2520 C   0  0  0  0  0  0  0  0  0  0  0  0
  -31.8250  -12.8260   19.5950 C   0  0  0  0  0  2  0  0  0  0  0  0
  -30.9440  -12.7320   18.3310 C   0  0  0  0  0  2  0  0  0  0  0  0
  -29.4340  -12.7250   18.6640 C   0  0  0  0  0  2  0  0  0  0  0  0
  -29.0450  -13.8470   19.6610 C   0  0  0  0  0  3  0  0  0  0  0  0
  -29.9980  -13.8090   20.8760 C   0  0  0  0  0  2  0  0  0  0  0  0
  -31.3730  -13.9980   20.3560 N   0  0  0  0  0  0  0  0  0  0  0  0
  -33.1130  -15.3750   19.7680 O   0  0  0  0  0  0  0  0  0  0  0  0
  -31.1620  -16.2000   20.6310 N   0  0  0  0  0  0  0  0  0  0  0  0
  -30.3020  -15.8490   21.0210 H   0  0  0  0  0  0  0  0  0  0  0  0
  -26.7190  -14.7580   20.2950 C   0  0  0  0  0  0  0  0  0  0  0  0
  -25.5470  -14.1230   20.6320 C   0  0  0  0  0  0  0  0  0  0  0  0
  -25.8350  -12.7240   20.5830 C   0  0  0  0  0  0  0  0  0  0  0  0
  -27.6480  -13.7480   20.0810 N   0  0  0  0  0  0  0  0  0  0  0  0
  -27.1170  -12.5230   20.3120 N   0  0  0  0  0  0  0  0  0  0  0  0
  -24.9540  -11.5620   20.7300 C   0  0  0  0  0  0  0  0  0  0  0  0
  -25.2130  -10.5530   21.6860 C   0  0  0  0  0  3  0  0  0  0  0  0
  -24.3400   -9.4510   21.8180 C   0  0  0  0  0  3  0  0  0  0  0  0
  -23.1950   -9.3500   20.9920 C   0  0  0  0  0  0  0  0  0  0  0  0
  -22.9550  -10.3450   20.0270 C   0  0  0  0  0  3  0  0  0  0  0  0
  -23.8280  -11.4370   19.8940 C   0  0  0  0  0  3  0  0  0  0  0  0
  -22.3060   -8.3020   21.0290 O   0  0  0  0  0  0  0  0  0  0  0  0
  -22.0450   -7.6260   22.1950 C   0  0  0  0  0  0  0  0  0  0  0  0
  -21.5720   -8.2830   23.3520 C   0  0  0  0  0  3  0  0  0  0  0  0
  -21.2500   -7.5390   24.5030 C   0  0  0  0  0  3  0  0  0  0  0  0
  -21.3910   -6.1370   24.4990 C   0  0  0  0  0  0  0  0  0  0  0  0
  -21.8570   -5.4800   23.3470 C   0  0  0  0  0  3  0  0  0  0  0  0
  -22.1810   -6.2230   22.1980 C   0  0  0  0  0  0  0  0  0  0  0  0
  -22.6090   -5.5810   21.0840 F   0  0  0  0  0  0  0  0  0  0  0  0
  -21.0740   -5.4220   25.6030 F   0  0  0  0  0  0  0  0  0  0  0  0
  -24.2140  -14.7650   20.8670 C   0  0  0  0  0  0  0  0  0  0  0  0
  -23.3810  -14.1660   21.7090 N   0  0  0  0  0  0  0  0  0  0  0  0
  -23.9190  -15.8430   20.3450 O   0  0  0  0  0  0  0  0  0  0  0  0
  -23.6270  -13.2960   22.1610 H   0  0  0  0  0  0  0  0  0  0  0  0
  -22.4830  -14.5790   21.9120 H   0  0  0  0  0  0  0  0  0  0  0  0
  -27.0500  -16.0980   20.1320 N   0  0  0  0  0  0  0  0  0  0  0  0
  -26.2970  -16.7780   20.0930 H   0  0  0  0  0  0  0  0  0  0  0  0
  -27.8340  -16.3610   19.5470 H   0  0  0  0  0  0  0  0  0  0  0  0
  1  3  1  0
  1  2  1  0
  4  5  1  0
  4  1  1  0
  6  5  1  0
  7  6  1  0
  8 19  2  0
  9  7  1  0
  9 14  1  0
 10 18  1  0
 10 20  1  0
 11 17  1  0
 11 13  1  0
 12 18  1  0
 13 12  1  0
 14 13  2  0
 15 16  1  0
 15  9  2  0
 16 11  2  0
 17 10  1  0
 18  8  1  0
 20 22  2  0
 21 20  1  0
 23 21  1  0
 24 33  2  0
 24 29  1  0
 25 21  1  0
 25 29  1  0
 26 25  1  0
 27 28  1  0
 27 26  1  0
 28 24  1  0
 29 30  2  0
 30 31  1  0
 32 31  2  0
 33 32  1  0
 34  8  1  0
 34 39  1  0
 34 35  1  0
 35 38  1  1
 35 36  1  0
 37 35  1  0
 39 42  1  0
 40 44  1  0
 40 39  1  0
 41 40  2  0
 44 43  1  0
 46 44  1  0
 46 47  1  0
 46 45  1  0
 48 49  1  0
 48  1  1  0
 50 51  1  0
 50 49  1  0
 51 52  1  0
 53 51  1  0
 54 55  1  0
 54 51  1  0
 55 64  1  0
 56 62  1  0
 56 64  1  0
 57 62  1  0
 58 59  1  0
 58 57  1  0
 60 59  1  0
 60 69  1  0
 60 61  1  0
 62 61  1  0
 63 56  2  0
 64 65  1  0
 66 67  2  0
 67 86  1  0
 68 67  1  0
 68 71  1  0
 69 66  1  0
 69 70  1  0
 70 68  2  0
 71 72  1  0
 72 73  2  0
 74 77  1  0
 74 73  1  0
 75 74  2  0
 76 75  1  0
 76 71  2  0
 77 78  1  0
 78 83  2  0
 78 79  1  0
 79 80  2  0
 81 80  1  0
 81 85  1  0
 82 81  2  0
 83 82  1  0
 84 83  1  0
 86 87  1  0
 87 90  1  0
 87 89  1  0
 88 86  2  0
 91 66  1  0
 92 91  1  0
 93 91  1  0
M  ISO  4   6 101   7 101  56 100  64 100
M  END
>  <TORSDO>  (29) 
F 25

>  <SCORE>  (29) 
-9.166

>  <name>  (29) 
31

>  <ligand_id>  (29) 
31

>  <original_smiles>  (29) 
[H]c1c([H])c([H])c2c(c1[H])C([H])([H])C([H])([H])C([H])([H])C2([H])N([H])C(=O)C1([H])N(C(=O)C([H])(N([H])C(=O)C([H])(N([H])C([H])([H])[H])C([H])([H])[H])C(C([H])([H])[H])(C([H])([H])[H])C([H])([H])[H])C([H])([H])c2c([H])c(OC([H])([H])C([H])([H])C([H])([H])[N+]([H])([H])C([H])([H])C([H])([H])C([H])([H])[N+]([H])([H])C([H])([H])C([H])([H])N([H])C(=O)N3C([H])([H])C([H])([H])C([H])([H])C([H])(n4nc(-c5c([H])c([H])c(Oc6c([H])c([H])c(F)c([H])c6F)c([H])c5[H])c(C(=O)N([H])[H])c4N([H])[H])C3([H])[H])c([H])c([H])c2C1([H])[H]

>  <smiles>  (29) 
[H]c1c([H])c([H])c2c(c1[H])C([H])([H])C([H])([H])C([H])([H])C2([H])N([H])C(=O)C1([H])N(C(=O)C([H])(N([H])C(=O)C([H])(N([H])C([H])([H])[H])C([H])([H])[H])C(C([H])([H])[H])(C([H])([H])[H])C([H])([H])[H])C([H])([H])c2c([H])c(OC([H])([H])C([H])([H])C([H])([H])[N+]([H])([H])C([H])([H])C([H])([H])C([H])([H])[N+]([H])([H])C([H])([H])C([H])([H])N([H])C(=O)N3C([H])([H])C([H])([H])C([H])([H])C([H])(n4nc(-c5c([H])c([H])c(Oc6c([H])c([H])c(F)c([H])c6F)c([H])c5[H])c(C(=O)N([H])[H])c4N([H])[H])C3([H])[H])c([H])c([H])c2C1([H])[H]

$$$$
32:0:0
     RDKit          3D

 97104  0  0  1  0  0  0  0  0999 V2000
  -27.9290  -19.7020   19.4060 C   0  0  0  0  0  2  0  0  0  0  0  0
  -29.1910  -20.4820   19.8270 C   0  0  0  0  0  2  0  0  0  0  0  0
  -28.9160  -21.9060   20.3750 C   0  0  0  0  0  2  0  0  0  0  0  0
  -29.7660  -22.9410   19.7390 N   0  0  0  0  0  4  0  0  0  0  0  0
  -30.7230  -22.7150   19.9640 H   0  0  0  0  0  0  0  0  0  0  0  0
  -29.6880  -22.8700   18.7360 H   0  0  0  0  0  0  0  0  0  0  0  0
  -29.5450  -24.3510   20.1710 C   0  0  0  0  0  2  0  0  0  0  0  0
  -28.2580  -25.0210   19.6330 C   0  0  0  0  0  2  0  0  0  0  0  0
  -28.3080  -26.4290   19.9380 O   0  0  0  0  0  0  0  0  0  0  0  0
  -24.5680  -31.5820   23.1350 C   0  0  0  0  0  0  0  0  0  0  0  0
  -27.1370  -27.1640   19.9300 C   0  0  0  0  0  0  0  0  0  0  0  0
  -23.3410  -30.2420   21.4600 C   0  0  0  0  0  3  0  0  0  0  0  0
  -24.7680  -28.7190   19.9920 C   0  0  0  0  0  0  0  0  0  0  0  0
  -25.8730  -30.5610   21.2690 C   0  0  0  0  0  2  0  0  0  0  0  0
  -25.9370  -29.2050   20.5900 C   0  0  0  0  0  0  0  0  0  0  0  0
  -27.1230  -28.4360   20.5510 C   0  0  0  0  0  3  0  0  0  0  0  0
  -25.9460  -26.6970   19.3260 C   0  0  0  0  0  3  0  0  0  0  0  0
  -24.7700  -27.4660   19.3560 C   0  0  0  0  0  3  0  0  0  0  0  0
  -23.5380  -29.5990   20.0610 C   0  0  0  0  0  2  0  0  0  0  0  0
  -24.6140  -30.8070   22.0140 N   0  0  0  0  0  0  0  0  0  0  0  0
  -23.4900  -31.8550   23.6810 O   0  0  0  0  0  0  0  0  0  0  0  0
  -22.6750  -29.2010   22.3890 C   0  0  0  0  0  0  0  0  0  0  0  0
  -21.3430  -29.0730   22.2870 N   0  0  0  0  0  0  0  0  0  0  0  0
  -23.3540  -28.5160   23.1610 O   0  0  0  0  0  0  0  0  0  0  0  0
  -20.8590  -29.6740   21.6310 H   0  0  0  0  0  0  0  0  0  0  0  0
  -17.9300  -28.0350   22.8700 C   0  0  0  0  0  0  0  0  0  0  0  0
  -20.5090  -28.1340   23.0350 C   0  0  0  0  0  3  0  0  0  0  0  0
  -20.5020  -26.7400   22.3680 C   0  0  0  0  0  2  0  0  0  0  0  0
  -19.3400  -26.5440   21.3880 C   0  0  0  0  0  2  0  0  0  0  0  0
  -17.9990  -26.7240   22.1070 C   0  0  0  0  0  2  0  0  0  0  0  0
  -19.1090  -28.7060   23.2930 C   0  0  0  0  0  0  0  0  0  0  0  0
  -18.9920  -29.9400   23.9670 C   0  0  0  0  0  3  0  0  0  0  0  0
  -17.7270  -30.5010   24.2240 C   0  0  0  0  0  3  0  0  0  0  0  0
  -16.5630  -29.8250   23.8200 C   0  0  0  0  0  3  0  0  0  0  0  0
  -16.6660  -28.5960   23.1470 C   0  0  0  0  0  3  0  0  0  0  0  0
  -25.8600  -32.1780   23.7710 C   0  0  0  0  0  3  0  0  0  0  0  0
  -26.4070  -31.3260   24.9820 C   0  0  1  0  0  0  0  0  0  0  0  0
  -25.3370  -31.0040   26.0510 C   0  0  0  0  0  1  0  0  0  0  0  0
  -26.9950  -29.9860   24.4820 C   0  0  0  0  0  1  0  0  0  0  0  0
  -27.5650  -32.0840   25.6760 C   0  0  0  0  0  1  0  0  0  0  0  0
  -25.5510  -33.5480   24.2010 N   0  0  0  0  0  0  0  0  0  0  0  0
  -25.8470  -34.6500   23.4990 C   0  0  0  0  0  0  0  0  0  0  0  0
  -26.4840  -34.6200   22.4410 O   0  0  0  0  0  0  0  0  0  0  0  0
  -24.9830  -33.6440   25.0300 H   0  0  0  0  0  0  0  0  0  0  0  0
  -24.0980  -36.4450   23.2990 C   0  0  0  0  0  1  0  0  0  0  0  0
  -25.3600  -36.0010   24.0560 C   0  0  0  0  0  3  0  0  0  0  0  0
  -27.5000  -36.8520   24.9090 C   0  0  0  0  0  1  0  0  0  0  0  0
  -26.3840  -37.0680   23.9910 N   0  0  0  0  0  0  0  0  0  0  0  0
  -25.9740  -37.9730   24.2020 H   0  0  0  0  0  0  0  0  0  0  0  0
  -28.2450  -18.3100   18.8290 C   0  0  0  0  0  2  0  0  0  0  0  0
  -30.0370  -17.0560   20.0610 C   0  0  0  0  0  0  0  0  0  0  0  0
  -28.7520  -17.3730   19.8320 N   0  0  0  0  0  0  0  0  0  0  0  0
  -30.9640  -17.6340   19.4940 O   0  0  0  0  0  0  0  0  0  0  0  0
  -28.0690  -16.8390   20.3510 H   0  0  0  0  0  0  0  0  0  0  0  0
  -30.2610  -15.8710   21.0360 C   0  0  0  0  0  3  0  0  0  0  0  0
  -29.8640  -14.0540   19.3090 C   0  0  0  0  0  0  0  0  0  0  0  0
  -29.2320  -12.1350   17.9080 C   0  0  0  0  0  2  0  0  0  0  0  0
  -28.0010  -12.4730   17.0440 C   0  0  0  0  0  2  0  0  0  0  0  0
  -26.6930  -12.2170   17.8160 C   0  0  0  0  0  2  0  0  0  0  0  0
  -26.7010  -12.8570   19.2300 C   0  0  0  0  0  3  0  0  0  0  0  0
  -27.9990  -12.4930   19.9770 C   0  0  0  0  0  2  0  0  0  0  0  0
  -29.1470  -12.9160   19.1460 N   0  0  0  0  0  0  0  0  0  0  0  0
  -30.6410  -14.4920   18.4590 O   0  0  0  0  0  0  0  0  0  0  0  0
  -29.6370  -14.6680   20.4750 N   0  0  0  0  0  0  0  0  0  0  0  0
  -28.9720  -14.1990   21.0700 H   0  0  0  0  0  0  0  0  0  0  0  0
  -24.5450  -13.2820   20.5710 C   0  0  0  0  0  0  0  0  0  0  0  0
  -23.6240  -12.4300   21.1160 C   0  0  0  0  0  0  0  0  0  0  0  0
  -24.0900  -11.1130   20.8290 C   0  0  0  0  0  0  0  0  0  0  0  0
  -25.5150  -12.4780   19.9970 N   0  0  0  0  0  0  0  0  0  0  0  0
  -25.2580  -11.1630   20.2010 N   0  0  0  0  0  0  0  0  0  0  0  0
  -23.4690   -9.8030   21.0660 C   0  0  0  0  0  0  0  0  0  0  0  0
  -23.9820   -8.9060   22.0270 C   0  0  0  0  0  3  0  0  0  0  0  0
  -23.3570   -7.6590   22.2450 C   0  0  0  0  0  3  0  0  0  0  0  0
  -22.2040   -7.3010   21.5060 C   0  0  0  0  0  0  0  0  0  0  0  0
  -21.7120   -8.1940   20.5360 C   0  0  0  0  0  3  0  0  0  0  0  0
  -22.3370   -9.4320   20.3160 C   0  0  0  0  0  3  0  0  0  0  0  0
  -21.5480   -6.1010   21.6340 O   0  0  0  0  0  0  0  0  0  0  0  0
  -21.4310   -5.4720   22.8490 C   0  0  0  0  0  0  0  0  0  0  0  0
  -20.7620   -6.0740   23.9380 C   0  0  0  0  0  3  0  0  0  0  0  0
  -20.6000   -5.3620   25.1430 C   0  0  0  0  0  3  0  0  0  0  0  0
  -21.0980   -4.0500   25.2610 C   0  0  0  0  0  0  0  0  0  0  0  0
  -21.7560   -3.4470   24.1740 C   0  0  0  0  0  3  0  0  0  0  0  0
  -21.9170   -4.1550   22.9700 C   0  0  0  0  0  0  0  0  0  0  0  0
  -22.5340   -3.5620   21.9190 F   0  0  0  0  0  0  0  0  0  0  0  0
  -20.9370   -3.3630   26.4150 F   0  0  0  0  0  0  0  0  0  0  0  0
  -22.3300  -12.8140   21.7800 C   0  0  0  0  0  0  0  0  0  0  0  0
  -21.8810  -12.0280   22.7510 N   0  0  0  0  0  0  0  0  0  0  0  0
  -21.7340  -13.8450   21.4690 O   0  0  0  0  0  0  0  0  0  0  0  0
  -22.3840  -11.1940   23.0260 H   0  0  0  0  0  0  0  0  0  0  0  0
  -21.0230  -12.2670   23.2300 H   0  0  0  0  0  0  0  0  0  0  0  0
  -24.6360  -14.6680   20.4960 N   0  0  0  0  0  0  0  0  0  0  0  0
  -23.9010  -15.2720   20.8460 H   0  0  0  0  0  0  0  0  0  0  0  0
  -25.3440  -15.1580   19.9650 H   0  0  0  0  0  0  0  0  0  0  0  0
  -31.7650  -14.1610   22.2060 C   0  0  0  0  0  1  0  0  0  0  0  0
  -31.8330  -16.5430   22.9150 C   0  0  0  0  0  1  0  0  0  0  0  0
  -32.8990  -15.8700   20.7720 C   0  0  0  0  0  1  0  0  0  0  0  0
  -31.6790  -15.6190   21.6870 C   0  0  2  0  0  0  0  0  0  0  0  0
  1  2  1  0
  2  3  1  0
  4  5  1  0
  4  7  1  0
  4  3  1  0
  6  4  1  0
  8  9  1  0
  8  7  1  0
 10 21  2  0
 11  9  1  0
 11 16  1  0
 12 20  1  0
 12 22  1  0
 13 19  1  0
 13 15  1  0
 14 20  1  0
 15 14  1  0
 16 15  2  0
 17 18  1  0
 17 11  2  0
 18 13  2  0
 19 12  1  0
 20 10  1  0
 22 24  2  0
 23 22  1  0
 25 23  1  0
 26 35  2  0
 26 31  1  0
 27 23  1  0
 27 31  1  0
 28 27  1  0
 29 30  1  0
 29 28  1  0
 30 26  1  0
 31 32  2  0
 32 33  1  0
 34 33  2  0
 35 34  1  0
 36 10  1  0
 36 41  1  0
 36 37  1  0
 37 40  1  1
 37 38  1  0
 39 37  1  0
 41 44  1  0
 42 46  1  0
 42 41  1  0
 43 42  2  0
 46 45  1  0
 48 46  1  0
 48 49  1  0
 48 47  1  0
 50  1  1  0
 50 52  1  0
 52 51  1  0
 52 54  1  0
 53 51  2  0
 55 51  1  0
 55 97  1  0
 56 64  1  0
 57 62  1  0
 58 59  1  0
 58 57  1  0
 60 59  1  0
 60 61  1  0
 60 69  1  0
 62 56  1  0
 62 61  1  0
 63 56  2  0
 64 55  1  0
 64 65  1  0
 66 67  2  0
 67 86  1  0
 68 71  1  0
 68 67  1  0
 69 70  1  0
 69 66  1  0
 70 68  2  0
 71 72  1  0
 72 73  2  0
 74 77  1  0
 74 73  1  0
 75 74  2  0
 76 75  1  0
 76 71  2  0
 77 78  1  0
 78 83  2  0
 78 79  1  0
 79 80  2  0
 80 81  1  0
 81 85  1  0
 82 81  2  0
 83 82  1  0
 84 83  1  0
 86 87  1  0
 87 89  1  0
 87 90  1  0
 88 86  2  0
 91 66  1  0
 91 92  1  0
 93 91  1  0
 97 96  1  6
 97 94  1  0
 97 95  1  0
M  ISO  4   8 101   9 101  56 100  64 100
M  END
>  <TORSDO>  (30) 
F 25

>  <SCORE>  (30) 
-5.348

>  <name>  (30) 
32

>  <ligand_id>  (30) 
32

>  <original_smiles>  (30) 
[H]c1c([H])c([H])c2c(c1[H])C([H])([H])C([H])([H])C([H])([H])C2([H])N([H])C(=O)C1([H])N(C(=O)C([H])(N([H])C(=O)C([H])(N([H])C([H])([H])[H])C([H])([H])[H])C(C([H])([H])[H])(C([H])([H])[H])C([H])([H])[H])C([H])([H])c2c([H])c(OC([H])([H])C([H])([H])[N+]([H])([H])C([H])([H])C([H])([H])C([H])([H])C([H])([H])N([H])C(=O)C([H])(N([H])C(=O)N3C([H])([H])C([H])([H])C([H])([H])C([H])(n4nc(-c5c([H])c([H])c(Oc6c([H])c([H])c(F)c([H])c6F)c([H])c5[H])c(C(=O)N([H])[H])c4N([H])[H])C3([H])[H])C(C([H])([H])[H])(C([H])([H])[H])C([H])([H])[H])c([H])c([H])c2C1([H])[H]

>  <smiles>  (30) 
[H]c1c([H])c([H])c2c(c1[H])C([H])([H])C([H])([H])C([H])([H])C2([H])N([H])C(=O)C1([H])N(C(=O)C([H])(N([H])C(=O)C([H])(N([H])C([H])([H])[H])C([H])([H])[H])C(C([H])([H])[H])(C([H])([H])[H])C([H])([H])[H])C([H])([H])c2c([H])c(OC([H])([H])C([H])([H])[N+]([H])([H])C([H])([H])C([H])([H])C([H])([H])C([H])([H])N([H])C(=O)C([H])(N([H])C(=O)N3C([H])([H])C([H])([H])C([H])([H])C([H])(n4nc(-c5c([H])c([H])c(Oc6c([H])c([H])c(F)c([H])c6F)c([H])c5[H])c(C(=O)N([H])[H])c4N([H])[H])C3([H])[H])C(C([H])([H])[H])(C([H])([H])[H])C([H])([H])[H])c([H])c([H])c2C1([H])[H]

$$$$
33:0:0
     RDKit          3D

 95102  0  0  1  0  0  0  0  0999 V2000
  -32.5120  -24.3120   19.0730 N   0  0  0  0  0  4  0  0  0  0  0  0
  -33.1550  -24.0530   18.3390 H   0  0  0  0  0  0  0  0  0  0  0  0
  -31.5810  -24.1890   18.7090 H   0  0  0  0  0  0  0  0  0  0  0  0
  -32.7380  -23.4200   20.2350 C   0  0  0  0  0  2  0  0  0  0  0  0
  -32.2240  -21.9910   19.9750 C   0  0  0  0  0  2  0  0  0  0  0  0
  -32.4100  -21.0420   21.1720 C   0  0  0  0  0  2  0  0  0  0  0  0
  -31.4420  -18.8220   21.7530 C   0  0  0  0  0  0  0  0  0  0  0  0
  -31.8670  -19.7230   20.8590 N   0  0  0  0  0  0  0  0  0  0  0  0
  -31.5450  -18.9940   22.9680 O   0  0  0  0  0  0  0  0  0  0  0  0
  -31.7660  -19.4870   19.8800 H   0  0  0  0  0  0  0  0  0  0  0  0
  -30.7800  -17.5580   21.1870 C   0  0  0  0  0  2  0  0  0  0  0  0
  -30.9700  -16.3000   22.0670 C   0  0  0  0  0  2  0  0  0  0  0  0
  -30.6510  -14.4090   20.4590 C   0  0  0  0  0  0  0  0  0  0  0  0
  -30.2270  -12.3920   19.1040 C   0  0  0  0  0  2  0  0  0  0  0  0
  -29.2560  -12.6650   17.9410 C   0  0  0  0  0  2  0  0  0  0  0  0
  -27.7970  -12.4920   18.3990 C   0  0  0  0  0  2  0  0  0  0  0  0
  -27.4970  -13.2860   19.6970 C   0  0  0  0  0  3  0  0  0  0  0  0
  -28.5710  -13.0110   20.7750 C   0  0  0  0  0  2  0  0  0  0  0  0
  -29.8990  -13.3050   20.2080 N   0  0  0  0  0  0  0  0  0  0  0  0
  -31.6380  -14.7270   19.7890 O   0  0  0  0  0  0  0  0  0  0  0  0
  -30.2830  -15.1190   21.5350 N   0  0  0  0  0  0  0  0  0  0  0  0
  -29.4900  -14.7720   22.0550 H   0  0  0  0  0  0  0  0  0  0  0  0
  -25.1000  -13.8700   20.4370 C   0  0  0  0  0  0  0  0  0  0  0  0
  -24.0470  -13.0850   20.8250 C   0  0  0  0  0  0  0  0  0  0  0  0
  -24.5240  -11.7390   20.7900 C   0  0  0  0  0  0  0  0  0  0  0  0
  -26.1520  -13.0010   20.1940 N   0  0  0  0  0  0  0  0  0  0  0  0
  -25.8090  -11.7140   20.4610 N   0  0  0  0  0  0  0  0  0  0  0  0
  -23.8180  -10.4680   20.9940 C   0  0  0  0  0  0  0  0  0  0  0  0
  -24.2820   -9.5060   21.9190 C   0  0  0  0  0  3  0  0  0  0  0  0
  -23.5740   -8.3000   22.1130 C   0  0  0  0  0  3  0  0  0  0  0  0
  -22.3880   -8.0490   21.3830 C   0  0  0  0  0  0  0  0  0  0  0  0
  -21.9420   -9.0000   20.4480 C   0  0  0  0  0  3  0  0  0  0  0  0
  -22.6510  -10.1970   20.2520 C   0  0  0  0  0  3  0  0  0  0  0  0
  -21.6490   -6.8940   21.4850 O   0  0  0  0  0  0  0  0  0  0  0  0
  -21.6430   -6.1430   22.6330 C   0  0  0  0  0  0  0  0  0  0  0  0
  -21.2680   -6.6900   23.8790 C   0  0  0  0  0  3  0  0  0  0  0  0
  -21.2060   -5.8650   25.0200 C   0  0  0  0  0  3  0  0  0  0  0  0
  -21.5120   -4.4940   24.9150 C   0  0  0  0  0  0  0  0  0  0  0  0
  -21.8860   -3.9490   23.6740 C   0  0  0  0  0  3  0  0  0  0  0  0
  -21.9470   -4.7700   22.5360 C   0  0  0  0  0  0  0  0  0  0  0  0
  -22.2840   -4.2330   21.3370 F   0  0  0  0  0  0  0  0  0  0  0  0
  -21.4480   -3.7000   26.0090 F   0  0  0  0  0  0  0  0  0  0  0  0
  -22.6490  -13.5450   21.1230 C   0  0  0  0  0  0  0  0  0  0  0  0
  -21.9470  -12.8440   22.0070 N   0  0  0  0  0  0  0  0  0  0  0  0
  -22.1870  -14.5620   20.6050 O   0  0  0  0  0  0  0  0  0  0  0  0
  -22.3330  -12.0210   22.4450 H   0  0  0  0  0  0  0  0  0  0  0  0
  -21.0090  -13.1340   22.2480 H   0  0  0  0  0  0  0  0  0  0  0  0
  -25.2490  -15.2420   20.2490 N   0  0  0  0  0  0  0  0  0  0  0  0
  -24.4840  -15.8980   20.3610 H   0  0  0  0  0  0  0  0  0  0  0  0
  -26.0950  -15.6790   19.9060 H   0  0  0  0  0  0  0  0  0  0  0  0
  -32.7070  -25.7520   19.3490 C   0  0  0  0  0  2  0  0  0  0  0  0
  -31.3730  -26.4930   19.5500 C   0  0  0  0  0  2  0  0  0  0  0  0
  -30.6300  -26.1160   20.8440 C   0  0  0  0  0  2  0  0  0  0  0  0
  -29.4140  -27.0120   21.0810 C   0  0  0  0  0  2  0  0  0  0  0  0
  -28.4130  -26.7310   20.1050 O   0  0  0  0  0  0  0  0  0  0  0  0
  -24.6080  -31.8910   23.2240 C   0  0  0  0  0  0  0  0  0  0  0  0
  -27.2610  -27.4840   20.1540 C   0  0  0  0  0  0  0  0  0  0  0  0
  -23.3860  -30.4800   21.5900 C   0  0  0  0  0  3  0  0  0  0  0  0
  -24.8350  -28.9410   20.1610 C   0  0  0  0  0  0  0  0  0  0  0  0
  -25.8970  -30.8630   21.3600 C   0  0  0  0  0  2  0  0  0  0  0  0
  -25.9850  -29.4880   20.7420 C   0  0  0  0  0  0  0  0  0  0  0  0
  -27.1920  -28.7680   20.7470 C   0  0  0  0  0  3  0  0  0  0  0  0
  -26.0970  -26.9470   19.5640 C   0  0  0  0  0  3  0  0  0  0  0  0
  -24.8820  -27.6630   19.5720 C   0  0  0  0  0  3  0  0  0  0  0  0
  -23.5830  -29.7860   20.2110 C   0  0  0  0  0  2  0  0  0  0  0  0
  -24.6490  -31.0930   22.1190 N   0  0  0  0  0  0  0  0  0  0  0  0
  -23.5330  -32.1640   23.7740 O   0  0  0  0  0  0  0  0  0  0  0  0
  -22.7480  -29.4620   22.5610 C   0  0  0  0  0  0  0  0  0  0  0  0
  -21.4220  -29.2830   22.4460 N   0  0  0  0  0  0  0  0  0  0  0  0
  -23.4410  -28.8380   23.3690 O   0  0  0  0  0  0  0  0  0  0  0  0
  -20.9280  -29.8400   21.7640 H   0  0  0  0  0  0  0  0  0  0  0  0
  -18.0520  -28.1000   22.9650 C   0  0  0  0  0  0  0  0  0  0  0  0
  -20.6110  -28.3480   23.2240 C   0  0  0  0  0  3  0  0  0  0  0  0
  -20.7050  -26.9170   22.6470 C   0  0  0  0  0  2  0  0  0  0  0  0
  -19.5960  -26.5970   21.6390 C   0  0  0  0  0  2  0  0  0  0  0  0
  -18.2200  -26.7480   22.2930 C   0  0  0  0  0  2  0  0  0  0  0  0
  -19.1760  -28.8590   23.3870 C   0  0  0  0  0  0  0  0  0  0  0  0
  -18.9650  -30.1270   23.9730 C   0  0  0  0  0  3  0  0  0  0  0  0
  -17.6630  -30.6330   24.1430 C   0  0  0  0  0  3  0  0  0  0  0  0
  -16.5540  -29.8710   23.7390 C   0  0  0  0  0  3  0  0  0  0  0  0
  -16.7490  -28.6050   23.1550 C   0  0  0  0  0  3  0  0  0  0  0  0
  -25.9020  -32.5210   23.8310 C   0  0  0  0  0  3  0  0  0  0  0  0
  -26.4440  -31.7400   25.0910 C   0  0  1  0  0  0  0  0  0  0  0  0
  -25.3720  -31.4890   26.1760 C   0  0  0  0  0  1  0  0  0  0  0  0
  -27.0240  -30.3690   24.6730 C   0  0  0  0  0  1  0  0  0  0  0  0
  -27.6090  -32.5280   25.7380 C   0  0  0  0  0  1  0  0  0  0  0  0
  -25.5970  -33.9170   24.1720 N   0  0  0  0  0  0  0  0  0  0  0  0
  -25.9270  -34.9710   23.4130 C   0  0  0  0  0  0  0  0  0  0  0  0
  -26.5910  -34.8720   22.3780 O   0  0  0  0  0  0  0  0  0  0  0  0
  -25.0050  -34.0670   24.9740 H   0  0  0  0  0  0  0  0  0  0  0  0
  -24.1960  -36.7650   23.0730 C   0  0  0  0  0  1  0  0  0  0  0  0
  -25.4390  -36.3580   23.8790 C   0  0  0  0  0  3  0  0  0  0  0  0
  -27.5780  -37.2330   24.7060 C   0  0  0  0  0  1  0  0  0  0  0  0
  -26.4720  -37.4120   23.7680 N   0  0  0  0  0  0  0  0  0  0  0  0
  -26.0660  -38.3310   23.9240 H   0  0  0  0  0  0  0  0  0  0  0  0
  1 51  1  0
  1  4  1  0
  2  1  1  0
  3  1  1  0
  5  4  1  0
  5  6  1  0
  7  9  2  0
  8  6  1  0
  8  7  1  0
 10  8  1  0
 11  7  1  0
 11 12  1  0
 13 21  1  0
 14 19  1  0
 15 16  1  0
 15 14  1  0
 17 16  1  0
 17 26  1  0
 17 18  1  0
 19 13  1  0
 19 18  1  0
 20 13  2  0
 21 22  1  0
 21 12  1  0
 23 24  2  0
 24 43  1  0
 25 24  1  0
 25 28  1  0
 26 23  1  0
 26 27  1  0
 27 25  2  0
 28 29  1  0
 29 30  2  0
 31 34  1  0
 31 30  1  0
 32 31  2  0
 33 32  1  0
 33 28  2  0
 34 35  1  0
 35 36  1  0
 36 37  2  0
 38 37  1  0
 38 42  1  0
 39 38  2  0
 40 35  2  0
 40 39  1  0
 41 40  1  0
 43 44  1  0
 44 47  1  0
 44 46  1  0
 45 43  2  0
 48 49  1  0
 48 23  1  0
 50 48  1  0
 51 52  1  0
 52 53  1  0
 53 54  1  0
 55 57  1  0
 55 54  1  0
 56 67  2  0
 57 62  1  0
 58 66  1  0
 58 68  1  0
 59 65  1  0
 59 61  1  0
 60 66  1  0
 61 62  2  0
 61 60  1  0
 63 64  1  0
 63 57  2  0
 64 59  2  0
 65 58  1  0
 66 56  1  0
 68 70  2  0
 69 68  1  0
 71 69  1  0
 72 81  2  0
 72 77  1  0
 73 69  1  0
 73 77  1  0
 74 73  1  0
 75 76  1  0
 75 74  1  0
 76 72  1  0
 77 78  2  0
 78 79  1  0
 80 79  2  0
 81 80  1  0
 82 56  1  0
 82 87  1  0
 82 83  1  0
 83 86  1  1
 83 84  1  0
 85 83  1  0
 87 90  1  0
 88 92  1  0
 88 87  1  0
 89 88  2  0
 92 91  1  0
 94 92  1  0
 94 95  1  0
 94 93  1  0
M  ISO  4  13 100  21 100  54 101  55 101
M  END
>  <TORSDO>  (31) 
F 26

>  <SCORE>  (31) 
-11.595

>  <name>  (31) 
33

>  <ligand_id>  (31) 
33

>  <original_smiles>  (31) 
[H]c1c([H])c([H])c2c(c1[H])C([H])([H])C([H])([H])C([H])([H])C2([H])N([H])C(=O)C1([H])N(C(=O)C([H])(N([H])C(=O)C([H])(N([H])C([H])([H])[H])C([H])([H])[H])C(C([H])([H])[H])(C([H])([H])[H])C([H])([H])[H])C([H])([H])c2c([H])c(OC([H])([H])C([H])([H])C([H])([H])C([H])([H])[N+]([H])([H])C([H])([H])C([H])([H])C([H])([H])N([H])C(=O)C([H])([H])C([H])([H])N([H])C(=O)N3C([H])([H])C([H])([H])C([H])([H])C([H])(n4nc(-c5c([H])c([H])c(Oc6c([H])c([H])c(F)c([H])c6F)c([H])c5[H])c(C(=O)N([H])[H])c4N([H])[H])C3([H])[H])c([H])c([H])c2C1([H])[H]

>  <smiles>  (31) 
[H]c1c([H])c([H])c2c(c1[H])C([H])([H])C([H])([H])C([H])([H])C2([H])N([H])C(=O)C1([H])N(C(=O)C([H])(N([H])C(=O)C([H])(N([H])C([H])([H])[H])C([H])([H])[H])C(C([H])([H])[H])(C([H])([H])[H])C([H])([H])[H])C([H])([H])c2c([H])c(OC([H])([H])C([H])([H])C([H])([H])C([H])([H])[N+]([H])([H])C([H])([H])C([H])([H])C([H])([H])N([H])C(=O)C([H])([H])C([H])([H])N([H])C(=O)N3C([H])([H])C([H])([H])C([H])([H])C([H])(n4nc(-c5c([H])c([H])c(Oc6c([H])c([H])c(F)c([H])c6F)c([H])c5[H])c(C(=O)N([H])[H])c4N([H])[H])C3([H])[H])c([H])c([H])c2C1([H])[H]

$$$$
35:0:0
     RDKit          3D

 92 99  0  0  1  0  0  0  0  0999 V2000
  -30.5720  -21.4150   19.9940 N   0  0  0  0  0  0  0  0  0  0  0  0
  -31.5730  -21.5890   20.0650 H   0  0  0  0  0  0  0  0  0  0  0  0
  -30.2120  -20.3310   20.9040 C   0  0  0  0  0  2  0  0  0  0  0  0
  -31.1430  -19.1260   20.6650 C   0  0  0  0  0  2  0  0  0  0  0  0
  -30.7080  -17.9190   21.3970 N   0  0  0  0  0  4  0  0  0  0  0  0
  -30.4060  -18.1890   22.3190 H   0  0  0  0  0  0  0  0  0  0  0  0
  -29.9230  -17.5100   20.9170 H   0  0  0  0  0  0  0  0  0  0  0  0
  -31.7780  -16.9100   21.5350 C   0  0  0  0  0  2  0  0  0  0  0  0
  -31.2990  -15.6060   22.2070 C   0  0  0  0  0  2  0  0  0  0  0  0
  -30.5140  -14.2580   20.2660 C   0  0  0  0  0  0  0  0  0  0  0  0
  -30.0270  -12.2730   18.8870 C   0  0  0  0  0  2  0  0  0  0  0  0
  -29.0030  -12.5350   17.7710 C   0  0  0  0  0  2  0  0  0  0  0  0
  -27.5690  -12.3540   18.3000 C   0  0  0  0  0  2  0  0  0  0  0  0
  -27.3190  -13.1370   19.6140 C   0  0  0  0  0  3  0  0  0  0  0  0
  -28.4410  -12.8700   20.6410 C   0  0  0  0  0  2  0  0  0  0  0  0
  -29.7390  -13.1740   20.0130 N   0  0  0  0  0  0  0  0  0  0  0  0
  -31.4430  -14.6140   19.5370 O   0  0  0  0  0  0  0  0  0  0  0  0
  -30.2990  -14.8420   21.4530 N   0  0  0  0  0  0  0  0  0  0  0  0
  -29.5200  -14.4740   21.9810 H   0  0  0  0  0  0  0  0  0  0  0  0
  -24.9450  -13.6950   20.4400 C   0  0  0  0  0  0  0  0  0  0  0  0
  -23.9180  -12.9010   20.8770 C   0  0  0  0  0  0  0  0  0  0  0  0
  -24.4140  -11.5620   20.8420 C   0  0  0  0  0  0  0  0  0  0  0  0
  -26.0000  -12.8380   20.1670 N   0  0  0  0  0  0  0  0  0  0  0  0
  -25.6850  -11.5510   20.4650 N   0  0  0  0  0  0  0  0  0  0  0  0
  -23.7340  -10.2840   21.0900 C   0  0  0  0  0  0  0  0  0  0  0  0
  -24.2250   -9.3570   22.0360 C   0  0  0  0  0  3  0  0  0  0  0  0
  -23.5440   -8.1440   22.2700 C   0  0  0  0  0  3  0  0  0  0  0  0
  -22.3580   -7.8470   21.5570 C   0  0  0  0  0  0  0  0  0  0  0  0
  -21.8850   -8.7620   20.6010 C   0  0  0  0  0  3  0  0  0  0  0  0
  -22.5680   -9.9680   20.3650 C   0  0  0  0  0  3  0  0  0  0  0  0
  -21.6450   -6.6810   21.6990 O   0  0  0  0  0  0  0  0  0  0  0  0
  -21.6430   -5.9770   22.8760 C   0  0  0  0  0  0  0  0  0  0  0  0
  -21.2250   -6.5600   24.0930 C   0  0  0  0  0  3  0  0  0  0  0  0
  -21.1730   -5.7800   25.2660 C   0  0  0  0  0  3  0  0  0  0  0  0
  -21.5300   -4.4180   25.2230 C   0  0  0  0  0  0  0  0  0  0  0  0
  -21.9400   -3.8350   24.0120 C   0  0  0  0  0  3  0  0  0  0  0  0
  -21.9940   -4.6120   22.8410 C   0  0  0  0  0  0  0  0  0  0  0  0
  -22.3700   -4.0400   21.6720 F   0  0  0  0  0  0  0  0  0  0  0  0
  -21.4720   -3.6670   26.3470 F   0  0  0  0  0  0  0  0  0  0  0  0
  -22.5250  -13.3460   21.2180 C   0  0  0  0  0  0  0  0  0  0  0  0
  -21.8660  -12.6490   22.1370 N   0  0  0  0  0  0  0  0  0  0  0  0
  -22.0300  -14.3470   20.7020 O   0  0  0  0  0  0  0  0  0  0  0  0
  -22.2800  -11.8390   22.5750 H   0  0  0  0  0  0  0  0  0  0  0  0
  -20.9350  -12.9310   22.4070 H   0  0  0  0  0  0  0  0  0  0  0  0
  -25.0620  -15.0670   20.2330 N   0  0  0  0  0  0  0  0  0  0  0  0
  -24.2860  -15.7050   20.3730 H   0  0  0  0  0  0  0  0  0  0  0  0
  -25.8870  -15.5220   19.8600 H   0  0  0  0  0  0  0  0  0  0  0  0
  -29.8740  -22.6450   20.3390 C   0  0  0  0  0  2  0  0  0  0  0  0
  -30.2790  -23.7370   19.3360 C   0  0  0  0  0  2  0  0  0  0  0  0
  -29.9390  -25.1590   19.8070 C   0  0  0  0  0  2  0  0  0  0  0  0
  -28.4520  -25.5330   19.7380 C   0  0  0  0  0  2  0  0  0  0  0  0
  -28.3610  -26.8640   20.2320 O   0  0  0  0  0  0  0  0  0  0  0  0
  -24.5050  -31.9790   23.2660 C   0  0  0  0  0  0  0  0  0  0  0  0
  -27.1470  -27.5130   20.2300 C   0  0  0  0  0  0  0  0  0  0  0  0
  -23.2910  -30.5520   21.6490 C   0  0  0  0  0  3  0  0  0  0  0  0
  -24.7380  -28.9920   20.2460 C   0  0  0  0  0  0  0  0  0  0  0  0
  -25.8130  -30.9130   21.4350 C   0  0  0  0  0  2  0  0  0  0  0  0
  -25.8950  -29.5330   20.8160 C   0  0  0  0  0  0  0  0  0  0  0  0
  -27.0990  -28.8000   20.8080 C   0  0  0  0  0  3  0  0  0  0  0  0
  -25.9670  -26.9690   19.6710 C   0  0  0  0  0  3  0  0  0  0  0  0
  -24.7670  -27.7060   19.6750 C   0  0  0  0  0  3  0  0  0  0  0  0
  -23.4940  -29.8490   20.2800 C   0  0  0  0  0  2  0  0  0  0  0  0
  -24.5550  -31.1630   22.1750 N   0  0  0  0  0  0  0  0  0  0  0  0
  -23.4270  -32.2580   23.8070 O   0  0  0  0  0  0  0  0  0  0  0  0
  -22.6470  -29.5440   22.6270 C   0  0  0  0  0  0  0  0  0  0  0  0
  -21.3240  -29.3520   22.4990 N   0  0  0  0  0  0  0  0  0  0  0  0
  -23.3320  -28.9380   23.4550 O   0  0  0  0  0  0  0  0  0  0  0  0
  -20.8320  -29.8920   21.8010 H   0  0  0  0  0  0  0  0  0  0  0  0
  -17.9560  -28.1460   23.0000 C   0  0  0  0  0  0  0  0  0  0  0  0
  -20.5100  -28.4250   23.2830 C   0  0  0  0  0  3  0  0  0  0  0  0
  -20.6250  -26.9830   22.7370 C   0  0  0  0  0  2  0  0  0  0  0  0
  -19.5320  -26.6320   21.7220 C   0  0  0  0  0  2  0  0  0  0  0  0
  -18.1450  -26.7830   22.3540 C   0  0  0  0  0  2  0  0  0  0  0  0
  -19.0670  -28.9220   23.4210 C   0  0  0  0  0  0  0  0  0  0  0  0
  -18.8380  -30.1980   23.9820 C   0  0  0  0  0  3  0  0  0  0  0  0
  -17.5290  -30.6960   24.1270 C   0  0  0  0  0  3  0  0  0  0  0  0
  -16.4320  -29.9150   23.7230 C   0  0  0  0  0  3  0  0  0  0  0  0
  -16.6470  -28.6410   23.1650 C   0  0  0  0  0  3  0  0  0  0  0  0
  -25.7940  -32.6170   23.8710 C   0  0  0  0  0  3  0  0  0  0  0  0
  -26.3260  -31.8590   25.1490 C   0  0  1  0  0  0  0  0  0  0  0  0
  -25.2410  -31.6210   26.2260 C   0  0  0  0  0  1  0  0  0  0  0  0
  -26.9160  -30.4830   24.7620 C   0  0  0  0  0  1  0  0  0  0  0  0
  -27.4750  -32.6650   25.7980 C   0  0  0  0  0  1  0  0  0  0  0  0
  -25.4880  -34.0180   24.1870 N   0  0  0  0  0  0  0  0  0  0  0  0
  -25.8210  -35.0610   23.4150 C   0  0  0  0  0  0  0  0  0  0  0  0
  -26.4910  -34.9460   22.3850 O   0  0  0  0  0  0  0  0  0  0  0  0
  -24.8940  -34.1820   24.9860 H   0  0  0  0  0  0  0  0  0  0  0  0
  -24.0950  -36.8500   23.0330 C   0  0  0  0  0  1  0  0  0  0  0  0
  -25.3320  -36.4540   23.8550 C   0  0  0  0  0  3  0  0  0  0  0  0
  -27.4640  -37.3440   24.6870 C   0  0  0  0  0  1  0  0  0  0  0  0
  -26.3660  -37.5050   23.7370 N   0  0  0  0  0  0  0  0  0  0  0  0
  -25.9610  -38.4270   23.8760 H   0  0  0  0  0  0  0  0  0  0  0  0
  1  2  1  0
  1 48  1  0
  1  3  1  0
  4  3  1  0
  4  5  1  0
  5  8  1  0
  5  6  1  0
  7  5  1  0
  8  9  1  0
 10 18  1  0
 11 16  1  0
 12 13  1  0
 12 11  1  0
 14 13  1  0
 14 23  1  0
 14 15  1  0
 16 10  1  0
 16 15  1  0
 17 10  2  0
 18 19  1  0
 18  9  1  0
 20 21  2  0
 21 40  1  0
 22 21  1  0
 22 25  1  0
 23 20  1  0
 23 24  1  0
 24 22  2  0
 25 26  1  0
 26 27  2  0
 28 31  1  0
 28 27  1  0
 29 28  2  0
 30 29  1  0
 30 25  2  0
 31 32  1  0
 32 33  1  0
 33 34  2  0
 35 34  1  0
 35 39  1  0
 36 35  2  0
 37 32  2  0
 37 36  1  0
 38 37  1  0
 40 41  1  0
 41 44  1  0
 41 43  1  0
 42 40  2  0
 45 46  1  0
 45 20  1  0
 47 45  1  0
 49 50  1  0
 49 48  1  0
 51 50  1  0
 51 52  1  0
 53 64  2  0
 54 52  1  0
 54 59  1  0
 55 63  1  0
 55 65  1  0
 56 62  1  0
 56 58  1  0
 57 63  1  0
 58 57  1  0
 59 58  2  0
 60 61  1  0
 60 54  2  0
 61 56  2  0
 62 55  1  0
 63 53  1  0
 65 67  2  0
 66 65  1  0
 68 66  1  0
 69 78  2  0
 69 74  1  0
 70 66  1  0
 70 74  1  0
 71 70  1  0
 72 73  1  0
 72 71  1  0
 73 69  1  0
 74 75  2  0
 75 76  1  0
 77 76  2  0
 78 77  1  0
 79 53  1  0
 79 84  1  0
 79 80  1  0
 80 83  1  1
 80 81  1  0
 82 80  1  0
 84 87  1  0
 85 89  1  0
 85 84  1  0
 86 85  2  0
 89 88  1  0
 91 89  1  0
 91 92  1  0
 91 90  1  0
M  ISO  4  10 100  18 100  51 101  52 101
M  END
>  <TORSDO>  (32) 
F 25

>  <SCORE>  (32) 
-10.900

>  <name>  (32) 
35

>  <ligand_id>  (32) 
35

>  <original_smiles>  (32) 
[H]c1c([H])c([H])c2c(c1[H])C([H])([H])C([H])([H])C([H])([H])C2([H])N([H])C(=O)C1([H])N(C(=O)C([H])(N([H])C(=O)C([H])(N([H])C([H])([H])[H])C([H])([H])[H])C(C([H])([H])[H])(C([H])([H])[H])C([H])([H])[H])C([H])([H])c2c([H])c(OC([H])([H])C([H])([H])C([H])([H])C([H])([H])N([H])C([H])([H])C([H])([H])[N+]([H])([H])C([H])([H])C([H])([H])N([H])C(=O)N3C([H])([H])C([H])([H])C([H])([H])C([H])(n4nc(-c5c([H])c([H])c(Oc6c([H])c([H])c(F)c([H])c6F)c([H])c5[H])c(C(=O)N([H])[H])c4N([H])[H])C3([H])[H])c([H])c([H])c2C1([H])[H]

>  <smiles>  (32) 
[H]c1c([H])c([H])c2c(c1[H])C([H])([H])C([H])([H])C([H])([H])C2([H])N([H])C(=O)C1([H])N(C(=O)C([H])(N([H])C(=O)C([H])(N([H])C([H])([H])[H])C([H])([H])[H])C(C([H])([H])[H])(C([H])([H])[H])C([H])([H])[H])C([H])([H])c2c([H])c(OC([H])([H])C([H])([H])C([H])([H])C([H])([H])N([H])C([H])([H])C([H])([H])[N+]([H])([H])C([H])([H])C([H])([H])N([H])C(=O)N3C([H])([H])C([H])([H])C([H])([H])C([H])(n4nc(-c5c([H])c([H])c(Oc6c([H])c([H])c(F)c([H])c6F)c([H])c5[H])c(C(=O)N([H])[H])c4N([H])[H])C3([H])[H])c([H])c([H])c2C1([H])[H]

$$$$
36:0:0
     RDKit          3D

 96103  0  0  1  0  0  0  0  0999 V2000
  -28.1000  -22.9110   23.3080 C   0  0  0  0  0  2  0  0  0  0  0  0
  -28.8070  -21.0310   21.7540 C   0  0  0  0  0  3  0  0  0  0  0  0
  -28.1660  -22.1960   21.9680 C   0  0  0  0  0  3  0  0  0  0  0  0
  -28.8570  -20.4400   20.4280 C   0  0  0  0  0  0  0  0  0  0  0  0
  -29.3050  -19.1780   20.4610 N   0  0  0  0  0  0  0  0  0  0  0  0
  -28.5710  -21.0170   19.3780 O   0  0  0  0  0  0  0  0  0  0  0  0
  -29.4950  -18.7780   21.3690 H   0  0  0  0  0  0  0  0  0  0  0  0
  -29.6060  -18.3600   19.2880 C   0  0  0  0  0  2  0  0  0  0  0  0
  -31.0120  -17.7370   19.3800 C   0  0  0  0  0  2  0  0  0  0  0  0
  -31.3150  -16.9780   20.6880 C   0  0  0  0  0  2  0  0  0  0  0  0
  -31.3360  -14.5800   19.9910 C   0  0  0  0  0  0  0  0  0  0  0  0
  -31.0440  -12.2310   19.3020 C   0  0  0  0  0  2  0  0  0  0  0  0
  -30.0920  -12.1290   18.0950 C   0  0  0  0  0  2  0  0  0  0  0  0
  -28.6240  -12.0640   18.5580 C   0  0  0  0  0  2  0  0  0  0  0  0
  -28.2750  -13.1770   19.5820 C   0  0  0  0  0  3  0  0  0  0  0  0
  -29.3290  -13.2320   20.7080 C   0  0  0  0  0  2  0  0  0  0  0  0
  -30.6590  -13.4090   20.0940 N   0  0  0  0  0  0  0  0  0  0  0  0
  -32.3610  -14.7170   19.3140 O   0  0  0  0  0  0  0  0  0  0  0  0
  -30.8090  -15.6050   20.6740 N   0  0  0  0  0  0  0  0  0  0  0  0
  -29.9960  -15.4020   21.2370 H   0  0  0  0  0  0  0  0  0  0  0  0
  -25.9890  -13.9650   20.4700 C   0  0  0  0  0  0  0  0  0  0  0  0
  -24.8680  -13.2750   20.8460 C   0  0  0  0  0  0  0  0  0  0  0  0
  -25.1850  -11.8920   20.6880 C   0  0  0  0  0  0  0  0  0  0  0  0
  -26.9250  -13.0050   20.1150 N   0  0  0  0  0  0  0  0  0  0  0  0
  -26.4450  -11.7490   20.2980 N   0  0  0  0  0  0  0  0  0  0  0  0
  -24.3440  -10.6960   20.8300 C   0  0  0  0  0  0  0  0  0  0  0  0
  -24.7270   -9.6170   21.6580 C   0  0  0  0  0  3  0  0  0  0  0  0
  -23.8930   -8.4860   21.7910 C   0  0  0  0  0  3  0  0  0  0  0  0
  -22.6620   -8.4270   21.0960 C   0  0  0  0  0  0  0  0  0  0  0  0
  -22.2960   -9.4940   20.2560 C   0  0  0  0  0  3  0  0  0  0  0  0
  -23.1290  -10.6160   20.1200 C   0  0  0  0  0  3  0  0  0  0  0  0
  -21.7990   -7.3580   21.1450 O   0  0  0  0  0  0  0  0  0  0  0  0
  -21.6280   -6.6240   22.2910 C   0  0  0  0  0  0  0  0  0  0  0  0
  -21.2490   -7.2240   23.5120 C   0  0  0  0  0  3  0  0  0  0  0  0
  -21.0160   -6.4230   24.6470 C   0  0  0  0  0  3  0  0  0  0  0  0
  -21.1510   -5.0250   24.5640 C   0  0  0  0  0  0  0  0  0  0  0  0
  -21.5240   -4.4250   23.3480 C   0  0  0  0  0  3  0  0  0  0  0  0
  -21.7580   -5.2230   22.2140 C   0  0  0  0  0  0  0  0  0  0  0  0
  -22.0950   -4.6370   21.0400 F   0  0  0  0  0  0  0  0  0  0  0  0
  -20.9210   -4.2540   25.6530 F   0  0  0  0  0  0  0  0  0  0  0  0
  -23.5450  -13.8650   21.2400 C   0  0  0  0  0  0  0  0  0  0  0  0
  -22.7890  -13.1690   22.0830 N   0  0  0  0  0  0  0  0  0  0  0  0
  -23.1930  -14.9740   20.8390 O   0  0  0  0  0  0  0  0  0  0  0  0
  -23.0860  -12.2680   22.4280 H   0  0  0  0  0  0  0  0  0  0  0  0
  -21.9010  -13.5410   22.3860 H   0  0  0  0  0  0  0  0  0  0  0  0
  -26.2850  -15.3220   20.3810 N   0  0  0  0  0  0  0  0  0  0  0  0
  -25.5960  -16.0400   20.5740 H   0  0  0  0  0  0  0  0  0  0  0  0
  -27.1590  -15.6940   20.0330 H   0  0  0  0  0  0  0  0  0  0  0  0
  -28.9850  -24.1710   23.3400 C   0  0  0  0  0  2  0  0  0  0  0  0
  -30.3880  -23.8730   22.9690 N   0  0  0  0  0  4  0  0  0  0  0  0
  -30.4310  -22.9570   22.5540 H   0  0  0  0  0  0  0  0  0  0  0  0
  -30.9360  -23.8400   23.8150 H   0  0  0  0  0  0  0  0  0  0  0  0
  -31.0260  -24.8340   22.0410 C   0  0  0  0  0  2  0  0  0  0  0  0
  -30.3700  -24.8340   20.6460 C   0  0  0  0  0  2  0  0  0  0  0  0
  -31.1960  -25.5780   19.5860 C   0  0  0  0  0  2  0  0  0  0  0  0
  -30.3260  -26.0260   18.5500 O   0  0  0  0  0  0  0  0  0  0  0  0
  -26.5060  -29.1700   23.7000 C   0  0  0  0  0  0  0  0  0  0  0  0
  -29.2030  -26.7180   18.9370 C   0  0  0  0  0  0  0  0  0  0  0  0
  -25.3770  -28.9060   21.5130 C   0  0  0  0  0  3  0  0  0  0  0  0
  -26.8720  -28.1700   19.5830 C   0  0  0  0  0  0  0  0  0  0  0  0
  -27.9170  -29.1110   21.6490 C   0  0  0  0  0  2  0  0  0  0  0  0
  -27.9930  -28.2370   20.4180 C   0  0  0  0  0  0  0  0  0  0  0  0
  -29.1600  -27.5130   20.1040 C   0  0  0  0  0  3  0  0  0  0  0  0
  -28.0710  -26.6620   18.1010 C   0  0  0  0  0  3  0  0  0  0  0  0
  -26.9000  -27.3740   18.4240 C   0  0  0  0  0  3  0  0  0  0  0  0
  -25.6730  -28.9930   19.9900 C   0  0  0  0  0  2  0  0  0  0  0  0
  -26.6140  -29.0400   22.3480 N   0  0  0  0  0  0  0  0  0  0  0  0
  -25.3970  -29.2240   24.2510 O   0  0  0  0  0  0  0  0  0  0  0  0
  -24.5950  -27.6020   21.7840 C   0  0  0  0  0  0  0  0  0  0  0  0
  -23.2850  -27.6190   21.4870 N   0  0  0  0  0  0  0  0  0  0  0  0
  -25.1670  -26.6000   22.2220 O   0  0  0  0  0  0  0  0  0  0  0  0
  -22.8900  -28.4840   21.1450 H   0  0  0  0  0  0  0  0  0  0  0  0
  -19.8400  -26.6280   21.0560 C   0  0  0  0  0  0  0  0  0  0  0  0
  -22.3580  -26.4960   21.6210 C   0  0  0  0  0  3  0  0  0  0  0  0
  -22.4750  -25.5320   20.4170 C   0  0  0  0  0  2  0  0  0  0  0  0
  -21.4810  -25.8460   19.2950 C   0  0  0  0  0  2  0  0  0  0  0  0
  -20.0430  -25.7730   19.8150 C   0  0  0  0  0  2  0  0  0  0  0  0
  -20.9300  -26.9780   21.8970 C   0  0  0  0  0  0  0  0  0  0  0  0
  -20.6940  -27.8020   23.0180 C   0  0  0  0  0  3  0  0  0  0  0  0
  -19.3980  -28.2710   23.3070 C   0  0  0  0  0  3  0  0  0  0  0  0
  -18.3200  -27.9080   22.4810 C   0  0  0  0  0  3  0  0  0  0  0  0
  -18.5410  -27.0850   21.3610 C   0  0  0  0  0  3  0  0  0  0  0  0
  -27.7650  -29.2810   24.6170 C   0  0  0  0  0  3  0  0  0  0  0  0
  -28.0560  -27.9650   25.4360 C   0  0  1  0  0  0  0  0  0  0  0  0
  -26.8120  -27.3940   26.1560 C   0  0  0  0  0  1  0  0  0  0  0  0
  -28.6140  -26.8630   24.5050 C   0  0  0  0  0  1  0  0  0  0  0  0
  -29.1440  -28.2370   26.5030 C   0  0  0  0  0  1  0  0  0  0  0  0
  -27.5560  -30.4210   25.5180 N   0  0  0  0  0  0  0  0  0  0  0  0
  -28.1430  -31.6170   25.3750 C   0  0  0  0  0  0  0  0  0  0  0  0
  -28.9800  -31.8540   24.4990 O   0  0  0  0  0  0  0  0  0  0  0  0
  -26.8420  -30.3190   26.2240 H   0  0  0  0  0  0  0  0  0  0  0  0
  -26.7530  -33.6890   25.6740 C   0  0  0  0  0  1  0  0  0  0  0  0
  -27.7350  -32.7280   26.3610 C   0  0  0  0  0  3  0  0  0  0  0  0
  -29.7500  -32.6940   27.7650 C   0  0  0  0  0  1  0  0  0  0  0  0
  -28.8840  -33.4890   26.8970 N   0  0  0  0  0  0  0  0  0  0  0  0
  -28.5650  -34.2990   27.4240 H   0  0  0  0  0  0  0  0  0  0  0  0
  1 49  1  0
  2  3  2  0
  3  1  1  0
  4  5  1  0
  4  2  1  0
  5  7  1  0
  6  4  2  0
  8  9  1  0
  8  5  1  0
  9 10  1  0
 11 17  1  0
 11 19  1  0
 12 17  1  0
 13 14  1  0
 13 12  1  0
 15 14  1  0
 15 24  1  0
 15 16  1  0
 17 16  1  0
 18 11  2  0
 19 10  1  0
 19 20  1  0
 21 22  2  0
 22 41  1  0
 23 26  1  0
 23 22  1  0
 24 25  1  0
 24 21  1  0
 25 23  2  0
 26 27  1  0
 27 28  2  0
 29 32  1  0
 29 28  1  0
 30 29  2  0
 31 30  1  0
 31 26  2  0
 32 33  1  0
 33 34  1  0
 34 35  2  0
 36 35  1  0
 36 40  1  0
 37 36  2  0
 38 33  2  0
 38 37  1  0
 39 38  1  0
 41 42  1  0
 42 45  1  0
 42 44  1  0
 43 41  2  0
 46 21  1  0
 46 47  1  0
 48 46  1  0
 50 49  1  0
 50 52  1  0
 51 50  1  0
 53 50  1  0
 54 53  1  0
 55 54  1  0
 56 58  1  0
 56 55  1  0
 57 68  2  0
 58 63  1  0
 59 69  1  0
 59 67  1  0
 60 66  1  0
 60 62  1  0
 61 67  1  0
 62 61  1  0
 63 62  2  0
 64 65  1  0
 64 58  2  0
 65 60  2  0
 66 59  1  0
 67 57  1  0
 69 71  2  0
 70 69  1  0
 72 70  1  0
 73 82  2  0
 73 78  1  0
 74 70  1  0
 74 78  1  0
 75 74  1  0
 76 77  1  0
 76 75  1  0
 77 73  1  0
 78 79  2  0
 79 80  1  0
 81 80  2  0
 82 81  1  0
 83 57  1  0
 83 84  1  0
 83 88  1  0
 84 85  1  1
 84 87  1  0
 86 84  1  0
 88 91  1  0
 89 88  1  0
 89 93  1  0
 90 89  2  0
 93 92  1  0
 93 95  1  0
 95 96  1  0
 95 94  1  0
M  ISO  4  11 100  19 100  55 101  56 101
M  END
>  <TORSDO>  (33) 
F 26

>  <SCORE>  (33) 
-6.386

>  <name>  (33) 
36

>  <ligand_id>  (33) 
36

>  <original_smiles>  (33) 
[H]C(C(=O)N([H])C([H])([H])C([H])([H])C([H])([H])N([H])C(=O)N1C([H])([H])C([H])([H])C([H])([H])C([H])(n2nc(-c3c([H])c([H])c(Oc4c([H])c([H])c(F)c([H])c4F)c([H])c3[H])c(C(=O)N([H])[H])c2N([H])[H])C1([H])[H])=C([H])C([H])([H])C([H])([H])[N+]([H])([H])C([H])([H])C([H])([H])C([H])([H])Oc1c([H])c([H])c2c(c1[H])C([H])([H])N(C(=O)C([H])(N([H])C(=O)C([H])(N([H])C([H])([H])[H])C([H])([H])[H])C(C([H])([H])[H])(C([H])([H])[H])C([H])([H])[H])C([H])(C(=O)N([H])C1([H])c3c([H])c([H])c([H])c([H])c3C([H])([H])C([H])([H])C1([H])[H])C2([H])[H]

>  <smiles>  (33) 
[H]C(C(=O)N([H])C([H])([H])C([H])([H])C([H])([H])N([H])C(=O)N1C([H])([H])C([H])([H])C([H])([H])C([H])(n2nc(-c3c([H])c([H])c(Oc4c([H])c([H])c(F)c([H])c4F)c([H])c3[H])c(C(=O)N([H])[H])c2N([H])[H])C1([H])[H])=C([H])C([H])([H])C([H])([H])[N+]([H])([H])C([H])([H])C([H])([H])C([H])([H])Oc1c([H])c([H])c2c(c1[H])C([H])([H])N(C(=O)C([H])(N([H])C(=O)C([H])(N([H])C([H])([H])[H])C([H])([H])[H])C(C([H])([H])[H])(C([H])([H])[H])C([H])([H])[H])C([H])(C(=O)N([H])C1([H])c3c([H])c([H])c([H])c([H])c3C([H])([H])C([H])([H])C1([H])[H])C2([H])[H]

$$$$
37:0:0
     RDKit          3D

 93100  0  0  1  0  0  0  0  0999 V2000
  -31.1340  -23.7730   18.0850 C   0  0  0  0  0  0  0  0  0  0  0  0
  -31.0990  -24.3970   16.7000 C   0  0  0  0  0  1  0  0  0  0  0  0
  -32.1340  -23.0100   18.3710 N   0  0  0  0  0  0  0  0  0  0  0  0
  -29.9310  -24.2280   18.9010 C   0  0  0  0  0  3  0  0  0  0  0  0
  -29.6920  -23.9460   20.1220 N   0  0  0  0  0  0  0  0  0  0  0  0
  -28.4320  -24.3840   20.6960 C   0  0  0  0  0  2  0  0  0  0  0  0
  -28.5110  -25.8310   21.2140 C   0  0  0  0  0  2  0  0  0  0  0  0
  -28.4300  -26.7560   20.1300 O   0  0  0  0  0  0  0  0  0  0  0  0
  -24.6260  -31.8780   23.2280 C   0  0  0  0  0  0  0  0  0  0  0  0
  -27.2640  -27.4750   20.1300 C   0  0  0  0  0  0  0  0  0  0  0  0
  -23.4070  -30.4660   21.5990 C   0  0  0  0  0  3  0  0  0  0  0  0
  -24.8560  -28.9320   20.1640 C   0  0  0  0  0  0  0  0  0  0  0  0
  -25.9240  -30.8470   21.3730 C   0  0  0  0  0  2  0  0  0  0  0  0
  -26.0110  -29.4750   20.7390 C   0  0  0  0  0  0  0  0  0  0  0  0
  -27.2210  -28.7520   20.7240 C   0  0  0  0  0  3  0  0  0  0  0  0
  -26.0990  -26.9320   19.5510 C   0  0  0  0  0  3  0  0  0  0  0  0
  -24.8910  -27.6570   19.5700 C   0  0  0  0  0  3  0  0  0  0  0  0
  -23.6050  -29.7810   20.2190 C   0  0  0  0  0  2  0  0  0  0  0  0
  -24.6710  -31.0780   22.1250 N   0  0  0  0  0  0  0  0  0  0  0  0
  -23.5520  -32.1470   23.7810 O   0  0  0  0  0  0  0  0  0  0  0  0
  -22.7720  -29.4460   22.5710 C   0  0  0  0  0  0  0  0  0  0  0  0
  -21.4490  -29.2560   22.4550 N   0  0  0  0  0  0  0  0  0  0  0  0
  -23.4680  -28.8290   23.3810 O   0  0  0  0  0  0  0  0  0  0  0  0
  -20.9510  -29.8070   21.7690 H   0  0  0  0  0  0  0  0  0  0  0  0
  -18.0870  -28.0390   22.9720 C   0  0  0  0  0  0  0  0  0  0  0  0
  -20.6430  -28.3180   23.2360 C   0  0  0  0  0  3  0  0  0  0  0  0
  -20.7560  -26.8840   22.6690 C   0  0  0  0  0  2  0  0  0  0  0  0
  -19.6530  -26.5450   21.6610 C   0  0  0  0  0  2  0  0  0  0  0  0
  -18.2720  -26.6850   22.3070 C   0  0  0  0  0  2  0  0  0  0  0  0
  -19.2010  -28.8120   23.3930 C   0  0  0  0  0  0  0  0  0  0  0  0
  -18.9760  -30.0800   23.9740 C   0  0  0  0  0  3  0  0  0  0  0  0
  -17.6680  -30.5730   24.1380 C   0  0  0  0  0  3  0  0  0  0  0  0
  -16.5680  -29.7970   23.7340 C   0  0  0  0  0  3  0  0  0  0  0  0
  -16.7780  -28.5320   23.1560 C   0  0  0  0  0  3  0  0  0  0  0  0
  -25.9180  -32.5130   23.8310 C   0  0  0  0  0  3  0  0  0  0  0  0
  -26.4660  -31.7350   25.0900 C   0  0  1  0  0  0  0  0  0  0  0  0
  -25.3950  -31.4820   26.1760 C   0  0  0  0  0  1  0  0  0  0  0  0
  -27.0510  -30.3650   24.6730 C   0  0  0  0  0  1  0  0  0  0  0  0
  -27.6250  -32.5320   25.7350 C   0  0  0  0  0  1  0  0  0  0  0  0
  -25.6060  -33.9050   24.1750 N   0  0  0  0  0  0  0  0  0  0  0  0
  -25.9230  -34.9650   23.4170 C   0  0  0  0  0  0  0  0  0  0  0  0
  -26.5780  -34.8720   22.3760 O   0  0  0  0  0  0  0  0  0  0  0  0
  -25.0230  -34.0520   24.9850 H   0  0  0  0  0  0  0  0  0  0  0  0
  -24.1740  -36.7430   23.0970 C   0  0  0  0  0  1  0  0  0  0  0  0
  -25.4300  -36.3460   23.8880 C   0  0  0  0  0  3  0  0  0  0  0  0
  -27.5720  -37.2400   24.6870 C   0  0  0  0  0  1  0  0  0  0  0  0
  -26.4530  -37.4070   23.7650 N   0  0  0  0  0  0  0  0  0  0  0  0
  -26.0420  -38.3240   23.9270 H   0  0  0  0  0  0  0  0  0  0  0  0
  -32.2570  -22.3590   19.5880 C   0  0  0  0  0  0  0  0  0  0  0  0
  -33.2240  -22.4960   20.3340 O   0  0  0  0  0  0  0  0  0  0  0  0
  -31.2030  -21.2910   19.9300 C   0  0  0  0  0  2  0  0  0  0  0  0
  -31.7260  -19.8460   19.8480 C   0  0  0  0  0  2  0  0  0  0  0  0
  -31.1550  -18.9560   20.9670 C   0  0  0  0  0  2  0  0  0  0  0  0
  -31.0810  -17.4770   20.5760 C   0  0  0  0  0  2  0  0  0  0  0  0
  -30.7270  -16.5650   21.7690 C   0  0  0  0  0  2  0  0  0  0  0  0
  -30.7310  -14.3680   20.5480 C   0  0  0  0  0  0  0  0  0  0  0  0
  -30.3400  -12.2910   19.2840 C   0  0  0  0  0  2  0  0  0  0  0  0
  -29.3930  -12.5510   18.0970 C   0  0  0  0  0  2  0  0  0  0  0  0
  -27.9200  -12.4300   18.5380 C   0  0  0  0  0  2  0  0  0  0  0  0
  -27.6090  -13.2480   19.8210 C   0  0  0  0  0  3  0  0  0  0  0  0
  -28.6640  -12.9630   20.9140 C   0  0  0  0  0  2  0  0  0  0  0  0
  -29.9980  -13.2420   20.3500 N   0  0  0  0  0  0  0  0  0  0  0  0
  -31.8040  -14.5850   19.9790 O   0  0  0  0  0  0  0  0  0  0  0  0
  -30.1830  -15.2640   21.3780 N   0  0  0  0  0  0  0  0  0  0  0  0
  -29.2930  -15.0100   21.7800 H   0  0  0  0  0  0  0  0  0  0  0  0
  -25.2140  -13.8840   20.5320 C   0  0  0  0  0  0  0  0  0  0  0  0
  -24.1400  -13.1220   20.9060 C   0  0  0  0  0  0  0  0  0  0  0  0
  -24.5870  -11.7660   20.8760 C   0  0  0  0  0  0  0  0  0  0  0  0
  -26.2510  -12.9910   20.3000 N   0  0  0  0  0  0  0  0  0  0  0  0
  -25.8750  -11.7130   20.5630 N   0  0  0  0  0  0  0  0  0  0  0  0
  -23.8490  -10.5110   21.0710 C   0  0  0  0  0  0  0  0  0  0  0  0
  -24.2950   -9.5280   21.9840 C   0  0  0  0  0  3  0  0  0  0  0  0
  -23.5600   -8.3370   22.1680 C   0  0  0  0  0  3  0  0  0  0  0  0
  -22.3650   -8.1190   21.4400 C   0  0  0  0  0  0  0  0  0  0  0  0
  -21.9390   -9.0920   20.5170 C   0  0  0  0  0  3  0  0  0  0  0  0
  -22.6740  -10.2730   20.3310 C   0  0  0  0  0  3  0  0  0  0  0  0
  -21.6010   -6.9820   21.5340 O   0  0  0  0  0  0  0  0  0  0  0  0
  -21.5920   -6.2120   22.6700 C   0  0  0  0  0  0  0  0  0  0  0  0
  -21.2520   -6.7490   23.9310 C   0  0  0  0  0  3  0  0  0  0  0  0
  -21.1880   -5.9070   25.0600 C   0  0  0  0  0  3  0  0  0  0  0  0
  -21.4560   -4.5300   24.9270 C   0  0  0  0  0  0  0  0  0  0  0  0
  -21.7900   -3.9950   23.6710 C   0  0  0  0  0  3  0  0  0  0  0  0
  -21.8540   -4.8330   22.5450 C   0  0  0  0  0  0  0  0  0  0  0  0
  -22.1560   -4.3090   21.3320 F   0  0  0  0  0  0  0  0  0  0  0  0
  -21.3870   -3.7190   26.0090 F   0  0  0  0  0  0  0  0  0  0  0  0
  -22.7470  -13.6120   21.1820 C   0  0  0  0  0  0  0  0  0  0  0  0
  -22.0160  -12.9270   22.0540 N   0  0  0  0  0  0  0  0  0  0  0  0
  -22.3140  -14.6370   20.6580 O   0  0  0  0  0  0  0  0  0  0  0  0
  -22.3780  -12.0990   22.5050 H   0  0  0  0  0  0  0  0  0  0  0  0
  -21.0800  -13.2350   22.2760 H   0  0  0  0  0  0  0  0  0  0  0  0
  -25.3910  -15.2530   20.3520 N   0  0  0  0  0  0  0  0  0  0  0  0
  -24.6370  -15.9170   20.4780 H   0  0  0  0  0  0  0  0  0  0  0  0
  -26.2500  -15.6840   20.0330 H   0  0  0  0  0  0  0  0  0  0  0  0
  1  3  2  0
  1  4  1  0
  2  1  1  0
  3 49  1  0
  4  5  2  0
  5  6  1  0
  6  7  1  0
  8  7  1  0
  9 20  2  0
 10  8  1  0
 10 15  1  0
 11 19  1  0
 11 21  1  0
 12 18  1  0
 12 14  1  0
 13 19  1  0
 14 13  1  0
 15 14  2  0
 16 17  1  0
 16 10  2  0
 17 12  2  0
 18 11  1  0
 19  9  1  0
 21 23  2  0
 22 21  1  0
 24 22  1  0
 25 34  2  0
 25 30  1  0
 26 22  1  0
 26 30  1  0
 27 26  1  0
 28 29  1  0
 28 27  1  0
 29 25  1  0
 30 31  2  0
 31 32  1  0
 33 32  2  0
 34 33  1  0
 35  9  1  0
 35 40  1  0
 35 36  1  0
 36 39  1  1
 36 37  1  0
 38 36  1  0
 40 43  1  0
 41 45  1  0
 41 40  1  0
 42 41  2  0
 45 44  1  0
 47 45  1  0
 47 48  1  0
 47 46  1  0
 49 51  1  0
 49 50  2  0
 52 51  1  0
 52 53  1  0
 54 53  1  0
 54 55  1  0
 56 64  1  0
 57 62  1  0
 58 59  1  0
 58 57  1  0
 60 59  1  0
 60 69  1  0
 60 61  1  0
 62 56  1  0
 62 61  1  0
 63 56  2  0
 64 55  1  0
 64 65  1  0
 66 67  2  0
 67 86  1  0
 68 67  1  0
 68 71  1  0
 69 66  1  0
 69 70  1  0
 70 68  2  0
 71 72  1  0
 72 73  2  0
 74 77  1  0
 74 73  1  0
 75 74  2  0
 76 75  1  0
 76 71  2  0
 77 78  1  0
 78 79  1  0
 79 80  2  0
 81 80  1  0
 81 85  1  0
 82 81  2  0
 83 78  2  0
 83 82  1  0
 84 83  1  0
 86 87  1  0
 87 90  1  0
 87 89  1  0
 88 86  2  0
 91 92  1  0
 91 66  1  0
 93 91  1  0
M  ISO  4   7 101   8 101  56 100  64 100
M  END
>  <TORSDO>  (34) 
F 25

>  <SCORE>  (34) 
-12.103

>  <name>  (34) 
37

>  <ligand_id>  (34) 
37

>  <original_smiles>  (34) 
[H]C(=NC([H])([H])C([H])([H])Oc1c([H])c([H])c2c(c1[H])C([H])([H])N(C(=O)C([H])(N([H])C(=O)C([H])(N([H])C([H])([H])[H])C([H])([H])[H])C(C([H])([H])[H])(C([H])([H])[H])C([H])([H])[H])C([H])(C(=O)N([H])C1([H])c3c([H])c([H])c([H])c([H])c3C([H])([H])C([H])([H])C1([H])[H])C2([H])[H])C(=NC(=O)C([H])([H])C([H])([H])C([H])([H])C([H])([H])C([H])([H])N([H])C(=O)N1C([H])([H])C([H])([H])C([H])([H])C([H])(n2nc(-c3c([H])c([H])c(Oc4c([H])c([H])c(F)c([H])c4F)c([H])c3[H])c(C(=O)N([H])[H])c2N([H])[H])C1([H])[H])C([H])([H])[H]

>  <smiles>  (34) 
[H]C(=NC([H])([H])C([H])([H])Oc1c([H])c([H])c2c(c1[H])C([H])([H])N(C(=O)C([H])(N([H])C(=O)C([H])(N([H])C([H])([H])[H])C([H])([H])[H])C(C([H])([H])[H])(C([H])([H])[H])C([H])([H])[H])C([H])(C(=O)N([H])C1([H])c3c([H])c([H])c([H])c([H])c3C([H])([H])C([H])([H])C1([H])[H])C2([H])[H])C(=NC(=O)C([H])([H])C([H])([H])C([H])([H])C([H])([H])C([H])([H])N([H])C(=O)N1C([H])([H])C([H])([H])C([H])([H])C([H])(n2nc(-c3c([H])c([H])c(Oc4c([H])c([H])c(F)c([H])c4F)c([H])c3[H])c(C(=O)N([H])[H])c2N([H])[H])C1([H])[H])C([H])([H])[H]

$$$$
38:0:0
     RDKit          3D

 97104  0  0  1  0  0  0  0  0999 V2000
  -29.9400  -23.4190   17.2290 C   0  0  0  0  0  2  0  0  0  0  0  0
  -31.2380  -23.9490   17.8770 C   0  0  0  0  0  2  0  0  0  0  0  0
  -31.0350  -25.0890   18.8890 C   0  0  0  0  0  2  0  0  0  0  0  0
  -30.2490  -24.6340   20.0580 N   0  0  0  0  0  4  0  0  0  0  0  0
  -30.6480  -23.7660   20.3820 H   0  0  0  0  0  0  0  0  0  0  0  0
  -29.3080  -24.4390   19.7550 H   0  0  0  0  0  0  0  0  0  0  0  0
  -30.1720  -25.5600   21.2150 C   0  0  0  0  0  2  0  0  0  0  0  0
  -29.4770  -26.8980   20.9030 C   0  0  0  0  0  2  0  0  0  0  0  0
  -28.3390  -26.6050   20.0980 O   0  0  0  0  0  0  0  0  0  0  0  0
  -24.6030  -31.8530   23.2200 C   0  0  0  0  0  0  0  0  0  0  0  0
  -27.2250  -27.4090   20.1630 C   0  0  0  0  0  0  0  0  0  0  0  0
  -23.3760  -30.4420   21.5930 C   0  0  0  0  0  3  0  0  0  0  0  0
  -24.8190  -28.8910   20.1730 C   0  0  0  0  0  0  0  0  0  0  0  0
  -25.8950  -30.8040   21.3730 C   0  0  0  0  0  2  0  0  0  0  0  0
  -25.9780  -29.4280   20.7480 C   0  0  0  0  0  0  0  0  0  0  0  0
  -27.1840  -28.6970   20.7500 C   0  0  0  0  0  3  0  0  0  0  0  0
  -26.0540  -26.8840   19.5850 C   0  0  0  0  0  3  0  0  0  0  0  0
  -24.8500  -27.6130   19.5890 C   0  0  0  0  0  3  0  0  0  0  0  0
  -23.5720  -29.7460   20.2190 C   0  0  0  0  0  2  0  0  0  0  0  0
  -24.6430  -31.0480   22.1220 N   0  0  0  0  0  0  0  0  0  0  0  0
  -23.5280  -32.1310   23.7690 O   0  0  0  0  0  0  0  0  0  0  0  0
  -22.7340  -29.4300   22.5650 C   0  0  0  0  0  0  0  0  0  0  0  0
  -21.4090  -29.2500   22.4480 N   0  0  0  0  0  0  0  0  0  0  0  0
  -23.4220  -28.8100   23.3820 O   0  0  0  0  0  0  0  0  0  0  0  0
  -20.9160  -29.8100   21.7650 H   0  0  0  0  0  0  0  0  0  0  0  0
  -18.0400  -28.0590   22.9620 C   0  0  0  0  0  0  0  0  0  0  0  0
  -20.5960  -28.3190   23.2300 C   0  0  0  0  0  3  0  0  0  0  0  0
  -20.7000  -26.8820   22.6680 C   0  0  0  0  0  2  0  0  0  0  0  0
  -19.5970  -26.5480   21.6580 C   0  0  0  0  0  2  0  0  0  0  0  0
  -18.2150  -26.7020   22.3000 C   0  0  0  0  0  2  0  0  0  0  0  0
  -19.1590  -28.8260   23.3830 C   0  0  0  0  0  0  0  0  0  0  0  0
  -18.9430  -30.0960   23.9580 C   0  0  0  0  0  3  0  0  0  0  0  0
  -17.6390  -30.6020   24.1170 C   0  0  0  0  0  3  0  0  0  0  0  0
  -16.5340  -29.8320   23.7130 C   0  0  0  0  0  3  0  0  0  0  0  0
  -16.7330  -28.5620   23.1430 C   0  0  0  0  0  3  0  0  0  0  0  0
  -25.9010  -32.4800   23.8250 C   0  0  0  0  0  3  0  0  0  0  0  0
  -25.5960  -33.8740   24.1680 N   0  0  0  0  0  0  0  0  0  0  0  0
  -25.9230  -34.9310   23.4130 C   0  0  0  0  0  0  0  0  0  0  0  0
  -26.5820  -34.8380   22.3740 O   0  0  0  0  0  0  0  0  0  0  0  0
  -25.0090  -34.0220   24.9750 H   0  0  0  0  0  0  0  0  0  0  0  0
  -24.1870  -36.7230   23.0870 C   0  0  0  0  0  1  0  0  0  0  0  0
  -25.4360  -36.3140   23.8860 C   0  0  0  0  0  3  0  0  0  0  0  0
  -27.5750  -37.1950   24.7060 C   0  0  0  0  0  1  0  0  0  0  0  0
  -26.4650  -37.3710   23.7750 N   0  0  0  0  0  0  0  0  0  0  0  0
  -26.0570  -38.2860   23.9430 H   0  0  0  0  0  0  0  0  0  0  0  0
  -26.4450  -31.6960   25.0800 C   0  0  1  0  0  0  0  0  0  0  0  0
  -25.3670  -31.4190   26.1530 C   0  0  0  0  0  1  0  0  0  0  0  0
  -27.0490  -30.3360   24.6580 C   0  0  0  0  0  1  0  0  0  0  0  0
  -27.5830  -32.4980   25.7530 C   0  0  0  0  0  1  0  0  0  0  0  0
  -30.1100  -22.0080   16.6540 C   0  0  0  0  0  2  0  0  0  0  0  0
  -30.2270  -21.0380   17.7360 N   0  0  0  0  0  0  0  0  0  0  0  0
  -29.4030  -21.1220   18.3280 H   0  0  0  0  0  0  0  0  0  0  0  0
  -30.2570  -19.6940   17.1690 C   0  0  0  0  0  2  0  0  0  0  0  0
  -31.1560  -18.7990   18.0290 C   0  0  0  0  0  2  0  0  0  0  0  0
  -30.5650  -18.6370   19.3690 N   0  0  0  0  0  4  0  0  0  0  0  0
  -30.7590  -19.4630   19.9090 H   0  0  0  0  0  0  0  0  0  0  0  0
  -29.5690  -18.5960   19.2210 H   0  0  0  0  0  0  0  0  0  0  0  0
  -30.9770  -17.4210   20.0940 C   0  0  0  0  0  2  0  0  0  0  0  0
  -29.7240  -16.6990   20.6280 C   0  0  0  0  0  2  0  0  0  0  0  0
  -30.6350  -14.3630   20.5480 C   0  0  0  0  0  0  0  0  0  0  0  0
  -30.3440  -12.2540   19.3220 C   0  0  0  0  0  2  0  0  0  0  0  0
  -29.4270  -12.5540   18.1180 C   0  0  0  0  0  2  0  0  0  0  0  0
  -27.9310  -12.5060   18.5110 C   0  0  0  0  0  2  0  0  0  0  0  0
  -27.6140  -13.2580   19.8330 C   0  0  0  0  0  3  0  0  0  0  0  0
  -28.6440  -12.8890   20.9240 C   0  0  0  0  0  2  0  0  0  0  0  0
  -29.9850  -13.1870   20.3970 N   0  0  0  0  0  0  0  0  0  0  0  0
  -31.7410  -14.5890   20.0520 O   0  0  0  0  0  0  0  0  0  0  0  0
  -29.8730  -15.3220   21.0950 N   0  0  0  0  0  0  0  0  0  0  0  0
  -29.0420  -14.9730   21.5530 H   0  0  0  0  0  0  0  0  0  0  0  0
  -25.2160  -13.8930   20.5220 C   0  0  0  0  0  0  0  0  0  0  0  0
  -24.1420  -13.1310   20.8880 C   0  0  0  0  0  0  0  0  0  0  0  0
  -24.5890  -11.7740   20.8580 C   0  0  0  0  0  0  0  0  0  0  0  0
  -26.2520  -13.0010   20.2940 N   0  0  0  0  0  0  0  0  0  0  0  0
  -25.8780  -11.7210   20.5500 N   0  0  0  0  0  0  0  0  0  0  0  0
  -23.8540  -10.5180   21.0500 C   0  0  0  0  0  0  0  0  0  0  0  0
  -24.2900   -9.5430   21.9750 C   0  0  0  0  0  3  0  0  0  0  0  0
  -23.5600   -8.3500   22.1570 C   0  0  0  0  0  3  0  0  0  0  0  0
  -22.3780   -8.1210   21.4110 C   0  0  0  0  0  0  0  0  0  0  0  0
  -21.9610   -9.0840   20.4750 C   0  0  0  0  0  3  0  0  0  0  0  0
  -22.6920  -10.2700   20.2930 C   0  0  0  0  0  3  0  0  0  0  0  0
  -21.6190   -6.9790   21.4960 O   0  0  0  0  0  0  0  0  0  0  0  0
  -21.5930   -6.2150   22.6360 C   0  0  0  0  0  0  0  0  0  0  0  0
  -21.2120   -6.7550   23.8830 C   0  0  0  0  0  3  0  0  0  0  0  0
  -21.1230   -5.9190   25.0140 C   0  0  0  0  0  3  0  0  0  0  0  0
  -21.4140   -4.5460   24.8990 C   0  0  0  0  0  0  0  0  0  0  0  0
  -21.7940   -4.0070   23.6570 C   0  0  0  0  0  3  0  0  0  0  0  0
  -21.8780   -4.8400   22.5260 C   0  0  0  0  0  0  0  0  0  0  0  0
  -22.2190   -4.3130   21.3260 F   0  0  0  0  0  0  0  0  0  0  0  0
  -21.3240   -3.7410   25.9820 F   0  0  0  0  0  0  0  0  0  0  0  0
  -22.7510  -13.6210   21.1660 C   0  0  0  0  0  0  0  0  0  0  0  0
  -22.0220  -12.9260   22.0270 N   0  0  0  0  0  0  0  0  0  0  0  0
  -22.3250  -14.6570   20.6570 O   0  0  0  0  0  0  0  0  0  0  0  0
  -22.3870  -12.0870   22.4520 H   0  0  0  0  0  0  0  0  0  0  0  0
  -21.0900  -13.2350   22.2620 H   0  0  0  0  0  0  0  0  0  0  0  0
  -25.3900  -15.2650   20.3530 N   0  0  0  0  0  0  0  0  0  0  0  0
  -24.6300  -15.9240   20.4810 H   0  0  0  0  0  0  0  0  0  0  0  0
  -26.2440  -15.7020   20.0380 H   0  0  0  0  0  0  0  0  0  0  0  0
  1  2  1  0
  2  3  1  0
  3  4  1  0
  4  5  1  0
  4  7  1  0
  6  4  1  0
  8  7  1  0
  9 11  1  0
  9  8  1  0
 10 21  2  0
 11 16  1  0
 12 20  1  0
 12 22  1  0
 13 19  1  0
 13 15  1  0
 14 20  1  0
 15 16  2  0
 15 14  1  0
 17 18  1  0
 17 11  2  0
 18 13  2  0
 19 12  1  0
 20 10  1  0
 22 24  2  0
 23 22  1  0
 25 23  1  0
 26 35  2  0
 26 31  1  0
 27 23  1  0
 27 31  1  0
 28 27  1  0
 29 30  1  0
 29 28  1  0
 30 26  1  0
 31 32  2  0
 32 33  1  0
 34 33  2  0
 35 34  1  0
 36 10  1  0
 36 37  1  0
 36 46  1  0
 37 40  1  0
 38 42  1  0
 38 37  1  0
 39 38  2  0
 42 41  1  0
 44 42  1  0
 44 45  1  0
 44 43  1  0
 46 49  1  1
 46 47  1  0
 48 46  1  0
 50  1  1  0
 50 51  1  0
 51 52  1  0
 53 51  1  0
 53 54  1  0
 54 55  1  0
 55 56  1  0
 55 58  1  0
 57 55  1  0
 58 59  1  0
 59 68  1  0
 60 68  1  0
 61 66  1  0
 62 63  1  0
 62 61  1  0
 64 63  1  0
 64 73  1  0
 64 65  1  0
 66 60  1  0
 66 65  1  0
 67 60  2  0
 68 69  1  0
 70 71  2  0
 71 90  1  0
 72 71  1  0
 72 75  1  0
 73 70  1  0
 73 74  1  0
 74 72  2  0
 75 76  1  0
 76 77  2  0
 78 81  1  0
 78 77  1  0
 79 78  2  0
 80 79  1  0
 80 75  2  0
 81 82  1  0
 82 83  1  0
 83 84  2  0
 85 84  1  0
 85 89  1  0
 86 85  2  0
 87 82  2  0
 87 86  1  0
 88 87  1  0
 90 91  1  0
 91 94  1  0
 91 93  1  0
 92 90  2  0
 95 96  1  0
 95 70  1  0
 97 95  1  0
M  ISO  4   8 101   9 101  60 100  68 100
M  END
>  <TORSDO>  (35) 
F 28

>  <SCORE>  (35) 
-11.244

>  <name>  (35) 
38

>  <ligand_id>  (35) 
38

>  <original_smiles>  (35) 
[H]c1c([H])c([H])c2c(c1[H])C([H])([H])C([H])([H])C([H])([H])C2([H])N([H])C(=O)C1([H])N(C(=O)C([H])(N([H])C(=O)C([H])(N([H])C([H])([H])[H])C([H])([H])[H])C(C([H])([H])[H])(C([H])([H])[H])C([H])([H])[H])C([H])([H])c2c([H])c(OC([H])([H])C([H])([H])[N+]([H])([H])C([H])([H])C([H])([H])C([H])([H])C([H])([H])N([H])C([H])([H])C([H])([H])[N+]([H])([H])C([H])([H])C([H])([H])N([H])C(=O)N3C([H])([H])C([H])([H])C([H])([H])C([H])(n4nc(-c5c([H])c([H])c(Oc6c([H])c([H])c(F)c([H])c6F)c([H])c5[H])c(C(=O)N([H])[H])c4N([H])[H])C3([H])[H])c([H])c([H])c2C1([H])[H]

>  <smiles>  (35) 
[H]c1c([H])c([H])c2c(c1[H])C([H])([H])C([H])([H])C([H])([H])C2([H])N([H])C(=O)C1([H])N(C(=O)C([H])(N([H])C(=O)C([H])(N([H])C([H])([H])[H])C([H])([H])[H])C(C([H])([H])[H])(C([H])([H])[H])C([H])([H])[H])C([H])([H])c2c([H])c(OC([H])([H])C([H])([H])[N+]([H])([H])C([H])([H])C([H])([H])C([H])([H])C([H])([H])N([H])C([H])([H])C([H])([H])[N+]([H])([H])C([H])([H])C([H])([H])N([H])C(=O)N3C([H])([H])C([H])([H])C([H])([H])C([H])(n4nc(-c5c([H])c([H])c(Oc6c([H])c([H])c(F)c([H])c6F)c([H])c5[H])c(C(=O)N([H])[H])c4N([H])[H])C3([H])[H])c([H])c([H])c2C1([H])[H]

$$$$
39:0:0
     RDKit          3D

 93100  0  0  1  0  0  0  0  0999 V2000
  -30.2060  -22.3790   21.2350 C   0  0  0  0  0  2  0  0  0  0  0  0
  -29.5150  -23.1860   20.2200 N   0  0  0  0  0  4  0  0  0  0  0  0
  -29.9730  -23.0180   19.3380 H   0  0  0  0  0  0  0  0  0  0  0  0
  -28.5620  -22.8700   20.1310 H   0  0  0  0  0  0  0  0  0  0  0  0
  -29.5620  -24.6380   20.4590 C   0  0  0  0  0  2  0  0  0  0  0  0
  -28.2850  -25.3140   19.9540 C   0  0  0  0  0  2  0  0  0  0  0  0
  -28.3670  -26.7220   20.1660 O   0  0  0  0  0  0  0  0  0  0  0  0
  -24.5940  -31.8920   23.2320 C   0  0  0  0  0  0  0  0  0  0  0  0
  -27.1850  -27.4280   20.1360 C   0  0  0  0  0  0  0  0  0  0  0  0
  -23.3750  -30.4940   21.6010 C   0  0  0  0  0  3  0  0  0  0  0  0
  -24.8010  -28.9490   20.1550 C   0  0  0  0  0  0  0  0  0  0  0  0
  -25.8980  -30.8320   21.3840 C   0  0  0  0  0  2  0  0  0  0  0  0
  -25.9640  -29.4640   20.7400 C   0  0  0  0  0  0  0  0  0  0  0  0
  -27.1560  -28.7100   20.7250 C   0  0  0  0  0  3  0  0  0  0  0  0
  -25.9990  -26.9220   19.5480 C   0  0  0  0  0  3  0  0  0  0  0  0
  -24.8130  -27.6780   19.5550 C   0  0  0  0  0  3  0  0  0  0  0  0
  -23.5650  -29.8200   20.2140 C   0  0  0  0  0  2  0  0  0  0  0  0
  -24.6460  -31.0870   22.1320 N   0  0  0  0  0  0  0  0  0  0  0  0
  -23.5150  -32.1680   23.7710 O   0  0  0  0  0  0  0  0  0  0  0  0
  -22.7250  -29.4750   22.5630 C   0  0  0  0  0  0  0  0  0  0  0  0
  -21.3980  -29.2950   22.4380 N   0  0  0  0  0  0  0  0  0  0  0  0
  -23.4080  -28.8440   23.3730 O   0  0  0  0  0  0  0  0  0  0  0  0
  -20.9090  -29.8650   21.7600 H   0  0  0  0  0  0  0  0  0  0  0  0
  -18.0290  -28.0980   22.9450 C   0  0  0  0  0  0  0  0  0  0  0  0
  -20.5840  -28.3580   23.2110 C   0  0  0  0  0  3  0  0  0  0  0  0
  -20.6860  -26.9240   22.6420 C   0  0  0  0  0  2  0  0  0  0  0  0
  -19.5830  -26.5960   21.6300 C   0  0  0  0  0  2  0  0  0  0  0  0
  -18.2030  -26.7470   22.2770 C   0  0  0  0  0  2  0  0  0  0  0  0
  -19.1480  -28.8610   23.3710 C   0  0  0  0  0  0  0  0  0  0  0  0
  -18.9310  -30.1280   23.9570 C   0  0  0  0  0  3  0  0  0  0  0  0
  -17.6250  -30.6280   24.1220 C   0  0  0  0  0  3  0  0  0  0  0  0
  -16.5210  -29.8630   23.7100 C   0  0  0  0  0  3  0  0  0  0  0  0
  -16.7240  -28.6000   23.1270 C   0  0  0  0  0  3  0  0  0  0  0  0
  -25.8870  -32.5190   23.8440 C   0  0  0  0  0  3  0  0  0  0  0  0
  -25.5820  -33.9140   24.1790 N   0  0  0  0  0  0  0  0  0  0  0  0
  -25.9010  -34.9710   23.4200 C   0  0  0  0  0  0  0  0  0  0  0  0
  -26.5580  -34.8730   22.3800 O   0  0  0  0  0  0  0  0  0  0  0  0
  -25.0020  -34.0660   24.9870 H   0  0  0  0  0  0  0  0  0  0  0  0
  -24.1670  -36.7650   23.0900 C   0  0  0  0  0  1  0  0  0  0  0  0
  -25.4180  -36.3570   23.8870 C   0  0  0  0  0  3  0  0  0  0  0  0
  -27.5610  -37.2430   24.6940 C   0  0  0  0  0  1  0  0  0  0  0  0
  -26.4480  -37.4120   23.7640 N   0  0  0  0  0  0  0  0  0  0  0  0
  -26.0460  -38.3340   23.9160 H   0  0  0  0  0  0  0  0  0  0  0  0
  -26.4120  -31.7480   25.1140 C   0  0  1  0  0  0  0  0  0  0  0  0
  -25.3290  -31.5080   26.1920 C   0  0  0  0  0  1  0  0  0  0  0  0
  -26.9930  -30.3760   24.7070 C   0  0  0  0  0  1  0  0  0  0  0  0
  -27.5680  -32.5400   25.7670 C   0  0  0  0  0  1  0  0  0  0  0  0
  -30.2510  -20.9130   20.7890 C   0  0  0  0  0  2  0  0  0  0  0  0
  -32.0810  -19.4050   19.9780 C   0  0  0  0  0  0  0  0  0  0  0  0
  -31.6370  -20.5570   20.5010 N   0  0  0  0  0  0  0  0  0  0  0  0
  -33.2740  -19.2170   19.7510 O   0  0  0  0  0  0  0  0  0  0  0  0
  -32.3100  -21.3010   20.6530 H   0  0  0  0  0  0  0  0  0  0  0  0
  -31.0320  -18.4410   19.7520 C   0  0  0  0  0  3  0  0  0  0  0  0
  -30.7840  -17.5370   20.7160 C   0  0  0  0  0  3  0  0  0  0  0  0
  -29.6000  -16.6120   20.7340 C   0  0  0  0  0  2  0  0  0  0  0  0
  -30.6460  -14.3770   20.5210 C   0  0  0  0  0  0  0  0  0  0  0  0
  -30.3870  -12.2810   19.2890 C   0  0  0  0  0  2  0  0  0  0  0  0
  -29.4460  -12.5570   18.1000 C   0  0  0  0  0  2  0  0  0  0  0  0
  -27.9630  -12.4530   18.5110 C   0  0  0  0  0  2  0  0  0  0  0  0
  -27.6320  -13.2370   19.8090 C   0  0  0  0  0  3  0  0  0  0  0  0
  -28.6660  -12.8850   20.9040 C   0  0  0  0  0  2  0  0  0  0  0  0
  -30.0130  -13.1880   20.3740 N   0  0  0  0  0  0  0  0  0  0  0  0
  -31.7170  -14.6720   19.9810 O   0  0  0  0  0  0  0  0  0  0  0  0
  -29.8970  -15.2640   21.1790 N   0  0  0  0  0  0  0  0  0  0  0  0
  -29.1410  -14.8180   21.6780 H   0  0  0  0  0  0  0  0  0  0  0  0
  -25.2140  -13.8820   20.4420 C   0  0  0  0  0  0  0  0  0  0  0  0
  -24.1310  -13.1220   20.8070 C   0  0  0  0  0  0  0  0  0  0  0  0
  -24.5830  -11.7690   20.8100 C   0  0  0  0  0  0  0  0  0  0  0  0
  -26.2600  -12.9860   20.2580 N   0  0  0  0  0  0  0  0  0  0  0  0
  -25.8770  -11.7120   20.5250 N   0  0  0  0  0  0  0  0  0  0  0  0
  -23.8490  -10.5130   21.0140 C   0  0  0  0  0  0  0  0  0  0  0  0
  -24.2730   -9.5490   21.9540 C   0  0  0  0  0  3  0  0  0  0  0  0
  -23.5360   -8.3580   22.1420 C   0  0  0  0  0  3  0  0  0  0  0  0
  -22.3640   -8.1210   21.3820 C   0  0  0  0  0  0  0  0  0  0  0  0
  -21.9620   -9.0720   20.4290 C   0  0  0  0  0  3  0  0  0  0  0  0
  -22.7010  -10.2530   20.2420 C   0  0  0  0  0  3  0  0  0  0  0  0
  -21.6050   -6.9780   21.4740 O   0  0  0  0  0  0  0  0  0  0  0  0
  -21.5590   -6.2370   22.6270 C   0  0  0  0  0  0  0  0  0  0  0  0
  -21.1530   -6.8000   23.8570 C   0  0  0  0  0  3  0  0  0  0  0  0
  -21.0510   -5.9880   25.0030 C   0  0  0  0  0  3  0  0  0  0  0  0
  -21.3430   -4.6130   24.9230 C   0  0  0  0  0  0  0  0  0  0  0  0
  -21.7470   -4.0500   23.6990 C   0  0  0  0  0  3  0  0  0  0  0  0
  -21.8480   -4.8590   22.5530 C   0  0  0  0  0  0  0  0  0  0  0  0
  -22.2130   -4.3090   21.3710 F   0  0  0  0  0  0  0  0  0  0  0  0
  -21.2380   -3.8290   26.0220 F   0  0  0  0  0  0  0  0  0  0  0  0
  -22.7360  -13.6110   21.0470 C   0  0  0  0  0  0  0  0  0  0  0  0
  -21.9860  -12.9340   21.9140 N   0  0  0  0  0  0  0  0  0  0  0  0
  -22.3080  -14.6260   20.5030 O   0  0  0  0  0  0  0  0  0  0  0  0
  -22.3410  -12.1120   22.3760 H   0  0  0  0  0  0  0  0  0  0  0  0
  -21.0480  -13.2480   22.1180 H   0  0  0  0  0  0  0  0  0  0  0  0
  -25.3910  -15.2460   20.2490 N   0  0  0  0  0  0  0  0  0  0  0  0
  -24.6260  -15.9090   20.3280 H   0  0  0  0  0  0  0  0  0  0  0  0
  -26.2490  -15.6690   19.9160 H   0  0  0  0  0  0  0  0  0  0  0  0
  2  5  1  0
  2  1  1  0
  3  2  1  0
  4  2  1  0
  6  7  1  0
  6  5  1  0
  8 19  2  0
  9  7  1  0
  9 14  1  0
 10 18  1  0
 10 20  1  0
 11 17  1  0
 11 13  1  0
 12 18  1  0
 13 12  1  0
 14 13  2  0
 15 16  1  0
 15  9  2  0
 16 11  2  0
 17 10  1  0
 18  8  1  0
 20 22  2  0
 21 20  1  0
 23 21  1  0
 24 33  2  0
 24 29  1  0
 25 21  1  0
 25 29  1  0
 26 25  1  0
 27 28  1  0
 27 26  1  0
 28 24  1  0
 29 30  2  0
 30 31  1  0
 32 31  2  0
 33 32  1  0
 34  8  1  0
 34 35  1  0
 34 44  1  0
 35 38  1  0
 36 40  1  0
 36 35  1  0
 37 36  2  0
 40 39  1  0
 42 40  1  0
 42 43  1  0
 42 41  1  0
 44 47  1  1
 44 45  1  0
 46 44  1  0
 48  1  1  0
 49 50  1  0
 50 52  1  0
 50 48  1  0
 51 49  2  0
 53 49  1  0
 53 54  2  0
 54 55  1  0
 55 64  1  0
 56 64  1  0
 57 62  1  0
 58 59  1  0
 58 57  1  0
 60 59  1  0
 60 69  1  0
 60 61  1  0
 62 56  1  0
 62 61  1  0
 63 56  2  0
 64 65  1  0
 66 67  2  0
 67 68  1  0
 67 86  1  0
 68 71  1  0
 69 66  1  0
 69 70  1  0
 70 68  2  0
 71 72  1  0
 72 73  2  0
 74 77  1  0
 74 73  1  0
 75 74  2  0
 76 75  1  0
 76 71  2  0
 77 78  1  0
 78 79  1  0
 79 80  2  0
 81 80  1  0
 81 85  1  0
 82 81  2  0
 83 78  2  0
 83 82  1  0
 84 83  1  0
 86 87  1  0
 87 90  1  0
 87 89  1  0
 88 86  2  0
 91 92  1  0
 91 66  1  0
 93 91  1  0
M  ISO  4   6 101   7 101  56 100  64 100
M  END
>  <TORSDO>  (36) 
F 23

>  <SCORE>  (36) 
-12.747

>  <name>  (36) 
39

>  <ligand_id>  (36) 
39

>  <original_smiles>  (36) 
[H]C(C(=O)N([H])C([H])([H])C([H])([H])[N+]([H])([H])C([H])([H])C([H])([H])Oc1c([H])c([H])c2c(c1[H])C([H])([H])N(C(=O)C([H])(N([H])C(=O)C([H])(N([H])C([H])([H])[H])C([H])([H])[H])C(C([H])([H])[H])(C([H])([H])[H])C([H])([H])[H])C([H])(C(=O)N([H])C1([H])c3c([H])c([H])c([H])c([H])c3C([H])([H])C([H])([H])C1([H])[H])C2([H])[H])=C([H])C([H])([H])N([H])C(=O)N1C([H])([H])C([H])([H])C([H])([H])C([H])(n2nc(-c3c([H])c([H])c(Oc4c([H])c([H])c(F)c([H])c4F)c([H])c3[H])c(C(=O)N([H])[H])c2N([H])[H])C1([H])[H]

>  <smiles>  (36) 
[H]C(C(=O)N([H])C([H])([H])C([H])([H])[N+]([H])([H])C([H])([H])C([H])([H])Oc1c([H])c([H])c2c(c1[H])C([H])([H])N(C(=O)C([H])(N([H])C(=O)C([H])(N([H])C([H])([H])[H])C([H])([H])[H])C(C([H])([H])[H])(C([H])([H])[H])C([H])([H])[H])C([H])(C(=O)N([H])C1([H])c3c([H])c([H])c([H])c([H])c3C([H])([H])C([H])([H])C1([H])[H])C2([H])[H])=C([H])C([H])([H])N([H])C(=O)N1C([H])([H])C([H])([H])C([H])([H])C([H])(n2nc(-c3c([H])c([H])c(Oc4c([H])c([H])c(F)c([H])c4F)c([H])c3[H])c(C(=O)N([H])[H])c2N([H])[H])C1([H])[H]

$$$$
40:0:0
     RDKit          3D

 98105  0  0  1  0  0  0  0  0999 V2000
  -28.7980  -20.9150   26.0700 C   0  0  0  0  0  2  0  0  0  0  0  0
  -29.3240  -21.2660   24.7410 N   0  0  0  0  0  0  0  0  0  0  0  0
  -28.5910  -21.1120   24.0480 H   0  0  0  0  0  0  0  0  0  0  0  0
  -29.7950  -22.6390   24.6420 C   0  0  0  0  0  2  0  0  0  0  0  0
  -30.1540  -22.9940   23.1890 C   0  0  0  0  0  2  0  0  0  0  0  0
  -30.5560  -24.3940   23.0930 N   0  0  0  0  0  0  0  0  0  0  0  0
  -29.8600  -24.9760   23.5620 H   0  0  0  0  0  0  0  0  0  0  0  0
  -30.6980  -24.8640   21.7150 C   0  0  0  0  0  2  0  0  0  0  0  0
  -30.9960  -26.3700   21.6610 C   0  0  0  0  0  2  0  0  0  0  0  0
  -30.6690  -26.8480   20.3570 O   0  0  0  0  0  0  0  0  0  0  0  0
  -25.4970  -30.7300   23.2590 C   0  0  0  0  0  0  0  0  0  0  0  0
  -29.3790  -27.2990   20.2590 C   0  0  0  0  0  0  0  0  0  0  0  0
  -24.8080  -29.2140   21.4250 C   0  0  0  0  0  3  0  0  0  0  0  0
  -26.7090  -28.1700   20.0800 C   0  0  0  0  0  0  0  0  0  0  0  0
  -27.1730  -30.1750   21.5070 C   0  0  0  0  0  2  0  0  0  0  0  0
  -27.6400  -28.9130   20.8160 C   0  0  0  0  0  0  0  0  0  0  0  0
  -28.9770  -28.4820   20.9110 C   0  0  0  0  0  3  0  0  0  0  0  0
  -28.4440  -26.5620   19.5060 C   0  0  0  0  0  3  0  0  0  0  0  0
  -27.1040  -26.9900   19.4200 C   0  0  0  0  0  3  0  0  0  0  0  0
  -25.2940  -28.7010   20.0410 C   0  0  0  0  0  2  0  0  0  0  0  0
  -25.8350  -30.0510   22.1260 N   0  0  0  0  0  0  0  0  0  0  0  0
  -24.3370  -30.7060   23.6960 O   0  0  0  0  0  0  0  0  0  0  0  0
  -24.3360  -28.0010   22.2590 C   0  0  0  0  0  0  0  0  0  0  0  0
  -23.1310  -27.5030   21.9510 N   0  0  0  0  0  0  0  0  0  0  0  0
  -25.0590  -27.5150   23.1330 O   0  0  0  0  0  0  0  0  0  0  0  0
  -22.6020  -27.9630   21.2230 H   0  0  0  0  0  0  0  0  0  0  0  0
  -20.1400  -25.4800   21.9430 C   0  0  0  0  0  0  0  0  0  0  0  0
  -22.4940  -26.3420   22.5710 C   0  0  0  0  0  3  0  0  0  0  0  0
  -23.0270  -25.0240   21.9620 C   0  0  0  0  0  2  0  0  0  0  0  0
  -22.1760  -24.5100   20.7970 C   0  0  0  0  0  2  0  0  0  0  0  0
  -20.7350  -24.2640   21.2520 C   0  0  0  0  0  2  0  0  0  0  0  0
  -20.9670  -26.4630   22.5470 C   0  0  0  0  0  0  0  0  0  0  0  0
  -20.3650  -27.5940   23.1430 C   0  0  0  0  0  3  0  0  0  0  0  0
  -18.9650  -27.7470   23.1460 C   0  0  0  0  0  3  0  0  0  0  0  0
  -18.1510  -26.7610   22.5630 C   0  0  0  0  0  3  0  0  0  0  0  0
  -18.7370  -25.6300   21.9680 C   0  0  0  0  0  3  0  0  0  0  0  0
  -26.5410  -31.5870   24.0430 C   0  0  0  0  0  3  0  0  0  0  0  0
  -27.0050  -30.9190   25.3940 C   0  0  1  0  0  0  0  0  0  0  0  0
  -25.8310  -30.4690   26.2970 C   0  0  0  0  0  1  0  0  0  0  0  0
  -27.8910  -29.6830   25.1110 C   0  0  0  0  0  1  0  0  0  0  0  0
  -27.8780  -31.9110   26.2000 C   0  0  0  0  0  1  0  0  0  0  0  0
  -25.9370  -32.9010   24.2940 N   0  0  0  0  0  0  0  0  0  0  0  0
  -26.1870  -34.0020   23.5710 C   0  0  0  0  0  0  0  0  0  0  0  0
  -27.0190  -34.0310   22.6600 O   0  0  0  0  0  0  0  0  0  0  0  0
  -25.2080  -32.9400   24.9920 H   0  0  0  0  0  0  0  0  0  0  0  0
  -24.2440  -35.4440   22.9020 C   0  0  0  0  0  1  0  0  0  0  0  0
  -25.3880  -35.2720   23.9150 C   0  0  0  0  0  3  0  0  0  0  0  0
  -27.1540  -36.5230   25.0710 C   0  0  0  0  0  1  0  0  0  0  0  0
  -26.2170  -36.4970   23.9500 N   0  0  0  0  0  0  0  0  0  0  0  0
  -25.6320  -37.3260   24.0090 H   0  0  0  0  0  0  0  0  0  0  0  0
  -28.6770  -19.3900   26.1630 C   0  0  0  0  0  2  0  0  0  0  0  0
  -29.2860  -18.8490   24.9530 N   0  0  0  0  0  0  0  0  0  0  0  0
  -29.0860  -19.6030   24.2810 H   0  0  0  0  0  0  0  0  0  0  0  0
  -30.7390  -18.6190   25.0170 C   0  0  0  0  0  2  0  0  0  0  0  0
  -31.2880  -18.4400   23.5950 C   0  0  0  0  0  2  0  0  0  0  0  0
  -30.3540  -17.5930   22.8260 N   0  0  0  0  0  4  0  0  0  0  0  0
  -30.2560  -16.6950   23.2650 H   0  0  0  0  0  0  0  0  0  0  0  0
  -29.4660  -18.0630   22.9510 H   0  0  0  0  0  0  0  0  0  0  0  0
  -30.6680  -17.4490   21.3900 C   0  0  0  0  0  2  0  0  0  0  0  0
  -31.4380  -16.1460   21.1120 C   0  0  0  0  0  2  0  0  0  0  0  0
  -30.6000  -14.3950   19.5450 C   0  0  0  0  0  0  0  0  0  0  0  0
  -30.2400  -12.1270   18.6470 C   0  0  0  0  0  2  0  0  0  0  0  0
  -29.1490  -12.0360   17.5680 C   0  0  0  0  0  2  0  0  0  0  0  0
  -27.7680  -11.8430   18.2160 C   0  0  0  0  0  2  0  0  0  0  0  0
  -27.4880  -12.9000   19.3110 C   0  0  0  0  0  3  0  0  0  0  0  0
  -28.6640  -12.9900   20.3090 C   0  0  0  0  0  2  0  0  0  0  0  0
  -29.9140  -13.2280   19.5640 N   0  0  0  0  0  0  0  0  0  0  0  0
  -31.3670  -14.7270   18.6350 O   0  0  0  0  0  0  0  0  0  0  0  0
  -30.5540  -15.0520   20.7120 N   0  0  0  0  0  0  0  0  0  0  0  0
  -29.9690  -14.6330   21.4210 H   0  0  0  0  0  0  0  0  0  0  0  0
  -25.2810  -13.5270   20.4840 C   0  0  0  0  0  0  0  0  0  0  0  0
  -24.2540  -12.7600   20.9710 C   0  0  0  0  0  0  0  0  0  0  0  0
  -24.6360  -11.4020   20.7430 C   0  0  0  0  0  0  0  0  0  0  0  0
  -26.2240  -12.6350   19.9960 N   0  0  0  0  0  0  0  0  0  0  0  0
  -25.8480  -11.3470   20.2080 N   0  0  0  0  0  0  0  0  0  0  0  0
  -23.8930  -10.1540   20.9540 C   0  0  0  0  0  0  0  0  0  0  0  0
  -24.3590   -9.1590   21.8430 C   0  0  0  0  0  3  0  0  0  0  0  0
  -23.6180   -7.9730   22.0390 C   0  0  0  0  0  3  0  0  0  0  0  0
  -22.4000   -7.7740   21.3480 C   0  0  0  0  0  0  0  0  0  0  0  0
  -21.9530   -8.7580   20.4480 C   0  0  0  0  0  3  0  0  0  0  0  0
  -22.6930   -9.9350   20.2490 C   0  0  0  0  0  3  0  0  0  0  0  0
  -21.6260   -6.6430   21.4570 O   0  0  0  0  0  0  0  0  0  0  0  0
  -21.5180   -5.9570   22.6400 C   0  0  0  0  0  0  0  0  0  0  0  0
  -21.0400   -6.5720   23.8170 C   0  0  0  0  0  3  0  0  0  0  0  0
  -20.8770   -5.8110   24.9920 C   0  0  0  0  0  3  0  0  0  0  0  0
  -21.1850   -4.4380   24.9910 C   0  0  0  0  0  0  0  0  0  0  0  0
  -21.6550   -3.8220   23.8180 C   0  0  0  0  0  3  0  0  0  0  0  0
  -21.8200   -4.5800   22.6450 C   0  0  0  0  0  0  0  0  0  0  0  0
  -22.2530   -3.9780   21.5120 F   0  0  0  0  0  0  0  0  0  0  0  0
  -21.0210   -3.7060   26.1180 F   0  0  0  0  0  0  0  0  0  0  0  0
  -22.9520  -13.2580   21.5280 C   0  0  0  0  0  0  0  0  0  0  0  0
  -22.3640  -12.5190   22.4640 N   0  0  0  0  0  0  0  0  0  0  0  0
  -22.4740  -14.3330   21.1710 O   0  0  0  0  0  0  0  0  0  0  0  0
  -22.7640  -11.6440   22.7670 H   0  0  0  0  0  0  0  0  0  0  0  0
  -21.5010  -12.8350   22.8820 H   0  0  0  0  0  0  0  0  0  0  0  0
  -25.4800  -14.9000   20.3990 N   0  0  0  0  0  0  0  0  0  0  0  0
  -24.7790  -15.5700   20.6960 H   0  0  0  0  0  0  0  0  0  0  0  0
  -26.2930  -15.3390   19.9840 H   0  0  0  0  0  0  0  0  0  0  0  0
  1 51  1  0
  2  1  1  0
  3  2  1  0
  4  2  1  0
  5  4  1  0
  6  5  1  0
  6  7  1  0
  8  6  1  0
  9  8  1  0
 10  9  1  0
 11 22  2  0
 12 10  1  0
 12 17  1  0
 13 21  1  0
 13 23  1  0
 14 16  1  0
 15 21  1  0
 16 17  2  0
 16 15  1  0
 18 12  2  0
 19 18  1  0
 19 14  2  0
 20 14  1  0
 20 13  1  0
 21 11  1  0
 23 25  2  0
 24 23  1  0
 26 24  1  0
 27 36  2  0
 27 32  1  0
 28 24  1  0
 29 28  1  0
 30 31  1  0
 30 29  1  0
 31 27  1  0
 32 28  1  0
 32 33  2  0
 33 34  1  0
 35 34  2  0
 36 35  1  0
 37 11  1  0
 37 42  1  0
 37 38  1  0
 38 41  1  1
 38 39  1  0
 40 38  1  0
 42 45  1  0
 43 47  1  0
 43 42  1  0
 44 43  2  0
 47 46  1  0
 47 49  1  0
 49 50  1  0
 49 48  1  0
 52 54  1  0
 52 51  1  0
 53 52  1  0
 55 54  1  0
 56 58  1  0
 56 57  1  0
 56 55  1  0
 59 56  1  0
 60 59  1  0
 61 67  1  0
 61 69  1  0
 62 67  1  0
 63 64  1  0
 63 62  1  0
 65 64  1  0
 65 74  1  0
 65 66  1  0
 67 66  1  0
 68 61  2  0
 69 60  1  0
 69 70  1  0
 71 72  2  0
 72 91  1  0
 73 76  1  0
 73 72  1  0
 74 75  1  0
 74 71  1  0
 75 73  2  0
 76 77  1  0
 77 78  2  0
 79 82  1  0
 79 78  1  0
 80 79  2  0
 81 80  1  0
 81 76  2  0
 82 83  1  0
 83 88  2  0
 83 84  1  0
 84 85  2  0
 86 85  1  0
 86 90  1  0
 87 86  2  0
 88 87  1  0
 89 88  1  0
 91 92  1  0
 92 94  1  0
 92 95  1  0
 93 91  2  0
 96 71  1  0
 96 97  1  0
 98 96  1  0
M  ISO  4   9 101  10 101  61 100  69 100
M  END
>  <TORSDO>  (37) 
F 29

>  <SCORE>  (37) 
0.437

>  <name>  (37) 
40

>  <ligand_id>  (37) 
40

>  <original_smiles>  (37) 
[H]c1c([H])c([H])c2c(c1[H])C([H])([H])C([H])([H])C([H])([H])C2([H])N([H])C(=O)C1([H])N(C(=O)C([H])(N([H])C(=O)C([H])(N([H])C([H])([H])[H])C([H])([H])[H])C(C([H])([H])[H])(C([H])([H])[H])C([H])([H])[H])C([H])([H])c2c([H])c(OC([H])([H])C([H])([H])N([H])C([H])([H])C([H])([H])N([H])C([H])([H])C([H])([H])N([H])C([H])([H])C([H])([H])[N+]([H])([H])C([H])([H])C([H])([H])N([H])C(=O)N3C([H])([H])C([H])([H])C([H])([H])C([H])(n4nc(-c5c([H])c([H])c(Oc6c([H])c([H])c(F)c([H])c6F)c([H])c5[H])c(C(=O)N([H])[H])c4N([H])[H])C3([H])[H])c([H])c([H])c2C1([H])[H]

>  <smiles>  (37) 
[H]c1c([H])c([H])c2c(c1[H])C([H])([H])C([H])([H])C([H])([H])C2([H])N([H])C(=O)C1([H])N(C(=O)C([H])(N([H])C(=O)C([H])(N([H])C([H])([H])[H])C([H])([H])[H])C(C([H])([H])[H])(C([H])([H])[H])C([H])([H])[H])C([H])([H])c2c([H])c(OC([H])([H])C([H])([H])N([H])C([H])([H])C([H])([H])N([H])C([H])([H])C([H])([H])N([H])C([H])([H])C([H])([H])[N+]([H])([H])C([H])([H])C([H])([H])N([H])C(=O)N3C([H])([H])C([H])([H])C([H])([H])C([H])(n4nc(-c5c([H])c([H])c(Oc6c([H])c([H])c(F)c([H])c6F)c([H])c5[H])c(C(=O)N([H])[H])c4N([H])[H])C3([H])[H])c([H])c([H])c2C1([H])[H]

$$$$
41:0:0
     RDKit          3D

 92 99  0  0  1  0  0  0  0  0999 V2000
  -29.4040  -22.4130   19.7680 C   0  0  0  0  0  2  0  0  0  0  0  0
  -28.6790  -23.6850   19.5100 N   0  0  0  0  0  4  0  0  0  0  0  0
  -28.2650  -23.9900   20.3780 H   0  0  0  0  0  0  0  0  0  0  0  0
  -27.9300  -23.5060   18.8580 H   0  0  0  0  0  0  0  0  0  0  0  0
  -29.5310  -24.7890   18.9950 C   0  0  0  0  0  2  0  0  0  0  0  0
  -28.7710  -26.1200   18.8040 C   0  0  0  0  0  2  0  0  0  0  0  0
  -28.4200  -26.7290   20.0590 O   0  0  0  0  0  0  0  0  0  0  0  0
  -24.6110  -31.8820   23.2280 C   0  0  0  0  0  0  0  0  0  0  0  0
  -27.2430  -27.4490   20.0970 C   0  0  0  0  0  0  0  0  0  0  0  0
  -23.3970  -30.4830   21.5910 C   0  0  0  0  0  3  0  0  0  0  0  0
  -24.8400  -28.9460   20.1630 C   0  0  0  0  0  0  0  0  0  0  0  0
  -25.9240  -30.8370   21.3840 C   0  0  0  0  0  2  0  0  0  0  0  0
  -26.0060  -29.4680   20.7400 C   0  0  0  0  0  0  0  0  0  0  0  0
  -27.2070  -28.7240   20.7150 C   0  0  0  0  0  3  0  0  0  0  0  0
  -26.0460  -26.9230   19.5600 C   0  0  0  0  0  3  0  0  0  0  0  0
  -24.8520  -27.6660   19.5850 C   0  0  0  0  0  3  0  0  0  0  0  0
  -23.6030  -29.8120   20.2100 C   0  0  0  0  0  2  0  0  0  0  0  0
  -24.6620  -31.0820   22.1250 N   0  0  0  0  0  0  0  0  0  0  0  0
  -23.5320  -32.1540   23.7720 O   0  0  0  0  0  0  0  0  0  0  0  0
  -22.7530  -29.4580   22.5530 C   0  0  0  0  0  0  0  0  0  0  0  0
  -21.4280  -29.2750   22.4320 N   0  0  0  0  0  0  0  0  0  0  0  0
  -23.4410  -28.8310   23.3630 O   0  0  0  0  0  0  0  0  0  0  0  0
  -20.9350  -29.8320   21.7490 H   0  0  0  0  0  0  0  0  0  0  0  0
  -18.0580  -28.0760   22.9440 C   0  0  0  0  0  0  0  0  0  0  0  0
  -20.6150  -28.3370   23.2070 C   0  0  0  0  0  3  0  0  0  0  0  0
  -20.7200  -26.9050   22.6330 C   0  0  0  0  0  2  0  0  0  0  0  0
  -19.6140  -26.5780   21.6230 C   0  0  0  0  0  2  0  0  0  0  0  0
  -18.2330  -26.7250   22.2700 C   0  0  0  0  0  2  0  0  0  0  0  0
  -19.1760  -28.8390   23.3700 C   0  0  0  0  0  0  0  0  0  0  0  0
  -18.9580  -30.1030   23.9610 C   0  0  0  0  0  3  0  0  0  0  0  0
  -17.6530  -30.6030   24.1300 C   0  0  0  0  0  3  0  0  0  0  0  0
  -16.5490  -29.8370   23.7190 C   0  0  0  0  0  3  0  0  0  0  0  0
  -16.7520  -28.5750   23.1320 C   0  0  0  0  0  3  0  0  0  0  0  0
  -25.8990  -32.5140   23.8390 C   0  0  0  0  0  3  0  0  0  0  0  0
  -25.5880  -33.9100   24.1780 N   0  0  0  0  0  0  0  0  0  0  0  0
  -25.9120  -34.9660   23.4200 C   0  0  0  0  0  0  0  0  0  0  0  0
  -26.5750  -34.8680   22.3840 O   0  0  0  0  0  0  0  0  0  0  0  0
  -25.0010  -34.0600   24.9840 H   0  0  0  0  0  0  0  0  0  0  0  0
  -24.1750  -36.7520   23.0820 C   0  0  0  0  0  1  0  0  0  0  0  0
  -25.4230  -36.3500   23.8840 C   0  0  0  0  0  3  0  0  0  0  0  0
  -27.5610  -37.2370   24.7040 C   0  0  0  0  0  1  0  0  0  0  0  0
  -26.4510  -37.4070   23.7700 N   0  0  0  0  0  0  0  0  0  0  0  0
  -26.0430  -38.3250   23.9240 H   0  0  0  0  0  0  0  0  0  0  0  0
  -26.4310  -31.7370   25.1060 C   0  0  1  0  0  0  0  0  0  0  0  0
  -25.3510  -31.4900   26.1840 C   0  0  0  0  0  1  0  0  0  0  0  0
  -27.0120  -30.3630   24.7000 C   0  0  0  0  0  1  0  0  0  0  0  0
  -27.5850  -32.5330   25.7620 C   0  0  0  0  0  1  0  0  0  0  0  0
  -28.5070  -21.3420   20.4400 C   0  0  0  0  0  2  0  0  0  0  0  0
  -29.8610  -19.2440   20.1610 C   0  0  0  0  0  0  0  0  0  0  0  0
  -29.2320  -20.1550   20.9130 N   0  0  0  0  0  0  0  0  0  0  0  0
  -30.0180  -19.3930   18.9490 O   0  0  0  0  0  0  0  0  0  0  0  0
  -29.1530  -19.9560   21.9030 H   0  0  0  0  0  0  0  0  0  0  0  0
  -30.3500  -17.9500   20.8460 C   0  0  0  0  0  2  0  0  0  0  0  0
  -29.6510  -16.7180   20.2330 C   0  0  0  0  0  2  0  0  0  0  0  0
  -30.6240  -14.4520   20.5180 C   0  0  0  0  0  0  0  0  0  0  0  0
  -30.3720  -12.2970   19.3640 C   0  0  0  0  0  2  0  0  0  0  0  0
  -29.4310  -12.5350   18.1630 C   0  0  0  0  0  2  0  0  0  0  0  0
  -27.9490  -12.4110   18.5760 C   0  0  0  0  0  2  0  0  0  0  0  0
  -27.6180  -13.2150   19.8610 C   0  0  0  0  0  3  0  0  0  0  0  0
  -28.6660  -12.9390   20.9650 C   0  0  0  0  0  2  0  0  0  0  0  0
  -29.9990  -13.2520   20.4210 N   0  0  0  0  0  0  0  0  0  0  0  0
  -31.7360  -14.6900   20.0370 O   0  0  0  0  0  0  0  0  0  0  0  0
  -29.8210  -15.4420   20.9460 N   0  0  0  0  0  0  0  0  0  0  0  0
  -28.9870  -15.1080   21.4040 H   0  0  0  0  0  0  0  0  0  0  0  0
  -25.2120  -13.8340   20.5440 C   0  0  0  0  0  0  0  0  0  0  0  0
  -24.1420  -13.0630   20.9110 C   0  0  0  0  0  0  0  0  0  0  0  0
  -24.6030  -11.7110   20.8880 C   0  0  0  0  0  0  0  0  0  0  0  0
  -26.2570  -12.9490   20.3250 N   0  0  0  0  0  0  0  0  0  0  0  0
  -25.8930  -11.6680   20.5880 N   0  0  0  0  0  0  0  0  0  0  0  0
  -23.8730  -10.4500   21.0780 C   0  0  0  0  0  0  0  0  0  0  0  0
  -24.3150   -9.4790   22.0010 C   0  0  0  0  0  3  0  0  0  0  0  0
  -23.5900   -8.2810   22.1790 C   0  0  0  0  0  3  0  0  0  0  0  0
  -22.4090   -8.0480   21.4340 C   0  0  0  0  0  0  0  0  0  0  0  0
  -21.9880   -9.0080   20.4990 C   0  0  0  0  0  3  0  0  0  0  0  0
  -22.7130  -10.1980   20.3180 C   0  0  0  0  0  3  0  0  0  0  0  0
  -21.6550   -6.9040   21.5260 O   0  0  0  0  0  0  0  0  0  0  0  0
  -21.6310   -6.1450   22.6700 C   0  0  0  0  0  0  0  0  0  0  0  0
  -21.2490   -6.6870   23.9170 C   0  0  0  0  0  3  0  0  0  0  0  0
  -21.1700   -5.8530   25.0510 C   0  0  0  0  0  3  0  0  0  0  0  0
  -21.4640   -4.4800   24.9400 C   0  0  0  0  0  0  0  0  0  0  0  0
  -21.8380   -3.9400   23.6970 C   0  0  0  0  0  3  0  0  0  0  0  0
  -21.9180   -4.7710   22.5660 C   0  0  0  0  0  0  0  0  0  0  0  0
  -22.2580   -4.2410   21.3660 F   0  0  0  0  0  0  0  0  0  0  0  0
  -21.3820   -3.6760   26.0260 F   0  0  0  0  0  0  0  0  0  0  0  0
  -22.7430  -13.5410   21.1760 C   0  0  0  0  0  0  0  0  0  0  0  0
  -22.0150  -12.8440   22.0420 N   0  0  0  0  0  0  0  0  0  0  0  0
  -22.3070  -14.5630   20.6470 O   0  0  0  0  0  0  0  0  0  0  0  0
  -22.3810  -12.0170   22.4900 H   0  0  0  0  0  0  0  0  0  0  0  0
  -21.0730  -13.1420   22.2560 H   0  0  0  0  0  0  0  0  0  0  0  0
  -25.3800  -15.2030   20.3580 N   0  0  0  0  0  0  0  0  0  0  0  0
  -24.6120  -15.8580   20.4480 H   0  0  0  0  0  0  0  0  0  0  0  0
  -26.2260  -15.6330   20.0050 H   0  0  0  0  0  0  0  0  0  0  0  0
  1 48  1  0
  2  1  1  0
  2  3  1  0
  4  2  1  0
  5  2  1  0
  6  5  1  0
  6  7  1  0
  7  9  1  0
  8 19  2  0
  9 14  1  0
 10 18  1  0
 10 20  1  0
 11 17  1  0
 11 13  1  0
 12 18  1  0
 13 12  1  0
 14 13  2  0
 15 16  1  0
 15  9  2  0
 16 11  2  0
 17 10  1  0
 18  8  1  0
 20 22  2  0
 21 20  1  0
 23 21  1  0
 24 33  2  0
 24 29  1  0
 25 21  1  0
 25 29  1  0
 26 25  1  0
 27 28  1  0
 27 26  1  0
 28 24  1  0
 29 30  2  0
 30 31  1  0
 32 31  2  0
 33 32  1  0
 34  8  1  0
 34 35  1  0
 34 44  1  0
 35 38  1  0
 36 40  1  0
 36 35  1  0
 37 36  2  0
 40 39  1  0
 42 40  1  0
 42 43  1  0
 42 41  1  0
 44 47  1  1
 44 45  1  0
 46 44  1  0
 48 50  1  0
 49 53  1  0
 49 50  1  0
 50 52  1  0
 51 49  2  0
 54 53  1  0
 54 63  1  0
 55 63  1  0
 56 61  1  0
 57 58  1  0
 57 56  1  0
 59 58  1  0
 59 68  1  0
 59 60  1  0
 61 55  1  0
 61 60  1  0
 62 55  2  0
 63 64  1  0
 65 66  2  0
 66 85  1  0
 67 66  1  0
 67 70  1  0
 68 65  1  0
 68 69  1  0
 69 67  2  0
 70 71  1  0
 71 72  2  0
 73 76  1  0
 73 72  1  0
 74 73  2  0
 75 74  1  0
 75 70  2  0
 76 77  1  0
 77 78  1  0
 78 79  2  0
 80 79  1  0
 80 84  1  0
 81 80  2  0
 82 77  2  0
 82 81  1  0
 83 82  1  0
 85 86  1  0
 86 89  1  0
 86 88  1  0
 87 85  2  0
 90 91  1  0
 90 65  1  0
 92 90  1  0
M  ISO  4   6 101   7 101  55 100  63 100
M  END
>  <TORSDO>  (38) 
F 23

>  <SCORE>  (38) 
-12.835

>  <name>  (38) 
41

>  <ligand_id>  (38) 
41

>  <original_smiles>  (38) 
[H]c1c([H])c([H])c2c(c1[H])C([H])([H])C([H])([H])C([H])([H])C2([H])N([H])C(=O)C1([H])N(C(=O)C([H])(N([H])C(=O)C([H])(N([H])C([H])([H])[H])C([H])([H])[H])C(C([H])([H])[H])(C([H])([H])[H])C([H])([H])[H])C([H])([H])c2c([H])c(OC([H])([H])C([H])([H])[N+]([H])([H])C([H])([H])C([H])([H])N([H])C(=O)C([H])([H])C([H])([H])N([H])C(=O)N3C([H])([H])C([H])([H])C([H])([H])C([H])(n4nc(-c5c([H])c([H])c(Oc6c([H])c([H])c(F)c([H])c6F)c([H])c5[H])c(C(=O)N([H])[H])c4N([H])[H])C3([H])[H])c([H])c([H])c2C1([H])[H]

>  <smiles>  (38) 
[H]c1c([H])c([H])c2c(c1[H])C([H])([H])C([H])([H])C([H])([H])C2([H])N([H])C(=O)C1([H])N(C(=O)C([H])(N([H])C(=O)C([H])(N([H])C([H])([H])[H])C([H])([H])[H])C(C([H])([H])[H])(C([H])([H])[H])C([H])([H])[H])C([H])([H])c2c([H])c(OC([H])([H])C([H])([H])[N+]([H])([H])C([H])([H])C([H])([H])N([H])C(=O)C([H])([H])C([H])([H])N([H])C(=O)N3C([H])([H])C([H])([H])C([H])([H])C([H])(n4nc(-c5c([H])c([H])c(Oc6c([H])c([H])c(F)c([H])c6F)c([H])c5[H])c(C(=O)N([H])[H])c4N([H])[H])C3([H])[H])c([H])c([H])c2C1([H])[H]

$$$$
42:0:0
     RDKit          3D

 94 95  0  0  1  0  0  0  0  0999 V2000
  -23.7020  -26.9770   24.5380 N   0  0  0  0  0  4  0  0  0  0  0  0
  -23.7550  -26.7430   25.5170 H   0  0  0  0  0  0  0  0  0  0  0  0
  -24.3870  -27.7250   24.4000 H   0  0  0  0  0  0  0  0  0  0  0  0
  -24.5750  -25.6520   23.7060 C   0  0  0  0  0  2  0  0  0  0  0  0
  -26.4120  -25.1680   23.1950 C   0  0  0  0  0  1  0  0  0  0  0  0
  -27.4360  -23.8190   22.1790 C   0  0  0  0  0  1  0  0  0  0  0  0
  -29.1310  -23.2800   21.9270 N   0  0  0  0  0  4  0  0  0  0  0  0
  -29.5620  -24.1130   21.5600 H   0  0  0  0  0  0  0  0  0  0  0  0
  -29.4930  -23.2010   22.8610 H   0  0  0  0  0  0  0  0  0  0  0  0
  -30.0040  -21.9870   21.0370 C   0  0  0  0  0  1  0  0  0  0  0  0
  -31.7730  -21.1080   21.0560 C   0  0  0  0  0  1  0  0  0  0  0  0
  -34.0800  -18.9740   20.0450 C   0  0  0  0  0  0  0  0  0  0  0  0
  -35.9460  -17.7380   18.5030 C   0  0  0  0  0  2  0  0  0  0  0  0
  -36.6190  -18.5670   17.3600 C   0  0  0  0  0  2  0  0  0  0  0  0
  -35.6740  -18.7120   16.1560 C   0  0  0  0  0  2  0  0  0  0  0  0
  -34.2310  -18.9730   16.6420 C   0  0  0  0  0  3  0  0  0  0  0  0
  -33.7450  -17.9730   17.6960 C   0  0  0  0  0  2  0  0  0  0  0  0
  -34.5430  -18.2720   18.8680 N   0  0  0  0  0  0  0  0  0  0  0  0
  -34.9630  -18.7910   20.9220 O   0  0  0  0  0  0  0  0  0  0  0  0
  -32.7620  -19.8260   20.2330 N   0  0  0  0  0  0  0  0  0  0  0  0
  -32.5520  -19.2090   21.0090 H   0  0  0  0  0  0  0  0  0  0  0  0
  -32.0680  -19.7450   15.5990 C   0  0  0  0  0  0  0  0  0  0  0  0
  -31.5310  -19.5590   14.3630 C   0  0  0  0  0  0  0  0  0  0  0  0
  -32.4480  -18.7250   13.6490 C   0  0  0  0  0  0  0  0  0  0  0  0
  -33.2630  -19.0570   15.5810 N   0  0  0  0  0  0  0  0  0  0  0  0
  -33.4640  -18.3820   14.4270 N   0  0  0  0  0  0  0  0  0  0  0  0
  -32.4510  -18.2940   12.2510 C   0  0  0  0  0  0  0  0  0  0  0  0
  -32.4780  -16.9280   11.8960 C   0  0  0  0  0  3  0  0  0  0  0  0
  -32.4590  -16.5440   10.5380 C   0  0  0  0  0  3  0  0  0  0  0  0
  -32.4100  -17.5290    9.5240 C   0  0  0  0  0  0  0  0  0  0  0  0
  -32.4070  -18.8890    9.8830 C   0  0  0  0  0  3  0  0  0  0  0  0
  -32.4310  -19.2710   11.2340 C   0  0  0  0  0  3  0  0  0  0  0  0
  -32.4110  -17.2530    8.1800 O   0  0  0  0  0  0  0  0  0  0  0  0
  -31.9170  -16.0710    7.6870 C   0  0  0  0  0  0  0  0  0  0  0  0
  -30.5560  -15.7240    7.8100 C   0  0  0  0  0  3  0  0  0  0  0  0
  -30.0800  -14.5320    7.2300 C   0  0  0  0  0  3  0  0  0  0  0  0
  -30.9580  -13.6930    6.5200 C   0  0  0  0  0  0  0  0  0  0  0  0
  -32.3150  -14.0390    6.3950 C   0  0  0  0  0  3  0  0  0  0  0  0
  -32.7930  -15.2280    6.9750 C   0  0  0  0  0  0  0  0  0  0  0  0
  -34.0980  -15.5670    6.8310 F   0  0  0  0  0  0  0  0  0  0  0  0
  -30.5000  -12.5510    5.9560 F   0  0  0  0  0  0  0  0  0  0  0  0
  -30.2800  -20.2020   13.8450 C   0  0  0  0  0  0  0  0  0  0  0  0
  -29.5400  -19.4980   12.9980 N   0  0  0  0  0  0  0  0  0  0  0  0
  -29.9320  -21.3180   14.2260 O   0  0  0  0  0  0  0  0  0  0  0  0
  -29.8190  -18.5750   12.7030 H   0  0  0  0  0  0  0  0  0  0  0  0
  -28.6790  -19.8870   12.6410 H   0  0  0  0  0  0  0  0  0  0  0  0
  -31.6580  -20.4470   16.7320 N   0  0  0  0  0  0  0  0  0  0  0  0
  -30.8030  -20.9910   16.7460 H   0  0  0  0  0  0  0  0  0  0  0  0
  -32.1710  -20.4860   17.6050 H   0  0  0  0  0  0  0  0  0  0  0  0
  -22.2580  -28.1280   24.3960 C   0  0  0  0  0  1  0  0  0  0  0  0
  -21.4530  -29.2590   22.8160 C   0  0  0  0  0 15  0  0  0  0  0  0
  -21.1290  -28.5660   20.8270 C   0  0  0  0  0 15  0  0  0  0  0  0
  -22.5180  -27.5600   19.6080 C   0  0  0  0  0 15  0  0  0  0  0  0
  -24.3780  -27.5810   19.3940 O   0  0  0  0  0  1  0  0  0  0  0  0
  -24.9660  -31.3200   23.2470 C   0  0  0  0  0  0  0  0  0  0  0  0
  -25.4350  -28.1920   18.5990 C   0  0  0  0  0  3  0  0  0  0  0  0
  -23.7250  -29.8620   21.7050 C   0  0  0  0  0  3  0  0  0  0  0  0
  -24.0150  -30.1630   19.2190 C   0  0  0  0  0  3  0  0  0  0  0  0
  -25.6080  -31.1560   20.8430 C   0  0  0  0  0  2  0  0  0  0  0  0
  -25.3300  -30.2610   19.6530 C   0  0  0  0  0  3  0  0  0  0  0  0
  -26.1770  -29.2570   19.1970 C   0  0  0  0  0  2  0  0  0  0  0  0
  -24.6970  -28.5580   17.5230 C   0  0  0  0  0  2  0  0  0  0  0  0
  -23.7310  -29.4520   18.0110 C   0  0  0  0  0  2  0  0  0  0  0  0
  -23.0740  -30.4320   20.3430 C   0  0  0  0  0  2  0  0  0  0  0  0
  -24.7980  -30.7840   22.0120 N   0  0  0  0  0  0  0  0  0  0  0  0
  -24.1680  -31.1870   24.1850 O   0  0  0  0  0  0  0  0  0  0  0  0
  -24.2560  -28.2070   21.9210 C   0  0  0  0  0  0  0  0  0  0  0  0
  -23.5640  -26.8370   21.5400 N   0  0  0  0  0  0  0  0  0  0  0  0
  -25.1620  -28.1230   22.6910 O   0  0  0  0  0  0  0  0  0  0  0  0
  -24.3100  -26.2130   21.2780 H   0  0  0  0  0  0  0  0  0  0  0  0
  -19.3650  -25.2660   21.3270 C   0  0  0  0  0  0  0  0  0  0  0  0
  -22.0450  -25.9060   21.7210 C   0  0  0  0  0  3  0  0  0  0  0  0
  -22.2850  -24.8020   20.7760 C   0  0  0  0  0  2  0  0  0  0  0  0
  -21.1780  -24.5300   19.7870 C   0  0  0  0  0  2  0  0  0  0  0  0
  -19.9100  -24.1270   20.5130 C   0  0  0  0  0  2  0  0  0  0  0  0
  -20.2980  -26.1390   21.9770 C   0  0  0  0  0  0  0  0  0  0  0  0
  -19.5210  -26.9440   22.9370 C   0  0  0  0  0  3  0  0  0  0  0  0
  -18.1010  -27.0680   23.0280 C   0  0  0  0  0  3  0  0  0  0  0  0
  -17.2860  -26.2350   22.2640 C   0  0  0  0  0  3  0  0  0  0  0  0
  -17.9440  -25.3140   21.4470 C   0  0  0  0  0  3  0  0  0  0  0  0
  -26.2470  -32.1190   23.5220 C   0  0  0  0  0  3  0  0  0  0  0  0
  -27.2220  -31.3560   24.4920 C   0  0  1  0  0  0  0  0  0  0  0  0
  -26.5230  -30.8310   25.7650 C   0  0  0  0  0  1  0  0  0  0  0  0
  -27.9090  -30.1520   23.8100 C   0  0  0  0  0  1  0  0  0  0  0  0
  -28.3650  -32.3040   24.9040 C   0  0  0  0  0  1  0  0  0  0  0  0
  -25.8330  -33.4060   24.0860 N   0  0  0  0  0  0  0  0  0  0  0  0
  -25.8420  -34.5570   23.4050 C   0  0  0  0  0  0  0  0  0  0  0  0
  -26.2550  -34.6470   22.2470 O   0  0  0  0  0  0  0  0  0  0  0  0
  -25.4240  -33.4020   25.0090 H   0  0  0  0  0  0  0  0  0  0  0  0
  -23.9110  -36.1490   23.6470 C   0  0  0  0  0  1  0  0  0  0  0  0
  -25.3270  -35.8100   24.1370 C   0  0  0  0  0  3  0  0  0  0  0  0
  -27.4960  -36.8290   24.6620 C   0  0  0  0  0  1  0  0  0  0  0  0
  -26.2110  -36.9870   23.9840 N   0  0  0  0  0  0  0  0  0  0  0  0
  -25.7590  -37.8240   24.3430 H   0  0  0  0  0  0  0  0  0  0  0  0
  1  2  1  0
  3  1  1  0
  4  1  1  0
  5  4  1  0
  7  6  1  0
  7  9  1  0
  8  7  1  0
 10  7  1  0
 12 20  1  0
 12 19  2  0
 13 18  1  0
 14 13  1  0
 15 16  1  0
 15 14  1  0
 16 25  1  0
 16 17  1  0
 17 18  1  0
 18 12  1  0
 20 21  1  0
 20 11  1  0
 22 47  1  0
 23 22  2  0
 24 23  1  0
 24 26  2  0
 25 22  1  0
 26 25  1  0
 27 24  1  0
 28 27  1  0
 29 28  2  0
 30 31  2  0
 30 29  1  0
 31 32  1  0
 32 27  2  0
 33 30  1  0
 34 35  1  0
 34 33  1  0
 36 35  2  0
 37 36  1  0
 38 37  2  0
 38 39  1  0
 39 34  2  0
 40 39  1  0
 41 37  1  0
 42 44  2  0
 42 23  1  0
 43 42  1  0
 45 43  1  0
 46 43  1  0
 47 48  1  0
 47 49  1  0
 50  1  1  0
 55 66  2  0
 56 61  1  0
 56 54  1  0
 57 67  1  0
 57 65  1  0
 58 63  1  0
 58 60  1  0
 58 64  1  0
 59 65  1  0
 60 61  1  0
 60 59  1  0
 62 63  1  0
 62 56  1  0
 64 57  1  0
 65 55  1  0
 67 69  2  0
 68 67  1  0
 70 68  1  0
 71 80  2  0
 71 76  1  0
 72 68  1  0
 72 76  1  0
 73 72  1  0
 74 75  1  0
 74 73  1  0
 75 71  1  0
 76 77  2  0
 77 78  1  0
 79 78  2  0
 80 79  1  0
 81 55  1  0
 81 86  1  0
 81 82  1  0
 82 85  1  1
 82 83  1  0
 84 82  1  0
 86 89  1  0
 87 86  1  0
 87 91  1  0
 88 87  2  0
 91 90  1  0
 93 91  1  0
 93 94  1  0
 93 92  1  0
M  ISO  4  12 100  20 100  53 101  54 101
M  END
>  <TORSDO>  (39) 
F 26

>  <SCORE>  (39) 
-6.547

>  <name>  (39) 
42

>  <ligand_id>  (39) 
42

>  <original_smiles>  (39) 
[H]c1c([H])c([H])c2c(c1[H])C([H])([H])C([H])([H])C([H])([H])C2([H])N([H])C(=O)C1([H])N(C(=O)C([H])(N([H])C(=O)C([H])(N([H])C([H])([H])[H])C([H])([H])[H])C(C([H])([H])[H])(C([H])([H])[H])C([H])([H])[H])C([H])([H])c2c([H])c(OC([H])([H])C([H])([H])C([H])([H])C([H])([H])[N+]([H])([H])C([H])([H])C([H])([H])C([H])([H])[N+]([H])([H])C([H])([H])C([H])([H])N([H])C(=O)N3C([H])([H])C([H])([H])C([H])([H])C([H])(n4nc(-c5c([H])c([H])c(Oc6c([H])c([H])c(F)c([H])c6F)c([H])c5[H])c(C(=O)N([H])[H])c4N([H])[H])C3([H])[H])c([H])c([H])c2C1([H])[H]

>  <smiles>  (39) 
[H]c1c([H])c([H])c2c(c1[H])C([H])([H])C([H])([H])C([H])([H])C2([H])N([H])C(=O)C1([H])N(C(=O)C([H])(N([H])C(=O)C([H])(N([H])C([H])([H])[H])C([H])([H])[H])C(C([H])([H])[H])(C([H])([H])[H])C([H])([H])[H])C([H])([H])c2c([H])c(OC([H])([H])C([H])([H])C([H])([H])C([H])([H])[N+]([H])([H])C([H])([H])C([H])([H])C([H])([H])[N+]([H])([H])C([H])([H])C([H])([H])N([H])C(=O)N3C([H])([H])C([H])([H])C([H])([H])C([H])(n4nc(-c5c([H])c([H])c(Oc6c([H])c([H])c(F)c([H])c6F)c([H])c5[H])c(C(=O)N([H])[H])c4N([H])[H])C3([H])[H])c([H])c([H])c2C1([H])[H]

$$$$
43:0:0
     RDKit          3D

 98105  0  0  1  0  0  0  0  0999 V2000
  -28.6520  -23.3550   18.0530 C   0  0  0  0  0  2  0  0  0  0  0  0
  -28.2150  -24.7510   17.8530 N   0  0  0  0  0  4  0  0  0  0  0  0
  -28.2940  -25.2700   18.7180 H   0  0  0  0  0  0  0  0  0  0  0  0
  -27.2390  -24.7180   17.5980 H   0  0  0  0  0  0  0  0  0  0  0  0
  -28.9240  -25.4810   16.7760 C   0  0  0  0  0  2  0  0  0  0  0  0
  -30.3800  -25.8590   17.1230 C   0  0  0  0  0  2  0  0  0  0  0  0
  -30.3870  -26.9330   18.0590 O   0  0  0  0  0  0  0  0  0  0  0  0
  -30.6610  -26.5870   19.4130 C   0  0  0  0  0  2  0  0  0  0  0  0
  -29.6440  -27.3380   20.2770 C   0  0  0  0  0  2  0  0  0  0  0  0
  -28.3980  -26.6580   20.1390 O   0  0  0  0  0  0  0  0  0  0  0  0
  -24.5590  -31.8300   23.2750 C   0  0  0  0  0  0  0  0  0  0  0  0
  -27.2500  -27.4140   20.2270 C   0  0  0  0  0  0  0  0  0  0  0  0
  -23.3730  -30.4330   21.6090 C   0  0  0  0  0  3  0  0  0  0  0  0
  -24.8420  -28.8850   20.2200 C   0  0  0  0  0  0  0  0  0  0  0  0
  -25.8980  -30.7890   21.4540 C   0  0  0  0  0  2  0  0  0  0  0  0
  -25.9870  -29.4170   20.8260 C   0  0  0  0  0  0  0  0  0  0  0  0
  -27.1910  -28.6870   20.8390 C   0  0  0  0  0  3  0  0  0  0  0  0
  -26.0820  -26.8760   19.6500 C   0  0  0  0  0  3  0  0  0  0  0  0
  -24.8800  -27.6060   19.6360 C   0  0  0  0  0  3  0  0  0  0  0  0
  -23.5950  -29.7360   20.2400 C   0  0  0  0  0  2  0  0  0  0  0  0
  -24.6260  -31.0330   22.1710 N   0  0  0  0  0  0  0  0  0  0  0  0
  -23.4720  -32.1090   23.7980 O   0  0  0  0  0  0  0  0  0  0  0  0
  -22.6990  -29.4220   22.5620 C   0  0  0  0  0  0  0  0  0  0  0  0
  -21.3810  -29.2320   22.3910 N   0  0  0  0  0  0  0  0  0  0  0  0
  -23.3620  -28.8050   23.4000 O   0  0  0  0  0  0  0  0  0  0  0  0
  -20.9110  -29.7760   21.6800 H   0  0  0  0  0  0  0  0  0  0  0  0
  -18.0070  -28.0050   22.7720 C   0  0  0  0  0  0  0  0  0  0  0  0
  -20.5470  -28.2970   23.1420 C   0  0  0  0  0  3  0  0  0  0  0  0
  -20.6920  -26.8610   22.5900 C   0  0  0  0  0  2  0  0  0  0  0  0
  -19.6340  -26.5090   21.5380 C   0  0  0  0  0  2  0  0  0  0  0  0
  -18.2250  -26.6490   22.1230 C   0  0  0  0  0  2  0  0  0  0  0  0
  -19.0980  -28.7860   23.2350 C   0  0  0  0  0  0  0  0  0  0  0  0
  -18.8440  -30.0550   23.7970 C   0  0  0  0  0  3  0  0  0  0  0  0
  -17.5290  -30.5430   23.9060 C   0  0  0  0  0  3  0  0  0  0  0  0
  -16.4500  -29.7600   23.4600 C   0  0  0  0  0  3  0  0  0  0  0  0
  -16.6900  -28.4930   22.9000 C   0  0  0  0  0  3  0  0  0  0  0  0
  -25.8400  -32.4470   23.9220 C   0  0  0  0  0  3  0  0  0  0  0  0
  -25.5370  -33.8480   24.2440 N   0  0  0  0  0  0  0  0  0  0  0  0
  -25.8960  -34.8960   23.4910 C   0  0  0  0  0  0  0  0  0  0  0  0
  -26.5880  -34.7850   22.4760 O   0  0  0  0  0  0  0  0  0  0  0  0
  -24.9240  -34.0100   25.0300 H   0  0  0  0  0  0  0  0  0  0  0  0
  -24.1870  -36.7040   23.0980 C   0  0  0  0  0  1  0  0  0  0  0  0
  -25.4080  -36.2890   23.9350 C   0  0  0  0  0  3  0  0  0  0  0  0
  -27.5370  -37.1540   24.8020 C   0  0  0  0  0  1  0  0  0  0  0  0
  -26.4490  -37.3350   23.8460 N   0  0  0  0  0  0  0  0  0  0  0  0
  -26.0460  -38.2570   23.9960 H   0  0  0  0  0  0  0  0  0  0  0  0
  -26.3310  -31.6710   25.2060 C   0  0  1  0  0  0  0  0  0  0  0  0
  -25.2210  -31.4370   26.2560 C   0  0  0  0  0  1  0  0  0  0  0  0
  -26.9170  -30.2910   24.8280 C   0  0  0  0  0  1  0  0  0  0  0  0
  -27.4720  -32.4630   25.8900 C   0  0  0  0  0  1  0  0  0  0  0  0
  -27.9840  -22.6990   19.2730 C   0  0  0  0  0  2  0  0  0  0  0  0
  -28.3440  -21.2090   19.3570 C   0  0  0  0  0  2  0  0  0  0  0  0
  -27.8170  -20.5310   20.6310 C   0  0  0  0  0  2  0  0  0  0  0  0
  -28.0670  -19.0110   20.6510 C   0  0  0  0  0  2  0  0  0  0  0  0
  -29.5060  -18.6960   20.7820 N   0  0  0  0  0  4  0  0  0  0  0  0
  -29.8970  -19.2670   21.5140 H   0  0  0  0  0  0  0  0  0  0  0  0
  -29.9670  -18.9380   19.9210 H   0  0  0  0  0  0  0  0  0  0  0  0
  -29.8060  -17.2830   21.0830 C   0  0  0  0  0  2  0  0  0  0  0  0
  -31.3180  -17.0050   20.9710 C   0  0  0  0  0  2  0  0  0  0  0  0
  -31.7680  -15.6480   21.5440 C   0  0  0  0  0  2  0  0  0  0  0  0
  -31.2780  -13.7250   20.0010 C   0  0  0  0  0  0  0  0  0  0  0  0
  -30.7440  -11.5590   18.9400 C   0  0  0  0  0  2  0  0  0  0  0  0
  -29.7710  -11.6990   17.7560 C   0  0  0  0  0  2  0  0  0  0  0  0
  -28.3100  -11.6980   18.2420 C   0  0  0  0  0  2  0  0  0  0  0  0
  -28.0710  -12.6940   19.4060 C   0  0  0  0  0  3  0  0  0  0  0  0
  -29.1340  -12.5030   20.5090 C   0  0  0  0  0  2  0  0  0  0  0  0
  -30.4730  -12.6390   19.8990 N   0  0  0  0  0  0  0  0  0  0  0  0
  -32.2530  -13.9300   19.2700 O   0  0  0  0  0  0  0  0  0  0  0  0
  -30.9890  -14.5170   21.0420 N   0  0  0  0  0  0  0  0  0  0  0  0
  -30.2020  -14.2220   21.6030 H   0  0  0  0  0  0  0  0  0  0  0  0
  -25.7820  -13.5680   20.2020 C   0  0  0  0  0  0  0  0  0  0  0  0
  -24.6550  -12.9200   20.6260 C   0  0  0  0  0  0  0  0  0  0  0  0
  -24.9630  -11.5240   20.5890 C   0  0  0  0  0  0  0  0  0  0  0  0
  -26.7160  -12.5760   19.9390 N   0  0  0  0  0  0  0  0  0  0  0  0
  -26.2270  -11.3430   20.2260 N   0  0  0  0  0  0  0  0  0  0  0  0
  -24.1140  -10.3500   20.8240 C   0  0  0  0  0  0  0  0  0  0  0  0
  -24.4720   -9.3550   21.7620 C   0  0  0  0  0  3  0  0  0  0  0  0
  -23.6290   -8.2440   21.9820 C   0  0  0  0  0  3  0  0  0  0  0  0
  -22.4150   -8.1200   21.2670 C   0  0  0  0  0  0  0  0  0  0  0  0
  -22.0750   -9.1020   20.3190 C   0  0  0  0  0  3  0  0  0  0  0  0
  -22.9160  -10.2040   20.0960 C   0  0  0  0  0  3  0  0  0  0  0  0
  -21.5470   -7.0620   21.3960 O   0  0  0  0  0  0  0  0  0  0  0  0
  -21.4610   -6.3430   22.5610 C   0  0  0  0  0  0  0  0  0  0  0  0
  -21.1340   -6.9540   23.7920 C   0  0  0  0  0  3  0  0  0  0  0  0
  -20.9860   -6.1670   24.9520 C   0  0  0  0  0  3  0  0  0  0  0  0
  -21.1510   -4.7700   24.8820 C   0  0  0  0  0  0  0  0  0  0  0  0
  -21.4720   -4.1600   23.6560 C   0  0  0  0  0  3  0  0  0  0  0  0
  -21.6210   -4.9440   22.4990 C   0  0  0  0  0  0  0  0  0  0  0  0
  -21.9080   -4.3480   21.3160 F   0  0  0  0  0  0  0  0  0  0  0  0
  -21.0020   -4.0130   25.9930 F   0  0  0  0  0  0  0  0  0  0  0  0
  -23.3300  -13.5460   20.9540 C   0  0  0  0  0  0  0  0  0  0  0  0
  -22.5790  -12.9490   21.8730 N   0  0  0  0  0  0  0  0  0  0  0  0
  -22.9740  -14.6010   20.4300 O   0  0  0  0  0  0  0  0  0  0  0  0
  -22.8780  -12.0920   22.3160 H   0  0  0  0  0  0  0  0  0  0  0  0
  -21.6920  -13.3540   22.1370 H   0  0  0  0  0  0  0  0  0  0  0  0
  -26.0870  -14.9110   20.0010 N   0  0  0  0  0  0  0  0  0  0  0  0
  -25.3920  -15.6410   20.1120 H   0  0  0  0  0  0  0  0  0  0  0  0
  -26.9540  -15.2440   19.5990 H   0  0  0  0  0  0  0  0  0  0  0  0
  1 51  1  0
  2  1  1  0
  2  3  1  0
  4  2  1  0
  5  6  1  0
  5  2  1  0
  6  7  1  0
  7  8  1  0
  8  9  1  0
 10 12  1  0
 10  9  1  0
 11 22  2  0
 12 17  1  0
 13 21  1  0
 13 23  1  0
 14 20  1  0
 14 16  1  0
 15 21  1  0
 16 17  2  0
 16 15  1  0
 18 12  2  0
 19 18  1  0
 19 14  2  0
 20 13  1  0
 21 11  1  0
 23 25  2  0
 24 23  1  0
 26 24  1  0
 27 36  2  0
 27 32  1  0
 28 24  1  0
 28 32  1  0
 29 28  1  0
 30 31  1  0
 30 29  1  0
 31 27  1  0
 32 33  2  0
 33 34  1  0
 35 34  2  0
 36 35  1  0
 37 11  1  0
 37 38  1  0
 37 47  1  0
 38 41  1  0
 39 43  1  0
 39 38  1  0
 40 39  2  0
 43 42  1  0
 45 43  1  0
 45 46  1  0
 45 44  1  0
 47 50  1  1
 47 48  1  0
 49 47  1  0
 51 52  1  0
 52 53  1  0
 53 54  1  0
 54 55  1  0
 55 58  1  0
 55 56  1  0
 57 55  1  0
 59 58  1  0
 59 60  1  0
 61 69  1  0
 62 67  1  0
 63 64  1  0
 63 62  1  0
 65 64  1  0
 65 74  1  0
 65 66  1  0
 67 61  1  0
 67 66  1  0
 68 61  2  0
 69 60  1  0
 69 70  1  0
 71 72  2  0
 72 91  1  0
 73 72  1  0
 73 76  1  0
 74 71  1  0
 74 75  1  0
 75 73  2  0
 76 77  1  0
 77 78  2  0
 79 82  1  0
 79 78  1  0
 80 79  2  0
 81 80  1  0
 81 76  2  0
 82 83  1  0
 83 84  1  0
 84 85  2  0
 86 85  1  0
 86 90  1  0
 87 86  2  0
 88 83  2  0
 88 87  1  0
 89 88  1  0
 91 92  1  0
 92 95  1  0
 92 94  1  0
 93 91  2  0
 96 97  1  0
 96 71  1  0
 98 96  1  0
M  ISO  4   9 101  10 101  61 100  69 100
M  END
>  <TORSDO>  (40) 
F 30

>  <SCORE>  (40) 
-10.061

>  <name>  (40) 
43

>  <ligand_id>  (40) 
43

>  <original_smiles>  (40) 
[H]c1c([H])c([H])c2c(c1[H])C([H])([H])C([H])([H])C([H])([H])C2([H])N([H])C(=O)C1([H])N(C(=O)C([H])(N([H])C(=O)C([H])(N([H])C([H])([H])[H])C([H])([H])[H])C(C([H])([H])[H])(C([H])([H])[H])C([H])([H])[H])C([H])([H])c2c([H])c(OC([H])([H])C([H])([H])OC([H])([H])C([H])([H])[N+]([H])([H])C([H])([H])C([H])([H])C([H])([H])C([H])([H])C([H])([H])[N+]([H])([H])C([H])([H])C([H])([H])C([H])([H])N([H])C(=O)N3C([H])([H])C([H])([H])C([H])([H])C([H])(n4nc(-c5c([H])c([H])c(Oc6c([H])c([H])c(F)c([H])c6F)c([H])c5[H])c(C(=O)N([H])[H])c4N([H])[H])C3([H])[H])c([H])c([H])c2C1([H])[H]

>  <smiles>  (40) 
[H]c1c([H])c([H])c2c(c1[H])C([H])([H])C([H])([H])C([H])([H])C2([H])N([H])C(=O)C1([H])N(C(=O)C([H])(N([H])C(=O)C([H])(N([H])C([H])([H])[H])C([H])([H])[H])C(C([H])([H])[H])(C([H])([H])[H])C([H])([H])[H])C([H])([H])c2c([H])c(OC([H])([H])C([H])([H])OC([H])([H])C([H])([H])[N+]([H])([H])C([H])([H])C([H])([H])C([H])([H])C([H])([H])C([H])([H])[N+]([H])([H])C([H])([H])C([H])([H])C([H])([H])N([H])C(=O)N3C([H])([H])C([H])([H])C([H])([H])C([H])(n4nc(-c5c([H])c([H])c(Oc6c([H])c([H])c(F)c([H])c6F)c([H])c5[H])c(C(=O)N([H])[H])c4N([H])[H])C3([H])[H])c([H])c([H])c2C1([H])[H]

$$$$
45:0:0
     RDKit          3D

 96103  0  0  1  0  0  0  0  0999 V2000
  -29.4320  -23.3480   23.4230 C   0  0  0  0  0  2  0  0  0  0  0  0
  -29.1620  -21.8450   23.2950 C   0  0  0  0  0  2  0  0  0  0  0  0
  -30.3630  -21.2350   22.7460 N   0  0  0  0  0  0  0  0  0  0  0  0
  -31.1670  -21.4370   23.3370 H   0  0  0  0  0  0  0  0  0  0  0  0
  -30.2190  -19.7980   22.5640 C   0  0  0  0  0  2  0  0  0  0  0  0
  -31.2590  -19.3470   21.5270 C   0  0  0  0  0  2  0  0  0  0  0  0
  -31.2130  -17.8950   21.2850 N   0  0  0  0  0  4  0  0  0  0  0  0
  -31.4040  -17.4190   22.1510 H   0  0  0  0  0  0  0  0  0  0  0  0
  -30.2870  -17.6380   20.9820 H   0  0  0  0  0  0  0  0  0  0  0  0
  -32.1830  -17.4460   20.2660 C   0  0  0  0  0  2  0  0  0  0  0  0
  -32.5110  -15.9530   20.4000 C   0  0  0  0  0  2  0  0  0  0  0  0
  -31.3390  -14.3000   18.9710 C   0  0  0  0  0  0  0  0  0  0  0  0
  -30.9210  -11.9390   18.4340 C   0  0  0  0  0  2  0  0  0  0  0  0
  -29.8180  -11.6880   17.3950 C   0  0  0  0  0  2  0  0  0  0  0  0
  -28.4400  -11.6320   18.0750 C   0  0  0  0  0  2  0  0  0  0  0  0
  -28.1850  -12.8500   18.9980 C   0  0  0  0  0  3  0  0  0  0  0  0
  -29.3750  -13.0820   19.9540 C   0  0  0  0  0  2  0  0  0  0  0  0
  -30.6170  -13.1740   19.1630 N   0  0  0  0  0  0  0  0  0  0  0  0
  -32.0920  -14.4870   18.0100 O   0  0  0  0  0  0  0  0  0  0  0  0
  -31.3910  -15.0740   20.0620 N   0  0  0  0  0  0  0  0  0  0  0  0
  -30.7870  -14.7890   20.8190 H   0  0  0  0  0  0  0  0  0  0  0  0
  -26.0740  -13.6880   20.2140 C   0  0  0  0  0  0  0  0  0  0  0  0
  -25.0030  -13.0230   20.7510 C   0  0  0  0  0  0  0  0  0  0  0  0
  -25.2620  -11.6330   20.5490 C   0  0  0  0  0  0  0  0  0  0  0  0
  -26.9250  -12.7080   19.7270 N   0  0  0  0  0  0  0  0  0  0  0  0
  -26.4490  -11.4620   19.9800 N   0  0  0  0  0  0  0  0  0  0  0  0
  -24.4210  -10.4570   20.8120 C   0  0  0  0  0  0  0  0  0  0  0  0
  -24.8160   -9.4570   21.7280 C   0  0  0  0  0  3  0  0  0  0  0  0
  -23.9820   -8.3450   21.9780 C   0  0  0  0  0  3  0  0  0  0  0  0
  -22.7390   -8.2260   21.3100 C   0  0  0  0  0  0  0  0  0  0  0  0
  -22.3630   -9.2130   20.3820 C   0  0  0  0  0  3  0  0  0  0  0  0
  -23.1960  -10.3150   20.1320 C   0  0  0  0  0  3  0  0  0  0  0  0
  -21.8760   -7.1690   21.4700 O   0  0  0  0  0  0  0  0  0  0  0  0
  -21.7380   -6.5290   22.6770 C   0  0  0  0  0  0  0  0  0  0  0  0
  -21.3320   -7.2160   23.8410 C   0  0  0  0  0  3  0  0  0  0  0  0
  -21.1330   -6.5080   25.0430 C   0  0  0  0  0  3  0  0  0  0  0  0
  -21.3300   -5.1150   25.0820 C   0  0  0  0  0  0  0  0  0  0  0  0
  -21.7300   -4.4280   23.9210 C   0  0  0  0  0  3  0  0  0  0  0  0
  -21.9300   -5.1340   22.7220 C   0  0  0  0  0  0  0  0  0  0  0  0
  -22.2940   -4.4650   21.6020 F   0  0  0  0  0  0  0  0  0  0  0  0
  -21.1330   -4.4330   26.2330 F   0  0  0  0  0  0  0  0  0  0  0  0
  -23.7640  -13.6420   21.3310 C   0  0  0  0  0  0  0  0  0  0  0  0
  -23.1460  -12.9810   22.3040 N   0  0  0  0  0  0  0  0  0  0  0  0
  -23.3640  -14.7430   20.9560 O   0  0  0  0  0  0  0  0  0  0  0  0
  -23.4850  -12.0860   22.6260 H   0  0  0  0  0  0  0  0  0  0  0  0
  -22.3220  -13.3770   22.7350 H   0  0  0  0  0  0  0  0  0  0  0  0
  -26.3860  -15.0380   20.0820 N   0  0  0  0  0  0  0  0  0  0  0  0
  -25.7500  -15.7730   20.3750 H   0  0  0  0  0  0  0  0  0  0  0  0
  -27.2090  -15.3920   19.6100 H   0  0  0  0  0  0  0  0  0  0  0  0
  -28.1920  -24.2100   23.1310 C   0  0  0  0  0  2  0  0  0  0  0  0
  -28.5770  -25.5510   22.6450 N   0  0  0  0  0  4  0  0  0  0  0  0
  -29.3250  -25.8990   23.2260 H   0  0  0  0  0  0  0  0  0  0  0  0
  -27.7870  -26.1660   22.7740 H   0  0  0  0  0  0  0  0  0  0  0  0
  -28.9730  -25.5710   21.2150 C   0  0  0  0  0  2  0  0  0  0  0  0
  -29.5890  -26.9130   20.7780 C   0  0  0  0  0  2  0  0  0  0  0  0
  -29.0080  -27.3020   19.5360 O   0  0  0  0  0  0  0  0  0  0  0  0
  -24.6750  -31.6440   23.1380 C   0  0  0  0  0  0  0  0  0  0  0  0
  -27.7660  -27.8710   19.6540 C   0  0  0  0  0  0  0  0  0  0  0  0
  -23.6020  -30.2320   21.4100 C   0  0  0  0  0  3  0  0  0  0  0  0
  -25.1950  -29.0050   19.8420 C   0  0  0  0  0  0  0  0  0  0  0  0
  -26.0450  -30.9370   21.1850 C   0  0  0  0  0  2  0  0  0  0  0  0
  -26.2870  -29.6420   20.4440 C   0  0  0  0  0  0  0  0  0  0  0  0
  -27.5750  -29.0810   20.3540 C   0  0  0  0  0  3  0  0  0  0  0  0
  -26.6650  -27.2370   19.0470 C   0  0  0  0  0  3  0  0  0  0  0  0
  -25.3760  -27.7950   19.1430 C   0  0  0  0  0  3  0  0  0  0  0  0
  -23.8530  -29.6850   19.9790 C   0  0  0  0  0  2  0  0  0  0  0  0
  -24.7920  -30.9470   21.9720 N   0  0  0  0  0  0  0  0  0  0  0  0
  -23.5850  -31.7370   23.7200 O   0  0  0  0  0  0  0  0  0  0  0  0
  -23.1120  -29.0670   22.2980 C   0  0  0  0  0  0  0  0  0  0  0  0
  -21.8340  -28.6920   22.1330 N   0  0  0  0  0  0  0  0  0  0  0  0
  -23.8780  -28.5070   23.0860 O   0  0  0  0  0  0  0  0  0  0  0  0
  -21.2720  -29.2060   21.4670 H   0  0  0  0  0  0  0  0  0  0  0  0
  -18.6950  -26.9340   22.4500 C   0  0  0  0  0  0  0  0  0  0  0  0
  -21.1640  -27.5950   22.8290 C   0  0  0  0  0  3  0  0  0  0  0  0
  -21.5210  -26.2320   22.1920 C   0  0  0  0  0  2  0  0  0  0  0  0
  -20.5190  -25.7840   21.1250 C   0  0  0  0  0  2  0  0  0  0  0  0
  -19.1120  -25.6670   21.7210 C   0  0  0  0  0  2  0  0  0  0  0  0
  -19.6590  -27.8470   22.9560 C   0  0  0  0  0  0  0  0  0  0  0  0
  -19.2170  -29.0260   23.5950 C   0  0  0  0  0  3  0  0  0  0  0  0
  -17.8440  -29.3000   23.7310 C   0  0  0  0  0  3  0  0  0  0  0  0
  -16.8930  -28.3880   23.2420 C   0  0  0  0  0  3  0  0  0  0  0  0
  -17.3200  -27.2040   22.6090 C   0  0  0  0  0  3  0  0  0  0  0  0
  -25.8940  -32.3770   23.7800 C   0  0  0  0  0  3  0  0  0  0  0  0
  -25.4570  -33.7340   24.1330 N   0  0  0  0  0  0  0  0  0  0  0  0
  -25.7150  -34.8270   23.4030 C   0  0  0  0  0  0  0  0  0  0  0  0
  -26.4150  -34.8050   22.3870 O   0  0  0  0  0  0  0  0  0  0  0  0
  -24.8370  -33.8210   24.9260 H   0  0  0  0  0  0  0  0  0  0  0  0
  -23.8500  -36.4670   23.0300 C   0  0  0  0  0  1  0  0  0  0  0  0
  -25.0950  -36.1560   23.8740 C   0  0  0  0  0  3  0  0  0  0  0  0
  -27.1180  -37.1990   24.7940 C   0  0  0  0  0  1  0  0  0  0  0  0
  -26.0360  -37.2940   23.8170 N   0  0  0  0  0  0  0  0  0  0  0  0
  -25.5490  -38.1730   23.9700 H   0  0  0  0  0  0  0  0  0  0  0  0
  -26.4740  -31.6290   25.0430 C   0  0  1  0  0  0  0  0  0  0  0  0
  -25.4040  -31.2570   26.0940 C   0  0  0  0  0  1  0  0  0  0  0  0
  -27.1920  -30.3260   24.6180 C   0  0  0  0  0  1  0  0  0  0  0  0
  -27.5370  -32.5170   25.7350 C   0  0  0  0  0  1  0  0  0  0  0  0
  2  1  1  0
  3  2  1  0
  3  4  1  0
  5  3  1  0
  6  5  1  0
  7  6  1  0
  7  8  1  0
  9  7  1  0
 10 11  1  0
 10  7  1  0
 12 18  1  0
 12 20  1  0
 13 18  1  0
 14 15  1  0
 14 13  1  0
 16 15  1  0
 16 25  1  0
 16 17  1  0
 18 17  1  0
 19 12  2  0
 20 11  1  0
 20 21  1  0
 22 23  2  0
 23 42  1  0
 24 23  1  0
 24 27  1  0
 25 26  1  0
 25 22  1  0
 26 24  2  0
 27 28  1  0
 28 29  2  0
 30 33  1  0
 30 29  1  0
 31 30  2  0
 32 31  1  0
 32 27  2  0
 33 34  1  0
 34 39  2  0
 34 35  1  0
 35 36  2  0
 36 37  1  0
 37 41  1  0
 38 37  2  0
 39 38  1  0
 40 39  1  0
 42 43  1  0
 43 45  1  0
 43 46  1  0
 44 42  2  0
 47 22  1  0
 47 48  1  0
 49 47  1  0
 50  1  1  0
 51 53  1  0
 51 50  1  0
 51 52  1  0
 54 51  1  0
 55 54  1  0
 56 58  1  0
 56 55  1  0
 57 68  2  0
 58 63  1  0
 59 67  1  0
 59 69  1  0
 60 66  1  0
 60 62  1  0
 61 67  1  0
 62 61  1  0
 63 62  2  0
 64 65  1  0
 64 58  2  0
 65 60  2  0
 66 59  1  0
 67 57  1  0
 69 71  2  0
 70 69  1  0
 72 70  1  0
 73 82  2  0
 73 78  1  0
 74 70  1  0
 74 78  1  0
 75 74  1  0
 76 77  1  0
 76 75  1  0
 77 73  1  0
 78 79  2  0
 79 80  1  0
 81 80  2  0
 82 81  1  0
 83 57  1  0
 83 84  1  0
 83 93  1  0
 84 87  1  0
 85 89  1  0
 85 84  1  0
 86 85  2  0
 89 88  1  0
 91 89  1  0
 91 92  1  0
 91 90  1  0
 93 96  1  1
 93 94  1  0
 95 93  1  0
M  ISO  4  12 100  20 100  55 101  56 101
M  END
>  <TORSDO>  (41) 
F 27

>  <SCORE>  (41) 
-7.636

>  <name>  (41) 
45

>  <ligand_id>  (41) 
45

>  <original_smiles>  (41) 
[H]c1c([H])c([H])c2c(c1[H])C([H])([H])C([H])([H])C([H])([H])C2([H])N([H])C(=O)C1([H])N(C(=O)C([H])(N([H])C(=O)C([H])(N([H])C([H])([H])[H])C([H])([H])[H])C(C([H])([H])[H])(C([H])([H])[H])C([H])([H])[H])C([H])([H])c2c([H])c(OC([H])([H])C([H])([H])[N+]([H])([H])C([H])([H])C([H])([H])C([H])([H])N([H])C([H])([H])C([H])([H])[N+]([H])([H])C([H])([H])C([H])([H])N([H])C(=O)N3C([H])([H])C([H])([H])C([H])([H])C([H])(n4nc(-c5c([H])c([H])c(Oc6c([H])c([H])c(F)c([H])c6F)c([H])c5[H])c(C(=O)N([H])[H])c4N([H])[H])C3([H])[H])c([H])c([H])c2C1([H])[H]

>  <smiles>  (41) 
[H]c1c([H])c([H])c2c(c1[H])C([H])([H])C([H])([H])C([H])([H])C2([H])N([H])C(=O)C1([H])N(C(=O)C([H])(N([H])C(=O)C([H])(N([H])C([H])([H])[H])C([H])([H])[H])C(C([H])([H])[H])(C([H])([H])[H])C([H])([H])[H])C([H])([H])c2c([H])c(OC([H])([H])C([H])([H])[N+]([H])([H])C([H])([H])C([H])([H])C([H])([H])N([H])C([H])([H])C([H])([H])[N+]([H])([H])C([H])([H])C([H])([H])N([H])C(=O)N3C([H])([H])C([H])([H])C([H])([H])C([H])(n4nc(-c5c([H])c([H])c(Oc6c([H])c([H])c(F)c([H])c6F)c([H])c5[H])c(C(=O)N([H])[H])c4N([H])[H])C3([H])[H])c([H])c([H])c2C1([H])[H]

$$$$
46:0:0
     RDKit          3D

102106  0  0  1  0  0  0  0  0999 V2000
  -31.6410  -18.4570   20.9380 C   0  0  0  0  0  2  0  0  0  0  0  0
  -32.0420  -17.3810   21.8760 N   0  0  0  0  0  4  0  0  0  0  0  0
  -32.9580  -17.0810   21.5840 H   0  0  0  0  0  0  0  0  0  0  0  0
  -32.1440  -17.7560   22.8050 H   0  0  0  0  0  0  0  0  0  0  0  0
  -31.1790  -16.1730   21.9070 C   0  0  0  0  0  2  0  0  0  0  0  0
  -31.9940  -14.8650   21.7440 C   0  0  0  0  0  2  0  0  0  0  0  0
  -31.1840  -13.5960   22.1030 C   0  0  0  0  0  2  0  0  0  0  0  0
  -31.9560  -12.2570   22.0340 C   0  0  0  0  0  2  0  0  0  0  0  0
  -31.9710  -11.6640   20.6740 N   0  0  0  0  0  4  0  0  0  0  0  0
  -31.4290  -12.2380   20.0480 H   0  0  0  0  0  0  0  0  0  0  0  0
  -32.9280  -11.7010   20.3530 H   0  0  0  0  0  0  0  0  0  0  0  0
  -31.5120  -10.2570   20.5470 C   0  0  0  0  0  2  0  0  0  0  0  0
  -29.9960  -10.0320   20.8280 C   0  0  0  0  0  2  0  0  0  0  0  0
  -29.0410   -9.9590   19.5880 C   0  0  0  0  0  2  0  0  0  0  0  0
  -28.9660  -12.7480   18.9410 C   0  0  2  0  0  0  0  0  0  0  0  0
  -29.7920  -12.2410   17.6510 C   0  0  0  0  0  1  0  0  0  0  0  0
  -28.1170  -12.3440   16.7620 C   0  0  0  0  0  1  0  0  0  0  0  0
  -26.6410  -12.5170   17.7110 C   0  0  0  0  0  2  0  0  0  0  0  0
  -26.6300  -13.0180   19.3920 C   0  0  0  0  0  2  0  0  0  0  0  0
  -28.2360  -13.0030   20.3760 C   0  0  0  0  0  1  0  0  0  0  0  0
  -29.7430  -12.5670   19.4530 N   0  0  0  0  0  1  0  0  0  0  0  0
  -28.9680  -14.0730   18.5400 O   0  0  0  0  0  1  0  0  0  0  0  0
  -28.4200  -11.2160   19.0690 N   0  0  0  0  0  2  0  0  0  0  0  0
  -27.5100  -11.0890   18.6450 H   0  0  0  0  0  0  0  0  0  0  0  0
  -24.4260  -13.2200   20.6710 C   0  0  0  0  0  0  0  0  0  0  0  0
  -23.5240  -12.3280   21.1810 C   0  0  0  0  0  0  0  0  0  0  0  0
  -24.0360  -11.0280   20.8800 C   0  0  0  0  0  0  0  0  0  0  0  0
  -25.4510  -12.4810   20.1090 N   0  0  0  0  0  0  0  0  0  0  0  0
  -25.2250  -11.1390   20.2640 N   0  0  0  0  0  0  0  0  0  0  0  0
  -23.4190   -9.7010   21.1130 C   0  0  0  0  0  0  0  0  0  0  0  0
  -24.0340   -8.7230   21.9270 C   0  0  0  0  0  3  0  0  0  0  0  0
  -23.4020   -7.4790   22.1630 C   0  0  0  0  0  3  0  0  0  0  0  0
  -22.1370   -7.2000   21.5920 C   0  0  0  0  0  0  0  0  0  0  0  0
  -21.5350   -8.1690   20.7700 C   0  0  0  0  0  3  0  0  0  0  0  0
  -22.1670   -9.4040   20.5320 C   0  0  0  0  0  3  0  0  0  0  0  0
  -21.4660   -6.0080   21.7410 O   0  0  0  0  0  0  0  0  0  0  0  0
  -21.5800   -5.2490   22.8810 C   0  0  0  0  0  0  0  0  0  0  0  0
  -21.2590   -5.7660   24.1540 C   0  0  0  0  0  3  0  0  0  0  0  0
  -21.3220   -4.9330   25.2890 C   0  0  0  0  0  3  0  0  0  0  0  0
  -21.7000   -3.5850   25.1550 C   0  0  0  0  0  0  0  0  0  0  0  0
  -22.0130   -3.0660   23.8860 C   0  0  0  0  0  3  0  0  0  0  0  0
  -21.9510   -3.8940   22.7530 C   0  0  0  0  0  0  0  0  0  0  0  0
  -22.2350   -3.3800   21.5310 F   0  0  0  0  0  0  0  0  0  0  0  0
  -21.7540   -2.7830   26.2450 F   0  0  0  0  0  0  0  0  0  0  0  0
  -22.2170  -12.6780   21.8340 C   0  0  0  0  0  0  0  0  0  0  0  0
  -21.7790  -11.8820   22.8030 N   0  0  0  0  0  0  0  0  0  0  0  0
  -21.6030  -13.6990   21.5260 O   0  0  0  0  0  0  0  0  0  0  0  0
  -22.2900  -11.0540   23.0700 H   0  0  0  0  0  0  0  0  0  0  0  0
  -20.9180  -12.1050   23.2800 H   0  0  0  0  0  0  0  0  0  0  0  0
  -24.4530  -14.6090   20.6250 N   0  0  0  0  0  0  0  0  0  0  0  0
  -23.6920  -15.1750   20.9820 H   0  0  0  0  0  0  0  0  0  0  0  0
  -25.1830  -15.1640   20.1970 H   0  0  0  0  0  0  0  0  0  0  0  0
  -30.9250  -19.6570   21.6070 C   0  0  0  0  0  2  0  0  0  0  0  0
  -30.2020  -20.4680   20.6110 N   0  0  0  0  0  0  0  0  0  0  0  0
  -30.8140  -20.6570   19.8150 H   0  0  0  0  0  0  0  0  0  0  0  0
  -29.6620  -21.7460   21.0930 C   0  0  0  0  0  2  0  0  0  0  0  0
  -28.7750  -22.3880   20.0020 C   0  0  0  0  0  2  0  0  0  0  0  0
  -28.5440  -23.8270   20.1810 N   0  0  0  0  0  0  0  0  0  0  0  0
  -28.3430  -24.0280   21.1630 H   0  0  0  0  0  0  0  0  0  0  0  0
  -29.6490  -24.6900   19.7370 C   0  0  0  0  0  2  0  0  0  0  0  0
  -29.1490  -26.0680   19.2570 C   0  0  0  0  0  2  0  0  0  0  0  0
  -28.7500  -26.8910   20.3540 O   0  0  0  0  0  0  0  0  0  0  0  0
  -24.6680  -31.9180   23.2690 C   0  0  0  0  0  0  0  0  0  0  0  0
  -27.5300  -27.5330   20.3000 C   0  0  0  0  0  0  0  0  0  0  0  0
  -23.5330  -30.4250   21.6550 C   0  0  0  0  0  3  0  0  0  0  0  0
  -25.0620  -28.9180   20.2770 C   0  0  0  0  0  0  0  0  0  0  0  0
  -26.0410  -30.8890   21.4630 C   0  0  0  0  0  2  0  0  0  0  0  0
  -26.1890  -29.5070   20.8590 C   0  0  0  0  0  0  0  0  0  0  0  0
  -27.4200  -28.8180   20.8780 C   0  0  0  0  0  3  0  0  0  0  0  0
  -26.3750  -26.9420   19.7380 C   0  0  0  0  0  3  0  0  0  0  0  0
  -25.1470  -27.6290   19.7200 C   0  0  0  0  0  3  0  0  0  0  0  0
  -23.7810  -29.7230   20.2940 C   0  0  0  0  0  2  0  0  0  0  0  0
  -24.7640  -31.0940   22.1870 N   0  0  0  0  0  0  0  0  0  0  0  0
  -23.5730  -32.1570   23.7950 O   0  0  0  0  0  0  0  0  0  0  0  0
  -22.9200  -29.4000   22.6360 C   0  0  0  0  0  0  0  0  0  0  0  0
  -21.6180  -29.1210   22.4710 N   0  0  0  0  0  0  0  0  0  0  0  0
  -23.6140  -28.8600   23.5000 O   0  0  0  0  0  0  0  0  0  0  0  0
  -21.1170  -29.6120   21.7430 H   0  0  0  0  0  0  0  0  0  0  0  0
  -18.3260  -27.6880   22.8720 C   0  0  0  0  0  0  0  0  0  0  0  0
  -20.8390  -28.1610   23.2510 C   0  0  0  0  0  3  0  0  0  0  0  0
  -21.0810  -26.7160   22.7580 C   0  0  0  0  0  2  0  0  0  0  0  0
  -20.0610  -26.2570   21.7120 C   0  0  0  0  0  2  0  0  0  0  0  0
  -18.6410  -26.3240   22.2820 C   0  0  0  0  0  2  0  0  0  0  0  0
  -19.3580  -28.5570   23.3120 C   0  0  0  0  0  0  0  0  0  0  0  0
  -19.0150  -29.8280   23.8200 C   0  0  0  0  0  3  0  0  0  0  0  0
  -17.6680  -30.2330   23.8950 C   0  0  0  0  0  3  0  0  0  0  0  0
  -16.6490  -29.3620   23.4720 C   0  0  0  0  0  3  0  0  0  0  0  0
  -16.9780  -28.0920   22.9650 C   0  0  0  0  0  3  0  0  0  0  0  0
  -25.9230  -32.6160   23.8790 C   0  0  0  0  0  3  0  0  0  0  0  0
  -25.5550  -34.0090   24.1690 N   0  0  0  0  0  0  0  0  0  0  0  0
  -25.8450  -35.0510   23.3790 C   0  0  0  0  0  0  0  0  0  0  0  0
  -26.5200  -34.9460   22.3510 O   0  0  0  0  0  0  0  0  0  0  0  0
  -24.9530  -34.1620   24.9650 H   0  0  0  0  0  0  0  0  0  0  0  0
  -24.0340  -36.7510   22.9800 C   0  0  0  0  0  1  0  0  0  0  0  0
  -25.2980  -36.4300   23.7940 C   0  0  0  0  0  3  0  0  0  0  0  0
  -27.3950  -37.4360   24.5800 C   0  0  0  0  0  1  0  0  0  0  0  0
  -26.2810  -37.5240   23.6400 N   0  0  0  0  0  0  0  0  0  0  0  0
  -25.8350  -38.4290   23.7600 H   0  0  0  0  0  0  0  0  0  0  0  0
  -26.4640  -31.8990   25.1770 C   0  0  1  0  0  0  0  0  0  0  0  0
  -25.3680  -31.6110   26.2280 C   0  0  0  0  0  1  0  0  0  0  0  0
  -27.1370  -30.5550   24.8150 C   0  0  0  0  0  1  0  0  0  0  0  0
  -27.5490  -32.7750   25.8460 C   0  0  0  0  0  1  0  0  0  0  0  0
  1 53  1  0
  1  2  1  0
  2  5  1  0
  2  4  1  0
  3  2  1  0
  6  5  1  0
  6  7  1  0
  8  7  1  0
  9  8  1  0
 10  9  1  0
 11  9  1  0
 12  9  1  0
 12 13  1  0
 14 13  1  0
 15 21  1  0
 15 20  1  1
 16 15  1  0
 17 18  1  0
 18 19  1  0
 19 28  1  0
 22 15  1  0
 23 14  1  0
 24 23  1  0
 25 26  2  0
 26 45  1  0
 27 30  1  0
 27 26  1  0
 28 29  1  0
 28 25  1  0
 29 27  2  0
 30 31  1  0
 31 32  2  0
 33 36  1  0
 33 32  1  0
 34 33  2  0
 35 34  1  0
 35 30  2  0
 36 37  1  0
 37 38  1  0
 38 39  2  0
 40 39  1  0
 40 44  1  0
 41 40  2  0
 42 37  2  0
 42 41  1  0
 43 42  1  0
 45 46  1  0
 46 48  1  0
 46 49  1  0
 47 45  2  0
 50 25  1  0
 50 51  1  0
 52 50  1  0
 54 56  1  0
 54 53  1  0
 55 54  1  0
 57 58  1  0
 57 56  1  0
 58 59  1  0
 60 58  1  0
 61 60  1  0
 61 62  1  0
 63 74  2  0
 64 62  1  0
 64 69  1  0
 65 73  1  0
 65 75  1  0
 66 72  1  0
 66 68  1  0
 67 73  1  0
 68 69  2  0
 68 67  1  0
 70 64  2  0
 71 70  1  0
 71 66  2  0
 72 65  1  0
 73 63  1  0
 75 77  2  0
 76 75  1  0
 78 76  1  0
 79 88  2  0
 79 84  1  0
 80 76  1  0
 80 84  1  0
 81 80  1  0
 82 83  1  0
 82 81  1  0
 83 79  1  0
 84 85  2  0
 85 86  1  0
 87 86  2  0
 88 87  1  0
 89 63  1  0
 89 90  1  0
 89 99  1  0
 90 93  1  0
 91 95  1  0
 91 90  1  0
 92 91  2  0
 95 94  1  0
 97 98  1  0
 97 95  1  0
 97 96  1  0
 99102  1  1
 99100  1  0
101 99  1  0
M  ISO  4  15 100  23 100  61 101  62 101
M  END
>  <TORSDO>  (42) 
F 32

>  <SCORE>  (42) 
-5.759

>  <name>  (42) 
46

>  <ligand_id>  (42) 
46

>  <original_smiles>  (42) 
[H]c1c([H])c([H])c2c(c1[H])C([H])([H])C([H])([H])C([H])([H])C2([H])N([H])C(=O)C1([H])N(C(=O)C([H])(N([H])C(=O)C([H])(N([H])C([H])([H])[H])C([H])([H])[H])C(C([H])([H])[H])(C([H])([H])[H])C([H])([H])[H])C([H])([H])c2c([H])c(OC([H])([H])C([H])([H])N([H])C([H])([H])C([H])([H])N([H])C([H])([H])C([H])([H])[N+]([H])([H])C([H])([H])C([H])([H])C([H])([H])C([H])([H])[N+]([H])([H])C([H])([H])C([H])([H])C([H])([H])N([H])C(=O)N3C([H])([H])C([H])([H])C([H])([H])C([H])(n4nc(-c5c([H])c([H])c(Oc6c([H])c([H])c(F)c([H])c6F)c([H])c5[H])c(C(=O)N([H])[H])c4N([H])[H])C3([H])[H])c([H])c([H])c2C1([H])[H]

>  <smiles>  (42) 
[H]c1c([H])c([H])c2c(c1[H])C([H])([H])C([H])([H])C([H])([H])C2([H])N([H])C(=O)C1([H])N(C(=O)C([H])(N([H])C(=O)C([H])(N([H])C([H])([H])[H])C([H])([H])[H])C(C([H])([H])[H])(C([H])([H])[H])C([H])([H])[H])C([H])([H])c2c([H])c(OC([H])([H])C([H])([H])N([H])C([H])([H])C([H])([H])N([H])C([H])([H])C([H])([H])[N+]([H])([H])C([H])([H])C([H])([H])C([H])([H])C([H])([H])[N+]([H])([H])C([H])([H])C([H])([H])C([H])([H])N([H])C(=O)N3C([H])([H])C([H])([H])C([H])([H])C([H])(n4nc(-c5c([H])c([H])c(Oc6c([H])c([H])c(F)c([H])c6F)c([H])c5[H])c(C(=O)N([H])[H])c4N([H])[H])C3([H])[H])c([H])c([H])c2C1([H])[H]

$$$$
47:0:0
     RDKit          3D

 97104  0  0  1  0  0  0  0  0999 V2000
  -28.8590  -21.9990   16.4570 C   0  0  0  0  0  2  0  0  0  0  0  0
  -28.4610  -21.3140   17.7750 C   0  0  0  0  0  2  0  0  0  0  0  0
  -29.4460  -20.2860   18.0800 N   0  0  0  0  0  0  0  0  0  0  0  0
  -30.3690  -20.7170   18.0990 H   0  0  0  0  0  0  0  0  0  0  0  0
  -29.1840  -19.6640   19.3750 C   0  0  0  0  0  2  0  0  0  0  0  0
  -30.4950  -19.0810   19.9440 C   0  0  0  0  0  2  0  0  0  0  0  0
  -30.2650  -17.9060   20.8060 N   0  0  0  0  0  4  0  0  0  0  0  0
  -29.6370  -18.1640   21.5500 H   0  0  0  0  0  0  0  0  0  0  0  0
  -29.8280  -17.1880   20.2550 H   0  0  0  0  0  0  0  0  0  0  0  0
  -31.5090  -17.3670   21.3960 C   0  0  0  0  0  2  0  0  0  0  0  0
  -31.2820  -16.0900   22.2340 C   0  0  0  0  0  2  0  0  0  0  0  0
  -30.8260  -14.3850   20.4780 C   0  0  0  0  0  0  0  0  0  0  0  0
  -30.3230  -12.4810   18.9950 C   0  0  0  0  0  2  0  0  0  0  0  0
  -29.3350  -12.8610   17.8770 C   0  0  0  0  0  2  0  0  0  0  0  0
  -27.8820  -12.7170   18.3620 C   0  0  0  0  0  2  0  0  0  0  0  0
  -27.6310  -13.4100   19.7270 C   0  0  0  0  0  3  0  0  0  0  0  0
  -28.7210  -13.0200   20.7500 C   0  0  0  0  0  2  0  0  0  0  0  0
  -30.0420  -13.3210   20.1670 N   0  0  0  0  0  0  0  0  0  0  0  0
  -31.8240  -14.7080   19.8310 O   0  0  0  0  0  0  0  0  0  0  0  0
  -30.4670  -15.0680   21.5710 N   0  0  0  0  0  0  0  0  0  0  0  0
  -29.6470  -14.7340   22.0580 H   0  0  0  0  0  0  0  0  0  0  0  0
  -25.2450  -13.9970   20.4980 C   0  0  0  0  0  0  0  0  0  0  0  0
  -24.1880  -13.2150   20.8760 C   0  0  0  0  0  0  0  0  0  0  0  0
  -24.6510  -11.8650   20.8020 C   0  0  0  0  0  0  0  0  0  0  0  0
  -26.2880  -13.1250   20.2280 N   0  0  0  0  0  0  0  0  0  0  0  0
  -25.9340  -11.8370   20.4650 N   0  0  0  0  0  0  0  0  0  0  0  0
  -23.9310  -10.5970   20.9800 C   0  0  0  0  0  0  0  0  0  0  0  0
  -24.3230   -9.6550   21.9570 C   0  0  0  0  0  3  0  0  0  0  0  0
  -23.6040   -8.4510   22.1190 C   0  0  0  0  0  3  0  0  0  0  0  0
  -22.4790   -8.1800   21.3030 C   0  0  0  0  0  0  0  0  0  0  0  0
  -22.1080   -9.1110   20.3180 C   0  0  0  0  0  3  0  0  0  0  0  0
  -22.8270  -10.3070   20.1540 C   0  0  0  0  0  3  0  0  0  0  0  0
  -21.7370   -7.0260   21.3750 O   0  0  0  0  0  0  0  0  0  0  0  0
  -21.5860   -6.3380   22.5520 C   0  0  0  0  0  0  0  0  0  0  0  0
  -20.9500   -6.9120   23.6740 C   0  0  0  0  0  3  0  0  0  0  0  0
  -20.7540   -6.1450   24.8400 C   0  0  0  0  0  3  0  0  0  0  0  0
  -21.1820   -4.8050   24.8830 C   0  0  0  0  0  0  0  0  0  0  0  0
  -21.8120   -4.2310   23.7650 C   0  0  0  0  0  3  0  0  0  0  0  0
  -22.0090   -4.9940   22.6000 C   0  0  0  0  0  0  0  0  0  0  0  0
  -22.5960   -4.4280   21.5170 F   0  0  0  0  0  0  0  0  0  0  0  0
  -20.9890   -4.0650   25.9990 F   0  0  0  0  0  0  0  0  0  0  0  0
  -22.7970  -13.6820   21.1930 C   0  0  0  0  0  0  0  0  0  0  0  0
  -22.0820  -12.9510   22.0440 N   0  0  0  0  0  0  0  0  0  0  0  0
  -22.3500  -14.7280   20.7240 O   0  0  0  0  0  0  0  0  0  0  0  0
  -22.4560  -12.1040   22.4460 H   0  0  0  0  0  0  0  0  0  0  0  0
  -21.1500  -13.2460   22.2990 H   0  0  0  0  0  0  0  0  0  0  0  0
  -25.3990  -15.3720   20.3380 N   0  0  0  0  0  0  0  0  0  0  0  0
  -24.6180  -16.0100   20.4440 H   0  0  0  0  0  0  0  0  0  0  0  0
  -26.2200  -15.8110   19.9450 H   0  0  0  0  0  0  0  0  0  0  0  0
  -28.3690  -23.4520   16.2890 C   0  0  0  0  0  2  0  0  0  0  0  0
  -29.1740  -24.4190   17.0730 N   0  0  0  0  0  4  0  0  0  0  0  0
  -29.3120  -25.2260   16.4850 H   0  0  0  0  0  0  0  0  0  0  0  0
  -30.0880  -24.0330   17.2480 H   0  0  0  0  0  0  0  0  0  0  0  0
  -28.5630  -24.9090   18.3280 C   0  0  0  0  0  2  0  0  0  0  0  0
  -29.5490  -24.8760   19.5130 C   0  0  0  0  0  2  0  0  0  0  0  0
  -28.9440  -25.3660   20.8440 C   0  0  0  0  0  2  0  0  0  0  0  0
  -28.8530  -26.7890   20.8940 O   0  0  0  0  0  0  0  0  0  0  0  0
  -24.7480  -31.9940   23.4340 C   0  0  0  0  0  0  0  0  0  0  0  0
  -27.6280  -27.4140   20.8080 C   0  0  0  0  0  0  0  0  0  0  0  0
  -23.6570  -30.4720   21.8160 C   0  0  0  0  0  3  0  0  0  0  0  0
  -25.2070  -28.8620   20.5930 C   0  0  0  0  0  0  0  0  0  0  0  0
  -26.1820  -30.8550   21.7430 C   0  0  0  0  0  2  0  0  0  0  0  0
  -26.3210  -29.4470   21.2060 C   0  0  0  0  0  0  0  0  0  0  0  0
  -27.5310  -28.7330   21.3060 C   0  0  0  0  0  3  0  0  0  0  0  0
  -26.4860  -26.8240   20.2180 C   0  0  0  0  0  3  0  0  0  0  0  0
  -25.2810  -27.5480   20.1020 C   0  0  0  0  0  3  0  0  0  0  0  0
  -23.9540  -29.7020   20.5030 C   0  0  0  0  0  2  0  0  0  0  0  0
  -24.8770  -31.1250   22.3920 N   0  0  0  0  0  0  0  0  0  0  0  0
  -23.6340  -32.2930   23.8830 O   0  0  0  0  0  0  0  0  0  0  0  0
  -22.9550  -29.5110   22.8020 C   0  0  0  0  0  0  0  0  0  0  0  0
  -21.6520  -29.2790   22.5840 N   0  0  0  0  0  0  0  0  0  0  0  0
  -23.5850  -28.9700   23.7150 O   0  0  0  0  0  0  0  0  0  0  0  0
  -21.2050  -29.7640   21.8180 H   0  0  0  0  0  0  0  0  0  0  0  0
  -18.2760  -28.0350   22.9120 C   0  0  0  0  0  0  0  0  0  0  0  0
  -20.8000  -28.3760   23.3550 C   0  0  0  0  0  3  0  0  0  0  0  0
  -20.9760  -26.9110   22.8920 C   0  0  0  0  0  2  0  0  0  0  0  0
  -19.9600  -26.4900   21.8240 C   0  0  0  0  0  2  0  0  0  0  0  0
  -18.5300  -26.6460   22.3490 C   0  0  0  0  0  2  0  0  0  0  0  0
  -19.3440  -28.8540   23.3680 C   0  0  0  0  0  0  0  0  0  0  0  0
  -19.0540  -30.1500   23.8470 C   0  0  0  0  0  3  0  0  0  0  0  0
  -17.7320  -30.6300   23.8760 C   0  0  0  0  0  3  0  0  0  0  0  0
  -16.6780  -29.8120   23.4360 C   0  0  0  0  0  3  0  0  0  0  0  0
  -16.9500  -28.5160   22.9610 C   0  0  0  0  0  3  0  0  0  0  0  0
  -25.9890  -32.6770   24.0890 C   0  0  0  0  0  3  0  0  0  0  0  0
  -25.6380  -34.0820   24.3440 N   0  0  0  0  0  0  0  0  0  0  0  0
  -25.9710  -35.1020   23.5430 C   0  0  0  0  0  0  0  0  0  0  0  0
  -26.6710  -34.9640   22.5370 O   0  0  0  0  0  0  0  0  0  0  0  0
  -25.0150  -34.2610   25.1180 H   0  0  0  0  0  0  0  0  0  0  0  0
  -24.2080  -36.8260   23.0520 C   0  0  0  0  0  1  0  0  0  0  0  0
  -25.4380  -36.4990   23.9150 C   0  0  0  0  0  3  0  0  0  0  0  0
  -27.5210  -37.4910   24.7580 C   0  0  0  0  0  1  0  0  0  0  0  0
  -26.4470  -37.5700   23.7710 N   0  0  0  0  0  0  0  0  0  0  0  0
  -26.0140  -38.4860   23.8510 H   0  0  0  0  0  0  0  0  0  0  0  0
  -26.4600  -31.9720   25.4220 C   0  0  1  0  0  0  0  0  0  0  0  0
  -25.3150  -31.7330   26.4340 C   0  0  0  0  0  1  0  0  0  0  0  0
  -27.1110  -30.6030   25.1100 C   0  0  0  0  0  1  0  0  0  0  0  0
  -27.5420  -32.8320   26.1150 C   0  0  0  0  0  1  0  0  0  0  0  0
  1  2  1  0
  2  3  1  0
  3  4  1  0
  3  5  1  0
  5  6  1  0
  6  7  1  0
  7 10  1  0
  7  8  1  0
  9  7  1  0
 10 11  1  0
 12 20  1  0
 13 18  1  0
 14 15  1  0
 14 13  1  0
 16 15  1  0
 16 25  1  0
 16 17  1  0
 18 12  1  0
 18 17  1  0
 19 12  2  0
 20 21  1  0
 20 11  1  0
 22 23  2  0
 23 42  1  0
 24 23  1  0
 24 27  1  0
 25 26  1  0
 25 22  1  0
 26 24  2  0
 27 28  1  0
 28 29  2  0
 30 33  1  0
 30 29  1  0
 31 30  2  0
 32 31  1  0
 32 27  2  0
 33 34  1  0
 34 39  2  0
 34 35  1  0
 35 36  2  0
 36 37  1  0
 37 41  1  0
 38 37  2  0
 39 38  1  0
 40 39  1  0
 42 43  1  0
 43 46  1  0
 43 45  1  0
 44 42  2  0
 47 48  1  0
 47 22  1  0
 49 47  1  0
 50  1  1  0
 50 51  1  0
 51 53  1  0
 51 54  1  0
 52 51  1  0
 54 55  1  0
 55 56  1  0
 56 57  1  0
 58 69  2  0
 59 57  1  0
 59 64  1  0
 60 68  1  0
 60 70  1  0
 61 63  1  0
 62 68  1  0
 63 64  2  0
 63 62  1  0
 65 59  2  0
 66 65  1  0
 66 61  2  0
 67 61  1  0
 67 60  1  0
 68 58  1  0
 70 72  2  0
 71 70  1  0
 73 71  1  0
 74 83  2  0
 74 79  1  0
 75 71  1  0
 75 79  1  0
 76 75  1  0
 77 78  1  0
 77 76  1  0
 78 74  1  0
 79 80  2  0
 80 81  1  0
 82 81  2  0
 83 82  1  0
 84 58  1  0
 84 85  1  0
 84 94  1  0
 85 88  1  0
 86 90  1  0
 86 85  1  0
 87 86  2  0
 90 89  1  0
 92 93  1  0
 92 90  1  0
 92 91  1  0
 94 97  1  1
 94 95  1  0
 96 94  1  0
M  ISO  4  12 100  20 100  56 101  57 101
M  END
>  <TORSDO>  (43) 
F 28

>  <SCORE>  (43) 
-9.898

>  <name>  (43) 
47

>  <ligand_id>  (43) 
47

>  <original_smiles>  (43) 
[H]c1c([H])c([H])c2c(c1[H])C([H])([H])C([H])([H])C([H])([H])C2([H])N([H])C(=O)C1([H])N(C(=O)C([H])(N([H])C(=O)C([H])(N([H])C([H])([H])[H])C([H])([H])[H])C(C([H])([H])[H])(C([H])([H])[H])C([H])([H])[H])C([H])([H])c2c([H])c(OC([H])([H])C([H])([H])C([H])([H])[N+]([H])([H])C([H])([H])C([H])([H])C([H])([H])N([H])C([H])([H])C([H])([H])[N+]([H])([H])C([H])([H])C([H])([H])N([H])C(=O)N3C([H])([H])C([H])([H])C([H])([H])C([H])(n4nc(-c5c([H])c([H])c(Oc6c([H])c([H])c(F)c([H])c6F)c([H])c5[H])c(C(=O)N([H])[H])c4N([H])[H])C3([H])[H])c([H])c([H])c2C1([H])[H]

>  <smiles>  (43) 
[H]c1c([H])c([H])c2c(c1[H])C([H])([H])C([H])([H])C([H])([H])C2([H])N([H])C(=O)C1([H])N(C(=O)C([H])(N([H])C(=O)C([H])(N([H])C([H])([H])[H])C([H])([H])[H])C(C([H])([H])[H])(C([H])([H])[H])C([H])([H])[H])C([H])([H])c2c([H])c(OC([H])([H])C([H])([H])C([H])([H])[N+]([H])([H])C([H])([H])C([H])([H])C([H])([H])N([H])C([H])([H])C([H])([H])[N+]([H])([H])C([H])([H])C([H])([H])N([H])C(=O)N3C([H])([H])C([H])([H])C([H])([H])C([H])(n4nc(-c5c([H])c([H])c(Oc6c([H])c([H])c(F)c([H])c6F)c([H])c5[H])c(C(=O)N([H])[H])c4N([H])[H])C3([H])[H])c([H])c([H])c2C1([H])[H]

$$$$
48:0:0
     RDKit          3D

 97104  0  0  1  0  0  0  0  0999 V2000
  -29.9400  -23.4190   17.2290 C   0  0  0  0  0  2  0  0  0  0  0  0
  -31.2380  -23.9490   17.8770 C   0  0  0  0  0  2  0  0  0  0  0  0
  -31.0350  -25.0890   18.8890 C   0  0  0  0  0  2  0  0  0  0  0  0
  -30.2490  -24.6340   20.0580 N   0  0  0  0  0  4  0  0  0  0  0  0
  -30.6480  -23.7660   20.3820 H   0  0  0  0  0  0  0  0  0  0  0  0
  -29.3080  -24.4390   19.7550 H   0  0  0  0  0  0  0  0  0  0  0  0
  -30.1720  -25.5600   21.2150 C   0  0  0  0  0  2  0  0  0  0  0  0
  -29.4770  -26.8980   20.9030 C   0  0  0  0  0  2  0  0  0  0  0  0
  -28.3390  -26.6050   20.0980 O   0  0  0  0  0  0  0  0  0  0  0  0
  -24.6030  -31.8530   23.2200 C   0  0  0  0  0  0  0  0  0  0  0  0
  -27.2250  -27.4090   20.1630 C   0  0  0  0  0  0  0  0  0  0  0  0
  -23.3760  -30.4420   21.5930 C   0  0  0  0  0  3  0  0  0  0  0  0
  -24.8190  -28.8910   20.1730 C   0  0  0  0  0  0  0  0  0  0  0  0
  -25.8950  -30.8040   21.3730 C   0  0  0  0  0  2  0  0  0  0  0  0
  -25.9780  -29.4280   20.7480 C   0  0  0  0  0  0  0  0  0  0  0  0
  -27.1840  -28.6970   20.7500 C   0  0  0  0  0  3  0  0  0  0  0  0
  -26.0540  -26.8840   19.5850 C   0  0  0  0  0  3  0  0  0  0  0  0
  -24.8500  -27.6130   19.5890 C   0  0  0  0  0  3  0  0  0  0  0  0
  -23.5720  -29.7460   20.2190 C   0  0  0  0  0  2  0  0  0  0  0  0
  -24.6430  -31.0480   22.1220 N   0  0  0  0  0  0  0  0  0  0  0  0
  -23.5280  -32.1310   23.7690 O   0  0  0  0  0  0  0  0  0  0  0  0
  -22.7340  -29.4300   22.5650 C   0  0  0  0  0  0  0  0  0  0  0  0
  -21.4090  -29.2500   22.4480 N   0  0  0  0  0  0  0  0  0  0  0  0
  -23.4220  -28.8100   23.3820 O   0  0  0  0  0  0  0  0  0  0  0  0
  -20.9160  -29.8100   21.7650 H   0  0  0  0  0  0  0  0  0  0  0  0
  -18.0400  -28.0590   22.9620 C   0  0  0  0  0  0  0  0  0  0  0  0
  -20.5960  -28.3190   23.2300 C   0  0  0  0  0  3  0  0  0  0  0  0
  -20.7000  -26.8820   22.6680 C   0  0  0  0  0  2  0  0  0  0  0  0
  -19.5970  -26.5480   21.6580 C   0  0  0  0  0  2  0  0  0  0  0  0
  -18.2150  -26.7020   22.3000 C   0  0  0  0  0  2  0  0  0  0  0  0
  -19.1590  -28.8260   23.3830 C   0  0  0  0  0  0  0  0  0  0  0  0
  -18.9430  -30.0960   23.9580 C   0  0  0  0  0  3  0  0  0  0  0  0
  -17.6390  -30.6020   24.1170 C   0  0  0  0  0  3  0  0  0  0  0  0
  -16.5340  -29.8320   23.7130 C   0  0  0  0  0  3  0  0  0  0  0  0
  -16.7330  -28.5620   23.1430 C   0  0  0  0  0  3  0  0  0  0  0  0
  -25.9010  -32.4800   23.8250 C   0  0  0  0  0  3  0  0  0  0  0  0
  -25.5960  -33.8740   24.1680 N   0  0  0  0  0  0  0  0  0  0  0  0
  -25.9230  -34.9310   23.4130 C   0  0  0  0  0  0  0  0  0  0  0  0
  -26.5820  -34.8380   22.3740 O   0  0  0  0  0  0  0  0  0  0  0  0
  -25.0090  -34.0220   24.9750 H   0  0  0  0  0  0  0  0  0  0  0  0
  -24.1870  -36.7230   23.0870 C   0  0  0  0  0  1  0  0  0  0  0  0
  -25.4360  -36.3140   23.8860 C   0  0  0  0  0  3  0  0  0  0  0  0
  -27.5750  -37.1950   24.7060 C   0  0  0  0  0  1  0  0  0  0  0  0
  -26.4650  -37.3710   23.7750 N   0  0  0  0  0  0  0  0  0  0  0  0
  -26.0570  -38.2860   23.9430 H   0  0  0  0  0  0  0  0  0  0  0  0
  -26.4450  -31.6960   25.0800 C   0  0  1  0  0  0  0  0  0  0  0  0
  -25.3670  -31.4190   26.1530 C   0  0  0  0  0  1  0  0  0  0  0  0
  -27.0490  -30.3360   24.6580 C   0  0  0  0  0  1  0  0  0  0  0  0
  -27.5830  -32.4980   25.7530 C   0  0  0  0  0  1  0  0  0  0  0  0
  -30.1100  -22.0080   16.6540 C   0  0  0  0  0  2  0  0  0  0  0  0
  -30.2270  -21.0380   17.7360 N   0  0  0  0  0  0  0  0  0  0  0  0
  -29.4030  -21.1220   18.3280 H   0  0  0  0  0  0  0  0  0  0  0  0
  -30.2570  -19.6940   17.1690 C   0  0  0  0  0  2  0  0  0  0  0  0
  -31.1560  -18.7990   18.0290 C   0  0  0  0  0  2  0  0  0  0  0  0
  -30.5650  -18.6370   19.3690 N   0  0  0  0  0  4  0  0  0  0  0  0
  -30.7590  -19.4630   19.9090 H   0  0  0  0  0  0  0  0  0  0  0  0
  -29.5690  -18.5960   19.2210 H   0  0  0  0  0  0  0  0  0  0  0  0
  -30.9770  -17.4210   20.0940 C   0  0  0  0  0  2  0  0  0  0  0  0
  -29.7240  -16.6990   20.6280 C   0  0  0  0  0  2  0  0  0  0  0  0
  -30.6350  -14.3630   20.5480 C   0  0  0  0  0  0  0  0  0  0  0  0
  -30.3440  -12.2540   19.3220 C   0  0  0  0  0  2  0  0  0  0  0  0
  -29.4270  -12.5540   18.1180 C   0  0  0  0  0  2  0  0  0  0  0  0
  -27.9310  -12.5060   18.5110 C   0  0  0  0  0  2  0  0  0  0  0  0
  -27.6140  -13.2580   19.8330 C   0  0  0  0  0  3  0  0  0  0  0  0
  -28.6440  -12.8890   20.9240 C   0  0  0  0  0  2  0  0  0  0  0  0
  -29.9850  -13.1870   20.3970 N   0  0  0  0  0  0  0  0  0  0  0  0
  -31.7410  -14.5890   20.0520 O   0  0  0  0  0  0  0  0  0  0  0  0
  -29.8730  -15.3220   21.0950 N   0  0  0  0  0  0  0  0  0  0  0  0
  -29.0420  -14.9730   21.5530 H   0  0  0  0  0  0  0  0  0  0  0  0
  -25.2160  -13.8930   20.5220 C   0  0  0  0  0  0  0  0  0  0  0  0
  -24.1420  -13.1310   20.8880 C   0  0  0  0  0  0  0  0  0  0  0  0
  -24.5890  -11.7740   20.8580 C   0  0  0  0  0  0  0  0  0  0  0  0
  -26.2520  -13.0010   20.2940 N   0  0  0  0  0  0  0  0  0  0  0  0
  -25.8780  -11.7210   20.5500 N   0  0  0  0  0  0  0  0  0  0  0  0
  -23.8540  -10.5180   21.0500 C   0  0  0  0  0  0  0  0  0  0  0  0
  -24.2900   -9.5430   21.9750 C   0  0  0  0  0  3  0  0  0  0  0  0
  -23.5600   -8.3500   22.1570 C   0  0  0  0  0  3  0  0  0  0  0  0
  -22.3780   -8.1210   21.4110 C   0  0  0  0  0  0  0  0  0  0  0  0
  -21.9610   -9.0840   20.4750 C   0  0  0  0  0  3  0  0  0  0  0  0
  -22.6920  -10.2700   20.2930 C   0  0  0  0  0  3  0  0  0  0  0  0
  -21.6190   -6.9790   21.4960 O   0  0  0  0  0  0  0  0  0  0  0  0
  -21.5930   -6.2150   22.6360 C   0  0  0  0  0  0  0  0  0  0  0  0
  -21.2120   -6.7550   23.8830 C   0  0  0  0  0  3  0  0  0  0  0  0
  -21.1230   -5.9190   25.0140 C   0  0  0  0  0  3  0  0  0  0  0  0
  -21.4140   -4.5460   24.8990 C   0  0  0  0  0  0  0  0  0  0  0  0
  -21.7940   -4.0070   23.6570 C   0  0  0  0  0  3  0  0  0  0  0  0
  -21.8780   -4.8400   22.5260 C   0  0  0  0  0  0  0  0  0  0  0  0
  -22.2190   -4.3130   21.3260 F   0  0  0  0  0  0  0  0  0  0  0  0
  -21.3240   -3.7410   25.9820 F   0  0  0  0  0  0  0  0  0  0  0  0
  -22.7510  -13.6210   21.1660 C   0  0  0  0  0  0  0  0  0  0  0  0
  -22.0220  -12.9260   22.0270 N   0  0  0  0  0  0  0  0  0  0  0  0
  -22.3250  -14.6570   20.6570 O   0  0  0  0  0  0  0  0  0  0  0  0
  -22.3870  -12.0870   22.4520 H   0  0  0  0  0  0  0  0  0  0  0  0
  -21.0900  -13.2350   22.2620 H   0  0  0  0  0  0  0  0  0  0  0  0
  -25.3900  -15.2650   20.3530 N   0  0  0  0  0  0  0  0  0  0  0  0
  -24.6300  -15.9240   20.4810 H   0  0  0  0  0  0  0  0  0  0  0  0
  -26.2440  -15.7020   20.0380 H   0  0  0  0  0  0  0  0  0  0  0  0
  1  2  1  0
  2  3  1  0
  3  4  1  0
  4  5  1  0
  4  7  1  0
  6  4  1  0
  8  7  1  0
  9 11  1  0
  9  8  1  0
 10 21  2  0
 11 16  1  0
 12 20  1  0
 12 22  1  0
 13 19  1  0
 13 15  1  0
 14 20  1  0
 15 16  2  0
 15 14  1  0
 17 18  1  0
 17 11  2  0
 18 13  2  0
 19 12  1  0
 20 10  1  0
 22 24  2  0
 23 22  1  0
 25 23  1  0
 26 35  2  0
 26 31  1  0
 27 23  1  0
 27 31  1  0
 28 27  1  0
 29 30  1  0
 29 28  1  0
 30 26  1  0
 31 32  2  0
 32 33  1  0
 34 33  2  0
 35 34  1  0
 36 10  1  0
 36 37  1  0
 36 46  1  0
 37 40  1  0
 38 42  1  0
 38 37  1  0
 39 38  2  0
 42 41  1  0
 44 42  1  0
 44 45  1  0
 44 43  1  0
 46 49  1  1
 46 47  1  0
 48 46  1  0
 50  1  1  0
 50 51  1  0
 51 52  1  0
 53 51  1  0
 53 54  1  0
 54 55  1  0
 55 56  1  0
 55 58  1  0
 57 55  1  0
 58 59  1  0
 59 68  1  0
 60 68  1  0
 61 66  1  0
 62 63  1  0
 62 61  1  0
 64 63  1  0
 64 73  1  0
 64 65  1  0
 66 60  1  0
 66 65  1  0
 67 60  2  0
 68 69  1  0
 70 71  2  0
 71 90  1  0
 72 71  1  0
 72 75  1  0
 73 70  1  0
 73 74  1  0
 74 72  2  0
 75 76  1  0
 76 77  2  0
 78 81  1  0
 78 77  1  0
 79 78  2  0
 80 79  1  0
 80 75  2  0
 81 82  1  0
 82 83  1  0
 83 84  2  0
 85 84  1  0
 85 89  1  0
 86 85  2  0
 87 82  2  0
 87 86  1  0
 88 87  1  0
 90 91  1  0
 91 94  1  0
 91 93  1  0
 92 90  2  0
 95 96  1  0
 95 70  1  0
 97 95  1  0
M  ISO  4   8 101   9 101  60 100  68 100
M  END
>  <TORSDO>  (44) 
F 28

>  <SCORE>  (44) 
-11.244

>  <name>  (44) 
48

>  <ligand_id>  (44) 
48

>  <original_smiles>  (44) 
[H]c1c([H])c([H])c2c(c1[H])C([H])([H])C([H])([H])C([H])([H])C2([H])N([H])C(=O)C1([H])N(C(=O)C([H])(N([H])C(=O)C([H])(N([H])C([H])([H])[H])C([H])([H])[H])C(C([H])([H])[H])(C([H])([H])[H])C([H])([H])[H])C([H])([H])c2c([H])c(OC([H])([H])C([H])([H])[N+]([H])([H])C([H])([H])C([H])([H])C([H])([H])C([H])([H])N([H])C([H])([H])C([H])([H])[N+]([H])([H])C([H])([H])C([H])([H])N([H])C(=O)N3C([H])([H])C([H])([H])C([H])([H])C([H])(n4nc(-c5c([H])c([H])c(Oc6c([H])c([H])c(F)c([H])c6F)c([H])c5[H])c(C(=O)N([H])[H])c4N([H])[H])C3([H])[H])c([H])c([H])c2C1([H])[H]

>  <smiles>  (44) 
[H]c1c([H])c([H])c2c(c1[H])C([H])([H])C([H])([H])C([H])([H])C2([H])N([H])C(=O)C1([H])N(C(=O)C([H])(N([H])C(=O)C([H])(N([H])C([H])([H])[H])C([H])([H])[H])C(C([H])([H])[H])(C([H])([H])[H])C([H])([H])[H])C([H])([H])c2c([H])c(OC([H])([H])C([H])([H])[N+]([H])([H])C([H])([H])C([H])([H])C([H])([H])C([H])([H])N([H])C([H])([H])C([H])([H])[N+]([H])([H])C([H])([H])C([H])([H])N([H])C(=O)N3C([H])([H])C([H])([H])C([H])([H])C([H])(n4nc(-c5c([H])c([H])c(Oc6c([H])c([H])c(F)c([H])c6F)c([H])c5[H])c(C(=O)N([H])[H])c4N([H])[H])C3([H])[H])c([H])c([H])c2C1([H])[H]

$$$$
49:0:0
     RDKit          3D

 94101  0  0  1  0  0  0  0  0999 V2000
  -29.6420  -20.9360   21.3980 C   0  0  0  0  0  2  0  0  0  0  0  0
  -30.6720  -19.9460   21.1280 N   0  0  0  0  0  0  0  0  0  0  0  0
  -31.5750  -20.4220   21.0650 H   0  0  0  0  0  0  0  0  0  0  0  0
  -30.7350  -18.9250   22.1710 C   0  0  0  0  0  2  0  0  0  0  0  0
  -31.8620  -17.9180   21.9090 C   0  0  0  0  0  2  0  0  0  0  0  0
  -31.8940  -16.8860   22.9590 N   0  0  0  0  0  4  0  0  0  0  0  0
  -32.0680  -17.3110   23.8560 H   0  0  0  0  0  0  0  0  0  0  0  0
  -30.9930  -16.4390   22.9960 H   0  0  0  0  0  0  0  0  0  0  0  0
  -32.8850  -15.8220   22.7330 C   0  0  0  0  0  2  0  0  0  0  0  0
  -32.2320  -14.4410   22.8820 C   0  0  0  0  0  2  0  0  0  0  0  0
  -30.8940  -14.1770   20.8090 C   0  0  0  0  0  0  0  0  0  0  0  0
  -30.3960  -12.2840   19.3380 C   0  0  0  0  0  2  0  0  0  0  0  0
  -29.4510  -12.5440   18.1610 C   0  0  0  0  0  2  0  0  0  0  0  0
  -27.9900  -12.3770   18.6060 C   0  0  0  0  0  2  0  0  0  0  0  0
  -27.6620  -13.2040   19.8750 C   0  0  0  0  0  3  0  0  0  0  0  0
  -28.7060  -12.9650   20.9880 C   0  0  0  0  0  2  0  0  0  0  0  0
  -30.0550  -13.1890   20.4400 N   0  0  0  0  0  0  0  0  0  0  0  0
  -31.7480  -14.6780   20.0730 O   0  0  0  0  0  0  0  0  0  0  0  0
  -30.9730  -14.2790   22.1430 N   0  0  0  0  0  0  0  0  0  0  0  0
  -30.2410  -13.7850   22.6350 H   0  0  0  0  0  0  0  0  0  0  0  0
  -25.2580  -13.8170   20.5690 C   0  0  0  0  0  0  0  0  0  0  0  0
  -24.1830  -13.0440   20.9180 C   0  0  0  0  0  0  0  0  0  0  0  0
  -24.6370  -11.6910   20.8720 C   0  0  0  0  0  0  0  0  0  0  0  0
  -26.3030  -12.9340   20.3400 N   0  0  0  0  0  0  0  0  0  0  0  0
  -25.9300  -11.6490   20.5780 N   0  0  0  0  0  0  0  0  0  0  0  0
  -23.9040  -10.4290   21.0390 C   0  0  0  0  0  0  0  0  0  0  0  0
  -24.3590   -9.4210   21.9180 C   0  0  0  0  0  3  0  0  0  0  0  0
  -23.6280   -8.2240   22.0750 C   0  0  0  0  0  3  0  0  0  0  0  0
  -22.4260   -8.0270   21.3540 C   0  0  0  0  0  0  0  0  0  0  0  0
  -21.9890   -9.0250   20.4640 C   0  0  0  0  0  3  0  0  0  0  0  0
  -22.7210  -10.2130   20.3050 C   0  0  0  0  0  3  0  0  0  0  0  0
  -21.6630   -6.8870   21.4240 O   0  0  0  0  0  0  0  0  0  0  0  0
  -21.6850   -6.0730   22.5280 C   0  0  0  0  0  0  0  0  0  0  0  0
  -21.4020   -6.5640   23.8220 C   0  0  0  0  0  3  0  0  0  0  0  0
  -21.3650   -5.6800   24.9180 C   0  0  0  0  0  3  0  0  0  0  0  0
  -21.6040   -4.3050   24.7230 C   0  0  0  0  0  0  0  0  0  0  0  0
  -21.8810   -3.8150   23.4350 C   0  0  0  0  0  3  0  0  0  0  0  0
  -21.9190   -4.6960   22.3410 C   0  0  0  0  0  0  0  0  0  0  0  0
  -22.1660   -4.2140   21.0980 F   0  0  0  0  0  0  0  0  0  0  0  0
  -21.5620   -3.4540   25.7740 F   0  0  0  0  0  0  0  0  0  0  0  0
  -22.7850  -13.5240   21.1850 C   0  0  0  0  0  0  0  0  0  0  0  0
  -22.0490  -12.8230   22.0400 N   0  0  0  0  0  0  0  0  0  0  0  0
  -22.3540  -14.5560   20.6720 O   0  0  0  0  0  0  0  0  0  0  0  0
  -22.4090  -11.9870   22.4770 H   0  0  0  0  0  0  0  0  0  0  0  0
  -21.1110  -13.1270   22.2610 H   0  0  0  0  0  0  0  0  0  0  0  0
  -25.4330  -15.1890   20.4080 N   0  0  0  0  0  0  0  0  0  0  0  0
  -24.6710  -15.8520   20.5120 H   0  0  0  0  0  0  0  0  0  0  0  0
  -26.2970  -15.6230   20.1070 H   0  0  0  0  0  0  0  0  0  0  0  0
  -29.7340  -22.1070   20.4180 C   0  0  0  0  0  2  0  0  0  0  0  0
  -28.9470  -23.2150   20.9310 N   0  0  0  0  0  0  0  0  0  0  0  0
  -29.2550  -23.4240   21.8820 H   0  0  0  0  0  0  0  0  0  0  0  0
  -29.0370  -24.4320   20.1290 C   0  0  0  0  0  2  0  0  0  0  0  0
  -28.3460  -25.5850   20.8610 C   0  0  0  0  0  2  0  0  0  0  0  0
  -28.3980  -26.7620   20.0660 O   0  0  0  0  0  0  0  0  0  0  0  0
  -24.6100  -31.8710   23.2130 C   0  0  0  0  0  0  0  0  0  0  0  0
  -27.2350  -27.4820   20.0830 C   0  0  0  0  0  0  0  0  0  0  0  0
  -23.3960  -30.4940   21.5530 C   0  0  0  0  0  3  0  0  0  0  0  0
  -24.8430  -28.9650   20.1160 C   0  0  0  0  0  0  0  0  0  0  0  0
  -25.9200  -30.8500   21.3590 C   0  0  0  0  0  2  0  0  0  0  0  0
  -26.0000  -29.4880   20.7070 C   0  0  0  0  0  0  0  0  0  0  0  0
  -27.2030  -28.7530   20.6880 C   0  0  0  0  0  3  0  0  0  0  0  0
  -26.0660  -26.9590   19.4930 C   0  0  0  0  0  3  0  0  0  0  0  0
  -24.8670  -27.6960   19.5090 C   0  0  0  0  0  3  0  0  0  0  0  0
  -23.6010  -29.8240   20.1680 C   0  0  0  0  0  2  0  0  0  0  0  0
  -24.6600  -31.0850   22.1010 N   0  0  0  0  0  0  0  0  0  0  0  0
  -23.5310  -32.1440   23.7560 O   0  0  0  0  0  0  0  0  0  0  0  0
  -22.7380  -29.4670   22.5010 C   0  0  0  0  0  0  0  0  0  0  0  0
  -21.4120  -29.3020   22.3750 N   0  0  0  0  0  0  0  0  0  0  0  0
  -23.4170  -28.8220   23.3040 O   0  0  0  0  0  0  0  0  0  0  0  0
  -20.9270  -29.8730   21.6960 H   0  0  0  0  0  0  0  0  0  0  0  0
  -18.0270  -28.1370   22.8500 C   0  0  0  0  0  0  0  0  0  0  0  0
  -20.5850  -28.3650   23.1340 C   0  0  0  0  0  3  0  0  0  0  0  0
  -20.6770  -26.9390   22.5420 C   0  0  0  0  0  2  0  0  0  0  0  0
  -19.5750  -26.6390   21.5210 C   0  0  0  0  0  2  0  0  0  0  0  0
  -18.1920  -26.7920   22.1620 C   0  0  0  0  0  2  0  0  0  0  0  0
  -19.1510  -28.8820   23.2920 C   0  0  0  0  0  0  0  0  0  0  0  0
  -18.9440  -30.1440   23.8920 C   0  0  0  0  0  3  0  0  0  0  0  0
  -17.6440  -30.6580   24.0560 C   0  0  0  0  0  3  0  0  0  0  0  0
  -16.5340  -29.9080   23.6320 C   0  0  0  0  0  3  0  0  0  0  0  0
  -16.7250  -28.6500   23.0340 C   0  0  0  0  0  3  0  0  0  0  0  0
  -25.9020  -32.4840   23.8410 C   0  0  0  0  0  3  0  0  0  0  0  0
  -26.4470  -31.6600   25.0720 C   0  0  1  0  0  0  0  0  0  0  0  0
  -25.3750  -31.3680   26.1480 C   0  0  0  0  0  1  0  0  0  0  0  0
  -27.0280  -30.3050   24.6050 C   0  0  0  0  0  1  0  0  0  0  0  0
  -27.6070  -32.4290   25.7470 C   0  0  0  0  0  1  0  0  0  0  0  0
  -25.5890  -33.8640   24.2350 N   0  0  0  0  0  0  0  0  0  0  0  0
  -25.9030  -34.9490   23.5140 C   0  0  0  0  0  0  0  0  0  0  0  0
  -26.5580  -34.8930   22.4690 O   0  0  0  0  0  0  0  0  0  0  0  0
  -25.0050  -33.9800   25.0510 H   0  0  0  0  0  0  0  0  0  0  0  0
  -24.1490  -36.7320   23.2640 C   0  0  0  0  0  1  0  0  0  0  0  0
  -25.4100  -36.3120   24.0340 C   0  0  0  0  0  3  0  0  0  0  0  0
  -27.5580  -37.1810   24.8460 C   0  0  0  0  0  1  0  0  0  0  0  0
  -26.4290  -37.3800   23.9400 N   0  0  0  0  0  0  0  0  0  0  0  0
  -26.0190  -38.2880   24.1420 H   0  0  0  0  0  0  0  0  0  0  0  0
  2  1  1  0
  2  4  1  0
  3  2  1  0
  5  4  1  0
  5  6  1  0
  6  8  1  0
  6  7  1  0
  9 10  1  0
  9  6  1  0
 11 19  1  0
 12 17  1  0
 13 14  1  0
 13 12  1  0
 15 14  1  0
 15 24  1  0
 15 16  1  0
 17 11  1  0
 17 16  1  0
 18 11  2  0
 19 20  1  0
 19 10  1  0
 21 22  2  0
 22 41  1  0
 23 22  1  0
 23 26  1  0
 24 21  1  0
 24 25  1  0
 25 23  2  0
 26 27  1  0
 27 28  2  0
 29 32  1  0
 29 28  1  0
 30 29  2  0
 31 30  1  0
 31 26  2  0
 32 33  1  0
 33 34  1  0
 34 35  2  0
 36 35  1  0
 36 40  1  0
 37 36  2  0
 38 33  2  0
 38 37  1  0
 39 38  1  0
 41 42  1  0
 42 45  1  0
 42 44  1  0
 43 41  2  0
 46 47  1  0
 46 21  1  0
 48 46  1  0
 49 50  1  0
 49  1  1  0
 50 51  1  0
 52 53  1  0
 52 50  1  0
 54 56  1  0
 54 53  1  0
 55 66  2  0
 56 61  1  0
 57 65  1  0
 57 67  1  0
 58 64  1  0
 58 60  1  0
 59 65  1  0
 60 59  1  0
 61 60  2  0
 62 63  1  0
 62 56  2  0
 63 58  2  0
 64 57  1  0
 65 55  1  0
 67 69  2  0
 68 67  1  0
 70 68  1  0
 71 80  2  0
 71 76  1  0
 72 68  1  0
 72 76  1  0
 73 72  1  0
 74 75  1  0
 74 73  1  0
 75 71  1  0
 76 77  2  0
 77 78  1  0
 79 78  2  0
 80 79  1  0
 81 55  1  0
 81 86  1  0
 81 82  1  0
 82 85  1  1
 82 83  1  0
 84 82  1  0
 86 89  1  0
 87 91  1  0
 87 86  1  0
 88 87  2  0
 91 90  1  0
 93 91  1  0
 93 94  1  0
 93 92  1  0
M  ISO  4  11 100  19 100  53 101  54 101
M  END
>  <TORSDO>  (45) 
F 26

>  <SCORE>  (45) 
-2.703

>  <name>  (45) 
49

>  <ligand_id>  (45) 
49

>  <original_smiles>  (45) 
[H]c1c([H])c([H])c2c(c1[H])C([H])([H])C([H])([H])C([H])([H])C2([H])N([H])C(=O)C1([H])N(C(=O)C([H])(N([H])C(=O)C([H])(N([H])C([H])([H])[H])C([H])([H])[H])C(C([H])([H])[H])(C([H])([H])[H])C([H])([H])[H])C([H])([H])c2c([H])c(OC([H])([H])C([H])([H])N([H])C([H])([H])C([H])([H])N([H])C([H])([H])C([H])([H])[N+]([H])([H])C([H])([H])C([H])([H])N([H])C(=O)N3C([H])([H])C([H])([H])C([H])([H])C([H])(n4nc(-c5c([H])c([H])c(Oc6c([H])c([H])c(F)c([H])c6F)c([H])c5[H])c(C(=O)N([H])[H])c4N([H])[H])C3([H])[H])c([H])c([H])c2C1([H])[H]

>  <smiles>  (45) 
[H]c1c([H])c([H])c2c(c1[H])C([H])([H])C([H])([H])C([H])([H])C2([H])N([H])C(=O)C1([H])N(C(=O)C([H])(N([H])C(=O)C([H])(N([H])C([H])([H])[H])C([H])([H])[H])C(C([H])([H])[H])(C([H])([H])[H])C([H])([H])[H])C([H])([H])c2c([H])c(OC([H])([H])C([H])([H])N([H])C([H])([H])C([H])([H])N([H])C([H])([H])C([H])([H])[N+]([H])([H])C([H])([H])C([H])([H])N([H])C(=O)N3C([H])([H])C([H])([H])C([H])([H])C([H])(n4nc(-c5c([H])c([H])c(Oc6c([H])c([H])c(F)c([H])c6F)c([H])c5[H])c(C(=O)N([H])[H])c4N([H])[H])C3([H])[H])c([H])c([H])c2C1([H])[H]

$$$$
50:0:0
     RDKit          3D

 98105  0  0  1  0  0  0  0  0999 V2000
  -31.8430  -24.1450   20.1740 N   0  0  0  0  0  4  0  0  0  0  0  0
  -31.9980  -25.1010   20.4610 H   0  0  0  0  0  0  0  0  0  0  0  0
  -30.8610  -24.0720   19.9530 H   0  0  0  0  0  0  0  0  0  0  0  0
  -32.6310  -23.9150   18.9360 C   0  0  0  0  0  2  0  0  0  0  0  0
  -32.1490  -24.8340   17.8080 C   0  0  0  0  0  2  0  0  0  0  0  0
  -30.7410  -24.6510   17.7330 O   0  0  0  0  0  0  0  0  0  0  0  0
  -30.0570  -25.6100   16.9360 C   0  0  0  0  0  2  0  0  0  0  0  0
  -28.8190  -26.0270   17.7440 C   0  0  0  0  0  2  0  0  0  0  0  0
  -29.1910  -26.9980   18.8820 C   0  0  0  0  0  2  0  0  0  0  0  0
  -28.3740  -26.8130   20.0310 O   0  0  0  0  0  0  0  0  0  0  0  0
  -24.5370  -31.8660   23.2330 C   0  0  0  0  0  0  0  0  0  0  0  0
  -27.2100  -27.5330   20.0430 C   0  0  0  0  0  0  0  0  0  0  0  0
  -23.3370  -30.4970   21.5570 C   0  0  0  0  0  3  0  0  0  0  0  0
  -24.8000  -28.9900   20.1060 C   0  0  0  0  0  0  0  0  0  0  0  0
  -25.8580  -30.8730   21.3690 C   0  0  0  0  0  2  0  0  0  0  0  0
  -25.9530  -29.5160   20.7060 C   0  0  0  0  0  0  0  0  0  0  0  0
  -27.1620  -28.7900   20.6770 C   0  0  0  0  0  3  0  0  0  0  0  0
  -26.0440  -27.0010   19.4560 C   0  0  0  0  0  3  0  0  0  0  0  0
  -24.8370  -27.7280   19.4830 C   0  0  0  0  0  3  0  0  0  0  0  0
  -23.5510  -29.8420   20.1660 C   0  0  0  0  0  2  0  0  0  0  0  0
  -24.5960  -31.0910   22.1150 N   0  0  0  0  0  0  0  0  0  0  0  0
  -23.4530  -32.1250   23.7750 O   0  0  0  0  0  0  0  0  0  0  0  0
  -22.6860  -29.4550   22.4910 C   0  0  0  0  0  0  0  0  0  0  0  0
  -21.3640  -29.2710   22.3490 N   0  0  0  0  0  0  0  0  0  0  0  0
  -23.3670  -28.8130   23.2950 O   0  0  0  0  0  0  0  0  0  0  0  0
  -20.8760  -29.8510   21.6810 H   0  0  0  0  0  0  0  0  0  0  0  0
  -17.9950  -28.0470   22.7840 C   0  0  0  0  0  0  0  0  0  0  0  0
  -20.5460  -28.3130   23.0910 C   0  0  0  0  0  3  0  0  0  0  0  0
  -20.6620  -26.8930   22.4910 C   0  0  0  0  0  2  0  0  0  0  0  0
  -19.5750  -26.5800   21.4580 C   0  0  0  0  0  2  0  0  0  0  0  0
  -18.1850  -26.7090   22.0870 C   0  0  0  0  0  2  0  0  0  0  0  0
  -19.1050  -28.8070   23.2410 C   0  0  0  0  0  0  0  0  0  0  0  0
  -18.8730  -30.0580   23.8510 C   0  0  0  0  0  3  0  0  0  0  0  0
  -17.5630  -30.5520   24.0070 C   0  0  0  0  0  3  0  0  0  0  0  0
  -16.4680  -29.7920   23.5620 C   0  0  0  0  0  3  0  0  0  0  0  0
  -16.6850  -28.5390   22.9590 C   0  0  0  0  0  3  0  0  0  0  0  0
  -25.8200  -32.4810   23.8740 C   0  0  0  0  0  3  0  0  0  0  0  0
  -25.5330  -33.8880   24.1860 N   0  0  0  0  0  0  0  0  0  0  0  0
  -25.9050  -34.9260   23.4250 C   0  0  0  0  0  0  0  0  0  0  0  0
  -26.5960  -34.7970   22.4110 O   0  0  0  0  0  0  0  0  0  0  0  0
  -24.9370  -34.0660   24.9810 H   0  0  0  0  0  0  0  0  0  0  0  0
  -24.2280  -36.7490   22.9950 C   0  0  0  0  0  1  0  0  0  0  0  0
  -25.4320  -36.3270   23.8550 C   0  0  0  0  0  3  0  0  0  0  0  0
  -27.5530  -37.1710   24.7580 C   0  0  0  0  0  1  0  0  0  0  0  0
  -26.4890  -37.3580   23.7740 N   0  0  0  0  0  0  0  0  0  0  0  0
  -26.1020  -38.2900   23.8990 H   0  0  0  0  0  0  0  0  0  0  0  0
  -26.3030  -31.7130   25.1640 C   0  0  1  0  0  0  0  0  0  0  0  0
  -25.1880  -31.4960   26.2140 C   0  0  0  0  0  1  0  0  0  0  0  0
  -26.8800  -30.3300   24.7820 C   0  0  0  0  0  1  0  0  0  0  0  0
  -27.4530  -32.5000   25.8400 C   0  0  0  0  0  1  0  0  0  0  0  0
  -32.1950  -23.2690   21.3170 C   0  0  0  0  0  2  0  0  0  0  0  0
  -31.7180  -21.8040   21.1630 C   0  0  0  0  0  2  0  0  0  0  0  0
  -30.2380  -21.5560   21.5450 C   0  0  0  0  0  2  0  0  0  0  0  0
  -29.9100  -20.1160   21.6870 N   0  0  0  0  0  4  0  0  0  0  0  0
  -30.5680  -19.6920   22.3210 H   0  0  0  0  0  0  0  0  0  0  0  0
  -29.0050  -20.0590   22.1280 H   0  0  0  0  0  0  0  0  0  0  0  0
  -29.8430  -19.3320   20.4310 C   0  0  0  0  0  2  0  0  0  0  0  0
  -29.8880  -17.8120   20.6890 C   0  0  0  0  0  2  0  0  0  0  0  0
  -31.3200  -17.2620   20.8470 C   0  0  0  0  0  2  0  0  0  0  0  0
  -31.3970  -15.8810   21.5270 C   0  0  0  0  0  2  0  0  0  0  0  0
  -30.7830  -14.1090   19.8770 C   0  0  0  0  0  0  0  0  0  0  0  0
  -30.2670  -11.9720   18.7490 C   0  0  0  0  0  2  0  0  0  0  0  0
  -29.2210  -12.1220   17.6310 C   0  0  0  0  0  2  0  0  0  0  0  0
  -27.7960  -12.0240   18.2050 C   0  0  0  0  0  2  0  0  0  0  0  0
  -27.5850  -12.9510   19.4300 C   0  0  0  0  0  3  0  0  0  0  0  0
  -28.7240  -12.7690   20.4560 C   0  0  0  0  0  2  0  0  0  0  0  0
  -30.0110  -12.9980   19.7710 N   0  0  0  0  0  0  0  0  0  0  0  0
  -31.7260  -14.3600   19.1220 O   0  0  0  0  0  0  0  0  0  0  0  0
  -30.5160  -14.8720   20.9440 N   0  0  0  0  0  0  0  0  0  0  0  0
  -29.7170  -14.5920   21.4940 H   0  0  0  0  0  0  0  0  0  0  0  0
  -25.2950  -13.6600   20.3740 C   0  0  0  0  0  0  0  0  0  0  0  0
  -24.2370  -12.9320   20.8440 C   0  0  0  0  0  0  0  0  0  0  0  0
  -24.6320  -11.5600   20.7620 C   0  0  0  0  0  0  0  0  0  0  0  0
  -26.2730  -12.7360   20.0390 N   0  0  0  0  0  0  0  0  0  0  0  0
  -25.8820  -11.4680   20.3280 N   0  0  0  0  0  0  0  0  0  0  0  0
  -23.8760  -10.3290   21.0170 C   0  0  0  0  0  0  0  0  0  0  0  0
  -24.3390   -9.3550   21.9300 C   0  0  0  0  0  3  0  0  0  0  0  0
  -23.5850   -8.1860   22.1710 C   0  0  0  0  0  3  0  0  0  0  0  0
  -22.3540   -7.9830   21.5000 C   0  0  0  0  0  0  0  0  0  0  0  0
  -21.9110   -8.9460   20.5760 C   0  0  0  0  0  3  0  0  0  0  0  0
  -22.6640  -10.1060   20.3340 C   0  0  0  0  0  3  0  0  0  0  0  0
  -21.5680   -6.8680   21.6530 O   0  0  0  0  0  0  0  0  0  0  0  0
  -21.5660   -6.1420   22.8170 C   0  0  0  0  0  0  0  0  0  0  0  0
  -21.2290   -6.7240   24.0580 C   0  0  0  0  0  3  0  0  0  0  0  0
  -21.1720   -5.9260   25.2180 C   0  0  0  0  0  3  0  0  0  0  0  0
  -21.4430   -4.5480   25.1400 C   0  0  0  0  0  0  0  0  0  0  0  0
  -21.7740   -3.9640   23.9030 C   0  0  0  0  0  3  0  0  0  0  0  0
  -21.8330   -4.7590   22.7450 C   0  0  0  0  0  0  0  0  0  0  0  0
  -22.1310   -4.1890   21.5530 F   0  0  0  0  0  0  0  0  0  0  0  0
  -21.3810   -3.7790   26.2520 F   0  0  0  0  0  0  0  0  0  0  0  0
  -22.8950  -13.4650   21.2560 C   0  0  0  0  0  0  0  0  0  0  0  0
  -22.2280  -12.7930   22.1880 N   0  0  0  0  0  0  0  0  0  0  0  0
  -22.4500  -14.5110   20.7850 O   0  0  0  0  0  0  0  0  0  0  0  0
  -22.5980  -11.9440   22.5870 H   0  0  0  0  0  0  0  0  0  0  0  0
  -21.3310  -13.1340   22.5080 H   0  0  0  0  0  0  0  0  0  0  0  0
  -25.5060  -15.0230   20.1860 N   0  0  0  0  0  0  0  0  0  0  0  0
  -24.7950  -15.7190   20.3820 H   0  0  0  0  0  0  0  0  0  0  0  0
  -26.3460  -15.4170   19.7810 H   0  0  0  0  0  0  0  0  0  0  0  0
  1  2  1  0
  1 51  1  0
  3  1  1  0
  4  1  1  0
  5  4  1  0
  6  5  1  0
  7  6  1  0
  7  8  1  0
  8  9  1  0
  9 10  1  0
 10 12  1  0
 11 22  2  0
 12 17  1  0
 13 21  1  0
 13 23  1  0
 14 20  1  0
 14 16  1  0
 15 21  1  0
 16 15  1  0
 17 16  2  0
 18 19  1  0
 18 12  2  0
 19 14  2  0
 20 13  1  0
 21 11  1  0
 23 25  2  0
 24 23  1  0
 26 24  1  0
 27 36  2  0
 27 32  1  0
 28 24  1  0
 28 32  1  0
 29 28  1  0
 30 31  1  0
 30 29  1  0
 31 27  1  0
 32 33  2  0
 33 34  1  0
 35 34  2  0
 36 35  1  0
 37 11  1  0
 37 38  1  0
 37 47  1  0
 38 41  1  0
 39 43  1  0
 39 38  1  0
 40 39  2  0
 43 42  1  0
 45 43  1  0
 45 46  1  0
 45 44  1  0
 47 50  1  1
 47 48  1  0
 49 47  1  0
 52 51  1  0
 52 53  1  0
 53 54  1  0
 54 56  1  0
 54 55  1  0
 57 58  1  0
 57 54  1  0
 58 59  1  0
 59 60  1  0
 61 69  1  0
 62 67  1  0
 63 64  1  0
 63 62  1  0
 65 64  1  0
 65 74  1  0
 65 66  1  0
 67 61  1  0
 67 66  1  0
 68 61  2  0
 69 70  1  0
 69 60  1  0
 71 72  2  0
 72 91  1  0
 73 72  1  0
 73 76  1  0
 74 75  1  0
 74 71  1  0
 75 73  2  0
 76 77  1  0
 77 78  2  0
 79 82  1  0
 79 78  1  0
 80 79  2  0
 81 80  1  0
 81 76  2  0
 82 83  1  0
 83 84  1  0
 84 85  2  0
 86 85  1  0
 86 90  1  0
 87 86  2  0
 88 83  2  0
 88 87  1  0
 89 88  1  0
 91 92  1  0
 92 95  1  0
 92 94  1  0
 93 91  2  0
 96 71  1  0
 96 97  1  0
 98 96  1  0
M  ISO  4   9 101  10 101  61 100  69 100
M  END
>  <TORSDO>  (46) 
F 30

>  <SCORE>  (46) 
-10.027

>  <name>  (46) 
50

>  <ligand_id>  (46) 
50

>  <original_smiles>  (46) 
[H]c1c([H])c([H])c2c(c1[H])C([H])([H])C([H])([H])C([H])([H])C2([H])N([H])C(=O)C1([H])N(C(=O)C([H])(N([H])C(=O)C([H])(N([H])C([H])([H])[H])C([H])([H])[H])C(C([H])([H])[H])(C([H])([H])[H])C([H])([H])[H])C([H])([H])c2c([H])c(OC([H])([H])C([H])([H])C([H])([H])OC([H])([H])C([H])([H])[N+]([H])([H])C([H])([H])C([H])([H])C([H])([H])[N+]([H])([H])C([H])([H])C([H])([H])C([H])([H])C([H])([H])N([H])C(=O)N3C([H])([H])C([H])([H])C([H])([H])C([H])(n4nc(-c5c([H])c([H])c(Oc6c([H])c([H])c(F)c([H])c6F)c([H])c5[H])c(C(=O)N([H])[H])c4N([H])[H])C3([H])[H])c([H])c([H])c2C1([H])[H]

>  <smiles>  (46) 
[H]c1c([H])c([H])c2c(c1[H])C([H])([H])C([H])([H])C([H])([H])C2([H])N([H])C(=O)C1([H])N(C(=O)C([H])(N([H])C(=O)C([H])(N([H])C([H])([H])[H])C([H])([H])[H])C(C([H])([H])[H])(C([H])([H])[H])C([H])([H])[H])C([H])([H])c2c([H])c(OC([H])([H])C([H])([H])C([H])([H])OC([H])([H])C([H])([H])[N+]([H])([H])C([H])([H])C([H])([H])C([H])([H])[N+]([H])([H])C([H])([H])C([H])([H])C([H])([H])C([H])([H])N([H])C(=O)N3C([H])([H])C([H])([H])C([H])([H])C([H])(n4nc(-c5c([H])c([H])c(Oc6c([H])c([H])c(F)c([H])c6F)c([H])c5[H])c(C(=O)N([H])[H])c4N([H])[H])C3([H])[H])c([H])c([H])c2C1([H])[H]

$$$$
51:0:0
     RDKit          3D

100107  0  0  1  0  0  0  0  0999 V2000
  -34.4280  -25.0970   20.4580 N   0  0  0  0  0  4  0  0  0  0  0  0
  -35.3840  -25.1490   20.7780 H   0  0  0  0  0  0  0  0  0  0  0  0
  -33.8780  -24.7620   21.2310 H   0  0  0  0  0  0  0  0  0  0  0  0
  -34.0000  -26.4700   20.0820 C   0  0  0  0  0  2  0  0  0  0  0  0
  -33.6240  -27.3820   21.2770 C   0  0  0  0  0  2  0  0  0  0  0  0
  -32.3560  -26.9920   22.0740 C   0  0  0  0  0  2  0  0  0  0  0  0
  -31.1100  -26.9710   21.2710 N   0  0  0  0  0  4  0  0  0  0  0  0
  -31.1500  -26.2250   20.5950 H   0  0  0  0  0  0  0  0  0  0  0  0
  -31.0210  -27.8340   20.7550 H   0  0  0  0  0  0  0  0  0  0  0  0
  -29.8790  -26.7850   22.0770 C   0  0  0  0  0  2  0  0  0  0  0  0
  -28.7500  -26.1260   21.2660 C   0  0  0  0  0  2  0  0  0  0  0  0
  -28.4690  -26.8870   20.0950 O   0  0  0  0  0  0  0  0  0  0  0  0
  -24.5960  -31.9560   23.2360 C   0  0  0  0  0  0  0  0  0  0  0  0
  -27.2910  -27.5840   20.1460 C   0  0  0  0  0  0  0  0  0  0  0  0
  -23.3960  -30.5340   21.6040 C   0  0  0  0  0  3  0  0  0  0  0  0
  -24.8640  -29.0100   20.1790 C   0  0  0  0  0  0  0  0  0  0  0  0
  -25.9090  -30.9390   21.3820 C   0  0  0  0  0  2  0  0  0  0  0  0
  -26.0120  -29.5670   20.7550 C   0  0  0  0  0  0  0  0  0  0  0  0
  -27.2310  -28.8580   20.7440 C   0  0  0  0  0  3  0  0  0  0  0  0
  -26.1340  -27.0280   19.5650 C   0  0  0  0  0  3  0  0  0  0  0  0
  -24.9160  -27.7370   19.5830 C   0  0  0  0  0  3  0  0  0  0  0  0
  -23.6050  -29.8480   20.2270 C   0  0  0  0  0  2  0  0  0  0  0  0
  -24.6520  -31.1570   22.1330 N   0  0  0  0  0  0  0  0  0  0  0  0
  -23.5170  -32.2160   23.7830 O   0  0  0  0  0  0  0  0  0  0  0  0
  -22.7680  -29.5060   22.5720 C   0  0  0  0  0  0  0  0  0  0  0  0
  -21.4450  -29.3060   22.4520 N   0  0  0  0  0  0  0  0  0  0  0  0
  -23.4650  -28.8930   23.3830 O   0  0  0  0  0  0  0  0  0  0  0  0
  -20.9440  -29.8550   21.7680 H   0  0  0  0  0  0  0  0  0  0  0  0
  -18.0890  -28.0770   22.9700 C   0  0  0  0  0  0  0  0  0  0  0  0
  -20.6450  -28.3600   23.2280 C   0  0  0  0  0  3  0  0  0  0  0  0
  -20.7590  -26.9300   22.6520 C   0  0  0  0  0  2  0  0  0  0  0  0
  -19.6550  -26.5940   21.6450 C   0  0  0  0  0  2  0  0  0  0  0  0
  -18.2750  -26.7280   22.2960 C   0  0  0  0  0  2  0  0  0  0  0  0
  -19.2030  -28.8500   23.3930 C   0  0  0  0  0  0  0  0  0  0  0  0
  -18.9750  -30.1120   23.9810 C   0  0  0  0  0  3  0  0  0  0  0  0
  -17.6670  -30.6030   24.1510 C   0  0  0  0  0  3  0  0  0  0  0  0
  -16.5670  -29.8260   23.7460 C   0  0  0  0  0  3  0  0  0  0  0  0
  -16.7800  -28.5650   23.1610 C   0  0  0  0  0  3  0  0  0  0  0  0
  -25.8810  -32.6040   23.8440 C   0  0  0  0  0  3  0  0  0  0  0  0
  -25.5600  -33.9990   24.1720 N   0  0  0  0  0  0  0  0  0  0  0  0
  -25.8860  -35.0530   23.4130 C   0  0  0  0  0  0  0  0  0  0  0  0
  -26.5610  -34.9530   22.3840 O   0  0  0  0  0  0  0  0  0  0  0  0
  -24.9590  -34.1470   24.9690 H   0  0  0  0  0  0  0  0  0  0  0  0
  -24.1500  -36.8320   23.0350 C   0  0  0  0  0  1  0  0  0  0  0  0
  -25.3800  -36.4350   23.8650 C   0  0  0  0  0  3  0  0  0  0  0  0
  -27.4990  -37.3290   24.7270 C   0  0  0  0  0  1  0  0  0  0  0  0
  -26.4050  -37.4970   23.7730 N   0  0  0  0  0  0  0  0  0  0  0  0
  -25.9900  -38.4120   23.9260 H   0  0  0  0  0  0  0  0  0  0  0  0
  -26.4230  -31.8390   25.1150 C   0  0  1  0  0  0  0  0  0  0  0  0
  -25.3480  -31.5970   26.2000 C   0  0  0  0  0  1  0  0  0  0  0  0
  -27.0060  -30.4620   24.7140 C   0  0  0  0  0  1  0  0  0  0  0  0
  -27.5790  -32.6400   25.7560 C   0  0  0  0  0  1  0  0  0  0  0  0
  -34.3500  -24.1290   19.3300 C   0  0  0  0  0  2  0  0  0  0  0  0
  -34.5400  -22.6430   19.7370 C   0  0  0  0  0  2  0  0  0  0  0  0
  -33.3210  -21.9510   20.4090 C   0  0  0  0  0  2  0  0  0  0  0  0
  -33.6170  -20.5380   20.7980 N   0  0  0  0  0  4  0  0  0  0  0  0
  -33.7860  -19.9580   19.9900 H   0  0  0  0  0  0  0  0  0  0  0  0
  -34.4800  -20.5510   21.3180 H   0  0  0  0  0  0  0  0  0  0  0  0
  -32.6400  -19.8440   21.6760 C   0  0  0  0  0  2  0  0  0  0  0  0
  -31.6210  -18.9680   20.9090 C   0  0  0  0  0  2  0  0  0  0  0  0
  -31.1110  -17.7290   21.6990 C   0  0  0  0  0  2  0  0  0  0  0  0
  -30.0240  -16.9480   20.9240 C   0  0  0  0  0  2  0  0  0  0  0  0
  -30.5730  -14.5720   20.5170 C   0  0  0  0  0  0  0  0  0  0  0  0
  -30.3030  -12.4490   19.2990 C   0  0  0  0  0  2  0  0  0  0  0  0
  -29.3650  -12.6880   18.0990 C   0  0  0  0  0  2  0  0  0  0  0  0
  -27.8880  -12.5190   18.5070 C   0  0  0  0  0  2  0  0  0  0  0  0
  -27.5320  -13.3070   19.7990 C   0  0  0  0  0  3  0  0  0  0  0  0
  -28.5860  -13.0560   20.9020 C   0  0  0  0  0  2  0  0  0  0  0  0
  -29.9190  -13.3870   20.3650 N   0  0  0  0  0  0  0  0  0  0  0  0
  -31.6240  -14.8410   19.9320 O   0  0  0  0  0  0  0  0  0  0  0  0
  -29.9250  -15.5100   21.2250 N   0  0  0  0  0  0  0  0  0  0  0  0
  -29.1200  -15.1950   21.7460 H   0  0  0  0  0  0  0  0  0  0  0  0
  -25.1030  -13.8470   20.4710 C   0  0  0  0  0  0  0  0  0  0  0  0
  -24.0540  -13.0460   20.8410 C   0  0  0  0  0  0  0  0  0  0  0  0
  -24.5580  -11.7080   20.8280 C   0  0  0  0  0  0  0  0  0  0  0  0
  -26.1800  -12.9970   20.2640 N   0  0  0  0  0  0  0  0  0  0  0  0
  -25.8510  -11.7070   20.5310 N   0  0  0  0  0  0  0  0  0  0  0  0
  -23.8700  -10.4250   21.0310 C   0  0  0  0  0  0  0  0  0  0  0  0
  -24.3200   -9.4930   21.9920 C   0  0  0  0  0  3  0  0  0  0  0  0
  -23.6350   -8.2730   22.1790 C   0  0  0  0  0  3  0  0  0  0  0  0
  -22.4890   -7.9760   21.4080 C   0  0  0  0  0  0  0  0  0  0  0  0
  -22.0570   -8.9000   20.4390 C   0  0  0  0  0  3  0  0  0  0  0  0
  -22.7420  -10.1120   20.2490 C   0  0  0  0  0  3  0  0  0  0  0  0
  -21.7690   -6.8090   21.5070 O   0  0  0  0  0  0  0  0  0  0  0  0
  -21.7230   -6.0850   22.6720 C   0  0  0  0  0  0  0  0  0  0  0  0
  -21.2410   -6.6440   23.8750 C   0  0  0  0  0  3  0  0  0  0  0  0
  -21.1450   -5.8460   25.0320 C   0  0  0  0  0  3  0  0  0  0  0  0
  -21.5170   -4.4890   24.9850 C   0  0  0  0  0  0  0  0  0  0  0  0
  -21.9900   -3.9290   23.7850 C   0  0  0  0  0  3  0  0  0  0  0  0
  -22.0880   -4.7230   22.6300 C   0  0  0  0  0  0  0  0  0  0  0  0
  -22.5250   -4.1730   21.4720 F   0  0  0  0  0  0  0  0  0  0  0  0
  -21.4170   -3.7190   26.0950 F   0  0  0  0  0  0  0  0  0  0  0  0
  -22.6400  -13.4820   21.0980 C   0  0  0  0  0  0  0  0  0  0  0  0
  -21.9250  -12.7730   21.9630 N   0  0  0  0  0  0  0  0  0  0  0  0
  -22.1770  -14.4870   20.5610 O   0  0  0  0  0  0  0  0  0  0  0  0
  -22.3130  -11.9660   22.4270 H   0  0  0  0  0  0  0  0  0  0  0  0
  -20.9760  -13.0500   22.1670 H   0  0  0  0  0  0  0  0  0  0  0  0
  -25.2310  -15.2200   20.2800 N   0  0  0  0  0  0  0  0  0  0  0  0
  -24.4490  -15.8610   20.3510 H   0  0  0  0  0  0  0  0  0  0  0  0
  -26.0860  -15.6660   19.9700 H   0  0  0  0  0  0  0  0  0  0  0  0
  1  2  1  0
  1  3  1  0
  4  1  1  0
  4  5  1  0
  5  6  1  0
  7  6  1  0
  7 10  1  0
  8  7  1  0
  9  7  1  0
 11 10  1  0
 12 14  1  0
 12 11  1  0
 13 24  2  0
 14 19  1  0
 15 23  1  0
 15 25  1  0
 16 22  1  0
 16 18  1  0
 17 23  1  0
 18 17  1  0
 19 18  2  0
 20 21  1  0
 20 14  2  0
 21 16  2  0
 22 15  1  0
 23 13  1  0
 25 27  2  0
 26 25  1  0
 28 26  1  0
 29 38  2  0
 29 34  1  0
 30 26  1  0
 30 34  1  0
 31 30  1  0
 32 33  1  0
 32 31  1  0
 33 29  1  0
 34 35  2  0
 35 36  1  0
 37 36  2  0
 38 37  1  0
 39 13  1  0
 39 40  1  0
 39 49  1  0
 40 43  1  0
 41 45  1  0
 41 40  1  0
 42 41  2  0
 45 44  1  0
 47 45  1  0
 47 48  1  0
 47 46  1  0
 49 52  1  1
 49 50  1  0
 51 49  1  0
 53 54  1  0
 53  1  1  0
 54 55  1  0
 55 56  1  0
 56 58  1  0
 56 59  1  0
 57 56  1  0
 60 59  1  0
 60 61  1  0
 62 71  1  0
 62 61  1  0
 63 71  1  0
 64 69  1  0
 65 66  1  0
 65 64  1  0
 67 66  1  0
 67 76  1  0
 67 68  1  0
 69 63  1  0
 69 68  1  0
 70 63  2  0
 71 72  1  0
 73 74  2  0
 74 93  1  0
 75 74  1  0
 75 78  1  0
 76 73  1  0
 76 77  1  0
 77 75  2  0
 78 79  1  0
 79 80  2  0
 81 84  1  0
 81 80  1  0
 82 81  2  0
 83 82  1  0
 83 78  2  0
 84 85  1  0
 85 86  1  0
 86 87  2  0
 88 87  1  0
 88 92  1  0
 89 88  2  0
 90 85  2  0
 90 89  1  0
 91 90  1  0
 93 94  1  0
 94 97  1  0
 94 96  1  0
 95 93  2  0
 98 99  1  0
 98 73  1  0
100 98  1  0
M  ISO  4  11 101  12 101  63 100  71 100
M  END
>  <TORSDO>  (47) 
F 30

>  <SCORE>  (47) 
-10.949

>  <name>  (47) 
51

>  <ligand_id>  (47) 
51

>  <original_smiles>  (47) 
[H]c1c([H])c([H])c2c(c1[H])C([H])([H])C([H])([H])C([H])([H])C2([H])N([H])C(=O)C1([H])N(C(=O)C([H])(N([H])C(=O)C([H])(N([H])C([H])([H])[H])C([H])([H])[H])C(C([H])([H])[H])(C([H])([H])[H])C([H])([H])[H])C([H])([H])c2c([H])c(OC([H])([H])C([H])([H])[N+]([H])([H])C([H])([H])C([H])([H])C([H])([H])[N+]([H])([H])C([H])([H])C([H])([H])C([H])([H])[N+]([H])([H])C([H])([H])C([H])([H])C([H])([H])C([H])([H])N([H])C(=O)N3C([H])([H])C([H])([H])C([H])([H])C([H])(n4nc(-c5c([H])c([H])c(Oc6c([H])c([H])c(F)c([H])c6F)c([H])c5[H])c(C(=O)N([H])[H])c4N([H])[H])C3([H])[H])c([H])c([H])c2C1([H])[H]

>  <smiles>  (47) 
[H]c1c([H])c([H])c2c(c1[H])C([H])([H])C([H])([H])C([H])([H])C2([H])N([H])C(=O)C1([H])N(C(=O)C([H])(N([H])C(=O)C([H])(N([H])C([H])([H])[H])C([H])([H])[H])C(C([H])([H])[H])(C([H])([H])[H])C([H])([H])[H])C([H])([H])c2c([H])c(OC([H])([H])C([H])([H])[N+]([H])([H])C([H])([H])C([H])([H])C([H])([H])[N+]([H])([H])C([H])([H])C([H])([H])C([H])([H])[N+]([H])([H])C([H])([H])C([H])([H])C([H])([H])C([H])([H])N([H])C(=O)N3C([H])([H])C([H])([H])C([H])([H])C([H])(n4nc(-c5c([H])c([H])c(Oc6c([H])c([H])c(F)c([H])c6F)c([H])c5[H])c(C(=O)N([H])[H])c4N([H])[H])C3([H])[H])c([H])c([H])c2C1([H])[H]

$$$$
52:0:0
     RDKit          3D

 92 99  0  0  1  0  0  0  0  0999 V2000
  -30.5720  -21.4150   19.9940 N   0  0  0  0  0  0  0  0  0  0  0  0
  -31.5730  -21.5890   20.0650 H   0  0  0  0  0  0  0  0  0  0  0  0
  -30.2120  -20.3310   20.9040 C   0  0  0  0  0  2  0  0  0  0  0  0
  -31.1430  -19.1260   20.6650 C   0  0  0  0  0  2  0  0  0  0  0  0
  -30.7080  -17.9190   21.3970 N   0  0  0  0  0  4  0  0  0  0  0  0
  -30.4060  -18.1890   22.3190 H   0  0  0  0  0  0  0  0  0  0  0  0
  -29.9230  -17.5100   20.9170 H   0  0  0  0  0  0  0  0  0  0  0  0
  -31.7780  -16.9100   21.5350 C   0  0  0  0  0  2  0  0  0  0  0  0
  -31.2990  -15.6060   22.2070 C   0  0  0  0  0  2  0  0  0  0  0  0
  -30.5140  -14.2580   20.2660 C   0  0  0  0  0  0  0  0  0  0  0  0
  -30.0270  -12.2730   18.8870 C   0  0  0  0  0  2  0  0  0  0  0  0
  -29.0030  -12.5350   17.7710 C   0  0  0  0  0  2  0  0  0  0  0  0
  -27.5690  -12.3540   18.3000 C   0  0  0  0  0  2  0  0  0  0  0  0
  -27.3190  -13.1370   19.6140 C   0  0  0  0  0  3  0  0  0  0  0  0
  -28.4410  -12.8700   20.6410 C   0  0  0  0  0  2  0  0  0  0  0  0
  -29.7390  -13.1740   20.0130 N   0  0  0  0  0  0  0  0  0  0  0  0
  -31.4430  -14.6140   19.5370 O   0  0  0  0  0  0  0  0  0  0  0  0
  -30.2990  -14.8420   21.4530 N   0  0  0  0  0  0  0  0  0  0  0  0
  -29.5200  -14.4740   21.9810 H   0  0  0  0  0  0  0  0  0  0  0  0
  -24.9450  -13.6950   20.4400 C   0  0  0  0  0  0  0  0  0  0  0  0
  -23.9180  -12.9010   20.8770 C   0  0  0  0  0  0  0  0  0  0  0  0
  -24.4140  -11.5620   20.8420 C   0  0  0  0  0  0  0  0  0  0  0  0
  -26.0000  -12.8380   20.1670 N   0  0  0  0  0  0  0  0  0  0  0  0
  -25.6850  -11.5510   20.4650 N   0  0  0  0  0  0  0  0  0  0  0  0
  -23.7340  -10.2840   21.0900 C   0  0  0  0  0  0  0  0  0  0  0  0
  -24.2250   -9.3570   22.0360 C   0  0  0  0  0  3  0  0  0  0  0  0
  -23.5440   -8.1440   22.2700 C   0  0  0  0  0  3  0  0  0  0  0  0
  -22.3580   -7.8470   21.5570 C   0  0  0  0  0  0  0  0  0  0  0  0
  -21.8850   -8.7620   20.6010 C   0  0  0  0  0  3  0  0  0  0  0  0
  -22.5680   -9.9680   20.3650 C   0  0  0  0  0  3  0  0  0  0  0  0
  -21.6450   -6.6810   21.6990 O   0  0  0  0  0  0  0  0  0  0  0  0
  -21.6430   -5.9770   22.8760 C   0  0  0  0  0  0  0  0  0  0  0  0
  -21.2250   -6.5600   24.0930 C   0  0  0  0  0  3  0  0  0  0  0  0
  -21.1730   -5.7800   25.2660 C   0  0  0  0  0  3  0  0  0  0  0  0
  -21.5300   -4.4180   25.2230 C   0  0  0  0  0  0  0  0  0  0  0  0
  -21.9400   -3.8350   24.0120 C   0  0  0  0  0  3  0  0  0  0  0  0
  -21.9940   -4.6120   22.8410 C   0  0  0  0  0  0  0  0  0  0  0  0
  -22.3700   -4.0400   21.6720 F   0  0  0  0  0  0  0  0  0  0  0  0
  -21.4720   -3.6670   26.3470 F   0  0  0  0  0  0  0  0  0  0  0  0
  -22.5250  -13.3460   21.2180 C   0  0  0  0  0  0  0  0  0  0  0  0
  -21.8660  -12.6490   22.1370 N   0  0  0  0  0  0  0  0  0  0  0  0
  -22.0300  -14.3470   20.7020 O   0  0  0  0  0  0  0  0  0  0  0  0
  -22.2800  -11.8390   22.5750 H   0  0  0  0  0  0  0  0  0  0  0  0
  -20.9350  -12.9310   22.4070 H   0  0  0  0  0  0  0  0  0  0  0  0
  -25.0620  -15.0670   20.2330 N   0  0  0  0  0  0  0  0  0  0  0  0
  -24.2860  -15.7050   20.3730 H   0  0  0  0  0  0  0  0  0  0  0  0
  -25.8870  -15.5220   19.8600 H   0  0  0  0  0  0  0  0  0  0  0  0
  -29.8740  -22.6450   20.3390 C   0  0  0  0  0  2  0  0  0  0  0  0
  -30.2790  -23.7370   19.3360 C   0  0  0  0  0  2  0  0  0  0  0  0
  -29.9390  -25.1590   19.8070 C   0  0  0  0  0  2  0  0  0  0  0  0
  -28.4520  -25.5330   19.7380 C   0  0  0  0  0  2  0  0  0  0  0  0
  -28.3610  -26.8640   20.2320 O   0  0  0  0  0  0  0  0  0  0  0  0
  -24.5050  -31.9790   23.2660 C   0  0  0  0  0  0  0  0  0  0  0  0
  -27.1470  -27.5130   20.2300 C   0  0  0  0  0  0  0  0  0  0  0  0
  -23.2910  -30.5520   21.6490 C   0  0  0  0  0  3  0  0  0  0  0  0
  -24.7380  -28.9920   20.2460 C   0  0  0  0  0  0  0  0  0  0  0  0
  -25.8130  -30.9130   21.4350 C   0  0  0  0  0  2  0  0  0  0  0  0
  -25.8950  -29.5330   20.8160 C   0  0  0  0  0  0  0  0  0  0  0  0
  -27.0990  -28.8000   20.8080 C   0  0  0  0  0  3  0  0  0  0  0  0
  -25.9670  -26.9690   19.6710 C   0  0  0  0  0  3  0  0  0  0  0  0
  -24.7670  -27.7060   19.6750 C   0  0  0  0  0  3  0  0  0  0  0  0
  -23.4940  -29.8490   20.2800 C   0  0  0  0  0  2  0  0  0  0  0  0
  -24.5550  -31.1630   22.1750 N   0  0  0  0  0  0  0  0  0  0  0  0
  -23.4270  -32.2580   23.8070 O   0  0  0  0  0  0  0  0  0  0  0  0
  -22.6470  -29.5440   22.6270 C   0  0  0  0  0  0  0  0  0  0  0  0
  -21.3240  -29.3520   22.4990 N   0  0  0  0  0  0  0  0  0  0  0  0
  -23.3320  -28.9380   23.4550 O   0  0  0  0  0  0  0  0  0  0  0  0
  -20.8320  -29.8920   21.8010 H   0  0  0  0  0  0  0  0  0  0  0  0
  -17.9560  -28.1460   23.0000 C   0  0  0  0  0  0  0  0  0  0  0  0
  -20.5100  -28.4250   23.2830 C   0  0  0  0  0  3  0  0  0  0  0  0
  -20.6250  -26.9830   22.7370 C   0  0  0  0  0  2  0  0  0  0  0  0
  -19.5320  -26.6320   21.7220 C   0  0  0  0  0  2  0  0  0  0  0  0
  -18.1450  -26.7830   22.3540 C   0  0  0  0  0  2  0  0  0  0  0  0
  -19.0670  -28.9220   23.4210 C   0  0  0  0  0  0  0  0  0  0  0  0
  -18.8380  -30.1980   23.9820 C   0  0  0  0  0  3  0  0  0  0  0  0
  -17.5290  -30.6960   24.1270 C   0  0  0  0  0  3  0  0  0  0  0  0
  -16.4320  -29.9150   23.7230 C   0  0  0  0  0  3  0  0  0  0  0  0
  -16.6470  -28.6410   23.1650 C   0  0  0  0  0  3  0  0  0  0  0  0
  -25.7940  -32.6170   23.8710 C   0  0  0  0  0  3  0  0  0  0  0  0
  -26.3260  -31.8590   25.1490 C   0  0  1  0  0  0  0  0  0  0  0  0
  -25.2410  -31.6210   26.2260 C   0  0  0  0  0  1  0  0  0  0  0  0
  -26.9160  -30.4830   24.7620 C   0  0  0  0  0  1  0  0  0  0  0  0
  -27.4750  -32.6650   25.7980 C   0  0  0  0  0  1  0  0  0  0  0  0
  -25.4880  -34.0180   24.1870 N   0  0  0  0  0  0  0  0  0  0  0  0
  -25.8210  -35.0610   23.4150 C   0  0  0  0  0  0  0  0  0  0  0  0
  -26.4910  -34.9460   22.3850 O   0  0  0  0  0  0  0  0  0  0  0  0
  -24.8940  -34.1820   24.9860 H   0  0  0  0  0  0  0  0  0  0  0  0
  -24.0950  -36.8500   23.0330 C   0  0  0  0  0  1  0  0  0  0  0  0
  -25.3320  -36.4540   23.8550 C   0  0  0  0  0  3  0  0  0  0  0  0
  -27.4640  -37.3440   24.6870 C   0  0  0  0  0  1  0  0  0  0  0  0
  -26.3660  -37.5050   23.7370 N   0  0  0  0  0  0  0  0  0  0  0  0
  -25.9610  -38.4270   23.8760 H   0  0  0  0  0  0  0  0  0  0  0  0
  1  2  1  0
  1 48  1  0
  1  3  1  0
  4  3  1  0
  4  5  1  0
  5  8  1  0
  5  6  1  0
  7  5  1  0
  8  9  1  0
 10 18  1  0
 11 16  1  0
 12 13  1  0
 12 11  1  0
 14 13  1  0
 14 23  1  0
 14 15  1  0
 16 10  1  0
 16 15  1  0
 17 10  2  0
 18 19  1  0
 18  9  1  0
 20 21  2  0
 21 40  1  0
 22 21  1  0
 22 25  1  0
 23 20  1  0
 23 24  1  0
 24 22  2  0
 25 26  1  0
 26 27  2  0
 28 31  1  0
 28 27  1  0
 29 28  2  0
 30 29  1  0
 30 25  2  0
 31 32  1  0
 32 33  1  0
 33 34  2  0
 35 34  1  0
 35 39  1  0
 36 35  2  0
 37 32  2  0
 37 36  1  0
 38 37  1  0
 40 41  1  0
 41 44  1  0
 41 43  1  0
 42 40  2  0
 45 46  1  0
 45 20  1  0
 47 45  1  0
 49 50  1  0
 49 48  1  0
 51 50  1  0
 51 52  1  0
 53 64  2  0
 54 52  1  0
 54 59  1  0
 55 63  1  0
 55 65  1  0
 56 62  1  0
 56 58  1  0
 57 63  1  0
 58 57  1  0
 59 58  2  0
 60 61  1  0
 60 54  2  0
 61 56  2  0
 62 55  1  0
 63 53  1  0
 65 67  2  0
 66 65  1  0
 68 66  1  0
 69 78  2  0
 69 74  1  0
 70 66  1  0
 70 74  1  0
 71 70  1  0
 72 73  1  0
 72 71  1  0
 73 69  1  0
 74 75  2  0
 75 76  1  0
 77 76  2  0
 78 77  1  0
 79 53  1  0
 79 84  1  0
 79 80  1  0
 80 83  1  1
 80 81  1  0
 82 80  1  0
 84 87  1  0
 85 89  1  0
 85 84  1  0
 86 85  2  0
 89 88  1  0
 91 89  1  0
 91 92  1  0
 91 90  1  0
M  ISO  4  10 100  18 100  51 101  52 101
M  END
>  <TORSDO>  (48) 
F 25

>  <SCORE>  (48) 
-10.900

>  <name>  (48) 
52

>  <ligand_id>  (48) 
52

>  <original_smiles>  (48) 
[H]c1c([H])c([H])c2c(c1[H])C([H])([H])C([H])([H])C([H])([H])C2([H])N([H])C(=O)C1([H])N(C(=O)C([H])(N([H])C(=O)C([H])(N([H])C([H])([H])[H])C([H])([H])[H])C(C([H])([H])[H])(C([H])([H])[H])C([H])([H])[H])C([H])([H])c2c([H])c(OC([H])([H])C([H])([H])C([H])([H])C([H])([H])N([H])C([H])([H])C([H])([H])[N+]([H])([H])C([H])([H])C([H])([H])N([H])C(=O)N3C([H])([H])C([H])([H])C([H])([H])C([H])(n4nc(-c5c([H])c([H])c(Oc6c([H])c([H])c(F)c([H])c6F)c([H])c5[H])c(C(=O)N([H])[H])c4N([H])[H])C3([H])[H])c([H])c([H])c2C1([H])[H]

>  <smiles>  (48) 
[H]c1c([H])c([H])c2c(c1[H])C([H])([H])C([H])([H])C([H])([H])C2([H])N([H])C(=O)C1([H])N(C(=O)C([H])(N([H])C(=O)C([H])(N([H])C([H])([H])[H])C([H])([H])[H])C(C([H])([H])[H])(C([H])([H])[H])C([H])([H])[H])C([H])([H])c2c([H])c(OC([H])([H])C([H])([H])C([H])([H])C([H])([H])N([H])C([H])([H])C([H])([H])[N+]([H])([H])C([H])([H])C([H])([H])N([H])C(=O)N3C([H])([H])C([H])([H])C([H])([H])C([H])(n4nc(-c5c([H])c([H])c(Oc6c([H])c([H])c(F)c([H])c6F)c([H])c5[H])c(C(=O)N([H])[H])c4N([H])[H])C3([H])[H])c([H])c([H])c2C1([H])[H]

$$$$
53:0:0
     RDKit          3D

 99106  0  0  1  0  0  0  0  0999 V2000
  -29.8340  -25.8860   23.7660 O   0  0  0  0  0  0  0  0  0  0  0  0
  -29.9840  -27.2430   23.3610 C   0  0  0  0  0  2  0  0  0  0  0  0
  -30.9490  -27.2210   22.1680 C   0  0  0  0  0  2  0  0  0  0  0  0
  -30.5930  -26.1060   21.2620 N   0  0  0  0  0  4  0  0  0  0  0  0
  -30.7220  -25.2470   21.7730 H   0  0  0  0  0  0  0  0  0  0  0  0
  -29.6100  -26.1900   21.0560 H   0  0  0  0  0  0  0  0  0  0  0  0
  -31.3380  -26.0340   19.9860 C   0  0  0  0  0  2  0  0  0  0  0  0
  -30.3810  -25.8940   18.7850 C   0  0  0  0  0  2  0  0  0  0  0  0
  -29.3370  -27.0220   18.7430 C   0  0  0  0  0  2  0  0  0  0  0  0
  -28.0720  -26.5450   18.2930 O   0  0  0  0  0  0  0  0  0  0  0  0
  -24.7570  -30.0190   23.5630 C   0  0  0  0  0  0  0  0  0  0  0  0
  -26.9650  -27.2410   18.7310 C   0  0  0  0  0  0  0  0  0  0  0  0
  -23.3540  -29.4260   21.6090 C   0  0  0  0  0  3  0  0  0  0  0  0
  -24.6180  -28.5920   19.5540 C   0  0  0  0  0  0  0  0  0  0  0  0
  -25.8610  -29.8270   21.3430 C   0  0  0  0  0  2  0  0  0  0  0  0
  -25.8340  -28.8370   20.2020 C   0  0  0  0  0  0  0  0  0  0  0  0
  -27.0050  -28.1720   19.7960 C   0  0  0  0  0  3  0  0  0  0  0  0
  -25.7350  -27.0070   18.0800 C   0  0  0  0  0  3  0  0  0  0  0  0
  -24.5610  -27.6730   18.4880 C   0  0  0  0  0  3  0  0  0  0  0  0
  -23.4160  -29.3600   20.0570 C   0  0  0  0  0  2  0  0  0  0  0  0
  -24.6800  -29.7460   22.2300 N   0  0  0  0  0  0  0  0  0  0  0  0
  -23.7390  -30.0540   24.2680 O   0  0  0  0  0  0  0  0  0  0  0  0
  -22.7390  -28.1080   22.1280 C   0  0  0  0  0  0  0  0  0  0  0  0
  -21.4320  -27.9250   21.8830 N   0  0  0  0  0  0  0  0  0  0  0  0
  -23.4340  -27.2670   22.7060 O   0  0  0  0  0  0  0  0  0  0  0  0
  -20.9320  -28.6650   21.4090 H   0  0  0  0  0  0  0  0  0  0  0  0
  -18.2090  -26.3500   21.4800 C   0  0  0  0  0  0  0  0  0  0  0  0
  -20.6450  -26.7450   22.2400 C   0  0  0  0  0  3  0  0  0  0  0  0
  -21.0140  -25.5390   21.3450 C   0  0  0  0  0  2  0  0  0  0  0  0
  -20.1180  -25.4080   20.1110 C   0  0  0  0  0  2  0  0  0  0  0  0
  -18.6510  -25.2540   20.5250 C   0  0  0  0  0  2  0  0  0  0  0  0
  -19.1460  -27.0610   22.2730 C   0  0  0  0  0  0  0  0  0  0  0  0
  -18.6860  -28.0950   23.1170 C   0  0  0  0  0  3  0  0  0  0  0  0
  -17.3180  -28.4180   23.1780 C   0  0  0  0  0  3  0  0  0  0  0  0
  -16.3910  -27.6990   22.4030 C   0  0  0  0  0  3  0  0  0  0  0  0
  -16.8350  -26.6660   21.5600 C   0  0  0  0  0  3  0  0  0  0  0  0
  -26.1190  -30.3220   24.2630 C   0  0  0  0  0  3  0  0  0  0  0  0
  -26.1100  -31.7400   24.6460 N   0  0  0  0  0  0  0  0  0  0  0  0
  -26.9300  -32.6710   24.1370 C   0  0  0  0  0  0  0  0  0  0  0  0
  -27.8320  -32.4030   23.3390 O   0  0  0  0  0  0  0  0  0  0  0  0
  -25.3610  -32.0390   25.2520 H   0  0  0  0  0  0  0  0  0  0  0  0
  -25.9990  -34.9110   23.4750 C   0  0  0  0  0  1  0  0  0  0  0  0
  -26.7140  -34.1280   24.5870 C   0  0  0  0  0  3  0  0  0  0  0  0
  -28.6250  -34.2450   26.1260 C   0  0  0  0  0  1  0  0  0  0  0  0
  -27.9690  -34.8210   24.9550 N   0  0  0  0  0  0  0  0  0  0  0  0
  -27.7970  -35.8070   25.1380 H   0  0  0  0  0  0  0  0  0  0  0  0
  -26.3950  -29.4050   25.5170 C   0  0  1  0  0  0  0  0  0  0  0  0
  -25.2090  -29.3300   26.5060 C   0  0  0  0  0  1  0  0  0  0  0  0
  -26.7300  -27.9610   25.0730 C   0  0  0  0  0  1  0  0  0  0  0  0
  -27.6290  -29.9270   26.2900 C   0  0  0  0  0  1  0  0  0  0  0  0
  -28.6000  -25.2900   23.3900 C   0  0  0  0  0  2  0  0  0  0  0  0
  -28.8260  -23.7710   23.3220 C   0  0  0  0  0  2  0  0  0  0  0  0
  -30.2010  -23.3980   22.7400 C   0  0  0  0  0  2  0  0  0  0  0  0
  -30.5110  -21.8930   22.8140 C   0  0  0  0  0  2  0  0  0  0  0  0
  -31.8010  -21.5330   22.0560 C   0  0  0  0  0  2  0  0  0  0  0  0
  -32.0090  -20.0750   21.9530 N   0  0  0  0  0  4  0  0  0  0  0  0
  -31.1090  -19.6240   21.8940 H   0  0  0  0  0  0  0  0  0  0  0  0
  -32.4650  -19.7460   22.7900 H   0  0  0  0  0  0  0  0  0  0  0  0
  -32.8320  -19.6730   20.7930 C   0  0  0  0  0  2  0  0  0  0  0  0
  -32.8770  -18.1440   20.6250 C   0  0  0  0  0  2  0  0  0  0  0  0
  -33.4080  -17.7120   19.2490 C   0  0  0  0  0  2  0  0  0  0  0  0
  -34.1210  -15.5610   18.2130 C   0  0  0  0  0  0  0  0  0  0  0  0
  -34.1620  -13.3960   17.0450 C   0  0  0  0  0  2  0  0  0  0  0  0
  -32.9060  -13.2570   16.1630 C   0  0  0  0  0  2  0  0  0  0  0  0
  -31.7200  -12.6920   16.9730 C   0  0  0  0  0  2  0  0  0  0  0  0
  -31.5030  -13.4400   18.3170 C   0  0  0  0  0  3  0  0  0  0  0  0
  -32.8390  -13.5740   19.0800 C   0  0  0  0  0  2  0  0  0  0  0  0
  -33.8140  -14.2400   18.1940 N   0  0  0  0  0  0  0  0  0  0  0  0
  -34.8450  -16.1120   17.3770 O   0  0  0  0  0  0  0  0  0  0  0  0
  -33.5010  -16.2580   19.1710 N   0  0  0  0  0  0  0  0  0  0  0  0
  -32.9350  -15.7180   19.8080 H   0  0  0  0  0  0  0  0  0  0  0  0
  -29.1820  -13.2010   19.4120 C   0  0  0  0  0  0  0  0  0  0  0  0
  -28.6240  -12.1990   20.1640 C   0  0  0  0  0  0  0  0  0  0  0  0
  -29.6320  -11.1980   20.2970 C   0  0  0  0  0  0  0  0  0  0  0  0
  -30.4770  -12.7880   19.1310 N   0  0  0  0  0  0  0  0  0  0  0  0
  -30.7570  -11.5960   19.7170 N   0  0  0  0  0  0  0  0  0  0  0  0
  -29.5750   -9.8570   20.8950 C   0  0  0  0  0  0  0  0  0  0  0  0
  -30.7480   -9.1790   21.2960 C   0  0  0  0  0  3  0  0  0  0  0  0
  -30.6700   -7.8980   21.8840 C   0  0  0  0  0  3  0  0  0  0  0  0
  -29.4100   -7.2830   22.0820 C   0  0  0  0  0  0  0  0  0  0  0  0
  -28.2470   -7.9530   21.6620 C   0  0  0  0  0  3  0  0  0  0  0  0
  -28.3280   -9.2260   21.0710 C   0  0  0  0  0  3  0  0  0  0  0  0
  -29.2370   -6.0320   22.6240 O   0  0  0  0  0  0  0  0  0  0  0  0
  -30.2950   -5.3090   23.1140 C   0  0  0  0  0  0  0  0  0  0  0  0
  -31.5930   -5.8560   23.2150 C   0  0  0  0  0  3  0  0  0  0  0  0
  -32.6350   -5.0990   23.7890 C   0  0  0  0  0  3  0  0  0  0  0  0
  -32.3790   -3.8010   24.2700 C   0  0  0  0  0  0  0  0  0  0  0  0
  -31.0860   -3.2570   24.1760 C   0  0  0  0  0  3  0  0  0  0  0  0
  -30.0470   -4.0100   23.6020 C   0  0  0  0  0  0  0  0  0  0  0  0
  -28.8000   -3.4870   23.5320 F   0  0  0  0  0  0  0  0  0  0  0  0
  -33.3770   -3.0790   24.8300 F   0  0  0  0  0  0  0  0  0  0  0  0
  -27.2030  -12.1290   20.6470 C   0  0  0  0  0  0  0  0  0  0  0  0
  -26.9560  -11.4040   21.7330 N   0  0  0  0  0  0  0  0  0  0  0  0
  -26.3070  -12.7570   20.0870 O   0  0  0  0  0  0  0  0  0  0  0  0
  -27.6920  -10.9060   22.2120 H   0  0  0  0  0  0  0  0  0  0  0  0
  -26.0140  -11.3490   22.0950 H   0  0  0  0  0  0  0  0  0  0  0  0
  -28.6970  -14.4130   18.9330 N   0  0  0  0  0  0  0  0  0  0  0  0
  -27.7370  -14.7090   19.0720 H   0  0  0  0  0  0  0  0  0  0  0  0
  -29.2190  -15.0380   18.3300 H   0  0  0  0  0  0  0  0  0  0  0  0
  2  1  1  0
  3  2  1  0
  4  5  1  0
  4  3  1  0
  6  4  1  0
  7  4  1  0
  8  7  1  0
  9  8  1  0
 10 12  1  0
 10  9  1  0
 11 22  2  0
 12 17  1  0
 13 23  1  0
 13 21  1  0
 14 20  1  0
 14 16  1  0
 15 21  1  0
 16 15  1  0
 17 16  2  0
 18 19  1  0
 18 12  2  0
 19 14  2  0
 20 13  1  0
 21 11  1  0
 23 25  2  0
 24 23  1  0
 26 24  1  0
 27 36  2  0
 27 32  1  0
 28 24  1  0
 28 32  1  0
 29 28  1  0
 30 31  1  0
 30 29  1  0
 31 27  1  0
 32 33  2  0
 33 34  1  0
 35 34  2  0
 36 35  1  0
 37 11  1  0
 37 38  1  0
 37 47  1  0
 38 41  1  0
 39 43  1  0
 39 38  1  0
 40 39  2  0
 43 42  1  0
 43 45  1  0
 45 46  1  0
 45 44  1  0
 47 50  1  1
 47 48  1  0
 49 47  1  0
 51  1  1  0
 52 51  1  0
 53 54  1  0
 53 52  1  0
 55 54  1  0
 56 55  1  0
 56 58  1  0
 57 56  1  0
 59 56  1  0
 60 59  1  0
 61 60  1  0
 62 70  1  0
 63 68  1  0
 64 65  1  0
 64 63  1  0
 66 65  1  0
 66 67  1  0
 66 75  1  0
 68 62  1  0
 68 67  1  0
 69 62  2  0
 70 61  1  0
 70 71  1  0
 72 73  2  0
 73 74  1  0
 73 92  1  0
 74 77  1  0
 75 72  1  0
 75 76  1  0
 76 74  2  0
 77 82  2  0
 77 78  1  0
 78 79  2  0
 79 80  1  0
 80 83  1  0
 81 80  2  0
 82 81  1  0
 83 84  1  0
 84 85  2  0
 84 89  1  0
 85 86  1  0
 86 87  2  0
 87 91  1  0
 88 87  1  0
 89 88  2  0
 90 89  1  0
 92 93  1  0
 93 96  1  0
 93 95  1  0
 94 92  2  0
 97 98  1  0
 97 72  1  0
 99 97  1  0
M  ISO  4   9 101  10 101  62 100  70 100
M  END
>  <TORSDO>  (49) 
F 31

>  <SCORE>  (49) 
-5.962

>  <name>  (49) 
53

>  <ligand_id>  (49) 
53

>  <original_smiles>  (49) 
[H]c1c([H])c([H])c2c(c1[H])C([H])([H])C([H])([H])C([H])([H])C2([H])N([H])C(=O)C1([H])N(C(=O)C([H])(N([H])C(=O)C([H])(N([H])C([H])([H])[H])C([H])([H])[H])C(C([H])([H])[H])(C([H])([H])[H])C([H])([H])[H])C([H])([H])c2c([H])c(OC([H])([H])C([H])([H])C([H])([H])[N+]([H])([H])C([H])([H])C([H])([H])OC([H])([H])C([H])([H])C([H])([H])C([H])([H])C([H])([H])[N+]([H])([H])C([H])([H])C([H])([H])C([H])([H])N([H])C(=O)N3C([H])([H])C([H])([H])C([H])([H])C([H])(n4nc(-c5c([H])c([H])c(Oc6c([H])c([H])c(F)c([H])c6F)c([H])c5[H])c(C(=O)N([H])[H])c4N([H])[H])C3([H])[H])c([H])c([H])c2C1([H])[H]

>  <smiles>  (49) 
[H]c1c([H])c([H])c2c(c1[H])C([H])([H])C([H])([H])C([H])([H])C2([H])N([H])C(=O)C1([H])N(C(=O)C([H])(N([H])C(=O)C([H])(N([H])C([H])([H])[H])C([H])([H])[H])C(C([H])([H])[H])(C([H])([H])[H])C([H])([H])[H])C([H])([H])c2c([H])c(OC([H])([H])C([H])([H])C([H])([H])[N+]([H])([H])C([H])([H])C([H])([H])OC([H])([H])C([H])([H])C([H])([H])C([H])([H])C([H])([H])[N+]([H])([H])C([H])([H])C([H])([H])C([H])([H])N([H])C(=O)N3C([H])([H])C([H])([H])C([H])([H])C([H])(n4nc(-c5c([H])c([H])c(Oc6c([H])c([H])c(F)c([H])c6F)c([H])c5[H])c(C(=O)N([H])[H])c4N([H])[H])C3([H])[H])c([H])c([H])c2C1([H])[H]

$$$$
54:0:0
     RDKit          3D

 93100  0  0  1  0  0  0  0  0999 V2000
  -29.8200  -22.4690   20.8000 N   0  0  0  0  0  4  0  0  0  0  0  0
  -28.8450  -22.3620   20.5670 H   0  0  0  0  0  0  0  0  0  0  0  0
  -30.3310  -22.4830   19.9320 H   0  0  0  0  0  0  0  0  0  0  0  0
  -30.2280  -21.2540   21.5380 C   0  0  0  0  0  2  0  0  0  0  0  0
  -30.0340  -17.5800   20.8800 C   0  0  0  0  0  0  0  0  0  0  0  0
  -29.7730  -19.9960   20.7970 C   0  0  0  0  0  0  0  0  0  0  0  0
  -30.2740  -18.8420   21.2700 N   0  0  0  0  0  0  0  0  0  0  0  0
  -29.2670  -17.2490   19.9660 O   0  0  0  0  0  0  0  0  0  0  0  0
  -28.9930  -20.1030   19.8440 O   0  0  0  0  0  0  0  0  0  0  0  0
  -30.9150  -18.9300   22.0440 H   0  0  0  0  0  0  0  0  0  0  0  0
  -30.7830  -16.5070   21.6800 C   0  0  0  0  0  2  0  0  0  0  0  0
  -30.7680  -14.3830   20.3930 C   0  0  0  0  0  0  0  0  0  0  0  0
  -30.3780  -12.3290   19.0820 C   0  0  0  0  0  2  0  0  0  0  0  0
  -29.4070  -12.5980   17.9180 C   0  0  0  0  0  2  0  0  0  0  0  0
  -27.9420  -12.4620   18.3800 C   0  0  0  0  0  2  0  0  0  0  0  0
  -27.6500  -13.2580   19.6790 C   0  0  0  0  0  3  0  0  0  0  0  0
  -28.7210  -12.9540   20.7500 C   0  0  0  0  0  2  0  0  0  0  0  0
  -30.0480  -13.2510   20.1770 N   0  0  0  0  0  0  0  0  0  0  0  0
  -31.7760  -14.6860   19.7480 O   0  0  0  0  0  0  0  0  0  0  0  0
  -30.3040  -15.1610   21.3750 N   0  0  0  0  0  0  0  0  0  0  0  0
  -29.4740  -14.8470   21.8520 H   0  0  0  0  0  0  0  0  0  0  0  0
  -25.2590  -13.8730   20.4140 C   0  0  0  0  0  0  0  0  0  0  0  0
  -24.1960  -13.1030   20.8020 C   0  0  0  0  0  0  0  0  0  0  0  0
  -24.6560  -11.7500   20.7690 C   0  0  0  0  0  0  0  0  0  0  0  0
  -26.3020  -12.9900   20.1750 N   0  0  0  0  0  0  0  0  0  0  0  0
  -25.9400  -11.7100   20.4420 N   0  0  0  0  0  0  0  0  0  0  0  0
  -23.9330  -10.4890   20.9760 C   0  0  0  0  0  0  0  0  0  0  0  0
  -24.3780   -9.5280   21.9100 C   0  0  0  0  0  3  0  0  0  0  0  0
  -23.6560   -8.3290   22.1030 C   0  0  0  0  0  3  0  0  0  0  0  0
  -22.4760   -8.0840   21.3620 C   0  0  0  0  0  0  0  0  0  0  0  0
  -22.0510   -9.0340   20.4160 C   0  0  0  0  0  3  0  0  0  0  0  0
  -22.7730  -10.2230   20.2220 C   0  0  0  0  0  3  0  0  0  0  0  0
  -21.7250   -6.9390   21.4640 O   0  0  0  0  0  0  0  0  0  0  0  0
  -21.6870   -6.2040   22.6220 C   0  0  0  0  0  0  0  0  0  0  0  0
  -21.2680   -6.7660   23.8480 C   0  0  0  0  0  3  0  0  0  0  0  0
  -21.1780   -5.9560   24.9980 C   0  0  0  0  0  3  0  0  0  0  0  0
  -21.4970   -4.5870   24.9240 C   0  0  0  0  0  0  0  0  0  0  0  0
  -21.9090   -4.0250   23.7020 C   0  0  0  0  0  3  0  0  0  0  0  0
  -22.0000   -4.8320   22.5540 C   0  0  0  0  0  0  0  0  0  0  0  0
  -22.3770   -4.2800   21.3760 F   0  0  0  0  0  0  0  0  0  0  0  0
  -21.4020   -3.8070   26.0260 F   0  0  0  0  0  0  0  0  0  0  0  0
  -22.8020  -13.5800   21.0970 C   0  0  0  0  0  0  0  0  0  0  0  0
  -22.0890  -12.8840   21.9750 N   0  0  0  0  0  0  0  0  0  0  0  0
  -22.3560  -14.6040   20.5820 O   0  0  0  0  0  0  0  0  0  0  0  0
  -22.4620  -12.0540   22.4110 H   0  0  0  0  0  0  0  0  0  0  0  0
  -21.1540  -13.1840   22.2130 H   0  0  0  0  0  0  0  0  0  0  0  0
  -25.4230  -15.2420   20.2300 N   0  0  0  0  0  0  0  0  0  0  0  0
  -24.6600  -15.9020   20.3490 H   0  0  0  0  0  0  0  0  0  0  0  0
  -26.2790  -15.6780   19.9070 H   0  0  0  0  0  0  0  0  0  0  0  0
  -30.0550  -23.7170   21.5600 C   0  0  0  0  0  2  0  0  0  0  0  0
  -29.8690  -25.0100   20.7400 C   0  0  0  0  0  2  0  0  0  0  0  0
  -28.4100  -25.4470   20.5270 C   0  0  0  0  0  2  0  0  0  0  0  0
  -28.4390  -26.8180   20.1440 O   0  0  0  0  0  0  0  0  0  0  0  0
  -24.5700  -31.8970   23.2410 C   0  0  0  0  0  0  0  0  0  0  0  0
  -27.2410  -27.4850   20.1710 C   0  0  0  0  0  0  0  0  0  0  0  0
  -23.3700  -30.4890   21.5970 C   0  0  0  0  0  3  0  0  0  0  0  0
  -24.8300  -28.9490   20.1850 C   0  0  0  0  0  0  0  0  0  0  0  0
  -25.8900  -30.8650   21.3990 C   0  0  0  0  0  2  0  0  0  0  0  0
  -25.9830  -29.4930   20.7660 C   0  0  0  0  0  0  0  0  0  0  0  0
  -27.1920  -28.7700   20.7510 C   0  0  0  0  0  3  0  0  0  0  0  0
  -26.0720  -26.9400   19.5970 C   0  0  0  0  0  3  0  0  0  0  0  0
  -24.8670  -27.6710   19.6000 C   0  0  0  0  0  3  0  0  0  0  0  0
  -23.5830  -29.8010   20.2220 C   0  0  0  0  0  2  0  0  0  0  0  0
  -24.6280  -31.0990   22.1370 N   0  0  0  0  0  0  0  0  0  0  0  0
  -23.4870  -32.1670   23.7800 O   0  0  0  0  0  0  0  0  0  0  0  0
  -22.7210  -29.4680   22.5580 C   0  0  0  0  0  0  0  0  0  0  0  0
  -21.3970  -29.2870   22.4330 N   0  0  0  0  0  0  0  0  0  0  0  0
  -23.4060  -28.8410   23.3710 O   0  0  0  0  0  0  0  0  0  0  0  0
  -20.9060  -29.8460   21.7480 H   0  0  0  0  0  0  0  0  0  0  0  0
  -18.0180  -28.1190   22.9440 C   0  0  0  0  0  0  0  0  0  0  0  0
  -20.5790  -28.3500   23.2010 C   0  0  0  0  0  3  0  0  0  0  0  0
  -20.6650  -26.9230   22.6120 C   0  0  0  0  0  2  0  0  0  0  0  0
  -19.5540  -26.6200   21.6030 C   0  0  0  0  0  2  0  0  0  0  0  0
  -18.1780  -26.7720   22.2570 C   0  0  0  0  0  2  0  0  0  0  0  0
  -19.1470  -28.8660   23.3720 C   0  0  0  0  0  0  0  0  0  0  0  0
  -18.9440  -30.1280   23.9720 C   0  0  0  0  0  3  0  0  0  0  0  0
  -17.6450  -30.6420   24.1480 C   0  0  0  0  0  3  0  0  0  0  0  0
  -16.5310  -29.8900   23.7360 C   0  0  0  0  0  3  0  0  0  0  0  0
  -16.7190  -28.6300   23.1410 C   0  0  0  0  0  3  0  0  0  0  0  0
  -25.8550  -32.5290   23.8630 C   0  0  0  0  0  3  0  0  0  0  0  0
  -25.5470  -33.9300   24.1840 N   0  0  0  0  0  0  0  0  0  0  0  0
  -25.8900  -34.9760   23.4210 C   0  0  0  0  0  0  0  0  0  0  0  0
  -26.5690  -34.8650   22.3970 O   0  0  0  0  0  0  0  0  0  0  0  0
  -24.9470  -34.0900   24.9790 H   0  0  0  0  0  0  0  0  0  0  0  0
  -24.1710  -36.7690   23.0320 C   0  0  0  0  0  1  0  0  0  0  0  0
  -25.3990  -36.3670   23.8650 C   0  0  0  0  0  3  0  0  0  0  0  0
  -27.5250  -37.2470   24.7210 C   0  0  0  0  0  1  0  0  0  0  0  0
  -26.4350  -37.4170   23.7630 N   0  0  0  0  0  0  0  0  0  0  0  0
  -26.0300  -38.3390   23.9060 H   0  0  0  0  0  0  0  0  0  0  0  0
  -26.3690  -31.7630   25.1430 C   0  0  1  0  0  0  0  0  0  0  0  0
  -25.2730  -31.5270   26.2090 C   0  0  0  0  0  1  0  0  0  0  0  0
  -26.9560  -30.3860   24.7520 C   0  0  0  0  0  1  0  0  0  0  0  0
  -27.5170  -32.5590   25.8070 C   0  0  0  0  0  1  0  0  0  0  0  0
  1  4  1  0
  1 50  1  0
  2  1  1  0
  3  1  1  0
  5  7  1  0
  5 11  1  0
  6  7  1  0
  6  4  1  0
  7 10  1  0
  8  5  2  0
  9  6  2  0
 12 20  1  0
 13 18  1  0
 14 15  1  0
 14 13  1  0
 16 15  1  0
 16 25  1  0
 16 17  1  0
 18 12  1  0
 18 17  1  0
 19 12  2  0
 20 11  1  0
 20 21  1  0
 22 23  2  0
 23 42  1  0
 24 23  1  0
 24 27  1  0
 25 22  1  0
 25 26  1  0
 26 24  2  0
 27 28  1  0
 28 29  2  0
 30 33  1  0
 30 29  1  0
 31 30  2  0
 32 31  1  0
 32 27  2  0
 33 34  1  0
 34 35  1  0
 35 36  2  0
 37 36  1  0
 37 41  1  0
 38 37  2  0
 39 34  2  0
 39 38  1  0
 40 39  1  0
 42 43  1  0
 43 46  1  0
 43 45  1  0
 44 42  2  0
 47 48  1  0
 47 22  1  0
 49 47  1  0
 51 50  1  0
 52 51  1  0
 53 55  1  0
 53 52  1  0
 54 65  2  0
 55 60  1  0
 56 64  1  0
 56 66  1  0
 57 63  1  0
 57 59  1  0
 58 64  1  0
 59 58  1  0
 60 59  2  0
 61 62  1  0
 61 55  2  0
 62 57  2  0
 63 56  1  0
 64 54  1  0
 66 68  2  0
 67 66  1  0
 69 67  1  0
 70 79  2  0
 70 75  1  0
 71 67  1  0
 71 75  1  0
 72 71  1  0
 73 74  1  0
 73 72  1  0
 74 70  1  0
 75 76  2  0
 76 77  1  0
 78 77  2  0
 79 78  1  0
 80 54  1  0
 80 81  1  0
 80 90  1  0
 81 84  1  0
 82 86  1  0
 82 81  1  0
 83 82  2  0
 86 85  1  0
 88 86  1  0
 88 89  1  0
 88 87  1  0
 90 93  1  1
 90 91  1  0
 92 90  1  0
M  ISO  4  12 100  20 100  52 101  53 101
M  END
>  <TORSDO>  (50) 
F 22

>  <SCORE>  (50) 
-13.436

>  <name>  (50) 
54

>  <ligand_id>  (50) 
54

>  <original_smiles>  (50) 
[H]c1c([H])c([H])c2c(c1[H])C([H])([H])C([H])([H])C([H])([H])C2([H])N([H])C(=O)C1([H])N(C(=O)C([H])(N([H])C(=O)C([H])(N([H])C([H])([H])[H])C([H])([H])[H])C(C([H])([H])[H])(C([H])([H])[H])C([H])([H])[H])C([H])([H])c2c([H])c(OC([H])([H])C([H])([H])C([H])([H])[N+]([H])([H])C([H])([H])C(=O)N([H])C(=O)C([H])([H])N([H])C(=O)N3C([H])([H])C([H])([H])C([H])([H])C([H])(n4nc(-c5c([H])c([H])c(Oc6c([H])c([H])c(F)c([H])c6F)c([H])c5[H])c(C(=O)N([H])[H])c4N([H])[H])C3([H])[H])c([H])c([H])c2C1([H])[H]

>  <smiles>  (50) 
[H]c1c([H])c([H])c2c(c1[H])C([H])([H])C([H])([H])C([H])([H])C2([H])N([H])C(=O)C1([H])N(C(=O)C([H])(N([H])C(=O)C([H])(N([H])C([H])([H])[H])C([H])([H])[H])C(C([H])([H])[H])(C([H])([H])[H])C([H])([H])[H])C([H])([H])c2c([H])c(OC([H])([H])C([H])([H])C([H])([H])[N+]([H])([H])C([H])([H])C(=O)N([H])C(=O)C([H])([H])N([H])C(=O)N3C([H])([H])C([H])([H])C([H])([H])C([H])(n4nc(-c5c([H])c([H])c(Oc6c([H])c([H])c(F)c([H])c6F)c([H])c5[H])c(C(=O)N([H])[H])c4N([H])[H])C3([H])[H])c([H])c([H])c2C1([H])[H]

$$$$
55:0:0
     RDKit          3D

101108  0  0  1  0  0  0  0  0999 V2000
  -24.8400  -22.7360   23.2470 N   0  0  0  0  0  0  0  0  0  0  0  0
  -24.2730  -21.9630   22.8950 H   0  0  0  0  0  0  0  0  0  0  0  0
  -25.7840  -23.1550   22.2150 C   0  0  0  0  0  2  0  0  0  0  0  0
  -25.6390  -22.2960   20.9500 C   0  0  0  0  0  2  0  0  0  0  0  0
  -26.5600  -22.7560   19.9120 N   0  0  0  0  0  0  0  0  0  0  0  0
  -27.5160  -22.5760   20.2210 H   0  0  0  0  0  0  0  0  0  0  0  0
  -26.3080  -22.1520   18.5970 C   0  0  0  0  0  2  0  0  0  0  0  0
  -27.6030  -21.7090   17.8900 C   0  0  0  0  0  2  0  0  0  0  0  0
  -28.3410  -20.6930   18.6660 N   0  0  0  0  0  4  0  0  0  0  0  0
  -28.7530  -21.1200   19.4800 H   0  0  0  0  0  0  0  0  0  0  0  0
  -27.6820  -20.0010   18.9840 H   0  0  0  0  0  0  0  0  0  0  0  0
  -29.4020  -19.9970   17.9100 C   0  0  0  0  0  2  0  0  0  0  0  0
  -30.4060  -19.3140   18.8560 C   0  0  0  0  0  2  0  0  0  0  0  0
  -30.4920  -16.8480   18.5920 C   0  0  0  0  0  0  0  0  0  0  0  0
  -30.9960  -14.4880   19.0710 C   0  0  0  0  0  2  0  0  0  0  0  0
  -30.2600  -13.4880   18.1680 C   0  0  0  0  0  2  0  0  0  0  0  0
  -28.8700  -13.1630   18.7390 C   0  0  0  0  0  2  0  0  0  0  0  0
  -28.0590  -14.4410   19.0750 C   0  0  0  0  0  3  0  0  0  0  0  0
  -28.8990  -15.4270   19.9180 C   0  0  0  0  0  2  0  0  0  0  0  0
  -30.1750  -15.6950   19.2240 N   0  0  0  0  0  0  0  0  0  0  0  0
  -31.3140  -16.9270   17.6730 O   0  0  0  0  0  0  0  0  0  0  0  0
  -29.9990  -17.9450   19.1810 N   0  0  0  0  0  0  0  0  0  0  0  0
  -29.4570  -17.7940   20.0210 H   0  0  0  0  0  0  0  0  0  0  0  0
  -25.8500  -14.9450   20.3050 C   0  0  0  0  0  0  0  0  0  0  0  0
  -24.8290  -14.1330   20.7200 C   0  0  0  0  0  0  0  0  0  0  0  0
  -25.2120  -12.8030   20.3620 C   0  0  0  0  0  0  0  0  0  0  0  0
  -26.7970  -14.1060   19.7350 N   0  0  0  0  0  0  0  0  0  0  0  0
  -26.4240  -12.8040   19.8210 N   0  0  0  0  0  0  0  0  0  0  0  0
  -24.4720  -11.5370   20.4520 C   0  0  0  0  0  0  0  0  0  0  0  0
  -24.9380  -10.4650   21.2440 C   0  0  0  0  0  3  0  0  0  0  0  0
  -24.2000   -9.2650   21.3300 C   0  0  0  0  0  3  0  0  0  0  0  0
  -22.9820   -9.1280   20.6220 C   0  0  0  0  0  0  0  0  0  0  0  0
  -22.5340  -10.1920   19.8180 C   0  0  0  0  0  3  0  0  0  0  0  0
  -23.2720  -11.3830   19.7300 C   0  0  0  0  0  3  0  0  0  0  0  0
  -22.2120   -7.9900   20.6250 O   0  0  0  0  0  0  0  0  0  0  0  0
  -21.9690   -7.2880   21.7780 C   0  0  0  0  0  0  0  0  0  0  0  0
  -21.3630   -7.8900   22.9020 C   0  0  0  0  0  3  0  0  0  0  0  0
  -21.0680   -7.1150   24.0410 C   0  0  0  0  0  3  0  0  0  0  0  0
  -21.3670   -5.7390   24.0550 C   0  0  0  0  0  0  0  0  0  0  0  0
  -21.9650   -5.1370   22.9350 C   0  0  0  0  0  3  0  0  0  0  0  0
  -22.2620   -5.9100   21.7970 C   0  0  0  0  0  0  0  0  0  0  0  0
  -22.8190   -5.3210   20.7110 F   0  0  0  0  0  0  0  0  0  0  0  0
  -21.0760   -4.9930   25.1460 F   0  0  0  0  0  0  0  0  0  0  0  0
  -23.5270  -14.5700   21.3280 C   0  0  0  0  0  0  0  0  0  0  0  0
  -22.9400  -13.7410   22.1830 N   0  0  0  0  0  0  0  0  0  0  0  0
  -23.0460  -15.6750   21.0800 O   0  0  0  0  0  0  0  0  0  0  0  0
  -23.3430  -12.8410   22.4010 H   0  0  0  0  0  0  0  0  0  0  0  0
  -22.0720  -14.0080   22.6260 H   0  0  0  0  0  0  0  0  0  0  0  0
  -26.0460  -16.3220   20.3490 N   0  0  0  0  0  0  0  0  0  0  0  0
  -25.3320  -16.9550   20.6900 H   0  0  0  0  0  0  0  0  0  0  0  0
  -26.8270  -16.8000   19.9180 H   0  0  0  0  0  0  0  0  0  0  0  0
  -23.9600  -23.8010   23.7540 C   0  0  0  0  0  2  0  0  0  0  0  0
  -23.3060  -24.6240   22.6180 C   0  0  0  0  0  2  0  0  0  0  0  0
  -24.0890  -25.8750   22.1620 C   0  0  0  0  0  2  0  0  0  0  0  0
  -25.2770  -25.5110   21.3590 N   0  0  0  0  0  4  0  0  0  0  0  0
  -24.9710  -24.9140   20.6060 H   0  0  0  0  0  0  0  0  0  0  0  0
  -25.9200  -24.9920   21.9370 H   0  0  0  0  0  0  0  0  0  0  0  0
  -25.9920  -26.6520   20.7510 C   0  0  0  0  0  2  0  0  0  0  0  0
  -27.0370  -26.1730   19.7210 C   0  0  0  0  0  2  0  0  0  0  0  0
  -27.7310  -27.2890   18.9150 C   0  0  0  0  0  2  0  0  0  0  0  0
  -26.8170  -27.9210   18.0250 O   0  0  0  0  0  0  0  0  0  0  0  0
  -24.3880  -31.9330   23.4110 C   0  0  0  0  0  0  0  0  0  0  0  0
  -25.8000  -28.6520   18.5830 C   0  0  0  0  0  0  0  0  0  0  0  0
  -22.7000  -31.1580   21.7760 C   0  0  0  0  0  3  0  0  0  0  0  0
  -23.6260  -30.1000   19.6470 C   0  0  0  0  0  0  0  0  0  0  0  0
  -25.1350  -31.4920   21.0770 C   0  0  0  0  0  2  0  0  0  0  0  0
  -24.9330  -30.3890   20.0630 C   0  0  0  0  0  0  0  0  0  0  0  0
  -26.0260  -29.6700   19.5370 C   0  0  0  0  0  3  0  0  0  0  0  0
  -24.4840  -28.3690   18.1720 C   0  0  0  0  0  3  0  0  0  0  0  0
  -23.3940  -29.0830   18.7040 C   0  0  0  0  0  3  0  0  0  0  0  0
  -22.5220  -30.9390   20.2500 C   0  0  0  0  0  2  0  0  0  0  0  0
  -24.1070  -31.5220   22.1420 N   0  0  0  0  0  0  0  0  0  0  0  0
  -23.4940  -32.0520   24.2590 O   0  0  0  0  0  0  0  0  0  0  0  0
  -22.1800  -29.9050   22.5140 C   0  0  0  0  0  0  0  0  0  0  0  0
  -20.8620  -29.6690   22.4250 N   0  0  0  0  0  0  0  0  0  0  0  0
  -22.9550  -29.1590   23.1190 O   0  0  0  0  0  0  0  0  0  0  0  0
  -20.2910  -30.3440   21.9340 H   0  0  0  0  0  0  0  0  0  0  0  0
  -17.6430  -28.0460   22.6320 C   0  0  0  0  0  0  0  0  0  0  0  0
  -20.1540  -28.5260   23.0030 C   0  0  0  0  0  3  0  0  0  0  0  0
  -20.4240  -27.2330   22.2000 C   0  0  0  0  0  2  0  0  0  0  0  0
  -19.3690  -26.9570   21.1220 C   0  0  0  0  0  2  0  0  0  0  0  0
  -17.9710  -26.8580   21.7420 C   0  0  0  0  0  2  0  0  0  0  0  0
  -18.6710  -28.8380   23.2100 C   0  0  0  0  0  0  0  0  0  0  0  0
  -18.3140  -29.9540   23.9980 C   0  0  0  0  0  3  0  0  0  0  0  0
  -16.9630  -30.2810   24.2140 C   0  0  0  0  0  3  0  0  0  0  0  0
  -15.9500  -29.4810   23.6580 C   0  0  0  0  0  3  0  0  0  0  0  0
  -16.2900  -28.3670   22.8710 C   0  0  0  0  0  3  0  0  0  0  0  0
  -25.8420  -32.2970   23.8480 C   0  0  0  0  0  3  0  0  0  0  0  0
  -25.8070  -33.6480   24.4240 N   0  0  0  0  0  0  0  0  0  0  0  0
  -26.2520  -34.7500   23.8050 C   0  0  0  0  0  0  0  0  0  0  0  0
  -26.8050  -34.7240   22.7030 O   0  0  0  0  0  0  0  0  0  0  0  0
  -25.3200  -33.7560   25.3020 H   0  0  0  0  0  0  0  0  0  0  0  0
  -24.8610  -36.8440   23.8850 C   0  0  0  0  0  1  0  0  0  0  0  0
  -26.0460  -36.0990   24.5220 C   0  0  0  0  0  3  0  0  0  0  0  0
  -28.3390  -36.4400   25.3260 C   0  0  0  0  0  1  0  0  0  0  0  0
  -27.2470  -36.9620   24.5090 N   0  0  0  0  0  0  0  0  0  0  0  0
  -27.0210  -37.8950   24.8450 H   0  0  0  0  0  0  0  0  0  0  0  0
  -26.4600  -31.2630   24.8680 C   0  0  1  0  0  0  0  0  0  0  0  0
  -25.5400  -30.9470   26.0690 C   0  0  0  0  0  1  0  0  0  0  0  0
  -26.7840  -29.9250   24.1620 C   0  0  0  0  0  1  0  0  0  0  0  0
  -27.7940  -31.8100   25.4250 C   0  0  0  0  0  1  0  0  0  0  0  0
  1 52  1  0
  2  1  1  0
  3  1  1  0
  4  3  1  0
  5  6  1  0
  5  4  1  0
  7  5  1  0
  8  7  1  0
  8  9  1  0
  9 11  1  0
  9 10  1  0
 12  9  1  0
 12 13  1  0
 13 22  1  0
 14 22  1  0
 14 20  1  0
 15 20  1  0
 16 17  1  0
 16 15  1  0
 18 17  1  0
 18 27  1  0
 18 19  1  0
 20 19  1  0
 21 14  2  0
 22 23  1  0
 24 49  1  0
 24 25  2  0
 25 44  1  0
 26 29  1  0
 26 25  1  0
 27 28  1  0
 27 24  1  0
 28 26  2  0
 29 30  1  0
 30 31  2  0
 32 35  1  0
 32 31  1  0
 33 32  2  0
 34 33  1  0
 34 29  2  0
 35 36  1  0
 36 41  2  0
 36 37  1  0
 37 38  2  0
 38 39  1  0
 39 43  1  0
 40 39  2  0
 41 40  1  0
 42 41  1  0
 44 45  1  0
 45 47  1  0
 45 48  1  0
 46 44  2  0
 49 50  1  0
 51 49  1  0
 53 52  1  0
 54 53  1  0
 55 57  1  0
 55 54  1  0
 56 55  1  0
 58 55  1  0
 59 58  1  0
 60 59  1  0
 61 63  1  0
 61 60  1  0
 62 73  2  0
 63 68  1  0
 64 72  1  0
 64 74  1  0
 65 67  1  0
 65 71  1  0
 66 72  1  0
 67 66  1  0
 68 67  2  0
 69 63  2  0
 69 70  1  0
 70 65  2  0
 71 64  1  0
 72 62  1  0
 74 76  2  0
 75 74  1  0
 77 75  1  0
 78 87  2  0
 78 83  1  0
 79 75  1  0
 79 83  1  0
 80 79  1  0
 81 82  1  0
 81 80  1  0
 82 78  1  0
 83 84  2  0
 84 85  1  0
 86 85  2  0
 87 86  1  0
 88 62  1  0
 88 89  1  0
 88 98  1  0
 89 92  1  0
 90 89  1  0
 90 94  1  0
 91 90  2  0
 94 93  1  0
 96 94  1  0
 96 97  1  0
 96 95  1  0
 98101  1  1
 98 99  1  0
100 98  1  0
M  ISO  4  14 100  22 100  60 101  61 101
M  END
>  <TORSDO>  (51) 
F 31

>  <SCORE>  (51) 
-3.670

>  <name>  (51) 
55

>  <ligand_id>  (51) 
55

>  <original_smiles>  (51) 
[H]c1c([H])c([H])c2c(c1[H])C([H])([H])C([H])([H])C([H])([H])C2([H])N([H])C(=O)C1([H])N(C(=O)C([H])(N([H])C(=O)C([H])(N([H])C([H])([H])[H])C([H])([H])[H])C(C([H])([H])[H])(C([H])([H])[H])C([H])([H])[H])C([H])([H])c2c([H])c(OC([H])([H])C([H])([H])C([H])([H])[N+]([H])([H])C([H])([H])C([H])([H])C([H])([H])N([H])C([H])([H])C([H])([H])N([H])C([H])([H])C([H])([H])[N+]([H])([H])C([H])([H])C([H])([H])N([H])C(=O)N3C([H])([H])C([H])([H])C([H])([H])C([H])(n4nc(-c5c([H])c([H])c(Oc6c([H])c([H])c(F)c([H])c6F)c([H])c5[H])c(C(=O)N([H])[H])c4N([H])[H])C3([H])[H])c([H])c([H])c2C1([H])[H]

>  <smiles>  (51) 
[H]c1c([H])c([H])c2c(c1[H])C([H])([H])C([H])([H])C([H])([H])C2([H])N([H])C(=O)C1([H])N(C(=O)C([H])(N([H])C(=O)C([H])(N([H])C([H])([H])[H])C([H])([H])[H])C(C([H])([H])[H])(C([H])([H])[H])C([H])([H])[H])C([H])([H])c2c([H])c(OC([H])([H])C([H])([H])C([H])([H])[N+]([H])([H])C([H])([H])C([H])([H])C([H])([H])N([H])C([H])([H])C([H])([H])N([H])C([H])([H])C([H])([H])[N+]([H])([H])C([H])([H])C([H])([H])N([H])C(=O)N3C([H])([H])C([H])([H])C([H])([H])C([H])(n4nc(-c5c([H])c([H])c(Oc6c([H])c([H])c(F)c([H])c6F)c([H])c5[H])c(C(=O)N([H])[H])c4N([H])[H])C3([H])[H])c([H])c([H])c2C1([H])[H]

$$$$
56:0:0
     RDKit          3D

 98 95  0  0  1  0  0  0  0  0999 V2000
  -18.9920  -31.4040   22.6300 C   0  0  0  0  0  3  0  0  0  0  0  0
  -19.2230  -30.8250   20.8860 C   0  0  0  0  0  3  0  0  0  0  0  0
  -18.8260  -30.3460   24.1370 C   0  0  0  0  0  3  0  0  0  0  0  0
  -19.3370  -29.0930   20.2730 C   0  0  0  0  0  3  0  0  0  0  0  0
  -18.8910  -28.4930   24.0760 C   0  0  0  0  0  2  0  0  0  0  0  0
  -19.2950  -27.6150   21.3180 C   0  0  0  0  0  1  0  0  0  0  0  0
  -20.7070  -26.1870   24.1620 C   0  0  0  0  0  2  0  0  0  0  0  0
  -19.8280  -27.3450   25.0100 N   0  0  0  0  0  2  0  0  0  0  0  0
  -20.6420  -25.9390   21.8320 N   0  0  0  0  0 15  0  0  0  0  0  0
  -21.9910  -25.8210   25.2670 C   0  0  0  0  0  2  0  0  0  0  0  0
  -23.3750  -26.6510   25.1360 N   0  0  0  0  0  4  0  0  0  0  0  0
  -23.5060  -27.1570   25.9980 H   0  0  0  0  0  0  0  0  0  0  0  0
  -23.1760  -27.3740   24.4660 H   0  0  0  0  0  0  0  0  0  0  0  0
  -24.8250  -26.1630   24.7360 C   0  0  0  0  0  2  0  0  0  0  0  0
  -25.8110  -26.7400   23.4670 C   0  0  0  0  0  2  0  0  0  0  0  0
  -26.2820  -25.9160   22.2390 N   0  0  0  0  0  0  0  0  0  0  0  0
  -26.5560  -24.9750   22.5100 H   0  0  0  0  0  0  0  0  0  0  0  0
  -27.4740  -26.4640   21.3080 O   0  0  0  0  0  0  0  0  0  0  0  0
  -24.6640  -31.9760   23.1620 C   0  0  0  0  0  0  0  0  0  0  0  0
  -26.9910  -27.3850   20.4330 C   0  0  0  0  0  0  0  0  0  0  0  0
  -23.5150  -30.6070   21.4810 C   0  0  0  0  0  3  0  0  0  0  0  0
  -24.8990  -29.1140   19.9680 C   0  0  0  0  0  0  0  0  0  0  0  0
  -26.0040  -30.9380   21.3080 C   0  0  0  0  0  2  0  0  0  0  0  0
  -26.0370  -29.5700   20.6510 C   0  0  0  0  0  0  0  0  0  0  0  0
  -27.1340  -28.7180   20.8280 C   0  0  0  0  0  3  0  0  0  0  0  0
  -25.9720  -26.9730   19.5580 C   0  0  0  0  0  3  0  0  0  0  0  0
  -24.8790  -27.8360   19.3670 C   0  0  0  0  0  3  0  0  0  0  0  0
  -23.6990  -30.0410   20.0330 C   0  0  0  0  0  2  0  0  0  0  0  0
  -24.7410  -31.2440   22.0130 N   0  0  0  0  0  0  0  0  0  0  0  0
  -23.5730  -32.2110   23.7070 O   0  0  0  0  0  0  0  0  0  0  0  0
  -23.2820  -29.4240   22.3850 C   0  0  0  0  0  0  0  0  0  0  0  0
  -22.5180  -28.4840   21.9180 N   0  0  0  0  0  0  0  0  0  0  0  0
  -23.8440  -29.2630   23.4710 O   0  0  0  0  0  0  0  0  0  0  0  0
  -22.0100  -28.5630   21.0480 H   0  0  0  0  0  0  0  0  0  0  0  0
  -18.7250  -26.5050   23.0860 C   0  0  0  0  0  2  0  0  0  0  0  0
  -22.1540  -27.5360   22.8540 C   0  0  0  0  0  2  0  0  0  0  0  0
  -22.5710  -25.5610   22.8450 C   0  0  0  0  0 15  0  0  0  0  0  0
  -20.8400  -24.1300   23.1210 C   0  0  0  0  0 15  0  0  0  0  0  0
  -18.9790  -24.8190   23.0870 C   0  0  0  0  0  1  0  0  0  0  0  0
  -20.6650  -28.0210   22.9030 C   0  0  0  0  0  2  0  0  0  0  0  0
  -20.1280  -29.3570   22.4780 C   0  0  0  0  0  1  0  0  0  0  0  0
  -17.9660  -29.3340   22.2080 C   0  0  0  0  0  1  0  0  0  0  0  0
  -16.8880  -28.4390   22.5860 C   0  0  0  0  0  3  0  0  0  0  0  0
  -17.2560  -27.0570   22.9100 C   0  0  0  0  0  3  0  0  0  0  0  0
  -25.9450  -32.5260   23.8440 C   0  0  0  0  0  3  0  0  0  0  0  0
  -25.6260  -33.8910   24.2550 N   0  0  0  0  0  0  0  0  0  0  0  0
  -25.9120  -34.9690   23.5180 C   0  0  0  0  0  0  0  0  0  0  0  0
  -26.5520  -34.9120   22.4640 O   0  0  0  0  0  0  0  0  0  0  0  0
  -25.0470  -34.0000   25.0750 H   0  0  0  0  0  0  0  0  0  0  0  0
  -24.1460  -36.7400   23.2600 C   0  0  0  0  0  1  0  0  0  0  0  0
  -25.4080  -36.3260   24.0340 C   0  0  0  0  0  3  0  0  0  0  0  0
  -27.5640  -37.1790   24.8410 C   0  0  0  0  0  1  0  0  0  0  0  0
  -26.4240  -37.3970   23.9530 N   0  0  0  0  0  0  0  0  0  0  0  0
  -26.0120  -38.2970   24.1830 H   0  0  0  0  0  0  0  0  0  0  0  0
  -26.4520  -31.6730   25.0730 C   0  0  1  0  0  0  0  0  0  0  0  0
  -25.3670  -31.3700   26.1320 C   0  0  0  0  0  1  0  0  0  0  0  0
  -27.0380  -30.3250   24.5960 C   0  0  0  0  0  1  0  0  0  0  0  0
  -27.6060  -32.4280   25.7750 C   0  0  0  0  0  1  0  0  0  0  0  0
  -22.3690  -23.7160   21.0670 C   0  0  0  0  0 15  0  0  0  0  0  0
  -24.4020  -21.3050   21.1740 C   0  0  0  0  0 15  0  0  0  0  0  0
  -27.6140  -17.5650   20.5680 C   0  0  0  0  0  2  0  0  0  0  0  0
  -29.3730  -14.9310   19.5430 C   0  0  0  0  0  2  0  0  0  0  0  0
  -29.3020  -13.5340   18.6390 C   0  0  0  0  0  2  0  0  0  0  0  0
  -28.2380  -12.5440   19.0860 C   0  0  0  0  0  2  0  0  0  0  0  0
  -27.3370  -13.4480   19.9030 C   0  0  0  0  0  3  0  0  0  0  0  0
  -27.9240  -14.4460   20.9750 C   0  0  0  0  0  2  0  0  0  0  0  0
  -28.0810  -15.8500   20.2820 N   0  0  0  0  0  0  0  0  0  0  0  0
  -28.9740  -17.5290   20.5540 O   0  0  0  0  0  1  0  0  0  0  0  0
  -26.0800  -19.1620   20.7650 N   0  0  0  0  0  1  0  0  0  0  0  0
  -26.8730  -19.8000   20.8470 H   0  0  0  0  0  0  0  0  0  0  0  0
  -25.0610  -13.8150   20.5720 C   0  0  0  0  0  0  0  0  0  0  0  0
  -24.0570  -13.0060   20.9480 C   0  0  0  0  0  0  0  0  0  0  0  0
  -24.5770  -11.6740   20.9000 C   0  0  0  0  0  0  0  0  0  0  0  0
  -26.1160  -12.9660   20.3560 N   0  0  0  0  0  0  0  0  0  0  0  0
  -25.8710  -11.6670   20.5960 N   0  0  0  0  0  0  0  0  0  0  0  0
  -23.8780  -10.4090   21.0520 C   0  0  0  0  0  0  0  0  0  0  0  0
  -24.3480   -9.4090   21.9240 C   0  0  0  0  0  3  0  0  0  0  0  0
  -23.6220   -8.2110   22.0780 C   0  0  0  0  0  3  0  0  0  0  0  0
  -22.4220   -8.0140   21.3540 C   0  0  0  0  0  0  0  0  0  0  0  0
  -21.9790   -9.0070   20.4620 C   0  0  0  0  0  3  0  0  0  0  0  0
  -22.7040  -10.1950   20.3060 C   0  0  0  0  0  3  0  0  0  0  0  0
  -21.6580   -6.8750   21.4240 O   0  0  0  0  0  0  0  0  0  0  0  0
  -21.6810   -6.0640   22.5290 C   0  0  0  0  0  0  0  0  0  0  0  0
  -21.3970   -6.5580   23.8210 C   0  0  0  0  0  3  0  0  0  0  0  0
  -21.3650   -5.6770   24.9180 C   0  0  0  0  0  3  0  0  0  0  0  0
  -21.6060   -4.3030   24.7260 C   0  0  0  0  0  0  0  0  0  0  0  0
  -21.8830   -3.8100   23.4390 C   0  0  0  0  0  3  0  0  0  0  0  0
  -21.9200   -4.6890   22.3430 C   0  0  0  0  0  0  0  0  0  0  0  0
  -22.1670   -4.2080   21.1010 F   0  0  0  0  0  0  0  0  0  0  0  0
  -21.5660   -3.4530   25.7780 F   0  0  0  0  0  0  0  0  0  0  0  0
  -22.6700  -13.4750   21.2120 C   0  0  0  0  0  0  0  0  0  0  0  0
  -21.9530  -12.7840   22.0780 N   0  0  0  0  0  0  0  0  0  0  0  0
  -22.2480  -14.5100   20.6910 O   0  0  0  0  0  0  0  0  0  0  0  0
  -22.3230  -11.9520   22.5140 H   0  0  0  0  0  0  0  0  0  0  0  0
  -21.0180  -13.0870   22.3080 H   0  0  0  0  0  0  0  0  0  0  0  0
  -25.1490  -15.1880   20.3560 N   0  0  0  0  0  0  0  0  0  0  0  0
  -24.2850  -15.7130   20.2760 H   0  0  0  0  0  0  0  0  0  0  0  0
  -25.8900  -15.5330   19.7610 H   0  0  0  0  0  0  0  0  0  0  0  0
  1  3  2  0
  2  1  1  0
  4  2  2  0
  4  6  1  0
  5  3  1  0
  5  8  1  0
  7  8  1  0
  7 10  1  0
 11 10  1  0
 11 12  1  0
 13 11  1  0
 14 11  1  0
 15 14  1  0
 16 17  1  0
 16 15  1  0
 18 16  1  0
 19 30  2  0
 20 25  1  0
 20 18  1  0
 21 29  1  0
 21 31  1  0
 22 28  1  0
 22 24  1  0
 23 29  1  0
 24 25  2  0
 24 23  1  0
 26 20  2  0
 27 26  1  0
 27 22  2  0
 28 21  1  0
 29 19  1  0
 31 33  2  0
 32 31  1  0
 32 36  1  0
 34 32  1  0
 35 39  1  0
 36 40  1  0
 41 40  1  0
 42 43  1  0
 43 44  2  0
 44 35  1  0
 45 19  1  0
 45 46  1  0
 45 55  1  0
 46 49  1  0
 47 51  1  0
 47 46  1  0
 48 47  2  0
 51 50  1  0
 53 51  1  0
 53 54  1  0
 53 52  1  0
 55 58  1  1
 55 56  1  0
 57 55  1  0
 62 67  1  0
 63 64  1  0
 63 62  1  0
 65 64  1  0
 65 74  1  0
 65 66  1  0
 67 61  1  0
 67 66  1  0
 68 61  1  0
 69 70  1  0
 71 72  2  0
 72 91  1  0
 73 72  1  0
 73 76  1  0
 74 71  1  0
 74 75  1  0
 75 73  2  0
 76 77  1  0
 77 78  2  0
 79 82  1  0
 79 78  1  0
 80 79  2  0
 81 80  1  0
 81 76  2  0
 82 83  1  0
 83 84  1  0
 84 85  2  0
 86 85  1  0
 86 90  1  0
 87 86  2  0
 88 83  2  0
 88 87  1  0
 89 88  1  0
 91 92  1  0
 92 95  1  0
 92 94  1  0
 93 91  2  0
 96 71  1  0
 97 96  1  0
 98 96  1  0
M  ISO  4  16 101  18 101  61 100  69 100
M  END
>  <TORSDO>  (52) 
F 23

>  <SCORE>  (52) 
27.586

>  <name>  (52) 
56

>  <ligand_id>  (52) 
56

>  <original_smiles>  (52) 
[H]c1c([H])c([H])c2c(c1[H])C([H])([H])C([H])([H])C([H])([H])C2([H])N([H])C(=O)C1([H])N(C(=O)C([H])(N([H])C(=O)C([H])(N([H])C([H])([H])[H])C([H])([H])[H])C(C([H])([H])[H])(C([H])([H])[H])C([H])([H])[H])C([H])([H])c2c([H])c(ON([H])C([H])([H])C([H])([H])[N+]([H])([H])C([H])([H])c3nc4c([H])c([H])c([H])c([H])c4n3C([H])([H])C([H])([H])N([H])C(=O)N3C([H])([H])C([H])([H])C([H])([H])C([H])(n4nc(-c5c([H])c([H])c(Oc6c([H])c([H])c(F)c([H])c6F)c([H])c5[H])c(C(=O)N([H])[H])c4N([H])[H])C3([H])[H])c([H])c([H])c2C1([H])[H]

>  <smiles>  (52) 
[H]c1c([H])c([H])c2c(c1[H])C([H])([H])C([H])([H])C([H])([H])C2([H])N([H])C(=O)C1([H])N(C(=O)C([H])(N([H])C(=O)C([H])(N([H])C([H])([H])[H])C([H])([H])[H])C(C([H])([H])[H])(C([H])([H])[H])C([H])([H])[H])C([H])([H])c2c([H])c(ON([H])C([H])([H])C([H])([H])[N+]([H])([H])C([H])([H])c3nc4c([H])c([H])c([H])c([H])c4n3C([H])([H])C([H])([H])N([H])C(=O)N3C([H])([H])C([H])([H])C([H])([H])C([H])(n4nc(-c5c([H])c([H])c(Oc6c([H])c([H])c(F)c([H])c6F)c([H])c5[H])c(C(=O)N([H])[H])c4N([H])[H])C3([H])[H])c([H])c([H])c2C1([H])[H]

$$$$
57:0:0
     RDKit          3D

 99106  0  0  1  0  0  0  0  0999 V2000
  -31.5560  -22.3080   23.2370 C   0  0  0  0  0  2  0  0  0  0  0  0
  -31.0720  -22.1770   21.7840 C   0  0  0  0  0  2  0  0  0  0  0  0
  -32.1380  -21.5560   20.8710 C   0  0  0  0  0  2  0  0  0  0  0  0
  -31.6800  -21.6260   19.5290 O   0  0  0  0  0  0  0  0  0  0  0  0
  -32.5360  -20.9860   18.5890 C   0  0  0  0  0  2  0  0  0  0  0  0
  -32.2960  -19.4710   18.5050 C   0  0  0  0  0  2  0  0  0  0  0  0
  -30.8040  -19.1090   18.3980 C   0  0  0  0  0  2  0  0  0  0  0  0
  -30.6060  -17.7170   17.9470 N   0  0  0  0  0  4  0  0  0  0  0  0
  -31.3960  -17.4290   17.3920 H   0  0  0  0  0  0  0  0  0  0  0  0
  -29.8090  -17.7350   17.3260 H   0  0  0  0  0  0  0  0  0  0  0  0
  -30.3080  -16.6890   18.9670 C   0  0  0  0  0  2  0  0  0  0  0  0
  -31.5070  -16.2640   19.8430 C   0  0  0  0  0  2  0  0  0  0  0  0
  -31.8010  -13.8220   20.0960 C   0  0  0  0  0  0  0  0  0  0  0  0
  -31.1780  -11.6800   19.0810 C   0  0  0  0  0  2  0  0  0  0  0  0
  -30.2390  -11.9790   17.8930 C   0  0  0  0  0  2  0  0  0  0  0  0
  -28.7750  -12.0540   18.3680 C   0  0  0  0  0  2  0  0  0  0  0  0
  -28.5870  -12.9780   19.6020 C   0  0  0  0  0  3  0  0  0  0  0  0
  -29.6410  -12.6690   20.6930 C   0  0  0  0  0  2  0  0  0  0  0  0
  -30.9780  -12.7420   20.0780 N   0  0  0  0  0  0  0  0  0  0  0  0
  -32.9210  -13.8310   19.5810 O   0  0  0  0  0  0  0  0  0  0  0  0
  -31.2100  -14.9660   20.4660 N   0  0  0  0  0  0  0  0  0  0  0  0
  -30.3130  -14.8710   20.9190 H   0  0  0  0  0  0  0  0  0  0  0  0
  -26.3450  -13.9320   20.4390 C   0  0  0  0  0  0  0  0  0  0  0  0
  -25.1830  -13.3230   20.8330 C   0  0  0  0  0  0  0  0  0  0  0  0
  -25.4160  -11.9200   20.7160 C   0  0  0  0  0  0  0  0  0  0  0  0
  -27.2250  -12.9060   20.1250 N   0  0  0  0  0  0  0  0  0  0  0  0
  -26.6690  -11.6890   20.3450 N   0  0  0  0  0  0  0  0  0  0  0  0
  -24.5020  -10.7840   20.8800 C   0  0  0  0  0  0  0  0  0  0  0  0
  -24.8170   -9.7010   21.7290 C   0  0  0  0  0  3  0  0  0  0  0  0
  -23.9130   -8.6300   21.8890 C   0  0  0  0  0  3  0  0  0  0  0  0
  -22.6790   -8.6360   21.1980 C   0  0  0  0  0  0  0  0  0  0  0  0
  -22.3790   -9.7040   20.3350 C   0  0  0  0  0  3  0  0  0  0  0  0
  -23.2830  -10.7670   20.1730 C   0  0  0  0  0  3  0  0  0  0  0  0
  -21.7480   -7.6290   21.2770 O   0  0  0  0  0  0  0  0  0  0  0  0
  -21.6480   -6.8240   22.3830 C   0  0  0  0  0  0  0  0  0  0  0  0
  -21.3840   -7.3480   23.6670 C   0  0  0  0  0  3  0  0  0  0  0  0
  -21.2180   -6.4790   24.7640 C   0  0  0  0  0  3  0  0  0  0  0  0
  -21.3080   -5.0860   24.5790 C   0  0  0  0  0  0  0  0  0  0  0  0
  -21.5680   -4.5620   23.3000 C   0  0  0  0  0  3  0  0  0  0  0  0
  -21.7330   -5.4280   22.2060 C   0  0  0  0  0  0  0  0  0  0  0  0
  -21.9630   -4.9150   20.9730 F   0  0  0  0  0  0  0  0  0  0  0  0
  -21.1430   -4.2500   25.6300 F   0  0  0  0  0  0  0  0  0  0  0  0
  -23.8940  -14.0040   21.1880 C   0  0  0  0  0  0  0  0  0  0  0  0
  -23.0990  -13.3970   22.0640 N   0  0  0  0  0  0  0  0  0  0  0  0
  -23.6040  -15.1050   20.7210 O   0  0  0  0  0  0  0  0  0  0  0  0
  -23.3470  -12.5080   22.4700 H   0  0  0  0  0  0  0  0  0  0  0  0
  -22.2280  -13.8330   22.3330 H   0  0  0  0  0  0  0  0  0  0  0  0
  -26.7110  -15.2660   20.2990 N   0  0  0  0  0  0  0  0  0  0  0  0
  -26.0070  -15.9890   20.3920 H   0  0  0  0  0  0  0  0  0  0  0  0
  -27.4990  -15.5540   19.7370 H   0  0  0  0  0  0  0  0  0  0  0  0
  -30.4490  -22.4140   24.3070 C   0  0  0  0  0  2  0  0  0  0  0  0
  -29.5530  -23.6730   24.2710 C   0  0  0  0  0  2  0  0  0  0  0  0
  -28.4110  -23.6400   23.2320 C   0  0  0  0  0  2  0  0  0  0  0  0
  -28.6610  -24.5750   22.1140 N   0  0  0  0  0  4  0  0  0  0  0  0
  -29.5270  -24.3000   21.6770 H   0  0  0  0  0  0  0  0  0  0  0  0
  -28.7980  -25.5000   22.4940 H   0  0  0  0  0  0  0  0  0  0  0  0
  -27.6050  -24.6100   21.0730 C   0  0  0  0  0  2  0  0  0  0  0  0
  -28.0620  -25.3970   19.8290 C   0  0  0  0  0  2  0  0  0  0  0  0
  -26.9790  -25.5770   18.9220 O   0  0  0  0  0  0  0  0  0  0  0  0
  -24.3560  -30.8790   22.9580 C   0  0  0  0  0  0  0  0  0  0  0  0
  -26.0160  -26.5240   19.1830 C   0  0  0  0  0  0  0  0  0  0  0  0
  -22.8390  -29.9550   21.2320 C   0  0  0  0  0  3  0  0  0  0  0  0
  -23.9230  -28.3900   19.5360 C   0  0  0  0  0  0  0  0  0  0  0  0
  -25.3700  -29.8970   20.9090 C   0  0  0  0  0  2  0  0  0  0  0  0
  -25.1760  -28.6240   20.1150 C   0  0  0  0  0  0  0  0  0  0  0  0
  -26.2230  -27.6950   19.9510 C   0  0  0  0  0  3  0  0  0  0  0  0
  -24.7500  -26.3060   18.6000 C   0  0  0  0  0  3  0  0  0  0  0  0
  -23.6990  -27.2260   18.7820 C   0  0  0  0  0  3  0  0  0  0  0  0
  -22.8600  -29.4380   19.7680 C   0  0  0  0  0  2  0  0  0  0  0  0
  -24.2110  -30.2450   21.7610 N   0  0  0  0  0  0  0  0  0  0  0  0
  -23.3680  -31.2640   23.6000 O   0  0  0  0  0  0  0  0  0  0  0  0
  -22.0520  -28.9450   22.0970 C   0  0  0  0  0  0  0  0  0  0  0  0
  -20.7140  -29.0380   22.0490 N   0  0  0  0  0  0  0  0  0  0  0  0
  -22.6390  -28.0890   22.7650 O   0  0  0  0  0  0  0  0  0  0  0  0
  -20.3100  -29.7710   21.4840 H   0  0  0  0  0  0  0  0  0  0  0  0
  -17.2010  -28.4780   22.6670 C   0  0  0  0  0  0  0  0  0  0  0  0
  -19.7650  -28.1710   22.7470 C   0  0  0  0  0  3  0  0  0  0  0  0
  -19.5320  -26.8590   21.9640 C   0  0  0  0  0  2  0  0  0  0  0  0
  -18.3300  -26.9280   21.0150 C   0  0  0  0  0  2  0  0  0  0  0  0
  -17.0500  -27.2440   21.7930 C   0  0  0  0  0  2  0  0  0  0  0  0
  -18.4780  -28.9210   23.1010 C   0  0  0  0  0  0  0  0  0  0  0  0
  -18.5660  -30.0940   23.8820 C   0  0  0  0  0  3  0  0  0  0  0  0
  -17.4090  -30.8160   24.2320 C   0  0  0  0  0  3  0  0  0  0  0  0
  -16.1460  -30.3630   23.8130 C   0  0  0  0  0  3  0  0  0  0  0  0
  -16.0430  -29.1940   23.0370 C   0  0  0  0  0  3  0  0  0  0  0  0
  -25.7640  -31.1730   23.5660 C   0  0  0  0  0  3  0  0  0  0  0  0
  -25.7400  -32.5420   24.0950 N   0  0  0  0  0  0  0  0  0  0  0  0
  -26.2750  -33.6040   23.4770 C   0  0  0  0  0  0  0  0  0  0  0  0
  -26.9100  -33.5170   22.4240 O   0  0  0  0  0  0  0  0  0  0  0  0
  -25.1860  -32.6980   24.9250 H   0  0  0  0  0  0  0  0  0  0  0  0
  -24.9370  -35.7310   23.4150 C   0  0  0  0  0  1  0  0  0  0  0  0
  -26.0720  -34.9830   24.1330 C   0  0  0  0  0  3  0  0  0  0  0  0
  -28.3360  -35.3050   25.0260 C   0  0  0  0  0  1  0  0  0  0  0  0
  -27.2940  -35.8160   24.1390 N   0  0  0  0  0  0  0  0  0  0  0  0
  -27.0770  -36.7680   24.4230 H   0  0  0  0  0  0  0  0  0  0  0  0
  -26.1840  -30.1440   24.6860 C   0  0  1  0  0  0  0  0  0  0  0  0
  -25.1160  -29.9590   25.7880 C   0  0  0  0  0  1  0  0  0  0  0  0
  -26.4710  -28.7560   24.0650 C   0  0  0  0  0  1  0  0  0  0  0  0
  -27.4960  -30.6070   25.3590 C   0  0  0  0  0  1  0  0  0  0  0  0
  1 51  1  0
  2  1  1  0
  3  2  1  0
  4  3  1  0
  5  4  1  0
  6  5  1  0
  7  6  1  0
  8  7  1  0
  8 11  1  0
  9  8  1  0
 10  8  1  0
 11 12  1  0
 12 21  1  0
 13 21  1  0
 14 19  1  0
 15 16  1  0
 15 14  1  0
 17 16  1  0
 17 26  1  0
 17 18  1  0
 19 13  1  0
 19 18  1  0
 20 13  2  0
 21 22  1  0
 23 24  2  0
 24 43  1  0
 25 24  1  0
 25 28  1  0
 26 27  1  0
 26 23  1  0
 27 25  2  0
 28 29  1  0
 29 30  2  0
 31 34  1  0
 31 30  1  0
 32 31  2  0
 33 32  1  0
 33 28  2  0
 34 35  1  0
 35 36  1  0
 36 37  2  0
 38 37  1  0
 38 42  1  0
 39 38  2  0
 40 35  2  0
 40 39  1  0
 41 40  1  0
 43 44  1  0
 44 47  1  0
 44 46  1  0
 45 43  2  0
 48 49  1  0
 48 23  1  0
 50 48  1  0
 52 51  1  0
 53 52  1  0
 54 56  1  0
 54 53  1  0
 55 54  1  0
 57 54  1  0
 58 57  1  0
 59 61  1  0
 59 58  1  0
 60 71  2  0
 61 66  1  0
 62 70  1  0
 62 72  1  0
 63 69  1  0
 63 65  1  0
 64 70  1  0
 65 64  1  0
 66 65  2  0
 67 68  1  0
 67 61  2  0
 68 63  2  0
 69 62  1  0
 70 60  1  0
 72 74  2  0
 73 72  1  0
 75 73  1  0
 76 85  2  0
 76 81  1  0
 77 73  1  0
 77 81  1  0
 78 77  1  0
 79 80  1  0
 79 78  1  0
 80 76  1  0
 81 82  2  0
 82 83  1  0
 84 83  2  0
 85 84  1  0
 86 60  1  0
 86 87  1  0
 86 96  1  0
 87 90  1  0
 88 87  1  0
 88 92  1  0
 89 88  2  0
 92 91  1  0
 92 94  1  0
 94 95  1  0
 94 93  1  0
 96 99  1  1
 96 97  1  0
 98 96  1  0
M  ISO  4  13 100  21 100  58 101  59 101
M  END
>  <TORSDO>  (53) 
F 31

>  <SCORE>  (53) 
-7.143

>  <name>  (53) 
57

>  <ligand_id>  (53) 
57

>  <original_smiles>  (53) 
[H]c1c([H])c([H])c2c(c1[H])C([H])([H])C([H])([H])C([H])([H])C2([H])N([H])C(=O)C1([H])N(C(=O)C([H])(N([H])C(=O)C([H])(N([H])C([H])([H])[H])C([H])([H])[H])C(C([H])([H])[H])(C([H])([H])[H])C([H])([H])[H])C([H])([H])c2c([H])c(OC([H])([H])C([H])([H])[N+]([H])([H])C([H])([H])C([H])([H])C([H])([H])C([H])([H])C([H])([H])C([H])([H])OC([H])([H])C([H])([H])C([H])([H])[N+]([H])([H])C([H])([H])C([H])([H])N([H])C(=O)N3C([H])([H])C([H])([H])C([H])([H])C([H])(n4nc(-c5c([H])c([H])c(Oc6c([H])c([H])c(F)c([H])c6F)c([H])c5[H])c(C(=O)N([H])[H])c4N([H])[H])C3([H])[H])c([H])c([H])c2C1([H])[H]

>  <smiles>  (53) 
[H]c1c([H])c([H])c2c(c1[H])C([H])([H])C([H])([H])C([H])([H])C2([H])N([H])C(=O)C1([H])N(C(=O)C([H])(N([H])C(=O)C([H])(N([H])C([H])([H])[H])C([H])([H])[H])C(C([H])([H])[H])(C([H])([H])[H])C([H])([H])[H])C([H])([H])c2c([H])c(OC([H])([H])C([H])([H])[N+]([H])([H])C([H])([H])C([H])([H])C([H])([H])C([H])([H])C([H])([H])C([H])([H])OC([H])([H])C([H])([H])C([H])([H])[N+]([H])([H])C([H])([H])C([H])([H])N([H])C(=O)N3C([H])([H])C([H])([H])C([H])([H])C([H])(n4nc(-c5c([H])c([H])c(Oc6c([H])c([H])c(F)c([H])c6F)c([H])c5[H])c(C(=O)N([H])[H])c4N([H])[H])C3([H])[H])c([H])c([H])c2C1([H])[H]

$$$$
58:0:0
     RDKit          3D

105110  0  0  1  0  0  0  0  0999 V2000
  -25.0820  -18.3730   16.7280 C   0  0  0  0  0  3  0  0  0  0  0  0
  -24.8310  -19.5600   17.3160 C   0  0  0  0  0  3  0  0  0  0  0  0
  -25.2560  -20.9090   16.7380 C   0  0  0  0  0  2  0  0  0  0  0  0
  -26.1670  -21.6200   17.6690 N   0  0  0  0  0  4  0  0  0  0  0  0
  -26.6660  -20.9060   18.1740 H   0  0  0  0  0  0  0  0  0  0  0  0
  -25.6290  -22.1520   18.3330 H   0  0  0  0  0  0  0  0  0  0  0  0
  -27.1750  -22.5070   17.0380 C   0  0  0  0  0  2  0  0  0  0  0  0
  -28.4200  -22.7170   17.9500 C   0  0  0  0  0  2  0  0  0  0  0  0
  -28.9090  -24.0940   18.0790 N   0  0  0  0  0  0  0  0  0  0  0  0
  -29.0710  -24.5210   17.1680 H   0  0  0  0  0  0  0  0  0  0  0  0
  -28.0750  -24.9490   18.9250 C   0  0  0  0  0  2  0  0  0  0  0  0
  -28.7140  -26.3610   19.0630 C   0  0  0  0  0  2  0  0  0  0  0  0
  -28.3980  -27.0800   20.2650 O   0  0  0  0  0  0  0  0  0  0  0  0
  -24.7450  -32.2840   23.4740 C   0  0  0  0  0  0  0  0  0  0  0  0
  -27.2060  -27.7670   20.3420 C   0  0  0  0  0  0  0  0  0  0  0  0
  -23.4280  -30.7870   22.0110 C   0  0  0  0  0  3  0  0  0  0  0  0
  -24.7820  -29.2110   20.5360 C   0  0  0  0  0  0  0  0  0  0  0  0
  -25.9150  -31.1750   21.5770 C   0  0  0  0  0  2  0  0  0  0  0  0
  -25.9760  -29.7770   21.0020 C   0  0  0  0  0  0  0  0  0  0  0  0
  -27.1850  -29.0600   20.9110 C   0  0  0  0  0  3  0  0  0  0  0  0
  -25.9930  -27.2010   19.9020 C   0  0  0  0  0  3  0  0  0  0  0  0
  -24.7850  -27.9150   19.9920 C   0  0  0  0  0  3  0  0  0  0  0  0
  -23.5250  -30.0410   20.6550 C   0  0  0  0  0  2  0  0  0  0  0  0
  -24.7180  -31.4360   22.4070 N   0  0  0  0  0  0  0  0  0  0  0  0
  -23.7130  -32.5630   24.0950 O   0  0  0  0  0  0  0  0  0  0  0  0
  -22.8810  -29.8040   23.0710 C   0  0  0  0  0  0  0  0  0  0  0  0
  -21.5690  -29.5140   22.9960 N   0  0  0  0  0  0  0  0  0  0  0  0
  -23.6320  -29.3010   23.9110 O   0  0  0  0  0  0  0  0  0  0  0  0
  -21.0170  -29.9640   22.2770 H   0  0  0  0  0  0  0  0  0  0  0  0
  -18.3500  -28.0010   23.6120 C   0  0  0  0  0  0  0  0  0  0  0  0
  -20.8520  -28.5840   23.8640 C   0  0  0  0  0  3  0  0  0  0  0  0
  -21.1310  -27.1160   23.4660 C   0  0  0  0  0  2  0  0  0  0  0  0
  -20.0970  -26.5500   22.4880 C   0  0  0  0  0  2  0  0  0  0  0  0
  -18.6950  -26.6100   23.1000 C   0  0  0  0  0  2  0  0  0  0  0  0
  -19.3670  -28.9290   23.9540 C   0  0  0  0  0  0  0  0  0  0  0  0
  -18.9910  -30.2220   24.3870 C   0  0  0  0  0  3  0  0  0  0  0  0
  -17.6360  -30.5850   24.4740 C   0  0  0  0  0  3  0  0  0  0  0  0
  -16.6320  -29.6580   24.1430 C   0  0  0  0  0  3  0  0  0  0  0  0
  -16.9940  -28.3660   23.7180 C   0  0  0  0  0  3  0  0  0  0  0  0
  -26.0710  -32.9610   23.9460 C   0  0  0  0  0  3  0  0  0  0  0  0
  -25.7760  -34.3810   24.1930 N   0  0  0  0  0  0  0  0  0  0  0  0
  -26.0430  -35.3730   23.3340 C   0  0  0  0  0  0  0  0  0  0  0  0
  -26.6340  -35.1910   22.2660 O   0  0  0  0  0  0  0  0  0  0  0  0
  -25.2380  -34.5950   25.0220 H   0  0  0  0  0  0  0  0  0  0  0  0
  -24.2690  -37.1170   22.9860 C   0  0  0  0  0  1  0  0  0  0  0  0
  -25.5780  -36.7900   23.7210 C   0  0  0  0  0  3  0  0  0  0  0  0
  -27.7610  -37.7430   24.3000 C   0  0  0  0  0  1  0  0  0  0  0  0
  -26.5850  -37.8330   23.4410 N   0  0  0  0  0  0  0  0  0  0  0  0
  -26.1830  -38.7610   23.5380 H   0  0  0  0  0  0  0  0  0  0  0  0
  -26.6910  -32.2790   25.2240 C   0  0  1  0  0  0  0  0  0  0  0  0
  -25.6800  -32.1030   26.3800 C   0  0  0  0  0  1  0  0  0  0  0  0
  -27.2660  -30.8870   24.8830 C   0  0  0  0  0  1  0  0  0  0  0  0
  -27.8740  -33.1290   25.7430 C   0  0  0  0  0  1  0  0  0  0  0  0
  -24.6610  -16.9970   17.2420 C   0  0  0  0  0  2  0  0  0  0  0  0
  -25.8060  -16.0540   17.2660 N   0  0  0  0  0  4  0  0  0  0  0  0
  -26.5750  -16.5010   17.7360 H   0  0  0  0  0  0  0  0  0  0  0  0
  -26.0840  -15.8810   16.3150 H   0  0  0  0  0  0  0  0  0  0  0  0
  -25.5300  -14.7460   17.9100 C   0  0  0  0  0  2  0  0  0  0  0  0
  -26.6050  -13.6770   17.5990 C   0  0  0  0  0  2  0  0  0  0  0  0
  -26.4890  -12.4040   18.4760 C   0  0  0  0  0  3  0  0  0  0  0  0
  -27.1640  -11.1320   17.8750 C   0  0  0  0  0  2  0  0  0  0  0  0
  -28.0220  -10.3330   18.8020 N   0  0  0  0  0  4  0  0  0  0  0  0
  -28.1940   -9.4490   18.3430 H   0  0  0  0  0  0  0  0  0  0  0  0
  -27.5050  -10.1370   19.6430 H   0  0  0  0  0  0  0  0  0  0  0  0
  -29.3240  -10.9620   19.1340 C   0  0  0  0  0  3  0  0  0  0  0  0
  -30.1780  -10.3220   20.2640 C   0  0  0  0  0  3  0  0  0  0  0  0
  -31.6630  -10.8260   20.4050 C   0  0  0  0  0  2  0  0  0  0  0  0
  -33.0380  -13.4850   20.7450 C   0  0  2  0  0  0  0  0  0  0  0  0
  -34.0810  -12.4180   20.1470 C   0  0  0  0  0  1  0  0  0  0  0  0
  -32.9760  -12.5520   18.5810 C   0  0  0  0  0  1  0  0  0  0  0  0
  -31.4540  -13.4750   18.7070 C   0  0  0  0  0  2  0  0  0  0  0  0
  -30.8900  -14.3310   20.1590 C   0  0  0  0  0  2  0  0  0  0  0  0
  -31.9990  -14.3220   21.6740 C   0  0  0  0  0  1  0  0  0  0  0  0
  -33.4730  -13.3200   21.6010 N   0  0  0  0  0  1  0  0  0  0  0  0
  -33.6090  -14.5610   20.0710 O   0  0  0  0  0  1  0  0  0  0  0  0
  -32.0150  -12.2030   20.9610 N   0  0  0  0  0  2  0  0  0  0  0  0
  -31.9510  -12.1280   21.9660 H   0  0  0  0  0  0  0  0  0  0  0  0
  -28.5860  -15.2930   20.6580 C   0  0  0  0  0  0  0  0  0  0  0  0
  -27.3430  -14.7780   20.8920 C   0  0  0  0  0  0  0  0  0  0  0  0
  -27.4690  -13.3630   20.7780 C   0  0  0  0  0  0  0  0  0  0  0  0
  -29.4400  -14.2280   20.4550 N   0  0  0  0  0  0  0  0  0  0  0  0
  -28.7580  -13.0470   20.5790 N   0  0  0  0  0  0  0  0  0  0  0  0
  -26.4170  -12.3190   20.8010 C   0  0  0  0  0  0  0  0  0  0  0  0
  -26.4830  -11.2130   21.6790 C   0  0  0  0  0  3  0  0  0  0  0  0
  -25.4370  -10.2640   21.7270 C   0  0  0  0  0  3  0  0  0  0  0  0
  -24.3030  -10.4040   20.8880 C   0  0  0  0  0  0  0  0  0  0  0  0
  -24.2570  -11.4890   19.9900 C   0  0  0  0  0  3  0  0  0  0  0  0
  -25.2990  -12.4350   19.9450 C   0  0  0  0  0  0  0  0  0  0  0  0
  -23.2590   -9.5090   20.8440 O   0  0  0  0  0  0  0  0  0  0  0  0
  -22.7770   -8.9030   21.9770 C   0  0  0  0  0  0  0  0  0  0  0  0
  -22.3410   -9.6440   23.0980 C   0  0  0  0  0  3  0  0  0  0  0  0
  -21.7900   -8.9820   24.2110 C   0  0  0  0  0  3  0  0  0  0  0  0
  -21.6570   -7.5820   24.2060 C   0  0  0  0  0  0  0  0  0  0  0  0
  -22.0750   -6.8390   23.0850 C   0  0  0  0  0  3  0  0  0  0  0  0
  -22.6310   -7.5010   21.9760 C   0  0  0  0  0  0  0  0  0  0  0  0
  -23.0110   -6.7790   20.8910 F   0  0  0  0  0  0  0  0  0  0  0  0
  -21.1220   -6.9460   25.2730 F   0  0  0  0  0  0  0  0  0  0  0  0
  -26.1030  -15.5800   21.1410 C   0  0  0  0  0  0  0  0  0  0  0  0
  -25.1780  -15.0490   21.9310 N   0  0  0  0  0  0  0  0  0  0  0  0
  -25.9650  -16.7160   20.6870 O   0  0  0  0  0  0  0  0  0  0  0  0
  -25.3090  -14.1370   22.3410 H   0  0  0  0  0  0  0  0  0  0  0  0
  -24.3370  -15.5630   22.1430 H   0  0  0  0  0  0  0  0  0  0  0  0
  -29.0640  -16.5940   20.5960 N   0  0  0  0  0  0  0  0  0  0  0  0
  -28.4840  -17.3840   20.8560 H   0  0  0  0  0  0  0  0  0  0  0  0
  -30.0560  -16.7930   20.6480 H   0  0  0  0  0  0  0  0  0  0  0  0
  1 54  1  0
  1  2  2  0
  3  2  1  0
  3  4  1  0
  4  5  1  0
  4  6  1  0
  7  4  1  0
  7  8  1  0
  8  9  1  0
  9 11  1  0
 10  9  1  0
 11 12  1  0
 12 13  1  0
 13 15  1  0
 14 25  2  0
 15 20  1  0
 16 24  1  0
 16 26  1  0
 17 23  1  0
 17 19  1  0
 18 24  1  0
 19 18  1  0
 20 19  2  0
 21 22  1  0
 21 15  2  0
 22 17  2  0
 23 16  1  0
 24 14  1  0
 26 28  2  0
 27 26  1  0
 29 27  1  0
 30 39  2  0
 30 35  1  0
 31 27  1  0
 31 35  1  0
 32 31  1  0
 33 34  1  0
 33 32  1  0
 34 30  1  0
 35 36  2  0
 36 37  1  0
 38 37  2  0
 39 38  1  0
 40 14  1  0
 40 41  1  0
 40 50  1  0
 41 44  1  0
 42 46  1  0
 42 41  1  0
 43 42  2  0
 46 45  1  0
 48 49  1  0
 48 46  1  0
 48 47  1  0
 50 53  1  1
 50 51  1  0
 52 50  1  0
 54 55  1  0
 55 56  1  0
 55 58  1  0
 57 55  1  0
 59 58  1  0
 60 59  1  0
 60 88  1  0
 61 60  1  0
 61 62  1  0
 62 65  1  0
 62 64  1  0
 63 62  1  0
 65 66  2  0
 66 67  1  0
 67 76  1  0
 68 74  1  0
 68 73  1  1
 69 68  1  0
 70 71  1  0
 71 72  1  0
 72 81  1  0
 75 68  1  0
 76 77  1  0
 78 79  2  0
 79 98  1  0
 80 83  1  0
 80 79  1  0
 81 82  1  0
 81 78  1  0
 82 80  2  0
 83 84  1  0
 84 85  2  0
 86 85  1  0
 87 86  2  0
 88 87  1  0
 88 83  2  0
 89 86  1  0
 89 90  1  0
 90 91  1  0
 91 92  2  0
 93 92  1  0
 93 97  1  0
 94 93  2  0
 95 90  2  0
 95 94  1  0
 96 95  1  0
 98 99  1  0
 99102  1  0
 99101  1  0
100 98  2  0
103105  1  0
103 78  1  0
103104  1  0
M  ISO  4  12 101  13 101  68 100  76 100
M  END
>  <TORSDO>  (54) 
F 33

>  <SCORE>  (54) 
17.531

>  <name>  (54) 
58

>  <ligand_id>  (54) 
58

>  <original_smiles>  (54) 
[H]C(=C([H])C([H])([H])[N+]([H])([H])C([H])([H])C([H])([H])C([H])([H])C([H])([H])[N+]([H])([H])C([H])([H])C([H])([H])C([H])([H])N([H])C(=O)N1C([H])([H])C([H])([H])C([H])([H])C([H])(n2nc(-c3c([H])c([H])c(Oc4c([H])c([H])c(F)c([H])c4F)c([H])c3[H])c(C(=O)N([H])[H])c2N([H])[H])C1([H])[H])C([H])([H])[N+]([H])([H])C([H])([H])C([H])([H])N([H])C([H])([H])C([H])([H])Oc1c([H])c([H])c2c(c1[H])C([H])([H])N(C(=O)C([H])(N([H])C(=O)C([H])(N([H])C([H])([H])[H])C([H])([H])[H])C(C([H])([H])[H])(C([H])([H])[H])C([H])([H])[H])C([H])(C(=O)N([H])C1([H])c3c([H])c([H])c([H])c([H])c3C([H])([H])C([H])([H])C1([H])[H])C2([H])[H]

>  <smiles>  (54) 
[H]C(=C([H])C([H])([H])[N+]([H])([H])C([H])([H])C([H])([H])C([H])([H])C([H])([H])[N+]([H])([H])C([H])([H])C([H])([H])C([H])([H])N([H])C(=O)N1C([H])([H])C([H])([H])C([H])([H])C([H])(n2nc(-c3c([H])c([H])c(Oc4c([H])c([H])c(F)c([H])c4F)c([H])c3[H])c(C(=O)N([H])[H])c2N([H])[H])C1([H])[H])C([H])([H])[N+]([H])([H])C([H])([H])C([H])([H])N([H])C([H])([H])C([H])([H])Oc1c([H])c([H])c2c(c1[H])C([H])([H])N(C(=O)C([H])(N([H])C(=O)C([H])(N([H])C([H])([H])[H])C([H])([H])[H])C(C([H])([H])[H])(C([H])([H])[H])C([H])([H])[H])C([H])(C(=O)N([H])C1([H])c3c([H])c([H])c([H])c([H])c3C([H])([H])C([H])([H])C1([H])[H])C2([H])[H]

$$$$
59:0:0
     RDKit          3D

 94101  0  0  1  0  0  0  0  0999 V2000
  -28.9040  -22.5470   18.6130 C   0  0  0  0  0  2  0  0  0  0  0  0
  -29.3660  -23.9030   18.0520 C   0  0  0  0  0  2  0  0  0  0  0  0
  -28.2280  -24.8390   17.9310 N   0  0  0  0  0  4  0  0  0  0  0  0
  -27.6890  -24.7930   18.7810 H   0  0  0  0  0  0  0  0  0  0  0  0
  -27.6370  -24.5120   17.1820 H   0  0  0  0  0  0  0  0  0  0  0  0
  -28.5740  -26.2600   17.6800 C   0  0  0  0  0  2  0  0  0  0  0  0
  -29.1250  -26.9790   18.9330 C   0  0  0  0  0  2  0  0  0  0  0  0
  -28.3210  -26.7540   20.0940 O   0  0  0  0  0  0  0  0  0  0  0  0
  -24.5550  -31.9110   23.2690 C   0  0  0  0  0  0  0  0  0  0  0  0
  -27.1640  -27.4870   20.1480 C   0  0  0  0  0  0  0  0  0  0  0  0
  -23.3290  -30.5100   21.6410 C   0  0  0  0  0  3  0  0  0  0  0  0
  -24.7700  -28.9680   20.2100 C   0  0  0  0  0  0  0  0  0  0  0  0
  -25.8540  -30.8680   21.4180 C   0  0  0  0  0  2  0  0  0  0  0  0
  -25.9330  -29.4980   20.7820 C   0  0  0  0  0  0  0  0  0  0  0  0
  -27.1390  -28.7620   20.7550 C   0  0  0  0  0  3  0  0  0  0  0  0
  -25.9770  -26.9490   19.6100 C   0  0  0  0  0  3  0  0  0  0  0  0
  -24.7820  -27.6900   19.6280 C   0  0  0  0  0  3  0  0  0  0  0  0
  -23.5250  -29.8230   20.2630 C   0  0  0  0  0  2  0  0  0  0  0  0
  -24.5980  -31.1110   22.1660 N   0  0  0  0  0  0  0  0  0  0  0  0
  -23.4790  -32.1900   23.8170 O   0  0  0  0  0  0  0  0  0  0  0  0
  -22.6870  -29.4920   22.6080 C   0  0  0  0  0  0  0  0  0  0  0  0
  -21.3650  -29.3020   22.4800 N   0  0  0  0  0  0  0  0  0  0  0  0
  -23.3760  -28.8750   23.4240 O   0  0  0  0  0  0  0  0  0  0  0  0
  -20.8720  -29.8490   21.7880 H   0  0  0  0  0  0  0  0  0  0  0  0
  -17.9960  -28.0980   22.9730 C   0  0  0  0  0  0  0  0  0  0  0  0
  -20.5500  -28.3690   23.2560 C   0  0  0  0  0  3  0  0  0  0  0  0
  -20.6630  -26.9340   22.6920 C   0  0  0  0  0  2  0  0  0  0  0  0
  -19.5680  -26.5970   21.6740 C   0  0  0  0  0  2  0  0  0  0  0  0
  -18.1820  -26.7440   22.3080 C   0  0  0  0  0  2  0  0  0  0  0  0
  -19.1100  -28.8680   23.4020 C   0  0  0  0  0  0  0  0  0  0  0  0
  -18.8830  -30.1380   23.9780 C   0  0  0  0  0  3  0  0  0  0  0  0
  -17.5750  -30.6370   24.1300 C   0  0  0  0  0  3  0  0  0  0  0  0
  -16.4770  -29.8620   23.7190 C   0  0  0  0  0  3  0  0  0  0  0  0
  -16.6870  -28.5960   23.1450 C   0  0  0  0  0  3  0  0  0  0  0  0
  -25.8490  -32.5360   23.8760 C   0  0  0  0  0  3  0  0  0  0  0  0
  -26.3790  -31.7680   25.1520 C   0  0  1  0  0  0  0  0  0  0  0  0
  -25.2910  -31.5410   26.2300 C   0  0  0  0  0  1  0  0  0  0  0  0
  -26.9530  -30.3860   24.7630 C   0  0  0  0  0  1  0  0  0  0  0  0
  -27.5390  -32.5630   25.7980 C   0  0  0  0  0  1  0  0  0  0  0  0
  -25.5540  -33.9390   24.1960 N   0  0  0  0  0  0  0  0  0  0  0  0
  -25.9000  -34.9810   23.4280 C   0  0  0  0  0  0  0  0  0  0  0  0
  -26.5710  -34.8650   22.3990 O   0  0  0  0  0  0  0  0  0  0  0  0
  -24.9490  -34.1050   24.9870 H   0  0  0  0  0  0  0  0  0  0  0  0
  -24.1910  -36.7860   23.0510 C   0  0  0  0  0  1  0  0  0  0  0  0
  -25.4210  -36.3750   23.8740 C   0  0  0  0  0  3  0  0  0  0  0  0
  -27.5580  -37.2420   24.7170 C   0  0  0  0  0  1  0  0  0  0  0  0
  -26.4650  -37.4170   23.7650 N   0  0  0  0  0  0  0  0  0  0  0  0
  -26.0660  -38.3420   23.9060 H   0  0  0  0  0  0  0  0  0  0  0  0
  -30.0550  -21.5370   18.7550 C   0  0  0  0  0  2  0  0  0  0  0  0
  -29.6040  -20.2270   19.4250 C   0  0  0  0  0  2  0  0  0  0  0  0
  -30.7350  -19.3180   19.7120 N   0  0  0  0  0  4  0  0  0  0  0  0
  -31.4020  -19.8130   20.2830 H   0  0  0  0  0  0  0  0  0  0  0  0
  -31.1980  -19.0620   18.8520 H   0  0  0  0  0  0  0  0  0  0  0  0
  -30.3310  -18.0950   20.4350 C   0  0  0  0  0  2  0  0  0  0  0  0
  -31.5360  -17.3360   21.0180 C   0  0  0  0  0  2  0  0  0  0  0  0
  -31.1420  -16.1570   21.9390 C   0  0  0  0  0  2  0  0  0  0  0  0
  -30.7370  -14.3080   20.2960 C   0  0  0  0  0  0  0  0  0  0  0  0
  -30.2780  -12.2760   18.9810 C   0  0  0  0  0  2  0  0  0  0  0  0
  -29.2890  -12.5390   17.8310 C   0  0  0  0  0  2  0  0  0  0  0  0
  -27.8360  -12.4040   18.3200 C   0  0  0  0  0  2  0  0  0  0  0  0
  -27.5670  -13.2090   19.6180 C   0  0  0  0  0  3  0  0  0  0  0  0
  -28.6550  -12.9250   20.6770 C   0  0  0  0  0  2  0  0  0  0  0  0
  -29.9740  -13.2080   20.0770 N   0  0  0  0  0  0  0  0  0  0  0  0
  -31.7510  -14.5660   19.6420 O   0  0  0  0  0  0  0  0  0  0  0  0
  -30.3490  -15.0940   21.3090 N   0  0  0  0  0  0  0  0  0  0  0  0
  -29.5040  -14.8120   21.7850 H   0  0  0  0  0  0  0  0  0  0  0  0
  -25.1930  -13.8330   20.3980 C   0  0  0  0  0  0  0  0  0  0  0  0
  -24.1330  -13.0650   20.8020 C   0  0  0  0  0  0  0  0  0  0  0  0
  -24.5870  -11.7120   20.7610 C   0  0  0  0  0  0  0  0  0  0  0  0
  -26.2260  -12.9460   20.1380 N   0  0  0  0  0  0  0  0  0  0  0  0
  -25.8660  -11.6650   20.4120 N   0  0  0  0  0  0  0  0  0  0  0  0
  -23.8620  -10.4540   20.9800 C   0  0  0  0  0  0  0  0  0  0  0  0
  -24.3170   -9.4900   21.9060 C   0  0  0  0  0  3  0  0  0  0  0  0
  -23.5950   -8.2960   22.1110 C   0  0  0  0  0  3  0  0  0  0  0  0
  -22.4030   -8.0550   21.3880 C   0  0  0  0  0  0  0  0  0  0  0  0
  -21.9640   -9.0070   20.4500 C   0  0  0  0  0  3  0  0  0  0  0  0
  -22.6880  -10.1940   20.2450 C   0  0  0  0  0  3  0  0  0  0  0  0
  -21.6500   -6.9120   21.5010 O   0  0  0  0  0  0  0  0  0  0  0  0
  -21.6350   -6.1700   22.6550 C   0  0  0  0  0  0  0  0  0  0  0  0
  -21.2510   -6.7280   23.8930 C   0  0  0  0  0  3  0  0  0  0  0  0
  -21.1840   -5.9140   25.0410 C   0  0  0  0  0  3  0  0  0  0  0  0
  -21.4920   -4.5430   24.9520 C   0  0  0  0  0  0  0  0  0  0  0  0
  -21.8690   -3.9850   23.7190 C   0  0  0  0  0  3  0  0  0  0  0  0
  -21.9380   -4.7960   22.5730 C   0  0  0  0  0  0  0  0  0  0  0  0
  -22.2820   -4.2490   21.3820 F   0  0  0  0  0  0  0  0  0  0  0  0
  -21.4200   -3.7580   26.0530 F   0  0  0  0  0  0  0  0  0  0  0  0
  -22.7470  -13.5510   21.1170 C   0  0  0  0  0  0  0  0  0  0  0  0
  -22.0430  -12.8580   22.0070 N   0  0  0  0  0  0  0  0  0  0  0  0
  -22.2960  -14.5760   20.6090 O   0  0  0  0  0  0  0  0  0  0  0  0
  -22.4210  -12.0290   22.4420 H   0  0  0  0  0  0  0  0  0  0  0  0
  -21.1120  -13.1630   22.2570 H   0  0  0  0  0  0  0  0  0  0  0  0
  -25.3610  -15.2020   20.2120 N   0  0  0  0  0  0  0  0  0  0  0  0
  -24.6050  -15.8640   20.3500 H   0  0  0  0  0  0  0  0  0  0  0  0
  -26.2090  -15.6320   19.8670 H   0  0  0  0  0  0  0  0  0  0  0  0
  1 49  1  0
  2  1  1  0
  3  2  1  0
  3  4  1  0
  5  3  1  0
  6  3  1  0
  6  7  1  0
  7  8  1  0
  8 10  1  0
  9 20  2  0
 10 15  1  0
 11 19  1  0
 11 21  1  0
 12 18  1  0
 12 14  1  0
 13 19  1  0
 14 13  1  0
 15 14  2  0
 16 17  1  0
 16 10  2  0
 17 12  2  0
 18 11  1  0
 19  9  1  0
 21 23  2  0
 22 21  1  0
 24 22  1  0
 25 34  2  0
 25 30  1  0
 26 22  1  0
 26 30  1  0
 27 26  1  0
 28 29  1  0
 28 27  1  0
 29 25  1  0
 30 31  2  0
 31 32  1  0
 33 32  2  0
 34 33  1  0
 35  9  1  0
 35 40  1  0
 35 36  1  0
 36 39  1  1
 36 37  1  0
 38 36  1  0
 40 43  1  0
 41 45  1  0
 41 40  1  0
 42 41  2  0
 45 44  1  0
 47 45  1  0
 47 48  1  0
 47 46  1  0
 49 50  1  0
 50 51  1  0
 51 52  1  0
 51 54  1  0
 53 51  1  0
 54 55  1  0
 55 56  1  0
 57 65  1  0
 58 63  1  0
 59 60  1  0
 59 58  1  0
 61 60  1  0
 61 70  1  0
 61 62  1  0
 63 57  1  0
 63 62  1  0
 64 57  2  0
 65 66  1  0
 65 56  1  0
 67 68  2  0
 68 87  1  0
 69 68  1  0
 69 72  1  0
 70 67  1  0
 70 71  1  0
 71 69  2  0
 72 73  1  0
 73 74  2  0
 75 78  1  0
 75 74  1  0
 76 75  2  0
 77 76  1  0
 77 72  2  0
 78 79  1  0
 79 80  1  0
 80 81  2  0
 82 81  1  0
 82 86  1  0
 83 82  2  0
 84 79  2  0
 84 83  1  0
 85 84  1  0
 87 88  1  0
 88 91  1  0
 88 90  1  0
 89 87  2  0
 92 93  1  0
 92 67  1  0
 94 92  1  0
M  ISO  4   7 101   8 101  57 100  65 100
M  END
>  <TORSDO>  (55) 
F 26

>  <SCORE>  (55) 
-11.668

>  <name>  (55) 
59

>  <ligand_id>  (55) 
59

>  <original_smiles>  (55) 
[H]c1c([H])c([H])c2c(c1[H])C([H])([H])C([H])([H])C([H])([H])C2([H])N([H])C(=O)C1([H])N(C(=O)C([H])(N([H])C(=O)C([H])(N([H])C([H])([H])[H])C([H])([H])[H])C(C([H])([H])[H])(C([H])([H])[H])C([H])([H])[H])C([H])([H])c2c([H])c(OC([H])([H])C([H])([H])[N+]([H])([H])C([H])([H])C([H])([H])C([H])([H])C([H])([H])[N+]([H])([H])C([H])([H])C([H])([H])C([H])([H])N([H])C(=O)N3C([H])([H])C([H])([H])C([H])([H])C([H])(n4nc(-c5c([H])c([H])c(Oc6c([H])c([H])c(F)c([H])c6F)c([H])c5[H])c(C(=O)N([H])[H])c4N([H])[H])C3([H])[H])c([H])c([H])c2C1([H])[H]

>  <smiles>  (55) 
[H]c1c([H])c([H])c2c(c1[H])C([H])([H])C([H])([H])C([H])([H])C2([H])N([H])C(=O)C1([H])N(C(=O)C([H])(N([H])C(=O)C([H])(N([H])C([H])([H])[H])C([H])([H])[H])C(C([H])([H])[H])(C([H])([H])[H])C([H])([H])[H])C([H])([H])c2c([H])c(OC([H])([H])C([H])([H])[N+]([H])([H])C([H])([H])C([H])([H])C([H])([H])C([H])([H])[N+]([H])([H])C([H])([H])C([H])([H])C([H])([H])N([H])C(=O)N3C([H])([H])C([H])([H])C([H])([H])C([H])(n4nc(-c5c([H])c([H])c(Oc6c([H])c([H])c(F)c([H])c6F)c([H])c5[H])c(C(=O)N([H])[H])c4N([H])[H])C3([H])[H])c([H])c([H])c2C1([H])[H]

$$$$
60:0:0
     RDKit          3D

 94101  0  0  1  0  0  0  0  0999 V2000
  -28.9040  -22.5470   18.6130 C   0  0  0  0  0  2  0  0  0  0  0  0
  -29.3660  -23.9030   18.0520 C   0  0  0  0  0  2  0  0  0  0  0  0
  -28.2280  -24.8390   17.9310 N   0  0  0  0  0  4  0  0  0  0  0  0
  -27.6890  -24.7930   18.7810 H   0  0  0  0  0  0  0  0  0  0  0  0
  -27.6370  -24.5120   17.1820 H   0  0  0  0  0  0  0  0  0  0  0  0
  -28.5740  -26.2600   17.6800 C   0  0  0  0  0  2  0  0  0  0  0  0
  -29.1250  -26.9790   18.9330 C   0  0  0  0  0  2  0  0  0  0  0  0
  -28.3210  -26.7540   20.0940 O   0  0  0  0  0  0  0  0  0  0  0  0
  -24.5550  -31.9110   23.2690 C   0  0  0  0  0  0  0  0  0  0  0  0
  -27.1640  -27.4870   20.1480 C   0  0  0  0  0  0  0  0  0  0  0  0
  -23.3290  -30.5100   21.6410 C   0  0  0  0  0  3  0  0  0  0  0  0
  -24.7700  -28.9680   20.2100 C   0  0  0  0  0  0  0  0  0  0  0  0
  -25.8540  -30.8680   21.4180 C   0  0  0  0  0  2  0  0  0  0  0  0
  -25.9330  -29.4980   20.7820 C   0  0  0  0  0  0  0  0  0  0  0  0
  -27.1390  -28.7620   20.7550 C   0  0  0  0  0  3  0  0  0  0  0  0
  -25.9770  -26.9490   19.6100 C   0  0  0  0  0  3  0  0  0  0  0  0
  -24.7820  -27.6900   19.6280 C   0  0  0  0  0  3  0  0  0  0  0  0
  -23.5250  -29.8230   20.2630 C   0  0  0  0  0  2  0  0  0  0  0  0
  -24.5980  -31.1110   22.1660 N   0  0  0  0  0  0  0  0  0  0  0  0
  -23.4790  -32.1900   23.8170 O   0  0  0  0  0  0  0  0  0  0  0  0
  -22.6870  -29.4920   22.6080 C   0  0  0  0  0  0  0  0  0  0  0  0
  -21.3650  -29.3020   22.4800 N   0  0  0  0  0  0  0  0  0  0  0  0
  -23.3760  -28.8750   23.4240 O   0  0  0  0  0  0  0  0  0  0  0  0
  -20.8720  -29.8490   21.7880 H   0  0  0  0  0  0  0  0  0  0  0  0
  -17.9960  -28.0980   22.9730 C   0  0  0  0  0  0  0  0  0  0  0  0
  -20.5500  -28.3690   23.2560 C   0  0  0  0  0  3  0  0  0  0  0  0
  -20.6630  -26.9340   22.6920 C   0  0  0  0  0  2  0  0  0  0  0  0
  -19.5680  -26.5970   21.6740 C   0  0  0  0  0  2  0  0  0  0  0  0
  -18.1820  -26.7440   22.3080 C   0  0  0  0  0  2  0  0  0  0  0  0
  -19.1100  -28.8680   23.4020 C   0  0  0  0  0  0  0  0  0  0  0  0
  -18.8830  -30.1380   23.9780 C   0  0  0  0  0  3  0  0  0  0  0  0
  -17.5750  -30.6370   24.1300 C   0  0  0  0  0  3  0  0  0  0  0  0
  -16.4770  -29.8620   23.7190 C   0  0  0  0  0  3  0  0  0  0  0  0
  -16.6870  -28.5960   23.1450 C   0  0  0  0  0  3  0  0  0  0  0  0
  -25.8490  -32.5360   23.8760 C   0  0  0  0  0  3  0  0  0  0  0  0
  -26.3790  -31.7680   25.1520 C   0  0  1  0  0  0  0  0  0  0  0  0
  -25.2910  -31.5410   26.2300 C   0  0  0  0  0  1  0  0  0  0  0  0
  -26.9530  -30.3860   24.7630 C   0  0  0  0  0  1  0  0  0  0  0  0
  -27.5390  -32.5630   25.7980 C   0  0  0  0  0  1  0  0  0  0  0  0
  -25.5540  -33.9390   24.1960 N   0  0  0  0  0  0  0  0  0  0  0  0
  -25.9000  -34.9810   23.4280 C   0  0  0  0  0  0  0  0  0  0  0  0
  -26.5710  -34.8650   22.3990 O   0  0  0  0  0  0  0  0  0  0  0  0
  -24.9490  -34.1050   24.9870 H   0  0  0  0  0  0  0  0  0  0  0  0
  -24.1910  -36.7860   23.0510 C   0  0  0  0  0  1  0  0  0  0  0  0
  -25.4210  -36.3750   23.8740 C   0  0  0  0  0  3  0  0  0  0  0  0
  -27.5580  -37.2420   24.7170 C   0  0  0  0  0  1  0  0  0  0  0  0
  -26.4650  -37.4170   23.7650 N   0  0  0  0  0  0  0  0  0  0  0  0
  -26.0660  -38.3420   23.9060 H   0  0  0  0  0  0  0  0  0  0  0  0
  -30.0550  -21.5370   18.7550 C   0  0  0  0  0  2  0  0  0  0  0  0
  -29.6040  -20.2270   19.4250 C   0  0  0  0  0  2  0  0  0  0  0  0
  -30.7350  -19.3180   19.7120 N   0  0  0  0  0  4  0  0  0  0  0  0
  -31.4020  -19.8130   20.2830 H   0  0  0  0  0  0  0  0  0  0  0  0
  -31.1980  -19.0620   18.8520 H   0  0  0  0  0  0  0  0  0  0  0  0
  -30.3310  -18.0950   20.4350 C   0  0  0  0  0  2  0  0  0  0  0  0
  -31.5360  -17.3360   21.0180 C   0  0  0  0  0  2  0  0  0  0  0  0
  -31.1420  -16.1570   21.9390 C   0  0  0  0  0  2  0  0  0  0  0  0
  -30.7370  -14.3080   20.2960 C   0  0  0  0  0  0  0  0  0  0  0  0
  -30.2780  -12.2760   18.9810 C   0  0  0  0  0  2  0  0  0  0  0  0
  -29.2890  -12.5390   17.8310 C   0  0  0  0  0  2  0  0  0  0  0  0
  -27.8360  -12.4040   18.3200 C   0  0  0  0  0  2  0  0  0  0  0  0
  -27.5670  -13.2090   19.6180 C   0  0  0  0  0  3  0  0  0  0  0  0
  -28.6550  -12.9250   20.6770 C   0  0  0  0  0  2  0  0  0  0  0  0
  -29.9740  -13.2080   20.0770 N   0  0  0  0  0  0  0  0  0  0  0  0
  -31.7510  -14.5660   19.6420 O   0  0  0  0  0  0  0  0  0  0  0  0
  -30.3490  -15.0940   21.3090 N   0  0  0  0  0  0  0  0  0  0  0  0
  -29.5040  -14.8120   21.7850 H   0  0  0  0  0  0  0  0  0  0  0  0
  -25.1930  -13.8330   20.3980 C   0  0  0  0  0  0  0  0  0  0  0  0
  -24.1330  -13.0650   20.8020 C   0  0  0  0  0  0  0  0  0  0  0  0
  -24.5870  -11.7120   20.7610 C   0  0  0  0  0  0  0  0  0  0  0  0
  -26.2260  -12.9460   20.1380 N   0  0  0  0  0  0  0  0  0  0  0  0
  -25.8660  -11.6650   20.4120 N   0  0  0  0  0  0  0  0  0  0  0  0
  -23.8620  -10.4540   20.9800 C   0  0  0  0  0  0  0  0  0  0  0  0
  -24.3170   -9.4900   21.9060 C   0  0  0  0  0  3  0  0  0  0  0  0
  -23.5950   -8.2960   22.1110 C   0  0  0  0  0  3  0  0  0  0  0  0
  -22.4030   -8.0550   21.3880 C   0  0  0  0  0  0  0  0  0  0  0  0
  -21.9640   -9.0070   20.4500 C   0  0  0  0  0  3  0  0  0  0  0  0
  -22.6880  -10.1940   20.2450 C   0  0  0  0  0  3  0  0  0  0  0  0
  -21.6500   -6.9120   21.5010 O   0  0  0  0  0  0  0  0  0  0  0  0
  -21.6350   -6.1700   22.6550 C   0  0  0  0  0  0  0  0  0  0  0  0
  -21.2510   -6.7280   23.8930 C   0  0  0  0  0  3  0  0  0  0  0  0
  -21.1840   -5.9140   25.0410 C   0  0  0  0  0  3  0  0  0  0  0  0
  -21.4920   -4.5430   24.9520 C   0  0  0  0  0  0  0  0  0  0  0  0
  -21.8690   -3.9850   23.7190 C   0  0  0  0  0  3  0  0  0  0  0  0
  -21.9380   -4.7960   22.5730 C   0  0  0  0  0  0  0  0  0  0  0  0
  -22.2820   -4.2490   21.3820 F   0  0  0  0  0  0  0  0  0  0  0  0
  -21.4200   -3.7580   26.0530 F   0  0  0  0  0  0  0  0  0  0  0  0
  -22.7470  -13.5510   21.1170 C   0  0  0  0  0  0  0  0  0  0  0  0
  -22.0430  -12.8580   22.0070 N   0  0  0  0  0  0  0  0  0  0  0  0
  -22.2960  -14.5760   20.6090 O   0  0  0  0  0  0  0  0  0  0  0  0
  -22.4210  -12.0290   22.4420 H   0  0  0  0  0  0  0  0  0  0  0  0
  -21.1120  -13.1630   22.2570 H   0  0  0  0  0  0  0  0  0  0  0  0
  -25.3610  -15.2020   20.2120 N   0  0  0  0  0  0  0  0  0  0  0  0
  -24.6050  -15.8640   20.3500 H   0  0  0  0  0  0  0  0  0  0  0  0
  -26.2090  -15.6320   19.8670 H   0  0  0  0  0  0  0  0  0  0  0  0
  1 49  1  0
  2  1  1  0
  3  2  1  0
  3  4  1  0
  5  3  1  0
  6  3  1  0
  6  7  1  0
  7  8  1  0
  8 10  1  0
  9 20  2  0
 10 15  1  0
 11 19  1  0
 11 21  1  0
 12 18  1  0
 12 14  1  0
 13 19  1  0
 14 13  1  0
 15 14  2  0
 16 17  1  0
 16 10  2  0
 17 12  2  0
 18 11  1  0
 19  9  1  0
 21 23  2  0
 22 21  1  0
 24 22  1  0
 25 34  2  0
 25 30  1  0
 26 22  1  0
 26 30  1  0
 27 26  1  0
 28 29  1  0
 28 27  1  0
 29 25  1  0
 30 31  2  0
 31 32  1  0
 33 32  2  0
 34 33  1  0
 35  9  1  0
 35 40  1  0
 35 36  1  0
 36 39  1  1
 36 37  1  0
 38 36  1  0
 40 43  1  0
 41 45  1  0
 41 40  1  0
 42 41  2  0
 45 44  1  0
 47 45  1  0
 47 48  1  0
 47 46  1  0
 49 50  1  0
 50 51  1  0
 51 52  1  0
 51 54  1  0
 53 51  1  0
 54 55  1  0
 55 56  1  0
 57 65  1  0
 58 63  1  0
 59 60  1  0
 59 58  1  0
 61 60  1  0
 61 70  1  0
 61 62  1  0
 63 57  1  0
 63 62  1  0
 64 57  2  0
 65 66  1  0
 65 56  1  0
 67 68  2  0
 68 87  1  0
 69 68  1  0
 69 72  1  0
 70 67  1  0
 70 71  1  0
 71 69  2  0
 72 73  1  0
 73 74  2  0
 75 78  1  0
 75 74  1  0
 76 75  2  0
 77 76  1  0
 77 72  2  0
 78 79  1  0
 79 80  1  0
 80 81  2  0
 82 81  1  0
 82 86  1  0
 83 82  2  0
 84 79  2  0
 84 83  1  0
 85 84  1  0
 87 88  1  0
 88 91  1  0
 88 90  1  0
 89 87  2  0
 92 93  1  0
 92 67  1  0
 94 92  1  0
M  ISO  4   7 101   8 101  57 100  65 100
M  END
>  <TORSDO>  (56) 
F 26

>  <SCORE>  (56) 
-11.668

>  <name>  (56) 
60

>  <ligand_id>  (56) 
60

>  <original_smiles>  (56) 
[H]c1c([H])c([H])c2c(c1[H])C([H])([H])C([H])([H])C([H])([H])C2([H])N([H])C(=O)C1([H])N(C(=O)C([H])(N([H])C(=O)C([H])(N([H])C([H])([H])[H])C([H])([H])[H])C(C([H])([H])[H])(C([H])([H])[H])C([H])([H])[H])C([H])([H])c2c([H])c(OC([H])([H])C([H])([H])[N+]([H])([H])C([H])([H])C([H])([H])C([H])([H])C([H])([H])[N+]([H])([H])C([H])([H])C([H])([H])C([H])([H])N([H])C(=O)N3C([H])([H])C([H])([H])C([H])([H])C([H])(n4nc(-c5c([H])c([H])c(Oc6c([H])c([H])c(F)c([H])c6F)c([H])c5[H])c(C(=O)N([H])[H])c4N([H])[H])C3([H])[H])c([H])c([H])c2C1([H])[H]

>  <smiles>  (56) 
[H]c1c([H])c([H])c2c(c1[H])C([H])([H])C([H])([H])C([H])([H])C2([H])N([H])C(=O)C1([H])N(C(=O)C([H])(N([H])C(=O)C([H])(N([H])C([H])([H])[H])C([H])([H])[H])C(C([H])([H])[H])(C([H])([H])[H])C([H])([H])[H])C([H])([H])c2c([H])c(OC([H])([H])C([H])([H])[N+]([H])([H])C([H])([H])C([H])([H])C([H])([H])C([H])([H])[N+]([H])([H])C([H])([H])C([H])([H])C([H])([H])N([H])C(=O)N3C([H])([H])C([H])([H])C([H])([H])C([H])(n4nc(-c5c([H])c([H])c(Oc6c([H])c([H])c(F)c([H])c6F)c([H])c5[H])c(C(=O)N([H])[H])c4N([H])[H])C3([H])[H])c([H])c([H])c2C1([H])[H]

$$$$
61:0:0
     RDKit          3D

102109  0  0  1  0  0  0  0  0999 V2000
  -23.5190  -23.0080   16.0520 C   0  0  0  0  0  2  0  0  0  0  0  0
  -24.1910  -22.5050   17.3550 C   0  0  0  0  0  2  0  0  0  0  0  0
  -25.1160  -21.3620   17.1580 N   0  0  0  0  0  4  0  0  0  0  0  0
  -24.6600  -20.6490   16.6090 H   0  0  0  0  0  0  0  0  0  0  0  0
  -25.9260  -21.6650   16.6440 H   0  0  0  0  0  0  0  0  0  0  0  0
  -25.5820  -20.7320   18.4160 C   0  0  0  0  0  2  0  0  0  0  0  0
  -26.9880  -20.1190   18.2600 C   0  0  0  0  0  2  0  0  0  0  0  0
  -27.4720  -19.3550   19.5070 C   0  0  0  0  0  2  0  0  0  0  0  0
  -28.9640  -18.9680   19.4140 C   0  0  0  0  0  2  0  0  0  0  0  0
  -29.4260  -18.1590   20.5650 N   0  0  0  0  0  4  0  0  0  0  0  0
  -28.9630  -17.2660   20.5430 H   0  0  0  0  0  0  0  0  0  0  0  0
  -29.1690  -18.6180   21.4240 H   0  0  0  0  0  0  0  0  0  0  0  0
  -30.8890  -17.9270   20.5860 C   0  0  0  0  0  2  0  0  0  0  0  0
  -31.2930  -16.7810   21.5370 C   0  0  0  0  0  2  0  0  0  0  0  0
  -31.0970  -14.6820   20.2140 C   0  0  0  0  0  0  0  0  0  0  0  0
  -30.7040  -12.5580   19.0250 C   0  0  0  0  0  2  0  0  0  0  0  0
  -29.7300  -12.7470   17.8460 C   0  0  0  0  0  2  0  0  0  0  0  0
  -28.2700  -12.6260   18.3190 C   0  0  0  0  0  2  0  0  0  0  0  0
  -27.9740  -13.5050   19.5610 C   0  0  0  0  0  3  0  0  0  0  0  0
  -29.0450  -13.2830   20.6530 C   0  0  0  0  0  2  0  0  0  0  0  0
  -30.3740  -13.5430   20.0650 N   0  0  0  0  0  0  0  0  0  0  0  0
  -32.0890  -14.9550   19.5350 O   0  0  0  0  0  0  0  0  0  0  0  0
  -30.6660  -15.5080   21.1780 N   0  0  0  0  0  0  0  0  0  0  0  0
  -29.9120  -15.1690   21.7590 H   0  0  0  0  0  0  0  0  0  0  0  0
  -25.6190  -14.1730   20.3670 C   0  0  0  0  0  0  0  0  0  0  0  0
  -24.5410  -13.4270   20.7570 C   0  0  0  0  0  0  0  0  0  0  0  0
  -24.9530  -12.0620   20.6680 C   0  0  0  0  0  0  0  0  0  0  0  0
  -26.6250  -13.2650   20.0740 N   0  0  0  0  0  0  0  0  0  0  0  0
  -26.2290  -11.9890   20.3100 N   0  0  0  0  0  0  0  0  0  0  0  0
  -24.1940  -10.8190   20.8470 C   0  0  0  0  0  0  0  0  0  0  0  0
  -24.5660   -9.8590   21.8130 C   0  0  0  0  0  3  0  0  0  0  0  0
  -23.8090   -8.6780   21.9780 C   0  0  0  0  0  3  0  0  0  0  0  0
  -22.6660   -8.4500   21.1770 C   0  0  0  0  0  0  0  0  0  0  0  0
  -22.3130   -9.4010   20.2010 C   0  0  0  0  0  3  0  0  0  0  0  0
  -23.0710  -10.5720   20.0340 C   0  0  0  0  0  3  0  0  0  0  0  0
  -21.8850   -7.3220   21.2500 O   0  0  0  0  0  0  0  0  0  0  0  0
  -21.6990   -6.6520   22.4320 C   0  0  0  0  0  0  0  0  0  0  0  0
  -21.1090   -7.2720   23.5560 C   0  0  0  0  0  3  0  0  0  0  0  0
  -20.8730   -6.5250   24.7280 C   0  0  0  0  0  3  0  0  0  0  0  0
  -21.2150   -5.1600   24.7760 C   0  0  0  0  0  0  0  0  0  0  0  0
  -21.7970   -4.5410   23.6550 C   0  0  0  0  0  3  0  0  0  0  0  0
  -22.0350   -5.2840   22.4860 C   0  0  0  0  0  0  0  0  0  0  0  0
  -22.5770   -4.6770   21.4030 F   0  0  0  0  0  0  0  0  0  0  0  0
  -20.9810   -4.4420   25.8980 F   0  0  0  0  0  0  0  0  0  0  0  0
  -23.1700  -13.9400   21.0950 C   0  0  0  0  0  0  0  0  0  0  0  0
  -22.4570  -13.2500   21.9770 N   0  0  0  0  0  0  0  0  0  0  0  0
  -22.7430  -14.9870   20.6100 O   0  0  0  0  0  0  0  0  0  0  0  0
  -22.8150  -12.4020   22.3910 H   0  0  0  0  0  0  0  0  0  0  0  0
  -21.5380  -13.5750   22.2450 H   0  0  0  0  0  0  0  0  0  0  0  0
  -25.8220  -15.5430   20.2140 N   0  0  0  0  0  0  0  0  0  0  0  0
  -25.0580  -16.2000   20.3150 H   0  0  0  0  0  0  0  0  0  0  0  0
  -26.6220  -15.9320   19.7350 H   0  0  0  0  0  0  0  0  0  0  0  0
  -24.4190  -23.7690   15.0480 C   0  0  0  0  0  2  0  0  0  0  0  0
  -24.9480  -25.0500   15.5750 N   0  0  0  0  0  4  0  0  0  0  0  0
  -24.5570  -25.7990   15.0240 H   0  0  0  0  0  0  0  0  0  0  0  0
  -24.6220  -25.1850   16.5170 H   0  0  0  0  0  0  0  0  0  0  0  0
  -26.4220  -25.1720   15.5270 C   0  0  0  0  0  2  0  0  0  0  0  0
  -26.9030  -26.4320   16.2640 C   0  0  0  0  0  2  0  0  0  0  0  0
  -28.4330  -26.5060   16.4590 C   0  0  0  0  0  2  0  0  0  0  0  0
  -28.8080  -27.1200   17.8170 C   0  0  0  0  0  2  0  0  0  0  0  0
  -28.6190  -26.1260   18.9870 C   0  0  0  0  0  2  0  0  0  0  0  0
  -28.2950  -26.8030   20.2000 O   0  0  0  0  0  0  0  0  0  0  0  0
  -24.5770  -31.8660   23.5000 C   0  0  0  0  0  0  0  0  0  0  0  0
  -27.1010  -27.4870   20.2590 C   0  0  0  0  0  0  0  0  0  0  0  0
  -23.3230  -30.5450   21.8260 C   0  0  0  0  0  3  0  0  0  0  0  0
  -24.7280  -29.0200   20.3490 C   0  0  0  0  0  0  0  0  0  0  0  0
  -25.8530  -30.8560   21.6140 C   0  0  0  0  0  2  0  0  0  0  0  0
  -25.9010  -29.5050   20.9410 C   0  0  0  0  0  0  0  0  0  0  0  0
  -27.0870  -28.7420   20.9030 C   0  0  0  0  0  3  0  0  0  0  0  0
  -25.8990  -26.9920   19.6980 C   0  0  0  0  0  3  0  0  0  0  0  0
  -24.7200  -27.7580   19.7310 C   0  0  0  0  0  3  0  0  0  0  0  0
  -23.5080  -29.9070   20.4260 C   0  0  0  0  0  2  0  0  0  0  0  0
  -24.6040  -31.1010   22.3730 N   0  0  0  0  0  0  0  0  0  0  0  0
  -23.5070  -32.1490   24.0580 O   0  0  0  0  0  0  0  0  0  0  0  0
  -22.6580  -29.5090   22.7590 C   0  0  0  0  0  0  0  0  0  0  0  0
  -21.3520  -29.2720   22.5530 N   0  0  0  0  0  0  0  0  0  0  0  0
  -23.3160  -28.9190   23.6210 O   0  0  0  0  0  0  0  0  0  0  0  0
  -20.8820  -29.7970   21.8290 H   0  0  0  0  0  0  0  0  0  0  0  0
  -18.0360  -27.8610   22.7750 C   0  0  0  0  0  0  0  0  0  0  0  0
  -20.5280  -28.3130   23.2870 C   0  0  0  0  0  3  0  0  0  0  0  0
  -20.7870  -26.8690   22.7990 C   0  0  0  0  0  2  0  0  0  0  0  0
  -19.8200  -26.4210   21.6980 C   0  0  0  0  0  2  0  0  0  0  0  0
  -18.3730  -26.4980   22.1930 C   0  0  0  0  0  2  0  0  0  0  0  0
  -19.0510  -28.7190   23.2750 C   0  0  0  0  0  0  0  0  0  0  0  0
  -18.6890  -29.9910   23.7720 C   0  0  0  0  0  3  0  0  0  0  0  0
  -17.3440  -30.4050   23.7780 C   0  0  0  0  0  3  0  0  0  0  0  0
  -16.3420  -29.5450   23.2950 C   0  0  0  0  0  3  0  0  0  0  0  0
  -16.6890  -28.2760   22.8000 C   0  0  0  0  0  3  0  0  0  0  0  0
  -25.8830  -32.4460   24.1240 C   0  0  0  0  0  3  0  0  0  0  0  0
  -25.6610  -33.8800   24.3560 N   0  0  0  0  0  0  0  0  0  0  0  0
  -26.0880  -34.8540   23.5420 C   0  0  0  0  0  0  0  0  0  0  0  0
  -26.7770  -34.6370   22.5400 O   0  0  0  0  0  0  0  0  0  0  0  0
  -25.0450  -34.1250   25.1190 H   0  0  0  0  0  0  0  0  0  0  0  0
  -24.4970  -36.7310   23.0180 C   0  0  0  0  0  1  0  0  0  0  0  0
  -25.6850  -36.2980   23.8930 C   0  0  0  0  0  3  0  0  0  0  0  0
  -27.8510  -37.0930   24.7360 C   0  0  0  0  0  1  0  0  0  0  0  0
  -26.7910  -37.2700   23.7470 N   0  0  0  0  0  0  0  0  0  0  0  0
  -26.4420  -38.2210   23.8240 H   0  0  0  0  0  0  0  0  0  0  0  0
  -26.3120  -31.7230   25.4580 C   0  0  1  0  0  0  0  0  0  0  0  0
  -25.1680  -31.5900   26.4870 C   0  0  0  0  0  1  0  0  0  0  0  0
  -26.8420  -30.3000   25.1610 C   0  0  0  0  0  1  0  0  0  0  0  0
  -27.4720  -32.4960   26.1280 C   0  0  0  0  0  1  0  0  0  0  0  0
  1  2  1  0
  3  2  1  0
  3  6  1  0
  4  3  1  0
  5  3  1  0
  7  6  1  0
  7  8  1  0
  9  8  1  0
  9 10  1  0
 10 13  1  0
 10 12  1  0
 11 10  1  0
 13 14  1  0
 15 23  1  0
 16 21  1  0
 17 18  1  0
 17 16  1  0
 19 18  1  0
 19 28  1  0
 19 20  1  0
 21 15  1  0
 21 20  1  0
 22 15  2  0
 23 14  1  0
 23 24  1  0
 25 26  2  0
 26 45  1  0
 27 26  1  0
 27 30  1  0
 28 29  1  0
 28 25  1  0
 29 27  2  0
 30 31  1  0
 31 32  2  0
 33 36  1  0
 33 32  1  0
 34 33  2  0
 35 34  1  0
 35 30  2  0
 36 37  1  0
 37 42  2  0
 37 38  1  0
 38 39  2  0
 39 40  1  0
 40 44  1  0
 41 40  2  0
 42 41  1  0
 43 42  1  0
 45 46  1  0
 46 49  1  0
 46 48  1  0
 47 45  2  0
 50 51  1  0
 50 25  1  0
 52 50  1  0
 53 54  1  0
 53  1  1  0
 54 56  1  0
 55 54  1  0
 57 54  1  0
 57 58  1  0
 58 59  1  0
 59 60  1  0
 60 61  1  0
 61 62  1  0
 62 64  1  0
 63 74  2  0
 64 69  1  0
 65 73  1  0
 65 75  1  0
 66 72  1  0
 66 68  1  0
 67 73  1  0
 68 67  1  0
 69 68  2  0
 70 71  1  0
 70 64  2  0
 71 66  2  0
 72 65  1  0
 73 63  1  0
 75 77  2  0
 76 75  1  0
 78 76  1  0
 79 88  2  0
 79 84  1  0
 80 76  1  0
 81 80  1  0
 82 83  1  0
 82 81  1  0
 83 79  1  0
 84 80  1  0
 84 85  2  0
 85 86  1  0
 87 86  2  0
 88 87  1  0
 89 63  1  0
 89 90  1  0
 89 99  1  0
 90 93  1  0
 91 95  1  0
 91 90  1  0
 92 91  2  0
 95 94  1  0
 97 98  1  0
 97 95  1  0
 97 96  1  0
 99102  1  1
 99100  1  0
101 99  1  0
M  ISO  4  15 100  23 100  61 101  62 101
M  END
>  <TORSDO>  (57) 
F 32

>  <SCORE>  (57) 
-9.634

>  <name>  (57) 
61

>  <ligand_id>  (57) 
61

>  <original_smiles>  (57) 
[H]c1c([H])c([H])c2c(c1[H])C([H])([H])C([H])([H])C([H])([H])C2([H])N([H])C(=O)C1([H])N(C(=O)C([H])(N([H])C(=O)C([H])(N([H])C([H])([H])[H])C([H])([H])[H])C(C([H])([H])[H])(C([H])([H])[H])C([H])([H])[H])C([H])([H])c2c([H])c(OC([H])([H])C([H])([H])C([H])([H])C([H])([H])C([H])([H])[N+]([H])([H])C([H])([H])C([H])([H])C([H])([H])[N+]([H])([H])C([H])([H])C([H])([H])C([H])([H])C([H])([H])[N+]([H])([H])C([H])([H])C([H])([H])N([H])C(=O)N3C([H])([H])C([H])([H])C([H])([H])C([H])(n4nc(-c5c([H])c([H])c(Oc6c([H])c([H])c(F)c([H])c6F)c([H])c5[H])c(C(=O)N([H])[H])c4N([H])[H])C3([H])[H])c([H])c([H])c2C1([H])[H]

>  <smiles>  (57) 
[H]c1c([H])c([H])c2c(c1[H])C([H])([H])C([H])([H])C([H])([H])C2([H])N([H])C(=O)C1([H])N(C(=O)C([H])(N([H])C(=O)C([H])(N([H])C([H])([H])[H])C([H])([H])[H])C(C([H])([H])[H])(C([H])([H])[H])C([H])([H])[H])C([H])([H])c2c([H])c(OC([H])([H])C([H])([H])C([H])([H])C([H])([H])C([H])([H])[N+]([H])([H])C([H])([H])C([H])([H])C([H])([H])[N+]([H])([H])C([H])([H])C([H])([H])C([H])([H])C([H])([H])[N+]([H])([H])C([H])([H])C([H])([H])N([H])C(=O)N3C([H])([H])C([H])([H])C([H])([H])C([H])(n4nc(-c5c([H])c([H])c(Oc6c([H])c([H])c(F)c([H])c6F)c([H])c5[H])c(C(=O)N([H])[H])c4N([H])[H])C3([H])[H])c([H])c([H])c2C1([H])[H]

$$$$
62:0:0
     RDKit          3D

 96103  0  0  1  0  0  0  0  0999 V2000
  -29.4320  -23.3480   23.4230 C   0  0  0  0  0  2  0  0  0  0  0  0
  -29.1620  -21.8450   23.2950 C   0  0  0  0  0  2  0  0  0  0  0  0
  -30.3630  -21.2350   22.7460 N   0  0  0  0  0  0  0  0  0  0  0  0
  -31.1670  -21.4370   23.3370 H   0  0  0  0  0  0  0  0  0  0  0  0
  -30.2190  -19.7980   22.5640 C   0  0  0  0  0  2  0  0  0  0  0  0
  -31.2590  -19.3470   21.5270 C   0  0  0  0  0  2  0  0  0  0  0  0
  -31.2130  -17.8950   21.2850 N   0  0  0  0  0  4  0  0  0  0  0  0
  -31.4040  -17.4190   22.1510 H   0  0  0  0  0  0  0  0  0  0  0  0
  -30.2870  -17.6380   20.9820 H   0  0  0  0  0  0  0  0  0  0  0  0
  -32.1830  -17.4460   20.2660 C   0  0  0  0  0  2  0  0  0  0  0  0
  -32.5110  -15.9530   20.4000 C   0  0  0  0  0  2  0  0  0  0  0  0
  -31.3390  -14.3000   18.9710 C   0  0  0  0  0  0  0  0  0  0  0  0
  -30.9210  -11.9390   18.4340 C   0  0  0  0  0  2  0  0  0  0  0  0
  -29.8180  -11.6880   17.3950 C   0  0  0  0  0  2  0  0  0  0  0  0
  -28.4400  -11.6320   18.0750 C   0  0  0  0  0  2  0  0  0  0  0  0
  -28.1850  -12.8500   18.9980 C   0  0  0  0  0  3  0  0  0  0  0  0
  -29.3750  -13.0820   19.9540 C   0  0  0  0  0  2  0  0  0  0  0  0
  -30.6170  -13.1740   19.1630 N   0  0  0  0  0  0  0  0  0  0  0  0
  -32.0920  -14.4870   18.0100 O   0  0  0  0  0  0  0  0  0  0  0  0
  -31.3910  -15.0740   20.0620 N   0  0  0  0  0  0  0  0  0  0  0  0
  -30.7870  -14.7890   20.8190 H   0  0  0  0  0  0  0  0  0  0  0  0
  -26.0740  -13.6880   20.2140 C   0  0  0  0  0  0  0  0  0  0  0  0
  -25.0030  -13.0230   20.7510 C   0  0  0  0  0  0  0  0  0  0  0  0
  -25.2620  -11.6330   20.5490 C   0  0  0  0  0  0  0  0  0  0  0  0
  -26.9250  -12.7080   19.7270 N   0  0  0  0  0  0  0  0  0  0  0  0
  -26.4490  -11.4620   19.9800 N   0  0  0  0  0  0  0  0  0  0  0  0
  -24.4210  -10.4570   20.8120 C   0  0  0  0  0  0  0  0  0  0  0  0
  -24.8160   -9.4570   21.7280 C   0  0  0  0  0  3  0  0  0  0  0  0
  -23.9820   -8.3450   21.9780 C   0  0  0  0  0  3  0  0  0  0  0  0
  -22.7390   -8.2260   21.3100 C   0  0  0  0  0  0  0  0  0  0  0  0
  -22.3630   -9.2130   20.3820 C   0  0  0  0  0  3  0  0  0  0  0  0
  -23.1960  -10.3150   20.1320 C   0  0  0  0  0  3  0  0  0  0  0  0
  -21.8760   -7.1690   21.4700 O   0  0  0  0  0  0  0  0  0  0  0  0
  -21.7380   -6.5290   22.6770 C   0  0  0  0  0  0  0  0  0  0  0  0
  -21.3320   -7.2160   23.8410 C   0  0  0  0  0  3  0  0  0  0  0  0
  -21.1330   -6.5080   25.0430 C   0  0  0  0  0  3  0  0  0  0  0  0
  -21.3300   -5.1150   25.0820 C   0  0  0  0  0  0  0  0  0  0  0  0
  -21.7300   -4.4280   23.9210 C   0  0  0  0  0  3  0  0  0  0  0  0
  -21.9300   -5.1340   22.7220 C   0  0  0  0  0  0  0  0  0  0  0  0
  -22.2940   -4.4650   21.6020 F   0  0  0  0  0  0  0  0  0  0  0  0
  -21.1330   -4.4330   26.2330 F   0  0  0  0  0  0  0  0  0  0  0  0
  -23.7640  -13.6420   21.3310 C   0  0  0  0  0  0  0  0  0  0  0  0
  -23.1460  -12.9810   22.3040 N   0  0  0  0  0  0  0  0  0  0  0  0
  -23.3640  -14.7430   20.9560 O   0  0  0  0  0  0  0  0  0  0  0  0
  -23.4850  -12.0860   22.6260 H   0  0  0  0  0  0  0  0  0  0  0  0
  -22.3220  -13.3770   22.7350 H   0  0  0  0  0  0  0  0  0  0  0  0
  -26.3860  -15.0380   20.0820 N   0  0  0  0  0  0  0  0  0  0  0  0
  -25.7500  -15.7730   20.3750 H   0  0  0  0  0  0  0  0  0  0  0  0
  -27.2090  -15.3920   19.6100 H   0  0  0  0  0  0  0  0  0  0  0  0
  -28.1920  -24.2100   23.1310 C   0  0  0  0  0  2  0  0  0  0  0  0
  -28.5770  -25.5510   22.6450 N   0  0  0  0  0  4  0  0  0  0  0  0
  -29.3250  -25.8990   23.2260 H   0  0  0  0  0  0  0  0  0  0  0  0
  -27.7870  -26.1660   22.7740 H   0  0  0  0  0  0  0  0  0  0  0  0
  -28.9730  -25.5710   21.2150 C   0  0  0  0  0  2  0  0  0  0  0  0
  -29.5890  -26.9130   20.7780 C   0  0  0  0  0  2  0  0  0  0  0  0
  -29.0080  -27.3020   19.5360 O   0  0  0  0  0  0  0  0  0  0  0  0
  -24.6750  -31.6440   23.1380 C   0  0  0  0  0  0  0  0  0  0  0  0
  -27.7660  -27.8710   19.6540 C   0  0  0  0  0  0  0  0  0  0  0  0
  -23.6020  -30.2320   21.4100 C   0  0  0  0  0  3  0  0  0  0  0  0
  -25.1950  -29.0050   19.8420 C   0  0  0  0  0  0  0  0  0  0  0  0
  -26.0450  -30.9370   21.1850 C   0  0  0  0  0  2  0  0  0  0  0  0
  -26.2870  -29.6420   20.4440 C   0  0  0  0  0  0  0  0  0  0  0  0
  -27.5750  -29.0810   20.3540 C   0  0  0  0  0  3  0  0  0  0  0  0
  -26.6650  -27.2370   19.0470 C   0  0  0  0  0  3  0  0  0  0  0  0
  -25.3760  -27.7950   19.1430 C   0  0  0  0  0  3  0  0  0  0  0  0
  -23.8530  -29.6850   19.9790 C   0  0  0  0  0  2  0  0  0  0  0  0
  -24.7920  -30.9470   21.9720 N   0  0  0  0  0  0  0  0  0  0  0  0
  -23.5850  -31.7370   23.7200 O   0  0  0  0  0  0  0  0  0  0  0  0
  -23.1120  -29.0670   22.2980 C   0  0  0  0  0  0  0  0  0  0  0  0
  -21.8340  -28.6920   22.1330 N   0  0  0  0  0  0  0  0  0  0  0  0
  -23.8780  -28.5070   23.0860 O   0  0  0  0  0  0  0  0  0  0  0  0
  -21.2720  -29.2060   21.4670 H   0  0  0  0  0  0  0  0  0  0  0  0
  -18.6950  -26.9340   22.4500 C   0  0  0  0  0  0  0  0  0  0  0  0
  -21.1640  -27.5950   22.8290 C   0  0  0  0  0  3  0  0  0  0  0  0
  -21.5210  -26.2320   22.1920 C   0  0  0  0  0  2  0  0  0  0  0  0
  -20.5190  -25.7840   21.1250 C   0  0  0  0  0  2  0  0  0  0  0  0
  -19.1120  -25.6670   21.7210 C   0  0  0  0  0  2  0  0  0  0  0  0
  -19.6590  -27.8470   22.9560 C   0  0  0  0  0  0  0  0  0  0  0  0
  -19.2170  -29.0260   23.5950 C   0  0  0  0  0  3  0  0  0  0  0  0
  -17.8440  -29.3000   23.7310 C   0  0  0  0  0  3  0  0  0  0  0  0
  -16.8930  -28.3880   23.2420 C   0  0  0  0  0  3  0  0  0  0  0  0
  -17.3200  -27.2040   22.6090 C   0  0  0  0  0  3  0  0  0  0  0  0
  -25.8940  -32.3770   23.7800 C   0  0  0  0  0  3  0  0  0  0  0  0
  -25.4570  -33.7340   24.1330 N   0  0  0  0  0  0  0  0  0  0  0  0
  -25.7150  -34.8270   23.4030 C   0  0  0  0  0  0  0  0  0  0  0  0
  -26.4150  -34.8050   22.3870 O   0  0  0  0  0  0  0  0  0  0  0  0
  -24.8370  -33.8210   24.9260 H   0  0  0  0  0  0  0  0  0  0  0  0
  -23.8500  -36.4670   23.0300 C   0  0  0  0  0  1  0  0  0  0  0  0
  -25.0950  -36.1560   23.8740 C   0  0  0  0  0  3  0  0  0  0  0  0
  -27.1180  -37.1990   24.7940 C   0  0  0  0  0  1  0  0  0  0  0  0
  -26.0360  -37.2940   23.8170 N   0  0  0  0  0  0  0  0  0  0  0  0
  -25.5490  -38.1730   23.9700 H   0  0  0  0  0  0  0  0  0  0  0  0
  -26.4740  -31.6290   25.0430 C   0  0  1  0  0  0  0  0  0  0  0  0
  -25.4040  -31.2570   26.0940 C   0  0  0  0  0  1  0  0  0  0  0  0
  -27.1920  -30.3260   24.6180 C   0  0  0  0  0  1  0  0  0  0  0  0
  -27.5370  -32.5170   25.7350 C   0  0  0  0  0  1  0  0  0  0  0  0
  2  1  1  0
  3  2  1  0
  3  4  1  0
  5  3  1  0
  6  5  1  0
  7  6  1  0
  7  8  1  0
  9  7  1  0
 10 11  1  0
 10  7  1  0
 12 18  1  0
 12 20  1  0
 13 18  1  0
 14 15  1  0
 14 13  1  0
 16 15  1  0
 16 25  1  0
 16 17  1  0
 18 17  1  0
 19 12  2  0
 20 11  1  0
 20 21  1  0
 22 23  2  0
 23 42  1  0
 24 23  1  0
 24 27  1  0
 25 26  1  0
 25 22  1  0
 26 24  2  0
 27 28  1  0
 28 29  2  0
 30 33  1  0
 30 29  1  0
 31 30  2  0
 32 31  1  0
 32 27  2  0
 33 34  1  0
 34 39  2  0
 34 35  1  0
 35 36  2  0
 36 37  1  0
 37 41  1  0
 38 37  2  0
 39 38  1  0
 40 39  1  0
 42 43  1  0
 43 45  1  0
 43 46  1  0
 44 42  2  0
 47 22  1  0
 47 48  1  0
 49 47  1  0
 50  1  1  0
 51 53  1  0
 51 50  1  0
 51 52  1  0
 54 51  1  0
 55 54  1  0
 56 58  1  0
 56 55  1  0
 57 68  2  0
 58 63  1  0
 59 67  1  0
 59 69  1  0
 60 66  1  0
 60 62  1  0
 61 67  1  0
 62 61  1  0
 63 62  2  0
 64 65  1  0
 64 58  2  0
 65 60  2  0
 66 59  1  0
 67 57  1  0
 69 71  2  0
 70 69  1  0
 72 70  1  0
 73 82  2  0
 73 78  1  0
 74 70  1  0
 74 78  1  0
 75 74  1  0
 76 77  1  0
 76 75  1  0
 77 73  1  0
 78 79  2  0
 79 80  1  0
 81 80  2  0
 82 81  1  0
 83 57  1  0
 83 84  1  0
 83 93  1  0
 84 87  1  0
 85 89  1  0
 85 84  1  0
 86 85  2  0
 89 88  1  0
 91 89  1  0
 91 92  1  0
 91 90  1  0
 93 96  1  1
 93 94  1  0
 95 93  1  0
M  ISO  4  12 100  20 100  55 101  56 101
M  END
>  <TORSDO>  (58) 
F 27

>  <SCORE>  (58) 
-7.636

>  <name>  (58) 
62

>  <ligand_id>  (58) 
62

>  <original_smiles>  (58) 
[H]c1c([H])c([H])c2c(c1[H])C([H])([H])C([H])([H])C([H])([H])C2([H])N([H])C(=O)C1([H])N(C(=O)C([H])(N([H])C(=O)C([H])(N([H])C([H])([H])[H])C([H])([H])[H])C(C([H])([H])[H])(C([H])([H])[H])C([H])([H])[H])C([H])([H])c2c([H])c(OC([H])([H])C([H])([H])[N+]([H])([H])C([H])([H])C([H])([H])C([H])([H])N([H])C([H])([H])C([H])([H])[N+]([H])([H])C([H])([H])C([H])([H])N([H])C(=O)N3C([H])([H])C([H])([H])C([H])([H])C([H])(n4nc(-c5c([H])c([H])c(Oc6c([H])c([H])c(F)c([H])c6F)c([H])c5[H])c(C(=O)N([H])[H])c4N([H])[H])C3([H])[H])c([H])c([H])c2C1([H])[H]

>  <smiles>  (58) 
[H]c1c([H])c([H])c2c(c1[H])C([H])([H])C([H])([H])C([H])([H])C2([H])N([H])C(=O)C1([H])N(C(=O)C([H])(N([H])C(=O)C([H])(N([H])C([H])([H])[H])C([H])([H])[H])C(C([H])([H])[H])(C([H])([H])[H])C([H])([H])[H])C([H])([H])c2c([H])c(OC([H])([H])C([H])([H])[N+]([H])([H])C([H])([H])C([H])([H])C([H])([H])N([H])C([H])([H])C([H])([H])[N+]([H])([H])C([H])([H])C([H])([H])N([H])C(=O)N3C([H])([H])C([H])([H])C([H])([H])C([H])(n4nc(-c5c([H])c([H])c(Oc6c([H])c([H])c(F)c([H])c6F)c([H])c5[H])c(C(=O)N([H])[H])c4N([H])[H])C3([H])[H])c([H])c([H])c2C1([H])[H]

$$$$
63:0:0
     RDKit          3D

 90 97  0  0  1  0  0  0  0  0999 V2000
  -29.5390  -21.8770   20.7790 C   0  0  0  0  0  2  0  0  0  0  0  0
  -28.9860  -22.9380   19.9220 N   0  0  0  0  0  0  0  0  0  0  0  0
  -28.0060  -22.7400   19.7320 H   0  0  0  0  0  0  0  0  0  0  0  0
  -29.0760  -24.2850   20.5160 C   0  0  0  0  0  2  0  0  0  0  0  0
  -28.5320  -25.3730   19.5460 C   0  0  0  0  0  2  0  0  0  0  0  0
  -28.4140  -26.6850   20.1510 O   0  0  0  0  0  0  0  0  0  0  0  0
  -24.6120  -31.8920   23.2330 C   0  0  0  0  0  0  0  0  0  0  0  0
  -27.2220  -27.4040   20.1310 C   0  0  0  0  0  0  0  0  0  0  0  0
  -23.3930  -30.4930   21.6020 C   0  0  0  0  0  3  0  0  0  0  0  0
  -24.8320  -28.9530   20.1700 C   0  0  0  0  0  0  0  0  0  0  0  0
  -25.9250  -30.8310   21.3950 C   0  0  0  0  0  2  0  0  0  0  0  0
  -25.9990  -29.4590   20.7520 C   0  0  0  0  0  0  0  0  0  0  0  0
  -27.1920  -28.6920   20.7320 C   0  0  0  0  0  3  0  0  0  0  0  0
  -26.0220  -26.9270   19.5460 C   0  0  0  0  0  3  0  0  0  0  0  0
  -24.8400  -27.6860   19.5680 C   0  0  0  0  0  3  0  0  0  0  0  0
  -23.5930  -29.8170   20.2220 C   0  0  0  0  0  2  0  0  0  0  0  0
  -24.6620  -31.0870   22.1340 N   0  0  0  0  0  0  0  0  0  0  0  0
  -23.5340  -32.1690   23.7760 O   0  0  0  0  0  0  0  0  0  0  0  0
  -22.7460  -29.4710   22.5660 C   0  0  0  0  0  0  0  0  0  0  0  0
  -21.4210  -29.2910   22.4480 N   0  0  0  0  0  0  0  0  0  0  0  0
  -23.4340  -28.8450   23.3770 O   0  0  0  0  0  0  0  0  0  0  0  0
  -20.9260  -29.8490   21.7650 H   0  0  0  0  0  0  0  0  0  0  0  0
  -18.0480  -28.0970   22.9610 C   0  0  0  0  0  0  0  0  0  0  0  0
  -20.6070  -28.3560   23.2240 C   0  0  0  0  0  3  0  0  0  0  0  0
  -20.7080  -26.9220   22.6550 C   0  0  0  0  0  2  0  0  0  0  0  0
  -19.6030  -26.5950   21.6450 C   0  0  0  0  0  2  0  0  0  0  0  0
  -18.2230  -26.7440   22.2920 C   0  0  0  0  0  2  0  0  0  0  0  0
  -19.1670  -28.8610   23.3840 C   0  0  0  0  0  0  0  0  0  0  0  0
  -18.9500  -30.1280   23.9680 C   0  0  0  0  0  3  0  0  0  0  0  0
  -17.6460  -30.6300   24.1340 C   0  0  0  0  0  3  0  0  0  0  0  0
  -16.5400  -29.8630   23.7270 C   0  0  0  0  0  3  0  0  0  0  0  0
  -16.7420  -28.5980   23.1460 C   0  0  0  0  0  3  0  0  0  0  0  0
  -25.9020  -32.5240   23.8410 C   0  0  0  0  0  3  0  0  0  0  0  0
  -26.4360  -31.7460   25.1070 C   0  0  1  0  0  0  0  0  0  0  0  0
  -25.3560  -31.5000   26.1850 C   0  0  0  0  0  1  0  0  0  0  0  0
  -27.0170  -30.3710   24.7010 C   0  0  0  0  0  1  0  0  0  0  0  0
  -27.5930  -32.5380   25.7590 C   0  0  0  0  0  1  0  0  0  0  0  0
  -25.5920  -33.9190   24.1820 N   0  0  0  0  0  0  0  0  0  0  0  0
  -25.9100  -34.9750   23.4220 C   0  0  0  0  0  0  0  0  0  0  0  0
  -26.5650  -34.8790   22.3810 O   0  0  0  0  0  0  0  0  0  0  0  0
  -25.0060  -34.0660   24.9900 H   0  0  0  0  0  0  0  0  0  0  0  0
  -24.1650  -36.7580   23.1040 C   0  0  0  0  0  1  0  0  0  0  0  0
  -25.4220  -36.3590   23.8920 C   0  0  0  0  0  3  0  0  0  0  0  0
  -27.5690  -37.2520   24.6830 C   0  0  0  0  0  1  0  0  0  0  0  0
  -26.4460  -37.4190   23.7640 N   0  0  0  0  0  0  0  0  0  0  0  0
  -26.0390  -38.3360   23.9250 H   0  0  0  0  0  0  0  0  0  0  0  0
  -29.2780  -20.4450   20.2060 C   0  0  0  0  0  2  0  0  0  0  0  0
  -29.9590  -19.3610   20.9710 N   0  0  0  0  0  4  0  0  0  0  0  0
  -30.9530  -19.4810   20.8660 H   0  0  0  0  0  0  0  0  0  0  0  0
  -29.7380  -19.4840   21.9470 H   0  0  0  0  0  0  0  0  0  0  0  0
  -29.5950  -17.9640   20.5850 C   0  0  0  0  0  2  0  0  0  0  0  0
  -30.3920  -16.8790   21.3710 C   0  0  0  0  0  2  0  0  0  0  0  0
  -30.6370  -14.4980   20.5150 C   0  0  0  0  0  0  0  0  0  0  0  0
  -30.3390  -12.3450   19.3390 C   0  0  0  0  0  2  0  0  0  0  0  0
  -29.3830  -12.5410   18.1440 C   0  0  0  0  0  2  0  0  0  0  0  0
  -27.9140  -12.3960   18.5870 C   0  0  0  0  0  2  0  0  0  0  0  0
  -27.5840  -13.2320   19.8520 C   0  0  0  0  0  3  0  0  0  0  0  0
  -28.6470  -13.0070   20.9500 C   0  0  0  0  0  2  0  0  0  0  0  0
  -29.9660  -13.3220   20.3740 N   0  0  0  0  0  0  0  0  0  0  0  0
  -31.7520  -14.6960   20.0290 O   0  0  0  0  0  0  0  0  0  0  0  0
  -29.9470  -15.4910   21.1130 N   0  0  0  0  0  0  0  0  0  0  0  0
  -29.0300  -15.2400   21.4510 H   0  0  0  0  0  0  0  0  0  0  0  0
  -25.1920  -13.8430   20.5770 C   0  0  0  0  0  0  0  0  0  0  0  0
  -24.1240  -13.0710   20.9510 C   0  0  0  0  0  0  0  0  0  0  0  0
  -24.5820  -11.7190   20.9130 C   0  0  0  0  0  0  0  0  0  0  0  0
  -26.2340  -12.9600   20.3380 N   0  0  0  0  0  0  0  0  0  0  0  0
  -25.8700  -11.6770   20.5970 N   0  0  0  0  0  0  0  0  0  0  0  0
  -23.8550  -10.4580   21.1020 C   0  0  0  0  0  0  0  0  0  0  0  0
  -24.3090   -9.4710   22.0050 C   0  0  0  0  0  3  0  0  0  0  0  0
  -23.5820   -8.2740   22.1830 C   0  0  0  0  0  3  0  0  0  0  0  0
  -22.3870   -8.0560   21.4570 C   0  0  0  0  0  0  0  0  0  0  0  0
  -21.9510   -9.0310   20.5430 C   0  0  0  0  0  3  0  0  0  0  0  0
  -22.6780  -10.2190   20.3630 C   0  0  0  0  0  3  0  0  0  0  0  0
  -21.6280   -6.9130   21.5460 O   0  0  0  0  0  0  0  0  0  0  0  0
  -21.6290   -6.1360   22.6770 C   0  0  0  0  0  0  0  0  0  0  0  0
  -21.2830   -6.6610   23.9410 C   0  0  0  0  0  3  0  0  0  0  0  0
  -21.2290   -5.8110   25.0640 C   0  0  0  0  0  3  0  0  0  0  0  0
  -21.5080   -4.4400   24.9250 C   0  0  0  0  0  0  0  0  0  0  0  0
  -21.8470   -3.9130   23.6660 C   0  0  0  0  0  3  0  0  0  0  0  0
  -21.9040   -4.7600   22.5440 C   0  0  0  0  0  0  0  0  0  0  0  0
  -22.2100   -4.2450   21.3290 F   0  0  0  0  0  0  0  0  0  0  0  0
  -21.4480   -3.6210   26.0020 F   0  0  0  0  0  0  0  0  0  0  0  0
  -22.7290  -13.5510   21.2350 C   0  0  0  0  0  0  0  0  0  0  0  0
  -22.0070  -12.8530   22.1040 N   0  0  0  0  0  0  0  0  0  0  0  0
  -22.2890  -14.5790   20.7200 O   0  0  0  0  0  0  0  0  0  0  0  0
  -22.3760  -12.0210   22.5410 H   0  0  0  0  0  0  0  0  0  0  0  0
  -21.0720  -13.1560   22.3370 H   0  0  0  0  0  0  0  0  0  0  0  0
  -25.3580  -15.2130   20.4010 N   0  0  0  0  0  0  0  0  0  0  0  0
  -24.5890  -15.8670   20.5040 H   0  0  0  0  0  0  0  0  0  0  0  0
  -26.1980  -15.6450   20.0380 H   0  0  0  0  0  0  0  0  0  0  0  0
  2  4  1  0
  2  1  1  0
  3  2  1  0
  5  6  1  0
  5  4  1  0
  7 18  2  0
  8  6  1  0
  8 13  1  0
  9 17  1  0
  9 19  1  0
 10 16  1  0
 10 12  1  0
 11 17  1  0
 12 11  1  0
 13 12  2  0
 14 15  1  0
 14  8  2  0
 15 10  2  0
 16  9  1  0
 17  7  1  0
 19 21  2  0
 20 19  1  0
 22 20  1  0
 23 32  2  0
 23 28  1  0
 24 20  1  0
 24 28  1  0
 25 24  1  0
 26 27  1  0
 26 25  1  0
 27 23  1  0
 28 29  2  0
 29 30  1  0
 31 30  2  0
 32 31  1  0
 33  7  1  0
 33 38  1  0
 33 34  1  0
 34 37  1  1
 34 35  1  0
 36 34  1  0
 38 41  1  0
 39 43  1  0
 39 38  1  0
 40 39  2  0
 43 42  1  0
 45 43  1  0
 45 46  1  0
 45 44  1  0
 47  1  1  0
 47 48  1  0
 48 50  1  0
 49 48  1  0
 51 48  1  0
 51 52  1  0
 53 61  1  0
 54 59  1  0
 55 56  1  0
 55 54  1  0
 57 56  1  0
 57 66  1  0
 57 58  1  0
 59 53  1  0
 59 58  1  0
 60 53  2  0
 61 52  1  0
 61 62  1  0
 63 64  2  0
 64 83  1  0
 65 64  1  0
 65 68  1  0
 66 63  1  0
 66 67  1  0
 67 65  2  0
 68 69  1  0
 69 70  2  0
 71 74  1  0
 71 70  1  0
 72 71  2  0
 73 72  1  0
 73 68  2  0
 74 75  1  0
 75 76  1  0
 76 77  2  0
 78 77  1  0
 78 82  1  0
 79 78  2  0
 80 75  2  0
 80 79  1  0
 81 80  1  0
 83 84  1  0
 84 87  1  0
 84 86  1  0
 85 83  2  0
 88 89  1  0
 88 63  1  0
 90 88  1  0
M  ISO  4   5 101   6 101  53 100  61 100
M  END
>  <TORSDO>  (59) 
F 23

>  <SCORE>  (59) 
-12.740

>  <name>  (59) 
63

>  <ligand_id>  (59) 
63

>  <original_smiles>  (59) 
[H]c1c([H])c([H])c2c(c1[H])C([H])([H])C([H])([H])C([H])([H])C2([H])N([H])C(=O)C1([H])N(C(=O)C([H])(N([H])C(=O)C([H])(N([H])C([H])([H])[H])C([H])([H])[H])C(C([H])([H])[H])(C([H])([H])[H])C([H])([H])[H])C([H])([H])c2c([H])c(OC([H])([H])C([H])([H])N([H])C([H])([H])C([H])([H])[N+]([H])([H])C([H])([H])C([H])([H])N([H])C(=O)N3C([H])([H])C([H])([H])C([H])([H])C([H])(n4nc(-c5c([H])c([H])c(Oc6c([H])c([H])c(F)c([H])c6F)c([H])c5[H])c(C(=O)N([H])[H])c4N([H])[H])C3([H])[H])c([H])c([H])c2C1([H])[H]

>  <smiles>  (59) 
[H]c1c([H])c([H])c2c(c1[H])C([H])([H])C([H])([H])C([H])([H])C2([H])N([H])C(=O)C1([H])N(C(=O)C([H])(N([H])C(=O)C([H])(N([H])C([H])([H])[H])C([H])([H])[H])C(C([H])([H])[H])(C([H])([H])[H])C([H])([H])[H])C([H])([H])c2c([H])c(OC([H])([H])C([H])([H])N([H])C([H])([H])C([H])([H])[N+]([H])([H])C([H])([H])C([H])([H])N([H])C(=O)N3C([H])([H])C([H])([H])C([H])([H])C([H])(n4nc(-c5c([H])c([H])c(Oc6c([H])c([H])c(F)c([H])c6F)c([H])c5[H])c(C(=O)N([H])[H])c4N([H])[H])C3([H])[H])c([H])c([H])c2C1([H])[H]

$$$$
64:0:0
     RDKit          3D

 99106  0  0  1  0  0  0  0  0999 V2000
  -27.7190  -23.2360   26.5740 C   0  0  0  0  0  2  0  0  0  0  0  0
  -27.0130  -22.2370   27.5160 C   0  0  0  0  0  2  0  0  0  0  0  0
  -27.8050  -21.0100   27.7590 N   0  0  0  0  0  4  0  0  0  0  0  0
  -27.3590  -20.5020   28.5070 H   0  0  0  0  0  0  0  0  0  0  0  0
  -28.7240  -21.2640   28.0810 H   0  0  0  0  0  0  0  0  0  0  0  0
  -27.9030  -20.0800   26.6090 C   0  0  0  0  0  2  0  0  0  0  0  0
  -29.3420  -19.9380   26.0830 C   0  0  0  0  0  2  0  0  0  0  0  0
  -29.4460  -18.8420   25.0070 C   0  0  0  0  0  2  0  0  0  0  0  0
  -30.3090  -19.2370   23.8060 C   0  0  0  0  0  2  0  0  0  0  0  0
  -30.4860  -18.0790   23.0060 O   0  0  0  0  0  0  0  0  0  0  0  0
  -31.1370  -18.3560   21.7760 C   0  0  0  0  0  2  0  0  0  0  0  0
  -31.8290  -17.0810   21.2880 C   0  0  0  0  0  2  0  0  0  0  0  0
  -30.9510  -15.2620   19.8380 C   0  0  0  0  0  0  0  0  0  0  0  0
  -30.8870  -12.8510   19.3880 C   0  0  0  0  0  2  0  0  0  0  0  0
  -29.9960  -12.4170   18.2170 C   0  0  0  0  0  2  0  0  0  0  0  0
  -28.5520  -12.1980   18.6990 C   0  0  0  0  0  2  0  0  0  0  0  0
  -28.0110  -13.4090   19.5010 C   0  0  0  0  0  3  0  0  0  0  0  0
  -29.0070  -13.8580   20.5970 C   0  0  0  0  0  2  0  0  0  0  0  0
  -30.3360  -14.0670   19.9950 N   0  0  0  0  0  0  0  0  0  0  0  0
  -31.7610  -15.5100   18.9430 O   0  0  0  0  0  0  0  0  0  0  0  0
  -30.8710  -16.0340   20.9250 N   0  0  0  0  0  0  0  0  0  0  0  0
  -30.2270  -15.7420   21.6440 H   0  0  0  0  0  0  0  0  0  0  0  0
  -25.6530  -13.9910   20.3640 C   0  0  0  0  0  0  0  0  0  0  0  0
  -24.6070  -13.2070   20.7650 C   0  0  0  0  0  0  0  0  0  0  0  0
  -25.0630  -11.8570   20.6650 C   0  0  0  0  0  0  0  0  0  0  0  0
  -26.6850  -13.1210   20.0490 N   0  0  0  0  0  0  0  0  0  0  0  0
  -26.3340  -11.8300   20.2810 N   0  0  0  0  0  0  0  0  0  0  0  0
  -24.3470  -10.5880   20.8520 C   0  0  0  0  0  0  0  0  0  0  0  0
  -24.6990   -9.6840   21.8780 C   0  0  0  0  0  3  0  0  0  0  0  0
  -23.9830   -8.4810   22.0500 C   0  0  0  0  0  3  0  0  0  0  0  0
  -22.8990   -8.1710   21.1960 C   0  0  0  0  0  0  0  0  0  0  0  0
  -22.5650   -9.0630   20.1610 C   0  0  0  0  0  3  0  0  0  0  0  0
  -23.2840  -10.2590   19.9880 C   0  0  0  0  0  3  0  0  0  0  0  0
  -22.1620   -7.0130   21.2740 O   0  0  0  0  0  0  0  0  0  0  0  0
  -21.8630   -6.4300   22.4790 C   0  0  0  0  0  0  0  0  0  0  0  0
  -21.1630   -7.1250   23.4890 C   0  0  0  0  0  3  0  0  0  0  0  0
  -20.8140   -6.4650   24.6840 C   0  0  0  0  0  3  0  0  0  0  0  0
  -21.1570   -5.1110   24.8690 C   0  0  0  0  0  0  0  0  0  0  0  0
  -21.8490   -4.4170   23.8610 C   0  0  0  0  0  3  0  0  0  0  0  0
  -22.1980   -5.0740   22.6670 C   0  0  0  0  0  0  0  0  0  0  0  0
  -22.8460   -4.3940   21.6910 F   0  0  0  0  0  0  0  0  0  0  0  0
  -20.8160   -4.4740   26.0140 F   0  0  0  0  0  0  0  0  0  0  0  0
  -23.2280  -13.6730   21.1360 C   0  0  0  0  0  0  0  0  0  0  0  0
  -22.5690  -12.9730   22.0520 N   0  0  0  0  0  0  0  0  0  0  0  0
  -22.7470  -14.6950   20.6470 O   0  0  0  0  0  0  0  0  0  0  0  0
  -22.9730  -12.1480   22.4710 H   0  0  0  0  0  0  0  0  0  0  0  0
  -21.6450  -13.2670   22.3390 H   0  0  0  0  0  0  0  0  0  0  0  0
  -25.8110  -15.3670   20.2200 N   0  0  0  0  0  0  0  0  0  0  0  0
  -25.0580  -16.0230   20.3900 H   0  0  0  0  0  0  0  0  0  0  0  0
  -26.6530  -15.8100   19.8730 H   0  0  0  0  0  0  0  0  0  0  0  0
  -26.7810  -24.3460   26.0560 C   0  0  0  0  0  2  0  0  0  0  0  0
  -27.4870  -25.3610   25.1390 C   0  0  0  0  0  2  0  0  0  0  0  0
  -28.3660  -24.6950   24.1520 N   0  0  0  0  0  4  0  0  0  0  0  0
  -27.8130  -24.2740   23.4230 H   0  0  0  0  0  0  0  0  0  0  0  0
  -28.8320  -23.9490   24.6450 H   0  0  0  0  0  0  0  0  0  0  0  0
  -29.4290  -25.5570   23.5880 C   0  0  0  0  0  2  0  0  0  0  0  0
  -28.9300  -26.5460   22.5150 C   0  0  0  0  0  2  0  0  0  0  0  0
  -28.8850  -25.9580   21.0930 C   0  0  0  0  0  2  0  0  0  0  0  0
  -28.6940  -26.9850   20.1230 O   0  0  0  0  0  0  0  0  0  0  0  0
  -24.7080  -31.9440   23.2660 C   0  0  0  0  0  0  0  0  0  0  0  0
  -27.4870  -27.6300   20.1690 C   0  0  0  0  0  0  0  0  0  0  0  0
  -23.5360  -30.4940   21.6370 C   0  0  0  0  0  3  0  0  0  0  0  0
  -25.0310  -29.0060   20.2040 C   0  0  0  0  0  0  0  0  0  0  0  0
  -26.0370  -30.9610   21.4020 C   0  0  0  0  0  2  0  0  0  0  0  0
  -26.1700  -29.5920   20.7710 C   0  0  0  0  0  0  0  0  0  0  0  0
  -27.4030  -28.9110   20.7470 C   0  0  0  0  0  3  0  0  0  0  0  0
  -26.3370  -27.0420   19.6080 C   0  0  0  0  0  3  0  0  0  0  0  0
  -25.1060  -27.7260   19.6250 C   0  0  0  0  0  3  0  0  0  0  0  0
  -23.7580  -29.8140   20.2560 C   0  0  0  0  0  2  0  0  0  0  0  0
  -24.7780  -31.1480   22.1600 N   0  0  0  0  0  0  0  0  0  0  0  0
  -23.6260  -32.1780   23.8200 O   0  0  0  0  0  0  0  0  0  0  0  0
  -22.9370  -29.4510   22.6090 C   0  0  0  0  0  0  0  0  0  0  0  0
  -21.6450  -29.1420   22.4230 N   0  0  0  0  0  0  0  0  0  0  0  0
  -23.6340  -28.9210   23.4780 O   0  0  0  0  0  0  0  0  0  0  0  0
  -21.1440  -29.6270   21.6900 H   0  0  0  0  0  0  0  0  0  0  0  0
  -18.3970  -27.5860   22.7310 C   0  0  0  0  0  0  0  0  0  0  0  0
  -20.8770  -28.1610   23.1880 C   0  0  0  0  0  3  0  0  0  0  0  0
  -21.1880  -26.7210   22.7200 C   0  0  0  0  0  2  0  0  0  0  0  0
  -20.2210  -26.2120   21.6450 C   0  0  0  0  0  2  0  0  0  0  0  0
  -18.7820  -26.2290   22.1690 C   0  0  0  0  0  2  0  0  0  0  0  0
  -19.3820  -28.4990   23.1970 C   0  0  0  0  0  0  0  0  0  0  0  0
  -18.9720  -29.7600   23.6800 C   0  0  0  0  0  3  0  0  0  0  0  0
  -17.6100  -30.1140   23.7050 C   0  0  0  0  0  3  0  0  0  0  0  0
  -16.6380  -29.2020   23.2570 C   0  0  0  0  0  3  0  0  0  0  0  0
  -17.0320  -27.9420   22.7740 C   0  0  0  0  0  3  0  0  0  0  0  0
  -25.9790  -32.6200   23.8690 C   0  0  0  0  0  3  0  0  0  0  0  0
  -25.6420  -34.0220   24.1500 N   0  0  0  0  0  0  0  0  0  0  0  0
  -25.9900  -35.0570   23.3750 C   0  0  0  0  0  0  0  0  0  0  0  0
  -26.6990  -34.9350   22.3730 O   0  0  0  0  0  0  0  0  0  0  0  0
  -25.0130  -34.1870   24.9210 H   0  0  0  0  0  0  0  0  0  0  0  0
  -24.2670  -36.8210   22.8950 C   0  0  0  0  0  1  0  0  0  0  0  0
  -25.4700  -36.4490   23.7760 C   0  0  0  0  0  3  0  0  0  0  0  0
  -27.5580  -37.3720   24.6830 C   0  0  0  0  0  1  0  0  0  0  0  0
  -26.4990  -37.5090   23.6880 N   0  0  0  0  0  0  0  0  0  0  0  0
  -26.0790  -38.4280   23.7960 H   0  0  0  0  0  0  0  0  0  0  0  0
  -26.5100  -31.8990   25.1670 C   0  0  1  0  0  0  0  0  0  0  0  0
  -25.4140  -31.6470   26.2290 C   0  0  0  0  0  1  0  0  0  0  0  0
  -27.1460  -30.5330   24.8100 C   0  0  0  0  0  1  0  0  0  0  0  0
  -27.6230  -32.7490   25.8230 C   0  0  0  0  0  1  0  0  0  0  0  0
  1  2  1  0
  2  3  1  0
  3  5  1  0
  3  4  1  0
  6  3  1  0
  7  6  1  0
  8  7  1  0
  9  8  1  0
 10  9  1  0
 11 10  1  0
 12 11  1  0
 13 19  1  0
 13 21  1  0
 14 19  1  0
 15 16  1  0
 15 14  1  0
 17 16  1  0
 17 26  1  0
 17 18  1  0
 19 18  1  0
 20 13  2  0
 21 12  1  0
 21 22  1  0
 23 24  2  0
 24 43  1  0
 25 24  1  0
 25 28  1  0
 26 27  1  0
 26 23  1  0
 27 25  2  0
 28 29  1  0
 29 30  2  0
 31 34  1  0
 31 30  1  0
 32 31  2  0
 33 32  1  0
 33 28  2  0
 34 35  1  0
 35 40  2  0
 35 36  1  0
 36 37  2  0
 37 38  1  0
 38 42  1  0
 39 38  2  0
 40 39  1  0
 41 40  1  0
 43 44  1  0
 44 47  1  0
 44 46  1  0
 45 43  2  0
 48 23  1  0
 48 49  1  0
 50 48  1  0
 51  1  1  0
 52 51  1  0
 53 55  1  0
 53 52  1  0
 54 53  1  0
 56 53  1  0
 57 56  1  0
 58 57  1  0
 59 61  1  0
 59 58  1  0
 60 71  2  0
 61 66  1  0
 62 70  1  0
 62 72  1  0
 63 69  1  0
 63 65  1  0
 64 70  1  0
 65 64  1  0
 66 65  2  0
 67 68  1  0
 67 61  2  0
 68 63  2  0
 69 62  1  0
 70 60  1  0
 72 74  2  0
 73 72  1  0
 75 73  1  0
 76 85  2  0
 76 81  1  0
 77 73  1  0
 77 81  1  0
 78 77  1  0
 79 80  1  0
 79 78  1  0
 80 76  1  0
 81 82  2  0
 82 83  1  0
 84 83  2  0
 85 84  1  0
 86 60  1  0
 86 87  1  0
 86 96  1  0
 87 90  1  0
 88 92  1  0
 88 87  1  0
 89 88  2  0
 92 91  1  0
 94 92  1  0
 94 95  1  0
 94 93  1  0
 96 99  1  1
 96 97  1  0
 98 96  1  0
M  ISO  4  13 100  21 100  58 101  59 101
M  END
>  <TORSDO>  (60) 
F 31

>  <SCORE>  (60) 
13.042

>  <name>  (60) 
64

>  <ligand_id>  (60) 
64

>  <original_smiles>  (60) 
[H]c1c([H])c([H])c2c(c1[H])C([H])([H])C([H])([H])C([H])([H])C2([H])N([H])C(=O)C1([H])N(C(=O)C([H])(N([H])C(=O)C([H])(N([H])C([H])([H])[H])C([H])([H])[H])C(C([H])([H])[H])(C([H])([H])[H])C([H])([H])[H])C([H])([H])c2c([H])c(OC([H])([H])C([H])([H])C([H])([H])[N+]([H])([H])C([H])([H])C([H])([H])C([H])([H])C([H])([H])[N+]([H])([H])C([H])([H])C([H])([H])C([H])([H])C([H])([H])OC([H])([H])C([H])([H])N([H])C(=O)N3C([H])([H])C([H])([H])C([H])([H])C([H])(n4nc(-c5c([H])c([H])c(Oc6c([H])c([H])c(F)c([H])c6F)c([H])c5[H])c(C(=O)N([H])[H])c4N([H])[H])C3([H])[H])c([H])c([H])c2C1([H])[H]

>  <smiles>  (60) 
[H]c1c([H])c([H])c2c(c1[H])C([H])([H])C([H])([H])C([H])([H])C2([H])N([H])C(=O)C1([H])N(C(=O)C([H])(N([H])C(=O)C([H])(N([H])C([H])([H])[H])C([H])([H])[H])C(C([H])([H])[H])(C([H])([H])[H])C([H])([H])[H])C([H])([H])c2c([H])c(OC([H])([H])C([H])([H])C([H])([H])[N+]([H])([H])C([H])([H])C([H])([H])C([H])([H])C([H])([H])[N+]([H])([H])C([H])([H])C([H])([H])C([H])([H])C([H])([H])OC([H])([H])C([H])([H])N([H])C(=O)N3C([H])([H])C([H])([H])C([H])([H])C([H])(n4nc(-c5c([H])c([H])c(Oc6c([H])c([H])c(F)c([H])c6F)c([H])c5[H])c(C(=O)N([H])[H])c4N([H])[H])C3([H])[H])c([H])c([H])c2C1([H])[H]

$$$$
65:0:0
     RDKit          3D

100107  0  0  1  0  0  0  0  0999 V2000
  -27.4800  -22.8750   18.8200 C   0  0  0  0  0  2  0  0  0  0  0  0
  -28.4860  -23.9740   19.1660 C   0  0  0  0  0  2  0  0  0  0  0  0
  -29.8630  -23.6950   18.5190 C   0  0  0  0  0  2  0  0  0  0  0  0
  -31.0370  -24.5460   19.0430 C   0  0  0  0  0  2  0  0  0  0  0  0
  -30.6890  -25.9790   19.1160 N   0  0  0  0  0  4  0  0  0  0  0  0
  -29.7490  -26.0750   18.7630 H   0  0  0  0  0  0  0  0  0  0  0  0
  -31.2950  -26.5110   18.5090 H   0  0  0  0  0  0  0  0  0  0  0  0
  -30.7120  -26.5520   20.4810 C   0  0  0  0  0  2  0  0  0  0  0  0
  -29.6010  -27.5870   20.6510 C   0  0  0  0  0  2  0  0  0  0  0  0
  -28.3650  -26.9160   20.4090 O   0  0  0  0  0  0  0  0  0  0  0  0
  -24.5050  -32.0650   23.4630 C   0  0  0  0  0  0  0  0  0  0  0  0
  -27.2080  -27.6600   20.4500 C   0  0  0  0  0  0  0  0  0  0  0  0
  -23.3090  -30.6520   21.8150 C   0  0  0  0  0  3  0  0  0  0  0  0
  -24.7800  -29.1020   20.4260 C   0  0  0  0  0  0  0  0  0  0  0  0
  -25.8250  -31.0300   21.6320 C   0  0  0  0  0  2  0  0  0  0  0  0
  -25.9210  -29.6540   21.0170 C   0  0  0  0  0  0  0  0  0  0  0  0
  -27.1330  -28.9430   21.0350 C   0  0  0  0  0  3  0  0  0  0  0  0
  -26.0480  -27.1040   19.8720 C   0  0  0  0  0  3  0  0  0  0  0  0
  -24.8330  -27.8180   19.8530 C   0  0  0  0  0  3  0  0  0  0  0  0
  -23.5300  -29.9530   20.4460 C   0  0  0  0  0  2  0  0  0  0  0  0
  -24.5630  -31.2620   22.3640 N   0  0  0  0  0  0  0  0  0  0  0  0
  -23.4210  -32.3440   23.9930 O   0  0  0  0  0  0  0  0  0  0  0  0
  -22.6490  -29.6420   22.7790 C   0  0  0  0  0  0  0  0  0  0  0  0
  -21.3290  -29.4520   22.6250 N   0  0  0  0  0  0  0  0  0  0  0  0
  -23.3190  -29.0300   23.6130 O   0  0  0  0  0  0  0  0  0  0  0  0
  -20.8520  -29.9960   21.9210 H   0  0  0  0  0  0  0  0  0  0  0  0
  -17.9540  -28.2410   23.0410 C   0  0  0  0  0  0  0  0  0  0  0  0
  -20.4990  -28.5220   23.3880 C   0  0  0  0  0  3  0  0  0  0  0  0
  -20.6310  -27.0820   22.8410 C   0  0  0  0  0  2  0  0  0  0  0  0
  -19.5620  -26.7320   21.8010 C   0  0  0  0  0  2  0  0  0  0  0  0
  -18.1610  -26.8800   22.3990 C   0  0  0  0  0  2  0  0  0  0  0  0
  -19.0530  -29.0200   23.4900 C   0  0  0  0  0  0  0  0  0  0  0  0
  -18.8090  -30.2950   24.0460 C   0  0  0  0  0  3  0  0  0  0  0  0
  -17.4960  -30.7910   24.1610 C   0  0  0  0  0  3  0  0  0  0  0  0
  -16.4100  -30.0100   23.7290 C   0  0  0  0  0  3  0  0  0  0  0  0
  -16.6390  -28.7370   23.1750 C   0  0  0  0  0  3  0  0  0  0  0  0
  -25.7910  -32.6910   24.0920 C   0  0  0  0  0  3  0  0  0  0  0  0
  -25.4910  -34.0950   24.4030 N   0  0  0  0  0  0  0  0  0  0  0  0
  -25.8560  -35.1350   23.6420 C   0  0  0  0  0  0  0  0  0  0  0  0
  -26.5500  -35.0150   22.6290 O   0  0  0  0  0  0  0  0  0  0  0  0
  -24.8770  -34.2640   25.1870 H   0  0  0  0  0  0  0  0  0  0  0  0
  -24.1560  -36.9400   23.2210 C   0  0  0  0  0  1  0  0  0  0  0  0
  -25.3700  -36.5320   24.0720 C   0  0  0  0  0  3  0  0  0  0  0  0
  -27.4930  -37.3960   24.9500 C   0  0  0  0  0  1  0  0  0  0  0  0
  -26.4160  -37.5720   23.9790 N   0  0  0  0  0  0  0  0  0  0  0  0
  -26.0170  -38.4970   24.1120 H   0  0  0  0  0  0  0  0  0  0  0  0
  -26.2920  -31.9260   25.3790 C   0  0  1  0  0  0  0  0  0  0  0  0
  -25.1850  -31.6900   26.4320 C   0  0  0  0  0  1  0  0  0  0  0  0
  -26.8820  -30.5480   24.9950 C   0  0  0  0  0  1  0  0  0  0  0  0
  -27.4320  -32.7250   26.0540 C   0  0  0  0  0  1  0  0  0  0  0  0
  -25.9950  -23.1220   19.1950 C   0  0  0  0  0  2  0  0  0  0  0  0
  -25.1470  -21.3140   17.8040 C   0  0  0  0  0  0  0  0  0  0  0  0
  -25.2230  -21.8900   19.0080 N   0  0  0  0  0  0  0  0  0  0  0  0
  -24.6210  -21.8510   16.8260 O   0  0  0  0  0  0  0  0  0  0  0  0
  -25.3700  -21.2290   19.7600 H   0  0  0  0  0  0  0  0  0  0  0  0
  -27.1200  -20.2320   16.9900 C   0  0  0  0  0  3  0  0  0  0  0  0
  -26.0440  -20.1820   17.8000 C   0  0  0  0  0  3  0  0  0  0  0  0
  -28.2610  -19.3560   17.1140 C   0  0  0  0  0  3  0  0  0  0  0  0
  -28.2170  -18.0900   17.5430 C   0  0  0  0  0  3  0  0  0  0  0  0
  -29.4570  -17.2610   17.7890 C   0  0  0  0  0  2  0  0  0  0  0  0
  -29.2960  -16.3440   19.0060 C   0  0  0  0  0  2  0  0  0  0  0  0
  -30.0120  -16.7390   20.3190 C   0  0  0  0  0  2  0  0  0  0  0  0
  -30.7880  -14.5710   21.1900 C   0  0  0  0  0  0  0  0  0  0  0  0
  -30.6370  -12.3680   20.1250 C   0  0  0  0  0  2  0  0  0  0  0  0
  -29.8270  -12.4940   18.8150 C   0  0  0  0  0  2  0  0  0  0  0  0
  -28.3040  -12.4330   19.0730 C   0  0  0  0  0  2  0  0  0  0  0  0
  -27.8420  -13.3010   20.2740 C   0  0  0  0  0  3  0  0  0  0  0  0
  -28.7670  -13.1020   21.4960 C   0  0  0  0  0  2  0  0  0  0  0  0
  -30.1510  -13.3790   21.0770 N   0  0  0  0  0  0  0  0  0  0  0  0
  -31.9790  -14.7430   20.9210 O   0  0  0  0  0  0  0  0  0  0  0  0
  -29.9400  -15.6080   21.2570 N   0  0  0  0  0  0  0  0  0  0  0  0
  -29.0210  -15.3760   21.6030 H   0  0  0  0  0  0  0  0  0  0  0  0
  -25.3840  -13.9700   20.6750 C   0  0  0  0  0  0  0  0  0  0  0  0
  -24.2750  -13.2150   20.9500 C   0  0  0  0  0  0  0  0  0  0  0  0
  -24.7310  -11.8640   21.0220 C   0  0  0  0  0  0  0  0  0  0  0  0
  -26.4420  -13.0720   20.6040 N   0  0  0  0  0  0  0  0  0  0  0  0
  -26.0440  -11.8070   20.8740 N   0  0  0  0  0  0  0  0  0  0  0  0
  -23.9890  -10.6090   21.1720 C   0  0  0  0  0  0  0  0  0  0  0  0
  -24.3450   -9.6590   22.1550 C   0  0  0  0  0  3  0  0  0  0  0  0
  -23.6070   -8.4640   22.2930 C   0  0  0  0  0  3  0  0  0  0  0  0
  -22.5030   -8.2110   21.4440 C   0  0  0  0  0  0  0  0  0  0  0  0
  -22.1710   -9.1490   20.4530 C   0  0  0  0  0  3  0  0  0  0  0  0
  -22.9070  -10.3350   20.3130 C   0  0  0  0  0  3  0  0  0  0  0  0
  -21.7470   -7.0650   21.4870 O   0  0  0  0  0  0  0  0  0  0  0  0
  -21.6230   -6.3260   22.6360 C   0  0  0  0  0  0  0  0  0  0  0  0
  -21.1310   -6.8890   23.8330 C   0  0  0  0  0  3  0  0  0  0  0  0
  -20.9540   -6.0770   24.9700 C   0  0  0  0  0  3  0  0  0  0  0  0
  -21.2620   -4.7050   24.9110 C   0  0  0  0  0  0  0  0  0  0  0  0
  -21.7490   -4.1420   23.7180 C   0  0  0  0  0  3  0  0  0  0  0  0
  -21.9250   -4.9500   22.5820 C   0  0  0  0  0  0  0  0  0  0  0  0
  -22.3750   -4.4010   21.4280 F   0  0  0  0  0  0  0  0  0  0  0  0
  -21.0860   -3.9230   26.0020 F   0  0  0  0  0  0  0  0  0  0  0  0
  -22.8570  -13.6980   21.0420 C   0  0  0  0  0  0  0  0  0  0  0  0
  -22.0320  -13.0370   21.8490 N   0  0  0  0  0  0  0  0  0  0  0  0
  -22.4810  -14.6940   20.4300 O   0  0  0  0  0  0  0  0  0  0  0  0
  -22.3380  -12.2210   22.3600 H   0  0  0  0  0  0  0  0  0  0  0  0
  -21.0770  -13.3510   21.9490 H   0  0  0  0  0  0  0  0  0  0  0  0
  -25.5750  -15.3330   20.4660 N   0  0  0  0  0  0  0  0  0  0  0  0
  -24.8050  -15.9940   20.4540 H   0  0  0  0  0  0  0  0  0  0  0  0
  -26.4550  -15.7630   20.2160 H   0  0  0  0  0  0  0  0  0  0  0  0
  1  2  1  0
  1 51  1  0
  3  4  1  0
  3  2  1  0
  4  5  1  0
  5  8  1  0
  6  5  1  0
  7  5  1  0
  8  9  1  0
 10 12  1  0
 10  9  1  0
 11 22  2  0
 12 17  1  0
 13 21  1  0
 13 23  1  0
 14 20  1  0
 14 16  1  0
 15 21  1  0
 16 17  2  0
 16 15  1  0
 18 12  2  0
 19 18  1  0
 19 14  2  0
 20 13  1  0
 21 11  1  0
 23 25  2  0
 24 23  1  0
 26 24  1  0
 27 36  2  0
 27 32  1  0
 28 24  1  0
 28 32  1  0
 29 28  1  0
 30 31  1  0
 30 29  1  0
 31 27  1  0
 32 33  2  0
 33 34  1  0
 35 34  2  0
 36 35  1  0
 37 11  1  0
 37 38  1  0
 37 47  1  0
 38 41  1  0
 39 43  1  0
 39 38  1  0
 40 39  2  0
 43 42  1  0
 45 43  1  0
 45 46  1  0
 45 44  1  0
 47 50  1  1
 47 48  1  0
 49 47  1  0
 52 53  1  0
 53 51  1  0
 53 55  1  0
 54 52  2  0
 56 58  1  0
 56 57  2  0
 57 52  1  0
 58 59  2  0
 59 60  1  0
 60 61  1  0
 61 62  1  0
 62 71  1  0
 63 71  1  0
 64 69  1  0
 65 66  1  0
 65 64  1  0
 67 66  1  0
 67 76  1  0
 67 68  1  0
 69 63  1  0
 69 68  1  0
 70 63  2  0
 71 72  1  0
 73 74  2  0
 74 75  1  0
 74 93  1  0
 75 78  1  0
 76 73  1  0
 76 77  1  0
 77 75  2  0
 78 79  1  0
 79 80  2  0
 81 84  1  0
 81 80  1  0
 82 81  2  0
 83 82  1  0
 83 78  2  0
 84 85  1  0
 85 86  1  0
 86 87  2  0
 88 87  1  0
 88 92  1  0
 89 88  2  0
 90 85  2  0
 90 89  1  0
 91 90  1  0
 93 94  1  0
 94 97  1  0
 94 96  1  0
 95 93  2  0
 98 73  1  0
 99 98  1  0
100 98  1  0
M  ISO  4   9 101  10 101  63 100  71 100
M  END
>  <TORSDO>  (61) 
F 29

>  <SCORE>  (61) 
-10.472

>  <name>  (61) 
65

>  <ligand_id>  (61) 
65

>  <original_smiles>  (61) 
[H]C(C(=O)N([H])C([H])([H])C([H])([H])C([H])([H])C([H])([H])C([H])([H])[N+]([H])([H])C([H])([H])C([H])([H])Oc1c([H])c([H])c2c(c1[H])C([H])([H])N(C(=O)C([H])(N([H])C(=O)C([H])(N([H])C([H])([H])[H])C([H])([H])[H])C(C([H])([H])[H])(C([H])([H])[H])C([H])([H])[H])C([H])(C(=O)N([H])C1([H])c3c([H])c([H])c([H])c([H])c3C([H])([H])C([H])([H])C1([H])[H])C2([H])[H])=C([H])C([H])=C([H])C([H])([H])C([H])([H])C([H])([H])N([H])C(=O)N1C([H])([H])C([H])([H])C([H])([H])C([H])(n2nc(-c3c([H])c([H])c(Oc4c([H])c([H])c(F)c([H])c4F)c([H])c3[H])c(C(=O)N([H])[H])c2N([H])[H])C1([H])[H]

>  <smiles>  (61) 
[H]C(C(=O)N([H])C([H])([H])C([H])([H])C([H])([H])C([H])([H])C([H])([H])[N+]([H])([H])C([H])([H])C([H])([H])Oc1c([H])c([H])c2c(c1[H])C([H])([H])N(C(=O)C([H])(N([H])C(=O)C([H])(N([H])C([H])([H])[H])C([H])([H])[H])C(C([H])([H])[H])(C([H])([H])[H])C([H])([H])[H])C([H])(C(=O)N([H])C1([H])c3c([H])c([H])c([H])c([H])c3C([H])([H])C([H])([H])C1([H])[H])C2([H])[H])=C([H])C([H])=C([H])C([H])([H])C([H])([H])C([H])([H])N([H])C(=O)N1C([H])([H])C([H])([H])C([H])([H])C([H])(n2nc(-c3c([H])c([H])c(Oc4c([H])c([H])c(F)c([H])c4F)c([H])c3[H])c(C(=O)N([H])[H])c2N([H])[H])C1([H])[H]

$$$$
66:0:0
     RDKit          3D

 89 96  0  0  1  0  0  0  0  0999 V2000
  -30.0000  -21.8360   20.8860 C   0  0  0  0  0  2  0  0  0  0  0  0
  -30.2920  -19.3730   21.1700 C   0  0  0  0  0  0  0  0  0  0  0  0
  -29.8070  -20.4300   20.4900 N   0  0  0  0  0  0  0  0  0  0  0  0
  -30.9830  -19.5200   22.1800 O   0  0  0  0  0  0  0  0  0  0  0  0
  -29.2780  -20.2460   19.6470 H   0  0  0  0  0  0  0  0  0  0  0  0
  -29.9510  -17.9500   20.6610 C   0  0  0  0  0  2  0  0  0  0  0  0
  -30.6150  -16.7940   21.4710 C   0  0  0  0  0  2  0  0  0  0  0  0
  -30.7320  -14.4780   20.4610 C   0  0  0  0  0  0  0  0  0  0  0  0
  -30.4030  -12.3440   19.2640 C   0  0  0  0  0  2  0  0  0  0  0  0
  -29.4600  -12.5530   18.0630 C   0  0  0  0  0  2  0  0  0  0  0  0
  -27.9830  -12.4310   18.4880 C   0  0  0  0  0  2  0  0  0  0  0  0
  -27.6530  -13.2630   19.7550 C   0  0  0  0  0  3  0  0  0  0  0  0
  -28.7040  -13.0280   20.8630 C   0  0  0  0  0  2  0  0  0  0  0  0
  -30.0330  -13.3220   20.2990 N   0  0  0  0  0  0  0  0  0  0  0  0
  -31.8370  -14.6730   19.9480 O   0  0  0  0  0  0  0  0  0  0  0  0
  -30.0990  -15.4500   21.1440 N   0  0  0  0  0  0  0  0  0  0  0  0
  -29.1850  -15.2100   21.5000 H   0  0  0  0  0  0  0  0  0  0  0  0
  -25.2500  -13.8860   20.4390 C   0  0  0  0  0  0  0  0  0  0  0  0
  -24.1760  -13.1210   20.8100 C   0  0  0  0  0  0  0  0  0  0  0  0
  -24.6340  -11.7690   20.7990 C   0  0  0  0  0  0  0  0  0  0  0  0
  -26.2950  -13.0000   20.2280 N   0  0  0  0  0  0  0  0  0  0  0  0
  -25.9260  -11.7220   20.5010 N   0  0  0  0  0  0  0  0  0  0  0  0
  -23.9020  -10.5110   21.0020 C   0  0  0  0  0  0  0  0  0  0  0  0
  -24.3350   -9.5490   21.9410 C   0  0  0  0  0  3  0  0  0  0  0  0
  -23.6060   -8.3550   22.1280 C   0  0  0  0  0  3  0  0  0  0  0  0
  -22.4280   -8.1150   21.3800 C   0  0  0  0  0  0  0  0  0  0  0  0
  -22.0150   -9.0660   20.4300 C   0  0  0  0  0  3  0  0  0  0  0  0
  -22.7440  -10.2510   20.2390 C   0  0  0  0  0  3  0  0  0  0  0  0
  -21.6690   -6.9750   21.4790 O   0  0  0  0  0  0  0  0  0  0  0  0
  -21.6260   -6.2380   22.6350 C   0  0  0  0  0  0  0  0  0  0  0  0
  -21.2150   -6.8000   23.8640 C   0  0  0  0  0  3  0  0  0  0  0  0
  -21.1190   -5.9890   25.0120 C   0  0  0  0  0  3  0  0  0  0  0  0
  -21.4230   -4.6180   24.9340 C   0  0  0  0  0  0  0  0  0  0  0  0
  -21.8260   -4.0540   23.7100 C   0  0  0  0  0  3  0  0  0  0  0  0
  -21.9260   -4.8630   22.5630 C   0  0  0  0  0  0  0  0  0  0  0  0
  -22.2950   -4.3110   21.3830 F   0  0  0  0  0  0  0  0  0  0  0  0
  -21.3220   -3.8360   26.0340 F   0  0  0  0  0  0  0  0  0  0  0  0
  -22.7790  -13.6070   21.0660 C   0  0  0  0  0  0  0  0  0  0  0  0
  -22.0410  -12.9270   21.9380 N   0  0  0  0  0  0  0  0  0  0  0  0
  -22.3490  -14.6280   20.5310 O   0  0  0  0  0  0  0  0  0  0  0  0
  -22.3950  -12.0990   22.3930 H   0  0  0  0  0  0  0  0  0  0  0  0
  -21.1040  -13.2380   22.1510 H   0  0  0  0  0  0  0  0  0  0  0  0
  -25.4220  -15.2540   20.2490 N   0  0  0  0  0  0  0  0  0  0  0  0
  -24.6630  -15.9150   20.3630 H   0  0  0  0  0  0  0  0  0  0  0  0
  -26.2770  -15.6880   19.9200 H   0  0  0  0  0  0  0  0  0  0  0  0
  -29.1340  -22.8280   20.0660 C   0  0  0  0  0  2  0  0  0  0  0  0
  -29.3380  -24.3300   20.4360 C   0  0  0  0  0  2  0  0  0  0  0  0
  -28.2130  -25.2450   19.8970 C   0  0  0  0  0  2  0  0  0  0  0  0
  -28.3560  -26.6520   20.2070 O   0  0  0  0  0  0  0  0  0  0  0  0
  -24.6030  -31.9240   23.2440 C   0  0  0  0  0  0  0  0  0  0  0  0
  -27.2010  -27.4230   20.1710 C   0  0  0  0  0  0  0  0  0  0  0  0
  -23.3840  -30.5250   21.6100 C   0  0  0  0  0  3  0  0  0  0  0  0
  -24.8230  -28.9770   20.1840 C   0  0  0  0  0  0  0  0  0  0  0  0
  -25.9180  -30.8530   21.4130 C   0  0  0  0  0  2  0  0  0  0  0  0
  -25.9900  -29.4800   20.7730 C   0  0  0  0  0  0  0  0  0  0  0  0
  -27.1810  -28.7100   20.7640 C   0  0  0  0  0  3  0  0  0  0  0  0
  -26.0100  -26.9540   19.5610 C   0  0  0  0  0  3  0  0  0  0  0  0
  -24.8280  -27.7140   19.5770 C   0  0  0  0  0  3  0  0  0  0  0  0
  -23.5880  -29.8470   20.2300 C   0  0  0  0  0  2  0  0  0  0  0  0
  -24.6530  -31.1160   22.1450 N   0  0  0  0  0  0  0  0  0  0  0  0
  -23.5230  -32.2050   23.7840 O   0  0  0  0  0  0  0  0  0  0  0  0
  -22.7280  -29.5080   22.5740 C   0  0  0  0  0  0  0  0  0  0  0  0
  -21.4010  -29.3330   22.4520 N   0  0  0  0  0  0  0  0  0  0  0  0
  -23.4100  -28.8810   23.3890 O   0  0  0  0  0  0  0  0  0  0  0  0
  -20.9120  -29.8910   21.7660 H   0  0  0  0  0  0  0  0  0  0  0  0
  -18.0220  -28.1630   22.9670 C   0  0  0  0  0  0  0  0  0  0  0  0
  -20.5830  -28.4030   23.2280 C   0  0  0  0  0  3  0  0  0  0  0  0
  -20.6730  -26.9690   22.6540 C   0  0  0  0  0  2  0  0  0  0  0  0
  -19.5650  -26.6530   21.6450 C   0  0  0  0  0  2  0  0  0  0  0  0
  -18.1870  -26.8100   22.2940 C   0  0  0  0  0  2  0  0  0  0  0  0
  -19.1480  -28.9180   23.3910 C   0  0  0  0  0  0  0  0  0  0  0  0
  -18.9400  -30.1840   23.9780 C   0  0  0  0  0  3  0  0  0  0  0  0
  -17.6400  -30.6950   24.1470 C   0  0  0  0  0  3  0  0  0  0  0  0
  -16.5290  -29.9380   23.7390 C   0  0  0  0  0  3  0  0  0  0  0  0
  -16.7210  -28.6740   23.1540 C   0  0  0  0  0  3  0  0  0  0  0  0
  -25.8930  -32.5490   23.8560 C   0  0  0  0  0  3  0  0  0  0  0  0
  -25.5910  -33.9480   24.1880 N   0  0  0  0  0  0  0  0  0  0  0  0
  -25.9150  -34.9990   23.4220 C   0  0  0  0  0  0  0  0  0  0  0  0
  -26.5730  -34.8930   22.3830 O   0  0  0  0  0  0  0  0  0  0  0  0
  -25.0100  -34.1060   24.9980 H   0  0  0  0  0  0  0  0  0  0  0  0
  -24.1840  -36.7920   23.0830 C   0  0  0  0  0  1  0  0  0  0  0  0
  -25.4330  -36.3880   23.8840 C   0  0  0  0  0  3  0  0  0  0  0  0
  -27.5760  -37.2730   24.6910 C   0  0  0  0  0  1  0  0  0  0  0  0
  -26.4640  -37.4400   23.7590 N   0  0  0  0  0  0  0  0  0  0  0  0
  -26.0580  -38.3600   23.9110 H   0  0  0  0  0  0  0  0  0  0  0  0
  -26.4170  -31.7760   25.1290 C   0  0  1  0  0  0  0  0  0  0  0  0
  -25.3290  -31.5400   26.2010 C   0  0  0  0  0  1  0  0  0  0  0  0
  -26.9950  -30.3970   24.7320 C   0  0  0  0  0  1  0  0  0  0  0  0
  -27.5710  -32.5680   25.7850 C   0  0  0  0  0  1  0  0  0  0  0  0
  2  4  2  0
  3  1  1  0
  3  2  1  0
  5  3  1  0
  6  2  1  0
  6  7  1  0
  8 16  1  0
  9 14  1  0
 10 11  1  0
 10  9  1  0
 12 11  1  0
 12 21  1  0
 12 13  1  0
 14  8  1  0
 14 13  1  0
 15  8  2  0
 16  7  1  0
 16 17  1  0
 18 19  2  0
 19 38  1  0
 20 19  1  0
 20 23  1  0
 21 18  1  0
 21 22  1  0
 22 20  2  0
 23 24  1  0
 24 25  2  0
 26 29  1  0
 26 25  1  0
 27 26  2  0
 28 27  1  0
 28 23  2  0
 29 30  1  0
 30 31  1  0
 31 32  2  0
 33 32  1  0
 33 37  1  0
 34 33  2  0
 35 30  2  0
 35 34  1  0
 36 35  1  0
 38 39  1  0
 39 42  1  0
 39 41  1  0
 40 38  2  0
 43 44  1  0
 43 18  1  0
 45 43  1  0
 46 47  1  0
 46  1  1  0
 48 49  1  0
 48 47  1  0
 50 61  2  0
 51 49  1  0
 51 56  1  0
 52 60  1  0
 52 62  1  0
 53 59  1  0
 53 55  1  0
 54 60  1  0
 55 54  1  0
 56 55  2  0
 57 58  1  0
 57 51  2  0
 58 53  2  0
 59 52  1  0
 60 50  1  0
 62 64  2  0
 63 62  1  0
 65 63  1  0
 66 75  2  0
 66 71  1  0
 67 63  1  0
 67 71  1  0
 68 67  1  0
 69 70  1  0
 69 68  1  0
 70 66  1  0
 71 72  2  0
 72 73  1  0
 74 73  2  0
 75 74  1  0
 76 50  1  0
 76 77  1  0
 76 86  1  0
 77 80  1  0
 78 82  1  0
 78 77  1  0
 79 78  2  0
 82 81  1  0
 84 82  1  0
 84 85  1  0
 84 83  1  0
 86 89  1  1
 86 87  1  0
 88 86  1  0
M  ISO  4   8 100  16 100  48 101  49 101
M  END
>  <TORSDO>  (62) 
F 22

>  <SCORE>  (62) 
-13.117

>  <name>  (62) 
66

>  <ligand_id>  (62) 
66

>  <original_smiles>  (62) 
[H]c1c([H])c([H])c2c(c1[H])C([H])([H])C([H])([H])C([H])([H])C2([H])N([H])C(=O)C1([H])N(C(=O)C([H])(N([H])C(=O)C([H])(N([H])C([H])([H])[H])C([H])([H])[H])C(C([H])([H])[H])(C([H])([H])[H])C([H])([H])[H])C([H])([H])c2c([H])c(OC([H])([H])C([H])([H])C([H])([H])C([H])([H])N([H])C(=O)C([H])([H])C([H])([H])N([H])C(=O)N3C([H])([H])C([H])([H])C([H])([H])C([H])(n4nc(-c5c([H])c([H])c(Oc6c([H])c([H])c(F)c([H])c6F)c([H])c5[H])c(C(=O)N([H])[H])c4N([H])[H])C3([H])[H])c([H])c([H])c2C1([H])[H]

>  <smiles>  (62) 
[H]c1c([H])c([H])c2c(c1[H])C([H])([H])C([H])([H])C([H])([H])C2([H])N([H])C(=O)C1([H])N(C(=O)C([H])(N([H])C(=O)C([H])(N([H])C([H])([H])[H])C([H])([H])[H])C(C([H])([H])[H])(C([H])([H])[H])C([H])([H])[H])C([H])([H])c2c([H])c(OC([H])([H])C([H])([H])C([H])([H])C([H])([H])N([H])C(=O)C([H])([H])C([H])([H])N([H])C(=O)N3C([H])([H])C([H])([H])C([H])([H])C([H])(n4nc(-c5c([H])c([H])c(Oc6c([H])c([H])c(F)c([H])c6F)c([H])c5[H])c(C(=O)N([H])[H])c4N([H])[H])C3([H])[H])c([H])c([H])c2C1([H])[H]

$$$$
67:0:0
     RDKit          3D

 99106  0  0  1  0  0  0  0  0999 V2000
  -29.3080  -23.7530   16.7810 N   0  0  0  0  0  0  0  0  0  0  0  0
  -30.2290  -23.6460   16.3570 H   0  0  0  0  0  0  0  0  0  0  0  0
  -28.6230  -22.4690   16.7250 C   0  0  0  0  0  2  0  0  0  0  0  0
  -29.4660  -21.3720   17.3930 C   0  0  0  0  0  2  0  0  0  0  0  0
  -28.9080  -19.9780   17.0660 C   0  0  0  0  0  2  0  0  0  0  0  0
  -29.8300  -18.8170   17.4560 C   0  0  0  0  0  2  0  0  0  0  0  0
  -30.0300  -17.3000   19.3930 C   0  0  0  0  0  0  0  0  0  0  0  0
  -29.7900  -18.5170   18.8870 N   0  0  0  0  0  0  0  0  0  0  0  0
  -30.2390  -16.3370   18.6510 O   0  0  0  0  0  0  0  0  0  0  0  0
  -29.6170  -19.2780   19.5310 H   0  0  0  0  0  0  0  0  0  0  0  0
  -30.0300  -17.1300   20.9340 C   0  0  0  0  0  3  0  0  0  0  0  0
  -30.6550  -14.6870   21.1000 C   0  0  0  0  0  0  0  0  0  0  0  0
  -30.5240  -12.4740   20.0540 C   0  0  0  0  0  2  0  0  0  0  0  0
  -29.7070  -12.6140   18.7520 C   0  0  0  0  0  2  0  0  0  0  0  0
  -28.1990  -12.4560   19.0360 C   0  0  0  0  0  2  0  0  0  0  0  0
  -27.7150  -13.3390   20.2180 C   0  0  0  0  0  3  0  0  0  0  0  0
  -28.6560  -13.1950   21.4380 C   0  0  0  0  0  2  0  0  0  0  0  0
  -30.0290  -13.4890   20.9940 N   0  0  0  0  0  0  0  0  0  0  0  0
  -31.8370  -14.8620   20.7970 O   0  0  0  0  0  0  0  0  0  0  0  0
  -29.8200  -15.7200   21.3100 N   0  0  0  0  0  0  0  0  0  0  0  0
  -28.8720  -15.4650   21.5360 H   0  0  0  0  0  0  0  0  0  0  0  0
  -25.2450  -13.9140   20.6780 C   0  0  0  0  0  0  0  0  0  0  0  0
  -24.1610  -13.1260   20.9630 C   0  0  0  0  0  0  0  0  0  0  0  0
  -24.6510  -11.7850   21.0100 C   0  0  0  0  0  0  0  0  0  0  0  0
  -26.3250  -13.0500   20.5690 N   0  0  0  0  0  0  0  0  0  0  0  0
  -25.9640  -11.7670   20.8250 N   0  0  0  0  0  0  0  0  0  0  0  0
  -23.9350  -10.5110   21.1610 C   0  0  0  0  0  0  0  0  0  0  0  0
  -24.3310   -9.5520   22.1200 C   0  0  0  0  0  3  0  0  0  0  0  0
  -23.6160   -8.3430   22.2600 C   0  0  0  0  0  3  0  0  0  0  0  0
  -22.4930   -8.0830   21.4380 C   0  0  0  0  0  0  0  0  0  0  0  0
  -22.1180   -9.0320   20.4700 C   0  0  0  0  0  3  0  0  0  0  0  0
  -22.8330  -10.2320   20.3290 C   0  0  0  0  0  3  0  0  0  0  0  0
  -21.7550   -6.9240   21.4840 O   0  0  0  0  0  0  0  0  0  0  0  0
  -21.6840   -6.1620   22.6220 C   0  0  0  0  0  0  0  0  0  0  0  0
  -21.2230   -6.6930   23.8470 C   0  0  0  0  0  3  0  0  0  0  0  0
  -21.0990   -5.8560   24.9740 C   0  0  0  0  0  3  0  0  0  0  0  0
  -21.4250   -4.4900   24.8770 C   0  0  0  0  0  0  0  0  0  0  0  0
  -21.8790   -3.9600   23.6570 C   0  0  0  0  0  3  0  0  0  0  0  0
  -22.0060   -4.7930   22.5320 C   0  0  0  0  0  0  0  0  0  0  0  0
  -22.4240   -4.2720   21.3530 F   0  0  0  0  0  0  0  0  0  0  0  0
  -21.3000   -3.6840   25.9560 F   0  0  0  0  0  0  0  0  0  0  0  0
  -22.7350  -13.5780   21.0890 C   0  0  0  0  0  0  0  0  0  0  0  0
  -21.9420  -12.8900   21.9040 N   0  0  0  0  0  0  0  0  0  0  0  0
  -22.3270  -14.5800   20.5010 O   0  0  0  0  0  0  0  0  0  0  0  0
  -22.2820  -12.0850   22.4080 H   0  0  0  0  0  0  0  0  0  0  0  0
  -20.9820  -13.1780   22.0290 H   0  0  0  0  0  0  0  0  0  0  0  0
  -25.3980  -15.2820   20.4820 N   0  0  0  0  0  0  0  0  0  0  0  0
  -24.6060  -15.9160   20.4960 H   0  0  0  0  0  0  0  0  0  0  0  0
  -26.2590  -15.7310   20.1960 H   0  0  0  0  0  0  0  0  0  0  0  0
  -31.2760  -19.2590   21.7690 C   0  0  0  0  0  1  0  0  0  0  0  0
  -31.2850  -17.7280   21.6270 C   0  0  0  0  0  2  0  0  0  0  0  0
  -28.5550  -24.7290   15.9960 C   0  0  0  0  0  2  0  0  0  0  0  0
  -29.2420  -26.1090   15.9780 C   0  0  0  0  0  2  0  0  0  0  0  0
  -28.9880  -26.8700   17.2170 N   0  0  0  0  0  4  0  0  0  0  0  0
  -28.0780  -26.6050   17.5600 H   0  0  0  0  0  0  0  0  0  0  0  0
  -28.9510  -27.8460   16.9720 H   0  0  0  0  0  0  0  0  0  0  0  0
  -29.9840  -26.6940   18.3010 C   0  0  0  0  0  2  0  0  0  0  0  0
  -29.5450  -27.4300   19.5740 C   0  0  0  0  0  2  0  0  0  0  0  0
  -28.3740  -26.7700   20.0530 O   0  0  0  0  0  0  0  0  0  0  0  0
  -24.5720  -31.8950   23.2430 C   0  0  0  0  0  0  0  0  0  0  0  0
  -27.2240  -27.5160   20.1160 C   0  0  0  0  0  0  0  0  0  0  0  0
  -23.3590  -30.4980   21.5990 C   0  0  0  0  0  3  0  0  0  0  0  0
  -24.8110  -28.9720   20.1630 C   0  0  0  0  0  0  0  0  0  0  0  0
  -25.8770  -30.8800   21.3820 C   0  0  0  0  0  2  0  0  0  0  0  0
  -25.9660  -29.5140   20.7410 C   0  0  0  0  0  0  0  0  0  0  0  0
  -27.1770  -28.7930   20.7210 C   0  0  0  0  0  3  0  0  0  0  0  0
  -26.0480  -26.9650   19.5720 C   0  0  0  0  0  3  0  0  0  0  0  0
  -24.8430  -27.6920   19.5810 C   0  0  0  0  0  3  0  0  0  0  0  0
  -23.5610  -29.8210   20.2160 C   0  0  0  0  0  2  0  0  0  0  0  0
  -24.6210  -31.1040   22.1350 N   0  0  0  0  0  0  0  0  0  0  0  0
  -23.4950  -32.1620   23.7910 O   0  0  0  0  0  0  0  0  0  0  0  0
  -22.7170  -29.4720   22.5580 C   0  0  0  0  0  0  0  0  0  0  0  0
  -21.3910  -29.2930   22.4390 N   0  0  0  0  0  0  0  0  0  0  0  0
  -23.4070  -28.8370   23.3600 O   0  0  0  0  0  0  0  0  0  0  0  0
  -20.8980  -29.8580   21.7610 H   0  0  0  0  0  0  0  0  0  0  0  0
  -18.0170  -28.1080   22.9440 C   0  0  0  0  0  0  0  0  0  0  0  0
  -20.5770  -28.3530   23.2060 C   0  0  0  0  0  3  0  0  0  0  0  0
  -20.6720  -26.9260   22.6180 C   0  0  0  0  0  2  0  0  0  0  0  0
  -19.5630  -26.6150   21.6070 C   0  0  0  0  0  2  0  0  0  0  0  0
  -18.1860  -26.7610   22.2610 C   0  0  0  0  0  2  0  0  0  0  0  0
  -19.1410  -28.8620   23.3740 C   0  0  0  0  0  0  0  0  0  0  0  0
  -18.9310  -30.1230   23.9730 C   0  0  0  0  0  3  0  0  0  0  0  0
  -17.6300  -30.6290   24.1470 C   0  0  0  0  0  3  0  0  0  0  0  0
  -16.5200  -29.8710   23.7350 C   0  0  0  0  0  3  0  0  0  0  0  0
  -16.7160  -28.6120   23.1390 C   0  0  0  0  0  3  0  0  0  0  0  0
  -25.8640  -32.5220   23.8590 C   0  0  0  0  0  3  0  0  0  0  0  0
  -25.5590  -33.9190   24.1930 N   0  0  0  0  0  0  0  0  0  0  0  0
  -25.8980  -34.9720   23.4350 C   0  0  0  0  0  0  0  0  0  0  0  0
  -26.5720  -34.8670   22.4070 O   0  0  0  0  0  0  0  0  0  0  0  0
  -24.9620  -34.0740   24.9920 H   0  0  0  0  0  0  0  0  0  0  0  0
  -24.1800  -36.7710   23.0720 C   0  0  0  0  0  1  0  0  0  0  0  0
  -25.4130  -36.3600   23.8920 C   0  0  0  0  0  3  0  0  0  0  0  0
  -27.5470  -37.2300   24.7390 C   0  0  0  0  0  1  0  0  0  0  0  0
  -26.4520  -37.4080   23.7910 N   0  0  0  0  0  0  0  0  0  0  0  0
  -26.0490  -38.3290   23.9420 H   0  0  0  0  0  0  0  0  0  0  0  0
  -26.3870  -31.7450   25.1290 C   0  0  1  0  0  0  0  0  0  0  0  0
  -25.3020  -31.5050   26.2040 C   0  0  0  0  0  1  0  0  0  0  0  0
  -26.9650  -30.3680   24.7240 C   0  0  0  0  0  1  0  0  0  0  0  0
  -27.5440  -32.5330   25.7860 C   0  0  0  0  0  1  0  0  0  0  0  0
  2  1  1  0
  3  1  1  0
  3  4  1  0
  5  4  1  0
  5  6  1  0
  6  8  1  0
  7 11  1  0
  8  7  1  0
  8 10  1  0
  9  7  2  0
 11 20  1  0
 11 51  1  0
 12 20  1  0
 13 18  1  0
 14 15  1  0
 14 13  1  0
 16 15  1  0
 16 25  1  0
 16 17  1  0
 18 12  1  0
 18 17  1  0
 19 12  2  0
 20 21  1  0
 22 23  2  0
 23 24  1  0
 23 42  1  0
 24 27  1  0
 25 22  1  0
 25 26  1  0
 26 24  2  0
 27 28  1  0
 28 29  2  0
 30 33  1  0
 30 29  1  0
 31 30  2  0
 32 31  1  0
 32 27  2  0
 33 34  1  0
 34 35  1  0
 35 36  2  0
 37 36  1  0
 37 41  1  0
 38 37  2  0
 39 34  2  0
 39 38  1  0
 40 39  1  0
 42 43  1  0
 43 46  1  0
 43 45  1  0
 44 42  2  0
 47 48  1  0
 47 22  1  0
 49 47  1  0
 51 50  1  0
 52  1  1  0
 53 52  1  0
 53 54  1  0
 54 55  1  0
 54 57  1  0
 56 54  1  0
 57 58  1  0
 58 59  1  0
 59 61  1  0
 60 71  2  0
 61 66  1  0
 62 70  1  0
 62 72  1  0
 63 69  1  0
 63 65  1  0
 64 70  1  0
 65 64  1  0
 66 65  2  0
 67 68  1  0
 67 61  2  0
 68 63  2  0
 69 62  1  0
 70 60  1  0
 72 74  2  0
 73 72  1  0
 75 73  1  0
 76 85  2  0
 76 81  1  0
 77 73  1  0
 77 81  1  0
 78 77  1  0
 79 80  1  0
 79 78  1  0
 80 76  1  0
 81 82  2  0
 82 83  1  0
 84 83  2  0
 85 84  1  0
 86 60  1  0
 86 87  1  0
 86 96  1  0
 87 90  1  0
 88 92  1  0
 88 87  1  0
 89 88  2  0
 92 91  1  0
 94 92  1  0
 94 95  1  0
 94 93  1  0
 96 99  1  1
 96 97  1  0
 98 96  1  0
M  ISO  4  12 100  20 100  58 101  59 101
M  END
>  <TORSDO>  (63) 
F 28

>  <SCORE>  (63) 
-11.002

>  <name>  (63) 
67

>  <ligand_id>  (63) 
67

>  <original_smiles>  (63) 
[H]c1c([H])c([H])c2c(c1[H])C([H])([H])C([H])([H])C([H])([H])C2([H])N([H])C(=O)C1([H])N(C(=O)C([H])(N([H])C(=O)C([H])(N([H])C([H])([H])[H])C([H])([H])[H])C(C([H])([H])[H])(C([H])([H])[H])C([H])([H])[H])C([H])([H])c2c([H])c(OC([H])([H])C([H])([H])[N+]([H])([H])C([H])([H])C([H])([H])N([H])C([H])([H])C([H])([H])C([H])([H])C([H])([H])N([H])C(=O)C([H])(N([H])C(=O)N3C([H])([H])C([H])([H])C([H])([H])C([H])(n4nc(-c5c([H])c([H])c(Oc6c([H])c([H])c(F)c([H])c6F)c([H])c5[H])c(C(=O)N([H])[H])c4N([H])[H])C3([H])[H])C([H])([H])C([H])([H])[H])c([H])c([H])c2C1([H])[H]

>  <smiles>  (63) 
[H]c1c([H])c([H])c2c(c1[H])C([H])([H])C([H])([H])C([H])([H])C2([H])N([H])C(=O)C1([H])N(C(=O)C([H])(N([H])C(=O)C([H])(N([H])C([H])([H])[H])C([H])([H])[H])C(C([H])([H])[H])(C([H])([H])[H])C([H])([H])[H])C([H])([H])c2c([H])c(OC([H])([H])C([H])([H])[N+]([H])([H])C([H])([H])C([H])([H])N([H])C([H])([H])C([H])([H])C([H])([H])C([H])([H])N([H])C(=O)C([H])(N([H])C(=O)N3C([H])([H])C([H])([H])C([H])([H])C([H])(n4nc(-c5c([H])c([H])c(Oc6c([H])c([H])c(F)c([H])c6F)c([H])c5[H])c(C(=O)N([H])[H])c4N([H])[H])C3([H])[H])C([H])([H])C([H])([H])[H])c([H])c([H])c2C1([H])[H]

$$$$
68:0:0
     RDKit          3D

101108  0  0  1  0  0  0  0  0999 V2000
  -35.0610  -19.9850   22.7420 O   0  0  0  0  0  0  0  0  0  0  0  0
  -34.1300  -20.1530   21.6840 C   0  0  0  0  0  2  0  0  0  0  0  0
  -32.8700  -19.3330   21.9970 C   0  0  0  0  0  2  0  0  0  0  0  0
  -30.5130  -20.0890   22.0050 C   0  0  0  0  0  0  0  0  0  0  0  0
  -31.6900  -19.9400   21.3910 N   0  0  0  0  0  0  0  0  0  0  0  0
  -30.2950  -19.6420   23.1350 O   0  0  0  0  0  0  0  0  0  0  0  0
  -31.7790  -20.2800   20.4440 H   0  0  0  0  0  0  0  0  0  0  0  0
  -29.5710  -20.8490   21.2040 C   0  0  0  0  0  3  0  0  0  0  0  0
  -28.6740  -21.6640   21.7890 C   0  0  0  0  0  3  0  0  0  0  0  0
  -27.6610  -22.5160   21.0530 C   0  0  0  0  0  2  0  0  0  0  0  0
  -28.1030  -23.8760   20.9940 O   0  0  0  0  0  0  0  0  0  0  0  0
  -25.4300  -29.7370   23.9760 C   0  0  0  0  0  0  0  0  0  0  0  0
  -27.1520  -24.8690   20.9000 C   0  0  0  0  0  0  0  0  0  0  0  0
  -24.1150  -28.7960   22.1060 C   0  0  0  0  0  3  0  0  0  0  0  0
  -25.2720  -26.9760   20.7440 C   0  0  0  0  0  0  0  0  0  0  0  0
  -26.6460  -28.4450   22.2270 C   0  0  0  0  0  2  0  0  0  0  0  0
  -26.4390  -27.1330   21.5000 C   0  0  0  0  0  0  0  0  0  0  0  0
  -27.3820  -26.0870   21.5770 C   0  0  0  0  0  3  0  0  0  0  0  0
  -25.9760  -24.7320   20.1250 C   0  0  0  0  0  3  0  0  0  0  0  0
  -25.0320  -25.7730   20.0560 C   0  0  0  0  0  3  0  0  0  0  0  0
  -24.3170  -28.1480   20.7110 C   0  0  0  0  0  2  0  0  0  0  0  0
  -25.4120  -29.0020   22.8300 N   0  0  0  0  0  0  0  0  0  0  0  0
  -24.4000  -30.2720   24.4090 O   0  0  0  0  0  0  0  0  0  0  0  0
  -23.0970  -27.9520   22.9040 C   0  0  0  0  0  0  0  0  0  0  0  0
  -21.8050  -28.0900   22.5600 N   0  0  0  0  0  0  0  0  0  0  0  0
  -23.4710  -27.1790   23.7900 O   0  0  0  0  0  0  0  0  0  0  0  0
  -21.5760  -28.7630   21.8410 H   0  0  0  0  0  0  0  0  0  0  0  0
  -18.2080  -27.7500   22.4740 C   0  0  0  0  0  0  0  0  0  0  0  0
  -20.6760  -27.3710   23.1480 C   0  0  0  0  0  3  0  0  0  0  0  0
  -20.5220  -25.9630   22.5260 C   0  0  0  0  0  2  0  0  0  0  0  0
  -19.5530  -25.9280   21.3400 C   0  0  0  0  0  2  0  0  0  0  0  0
  -18.1620  -26.4050   21.7690 C   0  0  0  0  0  2  0  0  0  0  0  0
  -19.3920  -28.2090   23.1100 C   0  0  0  0  0  0  0  0  0  0  0  0
  -19.3910  -29.4820   23.7190 C   0  0  0  0  0  3  0  0  0  0  0  0
  -18.2370  -30.2870   23.7040 C   0  0  0  0  0  3  0  0  0  0  0  0
  -17.0630  -29.8200   23.0870 C   0  0  0  0  0  3  0  0  0  0  0  0
  -17.0480  -28.5530   22.4760 C   0  0  0  0  0  3  0  0  0  0  0  0
  -26.7470  -29.9630   24.7840 C   0  0  0  0  0  3  0  0  0  0  0  0
  -26.7710  -31.3690   25.2060 N   0  0  0  0  0  0  0  0  0  0  0  0
  -27.4960  -32.3270   24.6130 C   0  0  0  0  0  0  0  0  0  0  0  0
  -28.2760  -32.0980   23.6860 O   0  0  0  0  0  0  0  0  0  0  0  0
  -26.1130  -31.6370   25.9230 H   0  0  0  0  0  0  0  0  0  0  0  0
  -26.3950  -34.5460   24.1930 C   0  0  0  0  0  1  0  0  0  0  0  0
  -27.3290  -33.7670   25.1310 C   0  0  0  0  0  3  0  0  0  0  0  0
  -29.4470  -33.9750   26.3560 C   0  0  0  0  0  1  0  0  0  0  0  0
  -28.6110  -34.4930   25.2770 N   0  0  0  0  0  0  0  0  0  0  0  0
  -28.4460  -35.4820   25.4470 H   0  0  0  0  0  0  0  0  0  0  0  0
  -26.8830  -29.0040   26.0300 C   0  0  1  0  0  0  0  0  0  0  0  0
  -25.6430  -29.0030   26.9530 C   0  0  0  0  0  1  0  0  0  0  0  0
  -27.1350  -27.5510   25.5690 C   0  0  0  0  0  1  0  0  0  0  0  0
  -28.1110  -29.4190   26.8780 C   0  0  0  0  0  1  0  0  0  0  0  0
  -36.2290  -20.7840   22.5960 C   0  0  0  0  0  2  0  0  0  0  0  0
  -37.3520  -20.1590   23.4360 C   0  0  0  0  0  2  0  0  0  0  0  0
  -37.7760  -18.7890   22.8730 C   0  0  0  0  0  2  0  0  0  0  0  0
  -39.2720  -18.6810   22.5260 C   0  0  0  0  0  2  0  0  0  0  0  0
  -39.8170  -17.2340   22.4590 C   0  0  0  0  0  2  0  0  0  0  0  0
  -38.9410  -16.3180   21.6940 N   0  0  0  0  0  4  0  0  0  0  0  0
  -39.4820  -15.5030   21.4520 H   0  0  0  0  0  0  0  0  0  0  0  0
  -38.6800  -16.7650   20.8310 H   0  0  0  0  0  0  0  0  0  0  0  0
  -37.7410  -15.8480   22.4210 C   0  0  0  0  0  2  0  0  0  0  0  0
  -36.8650  -14.9090   21.5690 C   0  0  0  0  0  2  0  0  0  0  0  0
  -36.6320  -15.4350   20.1370 C   0  0  0  0  0  2  0  0  0  0  0  0
  -35.3080  -14.9800   19.5040 C   0  0  0  0  0  2  0  0  0  0  0  0
  -35.0980  -12.7590   20.6270 C   0  0  0  0  0  0  0  0  0  0  0  0
  -34.4850  -10.5480   21.5290 C   0  0  0  0  0  2  0  0  0  0  0  0
  -33.7130   -9.7320   20.4740 C   0  0  0  0  0  2  0  0  0  0  0  0
  -32.2090  -10.0630   20.5150 C   0  0  0  0  0  2  0  0  0  0  0  0
  -31.9310  -11.5890   20.5060 C   0  0  0  0  0  3  0  0  0  0  0  0
  -32.8030  -12.3030   21.5610 C   0  0  0  0  0  2  0  0  0  0  0  0
  -34.2140  -11.9710   21.2920 N   0  0  0  0  0  0  0  0  0  0  0  0
  -36.2310  -12.3920   20.2990 O   0  0  0  0  0  0  0  0  0  0  0  0
  -34.6320  -13.9730   20.3130 N   0  0  0  0  0  0  0  0  0  0  0  0
  -33.6900  -14.1800   20.6120 H   0  0  0  0  0  0  0  0  0  0  0  0
  -29.8420  -13.0890   20.6470 C   0  0  0  0  0  0  0  0  0  0  0  0
  -28.5170  -12.7950   20.8270 C   0  0  0  0  0  0  0  0  0  0  0  0
  -28.4440  -11.3770   20.9720 C   0  0  0  0  0  0  0  0  0  0  0  0
  -30.5100  -11.8760   20.6970 N   0  0  0  0  0  0  0  0  0  0  0  0
  -29.6600  -10.8470   20.9450 N   0  0  0  0  0  0  0  0  0  0  0  0
  -27.2820  -10.4840   21.0790 C   0  0  0  0  0  0  0  0  0  0  0  0
  -27.0770   -9.6710   22.2150 C   0  0  0  0  0  3  0  0  0  0  0  0
  -25.9440   -8.8340   22.3010 C   0  0  0  0  0  3  0  0  0  0  0  0
  -25.0000   -8.8060   21.2480 C   0  0  0  0  0  0  0  0  0  0  0  0
  -25.2210   -9.6000   20.1080 C   0  0  0  0  0  3  0  0  0  0  0  0
  -26.3530  -10.4290   20.0220 C   0  0  0  0  0  3  0  0  0  0  0  0
  -23.8840   -8.0060   21.2330 O   0  0  0  0  0  0  0  0  0  0  0  0
  -23.1980   -7.7050   22.3840 C   0  0  0  0  0  0  0  0  0  0  0  0
  -22.6180   -8.7090   23.1890 C   0  0  0  0  0  3  0  0  0  0  0  0
  -21.8640   -8.3510   24.3230 C   0  0  0  0  0  3  0  0  0  0  0  0
  -21.6800   -6.9940   24.6500 C   0  0  0  0  0  0  0  0  0  0  0  0
  -22.2520   -5.9940   23.8450 C   0  0  0  0  0  3  0  0  0  0  0  0
  -23.0060   -6.3480   22.7140 C   0  0  0  0  0  0  0  0  0  0  0  0
  -23.5380   -5.3790   21.9290 F   0  0  0  0  0  0  0  0  0  0  0  0
  -20.9480   -6.6500   25.7350 F   0  0  0  0  0  0  0  0  0  0  0  0
  -27.3680  -13.7620   20.7730 C   0  0  0  0  0  0  0  0  0  0  0  0
  -26.3140  -13.5070   21.5390 N   0  0  0  0  0  0  0  0  0  0  0  0
  -27.4230  -14.7800   20.0830 O   0  0  0  0  0  0  0  0  0  0  0  0
  -26.2780  -12.6830   22.1210 H   0  0  0  0  0  0  0  0  0  0  0  0
  -25.5310  -14.1460   21.5450 H   0  0  0  0  0  0  0  0  0  0  0  0
  -30.5290  -14.2790   20.4300 N   0  0  0  0  0  0  0  0  0  0  0  0
  -30.0560  -15.1710   20.3380 H   0  0  0  0  0  0  0  0  0  0  0  0
  -31.5280  -14.3430   20.2730 H   0  0  0  0  0  0  0  0  0  0  0  0
  2  3  1  0
  2  1  1  0
  4  6  2  0
  5  3  1  0
  5  4  1  0
  7  5  1  0
  8  9  2  0
  8  4  1  0
 10  9  1  0
 11 10  1  0
 12 23  2  0
 13 11  1  0
 13 18  1  0
 14 22  1  0
 14 24  1  0
 15 17  1  0
 16 22  1  0
 17 18  2  0
 17 16  1  0
 19 13  2  0
 20 19  1  0
 20 15  2  0
 21 15  1  0
 21 14  1  0
 22 12  1  0
 24 26  2  0
 25 24  1  0
 27 25  1  0
 28 37  2  0
 28 33  1  0
 29 25  1  0
 30 29  1  0
 31 32  1  0
 31 30  1  0
 32 28  1  0
 33 29  1  0
 33 34  2  0
 35 34  1  0
 36 35  2  0
 37 36  1  0
 38 12  1  0
 38 39  1  0
 38 48  1  0
 39 42  1  0
 40 44  1  0
 40 39  1  0
 41 40  2  0
 44 43  1  0
 44 46  1  0
 46 47  1  0
 46 45  1  0
 48 51  1  1
 48 49  1  0
 50 48  1  0
 52  1  1  0
 52 53  1  0
 54 53  1  0
 55 54  1  0
 56 55  1  0
 57 60  1  0
 57 56  1  0
 58 57  1  0
 59 57  1  0
 61 60  1  0
 62 61  1  0
 63 62  1  0
 63 72  1  0
 64 70  1  0
 66 67  1  0
 66 65  1  0
 68 67  1  0
 68 77  1  0
 68 69  1  0
 70 65  1  0
 70 69  1  0
 71 64  2  0
 72 73  1  0
 72 64  1  0
 74 77  1  0
 74 75  2  0
 75 76  1  0
 76 79  1  0
 77 78  1  0
 78 76  2  0
 79 80  1  0
 80 81  2  0
 82 81  1  0
 83 82  2  0
 84 83  1  0
 84 79  2  0
 85 82  1  0
 85 86  1  0
 86 91  2  0
 86 87  1  0
 87 88  2  0
 88 89  1  0
 89 93  1  0
 90 89  2  0
 91 90  1  0
 92 91  1  0
 94 75  1  0
 94 95  1  0
 95 98  1  0
 95 97  1  0
 96 94  2  0
 99 74  1  0
100 99  1  0
101 99  1  0
M  ISO  4  10 101  11 101  64 100  72 100
M  END
>  <TORSDO>  (64) 
F 31

>  <SCORE>  (64) 
-5.253

>  <name>  (64) 
68

>  <ligand_id>  (64) 
68

>  <original_smiles>  (64) 
[H]C(C(=O)N([H])C([H])([H])C([H])([H])OC([H])([H])C([H])([H])C([H])([H])C([H])([H])C([H])([H])[N+]([H])([H])C([H])([H])C([H])([H])C([H])([H])C([H])([H])N([H])C(=O)N1C([H])([H])C([H])([H])C([H])([H])C([H])(n2nc(-c3c([H])c([H])c(Oc4c([H])c([H])c(F)c([H])c4F)c([H])c3[H])c(C(=O)N([H])[H])c2N([H])[H])C1([H])[H])=C([H])C([H])([H])Oc1c([H])c([H])c2c(c1[H])C([H])([H])N(C(=O)C([H])(N([H])C(=O)C([H])(N([H])C([H])([H])[H])C([H])([H])[H])C(C([H])([H])[H])(C([H])([H])[H])C([H])([H])[H])C([H])(C(=O)N([H])C1([H])c3c([H])c([H])c([H])c([H])c3C([H])([H])C([H])([H])C1([H])[H])C2([H])[H]

>  <smiles>  (64) 
[H]C(C(=O)N([H])C([H])([H])C([H])([H])OC([H])([H])C([H])([H])C([H])([H])C([H])([H])C([H])([H])[N+]([H])([H])C([H])([H])C([H])([H])C([H])([H])C([H])([H])N([H])C(=O)N1C([H])([H])C([H])([H])C([H])([H])C([H])(n2nc(-c3c([H])c([H])c(Oc4c([H])c([H])c(F)c([H])c4F)c([H])c3[H])c(C(=O)N([H])[H])c2N([H])[H])C1([H])[H])=C([H])C([H])([H])Oc1c([H])c([H])c2c(c1[H])C([H])([H])N(C(=O)C([H])(N([H])C(=O)C([H])(N([H])C([H])([H])[H])C([H])([H])[H])C(C([H])([H])[H])(C([H])([H])[H])C([H])([H])[H])C([H])(C(=O)N([H])C1([H])c3c([H])c([H])c([H])c([H])c3C([H])([H])C([H])([H])C1([H])[H])C2([H])[H]

$$$$
69:0:0
     RDKit          3D

107114  0  0  1  0  0  0  0  0999 V2000
  -29.8760  -20.0860   25.5690 C   0  0  0  0  0  3  0  0  0  0  0  0
  -30.5410  -18.1470   24.1230 C   0  0  0  0  0  0  0  0  0  0  0  0
  -29.9890  -19.3500   24.3090 N   0  0  0  0  0  0  0  0  0  0  0  0
  -30.9650  -17.4480   25.0450 O   0  0  0  0  0  0  0  0  0  0  0  0
  -29.6770  -19.8330   23.4790 H   0  0  0  0  0  0  0  0  0  0  0  0
  -30.5830  -17.8090   22.7140 C   0  0  0  0  0  3  0  0  0  0  0  0
  -30.8480  -16.5560   22.3070 C   0  0  0  0  0  3  0  0  0  0  0  0
  -30.9430  -16.1640   20.8510 C   0  0  0  0  0  2  0  0  0  0  0  0
  -30.2050  -14.3100   19.4170 C   0  0  0  0  0  0  0  0  0  0  0  0
  -29.7530  -12.1310   18.3630 C   0  0  0  0  0  2  0  0  0  0  0  0
  -28.5910  -12.1880   17.3570 C   0  0  0  0  0  2  0  0  0  0  0  0
  -27.2490  -11.9650   18.0750 C   0  0  0  0  0  2  0  0  0  0  0  0
  -27.0810  -12.8800   19.3150 C   0  0  0  0  0  3  0  0  0  0  0  0
  -28.3320  -12.8280   20.2200 C   0  0  0  0  0  2  0  0  0  0  0  0
  -29.5220  -13.1400   19.4060 N   0  0  0  0  0  0  0  0  0  0  0  0
  -30.9730  -14.6620   18.5150 O   0  0  0  0  0  0  0  0  0  0  0  0
  -30.1070  -15.0110   20.5500 N   0  0  0  0  0  0  0  0  0  0  0  0
  -29.4880  -14.6600   21.2660 H   0  0  0  0  0  0  0  0  0  0  0  0
  -24.9010  -13.3900   20.5880 C   0  0  0  0  0  0  0  0  0  0  0  0
  -23.9380  -12.5730   21.1140 C   0  0  0  0  0  0  0  0  0  0  0  0
  -24.3720  -11.2360   20.8580 C   0  0  0  0  0  0  0  0  0  0  0  0
  -25.8640  -12.5490   20.0530 N   0  0  0  0  0  0  0  0  0  0  0  0
  -25.5590  -11.2430   20.2670 N   0  0  0  0  0  0  0  0  0  0  0  0
  -23.6990   -9.9510   21.0880 C   0  0  0  0  0  0  0  0  0  0  0  0
  -24.2560   -8.9670   21.9350 C   0  0  0  0  0  3  0  0  0  0  0  0
  -23.5810   -7.7460   22.1540 C   0  0  0  0  0  3  0  0  0  0  0  0
  -22.3360   -7.5020   21.5290 C   0  0  0  0  0  0  0  0  0  0  0  0
  -21.7980   -8.4750   20.6680 C   0  0  0  0  0  3  0  0  0  0  0  0
  -22.4720   -9.6870   20.4470 C   0  0  0  0  0  3  0  0  0  0  0  0
  -21.6210   -6.3370   21.6630 O   0  0  0  0  0  0  0  0  0  0  0  0
  -21.5910   -5.6440   22.8470 C   0  0  0  0  0  0  0  0  0  0  0  0
  -21.1230   -6.2320   24.0430 C   0  0  0  0  0  3  0  0  0  0  0  0
  -21.0440   -5.4620   25.2210 C   0  0  0  0  0  3  0  0  0  0  0  0
  -21.4210   -4.1060   25.2030 C   0  0  0  0  0  0  0  0  0  0  0  0
  -21.8810   -3.5180   24.0130 C   0  0  0  0  0  3  0  0  0  0  0  0
  -21.9620   -4.2850   22.8370 C   0  0  0  0  0  0  0  0  0  0  0  0
  -22.3860   -3.7080   21.6870 F   0  0  0  0  0  0  0  0  0  0  0  0
  -21.3370   -3.3640   26.3340 F   0  0  0  0  0  0  0  0  0  0  0  0
  -22.6400  -13.0010   21.7350 C   0  0  0  0  0  0  0  0  0  0  0  0
  -22.1340  -12.2310   22.6920 N   0  0  0  0  0  0  0  0  0  0  0  0
  -22.0910  -14.0530   21.4080 O   0  0  0  0  0  0  0  0  0  0  0  0
  -22.5940  -11.3750   22.9710 H   0  0  0  0  0  0  0  0  0  0  0  0
  -21.2740  -12.4970   23.1500 H   0  0  0  0  0  0  0  0  0  0  0  0
  -25.0320  -14.7740   20.5020 N   0  0  0  0  0  0  0  0  0  0  0  0
  -24.3160  -15.4100   20.8340 H   0  0  0  0  0  0  0  0  0  0  0  0
  -25.7990  -15.2460   20.0380 H   0  0  0  0  0  0  0  0  0  0  0  0
  -28.7840  -19.5050   26.5010 C   0  0  0  0  0  2  0  0  0  0  0  0
  -27.3430  -19.5530   25.9570 C   0  0  0  0  0  2  0  0  0  0  0  0
  -26.4780  -18.3720   26.4290 C   0  0  0  0  0  2  0  0  0  0  0  0
  -25.2730  -16.6230   25.0970 C   0  0  0  0  0  0  0  0  0  0  0  0
  -25.3260  -15.6880   24.1550 N   0  0  0  0  0  4  0  0  0  0  0  0
  -24.1200  -16.8560   25.7190 N   0  0  0  0  0  0  0  0  0  0  0  0
  -26.3760  -17.3170   25.4070 N   0  0  0  0  0  0  0  0  0  0  0  0
  -24.5190  -15.1410   23.8900 H   0  0  0  0  0  0  0  0  0  0  0  0
  -26.1860  -15.4830   23.6650 H   0  0  0  0  0  0  0  0  0  0  0  0
  -23.2780  -16.3400   25.5100 H   0  0  0  0  0  0  0  0  0  0  0  0
  -24.0590  -17.5560   26.4430 H   0  0  0  0  0  0  0  0  0  0  0  0
  -27.2430  -17.0740   24.9480 H   0  0  0  0  0  0  0  0  0  0  0  0
  -29.7060  -21.6050   25.3050 C   0  0  0  0  0  2  0  0  0  0  0  0
  -29.5860  -22.0040   23.8170 C   0  0  0  0  0  2  0  0  0  0  0  0
  -29.2870  -23.4930   23.5800 C   0  0  0  0  0  2  0  0  0  0  0  0
  -29.2100  -23.7700   22.1320 N   0  0  0  0  0  4  0  0  0  0  0  0
  -28.5060  -23.1690   21.7310 H   0  0  0  0  0  0  0  0  0  0  0  0
  -30.0940  -23.5150   21.7180 H   0  0  0  0  0  0  0  0  0  0  0  0
  -28.8990  -25.1690   21.7650 C   0  0  0  0  0  2  0  0  0  0  0  0
  -28.8600  -25.3380   20.2360 C   0  0  0  0  0  2  0  0  0  0  0  0
  -28.8400  -26.7200   19.9020 O   0  0  0  0  0  0  0  0  0  0  0  0
  -24.9990  -31.5150   23.4380 C   0  0  0  0  0  0  0  0  0  0  0  0
  -27.6430  -27.3840   19.9880 C   0  0  0  0  0  0  0  0  0  0  0  0
  -23.8060  -30.3250   21.6230 C   0  0  0  0  0  3  0  0  0  0  0  0
  -25.2670  -28.9010   20.0910 C   0  0  0  0  0  0  0  0  0  0  0  0
  -26.3390  -30.6490   21.5290 C   0  0  0  0  0  2  0  0  0  0  0  0
  -26.4150  -29.3480   20.7590 C   0  0  0  0  0  0  0  0  0  0  0  0
  -27.6050  -28.5980   20.7030 C   0  0  0  0  0  3  0  0  0  0  0  0
  -26.4790  -26.9370   19.3220 C   0  0  0  0  0  3  0  0  0  0  0  0
  -25.2920  -27.6910   19.3730 C   0  0  0  0  0  3  0  0  0  0  0  0
  -24.0400  -29.7810   20.1860 C   0  0  0  0  0  2  0  0  0  0  0  0
  -25.0640  -30.8390   22.2570 N   0  0  0  0  0  0  0  0  0  0  0  0
  -23.9100  -31.7570   23.9760 O   0  0  0  0  0  0  0  0  0  0  0  0
  -23.1050  -29.2270   22.4530 C   0  0  0  0  0  0  0  0  0  0  0  0
  -21.7830  -29.0970   22.2670 N   0  0  0  0  0  0  0  0  0  0  0  0
  -23.7480  -28.5000   23.2130 O   0  0  0  0  0  0  0  0  0  0  0  0
  -21.3310  -29.7370   21.6300 H   0  0  0  0  0  0  0  0  0  0  0  0
  -18.3600  -27.9700   22.5460 C   0  0  0  0  0  0  0  0  0  0  0  0
  -20.9160  -28.1080   22.9090 C   0  0  0  0  0  3  0  0  0  0  0  0
  -20.9930  -26.7480   22.1790 C   0  0  0  0  0  2  0  0  0  0  0  0
  -19.9100  -26.5780   21.1080 C   0  0  0  0  0  2  0  0  0  0  0  0
  -18.5150  -26.6980   21.7300 C   0  0  0  0  0  2  0  0  0  0  0  0
  -19.4900  -28.6420   23.0850 C   0  0  0  0  0  0  0  0  0  0  0  0
  -19.2980  -29.8410   23.8060 C   0  0  0  0  0  3  0  0  0  0  0  0
  -18.0070  -30.3680   23.9940 C   0  0  0  0  0  3  0  0  0  0  0  0
  -16.8910  -29.6920   23.4730 C   0  0  0  0  0  3  0  0  0  0  0  0
  -17.0680  -28.4960   22.7540 C   0  0  0  0  0  3  0  0  0  0  0  0
  -26.2830  -32.0400   24.1550 C   0  0  0  0  0  3  0  0  0  0  0  0
  -26.0080  -33.4090   24.6090 N   0  0  0  0  0  0  0  0  0  0  0  0
  -26.4220  -34.5170   23.9780 C   0  0  0  0  0  0  0  0  0  0  0  0
  -27.1480  -34.4890   22.9810 O   0  0  0  0  0  0  0  0  0  0  0  0
  -25.3770  -33.5100   25.3900 H   0  0  0  0  0  0  0  0  0  0  0  0
  -24.7940  -36.4120   23.7010 C   0  0  0  0  0  1  0  0  0  0  0  0
  -25.9580  -35.8710   24.5460 C   0  0  0  0  0  3  0  0  0  0  0  0
  -28.0580  -36.5670   25.6110 C   0  0  0  0  0  1  0  0  0  0  0  0
  -27.0360  -36.8810   24.6140 N   0  0  0  0  0  0  0  0  0  0  0  0
  -26.6560  -37.7980   24.8330 H   0  0  0  0  0  0  0  0  0  0  0  0
  -26.7350  -31.1320   25.3620 C   0  0  1  0  0  0  0  0  0  0  0  0
  -25.5990  -30.8210   26.3630 C   0  0  0  0  0  1  0  0  0  0  0  0
  -27.2970  -29.7860   24.8460 C   0  0  0  0  0  1  0  0  0  0  0  0
  -27.8770  -31.8240   26.1420 C   0  0  0  0  0  1  0  0  0  0  0  0
  1 59  1  0
  1 47  1  0
  2  3  1  0
  2  4  2  0
  3  1  1  0
  5  3  1  0
  6  2  1  0
  7  6  2  0
  8  7  1  0
  9 17  1  0
 10 15  1  0
 11 12  1  0
 11 10  1  0
 13 12  1  0
 13 22  1  0
 13 14  1  0
 15  9  1  0
 15 14  1  0
 16  9  2  0
 17  8  1  0
 17 18  1  0
 19 20  2  0
 20 39  1  0
 21 24  1  0
 21 20  1  0
 22 23  1  0
 22 19  1  0
 23 21  2  0
 24 25  1  0
 25 26  2  0
 27 30  1  0
 27 26  1  0
 28 27  2  0
 29 28  1  0
 29 24  2  0
 30 31  1  0
 31 32  1  0
 32 33  2  0
 34 33  1  0
 34 38  1  0
 35 34  2  0
 36 31  2  0
 36 35  1  0
 37 36  1  0
 39 40  1  0
 40 42  1  0
 40 43  1  0
 41 39  2  0
 44 19  1  0
 44 45  1  0
 46 44  1  0
 48 49  1  0
 48 47  1  0
 50 53  1  0
 50 52  1  0
 51 50  2  0
 52 57  1  0
 53 49  1  0
 54 51  1  0
 55 51  1  0
 56 52  1  0
 58 53  1  0
 60 59  1  0
 61 60  1  0
 62 61  1  0
 63 62  1  0
 64 62  1  0
 65 62  1  0
 66 65  1  0
 67 69  1  0
 67 66  1  0
 68 79  2  0
 69 74  1  0
 70 78  1  0
 70 80  1  0
 71 77  1  0
 71 73  1  0
 72 78  1  0
 73 72  1  0
 74 73  2  0
 75 76  1  0
 75 69  2  0
 76 71  2  0
 77 70  1  0
 78 68  1  0
 80 82  2  0
 81 80  1  0
 83 81  1  0
 84 93  2  0
 84 89  1  0
 85 81  1  0
 85 89  1  0
 86 85  1  0
 87 88  1  0
 87 86  1  0
 88 84  1  0
 89 90  2  0
 90 91  1  0
 92 91  2  0
 93 92  1  0
 94 68  1  0
 94 95  1  0
 94104  1  0
 95 98  1  0
 96100  1  0
 96 95  1  0
 97 96  2  0
100 99  1  0
100102  1  0
102103  1  0
102101  1  0
104107  1  1
104105  1  0
106104  1  0
M  ISO  4   9 100  17 100  66 101  67 101
M  END
>  <TORSDO>  (65) 
F 29

>  <SCORE>  (65) 
20.034

>  <name>  (65) 
69

>  <ligand_id>  (65) 
69

>  <original_smiles>  (65) 
[H]C(C(=O)N([H])C([H])(C([H])([H])C([H])([H])C([H])([H])N([H])C(N([H])[H])=[N+]([H])[H])C([H])([H])C([H])([H])C([H])([H])[N+]([H])([H])C([H])([H])C([H])([H])Oc1c([H])c([H])c2c(c1[H])C([H])([H])N(C(=O)C([H])(N([H])C(=O)C([H])(N([H])C([H])([H])[H])C([H])([H])[H])C(C([H])([H])[H])(C([H])([H])[H])C([H])([H])[H])C([H])(C(=O)N([H])C1([H])c3c([H])c([H])c([H])c([H])c3C([H])([H])C([H])([H])C1([H])[H])C2([H])[H])=C([H])C([H])([H])N([H])C(=O)N1C([H])([H])C([H])([H])C([H])([H])C([H])(n2nc(-c3c([H])c([H])c(Oc4c([H])c([H])c(F)c([H])c4F)c([H])c3[H])c(C(=O)N([H])[H])c2N([H])[H])C1([H])[H]

>  <smiles>  (65) 
[H]C(C(=O)N([H])C([H])(C([H])([H])C([H])([H])C([H])([H])N([H])C(N([H])[H])=[N+]([H])[H])C([H])([H])C([H])([H])C([H])([H])[N+]([H])([H])C([H])([H])C([H])([H])Oc1c([H])c([H])c2c(c1[H])C([H])([H])N(C(=O)C([H])(N([H])C(=O)C([H])(N([H])C([H])([H])[H])C([H])([H])[H])C(C([H])([H])[H])(C([H])([H])[H])C([H])([H])[H])C([H])(C(=O)N([H])C1([H])c3c([H])c([H])c([H])c([H])c3C([H])([H])C([H])([H])C1([H])[H])C2([H])[H])=C([H])C([H])([H])N([H])C(=O)N1C([H])([H])C([H])([H])C([H])([H])C([H])(n2nc(-c3c([H])c([H])c(Oc4c([H])c([H])c(F)c([H])c4F)c([H])c3[H])c(C(=O)N([H])[H])c2N([H])[H])C1([H])[H]

$$$$
70:0:0
     RDKit          3D

 96103  0  0  1  0  0  0  0  0999 V2000
  -29.9710  -20.5640   25.3260 C   0  0  0  0  0  2  0  0  0  0  0  0
  -28.7870  -19.7870   25.9310 C   0  0  0  0  0  2  0  0  0  0  0  0
  -29.0880  -18.3280   26.3330 C   0  0  0  0  0  2  0  0  0  0  0  0
  -29.6910  -17.5220   25.2460 N   0  0  0  0  0  4  0  0  0  0  0  0
  -28.9720  -17.0340   24.7380 H   0  0  0  0  0  0  0  0  0  0  0  0
  -30.2530  -16.8140   25.6920 H   0  0  0  0  0  0  0  0  0  0  0  0
  -30.5880  -18.2400   24.3140 C   0  0  0  0  0  2  0  0  0  0  0  0
  -30.2850  -17.9050   22.8400 C   0  0  0  0  0  2  0  0  0  0  0  0
  -31.5030  -18.1340   21.9290 C   0  0  0  0  0  2  0  0  0  0  0  0
  -31.4990  -17.2710   20.6540 C   0  0  0  0  0  2  0  0  0  0  0  0
  -31.6470  -14.7800   20.5110 C   0  0  0  0  0  0  0  0  0  0  0  0
  -31.5120  -12.3160   20.4340 C   0  0  0  0  0  2  0  0  0  0  0  0
  -30.6800  -11.8390   19.2290 C   0  0  0  0  0  2  0  0  0  0  0  0
  -29.1820  -11.7980   19.5850 C   0  0  0  0  0  2  0  0  0  0  0  0
  -28.6910  -13.1140   20.2440 C   0  0  0  0  0  3  0  0  0  0  0  0
  -29.6360  -13.5350   21.3900 C   0  0  0  0  0  2  0  0  0  0  0  0
  -31.0070  -13.6320   20.8530 N   0  0  0  0  0  0  0  0  0  0  0  0
  -32.7080  -14.8020   19.8800 O   0  0  0  0  0  0  0  0  0  0  0  0
  -31.0510  -15.9050   20.9240 N   0  0  0  0  0  0  0  0  0  0  0  0
  -30.1880  -15.7910   21.4350 H   0  0  0  0  0  0  0  0  0  0  0  0
  -26.3980  -13.9920   21.0240 C   0  0  0  0  0  0  0  0  0  0  0  0
  -25.2270  -13.3490   21.3240 C   0  0  0  0  0  0  0  0  0  0  0  0
  -25.4870  -11.9550   21.1550 C   0  0  0  0  0  0  0  0  0  0  0  0
  -27.3070  -12.9950   20.7010 N   0  0  0  0  0  0  0  0  0  0  0  0
  -26.7600  -11.7610   20.8320 N   0  0  0  0  0  0  0  0  0  0  0  0
  -24.5860  -10.7980   21.2260 C   0  0  0  0  0  0  0  0  0  0  0  0
  -24.8010   -9.7500   22.1480 C   0  0  0  0  0  3  0  0  0  0  0  0
  -23.9100   -8.6570   22.2110 C   0  0  0  0  0  3  0  0  0  0  0  0
  -22.7900   -8.6050   21.3460 C   0  0  0  0  0  0  0  0  0  0  0  0
  -22.5930   -9.6400   20.4150 C   0  0  0  0  0  3  0  0  0  0  0  0
  -23.4840  -10.7240   20.3520 C   0  0  0  0  0  3  0  0  0  0  0  0
  -21.8870   -7.5700   21.3180 O   0  0  0  0  0  0  0  0  0  0  0  0
  -21.5200   -6.9020   22.4590 C   0  0  0  0  0  0  0  0  0  0  0  0
  -20.9750   -7.5750   23.5740 C   0  0  0  0  0  3  0  0  0  0  0  0
  -20.5480   -6.8420   24.6990 C   0  0  0  0  0  3  0  0  0  0  0  0
  -20.6540   -5.4380   24.7080 C   0  0  0  0  0  0  0  0  0  0  0  0
  -21.1920   -4.7660   23.5960 C   0  0  0  0  0  3  0  0  0  0  0  0
  -21.6210   -5.4960   22.4730 C   0  0  0  0  0  0  0  0  0  0  0  0
  -22.1170   -4.8420   21.3960 F   0  0  0  0  0  0  0  0  0  0  0  0
  -20.2370   -4.7330   25.7850 F   0  0  0  0  0  0  0  0  0  0  0  0
  -23.9120  -13.9940   21.6580 C   0  0  0  0  0  0  0  0  0  0  0  0
  -23.1150  -13.3560   22.5090 N   0  0  0  0  0  0  0  0  0  0  0  0
  -23.6050  -15.0940   21.2030 O   0  0  0  0  0  0  0  0  0  0  0  0
  -23.3740  -12.4610   22.8990 H   0  0  0  0  0  0  0  0  0  0  0  0
  -22.2310  -13.7680   22.7740 H   0  0  0  0  0  0  0  0  0  0  0  0
  -26.7600  -15.3350   20.9820 N   0  0  0  0  0  0  0  0  0  0  0  0
  -26.1000  -16.0820   21.1650 H   0  0  0  0  0  0  0  0  0  0  0  0
  -27.6740  -15.6730   20.7040 H   0  0  0  0  0  0  0  0  0  0  0  0
  -29.5000  -21.8320   24.6020 C   0  0  0  0  0  2  0  0  0  0  0  0
  -30.5510  -22.4260   23.6530 C   0  0  0  0  0  2  0  0  0  0  0  0
  -29.9120  -23.3710   22.6310 C   0  0  0  0  0  2  0  0  0  0  0  0
  -30.9010  -23.8550   21.7340 O   0  0  0  0  0  0  0  0  0  0  0  0
  -30.3600  -24.1660   20.4590 C   0  0  0  0  0  2  0  0  0  0  0  0
  -30.9890  -25.4490   19.9050 C   0  0  0  0  0  2  0  0  0  0  0  0
  -30.3400  -25.8570   18.5760 C   0  0  0  0  0  2  0  0  0  0  0  0
  -30.0430  -27.2540   18.6000 O   0  0  0  0  0  0  0  0  0  0  0  0
  -25.4430  -30.1990   23.1460 C   0  0  0  0  0  0  0  0  0  0  0  0
  -28.7350  -27.6040   18.8430 C   0  0  0  0  0  0  0  0  0  0  0  0
  -24.4410  -29.0660   21.1890 C   0  0  0  0  0  3  0  0  0  0  0  0
  -26.0700  -28.3910   19.3480 C   0  0  0  0  0  0  0  0  0  0  0  0
  -26.7880  -30.0700   21.0550 C   0  0  0  0  0  2  0  0  0  0  0  0
  -27.1250  -28.9980   20.0410 C   0  0  0  0  0  0  0  0  0  0  0  0
  -28.4580  -28.6120   19.7900 C   0  0  0  0  0  3  0  0  0  0  0  0
  -27.6600  -27.0130   18.1370 C   0  0  0  0  0  3  0  0  0  0  0  0
  -26.3330  -27.3930   18.3950 C   0  0  0  0  0  3  0  0  0  0  0  0
  -24.6740  -28.8730   19.6660 C   0  0  0  0  0  2  0  0  0  0  0  0
  -25.5780  -29.7780   21.8570 N   0  0  0  0  0  0  0  0  0  0  0  0
  -24.3830  -30.0370   23.7640 O   0  0  0  0  0  0  0  0  0  0  0  0
  -24.1310  -27.6880   21.8150 C   0  0  0  0  0  0  0  0  0  0  0  0
  -22.9070  -27.1890   21.5790 N   0  0  0  0  0  0  0  0  0  0  0  0
  -24.9830  -27.0840   22.4720 O   0  0  0  0  0  0  0  0  0  0  0  0
  -22.2630  -27.7510   21.0400 H   0  0  0  0  0  0  0  0  0  0  0  0
  -20.0480  -24.9830   21.4980 C   0  0  0  0  0  0  0  0  0  0  0  0
  -22.4030  -25.8950   22.0400 C   0  0  0  0  0  3  0  0  0  0  0  0
  -22.9400  -24.7440   21.1590 C   0  0  0  0  0  2  0  0  0  0  0  0
  -21.9990  -24.3760   20.0070 C   0  0  0  0  0  2  0  0  0  0  0  0
  -20.6310  -23.9520   20.5460 C   0  0  0  0  0  2  0  0  0  0  0  0
  -20.8790  -25.9060   22.1870 C   0  0  0  0  0  0  0  0  0  0  0  0
  -20.2800  -26.8670   23.0310 C   0  0  0  0  0  3  0  0  0  0  0  0
  -18.8830  -26.9140   23.1940 C   0  0  0  0  0  3  0  0  0  0  0  0
  -18.0660  -25.9880   22.5200 C   0  0  0  0  0  3  0  0  0  0  0  0
  -18.6500  -25.0230   21.6780 C   0  0  0  0  0  3  0  0  0  0  0  0
  -26.6050  -30.9220   23.8960 C   0  0  0  0  0  3  0  0  0  0  0  0
  -26.0810  -32.2020   24.3910 N   0  0  0  0  0  0  0  0  0  0  0  0
  -26.2940  -33.3860   23.8020 C   0  0  0  0  0  0  0  0  0  0  0  0
  -27.0200  -33.5240   22.8150 O   0  0  0  0  0  0  0  0  0  0  0  0
  -25.4340  -32.1570   25.1630 H   0  0  0  0  0  0  0  0  0  0  0  0
  -24.3420  -34.9550   23.5730 C   0  0  0  0  0  1  0  0  0  0  0  0
  -25.5870  -34.6140   24.4090 C   0  0  0  0  0  3  0  0  0  0  0  0
  -27.5310  -35.6520   25.4920 C   0  0  0  0  0  1  0  0  0  0  0  0
  -26.4610  -35.8030   24.5100 N   0  0  0  0  0  0  0  0  0  0  0  0
  -25.9190  -36.6270   24.7570 H   0  0  0  0  0  0  0  0  0  0  0  0
  -27.2080  -30.0680   25.0790 C   0  0  1  0  0  0  0  0  0  0  0  0
  -26.1430  -29.5320   26.0640 C   0  0  0  0  0  1  0  0  0  0  0  0
  -27.9950  -28.8560   24.5290 C   0  0  0  0  0  1  0  0  0  0  0  0
  -28.2160  -30.9220   25.8820 C   0  0  0  0  0  1  0  0  0  0  0  0
  1  2  1  0
  2  3  1  0
  4  6  1  0
  4  3  1  0
  5  4  1  0
  7  4  1  0
  8  7  1  0
  9  8  1  0
 10 19  1  0
 10  9  1  0
 11 17  1  0
 11 19  1  0
 12 17  1  0
 13 14  1  0
 13 12  1  0
 15 14  1  0
 15 24  1  0
 15 16  1  0
 17 16  1  0
 18 11  2  0
 19 20  1  0
 21 22  2  0
 22 41  1  0
 23 26  1  0
 23 22  1  0
 24 25  1  0
 24 21  1  0
 25 23  2  0
 26 27  1  0
 27 28  2  0
 29 28  1  0
 30 29  2  0
 31 30  1  0
 31 26  2  0
 32 29  1  0
 32 33  1  0
 33 38  2  0
 33 34  1  0
 34 35  2  0
 35 36  1  0
 36 40  1  0
 37 36  2  0
 38 37  1  0
 39 38  1  0
 41 42  1  0
 42 45  1  0
 42 44  1  0
 43 41  2  0
 46 21  1  0
 46 47  1  0
 48 46  1  0
 49  1  1  0
 50 49  1  0
 51 50  1  0
 52 51  1  0
 53 52  1  0
 54 53  1  0
 55 56  1  0
 55 54  1  0
 56 58  1  0
 57 68  2  0
 58 63  1  0
 59 69  1  0
 59 67  1  0
 60 66  1  0
 60 62  1  0
 61 67  1  0
 62 61  1  0
 63 62  2  0
 64 65  1  0
 64 58  2  0
 65 60  2  0
 66 59  1  0
 67 57  1  0
 69 71  2  0
 70 69  1  0
 72 70  1  0
 73 82  2  0
 73 78  1  0
 74 70  1  0
 74 78  1  0
 75 74  1  0
 76 77  1  0
 76 75  1  0
 77 73  1  0
 78 79  2  0
 79 80  1  0
 81 80  2  0
 82 81  1  0
 83 57  1  0
 83 84  1  0
 83 93  1  0
 84 87  1  0
 85 84  1  0
 85 89  1  0
 86 85  2  0
 89 88  1  0
 89 91  1  0
 91 92  1  0
 91 90  1  0
 93 96  1  1
 93 94  1  0
 95 93  1  0
M  ISO  4  11 100  19 100  55 101  56 101
M  END
>  <TORSDO>  (66) 
F 30

>  <SCORE>  (66) 
1.707

>  <name>  (66) 
70

>  <ligand_id>  (66) 
70

>  <original_smiles>  (66) 
[H]c1c([H])c([H])c2c(c1[H])C([H])([H])C([H])([H])C([H])([H])C2([H])N([H])C(=O)C1([H])N(C(=O)C([H])(N([H])C(=O)C([H])(N([H])C([H])([H])[H])C([H])([H])[H])C(C([H])([H])[H])(C([H])([H])[H])C([H])([H])[H])C([H])([H])c2c([H])c(OC([H])([H])C([H])([H])C([H])([H])OC([H])([H])C([H])([H])C([H])([H])C([H])([H])C([H])([H])C([H])([H])[N+]([H])([H])C([H])([H])C([H])([H])C([H])([H])C([H])([H])N([H])C(=O)N3C([H])([H])C([H])([H])C([H])([H])C([H])(n4nc(-c5c([H])c([H])c(Oc6c([H])c([H])c(F)c([H])c6F)c([H])c5[H])c(C(=O)N([H])[H])c4N([H])[H])C3([H])[H])c([H])c([H])c2C1([H])[H]

>  <smiles>  (66) 
[H]c1c([H])c([H])c2c(c1[H])C([H])([H])C([H])([H])C([H])([H])C2([H])N([H])C(=O)C1([H])N(C(=O)C([H])(N([H])C(=O)C([H])(N([H])C([H])([H])[H])C([H])([H])[H])C(C([H])([H])[H])(C([H])([H])[H])C([H])([H])[H])C([H])([H])c2c([H])c(OC([H])([H])C([H])([H])C([H])([H])OC([H])([H])C([H])([H])C([H])([H])C([H])([H])C([H])([H])C([H])([H])[N+]([H])([H])C([H])([H])C([H])([H])C([H])([H])C([H])([H])N([H])C(=O)N3C([H])([H])C([H])([H])C([H])([H])C([H])(n4nc(-c5c([H])c([H])c(Oc6c([H])c([H])c(F)c([H])c6F)c([H])c5[H])c(C(=O)N([H])[H])c4N([H])[H])C3([H])[H])c([H])c([H])c2C1([H])[H]

$$$$
71:0:0
     RDKit          3D

 91 98  0  0  1  0  0  0  0  0999 V2000
  -29.4110  -22.2830   19.5880 C   0  0  0  0  0  0  0  0  0  0  0  0
  -30.2370  -23.3080   19.3270 N   0  0  0  0  0  0  0  0  0  0  0  0
  -28.2470  -22.4300   19.9520 O   0  0  0  0  0  0  0  0  0  0  0  0
  -31.1840  -22.9900   19.1620 H   0  0  0  0  0  0  0  0  0  0  0  0
  -29.6290  -19.9090   20.1540 C   0  0  0  0  0  3  0  0  0  0  0  0
  -30.1020  -21.0000   19.5090 C   0  0  0  0  0  3  0  0  0  0  0  0
  -29.9650  -17.7860   21.2430 C   0  0  0  0  0  3  0  0  0  0  0  0
  -30.3400  -18.6240   20.2480 C   0  0  0  0  0  0  0  0  0  0  0  0
  -31.4720  -18.2420   19.2880 C   0  0  0  0  0  1  0  0  0  0  0  0
  -30.6870  -16.5150   21.6990 C   0  0  0  0  0  2  0  0  0  0  0  0
  -30.6910  -14.3830   20.4020 C   0  0  0  0  0  0  0  0  0  0  0  0
  -30.3410  -12.3020   19.1420 C   0  0  0  0  0  2  0  0  0  0  0  0
  -29.3620  -12.5650   17.9830 C   0  0  0  0  0  2  0  0  0  0  0  0
  -27.9000  -12.4510   18.4520 C   0  0  0  0  0  2  0  0  0  0  0  0
  -27.6210  -13.2060   19.7800 C   0  0  0  0  0  3  0  0  0  0  0  0
  -28.6970  -12.9060   20.8410 C   0  0  0  0  0  2  0  0  0  0  0  0
  -30.0070  -13.2200   20.2420 N   0  0  0  0  0  0  0  0  0  0  0  0
  -31.7340  -14.6460   19.8040 O   0  0  0  0  0  0  0  0  0  0  0  0
  -30.1110  -15.2510   21.2480 N   0  0  0  0  0  0  0  0  0  0  0  0
  -29.2910  -14.9040   21.7210 H   0  0  0  0  0  0  0  0  0  0  0  0
  -25.2290  -13.8050   20.5130 C   0  0  0  0  0  0  0  0  0  0  0  0
  -24.1700  -13.0380   20.8930 C   0  0  0  0  0  0  0  0  0  0  0  0
  -24.6310  -11.6800   20.8600 C   0  0  0  0  0  0  0  0  0  0  0  0
  -26.2750  -12.9280   20.2730 N   0  0  0  0  0  0  0  0  0  0  0  0
  -25.9160  -11.6440   20.5290 N   0  0  0  0  0  0  0  0  0  0  0  0
  -23.9120  -10.4190   21.0580 C   0  0  0  0  0  0  0  0  0  0  0  0
  -24.3670   -9.4380   21.9690 C   0  0  0  0  0  3  0  0  0  0  0  0
  -23.6400   -8.2420   22.1540 C   0  0  0  0  0  3  0  0  0  0  0  0
  -22.4510   -8.0130   21.4220 C   0  0  0  0  0  0  0  0  0  0  0  0
  -22.0210   -8.9810   20.4970 C   0  0  0  0  0  3  0  0  0  0  0  0
  -22.7450  -10.1700   20.3100 C   0  0  0  0  0  3  0  0  0  0  0  0
  -21.6990   -6.8660   21.5110 O   0  0  0  0  0  0  0  0  0  0  0  0
  -21.6770   -6.1070   22.6540 C   0  0  0  0  0  0  0  0  0  0  0  0
  -21.2600   -6.6420   23.8920 C   0  0  0  0  0  3  0  0  0  0  0  0
  -21.1880   -5.8130   25.0290 C   0  0  0  0  0  3  0  0  0  0  0  0
  -21.5190   -4.4490   24.9290 C   0  0  0  0  0  0  0  0  0  0  0  0
  -21.9280   -3.9110   23.6960 C   0  0  0  0  0  3  0  0  0  0  0  0
  -22.0050   -4.7390   22.5610 C   0  0  0  0  0  0  0  0  0  0  0  0
  -22.3750   -4.2100   21.3690 F   0  0  0  0  0  0  0  0  0  0  0  0
  -21.4440   -3.6500   26.0200 F   0  0  0  0  0  0  0  0  0  0  0  0
  -22.7750  -13.5090   21.1890 C   0  0  0  0  0  0  0  0  0  0  0  0
  -22.0640  -12.8170   22.0610 N   0  0  0  0  0  0  0  0  0  0  0  0
  -22.3270  -14.5400   20.6790 O   0  0  0  0  0  0  0  0  0  0  0  0
  -22.4340  -11.9780   22.4830 H   0  0  0  0  0  0  0  0  0  0  0  0
  -21.1370  -13.1270   22.3170 H   0  0  0  0  0  0  0  0  0  0  0  0
  -25.3980  -15.1790   20.3290 N   0  0  0  0  0  0  0  0  0  0  0  0
  -24.6240  -15.8290   20.4080 H   0  0  0  0  0  0  0  0  0  0  0  0
  -26.2430  -15.6020   19.9670 H   0  0  0  0  0  0  0  0  0  0  0  0
  -30.0770  -24.7350   19.7180 C   0  0  0  0  0  2  0  0  0  0  0  0
  -28.7000  -25.4450   19.3680 C   0  0  0  0  0  2  0  0  0  0  0  0
  -28.5260  -26.7360   20.0350 O   0  0  0  0  0  0  0  0  0  0  0  0
  -24.5600  -31.8630   23.2320 C   0  0  0  0  0  0  0  0  0  0  0  0
  -27.3020  -27.4210   20.0730 C   0  0  0  0  0  0  0  0  0  0  0  0
  -23.3560  -30.4440   21.5920 C   0  0  0  0  0  3  0  0  0  0  0  0
  -24.8210  -28.8750   20.1650 C   0  0  0  0  0  0  0  0  0  0  0  0
  -25.8910  -30.7610   21.4200 C   0  0  0  0  0  2  0  0  0  0  0  0
  -25.9710  -29.3950   20.7750 C   0  0  0  0  0  0  0  0  0  0  0  0
  -27.1950  -28.6810   20.7350 C   0  0  0  0  0  3  0  0  0  0  0  0
  -26.1420  -26.9370   19.4320 C   0  0  0  0  0  3  0  0  0  0  0  0
  -24.9080  -27.6420   19.4850 C   0  0  0  0  0  3  0  0  0  0  0  0
  -23.5530  -29.7190   20.2260 C   0  0  0  0  0  2  0  0  0  0  0  0
  -24.6190  -31.0460   22.1360 N   0  0  0  0  0  0  0  0  0  0  0  0
  -23.4810  -32.1390   23.7750 O   0  0  0  0  0  0  0  0  0  0  0  0
  -22.6930  -29.4490   22.5560 C   0  0  0  0  0  0  0  0  0  0  0  0
  -21.3720  -29.2690   22.3990 N   0  0  0  0  0  0  0  0  0  0  0  0
  -23.3680  -28.8300   23.3830 O   0  0  0  0  0  0  0  0  0  0  0  0
  -20.9050  -29.7960   21.6700 H   0  0  0  0  0  0  0  0  0  0  0  0
  -18.0000  -28.0660   22.8660 C   0  0  0  0  0  0  0  0  0  0  0  0
  -20.5490  -28.3400   23.1630 C   0  0  0  0  0  3  0  0  0  0  0  0
  -20.6700  -26.9090   22.5950 C   0  0  0  0  0  2  0  0  0  0  0  0
  -19.5860  -26.5720   21.5660 C   0  0  0  0  0  2  0  0  0  0  0  0
  -18.1970  -26.7140   22.1950 C   0  0  0  0  0  2  0  0  0  0  0  0
  -19.1080  -28.8380   23.3020 C   0  0  0  0  0  0  0  0  0  0  0  0
  -18.8790  -30.1030   23.8850 C   0  0  0  0  0  3  0  0  0  0  0  0
  -17.5720  -30.5980   24.0350 C   0  0  0  0  0  3  0  0  0  0  0  0
  -16.4750  -29.8220   23.6200 C   0  0  0  0  0  3  0  0  0  0  0  0
  -16.6910  -28.5570   23.0460 C   0  0  0  0  0  3  0  0  0  0  0  0
  -25.8430  -32.5020   23.8510 C   0  0  0  0  0  3  0  0  0  0  0  0
  -25.5310  -33.9050   24.1660 N   0  0  0  0  0  0  0  0  0  0  0  0
  -25.8760  -34.9630   23.4180 C   0  0  0  0  0  0  0  0  0  0  0  0
  -26.5610  -34.8610   22.3970 O   0  0  0  0  0  0  0  0  0  0  0  0
  -24.9380  -34.0390   24.9690 H   0  0  0  0  0  0  0  0  0  0  0  0
  -24.1450  -36.7640   23.0570 C   0  0  0  0  0  1  0  0  0  0  0  0
  -25.3900  -36.3620   23.8670 C   0  0  0  0  0  3  0  0  0  0  0  0
  -27.5230  -37.2430   24.7080 C   0  0  0  0  0  1  0  0  0  0  0  0
  -26.4300  -37.4130   23.7550 N   0  0  0  0  0  0  0  0  0  0  0  0
  -26.0310  -38.3390   23.8960 H   0  0  0  0  0  0  0  0  0  0  0  0
  -26.3440  -31.7540   25.1490 C   0  0  1  0  0  0  0  0  0  0  0  0
  -25.2430  -31.5180   26.2150 C   0  0  0  0  0  1  0  0  0  0  0  0
  -26.9230  -30.3770   24.7750 C   0  0  0  0  0  1  0  0  0  0  0  0
  -27.4930  -32.5560   25.8090 C   0  0  0  0  0  1  0  0  0  0  0  0
  1  3  2  0
  2  1  1  0
  2 49  1  0
  4  2  1  0
  5  8  1  0
  6  1  1  0
  6  5  2  0
  7 10  1  0
  8  7  2  0
  9  8  1  0
 11 19  1  0
 12 17  1  0
 13 14  1  0
 13 12  1  0
 15 14  1  0
 15 24  1  0
 15 16  1  0
 17 11  1  0
 17 16  1  0
 18 11  2  0
 19 10  1  0
 19 20  1  0
 21 22  2  0
 22 41  1  0
 23 22  1  0
 23 26  1  0
 24 21  1  0
 24 25  1  0
 25 23  2  0
 26 27  1  0
 27 28  2  0
 29 32  1  0
 29 28  1  0
 30 29  2  0
 31 30  1  0
 31 26  2  0
 32 33  1  0
 33 34  1  0
 34 35  2  0
 36 35  1  0
 36 40  1  0
 37 36  2  0
 38 33  2  0
 38 37  1  0
 39 38  1  0
 41 42  1  0
 42 45  1  0
 42 44  1  0
 43 41  2  0
 46 47  1  0
 46 21  1  0
 48 46  1  0
 50 49  1  0
 50 51  1  0
 51 53  1  0
 52 63  2  0
 53 58  1  0
 54 62  1  0
 54 64  1  0
 55 61  1  0
 55 57  1  0
 56 62  1  0
 57 56  1  0
 58 57  2  0
 59 60  1  0
 59 53  2  0
 60 55  2  0
 61 54  1  0
 62 52  1  0
 64 66  2  0
 65 64  1  0
 67 65  1  0
 68 77  2  0
 68 73  1  0
 69 65  1  0
 69 73  1  0
 70 69  1  0
 71 72  1  0
 71 70  1  0
 72 68  1  0
 73 74  2  0
 74 75  1  0
 76 75  2  0
 77 76  1  0
 78 52  1  0
 78 79  1  0
 78 88  1  0
 79 82  1  0
 80 84  1  0
 80 79  1  0
 81 80  2  0
 84 83  1  0
 86 84  1  0
 86 87  1  0
 86 85  1  0
 88 91  1  1
 88 89  1  0
 90 88  1  0
M  ISO  4  11 100  19 100  50 101  51 101
M  END
>  <TORSDO>  (67) 
F 21

>  <SCORE>  (67) 
-13.459

>  <name>  (67) 
71

>  <ligand_id>  (67) 
71

>  <original_smiles>  (67) 
[H]C(C(=O)N([H])C([H])([H])C([H])([H])Oc1c([H])c([H])c2c(c1[H])C([H])([H])N(C(=O)C([H])(N([H])C(=O)C([H])(N([H])C([H])([H])[H])C([H])([H])[H])C(C([H])([H])[H])(C([H])([H])[H])C([H])([H])[H])C([H])(C(=O)N([H])C1([H])c3c([H])c([H])c([H])c([H])c3C([H])([H])C([H])([H])C1([H])[H])C2([H])[H])=C([H])C(=C([H])C([H])([H])N([H])C(=O)N1C([H])([H])C([H])([H])C([H])([H])C([H])(n2nc(-c3c([H])c([H])c(Oc4c([H])c([H])c(F)c([H])c4F)c([H])c3[H])c(C(=O)N([H])[H])c2N([H])[H])C1([H])[H])C([H])([H])[H]

>  <smiles>  (67) 
[H]C(C(=O)N([H])C([H])([H])C([H])([H])Oc1c([H])c([H])c2c(c1[H])C([H])([H])N(C(=O)C([H])(N([H])C(=O)C([H])(N([H])C([H])([H])[H])C([H])([H])[H])C(C([H])([H])[H])(C([H])([H])[H])C([H])([H])[H])C([H])(C(=O)N([H])C1([H])c3c([H])c([H])c([H])c([H])c3C([H])([H])C([H])([H])C1([H])[H])C2([H])[H])=C([H])C(=C([H])C([H])([H])N([H])C(=O)N1C([H])([H])C([H])([H])C([H])([H])C([H])(n2nc(-c3c([H])c([H])c(Oc4c([H])c([H])c(F)c([H])c4F)c([H])c3[H])c(C(=O)N([H])[H])c2N([H])[H])C1([H])[H])C([H])([H])[H]

$$$$
72:0:0
     RDKit          3D

 90 97  0  0  1  0  0  0  0  0999 V2000
  -29.8770  -21.8530   20.4080 C   0  0  0  0  0  0  0  0  0  0  0  0
  -29.0340  -22.8920   20.5750 N   0  0  0  0  0  0  0  0  0  0  0  0
  -31.0670  -21.9910   20.1060 O   0  0  0  0  0  0  0  0  0  0  0  0
  -28.0830  -22.6350   20.8120 H   0  0  0  0  0  0  0  0  0  0  0  0
  -29.2130  -20.4440   20.6520 C   0  0  0  0  0  0  0  0  0  0  0  0
  -27.9810  -20.3470   20.7320 O   0  0  0  0  0  0  0  0  0  0  0  0
  -30.1220  -19.2700   20.7990 C   0  0  0  0  0  3  0  0  0  0  0  0
  -29.7040  -18.0250   21.1410 C   0  0  0  0  0  3  0  0  0  0  0  0
  -30.6420  -16.8300   21.3500 C   0  0  0  0  0  2  0  0  0  0  0  0
  -30.7200  -14.4690   20.4930 C   0  0  0  0  0  0  0  0  0  0  0  0
  -30.4030  -12.2960   19.3640 C   0  0  0  0  0  2  0  0  0  0  0  0
  -29.4770  -12.4790   18.1460 C   0  0  0  0  0  2  0  0  0  0  0  0
  -28.0000  -12.3540   18.5660 C   0  0  0  0  0  2  0  0  0  0  0  0
  -27.6520  -13.2210   19.8050 C   0  0  0  0  0  3  0  0  0  0  0  0
  -28.6940  -13.0240   20.9310 C   0  0  0  0  0  2  0  0  0  0  0  0
  -30.0240  -13.3070   20.3650 N   0  0  0  0  0  0  0  0  0  0  0  0
  -31.8540  -14.6190   20.0280 O   0  0  0  0  0  0  0  0  0  0  0  0
  -30.0620  -15.5050   21.0530 N   0  0  0  0  0  0  0  0  0  0  0  0
  -29.1250  -15.3210   21.3770 H   0  0  0  0  0  0  0  0  0  0  0  0
  -25.2550  -13.8570   20.4810 C   0  0  0  0  0  0  0  0  0  0  0  0
  -24.1750  -13.0980   20.8430 C   0  0  0  0  0  0  0  0  0  0  0  0
  -24.6230  -11.7420   20.8290 C   0  0  0  0  0  0  0  0  0  0  0  0
  -26.2930  -12.9630   20.2710 N   0  0  0  0  0  0  0  0  0  0  0  0
  -25.9160  -11.6860   20.5380 N   0  0  0  0  0  0  0  0  0  0  0  0
  -23.8810  -10.4880   21.0210 C   0  0  0  0  0  0  0  0  0  0  0  0
  -24.2970   -9.5220   21.9650 C   0  0  0  0  0  3  0  0  0  0  0  0
  -23.5580   -8.3330   22.1440 C   0  0  0  0  0  3  0  0  0  0  0  0
  -22.3900   -8.1000   21.3800 C   0  0  0  0  0  0  0  0  0  0  0  0
  -21.9930   -9.0540   20.4260 C   0  0  0  0  0  3  0  0  0  0  0  0
  -22.7320  -10.2360   20.2450 C   0  0  0  0  0  3  0  0  0  0  0  0
  -21.6260   -6.9630   21.4690 O   0  0  0  0  0  0  0  0  0  0  0  0
  -21.5590   -6.2280   22.6250 C   0  0  0  0  0  0  0  0  0  0  0  0
  -21.1230   -6.7940   23.8420 C   0  0  0  0  0  3  0  0  0  0  0  0
  -21.0040   -5.9860   24.9910 C   0  0  0  0  0  3  0  0  0  0  0  0
  -21.3090   -4.6130   24.9220 C   0  0  0  0  0  0  0  0  0  0  0  0
  -21.7360   -4.0470   23.7080 C   0  0  0  0  0  3  0  0  0  0  0  0
  -21.8570   -4.8520   22.5620 C   0  0  0  0  0  0  0  0  0  0  0  0
  -22.2500   -4.2970   21.3900 F   0  0  0  0  0  0  0  0  0  0  0  0
  -21.1860   -3.8350   26.0220 F   0  0  0  0  0  0  0  0  0  0  0  0
  -22.7790  -13.5900   21.0960 C   0  0  0  0  0  0  0  0  0  0  0  0
  -22.0370  -12.9090   21.9620 N   0  0  0  0  0  0  0  0  0  0  0  0
  -22.3550  -14.6150   20.5630 O   0  0  0  0  0  0  0  0  0  0  0  0
  -22.3930  -12.0790   22.4140 H   0  0  0  0  0  0  0  0  0  0  0  0
  -21.1000  -13.2210   22.1770 H   0  0  0  0  0  0  0  0  0  0  0  0
  -25.4380  -15.2230   20.2930 N   0  0  0  0  0  0  0  0  0  0  0  0
  -24.6790  -15.8920   20.3880 H   0  0  0  0  0  0  0  0  0  0  0  0
  -26.2970  -15.6450   19.9640 H   0  0  0  0  0  0  0  0  0  0  0  0
  -29.3750  -24.3300   20.5240 C   0  0  0  0  0  2  0  0  0  0  0  0
  -28.1830  -25.2050   20.0550 C   0  0  0  0  0  2  0  0  0  0  0  0
  -28.3720  -26.6350   20.1910 O   0  0  0  0  0  0  0  0  0  0  0  0
  -24.6080  -31.8900   23.2330 C   0  0  0  0  0  0  0  0  0  0  0  0
  -27.2230  -27.4130   20.1470 C   0  0  0  0  0  0  0  0  0  0  0  0
  -23.3960  -30.4970   21.5910 C   0  0  0  0  0  3  0  0  0  0  0  0
  -24.8420  -28.9620   20.1580 C   0  0  0  0  0  0  0  0  0  0  0  0
  -25.9280  -30.8390   21.3940 C   0  0  0  0  0  2  0  0  0  0  0  0
  -26.0080  -29.4680   20.7480 C   0  0  0  0  0  0  0  0  0  0  0  0
  -27.2020  -28.7040   20.7360 C   0  0  0  0  0  3  0  0  0  0  0  0
  -26.0350  -26.9400   19.5400 C   0  0  0  0  0  3  0  0  0  0  0  0
  -24.8530  -27.6980   19.5510 C   0  0  0  0  0  3  0  0  0  0  0  0
  -23.6030  -29.8270   20.2080 C   0  0  0  0  0  2  0  0  0  0  0  0
  -24.6630  -31.0910   22.1300 N   0  0  0  0  0  0  0  0  0  0  0  0
  -23.5270  -32.1650   23.7730 O   0  0  0  0  0  0  0  0  0  0  0  0
  -22.7420  -29.4740   22.5480 C   0  0  0  0  0  0  0  0  0  0  0  0
  -21.4160  -29.3000   22.4230 N   0  0  0  0  0  0  0  0  0  0  0  0
  -23.4240  -28.8390   23.3570 O   0  0  0  0  0  0  0  0  0  0  0  0
  -20.9270  -29.8640   21.7420 H   0  0  0  0  0  0  0  0  0  0  0  0
  -18.0340  -28.1340   22.9410 C   0  0  0  0  0  0  0  0  0  0  0  0
  -20.5960  -28.3650   23.1930 C   0  0  0  0  0  3  0  0  0  0  0  0
  -20.6800  -26.9370   22.6070 C   0  0  0  0  0  2  0  0  0  0  0  0
  -19.5670  -26.6300   21.6010 C   0  0  0  0  0  2  0  0  0  0  0  0
  -18.1920  -26.7860   22.2580 C   0  0  0  0  0  2  0  0  0  0  0  0
  -19.1640  -28.8820   23.3660 C   0  0  0  0  0  0  0  0  0  0  0  0
  -18.9620  -30.1440   23.9660 C   0  0  0  0  0  3  0  0  0  0  0  0
  -17.6650  -30.6580   24.1440 C   0  0  0  0  0  3  0  0  0  0  0  0
  -16.5500  -29.9070   23.7340 C   0  0  0  0  0  3  0  0  0  0  0  0
  -16.7360  -28.6470   23.1390 C   0  0  0  0  0  3  0  0  0  0  0  0
  -25.8950  -32.5160   23.8530 C   0  0  0  0  0  3  0  0  0  0  0  0
  -25.5880  -33.9110   24.1920 N   0  0  0  0  0  0  0  0  0  0  0  0
  -25.9080  -34.9670   23.4310 C   0  0  0  0  0  0  0  0  0  0  0  0
  -26.5640  -34.8670   22.3910 O   0  0  0  0  0  0  0  0  0  0  0  0
  -25.0040  -34.0620   25.0010 H   0  0  0  0  0  0  0  0  0  0  0  0
  -24.1660  -36.7520   23.1100 C   0  0  0  0  0  1  0  0  0  0  0  0
  -25.4230  -36.3520   23.9000 C   0  0  0  0  0  3  0  0  0  0  0  0
  -27.5680  -37.2430   24.6960 C   0  0  0  0  0  1  0  0  0  0  0  0
  -26.4490  -37.4090   23.7710 N   0  0  0  0  0  0  0  0  0  0  0  0
  -26.0430  -38.3280   23.9260 H   0  0  0  0  0  0  0  0  0  0  0  0
  -26.4190  -31.7340   25.1210 C   0  0  1  0  0  0  0  0  0  0  0  0
  -25.3290  -31.4860   26.1910 C   0  0  0  0  0  1  0  0  0  0  0  0
  -27.0010  -30.3610   24.7130 C   0  0  0  0  0  1  0  0  0  0  0  0
  -27.5720  -32.5230   25.7840 C   0  0  0  0  0  1  0  0  0  0  0  0
  1  2  1  0
  1  5  1  0
  2  4  1  0
  3  1  2  0
  5  6  2  0
  5  7  1  0
  7  8  2  0
  8  9  1  0
 10 18  1  0
 11 16  1  0
 12 13  1  0
 12 11  1  0
 14 13  1  0
 14 23  1  0
 14 15  1  0
 16 10  1  0
 16 15  1  0
 17 10  2  0
 18  9  1  0
 18 19  1  0
 20 21  2  0
 21 40  1  0
 22 21  1  0
 22 25  1  0
 23 20  1  0
 23 24  1  0
 24 22  2  0
 25 26  1  0
 26 27  2  0
 28 31  1  0
 28 27  1  0
 29 28  2  0
 30 29  1  0
 30 25  2  0
 31 32  1  0
 32 33  1  0
 33 34  2  0
 35 34  1  0
 35 39  1  0
 36 35  2  0
 37 32  2  0
 37 36  1  0
 38 37  1  0
 40 41  1  0
 41 44  1  0
 41 43  1  0
 42 40  2  0
 45 46  1  0
 45 20  1  0
 47 45  1  0
 48  2  1  0
 49 50  1  0
 49 48  1  0
 51 62  2  0
 52 50  1  0
 52 57  1  0
 53 61  1  0
 53 63  1  0
 54 60  1  0
 54 56  1  0
 55 61  1  0
 56 55  1  0
 57 56  2  0
 58 59  1  0
 58 52  2  0
 59 54  2  0
 60 53  1  0
 61 51  1  0
 63 65  2  0
 64 63  1  0
 66 64  1  0
 67 76  2  0
 67 72  1  0
 68 64  1  0
 68 72  1  0
 69 68  1  0
 70 71  1  0
 70 69  1  0
 71 67  1  0
 72 73  2  0
 73 74  1  0
 75 74  2  0
 76 75  1  0
 77 51  1  0
 77 78  1  0
 77 87  1  0
 78 81  1  0
 79 83  1  0
 79 78  1  0
 80 79  2  0
 83 82  1  0
 85 83  1  0
 85 86  1  0
 85 84  1  0
 87 90  1  1
 87 88  1  0
 89 87  1  0
M  ISO  4  10 100  18 100  49 101  50 101
M  END
>  <TORSDO>  (68) 
F 21

>  <SCORE>  (68) 
-13.371

>  <name>  (68) 
72

>  <ligand_id>  (68) 
72

>  <original_smiles>  (68) 
[H]C(C(=O)C(=O)N([H])C([H])([H])C([H])([H])Oc1c([H])c([H])c2c(c1[H])C([H])([H])N(C(=O)C([H])(N([H])C(=O)C([H])(N([H])C([H])([H])[H])C([H])([H])[H])C(C([H])([H])[H])(C([H])([H])[H])C([H])([H])[H])C([H])(C(=O)N([H])C1([H])c3c([H])c([H])c([H])c([H])c3C([H])([H])C([H])([H])C1([H])[H])C2([H])[H])=C([H])C([H])([H])N([H])C(=O)N1C([H])([H])C([H])([H])C([H])([H])C([H])(n2nc(-c3c([H])c([H])c(Oc4c([H])c([H])c(F)c([H])c4F)c([H])c3[H])c(C(=O)N([H])[H])c2N([H])[H])C1([H])[H]

>  <smiles>  (68) 
[H]C(C(=O)C(=O)N([H])C([H])([H])C([H])([H])Oc1c([H])c([H])c2c(c1[H])C([H])([H])N(C(=O)C([H])(N([H])C(=O)C([H])(N([H])C([H])([H])[H])C([H])([H])[H])C(C([H])([H])[H])(C([H])([H])[H])C([H])([H])[H])C([H])(C(=O)N([H])C1([H])c3c([H])c([H])c([H])c([H])c3C([H])([H])C([H])([H])C1([H])[H])C2([H])[H])=C([H])C([H])([H])N([H])C(=O)N1C([H])([H])C([H])([H])C([H])([H])C([H])(n2nc(-c3c([H])c([H])c(Oc4c([H])c([H])c(F)c([H])c4F)c([H])c3[H])c(C(=O)N([H])[H])c2N([H])[H])C1([H])[H]

$$$$
73:0:0
     RDKit          3D

 96103  0  0  1  0  0  0  0  0999 V2000
  -31.6340  -24.0950   18.1980 C   0  0  0  0  0  0  0  0  0  0  0  0
  -31.4560  -24.9330   17.1640 N   0  0  0  0  0  0  0  0  0  0  0  0
  -32.0760  -24.4830   19.2820 O   0  0  0  0  0  0  0  0  0  0  0  0
  -31.1050  -24.5360   16.3050 H   0  0  0  0  0  0  0  0  0  0  0  0
  -31.1970  -22.7310   17.9150 C   0  0  0  0  0  3  0  0  0  0  0  0
  -31.2020  -21.7820   18.8850 C   0  0  0  0  0  3  0  0  0  0  0  0
  -30.7300  -20.4250   18.6370 C   0  0  0  0  0  0  0  0  0  0  0  0
  -30.9910  -19.5810   19.6520 N   0  0  0  0  0  0  0  0  0  0  0  0
  -30.1510  -20.0600   17.6130 O   0  0  0  0  0  0  0  0  0  0  0  0
  -31.5430  -19.9500   20.4180 H   0  0  0  0  0  0  0  0  0  0  0  0
  -30.6830  -18.1370   19.6870 C   0  0  0  0  0  2  0  0  0  0  0  0
  -29.8010  -17.7110   20.8860 C   0  0  0  0  0  2  0  0  0  0  0  0
  -30.3350  -16.5000   21.6910 C   0  0  0  0  0  2  0  0  0  0  0  0
  -30.7340  -14.3430   20.3290 C   0  0  0  0  0  0  0  0  0  0  0  0
  -30.4360  -12.2610   19.0090 C   0  0  0  0  0  2  0  0  0  0  0  0
  -29.4490  -12.5380   17.8560 C   0  0  0  0  0  2  0  0  0  0  0  0
  -27.9860  -12.3930   18.3250 C   0  0  0  0  0  2  0  0  0  0  0  0
  -27.7070  -13.1730   19.6390 C   0  0  0  0  0  3  0  0  0  0  0  0
  -28.7750  -12.8140   20.6920 C   0  0  0  0  0  2  0  0  0  0  0  0
  -30.0910  -13.1630   20.1190 N   0  0  0  0  0  0  0  0  0  0  0  0
  -31.8070  -14.6410   19.7950 O   0  0  0  0  0  0  0  0  0  0  0  0
  -30.0440  -15.1740   21.1340 N   0  0  0  0  0  0  0  0  0  0  0  0
  -29.2010  -14.7420   21.4910 H   0  0  0  0  0  0  0  0  0  0  0  0
  -25.3420  -13.8410   20.4170 C   0  0  0  0  0  0  0  0  0  0  0  0
  -24.2710  -13.0900   20.8220 C   0  0  0  0  0  0  0  0  0  0  0  0
  -24.7020  -11.7310   20.7700 C   0  0  0  0  0  0  0  0  0  0  0  0
  -26.3590  -12.9340   20.1470 N   0  0  0  0  0  0  0  0  0  0  0  0
  -25.9780  -11.6600   20.4170 N   0  0  0  0  0  0  0  0  0  0  0  0
  -23.9550  -10.4840   20.9790 C   0  0  0  0  0  0  0  0  0  0  0  0
  -24.4050   -9.5030   21.8880 C   0  0  0  0  0  3  0  0  0  0  0  0
  -23.6660   -8.3180   22.0860 C   0  0  0  0  0  3  0  0  0  0  0  0
  -22.4610   -8.1070   21.3760 C   0  0  0  0  0  0  0  0  0  0  0  0
  -22.0290   -9.0770   20.4520 C   0  0  0  0  0  3  0  0  0  0  0  0
  -22.7680  -10.2530   20.2530 C   0  0  0  0  0  3  0  0  0  0  0  0
  -21.6870   -6.9760   21.4870 O   0  0  0  0  0  0  0  0  0  0  0  0
  -21.6700   -6.2230   22.6330 C   0  0  0  0  0  0  0  0  0  0  0  0
  -21.3140   -6.7730   23.8840 C   0  0  0  0  0  3  0  0  0  0  0  0
  -21.2450   -5.9460   25.0220 C   0  0  0  0  0  3  0  0  0  0  0  0
  -21.5170   -4.5690   24.9100 C   0  0  0  0  0  0  0  0  0  0  0  0
  -21.8590   -4.0180   23.6640 C   0  0  0  0  0  3  0  0  0  0  0  0
  -21.9320   -4.8420   22.5280 C   0  0  0  0  0  0  0  0  0  0  0  0
  -22.2440   -4.3010   21.3260 F   0  0  0  0  0  0  0  0  0  0  0  0
  -21.4380   -3.7720   26.0000 F   0  0  0  0  0  0  0  0  0  0  0  0
  -22.8940  -13.5980   21.1440 C   0  0  0  0  0  0  0  0  0  0  0  0
  -22.1760  -12.9120   22.0270 N   0  0  0  0  0  0  0  0  0  0  0  0
  -22.4600  -14.6360   20.6410 O   0  0  0  0  0  0  0  0  0  0  0  0
  -22.5390  -12.0790   22.4650 H   0  0  0  0  0  0  0  0  0  0  0  0
  -21.2490  -13.2310   22.2730 H   0  0  0  0  0  0  0  0  0  0  0  0
  -25.5370  -15.2090   20.2380 N   0  0  0  0  0  0  0  0  0  0  0  0
  -24.7820  -15.8780   20.3560 H   0  0  0  0  0  0  0  0  0  0  0  0
  -26.3900  -15.6250   19.8840 H   0  0  0  0  0  0  0  0  0  0  0  0
  -31.7640  -26.3720   17.1370 C   0  0  0  0  0  2  0  0  0  0  0  0
  -30.5270  -27.2560   16.8550 C   0  0  0  0  0  2  0  0  0  0  0  0
  -29.6970  -27.6440   18.1000 C   0  0  0  0  0  2  0  0  0  0  0  0
  -28.9050  -26.4860   18.7350 C   0  0  0  0  0  2  0  0  0  0  0  0
  -28.4500  -26.8140   20.0470 O   0  0  0  0  0  0  0  0  0  0  0  0
  -24.6080  -31.8780   23.2470 C   0  0  0  0  0  0  0  0  0  0  0  0
  -27.2590  -27.4900   20.1130 C   0  0  0  0  0  0  0  0  0  0  0  0
  -23.3990  -30.4820   21.6000 C   0  0  0  0  0  3  0  0  0  0  0  0
  -24.8490  -28.9450   20.1720 C   0  0  0  0  0  0  0  0  0  0  0  0
  -25.9220  -30.8370   21.4090 C   0  0  0  0  0  2  0  0  0  0  0  0
  -26.0030  -29.4700   20.7730 C   0  0  0  0  0  0  0  0  0  0  0  0
  -27.2050  -28.7410   20.7610 C   0  0  0  0  0  3  0  0  0  0  0  0
  -26.0850  -26.9490   19.5480 C   0  0  0  0  0  3  0  0  0  0  0  0
  -24.8800  -27.6760   19.5710 C   0  0  0  0  0  3  0  0  0  0  0  0
  -23.6050  -29.8000   20.2210 C   0  0  0  0  0  2  0  0  0  0  0  0
  -24.6610  -31.0810   22.1450 N   0  0  0  0  0  0  0  0  0  0  0  0
  -23.5290  -32.1510   23.7880 O   0  0  0  0  0  0  0  0  0  0  0  0
  -22.7450  -29.4620   22.5600 C   0  0  0  0  0  0  0  0  0  0  0  0
  -21.4200  -29.2830   22.4340 N   0  0  0  0  0  0  0  0  0  0  0  0
  -23.4250  -28.8310   23.3720 O   0  0  0  0  0  0  0  0  0  0  0  0
  -20.9310  -29.8430   21.7510 H   0  0  0  0  0  0  0  0  0  0  0  0
  -18.0400  -28.1190   22.9370 C   0  0  0  0  0  0  0  0  0  0  0  0
  -20.5990  -28.3470   23.2010 C   0  0  0  0  0  3  0  0  0  0  0  0
  -20.6840  -26.9180   22.6140 C   0  0  0  0  0  2  0  0  0  0  0  0
  -19.5770  -26.6150   21.6000 C   0  0  0  0  0  2  0  0  0  0  0  0
  -18.2000  -26.7710   22.2540 C   0  0  0  0  0  2  0  0  0  0  0  0
  -19.1660  -28.8670   23.3700 C   0  0  0  0  0  0  0  0  0  0  0  0
  -18.9630  -30.1330   23.9610 C   0  0  0  0  0  3  0  0  0  0  0  0
  -17.6630  -30.6460   24.1300 C   0  0  0  0  0  3  0  0  0  0  0  0
  -16.5510  -29.8920   23.7150 C   0  0  0  0  0  3  0  0  0  0  0  0
  -16.7390  -28.6330   23.1220 C   0  0  0  0  0  3  0  0  0  0  0  0
  -25.8960  -32.5010   23.8690 C   0  0  0  0  0  3  0  0  0  0  0  0
  -26.4050  -31.7240   25.1440 C   0  0  1  0  0  0  0  0  0  0  0  0
  -25.3080  -31.4850   26.2100 C   0  0  0  0  0  1  0  0  0  0  0  0
  -26.9800  -30.3470   24.7450 C   0  0  0  0  0  1  0  0  0  0  0  0
  -27.5690  -32.5020   25.7980 C   0  0  0  0  0  1  0  0  0  0  0  0
  -25.5920  -33.8990   24.1960 N   0  0  0  0  0  0  0  0  0  0  0  0
  -25.9440  -34.9480   23.4400 C   0  0  0  0  0  0  0  0  0  0  0  0
  -26.6290  -34.8370   22.4170 O   0  0  0  0  0  0  0  0  0  0  0  0
  -24.9690  -34.0550   24.9760 H   0  0  0  0  0  0  0  0  0  0  0  0
  -24.2360  -36.7530   23.0550 C   0  0  0  0  0  1  0  0  0  0  0  0
  -25.4640  -36.3430   23.8850 C   0  0  0  0  0  3  0  0  0  0  0  0
  -27.6000  -37.2070   24.7340 C   0  0  0  0  0  1  0  0  0  0  0  0
  -26.5090  -37.3860   23.7810 N   0  0  0  0  0  0  0  0  0  0  0  0
  -26.1110  -38.3100   23.9260 H   0  0  0  0  0  0  0  0  0  0  0  0
  1  3  2  0
  2  1  1  0
  4  2  1  0
  5  1  1  0
  5  6  2  0
  7  6  1  0
  7  8  1  0
  8 11  1  0
  8 10  1  0
  9  7  2  0
 11 12  1  0
 12 13  1  0
 14 22  1  0
 15 20  1  0
 16 17  1  0
 16 15  1  0
 18 17  1  0
 18 27  1  0
 18 19  1  0
 20 14  1  0
 20 19  1  0
 21 14  2  0
 22 23  1  0
 22 13  1  0
 24 25  2  0
 25 44  1  0
 26 25  1  0
 26 29  1  0
 27 24  1  0
 27 28  1  0
 28 26  2  0
 29 30  1  0
 30 31  2  0
 32 35  1  0
 32 31  1  0
 33 32  2  0
 34 33  1  0
 34 29  2  0
 35 36  1  0
 36 37  1  0
 37 38  2  0
 39 38  1  0
 39 43  1  0
 40 39  2  0
 41 36  2  0
 41 40  1  0
 42 41  1  0
 44 45  1  0
 45 48  1  0
 45 47  1  0
 46 44  2  0
 49 50  1  0
 49 24  1  0
 51 49  1  0
 52  2  1  0
 53 52  1  0
 53 54  1  0
 54 55  1  0
 55 56  1  0
 56 58  1  0
 57 68  2  0
 58 63  1  0
 59 67  1  0
 59 69  1  0
 60 66  1  0
 60 62  1  0
 61 67  1  0
 62 61  1  0
 63 62  2  0
 64 65  1  0
 64 58  2  0
 65 60  2  0
 66 59  1  0
 67 57  1  0
 69 71  2  0
 70 69  1  0
 72 70  1  0
 73 82  2  0
 73 78  1  0
 74 70  1  0
 74 78  1  0
 75 74  1  0
 76 77  1  0
 76 75  1  0
 77 73  1  0
 78 79  2  0
 79 80  1  0
 81 80  2  0
 82 81  1  0
 83 57  1  0
 83 88  1  0
 83 84  1  0
 84 87  1  1
 84 85  1  0
 86 84  1  0
 88 91  1  0
 89 93  1  0
 89 88  1  0
 90 89  2  0
 93 92  1  0
 95 93  1  0
 95 96  1  0
 95 94  1  0
M  ISO  4  14 100  22 100  55 101  56 101
M  END
>  <TORSDO>  (69) 
F 25

>  <SCORE>  (69) 
-12.141

>  <name>  (69) 
73

>  <ligand_id>  (69) 
73

>  <original_smiles>  (69) 
[H]C(C(=O)N([H])C([H])([H])C([H])([H])C([H])([H])N([H])C(=O)N1C([H])([H])C([H])([H])C([H])([H])C([H])(n2nc(-c3c([H])c([H])c(Oc4c([H])c([H])c(F)c([H])c4F)c([H])c3[H])c(C(=O)N([H])[H])c2N([H])[H])C1([H])[H])=C([H])C(=O)N([H])C([H])([H])C([H])([H])C([H])([H])C([H])([H])Oc1c([H])c([H])c2c(c1[H])C([H])([H])N(C(=O)C([H])(N([H])C(=O)C([H])(N([H])C([H])([H])[H])C([H])([H])[H])C(C([H])([H])[H])(C([H])([H])[H])C([H])([H])[H])C([H])(C(=O)N([H])C1([H])c3c([H])c([H])c([H])c([H])c3C([H])([H])C([H])([H])C1([H])[H])C2([H])[H]

>  <smiles>  (69) 
[H]C(C(=O)N([H])C([H])([H])C([H])([H])C([H])([H])N([H])C(=O)N1C([H])([H])C([H])([H])C([H])([H])C([H])(n2nc(-c3c([H])c([H])c(Oc4c([H])c([H])c(F)c([H])c4F)c([H])c3[H])c(C(=O)N([H])[H])c2N([H])[H])C1([H])[H])=C([H])C(=O)N([H])C([H])([H])C([H])([H])C([H])([H])C([H])([H])Oc1c([H])c([H])c2c(c1[H])C([H])([H])N(C(=O)C([H])(N([H])C(=O)C([H])(N([H])C([H])([H])[H])C([H])([H])[H])C(C([H])([H])[H])(C([H])([H])[H])C([H])([H])[H])C([H])(C(=O)N([H])C1([H])c3c([H])c([H])c([H])c([H])c3C([H])([H])C([H])([H])C1([H])[H])C2([H])[H]

$$$$
74:0:0
     RDKit          3D

104111  0  0  1  0  0  0  0  0999 V2000
  -34.3540  -24.5880   20.3450 C   0  0  0  0  0  0  0  0  0  0  0  0
  -34.2830  -25.9080   20.5870 N   0  0  0  0  0  0  0  0  0  0  0  0
  -35.1680  -23.9120   20.9640 O   0  0  0  0  0  0  0  0  0  0  0  0
  -34.9520  -26.2340   21.2720 H   0  0  0  0  0  0  0  0  0  0  0  0
  -33.4020  -24.4930   18.0770 C   0  0  0  0  0  3  0  0  0  0  0  0
  -33.4740  -24.0220   19.3370 C   0  0  0  0  0  3  0  0  0  0  0  0
  -32.5630  -23.8010   17.1110 C   0  0  0  0  0  0  0  0  0  0  0  0
  -31.5730  -24.5290   16.5830 N   0  0  0  0  0  0  0  0  0  0  0  0
  -32.7270  -22.6330   16.7600 O   0  0  0  0  0  0  0  0  0  0  0  0
  -31.0010  -24.0660   15.8900 H   0  0  0  0  0  0  0  0  0  0  0  0
  -31.1370  -25.8570   16.9940 C   0  0  0  0  0  2  0  0  0  0  0  0
  -29.6360  -25.8930   17.2690 C   0  0  0  0  0  2  0  0  0  0  0  0
  -29.4390  -26.7470   18.3960 O   0  0  0  0  0  0  0  0  0  0  0  0
  -25.1400  -29.8280   23.1650 C   0  0  0  0  0  0  0  0  0  0  0  0
  -28.1720  -27.2160   18.6630 C   0  0  0  0  0  0  0  0  0  0  0  0
  -24.0590  -29.0210   21.0960 C   0  0  0  0  0  3  0  0  0  0  0  0
  -25.6340  -28.3180   19.2250 C   0  0  0  0  0  0  0  0  0  0  0  0
  -26.5230  -29.7110   21.0960 C   0  0  0  0  0  2  0  0  0  0  0  0
  -26.7430  -28.7030   19.9850 C   0  0  0  0  0  0  0  0  0  0  0  0
  -28.0150  -28.1570   19.7030 C   0  0  0  0  0  3  0  0  0  0  0  0
  -27.0300  -26.8120   17.9290 C   0  0  0  0  0  3  0  0  0  0  0  0
  -25.7690  -27.3710   18.1980 C   0  0  0  0  0  3  0  0  0  0  0  0
  -24.3060  -28.9500   19.5690 C   0  0  0  0  0  2  0  0  0  0  0  0
  -25.2600  -29.5110   21.8450 N   0  0  0  0  0  0  0  0  0  0  0  0
  -24.0490  -29.7490   23.7490 O   0  0  0  0  0  0  0  0  0  0  0  0
  -23.5550  -27.6400   21.5830 C   0  0  0  0  0  0  0  0  0  0  0  0
  -22.2640  -27.3580   21.3430 N   0  0  0  0  0  0  0  0  0  0  0  0
  -24.3210  -26.8450   22.1330 O   0  0  0  0  0  0  0  0  0  0  0  0
  -21.7040  -28.0640   20.8850 H   0  0  0  0  0  0  0  0  0  0  0  0
  -19.0880  -25.6480   21.1550 C   0  0  0  0  0  0  0  0  0  0  0  0
  -21.5760  -26.1110   21.6800 C   0  0  0  0  0  3  0  0  0  0  0  0
  -21.8940  -25.0050   20.6460 C   0  0  0  0  0  2  0  0  0  0  0  0
  -20.8690  -24.9280   19.5110 C   0  0  0  0  0  2  0  0  0  0  0  0
  -19.4680  -24.6600   20.0680 C   0  0  0  0  0  2  0  0  0  0  0  0
  -20.0760  -26.3430   21.9020 C   0  0  0  0  0  0  0  0  0  0  0  0
  -19.6650  -27.2800   22.8750 C   0  0  0  0  0  3  0  0  0  0  0  0
  -18.2990  -27.5220   23.1090 C   0  0  0  0  0  3  0  0  0  0  0  0
  -17.3250  -26.8190   22.3790 C   0  0  0  0  0  3  0  0  0  0  0  0
  -17.7190  -25.8830   21.4070 C   0  0  0  0  0  3  0  0  0  0  0  0
  -26.3610  -30.3160   24.0010 C   0  0  0  0  0  3  0  0  0  0  0  0
  -26.7600  -29.3190   25.1580 C   0  0  1  0  0  0  0  0  0  0  0  0
  -25.5810  -28.9350   26.0820 C   0  0  0  0  0  1  0  0  0  0  0  0
  -27.3420  -28.0140   24.5680 C   0  0  0  0  0  1  0  0  0  0  0  0
  -27.8760  -29.9460   26.0270 C   0  0  0  0  0  1  0  0  0  0  0  0
  -26.0260  -31.6390   24.5450 N   0  0  0  0  0  0  0  0  0  0  0  0
  -26.5650  -32.7900   24.1260 C   0  0  0  0  0  0  0  0  0  0  0  0
  -27.4610  -32.8390   23.2790 O   0  0  0  0  0  0  0  0  0  0  0  0
  -25.2500  -31.6770   25.1920 H   0  0  0  0  0  0  0  0  0  0  0  0
  -25.0960  -34.7890   23.7310 C   0  0  0  0  0  1  0  0  0  0  0  0
  -26.0220  -34.0930   24.7410 C   0  0  0  0  0  3  0  0  0  0  0  0
  -27.8690  -34.5280   26.2960 C   0  0  0  0  0  1  0  0  0  0  0  0
  -27.0850  -35.0260   25.1700 N   0  0  0  0  0  0  0  0  0  0  0  0
  -26.6930  -35.9260   25.4350 H   0  0  0  0  0  0  0  0  0  0  0  0
  -33.3040  -26.9140   20.1820 C   0  0  0  0  0  2  0  0  0  0  0  0
  -32.2430  -27.1180   21.2760 C   0  0  0  0  0  2  0  0  0  0  0  0
  -31.5700  -25.9070   21.5890 O   0  0  0  0  0  0  0  0  0  0  0  0
  -30.3970  -25.6760   20.8200 C   0  0  0  0  0  2  0  0  0  0  0  0
  -29.6530  -24.5110   21.4780 C   0  0  0  0  0  2  0  0  0  0  0  0
  -28.2500  -24.2700   20.9120 C   0  0  0  0  0  2  0  0  0  0  0  0
  -28.3340  -23.8850   19.5430 O   0  0  0  0  0  0  0  0  0  0  0  0
  -27.2430  -23.0710   19.1310 C   0  0  0  0  0  2  0  0  0  0  0  0
  -27.4850  -21.6020   19.5350 C   0  0  0  0  0  2  0  0  0  0  0  0
  -28.0830  -20.7910   18.3730 C   0  0  0  0  0  2  0  0  0  0  0  0
  -28.0050  -19.2570   18.4900 C   0  0  0  0  0  2  0  0  0  0  0  0
  -28.0730  -18.7320   19.9380 C   0  0  0  0  0  2  0  0  0  0  0  0
  -29.4520  -18.2230   20.3780 C   0  0  0  0  0  2  0  0  0  0  0  0
  -30.9910  -16.3890   19.8920 C   0  0  0  0  0  0  0  0  0  0  0  0
  -32.9590  -15.0440   19.3070 C   0  0  0  0  0  2  0  0  0  0  0  0
  -34.1380  -15.9690   18.9580 C   0  0  0  0  0  2  0  0  0  0  0  0
  -34.1040  -16.3280   17.4600 C   0  0  0  0  0  2  0  0  0  0  0  0
  -32.7090  -16.8320   17.0000 C   0  0  0  0  0  3  0  0  0  0  0  0
  -31.5850  -15.8940   17.4900 C   0  0  0  0  0  2  0  0  0  0  0  0
  -31.7160  -15.7390   18.9470 N   0  0  0  0  0  0  0  0  0  0  0  0
  -31.2040  -16.2640   21.1010 O   0  0  0  0  0  0  0  0  0  0  0  0
  -30.0880  -17.2820   19.4520 N   0  0  0  0  0  0  0  0  0  0  0  0
  -29.9480  -17.3970   18.4590 H   0  0  0  0  0  0  0  0  0  0  0  0
  -32.2110  -18.1060   14.8210 C   0  0  0  0  0  0  0  0  0  0  0  0
  -32.4390  -17.7930   13.5100 C   0  0  0  0  0  0  0  0  0  0  0  0
  -33.0360  -16.4960   13.5090 C   0  0  0  0  0  0  0  0  0  0  0  0
  -32.6570  -17.0170   15.5530 N   0  0  0  0  0  0  0  0  0  0  0  0
  -33.1070  -16.0210   14.7460 N   0  0  0  0  0  0  0  0  0  0  0  0
  -33.5960  -15.7000   12.4090 C   0  0  0  0  0  0  0  0  0  0  0  0
  -33.2030  -14.3620   12.1920 C   0  0  0  0  0  3  0  0  0  0  0  0
  -33.7460  -13.6230   11.1190 C   0  0  0  0  0  3  0  0  0  0  0  0
  -34.6830  -14.2230   10.2470 C   0  0  0  0  0  0  0  0  0  0  0  0
  -35.0900  -15.5500   10.4820 C   0  0  0  0  0  3  0  0  0  0  0  0
  -34.5540  -16.2820   11.5540 C   0  0  0  0  0  3  0  0  0  0  0  0
  -35.2790  -13.5790    9.1920 O   0  0  0  0  0  0  0  0  0  0  0  0
  -34.6840  -12.5080    8.5740 C   0  0  0  0  0  0  0  0  0  0  0  0
  -33.3810  -12.5870    8.0310 C   0  0  0  0  0  3  0  0  0  0  0  0
  -32.8360  -11.4850    7.3450 C   0  0  0  0  0  3  0  0  0  0  0  0
  -33.5920  -10.3070    7.1920 C   0  0  0  0  0  0  0  0  0  0  0  0
  -34.8900  -10.2270    7.7260 C   0  0  0  0  0  3  0  0  0  0  0  0
  -35.4340  -11.3270    8.4130 C   0  0  0  0  0  0  0  0  0  0  0  0
  -36.6920  -11.2530    8.9090 F   0  0  0  0  0  0  0  0  0  0  0  0
  -33.0730   -9.2480    6.5270 F   0  0  0  0  0  0  0  0  0  0  0  0
  -32.2070  -18.6840   12.3250 C   0  0  0  0  0  0  0  0  0  0  0  0
  -31.8650  -18.1100   11.1800 N   0  0  0  0  0  0  0  0  0  0  0  0
  -32.2870  -19.9100   12.4250 O   0  0  0  0  0  0  0  0  0  0  0  0
  -31.7750  -17.1060   11.1010 H   0  0  0  0  0  0  0  0  0  0  0  0
  -31.6850  -18.6810   10.3650 H   0  0  0  0  0  0  0  0  0  0  0  0
  -31.6800  -19.2290   15.4510 N   0  0  0  0  0  0  0  0  0  0  0  0
  -31.4070  -20.0530   14.9270 H   0  0  0  0  0  0  0  0  0  0  0  0
  -31.6070  -19.3570   16.4530 H   0  0  0  0  0  0  0  0  0  0  0  0
  1  2  1  0
  1  3  2  0
  2  4  1  0
  5  6  2  0
  6  1  1  0
  7  5  1  0
  8 11  1  0
  8  7  1  0
  9  7  2  0
 10  8  1  0
 11 12  1  0
 12 13  1  0
 13 15  1  0
 14 25  2  0
 15 20  1  0
 16 26  1  0
 16 24  1  0
 17 23  1  0
 17 19  1  0
 18 24  1  0
 19 18  1  0
 20 19  2  0
 21 22  1  0
 21 15  2  0
 22 17  2  0
 23 16  1  0
 24 14  1  0
 26 28  2  0
 27 26  1  0
 29 27  1  0
 30 39  2  0
 30 35  1  0
 31 27  1  0
 31 35  1  0
 32 31  1  0
 33 34  1  0
 33 32  1  0
 34 30  1  0
 35 36  2  0
 36 37  1  0
 38 37  2  0
 39 38  1  0
 40 14  1  0
 40 45  1  0
 40 41  1  0
 41 44  1  1
 41 42  1  0
 43 41  1  0
 45 48  1  0
 46 45  1  0
 46 50  1  0
 47 46  2  0
 50 49  1  0
 50 52  1  0
 52 53  1  0
 52 51  1  0
 54  2  1  0
 54 55  1  0
 55 56  1  0
 57 58  1  0
 57 56  1  0
 59 58  1  0
 60 59  1  0
 61 62  1  0
 61 60  1  0
 63 64  1  0
 63 62  1  0
 64 65  1  0
 65 66  1  0
 67 74  2  0
 69 68  1  0
 70 69  1  0
 71 80  1  0
 71 70  1  0
 71 72  1  0
 72 73  1  0
 73 68  1  0
 73 67  1  0
 75 67  1  0
 75 66  1  0
 76 75  1  0
 77102  1  0
 77 80  1  0
 78 77  2  0
 79 78  1  0
 79 81  2  0
 81 80  1  0
 82 79  1  0
 83 82  1  0
 84 83  2  0
 85 86  2  0
 85 84  1  0
 86 87  1  0
 87 82  2  0
 88 85  1  0
 89 88  1  0
 90 89  2  0
 91 90  1  0
 92 91  2  0
 92 93  1  0
 93 94  2  0
 94 89  1  0
 94 95  1  0
 96 92  1  0
 97 99  2  0
 97 78  1  0
 98 97  1  0
100 98  1  0
101 98  1  0
102104  1  0
103102  1  0
M  ISO  4  12 101  13 101  67 100  75 100
M  END
>  <TORSDO>  (70) 
F 33

>  <SCORE>  (70) 
-4.026

>  <name>  (70) 
74

>  <ligand_id>  (70) 
74

>  <original_smiles>  (70) 
[H]C(C(=O)N([H])C([H])([H])C([H])([H])Oc1c([H])c([H])c2c(c1[H])C([H])([H])N(C(=O)C([H])(N([H])C(=O)C([H])(N([H])C([H])([H])[H])C([H])([H])[H])C(C([H])([H])[H])(C([H])([H])[H])C([H])([H])[H])C([H])(C(=O)N([H])C1([H])c3c([H])c([H])c([H])c([H])c3C([H])([H])C([H])([H])C1([H])[H])C2([H])[H])=C([H])C(=O)N([H])C([H])([H])C([H])([H])OC([H])([H])C([H])([H])C([H])([H])OC([H])([H])C([H])([H])C([H])([H])C([H])([H])C([H])([H])C([H])([H])N([H])C(=O)N1C([H])([H])C([H])([H])C([H])([H])C([H])(n2nc(-c3c([H])c([H])c(Oc4c([H])c([H])c(F)c([H])c4F)c([H])c3[H])c(C(=O)N([H])[H])c2N([H])[H])C1([H])[H]

>  <smiles>  (70) 
[H]C(C(=O)N([H])C([H])([H])C([H])([H])Oc1c([H])c([H])c2c(c1[H])C([H])([H])N(C(=O)C([H])(N([H])C(=O)C([H])(N([H])C([H])([H])[H])C([H])([H])[H])C(C([H])([H])[H])(C([H])([H])[H])C([H])([H])[H])C([H])(C(=O)N([H])C1([H])c3c([H])c([H])c([H])c([H])c3C([H])([H])C([H])([H])C1([H])[H])C2([H])[H])=C([H])C(=O)N([H])C([H])([H])C([H])([H])OC([H])([H])C([H])([H])C([H])([H])OC([H])([H])C([H])([H])C([H])([H])C([H])([H])C([H])([H])C([H])([H])N([H])C(=O)N1C([H])([H])C([H])([H])C([H])([H])C([H])(n2nc(-c3c([H])c([H])c(Oc4c([H])c([H])c(F)c([H])c4F)c([H])c3[H])c(C(=O)N([H])[H])c2N([H])[H])C1([H])[H]

$$$$
75:0:0
     RDKit          3D

 97104  0  0  1  0  0  0  0  0999 V2000
  -24.0980  -22.9650   20.3100 N   0  0  0  0  0  4  0  0  0  0  0  0
  -24.1730  -23.7370   19.6670 H   0  0  0  0  0  0  0  0  0  0  0  0
  -23.4130  -23.2160   21.0070 H   0  0  0  0  0  0  0  0  0  0  0  0
  -23.6130  -21.7770   19.5660 C   0  0  0  0  0  2  0  0  0  0  0  0
  -24.2570  -21.6690   18.1730 C   0  0  0  0  0  2  0  0  0  0  0  0
  -25.6090  -21.2990   18.3790 O   0  0  0  0  0  0  0  0  0  0  0  0
  -26.2790  -20.7750   17.2470 C   0  0  0  0  0  2  0  0  0  0  0  0
  -27.6850  -20.4550   17.7610 C   0  0  0  0  0  2  0  0  0  0  0  0
  -28.4450  -19.3990   16.9470 C   0  0  0  0  0  2  0  0  0  0  0  0
  -29.8530  -19.1860   17.5310 C   0  0  0  0  0  2  0  0  0  0  0  0
  -29.7790  -18.3950   18.8450 C   0  0  0  0  0  2  0  0  0  0  0  0
  -30.7500  -18.8460   19.9560 C   0  0  0  0  0  2  0  0  0  0  0  0
  -31.5910  -16.7080   20.8180 C   0  0  0  0  0  0  0  0  0  0  0  0
  -31.5680  -14.2810   20.4300 C   0  0  0  0  0  2  0  0  0  0  0  0
  -30.9130  -13.9740   19.0600 C   0  0  0  0  0  2  0  0  0  0  0  0
  -29.3730  -14.1480   19.0520 C   0  0  0  0  0  2  0  0  0  0  0  0
  -28.8080  -14.4780   20.4310 C   0  0  0  0  0  3  0  0  0  0  0  0
  -29.5740  -15.3560   21.4190 C   0  0  0  0  0  2  0  0  0  0  0  0
  -30.9760  -15.5110   20.9880 N   0  0  0  0  0  0  0  0  0  0  0  0
  -32.7380  -16.8330   20.3940 O   0  0  0  0  0  0  0  0  0  0  0  0
  -30.7980  -17.7780   20.9480 N   0  0  0  0  0  0  0  0  0  0  0  0
  -29.9320  -17.6080   21.4350 H   0  0  0  0  0  0  0  0  0  0  0  0
  -26.3010  -15.3640   20.6120 C   0  0  0  0  0  0  0  0  0  0  0  0
  -25.1730  -14.5910   20.7850 C   0  0  0  0  0  0  0  0  0  0  0  0
  -25.6290  -13.2430   20.8290 C   0  0  0  0  0  0  0  0  0  0  0  0
  -27.3590  -14.4460   20.5860 N   0  0  0  0  0  0  0  0  0  0  0  0
  -26.9250  -13.1900   20.7450 N   0  0  0  0  0  0  0  0  0  0  0  0
  -24.9430  -11.9610   20.8820 C   0  0  0  0  0  0  0  0  0  0  0  0
  -25.2120  -11.0380   21.9170 C   0  0  0  0  0  3  0  0  0  0  0  0
  -24.5500   -9.7940   21.9460 C   0  0  0  0  0  3  0  0  0  0  0  0
  -23.6100   -9.4760   20.9360 C   0  0  0  0  0  0  0  0  0  0  0  0
  -23.3730  -10.3880   19.8930 C   0  0  0  0  0  3  0  0  0  0  0  0
  -24.0370  -11.6240   19.8620 C   0  0  0  0  0  3  0  0  0  0  0  0
  -22.9290   -8.2880   20.8750 O   0  0  0  0  0  0  0  0  0  0  0  0
  -22.5290   -7.6340   22.0120 C   0  0  0  0  0  0  0  0  0  0  0  0
  -21.6650   -8.2330   22.9530 C   0  0  0  0  0  3  0  0  0  0  0  0
  -21.2270   -7.4990   24.0720 C   0  0  0  0  0  3  0  0  0  0  0  0
  -21.6420   -6.1640   24.2470 C   0  0  0  0  0  0  0  0  0  0  0  0
  -22.4990   -5.5660   23.3070 C   0  0  0  0  0  3  0  0  0  0  0  0
  -22.9400   -6.2980   22.1920 C   0  0  0  0  0  0  0  0  0  0  0  0
  -23.7510   -5.7130   21.2790 F   0  0  0  0  0  0  0  0  0  0  0  0
  -21.2130   -5.4550   25.3150 F   0  0  0  0  0  0  0  0  0  0  0  0
  -23.7390  -15.0350   20.8250 C   0  0  0  0  0  0  0  0  0  0  0  0
  -22.8930  -14.2910   21.5300 N   0  0  0  0  0  0  0  0  0  0  0  0
  -23.3640  -16.0590   20.2570 O   0  0  0  0  0  0  0  0  0  0  0  0
  -23.1990  -13.4670   22.0260 H   0  0  0  0  0  0  0  0  0  0  0  0
  -21.9220  -14.5650   21.5830 H   0  0  0  0  0  0  0  0  0  0  0  0
  -26.4960  -16.7370   20.4770 N   0  0  0  0  0  0  0  0  0  0  0  0
  -25.7240  -17.3900   20.4770 H   0  0  0  0  0  0  0  0  0  0  0  0
  -27.3880  -17.1670   20.2690 H   0  0  0  0  0  0  0  0  0  0  0  0
  -25.3920  -22.7960   21.0070 C   0  0  0  0  0  2  0  0  0  0  0  0
  -26.4490  -23.7710   20.4520 C   0  0  0  0  0  2  0  0  0  0  0  0
  -27.5560  -23.9400   21.3880 N   0  0  0  0  0  0  0  0  0  0  0  0
  -27.2630  -24.5870   22.1170 H   0  0  0  0  0  0  0  0  0  0  0  0
  -28.7100  -24.5100   20.7020 C   0  0  0  0  0  2  0  0  0  0  0  0
  -29.2140  -25.7670   21.4400 C   0  0  0  0  0  2  0  0  0  0  0  0
  -29.2340  -26.9000   20.5710 O   0  0  0  0  0  0  0  0  0  0  0  0
  -24.6620  -31.5340   23.3950 C   0  0  0  0  0  0  0  0  0  0  0  0
  -28.0110  -27.5100   20.4670 C   0  0  0  0  0  0  0  0  0  0  0  0
  -23.7530  -30.0660   21.6220 C   0  0  0  0  0  3  0  0  0  0  0  0
  -25.4780  -28.7330   20.3020 C   0  0  0  0  0  0  0  0  0  0  0  0
  -26.2310  -30.6990   21.6520 C   0  0  0  0  0  2  0  0  0  0  0  0
  -26.5160  -29.3650   20.9990 C   0  0  0  0  0  0  0  0  0  0  0  0
  -27.7850  -28.7570   21.0850 C   0  0  0  0  0  3  0  0  0  0  0  0
  -26.9620  -26.8910   19.7550 C   0  0  0  0  0  3  0  0  0  0  0  0
  -25.6930  -27.4910   19.6800 C   0  0  0  0  0  3  0  0  0  0  0  0
  -24.1500  -29.4520   20.2530 C   0  0  0  0  0  2  0  0  0  0  0  0
  -24.8930  -30.7800   22.2840 N   0  0  0  0  0  0  0  0  0  0  0  0
  -23.5160  -31.6780   23.8440 O   0  0  0  0  0  0  0  0  0  0  0  0
  -23.1330  -28.9540   22.5000 C   0  0  0  0  0  0  0  0  0  0  0  0
  -21.8740  -28.5940   22.2050 N   0  0  0  0  0  0  0  0  0  0  0  0
  -23.7870  -28.4190   23.3990 O   0  0  0  0  0  0  0  0  0  0  0  0
  -21.4010  -29.0890   21.4620 H   0  0  0  0  0  0  0  0  0  0  0  0
  -18.6510  -26.9680   22.2970 C   0  0  0  0  0  0  0  0  0  0  0  0
  -21.1030  -27.5440   22.8710 C   0  0  0  0  0  3  0  0  0  0  0  0
  -21.4560  -26.1500   22.3040 C   0  0  0  0  0  2  0  0  0  0  0  0
  -20.5310  -25.7100   21.1640 C   0  0  0  0  0  2  0  0  0  0  0  0
  -19.0760  -25.6660   21.6420 C   0  0  0  0  0  2  0  0  0  0  0  0
  -19.6030  -27.8580   22.8610 C   0  0  0  0  0  0  0  0  0  0  0  0
  -19.1580  -29.0710   23.4260 C   0  0  0  0  0  3  0  0  0  0  0  0
  -17.7900  -29.4020   23.4370 C   0  0  0  0  0  3  0  0  0  0  0  0
  -16.8490  -28.5120   22.8920 C   0  0  0  0  0  3  0  0  0  0  0  0
  -17.2780  -27.2970   22.3280 C   0  0  0  0  0  3  0  0  0  0  0  0
  -25.8180  -32.2740   24.1370 C   0  0  0  0  0  3  0  0  0  0  0  0
  -25.3970  -33.6650   24.3370 N   0  0  0  0  0  0  0  0  0  0  0  0
  -25.7520  -34.6890   23.5490 C   0  0  0  0  0  0  0  0  0  0  0  0
  -26.5400  -34.5670   22.6070 O   0  0  0  0  0  0  0  0  0  0  0  0
  -24.7090  -33.8290   25.0570 H   0  0  0  0  0  0  0  0  0  0  0  0
  -23.9650  -36.3320   22.8950 C   0  0  0  0  0  1  0  0  0  0  0  0
  -25.1360  -36.0670   23.8550 C   0  0  0  0  0  3  0  0  0  0  0  0
  -27.1080  -37.1510   24.8350 C   0  0  0  0  0  1  0  0  0  0  0  0
  -26.1070  -37.1780   23.7720 N   0  0  0  0  0  0  0  0  0  0  0  0
  -25.6320  -38.0760   23.8080 H   0  0  0  0  0  0  0  0  0  0  0  0
  -26.2050  -31.6020   25.5110 C   0  0  1  0  0  0  0  0  0  0  0  0
  -24.9880  -31.3020   26.4160 C   0  0  0  0  0  1  0  0  0  0  0  0
  -26.9590  -30.2710   25.2740 C   0  0  0  0  0  1  0  0  0  0  0  0
  -27.1680  -32.5240   26.2950 C   0  0  0  0  0  1  0  0  0  0  0  0
  1  3  1  0
  1 51  1  0
  2  1  1  0
  4  1  1  0
  5  6  1  0
  5  4  1  0
  7  8  1  0
  7  6  1  0
  9 10  1  0
  9  8  1  0
 10 11  1  0
 11 12  1  0
 12 21  1  0
 13 21  1  0
 13 19  1  0
 14 19  1  0
 15 14  1  0
 16 15  1  0
 17 16  1  0
 17 26  1  0
 17 18  1  0
 19 18  1  0
 20 13  2  0
 21 22  1  0
 23 24  2  0
 24 43  1  0
 24 25  1  0
 25 28  1  0
 26 23  1  0
 26 27  1  0
 27 25  2  0
 28 29  1  0
 29 30  2  0
 31 30  1  0
 32 31  2  0
 33 32  1  0
 33 28  2  0
 34 31  1  0
 34 35  1  0
 35 40  2  0
 35 36  1  0
 36 37  2  0
 37 38  1  0
 38 42  1  0
 39 38  2  0
 40 39  1  0
 41 40  1  0
 43 44  1  0
 44 47  1  0
 44 46  1  0
 45 43  2  0
 48 23  1  0
 49 48  1  0
 50 48  1  0
 52 51  1  0
 52 53  1  0
 53 54  1  0
 55 53  1  0
 55 56  1  0
 57 56  1  0
 58 69  2  0
 59 57  1  0
 59 64  1  0
 60 68  1  0
 60 70  1  0
 61 63  1  0
 62 68  1  0
 63 64  2  0
 63 62  1  0
 65 59  2  0
 66 65  1  0
 66 61  2  0
 67 61  1  0
 67 60  1  0
 68 58  1  0
 70 72  2  0
 71 70  1  0
 73 71  1  0
 74 83  2  0
 74 79  1  0
 75 71  1  0
 76 75  1  0
 77 78  1  0
 77 76  1  0
 78 74  1  0
 79 75  1  0
 79 80  2  0
 80 81  1  0
 82 81  2  0
 83 82  1  0
 84 58  1  0
 84 85  1  0
 84 94  1  0
 85 88  1  0
 86 90  1  0
 86 85  1  0
 87 86  2  0
 90 89  1  0
 92 93  1  0
 92 90  1  0
 92 91  1  0
 94 97  1  1
 94 95  1  0
 96 94  1  0
M  ISO  4  13 100  21 100  56 101  57 101
M  END
>  <TORSDO>  (71) 
F 30

>  <SCORE>  (71) 
-5.646

>  <name>  (71) 
75

>  <ligand_id>  (71) 
75

>  <original_smiles>  (71) 
[H]c1c([H])c([H])c2c(c1[H])C([H])([H])C([H])([H])C([H])([H])C2([H])N([H])C(=O)C1([H])N(C(=O)C([H])(N([H])C(=O)C([H])(N([H])C([H])([H])[H])C([H])([H])[H])C(C([H])([H])[H])(C([H])([H])[H])C([H])([H])[H])C([H])([H])c2c([H])c(OC([H])([H])C([H])([H])N([H])C([H])([H])C([H])([H])[N+]([H])([H])C([H])([H])C([H])([H])OC([H])([H])C([H])([H])C([H])([H])C([H])([H])C([H])([H])C([H])([H])N([H])C(=O)N3C([H])([H])C([H])([H])C([H])([H])C([H])(n4nc(-c5c([H])c([H])c(Oc6c([H])c([H])c(F)c([H])c6F)c([H])c5[H])c(C(=O)N([H])[H])c4N([H])[H])C3([H])[H])c([H])c([H])c2C1([H])[H]

>  <smiles>  (71) 
[H]c1c([H])c([H])c2c(c1[H])C([H])([H])C([H])([H])C([H])([H])C2([H])N([H])C(=O)C1([H])N(C(=O)C([H])(N([H])C(=O)C([H])(N([H])C([H])([H])[H])C([H])([H])[H])C(C([H])([H])[H])(C([H])([H])[H])C([H])([H])[H])C([H])([H])c2c([H])c(OC([H])([H])C([H])([H])N([H])C([H])([H])C([H])([H])[N+]([H])([H])C([H])([H])C([H])([H])OC([H])([H])C([H])([H])C([H])([H])C([H])([H])C([H])([H])C([H])([H])N([H])C(=O)N3C([H])([H])C([H])([H])C([H])([H])C([H])(n4nc(-c5c([H])c([H])c(Oc6c([H])c([H])c(F)c([H])c6F)c([H])c5[H])c(C(=O)N([H])[H])c4N([H])[H])C3([H])[H])c([H])c([H])c2C1([H])[H]

$$$$
76:0:0
     RDKit          3D

100107  0  0  1  0  0  0  0  0999 V2000
  -34.4280  -25.0970   20.4580 N   0  0  0  0  0  4  0  0  0  0  0  0
  -35.3840  -25.1490   20.7780 H   0  0  0  0  0  0  0  0  0  0  0  0
  -33.8780  -24.7620   21.2310 H   0  0  0  0  0  0  0  0  0  0  0  0
  -34.0000  -26.4700   20.0820 C   0  0  0  0  0  2  0  0  0  0  0  0
  -33.6240  -27.3820   21.2770 C   0  0  0  0  0  2  0  0  0  0  0  0
  -32.3560  -26.9920   22.0740 C   0  0  0  0  0  2  0  0  0  0  0  0
  -31.1100  -26.9710   21.2710 N   0  0  0  0  0  4  0  0  0  0  0  0
  -31.1500  -26.2250   20.5950 H   0  0  0  0  0  0  0  0  0  0  0  0
  -31.0210  -27.8340   20.7550 H   0  0  0  0  0  0  0  0  0  0  0  0
  -29.8790  -26.7850   22.0770 C   0  0  0  0  0  2  0  0  0  0  0  0
  -28.7500  -26.1260   21.2660 C   0  0  0  0  0  2  0  0  0  0  0  0
  -28.4690  -26.8870   20.0950 O   0  0  0  0  0  0  0  0  0  0  0  0
  -24.5960  -31.9560   23.2360 C   0  0  0  0  0  0  0  0  0  0  0  0
  -27.2910  -27.5840   20.1460 C   0  0  0  0  0  0  0  0  0  0  0  0
  -23.3960  -30.5340   21.6040 C   0  0  0  0  0  3  0  0  0  0  0  0
  -24.8640  -29.0100   20.1790 C   0  0  0  0  0  0  0  0  0  0  0  0
  -25.9090  -30.9390   21.3820 C   0  0  0  0  0  2  0  0  0  0  0  0
  -26.0120  -29.5670   20.7550 C   0  0  0  0  0  0  0  0  0  0  0  0
  -27.2310  -28.8580   20.7440 C   0  0  0  0  0  3  0  0  0  0  0  0
  -26.1340  -27.0280   19.5650 C   0  0  0  0  0  3  0  0  0  0  0  0
  -24.9160  -27.7370   19.5830 C   0  0  0  0  0  3  0  0  0  0  0  0
  -23.6050  -29.8480   20.2270 C   0  0  0  0  0  2  0  0  0  0  0  0
  -24.6520  -31.1570   22.1330 N   0  0  0  0  0  0  0  0  0  0  0  0
  -23.5170  -32.2160   23.7830 O   0  0  0  0  0  0  0  0  0  0  0  0
  -22.7680  -29.5060   22.5720 C   0  0  0  0  0  0  0  0  0  0  0  0
  -21.4450  -29.3060   22.4520 N   0  0  0  0  0  0  0  0  0  0  0  0
  -23.4650  -28.8930   23.3830 O   0  0  0  0  0  0  0  0  0  0  0  0
  -20.9440  -29.8550   21.7680 H   0  0  0  0  0  0  0  0  0  0  0  0
  -18.0890  -28.0770   22.9700 C   0  0  0  0  0  0  0  0  0  0  0  0
  -20.6450  -28.3600   23.2280 C   0  0  0  0  0  3  0  0  0  0  0  0
  -20.7590  -26.9300   22.6520 C   0  0  0  0  0  2  0  0  0  0  0  0
  -19.6550  -26.5940   21.6450 C   0  0  0  0  0  2  0  0  0  0  0  0
  -18.2750  -26.7280   22.2960 C   0  0  0  0  0  2  0  0  0  0  0  0
  -19.2030  -28.8500   23.3930 C   0  0  0  0  0  0  0  0  0  0  0  0
  -18.9750  -30.1120   23.9810 C   0  0  0  0  0  3  0  0  0  0  0  0
  -17.6670  -30.6030   24.1510 C   0  0  0  0  0  3  0  0  0  0  0  0
  -16.5670  -29.8260   23.7460 C   0  0  0  0  0  3  0  0  0  0  0  0
  -16.7800  -28.5650   23.1610 C   0  0  0  0  0  3  0  0  0  0  0  0
  -25.8810  -32.6040   23.8440 C   0  0  0  0  0  3  0  0  0  0  0  0
  -25.5600  -33.9990   24.1720 N   0  0  0  0  0  0  0  0  0  0  0  0
  -25.8860  -35.0530   23.4130 C   0  0  0  0  0  0  0  0  0  0  0  0
  -26.5610  -34.9530   22.3840 O   0  0  0  0  0  0  0  0  0  0  0  0
  -24.9590  -34.1470   24.9690 H   0  0  0  0  0  0  0  0  0  0  0  0
  -24.1500  -36.8320   23.0350 C   0  0  0  0  0  1  0  0  0  0  0  0
  -25.3800  -36.4350   23.8650 C   0  0  0  0  0  3  0  0  0  0  0  0
  -27.4990  -37.3290   24.7270 C   0  0  0  0  0  1  0  0  0  0  0  0
  -26.4050  -37.4970   23.7730 N   0  0  0  0  0  0  0  0  0  0  0  0
  -25.9900  -38.4120   23.9260 H   0  0  0  0  0  0  0  0  0  0  0  0
  -26.4230  -31.8390   25.1150 C   0  0  1  0  0  0  0  0  0  0  0  0
  -25.3480  -31.5970   26.2000 C   0  0  0  0  0  1  0  0  0  0  0  0
  -27.0060  -30.4620   24.7140 C   0  0  0  0  0  1  0  0  0  0  0  0
  -27.5790  -32.6400   25.7560 C   0  0  0  0  0  1  0  0  0  0  0  0
  -34.3500  -24.1290   19.3300 C   0  0  0  0  0  2  0  0  0  0  0  0
  -34.5400  -22.6430   19.7370 C   0  0  0  0  0  2  0  0  0  0  0  0
  -33.3210  -21.9510   20.4090 C   0  0  0  0  0  2  0  0  0  0  0  0
  -33.6170  -20.5380   20.7980 N   0  0  0  0  0  4  0  0  0  0  0  0
  -33.7860  -19.9580   19.9900 H   0  0  0  0  0  0  0  0  0  0  0  0
  -34.4800  -20.5510   21.3180 H   0  0  0  0  0  0  0  0  0  0  0  0
  -32.6400  -19.8440   21.6760 C   0  0  0  0  0  2  0  0  0  0  0  0
  -31.6210  -18.9680   20.9090 C   0  0  0  0  0  2  0  0  0  0  0  0
  -31.1110  -17.7290   21.6990 C   0  0  0  0  0  2  0  0  0  0  0  0
  -30.0240  -16.9480   20.9240 C   0  0  0  0  0  2  0  0  0  0  0  0
  -30.5730  -14.5720   20.5170 C   0  0  0  0  0  0  0  0  0  0  0  0
  -30.3030  -12.4490   19.2990 C   0  0  0  0  0  2  0  0  0  0  0  0
  -29.3650  -12.6880   18.0990 C   0  0  0  0  0  2  0  0  0  0  0  0
  -27.8880  -12.5190   18.5070 C   0  0  0  0  0  2  0  0  0  0  0  0
  -27.5320  -13.3070   19.7990 C   0  0  0  0  0  3  0  0  0  0  0  0
  -28.5860  -13.0560   20.9020 C   0  0  0  0  0  2  0  0  0  0  0  0
  -29.9190  -13.3870   20.3650 N   0  0  0  0  0  0  0  0  0  0  0  0
  -31.6240  -14.8410   19.9320 O   0  0  0  0  0  0  0  0  0  0  0  0
  -29.9250  -15.5100   21.2250 N   0  0  0  0  0  0  0  0  0  0  0  0
  -29.1200  -15.1950   21.7460 H   0  0  0  0  0  0  0  0  0  0  0  0
  -25.1030  -13.8470   20.4710 C   0  0  0  0  0  0  0  0  0  0  0  0
  -24.0540  -13.0460   20.8410 C   0  0  0  0  0  0  0  0  0  0  0  0
  -24.5580  -11.7080   20.8280 C   0  0  0  0  0  0  0  0  0  0  0  0
  -26.1800  -12.9970   20.2640 N   0  0  0  0  0  0  0  0  0  0  0  0
  -25.8510  -11.7070   20.5310 N   0  0  0  0  0  0  0  0  0  0  0  0
  -23.8700  -10.4250   21.0310 C   0  0  0  0  0  0  0  0  0  0  0  0
  -24.3200   -9.4930   21.9920 C   0  0  0  0  0  3  0  0  0  0  0  0
  -23.6350   -8.2730   22.1790 C   0  0  0  0  0  3  0  0  0  0  0  0
  -22.4890   -7.9760   21.4080 C   0  0  0  0  0  0  0  0  0  0  0  0
  -22.0570   -8.9000   20.4390 C   0  0  0  0  0  3  0  0  0  0  0  0
  -22.7420  -10.1120   20.2490 C   0  0  0  0  0  3  0  0  0  0  0  0
  -21.7690   -6.8090   21.5070 O   0  0  0  0  0  0  0  0  0  0  0  0
  -21.7230   -6.0850   22.6720 C   0  0  0  0  0  0  0  0  0  0  0  0
  -21.2410   -6.6440   23.8750 C   0  0  0  0  0  3  0  0  0  0  0  0
  -21.1450   -5.8460   25.0320 C   0  0  0  0  0  3  0  0  0  0  0  0
  -21.5170   -4.4890   24.9850 C   0  0  0  0  0  0  0  0  0  0  0  0
  -21.9900   -3.9290   23.7850 C   0  0  0  0  0  3  0  0  0  0  0  0
  -22.0880   -4.7230   22.6300 C   0  0  0  0  0  0  0  0  0  0  0  0
  -22.5250   -4.1730   21.4720 F   0  0  0  0  0  0  0  0  0  0  0  0
  -21.4170   -3.7190   26.0950 F   0  0  0  0  0  0  0  0  0  0  0  0
  -22.6400  -13.4820   21.0980 C   0  0  0  0  0  0  0  0  0  0  0  0
  -21.9250  -12.7730   21.9630 N   0  0  0  0  0  0  0  0  0  0  0  0
  -22.1770  -14.4870   20.5610 O   0  0  0  0  0  0  0  0  0  0  0  0
  -22.3130  -11.9660   22.4270 H   0  0  0  0  0  0  0  0  0  0  0  0
  -20.9760  -13.0500   22.1670 H   0  0  0  0  0  0  0  0  0  0  0  0
  -25.2310  -15.2200   20.2800 N   0  0  0  0  0  0  0  0  0  0  0  0
  -24.4490  -15.8610   20.3510 H   0  0  0  0  0  0  0  0  0  0  0  0
  -26.0860  -15.6660   19.9700 H   0  0  0  0  0  0  0  0  0  0  0  0
  1  2  1  0
  1  3  1  0
  4  1  1  0
  4  5  1  0
  5  6  1  0
  7  6  1  0
  7 10  1  0
  8  7  1  0
  9  7  1  0
 11 10  1  0
 12 14  1  0
 12 11  1  0
 13 24  2  0
 14 19  1  0
 15 23  1  0
 15 25  1  0
 16 22  1  0
 16 18  1  0
 17 23  1  0
 18 17  1  0
 19 18  2  0
 20 21  1  0
 20 14  2  0
 21 16  2  0
 22 15  1  0
 23 13  1  0
 25 27  2  0
 26 25  1  0
 28 26  1  0
 29 38  2  0
 29 34  1  0
 30 26  1  0
 30 34  1  0
 31 30  1  0
 32 33  1  0
 32 31  1  0
 33 29  1  0
 34 35  2  0
 35 36  1  0
 37 36  2  0
 38 37  1  0
 39 13  1  0
 39 40  1  0
 39 49  1  0
 40 43  1  0
 41 45  1  0
 41 40  1  0
 42 41  2  0
 45 44  1  0
 47 45  1  0
 47 48  1  0
 47 46  1  0
 49 52  1  1
 49 50  1  0
 51 49  1  0
 53 54  1  0
 53  1  1  0
 54 55  1  0
 55 56  1  0
 56 58  1  0
 56 59  1  0
 57 56  1  0
 60 59  1  0
 60 61  1  0
 62 71  1  0
 62 61  1  0
 63 71  1  0
 64 69  1  0
 65 66  1  0
 65 64  1  0
 67 66  1  0
 67 76  1  0
 67 68  1  0
 69 63  1  0
 69 68  1  0
 70 63  2  0
 71 72  1  0
 73 74  2  0
 74 93  1  0
 75 74  1  0
 75 78  1  0
 76 73  1  0
 76 77  1  0
 77 75  2  0
 78 79  1  0
 79 80  2  0
 81 84  1  0
 81 80  1  0
 82 81  2  0
 83 82  1  0
 83 78  2  0
 84 85  1  0
 85 86  1  0
 86 87  2  0
 88 87  1  0
 88 92  1  0
 89 88  2  0
 90 85  2  0
 90 89  1  0
 91 90  1  0
 93 94  1  0
 94 97  1  0
 94 96  1  0
 95 93  2  0
 98 99  1  0
 98 73  1  0
100 98  1  0
M  ISO  4  11 101  12 101  63 100  71 100
M  END
>  <TORSDO>  (72) 
F 30

>  <SCORE>  (72) 
-10.949

>  <name>  (72) 
76

>  <ligand_id>  (72) 
76

>  <original_smiles>  (72) 
[H]c1c([H])c([H])c2c(c1[H])C([H])([H])C([H])([H])C([H])([H])C2([H])N([H])C(=O)C1([H])N(C(=O)C([H])(N([H])C(=O)C([H])(N([H])C([H])([H])[H])C([H])([H])[H])C(C([H])([H])[H])(C([H])([H])[H])C([H])([H])[H])C([H])([H])c2c([H])c(OC([H])([H])C([H])([H])[N+]([H])([H])C([H])([H])C([H])([H])C([H])([H])[N+]([H])([H])C([H])([H])C([H])([H])C([H])([H])[N+]([H])([H])C([H])([H])C([H])([H])C([H])([H])C([H])([H])N([H])C(=O)N3C([H])([H])C([H])([H])C([H])([H])C([H])(n4nc(-c5c([H])c([H])c(Oc6c([H])c([H])c(F)c([H])c6F)c([H])c5[H])c(C(=O)N([H])[H])c4N([H])[H])C3([H])[H])c([H])c([H])c2C1([H])[H]

>  <smiles>  (72) 
[H]c1c([H])c([H])c2c(c1[H])C([H])([H])C([H])([H])C([H])([H])C2([H])N([H])C(=O)C1([H])N(C(=O)C([H])(N([H])C(=O)C([H])(N([H])C([H])([H])[H])C([H])([H])[H])C(C([H])([H])[H])(C([H])([H])[H])C([H])([H])[H])C([H])([H])c2c([H])c(OC([H])([H])C([H])([H])[N+]([H])([H])C([H])([H])C([H])([H])C([H])([H])[N+]([H])([H])C([H])([H])C([H])([H])C([H])([H])[N+]([H])([H])C([H])([H])C([H])([H])C([H])([H])C([H])([H])N([H])C(=O)N3C([H])([H])C([H])([H])C([H])([H])C([H])(n4nc(-c5c([H])c([H])c(Oc6c([H])c([H])c(F)c([H])c6F)c([H])c5[H])c(C(=O)N([H])[H])c4N([H])[H])C3([H])[H])c([H])c([H])c2C1([H])[H]

$$$$
77:0:0
     RDKit          3D

 95102  0  0  1  0  0  0  0  0999 V2000
  -30.4840  -21.5530   22.0320 C   0  0  0  0  0  3  0  0  0  0  0  0
  -29.7610  -22.6830   21.9200 C   0  0  0  0  0  3  0  0  0  0  0  0
  -29.8180  -23.4410   20.6870 C   0  0  0  0  0  0  0  0  0  0  0  0
  -28.6820  -24.1070   20.4660 N   0  0  0  0  0  0  0  0  0  0  0  0
  -30.7520  -23.4330   19.8830 O   0  0  0  0  0  0  0  0  0  0  0  0
  -27.9780  -24.0860   21.1890 H   0  0  0  0  0  0  0  0  0  0  0  0
  -28.2840  -24.6730   19.1790 C   0  0  0  0  0  2  0  0  0  0  0  0
  -28.8060  -26.1080   18.9590 C   0  0  0  0  0  2  0  0  0  0  0  0
  -28.5460  -27.0000   20.0440 O   0  0  0  0  0  0  0  0  0  0  0  0
  -24.8730  -32.0360   23.4290 C   0  0  0  0  0  0  0  0  0  0  0  0
  -27.3530  -27.6860   20.0930 C   0  0  0  0  0  0  0  0  0  0  0  0
  -23.5830  -30.6920   21.8020 C   0  0  0  0  0  3  0  0  0  0  0  0
  -24.9600  -29.1880   20.2700 C   0  0  0  0  0  0  0  0  0  0  0  0
  -26.0990  -31.0390   21.5040 C   0  0  0  0  0  2  0  0  0  0  0  0
  -26.1420  -29.6850   20.8310 C   0  0  0  0  0  0  0  0  0  0  0  0
  -27.3340  -28.9330   20.7580 C   0  0  0  0  0  3  0  0  0  0  0  0
  -26.1510  -27.2070   19.5210 C   0  0  0  0  0  3  0  0  0  0  0  0
  -24.9570  -27.9430   19.6210 C   0  0  0  0  0  3  0  0  0  0  0  0
  -23.7250  -30.0510   20.3940 C   0  0  0  0  0  2  0  0  0  0  0  0
  -24.8730  -31.2700   22.3020 N   0  0  0  0  0  0  0  0  0  0  0  0
  -23.8210  -32.2990   24.0250 O   0  0  0  0  0  0  0  0  0  0  0  0
  -22.9700  -29.6450   22.7590 C   0  0  0  0  0  0  0  0  0  0  0  0
  -21.6720  -29.3540   22.5730 N   0  0  0  0  0  0  0  0  0  0  0  0
  -23.6590  -29.0960   23.6230 O   0  0  0  0  0  0  0  0  0  0  0  0
  -21.1750  -29.8520   21.8470 H   0  0  0  0  0  0  0  0  0  0  0  0
  -18.4270  -27.7920   22.8260 C   0  0  0  0  0  0  0  0  0  0  0  0
  -20.8930  -28.3770   23.3320 C   0  0  0  0  0  3  0  0  0  0  0  0
  -21.2230  -26.9360   22.8810 C   0  0  0  0  0  2  0  0  0  0  0  0
  -20.2810  -26.4150   21.7910 C   0  0  0  0  0  2  0  0  0  0  0  0
  -18.8300  -26.4320   22.2810 C   0  0  0  0  0  2  0  0  0  0  0  0
  -19.3970  -28.7110   23.3060 C   0  0  0  0  0  0  0  0  0  0  0  0
  -18.9720  -29.9750   23.7690 C   0  0  0  0  0  3  0  0  0  0  0  0
  -17.6090  -30.3240   23.7620 C   0  0  0  0  0  3  0  0  0  0  0  0
  -16.6510  -29.4030   23.3020 C   0  0  0  0  0  3  0  0  0  0  0  0
  -17.0600  -28.1400   22.8400 C   0  0  0  0  0  3  0  0  0  0  0  0
  -26.1930  -32.6390   24.0080 C   0  0  0  0  0  3  0  0  0  0  0  0
  -25.9310  -34.0480   24.3250 N   0  0  0  0  0  0  0  0  0  0  0  0
  -26.2760  -35.0800   23.5440 C   0  0  0  0  0  0  0  0  0  0  0  0
  -26.9200  -34.9440   22.5000 O   0  0  0  0  0  0  0  0  0  0  0  0
  -25.3640  -34.2310   25.1400 H   0  0  0  0  0  0  0  0  0  0  0  0
  -24.5950  -36.9130   23.1890 C   0  0  0  0  0  1  0  0  0  0  0  0
  -25.8360  -36.4870   23.9900 C   0  0  0  0  0  3  0  0  0  0  0  0
  -28.0060  -37.3210   24.7800 C   0  0  0  0  0  1  0  0  0  0  0  0
  -26.8970  -37.5090   23.8490 N   0  0  0  0  0  0  0  0  0  0  0  0
  -26.5190  -38.4420   23.9880 H   0  0  0  0  0  0  0  0  0  0  0  0
  -26.7210  -31.8680   25.2780 C   0  0  1  0  0  0  0  0  0  0  0  0
  -25.6390  -31.6330   26.3580 C   0  0  0  0  0  1  0  0  0  0  0  0
  -27.2960  -30.4910   24.8760 C   0  0  0  0  0  1  0  0  0  0  0  0
  -27.8780  -32.6610   25.9290 C   0  0  0  0  0  1  0  0  0  0  0  0
  -30.4150  -20.7330   23.2230 C   0  0  0  0  0  0  0  0  0  0  0  0
  -30.7580  -19.4710   22.9480 N   0  0  0  0  0  0  0  0  0  0  0  0
  -30.0650  -21.1070   24.3430 O   0  0  0  0  0  0  0  0  0  0  0  0
  -31.0300  -19.2650   21.9970 H   0  0  0  0  0  0  0  0  0  0  0  0
  -30.7380  -18.3470   23.8750 C   0  0  0  0  0  2  0  0  0  0  0  0
  -30.4930  -17.0200   23.1290 C   0  0  0  0  0  2  0  0  0  0  0  0
  -31.2930  -16.8950   21.8170 C   0  0  0  0  0  2  0  0  0  0  0  0
  -31.6210  -15.4480   21.4190 C   0  0  0  0  0  2  0  0  0  0  0  0
  -30.3630  -14.2910   19.6070 C   0  0  0  0  0  0  0  0  0  0  0  0
  -29.8340  -12.2220   18.3810 C   0  0  0  0  0  2  0  0  0  0  0  0
  -28.6930  -12.3410   17.3580 C   0  0  0  0  0  2  0  0  0  0  0  0
  -27.3360  -12.1050   18.0390 C   0  0  0  0  0  2  0  0  0  0  0  0
  -27.1560  -12.9830   19.3040 C   0  0  0  0  0  3  0  0  0  0  0  0
  -28.3800  -12.8790   20.2400 C   0  0  0  0  0  2  0  0  0  0  0  0
  -29.6040  -13.1780   19.4720 N   0  0  0  0  0  0  0  0  0  0  0  0
  -31.0930  -14.7320   18.7120 O   0  0  0  0  0  0  0  0  0  0  0  0
  -30.4780  -14.7090   20.8770 N   0  0  0  0  0  0  0  0  0  0  0  0
  -29.8760  -14.2480   21.5440 H   0  0  0  0  0  0  0  0  0  0  0  0
  -24.9060  -13.4920   20.4500 C   0  0  0  0  0  0  0  0  0  0  0  0
  -23.9370  -12.6750   20.9670 C   0  0  0  0  0  0  0  0  0  0  0  0
  -24.4130  -11.3400   20.7920 C   0  0  0  0  0  0  0  0  0  0  0  0
  -25.9140  -12.6520   20.0010 N   0  0  0  0  0  0  0  0  0  0  0  0
  -25.6290  -11.3500   20.2600 N   0  0  0  0  0  0  0  0  0  0  0  0
  -23.7590  -10.0510   21.0520 C   0  0  0  0  0  0  0  0  0  0  0  0
  -24.2990   -9.1190   21.9650 C   0  0  0  0  0  3  0  0  0  0  0  0
  -23.6440   -7.8940   22.2100 C   0  0  0  0  0  3  0  0  0  0  0  0
  -22.4330   -7.5910   21.5440 C   0  0  0  0  0  0  0  0  0  0  0  0
  -21.9100   -8.5120   20.6190 C   0  0  0  0  0  3  0  0  0  0  0  0
  -22.5670   -9.7290   20.3720 C   0  0  0  0  0  3  0  0  0  0  0  0
  -21.7390   -6.4150   21.7010 O   0  0  0  0  0  0  0  0  0  0  0  0
  -21.7240   -5.7410   22.8960 C   0  0  0  0  0  0  0  0  0  0  0  0
  -21.2480   -6.3400   24.0820 C   0  0  0  0  0  3  0  0  0  0  0  0
  -21.1850   -5.5890   25.2730 C   0  0  0  0  0  3  0  0  0  0  0  0
  -21.5890   -4.2410   25.2790 C   0  0  0  0  0  0  0  0  0  0  0  0
  -22.0580   -3.6410   24.0970 C   0  0  0  0  0  3  0  0  0  0  0  0
  -22.1230   -4.3890   22.9080 C   0  0  0  0  0  0  0  0  0  0  0  0
  -22.5560   -3.8020   21.7670 F   0  0  0  0  0  0  0  0  0  0  0  0
  -21.5220   -3.5170   26.4200 F   0  0  0  0  0  0  0  0  0  0  0  0
  -22.6010  -13.1010   21.5040 C   0  0  0  0  0  0  0  0  0  0  0  0
  -22.0700  -12.3680   22.4780 N   0  0  0  0  0  0  0  0  0  0  0  0
  -22.0420  -14.1190   21.0960 O   0  0  0  0  0  0  0  0  0  0  0  0
  -22.5390  -11.5460   22.8280 H   0  0  0  0  0  0  0  0  0  0  0  0
  -21.1830  -12.6350   22.8810 H   0  0  0  0  0  0  0  0  0  0  0  0
  -25.0090  -14.8730   20.3080 N   0  0  0  0  0  0  0  0  0  0  0  0
  -24.2660  -15.5060   20.5840 H   0  0  0  0  0  0  0  0  0  0  0  0
  -25.7930  -15.3480   19.8780 H   0  0  0  0  0  0  0  0  0  0  0  0
  1 50  1  0
  2  1  2  0
  3  2  1  0
  4  3  1  0
  4  6  1  0
  5  3  2  0
  7  4  1  0
  8  7  1  0
  8  9  1  0
  9 11  1  0
 10 21  2  0
 11 16  1  0
 12 20  1  0
 12 22  1  0
 13 19  1  0
 13 15  1  0
 14 20  1  0
 15 14  1  0
 16 15  2  0
 17 18  1  0
 17 11  2  0
 18 13  2  0
 19 12  1  0
 20 10  1  0
 22 24  2  0
 23 22  1  0
 25 23  1  0
 26 35  2  0
 26 31  1  0
 27 23  1  0
 28 27  1  0
 29 30  1  0
 29 28  1  0
 30 26  1  0
 31 27  1  0
 31 32  2  0
 33 32  1  0
 34 33  2  0
 35 34  1  0
 36 10  1  0
 36 37  1  0
 36 46  1  0
 37 40  1  0
 38 42  1  0
 38 37  1  0
 39 38  2  0
 42 41  1  0
 44 45  1  0
 44 42  1  0
 44 43  1  0
 46 49  1  1
 46 47  1  0
 48 46  1  0
 50 52  2  0
 51 50  1  0
 51 54  1  0
 53 51  1  0
 55 54  1  0
 56 55  1  0
 57 56  1  0
 58 66  1  0
 59 64  1  0
 60 61  1  0
 60 59  1  0
 62 61  1  0
 62 71  1  0
 62 63  1  0
 64 58  1  0
 64 63  1  0
 65 58  2  0
 66 57  1  0
 66 67  1  0
 68 69  2  0
 69 88  1  0
 70 69  1  0
 70 73  1  0
 71 72  1  0
 71 68  1  0
 72 70  2  0
 73 74  1  0
 74 75  2  0
 76 79  1  0
 76 75  1  0
 77 76  2  0
 78 77  1  0
 78 73  2  0
 79 80  1  0
 80 85  2  0
 80 81  1  0
 81 82  2  0
 82 83  1  0
 83 87  1  0
 84 83  2  0
 85 84  1  0
 86 85  1  0
 88 89  1  0
 89 91  1  0
 89 92  1  0
 90 88  2  0
 93 68  1  0
 93 94  1  0
 95 93  1  0
M  ISO  4   8 101   9 101  58 100  66 100
M  END
>  <TORSDO>  (73) 
F 24

>  <SCORE>  (73) 
-9.740

>  <name>  (73) 
77

>  <ligand_id>  (73) 
77

>  <original_smiles>  (73) 
[H]C(C(=O)N([H])C([H])([H])C([H])([H])Oc1c([H])c([H])c2c(c1[H])C([H])([H])N(C(=O)C([H])(N([H])C(=O)C([H])(N([H])C([H])([H])[H])C([H])([H])[H])C(C([H])([H])[H])(C([H])([H])[H])C([H])([H])[H])C([H])(C(=O)N([H])C1([H])c3c([H])c([H])c([H])c([H])c3C([H])([H])C([H])([H])C1([H])[H])C2([H])[H])=C([H])C(=O)N([H])C([H])([H])C([H])([H])C([H])([H])C([H])([H])N([H])C(=O)N1C([H])([H])C([H])([H])C([H])([H])C([H])(n2nc(-c3c([H])c([H])c(Oc4c([H])c([H])c(F)c([H])c4F)c([H])c3[H])c(C(=O)N([H])[H])c2N([H])[H])C1([H])[H]

>  <smiles>  (73) 
[H]C(C(=O)N([H])C([H])([H])C([H])([H])Oc1c([H])c([H])c2c(c1[H])C([H])([H])N(C(=O)C([H])(N([H])C(=O)C([H])(N([H])C([H])([H])[H])C([H])([H])[H])C(C([H])([H])[H])(C([H])([H])[H])C([H])([H])[H])C([H])(C(=O)N([H])C1([H])c3c([H])c([H])c([H])c([H])c3C([H])([H])C([H])([H])C1([H])[H])C2([H])[H])=C([H])C(=O)N([H])C([H])([H])C([H])([H])C([H])([H])C([H])([H])N([H])C(=O)N1C([H])([H])C([H])([H])C([H])([H])C([H])(n2nc(-c3c([H])c([H])c(Oc4c([H])c([H])c(F)c([H])c4F)c([H])c3[H])c(C(=O)N([H])[H])c2N([H])[H])C1([H])[H]

$$$$
78:0:0
     RDKit          3D

 93 93  0  0  1  0  0  0  0  0999 V2000
  -21.2590  -26.7680   19.5220 C   0  0  1  0  0  0  0  0  0  0  0  0
  -22.5830  -27.7000   19.2690 N   0  0  0  0  0  4  0  0  0  0  0  0
  -22.6600  -28.2460   20.1160 H   0  0  0  0  0  0  0  0  0  0  0  0
  -22.2520  -28.3570   18.5770 H   0  0  0  0  0  0  0  0  0  0  0  0
  -24.1430  -27.5150   18.8640 C   0  0  0  0  0  2  0  0  0  0  0  0
  -25.2960  -26.3750   19.4400 C   0  0  0  0  0  2  0  0  0  0  0  0
  -26.8580  -26.4290   19.5840 O   0  0  0  0  0  0  0  0  0  0  0  0
  -24.8130  -29.7380   25.1110 C   0  0  0  0  0  0  0  0  0  0  0  0
  -27.1980  -27.6730   19.9670 C   0  0  0  0  0  0  0  0  0  0  0  0
  -23.8410  -30.0010   22.8790 C   0  0  0  0  0  3  0  0  0  0  0  0
  -25.4120  -29.5540   20.8880 C   0  0  0  0  0  0  0  0  0  0  0  0
  -26.3600  -29.6140   23.1750 C   0  0  0  0  0  2  0  0  0  0  0  0
  -26.3600  -29.0390   21.7740 C   0  0  0  0  0  0  0  0  0  0  0  0
  -27.2650  -28.0420   21.3360 C   0  0  0  0  0  3  0  0  0  0  0  0
  -26.5810  -28.5000   19.0450 C   0  0  0  0  0  3  0  0  0  0  0  0
  -25.6040  -29.3780   19.5140 C   0  0  0  0  0  3  0  0  0  0  0  0
  -24.3430  -30.4500   21.4710 C   0  0  0  0  0  2  0  0  0  0  0  0
  -25.0160  -29.8020   23.7730 N   0  0  0  0  0  0  0  0  0  0  0  0
  -23.6900  -29.9090   25.6030 O   0  0  0  0  0  0  0  0  0  0  0  0
  -23.0320  -28.6760   22.8920 C   0  0  0  0  0  0  0  0  0  0  0  0
  -21.7190  -28.6420   22.8410 N   0  0  0  0  0  0  0  0  0  0  0  0
  -23.6100  -27.6000   22.9650 O   0  0  0  0  0  0  0  0  0  0  0  0
  -21.1630  -29.4870   22.8790 H   0  0  0  0  0  0  0  0  0  0  0  0
  -18.1370  -28.1920   21.5000 C   0  0  0  0  0  3  0  0  0  0  0  0
  -21.0510  -27.3410   22.5320 C   0  0  0  0  0  2  0  0  0  0  0  0
  -22.0770  -26.6550   20.6540 C   0  0  0  0  0  1  0  0  0  0  0  0
  -20.3700  -27.0680   18.5090 C   0  0  0  0  0  1  0  0  0  0  0  0
  -18.3080  -27.6920   19.5420 C   0  0  0  0  0 15  0  0  0  0  0  0
  -19.2710  -28.0370   22.6770 C   0  0  0  0  0  0  0  0  0  0  0  0
  -19.0650  -28.8490   23.8910 C   0  0  0  0  0  3  0  0  0  0  0  0
  -17.9550  -29.6810   24.2020 C   0  0  0  0  0  3  0  0  0  0  0  0
  -16.9330  -29.7680   23.2470 C   0  0  0  0  0  3  0  0  0  0  0  0
  -17.0500  -29.0800   21.9810 C   0  0  0  0  0  3  0  0  0  0  0  0
  -25.9940  -29.4610   26.0790 C   0  0  0  0  0  3  0  0  0  0  0  0
  -26.4340  -30.7640   26.5840 N   0  0  0  0  0  0  0  0  0  0  0  0
  -27.5980  -31.3420   26.2630 C   0  0  0  0  0  0  0  0  0  0  0  0
  -28.4580  -30.7830   25.5760 O   0  0  0  0  0  0  0  0  0  0  0  0
  -25.7580  -31.3020   27.1070 H   0  0  0  0  0  0  0  0  0  0  0  0
  -27.8010  -33.7670   25.6320 C   0  0  0  0  0  1  0  0  0  0  0  0
  -27.8470  -32.7640   26.7960 C   0  0  0  0  0  3  0  0  0  0  0  0
  -29.1480  -32.1620   28.7870 C   0  0  0  0  0  1  0  0  0  0  0  0
  -29.1230  -32.9010   27.5280 N   0  0  0  0  0  0  0  0  0  0  0  0
  -29.3180  -33.8780   27.7310 H   0  0  0  0  0  0  0  0  0  0  0  0
  -25.6160  -28.4920   27.2640 C   0  0  1  0  0  0  0  0  0  0  0  0
  -24.3600  -28.9370   28.0480 C   0  0  0  0  0  1  0  0  0  0  0  0
  -25.3640  -27.0510   26.7590 C   0  0  0  0  0  1  0  0  0  0  0  0
  -26.8010  -28.4050   28.2560 C   0  0  0  0  0  1  0  0  0  0  0  0
  -21.7790  -23.4950   18.7530 C   0  0  0  0  0 15  0  0  0  0  0  0
  -21.0730  -25.0550   19.7710 C   0  0  0  0  0  1  0  0  0  0  0  0
  -22.8620  -23.3030   16.9950 C   0  0  0  0  0  2  0  0  0  0  0  0
  -23.6190  -23.7260   15.3810 N   0  0  0  0  0  2  0  0  0  0  0  0
  -23.2860  -22.1540   17.0790 O   0  0  0  0  0  1  0  0  0  0  0  0
  -24.0340  -22.8040   15.3220 H   0  0  0  0  0  0  0  0  0  0  0  0
  -24.3900  -24.4230   13.4780 C   0  0  0  0  0 15  0  0  0  0  0  0
  -25.6750  -24.2600   11.4150 C   0  0  0  0  0 15  0  0  0  0  0  0
  -26.9380  -24.5400    7.6730 C   0  0  0  0  0  0  0  0  0  0  0  0
  -27.0070  -24.7940    4.7250 C   0  0  0  0  0  2  0  0  0  0  0  0
  -25.8780  -25.4730    3.8220 C   0  0  0  0  0  2  0  0  0  0  0  0
  -24.5770  -24.6720    3.8650 C   0  0  0  0  0  2  0  0  0  0  0  0
  -24.5000  -24.0650    5.2690 C   0  0  0  0  0  3  0  0  0  0  0  0
  -25.7000  -23.2150    5.6720 C   0  0  0  0  0  2  0  0  0  0  0  0
  -26.5590  -24.2500    6.1920 N   0  0  0  0  0  0  0  0  0  0  0  0
  -28.0890  -24.9880    7.2810 O   0  0  0  0  0  0  0  0  0  0  0  0
  -26.1280  -24.5990    9.3160 N   0  0  0  0  0  2  0  0  0  0  0  0
  -26.2180  -25.6050    9.3870 H   0  0  0  0  0  0  0  0  0  0  0  0
  -22.4090  -23.6990    6.5050 C   0  0  0  0  0  0  0  0  0  0  0  0
  -21.5170  -22.6800    6.4970 C   0  0  0  0  0  0  0  0  0  0  0  0
  -22.0390  -21.7060    5.5880 C   0  0  0  0  0  0  0  0  0  0  0  0
  -23.3650  -23.3160    5.5950 N   0  0  0  0  0  0  0  0  0  0  0  0
  -23.2100  -22.0770    5.1050 N   0  0  0  0  0  0  0  0  0  0  0  0
  -21.4550  -20.4790    5.0790 C   0  0  0  0  0  0  0  0  0  0  0  0
  -22.1970  -19.2810    5.0170 C   0  0  0  0  0  3  0  0  0  0  0  0
  -21.5940  -18.1050    4.5260 C   0  0  0  0  0  3  0  0  0  0  0  0
  -20.2450  -18.1290    4.1020 C   0  0  0  0  0  0  0  0  0  0  0  0
  -19.5250  -19.3340    4.1430 C   0  0  0  0  0  3  0  0  0  0  0  0
  -20.1250  -20.5050    4.6250 C   0  0  0  0  0  3  0  0  0  0  0  0
  -19.5790  -17.0420    3.6010 O   0  0  0  0  0  0  0  0  0  0  0  0
  -19.8650  -15.7710    4.0260 C   0  0  0  0  0  0  0  0  0  0  0  0
  -20.9740  -15.4920    4.8520 C   0  0  0  0  0  3  0  0  0  0  0  0
  -21.1880  -14.1830    5.3240 C   0  0  0  0  0  3  0  0  0  0  0  0
  -20.2900  -13.1550    4.9770 C   0  0  0  0  0  0  0  0  0  0  0  0
  -19.1830  -13.4320    4.1570 C   0  0  0  0  0  3  0  0  0  0  0  0
  -18.9690  -14.7390    3.6840 C   0  0  0  0  0  0  0  0  0  0  0  0
  -17.8900  -15.0080    2.9110 F   0  0  0  0  0  0  0  0  0  0  0  0
  -20.4890  -11.8980    5.4370 F   0  0  0  0  0  0  0  0  0  0  0  0
  -20.2070  -22.6750    7.2100 C   0  0  0  0  0  0  0  0  0  0  0  0
  -19.6360  -21.4970    7.4220 N   0  0  0  0  0  0  0  0  0  0  0  0
  -19.7080  -23.7190    7.6280 O   0  0  0  0  0  0  0  0  0  0  0  0
  -20.0590  -20.6420    7.0910 H   0  0  0  0  0  0  0  0  0  0  0  0
  -18.7590  -21.4480    7.9200 H   0  0  0  0  0  0  0  0  0  0  0  0
  -22.4800  -24.9150    7.1840 N   0  0  0  0  0  0  0  0  0  0  0  0
  -21.7590  -25.2140    7.8300 H   0  0  0  0  0  0  0  0  0  0  0  0
  -23.2260  -25.5920    7.0970 H   0  0  0  0  0  0  0  0  0  0  0  0
  1 49  1  6
  1 26  1  0
  2  1  1  0
  2  3  1  0
  4  2  1  0
  5  2  1  0
  5  6  1  0
  6  7  1  0
  7  9  1  0
  8 19  2  0
  9 14  1  0
 10 20  1  0
 10 18  1  0
 11 17  1  0
 11 13  1  0
 12 18  1  0
 13 12  1  0
 14 13  2  0
 15 16  1  0
 15  9  2  0
 16 11  2  0
 17 10  1  0
 18  8  1  0
 20 22  2  0
 21 23  1  0
 21 20  1  0
 24 33  2  0
 24 29  1  0
 25 29  1  0
 25 21  1  0
 27  1  1  0
 29 30  2  0
 30 31  1  0
 32 31  2  0
 33 32  1  0
 34  8  1  0
 34 35  1  0
 34 44  1  0
 35 38  1  0
 36 35  1  0
 36 40  1  0
 37 36  2  0
 40 39  1  0
 40 42  1  0
 42 43  1  0
 42 41  1  0
 44 45  1  1
 44 47  1  0
 46 44  1  0
 50 52  1  0
 51 50  1  0
 53 51  1  0
 56 64  1  0
 57 62  1  0
 58 59  1  0
 58 57  1  0
 60 59  1  0
 60 69  1  0
 60 61  1  0
 61 62  1  0
 62 56  1  0
 63 56  2  0
 64 65  1  0
 66 91  1  0
 67 66  2  0
 67 86  1  0
 68 67  1  0
 69 66  1  0
 70 68  2  0
 70 69  1  0
 71 68  1  0
 72 71  1  0
 73 72  2  0
 74 75  2  0
 74 73  1  0
 75 76  1  0
 76 71  2  0
 77 78  1  0
 77 74  1  0
 78 79  1  0
 79 80  2  0
 81 80  1  0
 81 85  1  0
 82 81  2  0
 83 78  2  0
 83 82  1  0
 84 83  1  0
 86 87  1  0
 86 88  2  0
 87 90  1  0
 89 87  1  0
 91 92  1  0
 93 91  1  0
M  ISO  4   6 101   7 101  56 100  64 100
M  END
>  <TORSDO>  (74) 
F 23

>  <SCORE>  (74) 
-6.060

>  <name>  (74) 
78

>  <ligand_id>  (74) 
78

>  <original_smiles>  (74) 
[H]C(C(=O)N([H])C([H])([H])C([H])([H])N([H])C(=O)N1C([H])([H])C([H])([H])C([H])([H])C([H])(n2nc(-c3c([H])c([H])c(Oc4c([H])c([H])c(F)c([H])c4F)c([H])c3[H])c(C(=O)N([H])[H])c2N([H])[H])C1([H])[H])=C([H])C([H])([H])[N+]([H])([H])C([H])([H])C([H])([H])Oc1c([H])c([H])c2c(c1[H])C([H])([H])N(C(=O)C([H])(N([H])C(=O)C([H])(N([H])C([H])([H])[H])C([H])([H])[H])C(C([H])([H])[H])(C([H])([H])[H])C([H])([H])[H])C([H])(C(=O)N([H])C1([H])c3c([H])c([H])c([H])c([H])c3C([H])([H])C([H])([H])C1([H])[H])C2([H])[H]

>  <smiles>  (74) 
[H]C(C(=O)N([H])C([H])([H])C([H])([H])N([H])C(=O)N1C([H])([H])C([H])([H])C([H])([H])C([H])(n2nc(-c3c([H])c([H])c(Oc4c([H])c([H])c(F)c([H])c4F)c([H])c3[H])c(C(=O)N([H])[H])c2N([H])[H])C1([H])[H])=C([H])C([H])([H])[N+]([H])([H])C([H])([H])C([H])([H])Oc1c([H])c([H])c2c(c1[H])C([H])([H])N(C(=O)C([H])(N([H])C(=O)C([H])(N([H])C([H])([H])[H])C([H])([H])[H])C(C([H])([H])[H])(C([H])([H])[H])C([H])([H])[H])C([H])(C(=O)N([H])C1([H])c3c([H])c([H])c([H])c([H])c3C([H])([H])C([H])([H])C1([H])[H])C2([H])[H]

$$$$
79:0:0
     RDKit          3D

 96103  0  0  1  0  0  0  0  0999 V2000
  -29.4320  -23.3480   23.4230 C   0  0  0  0  0  2  0  0  0  0  0  0
  -29.1620  -21.8450   23.2950 C   0  0  0  0  0  2  0  0  0  0  0  0
  -30.3630  -21.2350   22.7460 N   0  0  0  0  0  0  0  0  0  0  0  0
  -31.1670  -21.4370   23.3370 H   0  0  0  0  0  0  0  0  0  0  0  0
  -30.2190  -19.7980   22.5640 C   0  0  0  0  0  2  0  0  0  0  0  0
  -31.2590  -19.3470   21.5270 C   0  0  0  0  0  2  0  0  0  0  0  0
  -31.2130  -17.8950   21.2850 N   0  0  0  0  0  4  0  0  0  0  0  0
  -31.4040  -17.4190   22.1510 H   0  0  0  0  0  0  0  0  0  0  0  0
  -30.2870  -17.6380   20.9820 H   0  0  0  0  0  0  0  0  0  0  0  0
  -32.1830  -17.4460   20.2660 C   0  0  0  0  0  2  0  0  0  0  0  0
  -32.5110  -15.9530   20.4000 C   0  0  0  0  0  2  0  0  0  0  0  0
  -31.3390  -14.3000   18.9710 C   0  0  0  0  0  0  0  0  0  0  0  0
  -30.9210  -11.9390   18.4340 C   0  0  0  0  0  2  0  0  0  0  0  0
  -29.8180  -11.6880   17.3950 C   0  0  0  0  0  2  0  0  0  0  0  0
  -28.4400  -11.6320   18.0750 C   0  0  0  0  0  2  0  0  0  0  0  0
  -28.1850  -12.8500   18.9980 C   0  0  0  0  0  3  0  0  0  0  0  0
  -29.3750  -13.0820   19.9540 C   0  0  0  0  0  2  0  0  0  0  0  0
  -30.6170  -13.1740   19.1630 N   0  0  0  0  0  0  0  0  0  0  0  0
  -32.0920  -14.4870   18.0100 O   0  0  0  0  0  0  0  0  0  0  0  0
  -31.3910  -15.0740   20.0620 N   0  0  0  0  0  0  0  0  0  0  0  0
  -30.7870  -14.7890   20.8190 H   0  0  0  0  0  0  0  0  0  0  0  0
  -26.0740  -13.6880   20.2140 C   0  0  0  0  0  0  0  0  0  0  0  0
  -25.0030  -13.0230   20.7510 C   0  0  0  0  0  0  0  0  0  0  0  0
  -25.2620  -11.6330   20.5490 C   0  0  0  0  0  0  0  0  0  0  0  0
  -26.9250  -12.7080   19.7270 N   0  0  0  0  0  0  0  0  0  0  0  0
  -26.4490  -11.4620   19.9800 N   0  0  0  0  0  0  0  0  0  0  0  0
  -24.4210  -10.4570   20.8120 C   0  0  0  0  0  0  0  0  0  0  0  0
  -24.8160   -9.4570   21.7280 C   0  0  0  0  0  3  0  0  0  0  0  0
  -23.9820   -8.3450   21.9780 C   0  0  0  0  0  3  0  0  0  0  0  0
  -22.7390   -8.2260   21.3100 C   0  0  0  0  0  0  0  0  0  0  0  0
  -22.3630   -9.2130   20.3820 C   0  0  0  0  0  3  0  0  0  0  0  0
  -23.1960  -10.3150   20.1320 C   0  0  0  0  0  3  0  0  0  0  0  0
  -21.8760   -7.1690   21.4700 O   0  0  0  0  0  0  0  0  0  0  0  0
  -21.7380   -6.5290   22.6770 C   0  0  0  0  0  0  0  0  0  0  0  0
  -21.3320   -7.2160   23.8410 C   0  0  0  0  0  3  0  0  0  0  0  0
  -21.1330   -6.5080   25.0430 C   0  0  0  0  0  3  0  0  0  0  0  0
  -21.3300   -5.1150   25.0820 C   0  0  0  0  0  0  0  0  0  0  0  0
  -21.7300   -4.4280   23.9210 C   0  0  0  0  0  3  0  0  0  0  0  0
  -21.9300   -5.1340   22.7220 C   0  0  0  0  0  0  0  0  0  0  0  0
  -22.2940   -4.4650   21.6020 F   0  0  0  0  0  0  0  0  0  0  0  0
  -21.1330   -4.4330   26.2330 F   0  0  0  0  0  0  0  0  0  0  0  0
  -23.7640  -13.6420   21.3310 C   0  0  0  0  0  0  0  0  0  0  0  0
  -23.1460  -12.9810   22.3040 N   0  0  0  0  0  0  0  0  0  0  0  0
  -23.3640  -14.7430   20.9560 O   0  0  0  0  0  0  0  0  0  0  0  0
  -23.4850  -12.0860   22.6260 H   0  0  0  0  0  0  0  0  0  0  0  0
  -22.3220  -13.3770   22.7350 H   0  0  0  0  0  0  0  0  0  0  0  0
  -26.3860  -15.0380   20.0820 N   0  0  0  0  0  0  0  0  0  0  0  0
  -25.7500  -15.7730   20.3750 H   0  0  0  0  0  0  0  0  0  0  0  0
  -27.2090  -15.3920   19.6100 H   0  0  0  0  0  0  0  0  0  0  0  0
  -28.1920  -24.2100   23.1310 C   0  0  0  0  0  2  0  0  0  0  0  0
  -28.5770  -25.5510   22.6450 N   0  0  0  0  0  4  0  0  0  0  0  0
  -29.3250  -25.8990   23.2260 H   0  0  0  0  0  0  0  0  0  0  0  0
  -27.7870  -26.1660   22.7740 H   0  0  0  0  0  0  0  0  0  0  0  0
  -28.9730  -25.5710   21.2150 C   0  0  0  0  0  2  0  0  0  0  0  0
  -29.5890  -26.9130   20.7780 C   0  0  0  0  0  2  0  0  0  0  0  0
  -29.0080  -27.3020   19.5360 O   0  0  0  0  0  0  0  0  0  0  0  0
  -24.6750  -31.6440   23.1380 C   0  0  0  0  0  0  0  0  0  0  0  0
  -27.7660  -27.8710   19.6540 C   0  0  0  0  0  0  0  0  0  0  0  0
  -23.6020  -30.2320   21.4100 C   0  0  0  0  0  3  0  0  0  0  0  0
  -25.1950  -29.0050   19.8420 C   0  0  0  0  0  0  0  0  0  0  0  0
  -26.0450  -30.9370   21.1850 C   0  0  0  0  0  2  0  0  0  0  0  0
  -26.2870  -29.6420   20.4440 C   0  0  0  0  0  0  0  0  0  0  0  0
  -27.5750  -29.0810   20.3540 C   0  0  0  0  0  3  0  0  0  0  0  0
  -26.6650  -27.2370   19.0470 C   0  0  0  0  0  3  0  0  0  0  0  0
  -25.3760  -27.7950   19.1430 C   0  0  0  0  0  3  0  0  0  0  0  0
  -23.8530  -29.6850   19.9790 C   0  0  0  0  0  2  0  0  0  0  0  0
  -24.7920  -30.9470   21.9720 N   0  0  0  0  0  0  0  0  0  0  0  0
  -23.5850  -31.7370   23.7200 O   0  0  0  0  0  0  0  0  0  0  0  0
  -23.1120  -29.0670   22.2980 C   0  0  0  0  0  0  0  0  0  0  0  0
  -21.8340  -28.6920   22.1330 N   0  0  0  0  0  0  0  0  0  0  0  0
  -23.8780  -28.5070   23.0860 O   0  0  0  0  0  0  0  0  0  0  0  0
  -21.2720  -29.2060   21.4670 H   0  0  0  0  0  0  0  0  0  0  0  0
  -18.6950  -26.9340   22.4500 C   0  0  0  0  0  0  0  0  0  0  0  0
  -21.1640  -27.5950   22.8290 C   0  0  0  0  0  3  0  0  0  0  0  0
  -21.5210  -26.2320   22.1920 C   0  0  0  0  0  2  0  0  0  0  0  0
  -20.5190  -25.7840   21.1250 C   0  0  0  0  0  2  0  0  0  0  0  0
  -19.1120  -25.6670   21.7210 C   0  0  0  0  0  2  0  0  0  0  0  0
  -19.6590  -27.8470   22.9560 C   0  0  0  0  0  0  0  0  0  0  0  0
  -19.2170  -29.0260   23.5950 C   0  0  0  0  0  3  0  0  0  0  0  0
  -17.8440  -29.3000   23.7310 C   0  0  0  0  0  3  0  0  0  0  0  0
  -16.8930  -28.3880   23.2420 C   0  0  0  0  0  3  0  0  0  0  0  0
  -17.3200  -27.2040   22.6090 C   0  0  0  0  0  3  0  0  0  0  0  0
  -25.8940  -32.3770   23.7800 C   0  0  0  0  0  3  0  0  0  0  0  0
  -25.4570  -33.7340   24.1330 N   0  0  0  0  0  0  0  0  0  0  0  0
  -25.7150  -34.8270   23.4030 C   0  0  0  0  0  0  0  0  0  0  0  0
  -26.4150  -34.8050   22.3870 O   0  0  0  0  0  0  0  0  0  0  0  0
  -24.8370  -33.8210   24.9260 H   0  0  0  0  0  0  0  0  0  0  0  0
  -23.8500  -36.4670   23.0300 C   0  0  0  0  0  1  0  0  0  0  0  0
  -25.0950  -36.1560   23.8740 C   0  0  0  0  0  3  0  0  0  0  0  0
  -27.1180  -37.1990   24.7940 C   0  0  0  0  0  1  0  0  0  0  0  0
  -26.0360  -37.2940   23.8170 N   0  0  0  0  0  0  0  0  0  0  0  0
  -25.5490  -38.1730   23.9700 H   0  0  0  0  0  0  0  0  0  0  0  0
  -26.4740  -31.6290   25.0430 C   0  0  1  0  0  0  0  0  0  0  0  0
  -25.4040  -31.2570   26.0940 C   0  0  0  0  0  1  0  0  0  0  0  0
  -27.1920  -30.3260   24.6180 C   0  0  0  0  0  1  0  0  0  0  0  0
  -27.5370  -32.5170   25.7350 C   0  0  0  0  0  1  0  0  0  0  0  0
  2  1  1  0
  3  2  1  0
  3  4  1  0
  5  3  1  0
  6  5  1  0
  7  6  1  0
  7  8  1  0
  9  7  1  0
 10 11  1  0
 10  7  1  0
 12 18  1  0
 12 20  1  0
 13 18  1  0
 14 15  1  0
 14 13  1  0
 16 15  1  0
 16 25  1  0
 16 17  1  0
 18 17  1  0
 19 12  2  0
 20 11  1  0
 20 21  1  0
 22 23  2  0
 23 42  1  0
 24 23  1  0
 24 27  1  0
 25 26  1  0
 25 22  1  0
 26 24  2  0
 27 28  1  0
 28 29  2  0
 30 33  1  0
 30 29  1  0
 31 30  2  0
 32 31  1  0
 32 27  2  0
 33 34  1  0
 34 39  2  0
 34 35  1  0
 35 36  2  0
 36 37  1  0
 37 41  1  0
 38 37  2  0
 39 38  1  0
 40 39  1  0
 42 43  1  0
 43 45  1  0
 43 46  1  0
 44 42  2  0
 47 22  1  0
 47 48  1  0
 49 47  1  0
 50  1  1  0
 51 53  1  0
 51 50  1  0
 51 52  1  0
 54 51  1  0
 55 54  1  0
 56 58  1  0
 56 55  1  0
 57 68  2  0
 58 63  1  0
 59 67  1  0
 59 69  1  0
 60 66  1  0
 60 62  1  0
 61 67  1  0
 62 61  1  0
 63 62  2  0
 64 65  1  0
 64 58  2  0
 65 60  2  0
 66 59  1  0
 67 57  1  0
 69 71  2  0
 70 69  1  0
 72 70  1  0
 73 82  2  0
 73 78  1  0
 74 70  1  0
 74 78  1  0
 75 74  1  0
 76 77  1  0
 76 75  1  0
 77 73  1  0
 78 79  2  0
 79 80  1  0
 81 80  2  0
 82 81  1  0
 83 57  1  0
 83 84  1  0
 83 93  1  0
 84 87  1  0
 85 89  1  0
 85 84  1  0
 86 85  2  0
 89 88  1  0
 91 89  1  0
 91 92  1  0
 91 90  1  0
 93 96  1  1
 93 94  1  0
 95 93  1  0
M  ISO  4  12 100  20 100  55 101  56 101
M  END
>  <TORSDO>  (75) 
F 27

>  <SCORE>  (75) 
-7.636

>  <name>  (75) 
79

>  <ligand_id>  (75) 
79

>  <original_smiles>  (75) 
[H]c1c([H])c([H])c2c(c1[H])C([H])([H])C([H])([H])C([H])([H])C2([H])N([H])C(=O)C1([H])N(C(=O)C([H])(N([H])C(=O)C([H])(N([H])C([H])([H])[H])C([H])([H])[H])C(C([H])([H])[H])(C([H])([H])[H])C([H])([H])[H])C([H])([H])c2c([H])c(OC([H])([H])C([H])([H])[N+]([H])([H])C([H])([H])C([H])([H])C([H])([H])N([H])C([H])([H])C([H])([H])[N+]([H])([H])C([H])([H])C([H])([H])N([H])C(=O)N3C([H])([H])C([H])([H])C([H])([H])C([H])(n4nc(-c5c([H])c([H])c(Oc6c([H])c([H])c(F)c([H])c6F)c([H])c5[H])c(C(=O)N([H])[H])c4N([H])[H])C3([H])[H])c([H])c([H])c2C1([H])[H]

>  <smiles>  (75) 
[H]c1c([H])c([H])c2c(c1[H])C([H])([H])C([H])([H])C([H])([H])C2([H])N([H])C(=O)C1([H])N(C(=O)C([H])(N([H])C(=O)C([H])(N([H])C([H])([H])[H])C([H])([H])[H])C(C([H])([H])[H])(C([H])([H])[H])C([H])([H])[H])C([H])([H])c2c([H])c(OC([H])([H])C([H])([H])[N+]([H])([H])C([H])([H])C([H])([H])C([H])([H])N([H])C([H])([H])C([H])([H])[N+]([H])([H])C([H])([H])C([H])([H])N([H])C(=O)N3C([H])([H])C([H])([H])C([H])([H])C([H])(n4nc(-c5c([H])c([H])c(Oc6c([H])c([H])c(F)c([H])c6F)c([H])c5[H])c(C(=O)N([H])[H])c4N([H])[H])C3([H])[H])c([H])c([H])c2C1([H])[H]

$$$$
80:0:0
     RDKit          3D

 99104  0  0  1  0  0  0  0  0999 V2000
  -20.3040  -23.5540   22.8040 N   0  0  0  0  0  4  0  0  0  0  0  0
  -19.4490  -23.5690   23.4070 H   0  0  0  0  0  0  0  0  0  0  0  0
  -20.9050  -23.0180   23.4680 H   0  0  0  0  0  0  0  0  0  0  0  0
  -21.3430  -24.5990   22.3980 C   0  0  0  0  0  2  0  0  0  0  0  0
  -22.1930  -25.0940   20.9380 C   0  0  0  0  0  3  0  0  0  0  0  0
  -23.6900  -24.6890   20.0560 C   0  0  0  0  0  3  0  0  0  0  0  0
  -24.8180  -23.4810   20.5020 N   0  0  0  0  0  4  0  0  0  0  0  0
  -25.4270  -24.2950   20.3570 H   0  0  0  0  0  0  0  0  0  0  0  0
  -24.6640  -23.6090   21.4770 H   0  0  0  0  0  0  0  0  0  0  0  0
  -26.0230  -22.2260   19.9830 C   0  0  0  0  0  1  0  0  0  0  0  0
  -26.5570  -20.3050   20.0280 C   0  0  0  0  0 15  0  0  0  0  0  0
  -28.0830  -18.9910   19.6870 C   0  0  0  0  0  1  0  0  0  0  0  0
  -29.8960  -16.0150   19.7250 C   0  0  0  0  0  0  0  0  0  0  0  0
  -30.5810  -13.3830   19.1430 C   0  0  0  0  0  2  0  0  0  0  0  0
  -29.8030  -12.6200   18.0170 C   0  0  0  0  0  2  0  0  0  0  0  0
  -28.4290  -12.1720   18.5100 C   0  0  0  0  0  2  0  0  0  0  0  0
  -27.8080  -13.2720   19.3940 C   0  0  0  0  0  3  0  0  0  0  0  0
  -28.7300  -13.7980   20.5030 C   0  0  0  0  0  2  0  0  0  0  0  0
  -29.7530  -14.5410   19.7920 N   0  0  0  0  0  0  0  0  0  0  0  0
  -31.1220  -16.1070   19.4110 O   0  0  0  0  0  0  0  0  0  0  0  0
  -28.8160  -17.2590   19.8960 N   0  0  0  0  0  0  0  0  0  0  0  0
  -29.6940  -17.7280   19.9020 H   0  0  0  0  0  0  0  0  0  0  0  0
  -25.5670  -13.8640   20.3440 C   0  0  0  0  0  0  0  0  0  0  0  0
  -24.5160  -13.1070   20.7610 C   0  0  0  0  0  0  0  0  0  0  0  0
  -24.9280  -11.7450   20.6190 C   0  0  0  0  0  0  0  0  0  0  0  0
  -26.5340  -12.9590   19.9660 N   0  0  0  0  0  0  0  0  0  0  0  0
  -26.1810  -11.6750   20.1940 N   0  0  0  0  0  0  0  0  0  0  0  0
  -24.1690  -10.5040   20.8030 C   0  0  0  0  0  0  0  0  0  0  0  0
  -24.5480   -9.5390   21.7620 C   0  0  0  0  0  3  0  0  0  0  0  0
  -23.7840   -8.3670   21.9280 C   0  0  0  0  0  3  0  0  0  0  0  0
  -22.6320   -8.1520   21.1370 C   0  0  0  0  0  0  0  0  0  0  0  0
  -22.2770   -9.1020   20.1660 C   0  0  0  0  0  3  0  0  0  0  0  0
  -23.0390  -10.2690   19.9950 C   0  0  0  0  0  3  0  0  0  0  0  0
  -21.8430   -7.0310   21.2110 O   0  0  0  0  0  0  0  0  0  0  0  0
  -21.6100   -6.3950   22.4030 C   0  0  0  0  0  0  0  0  0  0  0  0
  -21.0400   -7.0640   23.5070 C   0  0  0  0  0  3  0  0  0  0  0  0
  -20.7540   -6.3550   24.6900 C   0  0  0  0  0  3  0  0  0  0  0  0
  -21.0270   -4.9750   24.7680 C   0  0  0  0  0  0  0  0  0  0  0  0
  -21.5900   -4.3060   23.6670 C   0  0  0  0  0  3  0  0  0  0  0  0
  -21.8780   -5.0130   22.4870 C   0  0  0  0  0  0  0  0  0  0  0  0
  -22.4010   -4.3590   21.4220 F   0  0  0  0  0  0  0  0  0  0  0  0
  -20.7450   -4.2900   25.9010 F   0  0  0  0  0  0  0  0  0  0  0  0
  -23.1720  -13.6270   21.1640 C   0  0  0  0  0  0  0  0  0  0  0  0
  -22.4950  -12.9260   22.0640 N   0  0  0  0  0  0  0  0  0  0  0  0
  -22.7420  -14.6890   20.7150 O   0  0  0  0  0  0  0  0  0  0  0  0
  -22.8650  -12.0700   22.4460 H   0  0  0  0  0  0  0  0  0  0  0  0
  -21.5940  -13.2530   22.3790 H   0  0  0  0  0  0  0  0  0  0  0  0
  -25.7820  -15.2390   20.2520 N   0  0  0  0  0  0  0  0  0  0  0  0
  -25.0540  -15.9020   20.4950 H   0  0  0  0  0  0  0  0  0  0  0  0
  -26.6380  -15.6850   19.9490 H   0  0  0  0  0  0  0  0  0  0  0  0
  -19.9520  -22.8350   21.4410 C   0  0  0  0  0  2  0  0  0  0  0  0
  -20.6040  -23.2750   20.1290 C   0  0  0  0  0  3  0  0  0  0  0  0
  -20.0380  -23.9430   18.6920 C   0  0  0  0  0  3  0  0  0  0  0  0
  -20.8900  -23.9050   17.3660 N   0  0  0  0  0  4  0  0  0  0  0  0
  -20.1020  -23.8190   16.6860 H   0  0  0  0  0  0  0  0  0  0  0  0
  -21.3120  -23.0260   17.3260 H   0  0  0  0  0  0  0  0  0  0  0  0
  -21.8490  -25.0060   16.6040 C   0  0  0  0  0  2  0  0  0  0  0  0
  -23.5390  -25.0740   16.0980 C   0  0  0  0  0  2  0  0  0  0  0  0
  -24.9190  -25.7390   16.6270 O   0  0  0  0  0  0  0  0  0  0  0  0
  -25.0090  -29.3280   23.0330 C   0  0  0  0  0  0  0  0  0  0  0  0
  -24.9360  -26.9300   17.3530 C   0  0  0  0  0  0  0  0  0  0  0  0
  -23.3300  -29.2950   21.2700 C   0  0  0  0  0  3  0  0  0  0  0  0
  -23.8420  -28.9600   18.8840 C   0  0  0  0  0  0  0  0  0  0  0  0
  -25.7260  -29.1300   20.5630 C   0  0  0  0  0  2  0  0  0  0  0  0
  -25.1080  -28.5110   19.2470 C   0  0  0  0  0  0  0  0  0  0  0  0
  -25.6570  -27.4250   18.4930 C   0  0  0  0  0  3  0  0  0  0  0  0
  -23.8630  -27.7010   16.8940 C   0  0  0  0  0  3  0  0  0  0  0  0
  -23.1850  -28.5370   17.7420 C   0  0  0  0  0  3  0  0  0  0  0  0
  -23.0010  -29.7660   19.8460 C   0  0  0  0  0  2  0  0  0  0  0  0
  -24.7480  -29.3830   21.6830 N   0  0  0  0  0  0  0  0  0  0  0  0
  -24.1140  -29.5430   23.8870 O   0  0  0  0  0  0  0  0  0  0  0  0
  -22.3550  -28.2880   21.8760 C   0  0  0  0  0  0  0  0  0  0  0  0
  -21.0500  -28.5510   21.6850 N   0  0  0  0  0  0  0  0  0  0  0  0
  -22.7500  -27.3110   22.5240 O   0  0  0  0  0  0  0  0  0  0  0  0
  -20.7470  -29.3080   21.0620 H   0  0  0  0  0  0  0  0  0  0  0  0
  -17.7260  -28.4010   21.7230 C   0  0  0  0  0  0  0  0  0  0  0  0
  -20.0410  -27.7590   22.3770 C   0  0  0  0  0  3  0  0  0  0  0  0
  -19.6180  -26.6810   21.7230 C   0  0  0  0  0  2  0  0  0  0  0  0
  -18.6100  -26.6970   20.4480 C   0  0  0  0  0  2  0  0  0  0  0  0
  -17.8070  -27.8630   20.2960 C   0  0  0  0  0  2  0  0  0  0  0  0
  -18.8090  -28.5030   22.5450 C   0  0  0  0  0  0  0  0  0  0  0  0
  -18.7500  -29.2060   23.7470 C   0  0  0  0  0  3  0  0  0  0  0  0
  -17.4730  -29.6330   24.0590 C   0  0  0  0  0  3  0  0  0  0  0  0
  -16.3260  -29.4340   23.1770 C   0  0  0  0  0  3  0  0  0  0  0  0
  -16.4680  -28.8750   21.9660 C   0  0  0  0  0  3  0  0  0  0  0  0
  -26.4330  -29.0350   23.5240 C   0  0  0  0  0  3  0  0  0  0  0  0
  -26.7620  -30.0800   24.4990 N   0  0  0  0  0  0  0  0  0  0  0  0
  -27.4640  -31.1790   24.2070 C   0  0  0  0  0  0  0  0  0  0  0  0
  -27.9730  -31.3800   23.1040 O   0  0  0  0  0  0  0  0  0  0  0  0
  -26.3380  -30.0140   25.4150 H   0  0  0  0  0  0  0  0  0  0  0  0
  -26.6940  -33.4260   25.0630 C   0  0  0  0  0  1  0  0  0  0  0  0
  -27.6330  -32.2380   25.3200 C   0  0  0  0  0  3  0  0  0  0  0  0
  -29.9410  -31.7020   25.9600 C   0  0  0  0  0  1  0  0  0  0  0  0
  -29.0230  -32.7200   25.4570 N   0  0  0  0  0  0  0  0  0  0  0  0
  -29.0650  -33.5160   26.0890 H   0  0  0  0  0  0  0  0  0  0  0  0
  -26.5990  -27.6140   24.1880 C   0  0  1  0  0  0  0  0  0  0  0  0
  -25.5680  -27.3060   25.3000 C   0  0  0  0  0  1  0  0  0  0  0  0
  -26.4900  -26.4970   23.1280 C   0  0  0  0  0  1  0  0  0  0  0  0
  -28.0090  -27.5020   24.8110 C   0  0  0  0  0  1  0  0  0  0  0  0
  1  2  1  0
  1  3  1  0
  4  1  1  0
  5  4  1  0
  6  7  1  0
  6  5  2  0
  7  9  1  0
  8  7  1  0
 10  7  1  0
 12 21  1  0
 13 19  1  0
 13 21  1  0
 14 19  1  0
 15 16  1  0
 15 14  1  0
 17 16  1  0
 17 26  1  0
 17 18  1  0
 19 18  1  0
 20 13  2  0
 21 22  1  0
 23 24  2  0
 24 43  1  0
 25 24  1  0
 25 28  1  0
 26 27  1  0
 26 23  1  0
 27 25  2  0
 28 29  1  0
 29 30  2  0
 31 34  1  0
 31 30  1  0
 32 31  2  0
 33 32  1  0
 33 28  2  0
 34 35  1  0
 35 40  2  0
 35 36  1  0
 36 37  2  0
 37 38  1  0
 38 42  1  0
 39 38  2  0
 40 39  1  0
 41 40  1  0
 43 44  1  0
 44 47  1  0
 44 46  1  0
 45 43  2  0
 48 23  1  0
 48 49  1  0
 50 48  1  0
 51  1  1  0
 52 51  1  0
 53 52  2  0
 54 53  1  0
 55 54  1  0
 56 54  1  0
 57 54  1  0
 58 57  1  0
 58 59  1  0
 59 61  1  0
 60 71  2  0
 61 66  1  0
 62 70  1  0
 62 72  1  0
 63 65  1  0
 63 69  1  0
 64 70  1  0
 65 64  1  0
 66 65  2  0
 67 61  2  0
 67 68  1  0
 68 63  2  0
 69 62  1  0
 70 60  1  0
 72 74  2  0
 73 72  1  0
 75 73  1  0
 76 85  2  0
 76 81  1  0
 77 73  1  0
 77 81  1  0
 78 77  1  0
 79 78  1  0
 80 79  1  0
 80 76  1  0
 81 82  2  0
 82 83  1  0
 84 83  2  0
 85 84  1  0
 86 60  1  0
 86 96  1  0
 86 87  1  0
 87 90  1  0
 88 87  1  0
 88 92  1  0
 89 88  2  0
 92 91  1  0
 92 94  1  0
 94 93  1  0
 94 95  1  0
 96 99  1  1
 96 97  1  0
 98 96  1  0
M  ISO  4  13 100  21 100  58 101  59 101
M  END
>  <TORSDO>  (76) 
F 29

>  <SCORE>  (76) 
-7.145

>  <name>  (76) 
80

>  <ligand_id>  (76) 
80

>  <original_smiles>  (76) 
[H]c1c([H])c([H])c2c(c1[H])C([H])([H])C([H])([H])C([H])([H])C2([H])N([H])C(=O)C1([H])N(C(=O)C([H])(N([H])C(=O)C([H])(N([H])C([H])([H])[H])C([H])([H])[H])C(C([H])([H])[H])(C([H])([H])[H])C([H])([H])[H])C([H])([H])c2c([H])c(OC([H])([H])C([H])([H])[N+]([H])([H])C([H])([H])C([H])([H])C([H])([H])[N+]([H])([H])C([H])([H])C([H])([H])C([H])([H])[N+]([H])([H])C([H])([H])C([H])([H])C([H])([H])N([H])C(=O)N3C([H])([H])C([H])([H])C([H])([H])C([H])(n4nc(-c5c([H])c([H])c(Oc6c([H])c([H])c(F)c([H])c6F)c([H])c5[H])c(C(=O)N([H])[H])c4N([H])[H])C3([H])[H])c([H])c([H])c2C1([H])[H]

>  <smiles>  (76) 
[H]c1c([H])c([H])c2c(c1[H])C([H])([H])C([H])([H])C([H])([H])C2([H])N([H])C(=O)C1([H])N(C(=O)C([H])(N([H])C(=O)C([H])(N([H])C([H])([H])[H])C([H])([H])[H])C(C([H])([H])[H])(C([H])([H])[H])C([H])([H])[H])C([H])([H])c2c([H])c(OC([H])([H])C([H])([H])[N+]([H])([H])C([H])([H])C([H])([H])C([H])([H])[N+]([H])([H])C([H])([H])C([H])([H])C([H])([H])[N+]([H])([H])C([H])([H])C([H])([H])C([H])([H])N([H])C(=O)N3C([H])([H])C([H])([H])C([H])([H])C([H])(n4nc(-c5c([H])c([H])c(Oc6c([H])c([H])c(F)c([H])c6F)c([H])c5[H])c(C(=O)N([H])[H])c4N([H])[H])C3([H])[H])c([H])c([H])c2C1([H])[H]

$$$$
81:0:0
     RDKit          3D

 93 94  0  0  1  0  0  0  0  0999 V2000
  -24.4890  -25.9640   23.2830 N   0  0  0  0  0  0  0  0  0  0  0  0
  -25.2340  -26.5850   22.9590 H   0  0  0  0  0  0  0  0  0  0  0  0
  -23.4920  -26.9480   24.5120 C   0  0  0  0  0  1  0  0  0  0  0  0
  -22.5250  -28.7850   24.5770 C   0  0  0  0  0 15  0  0  0  0  0  0
  -21.6820  -29.8190   23.1880 O   0  0  0  0  0 15  0  0  0  0  0  0
  -21.2870  -29.5090   21.3250 C   0  0  0  0  0 15  0  0  0  0  0  0
  -22.4500  -28.3510   20.0030 C   0  0  0  0  0  1  0  0  0  0  0  0
  -24.2140  -27.7330   19.9580 O   0  0  0  0  0  0  0  0  0  0  0  0
  -24.8490  -31.9270   23.3110 C   0  0  0  0  0  0  0  0  0  0  0  0
  -25.4950  -28.0010   19.3200 C   0  0  0  0  0  3  0  0  0  0  0  0
  -23.6110  -30.4840   21.7710 C   0  0  0  0  0  3  0  0  0  0  0  0
  -24.4140  -30.2790   19.3780 C   0  0  0  0  0  3  0  0  0  0  0  0
  -25.8710  -31.2220   21.1470 C   0  0  0  0  0  2  0  0  0  0  0  0
  -25.6190  -30.2040   20.0620 C   0  0  0  0  0  3  0  0  0  0  0  0
  -26.3190  -29.0100   19.9050 C   0  0  0  0  0  2  0  0  0  0  0  0
  -25.0400  -28.3100   18.0790 C   0  0  0  0  0  2  0  0  0  0  0  0
  -24.2130  -29.4390   18.2340 C   0  0  0  0  0  2  0  0  0  0  0  0
  -23.3610  -30.9150   20.2230 C   0  0  0  0  0  2  0  0  0  0  0  0
  -24.7910  -31.2390   22.1470 N   0  0  0  0  0  0  0  0  0  0  0  0
  -23.8820  -32.0670   24.0780 O   0  0  0  0  0  0  0  0  0  0  0  0
  -23.7310  -28.8270   22.2900 C   0  0  0  0  0  0  0  0  0  0  0  0
  -22.7100  -27.6320   22.1520 N   0  0  0  0  0  0  0  0  0  0  0  0
  -24.6020  -28.6480   23.0860 O   0  0  0  0  0  0  0  0  0  0  0  0
  -23.2510  -26.7900   22.3770 H   0  0  0  0  0  0  0  0  0  0  0  0
  -18.2200  -27.4180   22.3790 C   0  0  0  0  0  0  0  0  0  0  0  0
  -20.9900  -27.2300   22.4790 C   0  0  0  0  0  3  0  0  0  0  0  0
  -20.7880  -26.0300   21.6600 C   0  0  0  0  0  2  0  0  0  0  0  0
  -19.5870  -26.1030   20.7600 C   0  0  0  0  0  2  0  0  0  0  0  0
  -18.3140  -26.1520   21.5850 C   0  0  0  0  0  2  0  0  0  0  0  0
  -19.4390  -28.0440   22.8140 C   0  0  0  0  0  0  0  0  0  0  0  0
  -19.0750  -29.2530   23.5790 C   0  0  0  0  0  3  0  0  0  0  0  0
  -17.7520  -29.7650   23.7840 C   0  0  0  0  0  3  0  0  0  0  0  0
  -16.6370  -29.0670   23.3150 C   0  0  0  0  0  3  0  0  0  0  0  0
  -16.8910  -27.8780   22.6270 C   0  0  0  0  0  3  0  0  0  0  0  0
  -26.2080  -32.5300   23.7250 C   0  0  0  0  0  3  0  0  0  0  0  0
  -26.9100  -31.6570   24.8320 C   0  0  1  0  0  0  0  0  0  0  0  0
  -25.9970  -31.3210   26.0350 C   0  0  0  0  0  1  0  0  0  0  0  0
  -27.4520  -30.3210   24.2720 C   0  0  0  0  0  1  0  0  0  0  0  0
  -28.1480  -32.4120   25.3550 C   0  0  0  0  0  1  0  0  0  0  0  0
  -25.9690  -33.8990   24.1880 N   0  0  0  0  0  0  0  0  0  0  0  0
  -26.1400  -34.9900   23.4320 C   0  0  0  0  0  0  0  0  0  0  0  0
  -26.5700  -34.9460   22.2760 O   0  0  0  0  0  0  0  0  0  0  0  0
  -25.5680  -34.0060   25.1080 H   0  0  0  0  0  0  0  0  0  0  0  0
  -24.4240  -36.8210   23.5690 C   0  0  0  0  0  1  0  0  0  0  0  0
  -25.7970  -36.3480   24.0690 C   0  0  0  0  0  3  0  0  0  0  0  0
  -28.0840  -37.1380   24.4820 C   0  0  0  0  0  1  0  0  0  0  0  0
  -26.8130  -37.3900   23.8080 N   0  0  0  0  0  0  0  0  0  0  0  0
  -26.4760  -38.3020   24.0970 H   0  0  0  0  0  0  0  0  0  0  0  0
  -25.0080  -24.2290   22.9150 C   0  0  0  0  0  1  0  0  0  0  0  0
  -26.2400  -23.2680   21.7010 C   0  0  0  0  0  1  0  0  0  0  0  0
  -26.5090  -21.6040   21.0830 N   0  0  0  0  0  4  0  0  0  0  0  0
  -25.8070  -21.5260   20.3660 H   0  0  0  0  0  0  0  0  0  0  0  0
  -26.1700  -21.0310   21.8370 H   0  0  0  0  0  0  0  0  0  0  0  0
  -27.8580  -20.6260   20.4160 C   0  0  0  0  0  1  0  0  0  0  0  0
  -28.2870  -18.7350   20.0080 C   0  0  0  0  0  1  0  0  0  0  0  0
  -30.5690  -16.3250   19.7290 C   0  0  0  0  0  0  0  0  0  0  0  0
  -31.1090  -13.7090   19.3100 C   0  0  0  0  0  2  0  0  0  0  0  0
  -30.3730  -12.9540   18.1570 C   0  0  0  0  0  2  0  0  0  0  0  0
  -28.9520  -12.5670   18.5880 C   0  0  0  0  0  2  0  0  0  0  0  0
  -28.3050  -13.7290   19.3770 C   0  0  0  0  0  3  0  0  0  0  0  0
  -29.1700  -14.2780   20.5140 C   0  0  0  0  0  2  0  0  0  0  0  0
  -30.2860  -14.9090   19.8500 N   0  0  0  0  0  0  0  0  0  0  0  0
  -31.7860  -16.3700   19.4060 O   0  0  0  0  0  0  0  0  0  0  0  0
  -29.7290  -17.6680   19.8110 N   0  0  0  0  0  0  0  0  0  0  0  0
  -30.4710  -18.3350   19.6470 H   0  0  0  0  0  0  0  0  0  0  0  0
  -26.0140  -14.3330   20.2200 C   0  0  0  0  0  0  0  0  0  0  0  0
  -24.9540  -13.5770   20.6220 C   0  0  0  0  0  0  0  0  0  0  0  0
  -25.3780  -12.2150   20.5300 C   0  0  0  0  0  0  0  0  0  0  0  0
  -26.9970  -13.4280   19.8860 N   0  0  0  0  0  0  0  0  0  0  0  0
  -26.6440  -12.1480   20.1440 N   0  0  0  0  0  0  0  0  0  0  0  0
  -24.6310  -10.9710   20.7220 C   0  0  0  0  0  0  0  0  0  0  0  0
  -24.9880  -10.0370   21.7190 C   0  0  0  0  0  3  0  0  0  0  0  0
  -24.2340   -8.8570   21.8930 C   0  0  0  0  0  3  0  0  0  0  0  0
  -23.1130   -8.6050   21.0670 C   0  0  0  0  0  0  0  0  0  0  0  0
  -22.7790   -9.5270   20.0600 C   0  0  0  0  0  3  0  0  0  0  0  0
  -23.5320  -10.6980   19.8850 C   0  0  0  0  0  3  0  0  0  0  0  0
  -22.3370   -7.4750   21.1460 O   0  0  0  0  0  0  0  0  0  0  0  0
  -22.0500   -6.8830   22.3490 C   0  0  0  0  0  0  0  0  0  0  0  0
  -21.4330   -7.5940   23.4020 C   0  0  0  0  0  3  0  0  0  0  0  0
  -21.0930   -6.9280   24.5960 C   0  0  0  0  0  3  0  0  0  0  0  0
  -21.3610   -5.5530   24.7370 C   0  0  0  0  0  0  0  0  0  0  0  0
  -21.9710   -4.8420   23.6870 C   0  0  0  0  0  3  0  0  0  0  0  0
  -22.3120   -5.5060   22.4960 C   0  0  0  0  0  0  0  0  0  0  0  0
  -22.8810   -4.8140   21.4800 F   0  0  0  0  0  0  0  0  0  0  0  0
  -21.0270   -4.9110   25.8800 F   0  0  0  0  0  0  0  0  0  0  0  0
  -23.5930  -14.0920   20.9740 C   0  0  0  0  0  0  0  0  0  0  0  0
  -22.9000  -13.4150   21.8820 N   0  0  0  0  0  0  0  0  0  0  0  0
  -23.1590  -15.1310   20.4780 O   0  0  0  0  0  0  0  0  0  0  0  0
  -23.2700  -12.5770   22.3040 H   0  0  0  0  0  0  0  0  0  0  0  0
  -21.9860  -13.7420   22.1600 H   0  0  0  0  0  0  0  0  0  0  0  0
  -26.2200  -15.7060   20.0850 N   0  0  0  0  0  0  0  0  0  0  0  0
  -25.4800  -16.3780   20.2530 H   0  0  0  0  0  0  0  0  0  0  0  0
  -27.0610  -16.1230   19.7060 H   0  0  0  0  0  0  0  0  0  0  0  0
  1  3  1  0
  2  1  1  0
  8  7  1  0
  9 20  2  0
 10 15  1  0
 10  8  1  0
 11 19  1  0
 11 21  1  0
 12 17  1  0
 12 14  1  0
 12 18  1  0
 13 19  1  0
 14 15  1  0
 14 13  1  0
 16 17  1  0
 16 10  1  0
 18 11  1  0
 19  9  1  0
 21 23  2  0
 22 21  1  0
 22 24  1  0
 25 34  2  0
 25 30  1  0
 26 22  1  0
 26 30  1  0
 27 26  1  0
 28 29  1  0
 28 27  1  0
 29 25  1  0
 30 31  2  0
 31 32  1  0
 33 32  2  0
 34 33  1  0
 35  9  1  0
 35 40  1  0
 35 36  1  0
 36 39  1  1
 36 37  1  0
 38 36  1  0
 40 43  1  0
 41 45  1  0
 41 40  1  0
 42 41  2  0
 45 44  1  0
 47 45  1  0
 47 48  1  0
 47 46  1  0
 49  1  1  0
 51 50  1  0
 51 53  1  0
 52 51  1  0
 54 51  1  0
 56 64  1  0
 56 62  1  0
 57 62  1  0
 58 59  1  0
 58 57  1  0
 60 59  1  0
 60 69  1  0
 60 61  1  0
 62 61  1  0
 63 56  2  0
 64 55  1  0
 65 64  1  0
 66 67  2  0
 67 86  1  0
 68 67  1  0
 68 71  1  0
 69 70  1  0
 69 66  1  0
 70 68  2  0
 71 72  1  0
 72 73  2  0
 74 77  1  0
 74 73  1  0
 75 74  2  0
 76 75  1  0
 76 71  2  0
 77 78  1  0
 78 83  2  0
 78 79  1  0
 79 80  2  0
 80 81  1  0
 81 85  1  0
 82 81  2  0
 83 82  1  0
 84 83  1  0
 86 87  1  0
 87 90  1  0
 87 89  1  0
 88 86  2  0
 91 66  1  0
 91 92  1  0
 93 91  1  0
M  ISO  4   7 101   8 101  56 100  64 100
M  END
>  <TORSDO>  (77) 
F 26

>  <SCORE>  (77) 
-12.795

>  <name>  (77) 
81

>  <ligand_id>  (77) 
81

>  <original_smiles>  (77) 
[H]c1c([H])c([H])c2c(c1[H])C([H])([H])C([H])([H])C([H])([H])C2([H])N([H])C(=O)C1([H])N(C(=O)C([H])(N([H])C(=O)C([H])(N([H])C([H])([H])[H])C([H])([H])[H])C(C([H])([H])[H])(C([H])([H])[H])C([H])([H])[H])C([H])([H])c2c([H])c(OC([H])([H])C([H])([H])OC([H])([H])C([H])([H])N([H])C([H])([H])C([H])([H])[N+]([H])([H])C([H])([H])C([H])([H])N([H])C(=O)N3C([H])([H])C([H])([H])C([H])([H])C([H])(n4nc(-c5c([H])c([H])c(Oc6c([H])c([H])c(F)c([H])c6F)c([H])c5[H])c(C(=O)N([H])[H])c4N([H])[H])C3([H])[H])c([H])c([H])c2C1([H])[H]

>  <smiles>  (77) 
[H]c1c([H])c([H])c2c(c1[H])C([H])([H])C([H])([H])C([H])([H])C2([H])N([H])C(=O)C1([H])N(C(=O)C([H])(N([H])C(=O)C([H])(N([H])C([H])([H])[H])C([H])([H])[H])C(C([H])([H])[H])(C([H])([H])[H])C([H])([H])[H])C([H])([H])c2c([H])c(OC([H])([H])C([H])([H])OC([H])([H])C([H])([H])N([H])C([H])([H])C([H])([H])[N+]([H])([H])C([H])([H])C([H])([H])N([H])C(=O)N3C([H])([H])C([H])([H])C([H])([H])C([H])(n4nc(-c5c([H])c([H])c(Oc6c([H])c([H])c(F)c([H])c6F)c([H])c5[H])c(C(=O)N([H])[H])c4N([H])[H])C3([H])[H])c([H])c([H])c2C1([H])[H]

$$$$
82:0:0
     RDKit          3D

 99106  0  0  1  0  0  0  0  0999 V2000
  -26.5900  -22.9240   20.5110 C   0  0  0  0  0  3  0  0  0  0  0  0
  -27.7310  -22.2280   20.6690 C   0  0  0  0  0  3  0  0  0  0  0  0
  -27.7710  -20.8090   20.3890 C   0  0  0  0  0  0  0  0  0  0  0  0
  -28.8420  -20.2400   20.9460 N   0  0  0  0  0  0  0  0  0  0  0  0
  -26.9840  -20.1930   19.6680 O   0  0  0  0  0  0  0  0  0  0  0  0
  -29.4160  -20.8190   21.5440 H   0  0  0  0  0  0  0  0  0  0  0  0
  -29.3510  -18.9050   20.6420 C   0  0  0  0  0  2  0  0  0  0  0  0
  -30.3330  -18.9590   19.4510 C   0  0  0  0  0  2  0  0  0  0  0  0
  -31.1790  -17.7510   19.3430 N   0  0  0  0  0  4  0  0  0  0  0  0
  -30.6210  -16.9380   19.5460 H   0  0  0  0  0  0  0  0  0  0  0  0
  -31.9050  -17.8130   20.0390 H   0  0  0  0  0  0  0  0  0  0  0  0
  -31.8080  -17.6010   18.0120 C   0  0  0  0  0  2  0  0  0  0  0  0
  -32.6610  -16.3250   17.8790 C   0  0  0  0  0  2  0  0  0  0  0  0
  -32.7000  -13.9950   18.7980 C   0  0  0  0  0  0  0  0  0  0  0  0
  -32.7280  -11.9530   20.1900 C   0  0  0  0  0  2  0  0  0  0  0  0
  -31.9230  -10.7860   19.5890 C   0  0  0  0  0  2  0  0  0  0  0  0
  -30.4350  -10.8940   19.9660 C   0  0  0  0  0  2  0  0  0  0  0  0
  -29.8560  -12.3030   19.6820 C   0  0  0  0  0  3  0  0  0  0  0  0
  -30.7650  -13.3930   20.2880 C   0  0  0  0  0  2  0  0  0  0  0  0
  -32.1310  -13.2240   19.7540 N   0  0  0  0  0  0  0  0  0  0  0  0
  -33.6900  -13.6540   18.1410 O   0  0  0  0  0  0  0  0  0  0  0  0
  -32.1670  -15.2250   18.7090 N   0  0  0  0  0  0  0  0  0  0  0  0
  -31.4490  -15.4300   19.3900 H   0  0  0  0  0  0  0  0  0  0  0  0
  -27.7500  -13.5660   20.4640 C   0  0  0  0  0  0  0  0  0  0  0  0
  -26.5010  -13.1310   20.8120 C   0  0  0  0  0  0  0  0  0  0  0  0
  -26.5350  -11.7060   20.7030 C   0  0  0  0  0  0  0  0  0  0  0  0
  -28.4830  -12.4260   20.1670 N   0  0  0  0  0  0  0  0  0  0  0  0
  -27.7510  -11.3000   20.3640 N   0  0  0  0  0  0  0  0  0  0  0  0
  -25.4650  -10.7090   20.8410 C   0  0  0  0  0  0  0  0  0  0  0  0
  -25.5570   -9.6550   21.7760 C   0  0  0  0  0  3  0  0  0  0  0  0
  -24.5090   -8.7180   21.9040 C   0  0  0  0  0  3  0  0  0  0  0  0
  -23.3540   -8.8300   21.0940 C   0  0  0  0  0  0  0  0  0  0  0  0
  -23.2770   -9.8690   20.1490 C   0  0  0  0  0  3  0  0  0  0  0  0
  -24.3220  -10.7980   20.0200 C   0  0  0  0  0  3  0  0  0  0  0  0
  -22.2980   -7.9530   21.1300 O   0  0  0  0  0  0  0  0  0  0  0  0
  -21.9560   -7.2870   22.2800 C   0  0  0  0  0  0  0  0  0  0  0  0
  -21.6100   -7.9730   23.4640 C   0  0  0  0  0  3  0  0  0  0  0  0
  -21.1970   -7.2500   24.6020 C   0  0  0  0  0  3  0  0  0  0  0  0
  -21.1180   -5.8460   24.5540 C   0  0  0  0  0  0  0  0  0  0  0  0
  -21.4560   -5.1610   23.3730 C   0  0  0  0  0  3  0  0  0  0  0  0
  -21.8690   -5.8800   22.2390 C   0  0  0  0  0  0  0  0  0  0  0  0
  -22.1730   -5.2160   21.0970 F   0  0  0  0  0  0  0  0  0  0  0  0
  -20.7140   -5.1540   25.6430 F   0  0  0  0  0  0  0  0  0  0  0  0
  -25.3100  -13.9860   21.1340 C   0  0  0  0  0  0  0  0  0  0  0  0
  -24.4350  -13.5150   22.0150 N   0  0  0  0  0  0  0  0  0  0  0  0
  -25.1740  -15.1050   20.6390 O   0  0  0  0  0  0  0  0  0  0  0  0
  -24.5560  -12.6050   22.4390 H   0  0  0  0  0  0  0  0  0  0  0  0
  -23.6300  -14.0670   22.2720 H   0  0  0  0  0  0  0  0  0  0  0  0
  -28.3220  -14.8310   20.3550 N   0  0  0  0  0  0  0  0  0  0  0  0
  -27.7860  -15.6810   20.4910 H   0  0  0  0  0  0  0  0  0  0  0  0
  -29.2510  -15.0030   19.9930 H   0  0  0  0  0  0  0  0  0  0  0  0
  -26.6210  -24.3550   20.7000 C   0  0  0  0  0  0  0  0  0  0  0  0
  -27.2060  -25.0270   19.6940 N   0  0  0  0  0  0  0  0  0  0  0  0
  -26.1880  -24.9340   21.6920 O   0  0  0  0  0  0  0  0  0  0  0  0
  -27.2170  -26.0320   19.7980 H   0  0  0  0  0  0  0  0  0  0  0  0
  -27.6930  -24.5080   18.4070 C   0  0  0  0  0  2  0  0  0  0  0  0
  -29.1200  -24.9760   18.0580 C   0  0  0  0  0  2  0  0  0  0  0  0
  -29.3550  -26.4950   18.1250 C   0  0  0  0  0  2  0  0  0  0  0  0
  -28.4580  -27.1750   17.2460 O   0  0  0  0  0  0  0  0  0  0  0  0
  -25.8320  -29.2840   23.4830 C   0  0  0  0  0  0  0  0  0  0  0  0
  -27.3970  -27.7280   17.9100 C   0  0  0  0  0  0  0  0  0  0  0  0
  -24.1890  -29.0250   21.6510 C   0  0  0  0  0  3  0  0  0  0  0  0
  -25.1710  -28.7260   19.3160 C   0  0  0  0  0  0  0  0  0  0  0  0
  -26.6220  -29.6180   21.1490 C   0  0  0  0  0  2  0  0  0  0  0  0
  -26.4620  -28.8930   19.8340 C   0  0  0  0  0  0  0  0  0  0  0  0
  -27.5770  -28.3940   19.1390 C   0  0  0  0  0  3  0  0  0  0  0  0
  -26.1020  -27.5850   17.3770 C   0  0  0  0  0  3  0  0  0  0  0  0
  -24.9840  -28.0670   18.0850 C   0  0  0  0  0  3  0  0  0  0  0  0
  -24.0340  -29.2960   20.1310 C   0  0  0  0  0  2  0  0  0  0  0  0
  -25.5800  -29.2850   22.1450 N   0  0  0  0  0  0  0  0  0  0  0  0
  -24.9220  -29.1110   24.3040 O   0  0  0  0  0  0  0  0  0  0  0  0
  -23.6920  -27.5940   21.9500 C   0  0  0  0  0  0  0  0  0  0  0  0
  -22.3910  -27.3520   21.7250 N   0  0  0  0  0  0  0  0  0  0  0  0
  -24.4720  -26.7230   22.3450 O   0  0  0  0  0  0  0  0  0  0  0  0
  -21.8110  -28.1240   21.4210 H   0  0  0  0  0  0  0  0  0  0  0  0
  -19.2830  -25.6160   21.1400 C   0  0  0  0  0  0  0  0  0  0  0  0
  -21.7110  -26.0690   21.8950 C   0  0  0  0  0  3  0  0  0  0  0  0
  -22.1320  -25.0660   20.7940 C   0  0  0  0  0  2  0  0  0  0  0  0
  -21.2000  -25.0710   19.5790 C   0  0  0  0  0  2  0  0  0  0  0  0
  -19.7680  -24.7350   20.0010 C   0  0  0  0  0  2  0  0  0  0  0  0
  -20.1960  -26.2560   22.0190 C   0  0  0  0  0  0  0  0  0  0  0  0
  -19.6940  -27.0960   23.0370 C   0  0  0  0  0  3  0  0  0  0  0  0
  -18.3110  -27.2970   23.1860 C   0  0  0  0  0  3  0  0  0  0  0  0
  -17.4100  -26.6450   22.3270 C   0  0  0  0  0  3  0  0  0  0  0  0
  -17.8950  -25.8050   21.3090 C   0  0  0  0  0  3  0  0  0  0  0  0
  -27.2710  -29.5200   24.0440 C   0  0  0  0  0  3  0  0  0  0  0  0
  -27.9190  -28.2190   24.6550 C   0  0  1  0  0  0  0  0  0  0  0  0
  -27.0190  -27.5020   25.6860 C   0  0  0  0  0  1  0  0  0  0  0  0
  -28.2630  -27.2050   23.5380 C   0  0  0  0  0  1  0  0  0  0  0  0
  -29.2520  -28.5770   25.3560 C   0  0  0  0  0  1  0  0  0  0  0  0
  -27.1830  -30.5810   25.0540 N   0  0  0  0  0  0  0  0  0  0  0  0
  -27.5640  -31.8500   24.8590 C   0  0  0  0  0  0  0  0  0  0  0  0
  -28.1000  -32.2340   23.8150 O   0  0  0  0  0  0  0  0  0  0  0  0
  -26.7020  -30.3520   25.9100 H   0  0  0  0  0  0  0  0  0  0  0  0
  -26.0480  -33.6780   25.6890 C   0  0  0  0  0  1  0  0  0  0  0  0
  -27.3070  -32.8520   26.0010 C   0  0  0  0  0  3  0  0  0  0  0  0
  -29.6100  -33.0830   26.8210 C   0  0  0  0  0  1  0  0  0  0  0  0
  -28.4460  -33.7610   26.2550 N   0  0  0  0  0  0  0  0  0  0  0  0
  -28.1760  -34.5090   26.8850 H   0  0  0  0  0  0  0  0  0  0  0  0
  1  2  2  0
  1 52  1  0
  3  2  1  0
  3  4  1  0
  4  6  1  0
  5  3  2  0
  7  4  1  0
  8  7  1  0
  9  8  1  0
  9 10  1  0
  9 11  1  0
 12  9  1  0
 13 12  1  0
 13 22  1  0
 14 20  1  0
 16 17  1  0
 16 15  1  0
 18 17  1  0
 18 27  1  0
 18 19  1  0
 20 15  1  0
 20 19  1  0
 21 14  2  0
 22 14  1  0
 22 23  1  0
 24 25  2  0
 25 44  1  0
 26 25  1  0
 26 29  1  0
 27 28  1  0
 27 24  1  0
 28 26  2  0
 29 30  1  0
 30 31  2  0
 32 35  1  0
 32 31  1  0
 33 32  2  0
 34 33  1  0
 34 29  2  0
 35 36  1  0
 36 37  1  0
 37 38  2  0
 39 38  1  0
 39 43  1  0
 40 39  2  0
 41 36  2  0
 41 40  1  0
 42 41  1  0
 44 45  1  0
 45 48  1  0
 45 47  1  0
 46 44  2  0
 49 24  1  0
 49 50  1  0
 51 49  1  0
 52 54  2  0
 53 55  1  0
 53 52  1  0
 56 53  1  0
 57 58  1  0
 57 56  1  0
 59 61  1  0
 59 58  1  0
 60 71  2  0
 61 66  1  0
 62 72  1  0
 62 70  1  0
 63 65  1  0
 63 69  1  0
 64 70  1  0
 65 64  1  0
 66 65  2  0
 67 61  2  0
 67 68  1  0
 68 63  2  0
 69 62  1  0
 70 60  1  0
 72 74  2  0
 73 72  1  0
 75 73  1  0
 76 85  2  0
 76 81  1  0
 77 73  1  0
 77 81  1  0
 78 77  1  0
 79 80  1  0
 79 78  1  0
 80 76  1  0
 81 82  2  0
 82 83  1  0
 84 83  2  0
 85 84  1  0
 86 60  1  0
 86 87  1  0
 86 91  1  0
 87 90  1  1
 87 88  1  0
 89 87  1  0
 91 94  1  0
 92 91  1  0
 92 96  1  0
 93 92  2  0
 96 95  1  0
 96 98  1  0
 98 97  1  0
 98 99  1  0
M  ISO  4  14 100  22 100  58 101  59 101
M  END
>  <TORSDO>  (78) 
F 26

>  <SCORE>  (78) 
-7.673

>  <name>  (78) 
82

>  <ligand_id>  (78) 
82

>  <original_smiles>  (78) 
[H]C(C(=O)N([H])C([H])([H])C([H])([H])C([H])([H])Oc1c([H])c([H])c2c(c1[H])C([H])([H])N(C(=O)C([H])(N([H])C(=O)C([H])(N([H])C([H])([H])[H])C([H])([H])[H])C(C([H])([H])[H])(C([H])([H])[H])C([H])([H])[H])C([H])(C(=O)N([H])C1([H])c3c([H])c([H])c([H])c([H])c3C([H])([H])C([H])([H])C1([H])[H])C2([H])[H])=C([H])C(=O)N([H])C([H])([H])C([H])([H])[N+]([H])([H])C([H])([H])C([H])([H])N([H])C(=O)N1C([H])([H])C([H])([H])C([H])([H])C([H])(n2nc(-c3c([H])c([H])c(Oc4c([H])c([H])c(F)c([H])c4F)c([H])c3[H])c(C(=O)N([H])[H])c2N([H])[H])C1([H])[H]

>  <smiles>  (78) 
[H]C(C(=O)N([H])C([H])([H])C([H])([H])C([H])([H])Oc1c([H])c([H])c2c(c1[H])C([H])([H])N(C(=O)C([H])(N([H])C(=O)C([H])(N([H])C([H])([H])[H])C([H])([H])[H])C(C([H])([H])[H])(C([H])([H])[H])C([H])([H])[H])C([H])(C(=O)N([H])C1([H])c3c([H])c([H])c([H])c([H])c3C([H])([H])C([H])([H])C1([H])[H])C2([H])[H])=C([H])C(=O)N([H])C([H])([H])C([H])([H])[N+]([H])([H])C([H])([H])C([H])([H])N([H])C(=O)N1C([H])([H])C([H])([H])C([H])([H])C([H])(n2nc(-c3c([H])c([H])c(Oc4c([H])c([H])c(F)c([H])c4F)c([H])c3[H])c(C(=O)N([H])[H])c2N([H])[H])C1([H])[H]

$$$$
83:0:0
     RDKit          3D

 95102  0  0  1  0  0  0  0  0999 V2000
  -29.7040  -20.6780   21.5690 C   0  0  0  0  0  2  0  0  0  0  0  0
  -30.3410  -18.2270   21.2100 C   0  0  0  0  0  0  0  0  0  0  0  0
  -29.6180  -19.3400   20.9650 N   0  0  0  0  0  0  0  0  0  0  0  0
  -31.2150  -18.1700   22.0750 O   0  0  0  0  0  0  0  0  0  0  0  0
  -28.9220  -19.2430   20.2390 H   0  0  0  0  0  0  0  0  0  0  0  0
  -30.0030  -16.9940   20.3280 C   0  0  0  0  0  0  0  0  0  0  0  0
  -30.8830  -14.6780   21.1530 C   0  0  0  0  0  0  0  0  0  0  0  0
  -30.8260  -12.3750   20.2980 C   0  0  0  0  0  2  0  0  0  0  0  0
  -30.0450  -12.3820   18.9660 C   0  0  0  0  0  2  0  0  0  0  0  0
  -28.5150  -12.3200   19.1950 C   0  0  0  0  0  2  0  0  0  0  0  0
  -28.0040  -13.2610   20.3220 C   0  0  0  0  0  3  0  0  0  0  0  0
  -28.9140  -13.1720   21.5690 C   0  0  0  0  0  2  0  0  0  0  0  0
  -30.2930  -13.4530   21.1410 N   0  0  0  0  0  0  0  0  0  0  0  0
  -32.0960  -14.8360   21.0180 O   0  0  0  0  0  0  0  0  0  0  0  0
  -29.9880  -15.6840   21.0360 N   0  0  0  0  0  4  0  0  0  0  0  0
  -29.0580  -15.3800   21.2670 H   0  0  0  0  0  0  0  0  0  0  0  0
  -25.5480  -13.9030   20.7530 C   0  0  0  0  0  0  0  0  0  0  0  0
  -24.4390  -13.1450   21.0160 C   0  0  0  0  0  0  0  0  0  0  0  0
  -24.8890  -11.7910   21.0630 C   0  0  0  0  0  0  0  0  0  0  0  0
  -26.6040  -13.0080   20.6560 N   0  0  0  0  0  0  0  0  0  0  0  0
  -26.2060  -11.7370   20.9060 N   0  0  0  0  0  0  0  0  0  0  0  0
  -24.1380  -10.5370   21.1910 C   0  0  0  0  0  0  0  0  0  0  0  0
  -24.4740   -9.5720   22.1650 C   0  0  0  0  0  3  0  0  0  0  0  0
  -23.7280   -8.3790   22.2810 C   0  0  0  0  0  3  0  0  0  0  0  0
  -22.6290   -8.1460   21.4200 C   0  0  0  0  0  0  0  0  0  0  0  0
  -22.3100   -9.1000   20.4370 C   0  0  0  0  0  3  0  0  0  0  0  0
  -23.0590  -10.2820   20.3190 C   0  0  0  0  0  3  0  0  0  0  0  0
  -21.8610   -7.0080   21.4430 O   0  0  0  0  0  0  0  0  0  0  0  0
  -21.7100   -6.2640   22.5860 C   0  0  0  0  0  0  0  0  0  0  0  0
  -21.1790   -6.8170   23.7720 C   0  0  0  0  0  3  0  0  0  0  0  0
  -20.9780   -5.9990   24.9020 C   0  0  0  0  0  3  0  0  0  0  0  0
  -21.2960   -4.6280   24.8460 C   0  0  0  0  0  0  0  0  0  0  0  0
  -21.8200   -4.0760   23.6650 C   0  0  0  0  0  3  0  0  0  0  0  0
  -22.0240   -4.8910   22.5370 C   0  0  0  0  0  0  0  0  0  0  0  0
  -22.5080   -4.3470   21.3940 F   0  0  0  0  0  0  0  0  0  0  0  0
  -21.0960   -3.8400   25.9280 F   0  0  0  0  0  0  0  0  0  0  0  0
  -23.0210  -13.6360   21.1100 C   0  0  0  0  0  0  0  0  0  0  0  0
  -22.1880  -12.9700   21.9000 N   0  0  0  0  0  0  0  0  0  0  0  0
  -22.6550  -14.6490   20.5160 O   0  0  0  0  0  0  0  0  0  0  0  0
  -22.4920  -12.1560   22.4140 H   0  0  0  0  0  0  0  0  0  0  0  0
  -21.2350  -13.2890   22.0000 H   0  0  0  0  0  0  0  0  0  0  0  0
  -25.7380  -15.2680   20.5630 N   0  0  0  0  0  0  0  0  0  0  0  0
  -24.9560  -15.9130   20.5540 H   0  0  0  0  0  0  0  0  0  0  0  0
  -26.6070  -15.6950   20.2700 H   0  0  0  0  0  0  0  0  0  0  0  0
  -30.2920  -18.3740   18.1330 C   0  0  0  0  0  1  0  0  0  0  0  0
  -29.6070  -16.0370   17.9770 C   0  0  0  0  0  1  0  0  0  0  0  0
  -31.9660  -16.6310   18.6270 C   0  0  0  0  0  1  0  0  0  0  0  0
  -30.4800  -16.9950   18.8130 C   0  0  2  0  0  0  0  0  0  0  0  0
  -29.1840  -21.7740   20.5860 C   0  0  0  0  0  2  0  0  0  0  0  0
  -29.0960  -23.1480   21.1620 N   0  0  0  0  0  4  0  0  0  0  0  0
  -30.0000  -23.3990   21.5340 H   0  0  0  0  0  0  0  0  0  0  0  0
  -28.4550  -23.1150   21.9410 H   0  0  0  0  0  0  0  0  0  0  0  0
  -28.6490  -24.2190   20.2110 C   0  0  0  0  0  2  0  0  0  0  0  0
  -28.3410  -25.5840   20.8950 C   0  0  0  0  0  2  0  0  0  0  0  0
  -28.2320  -26.6870   19.9670 O   0  0  0  0  0  0  0  0  0  0  0  0
  -24.5090  -31.8960   23.1430 C   0  0  0  0  0  0  0  0  0  0  0  0
  -27.0690  -27.4300   20.0220 C   0  0  0  0  0  0  0  0  0  0  0  0
  -23.2660  -30.5120   21.5120 C   0  0  0  0  0  3  0  0  0  0  0  0
  -24.6880  -28.9610   20.0640 C   0  0  0  0  0  0  0  0  0  0  0  0
  -25.7910  -30.8480   21.2780 C   0  0  0  0  0  2  0  0  0  0  0  0
  -25.8570  -29.4760   20.6360 C   0  0  0  0  0  0  0  0  0  0  0  0
  -27.0530  -28.7200   20.6080 C   0  0  0  0  0  3  0  0  0  0  0  0
  -25.8840  -26.9300   19.4450 C   0  0  0  0  0  3  0  0  0  0  0  0
  -24.6960  -27.6880   19.4630 C   0  0  0  0  0  3  0  0  0  0  0  0
  -23.4510  -29.8310   20.1280 C   0  0  0  0  0  2  0  0  0  0  0  0
  -24.5400  -31.1000   22.0360 N   0  0  0  0  0  0  0  0  0  0  0  0
  -23.4390  -32.1760   23.7020 O   0  0  0  0  0  0  0  0  0  0  0  0
  -22.6180  -29.4950   22.4790 C   0  0  0  0  0  0  0  0  0  0  0  0
  -21.2880  -29.3340   22.3790 N   0  0  0  0  0  0  0  0  0  0  0  0
  -23.3090  -28.8510   23.2740 O   0  0  0  0  0  0  0  0  0  0  0  0
  -20.7910  -29.9070   21.7120 H   0  0  0  0  0  0  0  0  0  0  0  0
  -17.9060  -28.1860   22.9320 C   0  0  0  0  0  0  0  0  0  0  0  0
  -20.4730  -28.4000   23.1560 C   0  0  0  0  0  3  0  0  0  0  0  0
  -20.5390  -26.9730   22.5660 C   0  0  0  0  0  2  0  0  0  0  0  0
  -19.4140  -26.6790   21.5680 C   0  0  0  0  0  2  0  0  0  0  0  0
  -18.0470  -26.8400   22.2410 C   0  0  0  0  0  2  0  0  0  0  0  0
  -19.0450  -28.9260   23.3470 C   0  0  0  0  0  0  0  0  0  0  0  0
  -18.8580  -30.1870   23.9530 C   0  0  0  0  0  3  0  0  0  0  0  0
  -17.5650  -30.7090   24.1460 C   0  0  0  0  0  3  0  0  0  0  0  0
  -16.4410  -29.9650   23.7480 C   0  0  0  0  0  3  0  0  0  0  0  0
  -16.6120  -28.7040   23.1480 C   0  0  0  0  0  3  0  0  0  0  0  0
  -25.8110  -32.5120   23.7470 C   0  0  0  0  0  3  0  0  0  0  0  0
  -25.5170  -33.9050   24.1070 N   0  0  0  0  0  0  0  0  0  0  0  0
  -25.8680  -34.9710   23.3740 C   0  0  0  0  0  0  0  0  0  0  0  0
  -26.5430  -34.8820   22.3440 O   0  0  0  0  0  0  0  0  0  0  0  0
  -24.9210  -34.0490   24.9090 H   0  0  0  0  0  0  0  0  0  0  0  0
  -24.1740  -36.7980   23.0380 C   0  0  0  0  0  1  0  0  0  0  0  0
  -25.3940  -36.3530   23.8590 C   0  0  0  0  0  3  0  0  0  0  0  0
  -27.5260  -37.1810   24.7520 C   0  0  0  0  0  1  0  0  0  0  0  0
  -26.4450  -37.3920   23.7930 N   0  0  0  0  0  0  0  0  0  0  0  0
  -26.0510  -38.3140   23.9580 H   0  0  0  0  0  0  0  0  0  0  0  0
  -26.3570  -31.7170   24.9960 C   0  0  1  0  0  0  0  0  0  0  0  0
  -25.2890  -31.4630   26.0860 C   0  0  0  0  0  1  0  0  0  0  0  0
  -26.9250  -30.3460   24.5620 C   0  0  0  0  0  1  0  0  0  0  0  0
  -27.5260  -32.4960   25.6430 C   0  0  0  0  0  1  0  0  0  0  0  0
  2  4  2  0
  3  2  1  0
  3  1  1  0
  5  3  1  0
  6 15  2  3
  6  2  1  0
  8 13  1  0
  9 10  1  0
  9  8  1  0
 11 10  1  0
 11 20  1  0
 11 12  1  0
 13  7  1  0
 13 12  1  0
 14  7  2  0
 15  7  1  0
 15 16  1  0
 17 18  2  0
 18 19  1  0
 18 37  1  0
 19 22  1  0
 20 17  1  0
 20 21  1  0
 21 19  2  0
 22 23  1  0
 23 24  2  0
 25 28  1  0
 25 24  1  0
 26 25  2  0
 27 26  1  0
 27 22  2  0
 28 29  1  0
 29 30  1  0
 30 31  2  0
 32 31  1  0
 32 36  1  0
 33 32  2  0
 34 29  2  0
 34 33  1  0
 35 34  1  0
 37 38  1  0
 38 41  1  0
 38 40  1  0
 39 37  2  0
 42 17  1  0
 43 42  1  0
 44 42  1  0
 48 45  1  6
 46 48  1  0
 47 48  1  0
 48  6  1  0
 49 50  1  0
 49  1  1  0
 50 51  1  0
 50 52  1  0
 53 54  1  0
 53 50  1  0
 55 57  1  0
 55 54  1  0
 56 67  2  0
 57 62  1  0
 58 66  1  0
 58 68  1  0
 59 65  1  0
 59 61  1  0
 60 66  1  0
 61 60  1  0
 62 61  2  0
 63 64  1  0
 63 57  2  0
 64 59  2  0
 65 58  1  0
 66 56  1  0
 68 70  2  0
 69 68  1  0
 71 69  1  0
 72 81  2  0
 72 77  1  0
 73 69  1  0
 73 77  1  0
 74 73  1  0
 75 76  1  0
 75 74  1  0
 76 72  1  0
 77 78  2  0
 78 79  1  0
 80 79  2  0
 81 80  1  0
 82 56  1  0
 82 83  1  0
 82 92  1  0
 83 86  1  0
 84 88  1  0
 84 83  1  0
 85 84  2  0
 88 87  1  0
 90 88  1  0
 90 91  1  0
 90 89  1  0
 92 95  1  1
 92 93  1  0
 94 92  1  0
M  ISO  4   7 100  15 100  54 101  55 101
M  END
>  <TORSDO>  (79) 
F 23

>  <SCORE>  (79) 
-11.518

>  <name>  (79) 
83

>  <ligand_id>  (79) 
83

>  <original_smiles>  (79) 
[H]c1c([H])c([H])c2c(c1[H])C([H])([H])C([H])([H])C([H])([H])C2([H])N([H])C(=O)C1([H])N(C(=O)C([H])(N([H])C(=O)C([H])(N([H])C([H])([H])[H])C([H])([H])[H])C(C([H])([H])[H])(C([H])([H])[H])C([H])([H])[H])C([H])([H])c2c([H])c(OC([H])([H])C([H])([H])[N+]([H])([H])C([H])([H])C([H])([H])N([H])C(=O)C([H])(N([H])C(=O)N3C([H])([H])C([H])([H])C([H])([H])C([H])(n4nc(-c5c([H])c([H])c(Oc6c([H])c([H])c(F)c([H])c6F)c([H])c5[H])c(C(=O)N([H])[H])c4N([H])[H])C3([H])[H])C(C([H])([H])[H])(C([H])([H])[H])C([H])([H])[H])c([H])c([H])c2C1([H])[H]

>  <smiles>  (79) 
[H]c1c([H])c([H])c2c(c1[H])C([H])([H])C([H])([H])C([H])([H])C2([H])N([H])C(=O)C1([H])N(C(=O)C([H])(N([H])C(=O)C([H])(N([H])C([H])([H])[H])C([H])([H])[H])C(C([H])([H])[H])(C([H])([H])[H])C([H])([H])[H])C([H])([H])c2c([H])c(OC([H])([H])C([H])([H])[N+]([H])([H])C([H])([H])C([H])([H])N([H])C(=O)C([H])(N([H])C(=O)N3C([H])([H])C([H])([H])C([H])([H])C([H])(n4nc(-c5c([H])c([H])c(Oc6c([H])c([H])c(F)c([H])c6F)c([H])c5[H])c(C(=O)N([H])[H])c4N([H])[H])C3([H])[H])C(C([H])([H])[H])(C([H])([H])[H])C([H])([H])[H])c([H])c([H])c2C1([H])[H]

$$$$
84:0:0
     RDKit          3D

104108  0  0  1  0  0  0  0  0999 V2000
  -26.2780  -17.9230   21.1400 C   0  0  0  0  0  2  0  0  0  0  0  0
  -27.2200  -18.4250   20.1350 N   0  0  0  0  0  0  0  0  0  0  0  0
  -27.5810  -17.6330   19.6080 H   0  0  0  0  0  0  0  0  0  0  0  0
  -28.3440  -19.1170   20.7700 C   0  0  0  0  0  2  0  0  0  0  0  0
  -29.2970  -19.7760   19.7370 C   0  0  0  0  0  2  0  0  0  0  0  0
  -30.5840  -20.3480   20.3880 C   0  0  0  0  0  2  0  0  0  0  0  0
  -31.4680  -21.0500   19.4210 N   0  0  0  0  0  4  0  0  0  0  0  0
  -30.9450  -21.7690   18.9440 H   0  0  0  0  0  0  0  0  0  0  0  0
  -31.7450  -20.3820   18.7180 H   0  0  0  0  0  0  0  0  0  0  0  0
  -32.7350  -21.6140   19.9750 C   0  0  0  0  0  2  0  0  0  0  0  0
  -32.5700  -22.7770   20.9830 C   0  0  0  0  0  2  0  0  0  0  0  0
  -32.6470  -24.0550   20.3470 O   0  0  0  0  0  0  0  0  0  0  0  0
  -27.0770  -28.0820   22.1360 C   0  0  0  0  0  0  0  0  0  0  0  0
  -31.4500  -24.5960   19.9520 C   0  0  0  0  0  0  0  0  0  0  0  0
  -26.8780  -26.8650   19.9930 C   0  0  0  0  0  3  0  0  0  0  0  0
  -29.0220  -25.7720   19.1350 C   0  0  0  0  0  0  0  0  0  0  0  0
  -29.1670  -27.5350   20.9040 C   0  0  0  0  0  2  0  0  0  0  0  0
  -29.7360  -26.3150   20.2090 C   0  0  0  0  0  0  0  0  0  0  0  0
  -30.9550  -25.7350   20.6180 C   0  0  0  0  0  3  0  0  0  0  0  0
  -30.7250  -24.0550   18.8680 C   0  0  0  0  0  3  0  0  0  0  0  0
  -29.5140  -24.6410   18.4560 C   0  0  0  0  0  3  0  0  0  0  0  0
  -27.7280  -26.4620   18.7570 C   0  0  0  0  0  2  0  0  0  0  0  0
  -27.6970  -27.5000   21.0730 N   0  0  0  0  0  0  0  0  0  0  0  0
  -25.8420  -28.1330   22.2080 O   0  0  0  0  0  0  0  0  0  0  0  0
  -26.0930  -25.6250   20.4740 C   0  0  0  0  0  0  0  0  0  0  0  0
  -24.9340  -25.3700   19.8450 N   0  0  0  0  0  0  0  0  0  0  0  0
  -26.5420  -24.9000   21.3650 O   0  0  0  0  0  0  0  0  0  0  0  0
  -24.6250  -26.0220   19.1390 H   0  0  0  0  0  0  0  0  0  0  0  0
  -21.6580  -24.0040   19.1580 C   0  0  0  0  0  0  0  0  0  0  0  0
  -24.0550  -24.2300   20.0970 C   0  0  0  0  0  3  0  0  0  0  0  0
  -24.4210  -23.0320   19.1880 C   0  0  0  0  0  2  0  0  0  0  0  0
  -23.5920  -22.9730   17.9000 C   0  0  0  0  0  2  0  0  0  0  0  0
  -22.0990  -22.8930   18.2200 C   0  0  0  0  0  2  0  0  0  0  0  0
  -22.5800  -24.6390   20.0310 C   0  0  0  0  0  0  0  0  0  0  0  0
  -22.1250  -25.6910   20.8580 C   0  0  0  0  0  3  0  0  0  0  0  0
  -20.7810  -26.1030   20.8210 C   0  0  0  0  0  3  0  0  0  0  0  0
  -19.8700  -25.4590   19.9650 C   0  0  0  0  0  3  0  0  0  0  0  0
  -20.3100  -24.4100   19.1380 C   0  0  0  0  0  3  0  0  0  0  0  0
  -27.8900  -28.7320   23.2990 C   0  0  0  0  0  3  0  0  0  0  0  0
  -27.0540  -29.8000   23.8660 N   0  0  0  0  0  0  0  0  0  0  0  0
  -27.1940  -31.1030   23.5820 C   0  0  0  0  0  0  0  0  0  0  0  0
  -28.0930  -31.5390   22.8580 O   0  0  0  0  0  0  0  0  0  0  0  0
  -26.2600  -29.5070   24.4140 H   0  0  0  0  0  0  0  0  0  0  0  0
  -25.1140  -32.4470   23.1490 C   0  0  0  0  0  1  0  0  0  0  0  0
  -26.1710  -32.0750   24.2000 C   0  0  0  0  0  3  0  0  0  0  0  0
  -27.5970  -33.0650   25.9370 C   0  0  0  0  0  1  0  0  0  0  0  0
  -26.7850  -33.3050   24.7470 N   0  0  0  0  0  0  0  0  0  0  0  0
  -26.0740  -33.9930   24.9800 H   0  0  0  0  0  0  0  0  0  0  0  0
  -28.3150  -27.6990   24.4130 C   0  0  1  0  0  0  0  0  0  0  0  0
  -27.1890  -26.7200   24.8180 C   0  0  0  0  0  1  0  0  0  0  0  0
  -29.5230  -26.8560   23.9430 C   0  0  0  0  0  1  0  0  0  0  0  0
  -28.7700  -28.4560   25.6820 C   0  0  0  0  0  1  0  0  0  0  0  0
  -25.6960  -16.5420   20.7390 C   0  0  0  0  0  2  0  0  0  0  0  0
  -25.1520  -15.8060   21.9040 N   0  0  0  0  0  4  0  0  0  0  0  0
  -25.7630  -15.8970   22.6970 H   0  0  0  0  0  0  0  0  0  0  0  0
  -24.2940  -16.2760   22.1510 H   0  0  0  0  0  0  0  0  0  0  0  0
  -24.7830  -14.3810   21.6840 C   0  0  0  0  0  2  0  0  0  0  0  0
  -25.9460  -13.3470   21.7580 C   0  0  0  0  0  2  0  0  0  0  0  0
  -25.3990  -11.8870   21.7310 C   0  0  0  0  0  2  0  0  0  0  0  0
  -26.3280  -10.7870   22.1250 N   0  0  0  0  0  4  0  0  0  0  0  0
  -25.9150   -9.9450   21.7480 H   0  0  0  0  0  0  0  0  0  0  0  0
  -27.2220  -10.8900   21.6810 H   0  0  0  0  0  0  0  0  0  0  0  0
  -26.5270  -10.5090   23.5690 C   0  0  0  0  0  2  0  0  0  0  0  0
  -28.0240  -10.3790   23.9420 C   0  0  0  0  0  3  0  0  0  0  0  0
  -28.5880   -8.9610   24.2320 C   0  0  0  0  0  3  0  0  0  0  0  0
  -30.1390   -8.7860   24.1840 C   0  0  0  0  0  2  0  0  0  0  0  0
  -32.1070   -9.9390   22.4680 C   0  0  2  0  0  0  0  0  0  0  0  0
  -33.0110   -8.6270   22.7870 C   0  0  0  0  0  1  0  0  0  0  0  0
  -32.4370   -8.0340   21.0800 C   0  0  0  0  0  1  0  0  0  0  0  0
  -31.0870   -8.8330   20.2930 C   0  0  0  0  0  2  0  0  0  0  0  0
  -30.4770  -10.4090   20.7800 C   0  0  0  0  0  2  0  0  0  0  0  0
  -31.0930  -11.1730   22.4010 C   0  0  0  0  0  1  0  0  0  0  0  0
  -32.2770  -10.1930   23.3630 N   0  0  0  0  0  1  0  0  0  0  0  0
  -33.0760  -10.4920   21.6290 O   0  0  0  0  0  1  0  0  0  0  0  0
  -30.8120   -9.0150   22.8650 N   0  0  0  0  0  2  0  0  0  0  0  0
  -30.3960   -8.5420   22.0780 H   0  0  0  0  0  0  0  0  0  0  0  0
  -28.3540  -11.4390   19.7990 C   0  0  0  0  0  0  0  0  0  0  0  0
  -27.0280  -11.1060   19.7900 C   0  0  0  0  0  0  0  0  0  0  0  0
  -26.9090   -9.8890   20.5270 C   0  0  0  0  0  0  0  0  0  0  0  0
  -29.0100  -10.4850   20.5460 N   0  0  0  0  0  0  0  0  0  0  0  0
  -28.1140   -9.5500   21.0160 N   0  0  0  0  0  0  0  0  0  0  0  0
  -25.7070   -9.0510   20.7650 C   0  0  0  0  0  0  0  0  0  0  0  0
  -25.5900   -8.1960   21.8880 C   0  0  0  0  0  3  0  0  0  0  0  0
  -24.4080   -7.4600   22.1220 C   0  0  0  0  0  3  0  0  0  0  0  0
  -23.3230   -7.5490   21.2200 C   0  0  0  0  0  0  0  0  0  0  0  0
  -23.4450   -8.3750   20.0930 C   0  0  0  0  0  3  0  0  0  0  0  0
  -24.6190   -9.1210   19.8710 C   0  0  0  0  0  3  0  0  0  0  0  0
  -22.1570   -6.8310   21.3310 O   0  0  0  0  0  0  0  0  0  0  0  0
  -21.6000   -6.5210   22.5450 C   0  0  0  0  0  0  0  0  0  0  0  0
  -21.4650   -7.4850   23.5680 C   0  0  0  0  0  3  0  0  0  0  0  0
  -20.8210   -7.1450   24.7740 C   0  0  0  0  0  3  0  0  0  0  0  0
  -20.3130   -5.8450   24.9570 C   0  0  0  0  0  0  0  0  0  0  0  0
  -20.4420   -4.8860   23.9390 C   0  0  0  0  0  3  0  0  0  0  0  0
  -21.0830   -5.2220   22.7350 C   0  0  0  0  0  0  0  0  0  0  0  0
  -21.1880   -4.2980   21.7510 F   0  0  0  0  0  0  0  0  0  0  0  0
  -19.6930   -5.5210   26.1170 F   0  0  0  0  0  0  0  0  0  0  0  0
  -25.9480  -11.8450   19.0550 C   0  0  0  0  0  0  0  0  0  0  0  0
  -24.6920  -11.6720   19.4590 N   0  0  0  0  0  0  0  0  0  0  0  0
  -26.2270  -12.6420   18.1640 O   0  0  0  0  0  0  0  0  0  0  0  0
  -24.4520  -11.0460   20.2080 H   0  0  0  0  0  0  0  0  0  0  0  0
  -23.9440  -12.1580   18.9840 H   0  0  0  0  0  0  0  0  0  0  0  0
  -29.0660  -12.4870   19.2230 N   0  0  0  0  0  0  0  0  0  0  0  0
  -28.6220  -13.0640   18.5170 H   0  0  0  0  0  0  0  0  0  0  0  0
  -30.0770  -12.5580   19.2150 H   0  0  0  0  0  0  0  0  0  0  0  0
  2  4  1  0
  2  1  1  0
  3  2  1  0
  5  6  1  0
  5  4  1  0
  7 10  1  0
  7  6  1  0
  8  7  1  0
  9  7  1  0
 10 11  1  0
 12 11  1  0
 13 24  2  0
 14 12  1  0
 14 19  1  0
 15 25  1  0
 15 23  1  0
 16 18  1  0
 17 23  1  0
 18 19  2  0
 18 17  1  0
 20 14  2  0
 21 20  1  0
 21 16  2  0
 22 16  1  0
 22 15  1  0
 23 13  1  0
 25 27  2  0
 26 25  1  0
 28 26  1  0
 29 34  1  0
 30 26  1  0
 31 30  1  0
 32 33  1  0
 32 31  1  0
 33 29  1  0
 34 30  1  0
 34 35  2  0
 36 35  1  0
 37 36  2  0
 38 29  2  0
 38 37  1  0
 39 13  1  0
 39 40  1  0
 39 49  1  0
 40 43  1  0
 41 40  1  0
 41 45  1  0
 42 41  2  0
 45 44  1  0
 45 47  1  0
 47 48  1  0
 47 46  1  0
 49 50  1  1
 49 52  1  0
 51 49  1  0
 53  1  1  0
 53 54  1  0
 54 56  1  0
 54 55  1  0
 57 58  1  0
 57 54  1  0
 59 58  1  0
 59 60  1  0
 60 63  1  0
 61 60  1  0
 62 60  1  0
 63 64  1  0
 64 65  2  0
 66 65  1  0
 67 68  1  1
 67 73  1  0
 70 71  1  0
 70 69  1  0
 72 67  1  0
 74 67  1  0
 75 66  1  0
 76 75  1  0
 77 80  1  0
 78 77  2  0
 78 79  1  0
 79 82  1  0
 79 81  2  0
 80 71  1  0
 80 81  1  0
 82 83  1  0
 83 84  2  0
 85 88  1  0
 85 84  1  0
 86 85  2  0
 87 86  1  0
 87 82  2  0
 88 89  1  0
 89 94  2  0
 89 90  1  0
 90 91  2  0
 91 92  1  0
 92 96  1  0
 93 92  2  0
 94 93  1  0
 95 94  1  0
 97 98  1  0
 97 78  1  0
 98100  1  0
 99 97  2  0
101 98  1  0
102 77  1  0
103102  1  0
104102  1  0
M  ISO  4  11 101  12 101  67 100  75 100
M  END
>  <TORSDO>  (80) 
F 33

>  <SCORE>  (80) 
3.198

>  <name>  (80) 
84

>  <ligand_id>  (80) 
84

>  <original_smiles>  (80) 
[H]c1c([H])c([H])c2c(c1[H])C([H])([H])C([H])([H])C([H])([H])C2([H])N([H])C(=O)C1([H])N(C(=O)C([H])(N([H])C(=O)C([H])(N([H])C([H])([H])[H])C([H])([H])[H])C(C([H])([H])[H])(C([H])([H])[H])C([H])([H])[H])C([H])([H])c2c([H])c(OC([H])([H])C([H])([H])[N+]([H])([H])C([H])([H])C([H])([H])C([H])([H])N([H])C([H])([H])C([H])([H])[N+]([H])([H])C([H])([H])C([H])([H])C([H])([H])[N+]([H])([H])C([H])([H])C([H])([H])C([H])([H])C([H])([H])N([H])C(=O)N3C([H])([H])C([H])([H])C([H])([H])C([H])(n4nc(-c5c([H])c([H])c(Oc6c([H])c([H])c(F)c([H])c6F)c([H])c5[H])c(C(=O)N([H])[H])c4N([H])[H])C3([H])[H])c([H])c([H])c2C1([H])[H]

>  <smiles>  (80) 
[H]c1c([H])c([H])c2c(c1[H])C([H])([H])C([H])([H])C([H])([H])C2([H])N([H])C(=O)C1([H])N(C(=O)C([H])(N([H])C(=O)C([H])(N([H])C([H])([H])[H])C([H])([H])[H])C(C([H])([H])[H])(C([H])([H])[H])C([H])([H])[H])C([H])([H])c2c([H])c(OC([H])([H])C([H])([H])[N+]([H])([H])C([H])([H])C([H])([H])C([H])([H])N([H])C([H])([H])C([H])([H])[N+]([H])([H])C([H])([H])C([H])([H])C([H])([H])[N+]([H])([H])C([H])([H])C([H])([H])C([H])([H])C([H])([H])N([H])C(=O)N3C([H])([H])C([H])([H])C([H])([H])C([H])(n4nc(-c5c([H])c([H])c(Oc6c([H])c([H])c(F)c([H])c6F)c([H])c5[H])c(C(=O)N([H])[H])c4N([H])[H])C3([H])[H])c([H])c([H])c2C1([H])[H]

$$$$
85:0:0
     RDKit          3D

 97104  0  0  1  0  0  0  0  0999 V2000
  -28.8410  -21.4340   22.1670 N   0  0  0  0  0  4  0  0  0  0  0  0
  -28.2520  -21.0890   21.4220 H   0  0  0  0  0  0  0  0  0  0  0  0
  -28.3400  -21.3610   23.0390 H   0  0  0  0  0  0  0  0  0  0  0  0
  -29.1410  -22.8680   21.9070 C   0  0  0  0  0  2  0  0  0  0  0  0
  -27.9540  -23.5720   21.2310 C   0  0  0  0  0  2  0  0  0  0  0  0
  -28.1650  -23.5940   19.8200 O   0  0  0  0  0  0  0  0  0  0  0  0
  -27.0310  -24.0100   19.0640 C   0  0  0  0  0  2  0  0  0  0  0  0
  -27.4310  -24.9510   17.9000 C   0  0  0  0  0  2  0  0  0  0  0  0
  -27.7680  -26.2770   18.3220 O   0  0  0  0  0  0  0  0  0  0  0  0
  -25.5460  -30.6700   23.4380 C   0  0  0  0  0  0  0  0  0  0  0  0
  -26.7670  -27.1460   18.7110 C   0  0  0  0  0  0  0  0  0  0  0  0
  -23.8800  -30.1400   21.6870 C   0  0  0  0  0  3  0  0  0  0  0  0
  -24.7810  -28.9470   19.6210 C   0  0  0  0  0  0  0  0  0  0  0  0
  -26.3800  -30.0940   21.1600 C   0  0  0  0  0  2  0  0  0  0  0  0
  -26.0820  -29.0200   20.1350 C   0  0  0  0  0  0  0  0  0  0  0  0
  -27.0710  -28.1190   19.6880 C   0  0  0  0  0  3  0  0  0  0  0  0
  -25.4540  -27.1080   18.1820 C   0  0  0  0  0  3  0  0  0  0  0  0
  -24.4630  -27.9930   18.6410 C   0  0  0  0  0  3  0  0  0  0  0  0
  -23.7750  -29.9410   20.1530 C   0  0  0  0  0  2  0  0  0  0  0  0
  -25.2980  -30.2920   22.1520 N   0  0  0  0  0  0  0  0  0  0  0  0
  -24.6180  -30.9300   24.2200 O   0  0  0  0  0  0  0  0  0  0  0  0
  -23.1270  -28.9870   22.3890 C   0  0  0  0  0  0  0  0  0  0  0  0
  -21.7890  -28.9840   22.2730 N   0  0  0  0  0  0  0  0  0  0  0  0
  -23.7450  -28.1090   22.9980 O   0  0  0  0  0  0  0  0  0  0  0  0
  -21.3540  -29.7440   21.7660 H   0  0  0  0  0  0  0  0  0  0  0  0
  -18.3400  -27.9200   22.3490 C   0  0  0  0  0  0  0  0  0  0  0  0
  -20.8810  -27.9710   22.8120 C   0  0  0  0  0  3  0  0  0  0  0  0
  -20.9540  -26.6620   21.9910 C   0  0  0  0  0  2  0  0  0  0  0  0
  -19.9070  -26.5910   20.8720 C   0  0  0  0  0  2  0  0  0  0  0  0
  -18.4940  -26.7030   21.4540 C   0  0  0  0  0  2  0  0  0  0  0  0
  -19.4610  -28.5260   22.9740 C   0  0  0  0  0  0  0  0  0  0  0  0
  -19.2650  -29.6760   23.7660 C   0  0  0  0  0  3  0  0  0  0  0  0
  -17.9790  -30.2190   23.9440 C   0  0  0  0  0  3  0  0  0  0  0  0
  -16.8690  -29.6060   23.3380 C   0  0  0  0  0  3  0  0  0  0  0  0
  -17.0490  -28.4590   22.5460 C   0  0  0  0  0  3  0  0  0  0  0  0
  -27.0020  -30.8170   23.9790 C   0  0  0  0  0  3  0  0  0  0  0  0
  -27.0610  -32.0650   24.7550 N   0  0  0  0  0  0  0  0  0  0  0  0
  -27.6400  -33.1950   24.3320 C   0  0  0  0  0  0  0  0  0  0  0  0
  -28.2480  -33.2760   23.2610 O   0  0  0  0  0  0  0  0  0  0  0  0
  -26.5420  -32.0870   25.6210 H   0  0  0  0  0  0  0  0  0  0  0  0
  -26.4500  -35.3820   24.6810 C   0  0  0  0  0  1  0  0  0  0  0  0
  -27.5260  -34.4360   25.2360 C   0  0  0  0  0  3  0  0  0  0  0  0
  -29.8010  -34.4290   26.1600 C   0  0  0  0  0  1  0  0  0  0  0  0
  -28.8010  -35.1700   25.3930 N   0  0  0  0  0  0  0  0  0  0  0  0
  -28.6470  -36.0630   25.8520 H   0  0  0  0  0  0  0  0  0  0  0  0
  -27.4650  -29.5910   24.8590 C   0  0  1  0  0  0  0  0  0  0  0  0
  -26.4730  -29.2190   25.9850 C   0  0  0  0  0  1  0  0  0  0  0  0
  -27.6680  -28.3370   23.9760 C   0  0  0  0  0  1  0  0  0  0  0  0
  -28.8320  -29.9010   25.5120 C   0  0  0  0  0  1  0  0  0  0  0  0
  -29.9790  -20.4800   22.2520 C   0  0  0  0  0  3  0  0  0  0  0  0
  -30.0390  -19.5770   21.0000 C   0  0  0  0  0  0  0  0  0  0  0  0
  -30.8690  -18.5240   20.9840 N   0  0  0  0  0  0  0  0  0  0  0  0
  -29.3070  -19.8250   20.0380 O   0  0  0  0  0  0  0  0  0  0  0  0
  -31.4120  -18.3080   21.8100 H   0  0  0  0  0  0  0  0  0  0  0  0
  -31.0730  -17.6820   19.8110 C   0  0  0  0  0  2  0  0  0  0  0  0
  -32.0890  -16.5710   20.1100 C   0  0  0  0  0  2  0  0  0  0  0  0
  -31.7290  -14.2360   19.3090 C   0  0  0  0  0  0  0  0  0  0  0  0
  -31.3380  -11.8310   18.9130 C   0  0  0  0  0  2  0  0  0  0  0  0
  -30.3340  -11.5940   17.7750 C   0  0  0  0  0  2  0  0  0  0  0  0
  -28.8910  -11.6030   18.3120 C   0  0  0  0  0  2  0  0  0  0  0  0
  -28.5970  -12.8470   19.1910 C   0  0  0  0  0  3  0  0  0  0  0  0
  -29.7090  -13.0580   20.2410 C   0  0  0  0  0  2  0  0  0  0  0  0
  -31.0160  -13.1100   19.5570 N   0  0  0  0  0  0  0  0  0  0  0  0
  -32.6410  -14.3010   18.4770 O   0  0  0  0  0  0  0  0  0  0  0  0
  -31.4360  -15.2650   20.1140 N   0  0  0  0  0  0  0  0  0  0  0  0
  -30.6950  -15.1150   20.7850 H   0  0  0  0  0  0  0  0  0  0  0  0
  -26.4140  -13.7830   20.1970 C   0  0  0  0  0  0  0  0  0  0  0  0
  -25.2870  -13.1650   20.6660 C   0  0  0  0  0  0  0  0  0  0  0  0
  -25.5210  -11.7610   20.5380 C   0  0  0  0  0  0  0  0  0  0  0  0
  -27.2760  -12.7640   19.8140 N   0  0  0  0  0  0  0  0  0  0  0  0
  -26.7430  -11.5410   20.0720 N   0  0  0  0  0  0  0  0  0  0  0  0
  -24.6300  -10.6180   20.7750 C   0  0  0  0  0  0  0  0  0  0  0  0
  -24.9180   -9.6470   21.7610 C   0  0  0  0  0  3  0  0  0  0  0  0
  -24.0380   -8.5660   21.9790 C   0  0  0  0  0  3  0  0  0  0  0  0
  -22.8540   -8.4480   21.2090 C   0  0  0  0  0  0  0  0  0  0  0  0
  -22.5820   -9.4060   20.2150 C   0  0  0  0  0  3  0  0  0  0  0  0
  -23.4630  -10.4780   19.9970 C   0  0  0  0  0  3  0  0  0  0  0  0
  -21.9550   -7.4170   21.3330 O   0  0  0  0  0  0  0  0  0  0  0  0
  -21.6680   -6.8550   22.5510 C   0  0  0  0  0  0  0  0  0  0  0  0
  -21.1420   -7.6150   23.6180 C   0  0  0  0  0  3  0  0  0  0  0  0
  -20.7960   -6.9840   24.8290 C   0  0  0  0  0  3  0  0  0  0  0  0
  -20.9670   -5.5940   24.9710 C   0  0  0  0  0  0  0  0  0  0  0  0
  -21.4880   -4.8330   23.9090 C   0  0  0  0  0  3  0  0  0  0  0  0
  -21.8350   -5.4630   22.7010 C   0  0  0  0  0  0  0  0  0  0  0  0
  -22.3140   -4.7220   21.6730 F   0  0  0  0  0  0  0  0  0  0  0  0
  -20.6300   -4.9860   26.1320 F   0  0  0  0  0  0  0  0  0  0  0  0
  -24.0240  -13.8390   21.1190 C   0  0  0  0  0  0  0  0  0  0  0  0
  -23.3150  -13.2430   22.0690 N   0  0  0  0  0  0  0  0  0  0  0  0
  -23.6810  -14.9290   20.6610 O   0  0  0  0  0  0  0  0  0  0  0  0
  -23.5980  -12.3570   22.4620 H   0  0  0  0  0  0  0  0  0  0  0  0
  -22.4750  -13.6880   22.4110 H   0  0  0  0  0  0  0  0  0  0  0  0
  -26.7690  -15.1220   20.0470 N   0  0  0  0  0  0  0  0  0  0  0  0
  -26.1090  -15.8660   20.2420 H   0  0  0  0  0  0  0  0  0  0  0  0
  -27.6030  -15.4390   19.5680 H   0  0  0  0  0  0  0  0  0  0  0  0
  -31.3160  -21.1970   22.5760 C   0  0  0  0  0  2  0  0  0  0  0  0
  -31.2560  -21.8580   23.8340 O   0  0  0  0  0  0  0  0  0  0  0  0
  -32.1170  -22.2350   23.9980 H   0  0  0  0  0  0  0  0  0  0  0  0
  1 50  1  0
  1  3  1  0
  2  1  1  0
  4  1  1  0
  5  4  1  0
  6  5  1  0
  7  6  1  0
  8  9  1  0
  8  7  1  0
  9 11  1  0
 10 21  2  0
 11 16  1  0
 12 20  1  0
 12 22  1  0
 13 15  1  0
 13 19  1  0
 14 20  1  0
 15 14  1  0
 16 15  2  0
 17 18  1  0
 17 11  2  0
 18 13  2  0
 19 12  1  0
 20 10  1  0
 22 24  2  0
 23 22  1  0
 25 23  1  0
 26 35  2  0
 26 31  1  0
 27 23  1  0
 27 31  1  0
 28 27  1  0
 29 30  1  0
 29 28  1  0
 30 26  1  0
 31 32  2  0
 32 33  1  0
 34 33  2  0
 35 34  1  0
 36 10  1  0
 36 37  1  0
 36 46  1  0
 37 40  1  0
 38 37  1  0
 38 42  1  0
 39 38  2  0
 42 41  1  0
 42 44  1  0
 44 45  1  0
 44 43  1  0
 46 49  1  1
 46 47  1  0
 48 46  1  0
 50 95  1  0
 51 50  1  0
 52 51  1  0
 52 54  1  0
 53 51  2  0
 55 56  1  0
 55 52  1  0
 56 65  1  0
 57 63  1  0
 57 65  1  0
 58 63  1  0
 59 60  1  0
 59 58  1  0
 61 60  1  0
 61 70  1  0
 61 62  1  0
 63 62  1  0
 64 57  2  0
 65 66  1  0
 67 68  2  0
 68 87  1  0
 69 68  1  0
 69 72  1  0
 70 71  1  0
 70 67  1  0
 71 69  2  0
 72 73  1  0
 73 74  2  0
 75 78  1  0
 75 74  1  0
 76 75  2  0
 77 76  1  0
 77 72  2  0
 78 79  1  0
 79 84  2  0
 79 80  1  0
 80 81  2  0
 81 82  1  0
 82 86  1  0
 83 82  2  0
 84 83  1  0
 85 84  1  0
 87 88  1  0
 88 91  1  0
 88 90  1  0
 89 87  2  0
 92 67  1  0
 92 93  1  0
 94 92  1  0
 95 96  1  0
 96 97  1  0
M  ISO  4   8 101   9 101  57 100  65 100
M  END
>  <TORSDO>  (81) 
F 27

>  <SCORE>  (81) 
-9.220

>  <name>  (81) 
85

>  <ligand_id>  (81) 
85

>  <original_smiles>  (81) 
[H]OC([H])([H])C([H])(C(=O)N([H])C([H])([H])C([H])([H])N([H])C(=O)N1C([H])([H])C([H])([H])C([H])([H])C([H])(n2nc(-c3c([H])c([H])c(Oc4c([H])c([H])c(F)c([H])c4F)c([H])c3[H])c(C(=O)N([H])[H])c2N([H])[H])C1([H])[H])[N+]([H])([H])C([H])([H])C([H])([H])OC([H])([H])C([H])([H])Oc1c([H])c([H])c2c(c1[H])C([H])([H])N(C(=O)C([H])(N([H])C(=O)C([H])(N([H])C([H])([H])[H])C([H])([H])[H])C(C([H])([H])[H])(C([H])([H])[H])C([H])([H])[H])C([H])(C(=O)N([H])C1([H])c3c([H])c([H])c([H])c([H])c3C([H])([H])C([H])([H])C1([H])[H])C2([H])[H]

>  <smiles>  (81) 
[H]OC([H])([H])C([H])(C(=O)N([H])C([H])([H])C([H])([H])N([H])C(=O)N1C([H])([H])C([H])([H])C([H])([H])C([H])(n2nc(-c3c([H])c([H])c(Oc4c([H])c([H])c(F)c([H])c4F)c([H])c3[H])c(C(=O)N([H])[H])c2N([H])[H])C1([H])[H])[N+]([H])([H])C([H])([H])C([H])([H])OC([H])([H])C([H])([H])Oc1c([H])c([H])c2c(c1[H])C([H])([H])N(C(=O)C([H])(N([H])C(=O)C([H])(N([H])C([H])([H])[H])C([H])([H])[H])C(C([H])([H])[H])(C([H])([H])[H])C([H])([H])[H])C([H])(C(=O)N([H])C1([H])c3c([H])c([H])c([H])c([H])c3C([H])([H])C([H])([H])C1([H])[H])C2([H])[H]

$$$$
86:0:0
     RDKit          3D

101105  0  0  1  0  0  0  0  0999 V2000
  -27.5230  -17.7710   18.3500 C   0  0  0  0  0  2  0  0  0  0  0  0
  -26.9990  -16.4200   18.9350 C   0  0  0  0  0  0  0  0  0  0  0  0
  -27.4220  -15.2330   18.4200 N   0  0  0  0  0  0  0  0  0  0  0  0
  -26.1710  -16.4660   19.8440 O   0  0  0  0  0  0  0  0  0  0  0  0
  -28.0790  -15.2520   17.6500 H   0  0  0  0  0  0  0  0  0  0  0  0
  -26.9940  -13.8570   18.8310 C   0  0  0  0  0  2  0  0  0  0  0  0
  -27.6440  -12.6980   18.0060 C   0  0  0  0  0  0  0  0  0  0  0  0
  -27.5410  -11.4150   18.4450 N   0  0  0  0  0  0  0  0  0  0  0  0
  -28.3060  -12.9860   17.0080 O   0  0  0  0  0  0  0  0  0  0  0  0
  -26.8830  -11.2790   19.1970 H   0  0  0  0  0  0  0  0  0  0  0  0
  -28.4900  -10.2570   18.2280 C   0  0  0  0  0  2  0  0  0  0  0  0
  -29.8990  -10.5660   18.8250 C   0  0  0  0  0  2  0  0  0  0  0  0
  -30.8850   -9.7750   19.7960 C   0  0  0  0  0  2  0  0  0  0  0  0
  -33.0260  -11.5600   21.2010 C   0  0  2  0  0  0  0  0  0  0  0  0
  -34.0040  -10.7230   20.2290 C   0  0  0  0  0  1  0  0  0  0  0  0
  -33.0210  -11.5920   18.8450 C   0  0  0  0  0  1  0  0  0  0  0  0
  -31.6800  -12.6840   19.3570 C   0  0  0  0  0  2  0  0  0  0  0  0
  -31.0070  -12.7990   21.0350 C   0  0  0  0  0  2  0  0  0  0  0  0
  -32.0300  -12.0110   22.3950 C   0  0  0  0  0  1  0  0  0  0  0  0
  -33.3980  -10.9940   21.9070 N   0  0  0  0  0  1  0  0  0  0  0  0
  -33.7340  -12.7510   21.0520 O   0  0  0  0  0  1  0  0  0  0  0  0
  -31.8690  -10.4240   20.8070 N   0  0  0  0  0  2  0  0  0  0  0  0
  -31.9330   -9.7880   21.5860 H   0  0  0  0  0  0  0  0  0  0  0  0
  -28.6500  -13.6830   21.5390 C   0  0  0  0  0  0  0  0  0  0  0  0
  -27.4000  -13.1520   21.6950 C   0  0  0  0  0  0  0  0  0  0  0  0
  -27.5300  -11.7480   21.4880 C   0  0  0  0  0  0  0  0  0  0  0  0
  -29.5220  -12.6490   21.2650 N   0  0  0  0  0  0  0  0  0  0  0  0
  -28.8270  -11.4550   21.3210 N   0  0  0  0  0  0  0  0  0  0  0  0
  -26.4710  -10.7090   21.4230 C   0  0  0  0  0  0  0  0  0  0  0  0
  -26.4170   -9.6370   22.3430 C   0  0  0  0  0  3  0  0  0  0  0  0
  -25.3670   -8.6890   22.2940 C   0  0  0  0  0  3  0  0  0  0  0  0
  -24.3430   -8.8020   21.3220 C   0  0  0  0  0  0  0  0  0  0  0  0
  -24.4100   -9.8540   20.3900 C   0  0  0  0  0  3  0  0  0  0  0  0
  -25.4600  -10.7900   20.4380 C   0  0  0  0  0  3  0  0  0  0  0  0
  -23.3010   -7.9140   21.1850 O   0  0  0  0  0  0  0  0  0  0  0  0
  -22.5840   -7.4640   22.2660 C   0  0  0  0  0  0  0  0  0  0  0  0
  -21.9400   -8.3540   23.1520 C   0  0  0  0  0  3  0  0  0  0  0  0
  -21.1480   -7.8520   24.2040 C   0  0  0  0  0  3  0  0  0  0  0  0
  -20.9960   -6.4640   24.3740 C   0  0  0  0  0  0  0  0  0  0  0  0
  -21.6320   -5.5730   23.4920 C   0  0  0  0  0  3  0  0  0  0  0  0
  -22.4190   -6.0730   22.4370 C   0  0  0  0  0  0  0  0  0  0  0  0
  -23.0050   -5.2100   21.5720 F   0  0  0  0  0  0  0  0  0  0  0  0
  -20.2350   -5.9830   25.3860 F   0  0  0  0  0  0  0  0  0  0  0  0
  -26.1470  -13.9260   21.9800 C   0  0  0  0  0  0  0  0  0  0  0  0
  -25.2100  -13.3310   22.7120 N   0  0  0  0  0  0  0  0  0  0  0  0
  -26.0150  -15.0850   21.5910 O   0  0  0  0  0  0  0  0  0  0  0  0
  -25.3380  -12.3940   23.0660 H   0  0  0  0  0  0  0  0  0  0  0  0
  -24.3540  -13.8240   22.9170 H   0  0  0  0  0  0  0  0  0  0  0  0
  -29.1230  -14.9810   21.6300 N   0  0  0  0  0  0  0  0  0  0  0  0
  -28.4900  -15.7710   21.6970 H   0  0  0  0  0  0  0  0  0  0  0  0
  -30.1000  -15.2360   21.6600 H   0  0  0  0  0  0  0  0  0  0  0  0
  -27.7440  -18.8780   19.3530 N   0  0  0  0  0  4  0  0  0  0  0  0
  -28.6680  -18.7520   19.7350 H   0  0  0  0  0  0  0  0  0  0  0  0
  -27.0940  -18.7270   20.1090 H   0  0  0  0  0  0  0  0  0  0  0  0
  -27.6090  -20.3050   18.8720 C   0  0  0  0  0  2  0  0  0  0  0  0
  -28.5390  -21.4020   19.5550 C   0  0  0  0  0  2  0  0  0  0  0  0
  -28.1140  -22.8010   19.2720 N   0  0  0  0  0  0  0  0  0  0  0  0
  -27.9340  -22.9080   18.2770 H   0  0  0  0  0  0  0  0  0  0  0  0
  -28.9370  -23.9630   19.7310 C   0  0  0  0  0  2  0  0  0  0  0  0
  -28.0730  -25.2730   19.5820 C   0  0  0  0  0  2  0  0  0  0  0  0
  -28.3970  -26.6740   19.9820 O   0  0  0  0  0  0  0  0  0  0  0  0
  -24.3330  -31.8390   23.1050 C   0  0  0  0  0  0  0  0  0  0  0  0
  -27.2900  -27.5470   19.9470 C   0  0  0  0  0  0  0  0  0  0  0  0
  -23.2800  -30.4400   21.3770 C   0  0  0  0  0  3  0  0  0  0  0  0
  -24.8630  -29.0540   19.9500 C   0  0  0  0  0  0  0  0  0  0  0  0
  -25.8110  -30.8930   21.3230 C   0  0  0  0  0  2  0  0  0  0  0  0
  -25.9860  -29.5500   20.6280 C   0  0  0  0  0  0  0  0  0  0  0  0
  -27.2040  -28.7960   20.6450 C   0  0  0  0  0  3  0  0  0  0  0  0
  -26.1440  -27.1610   19.2060 C   0  0  0  0  0  3  0  0  0  0  0  0
  -24.9420  -27.8600   19.2420 C   0  0  0  0  0  3  0  0  0  0  0  0
  -23.5820  -29.8540   19.9790 C   0  0  0  0  0  2  0  0  0  0  0  0
  -24.4910  -31.0720   21.9900 N   0  0  0  0  0  0  0  0  0  0  0  0
  -23.2110  -32.0340   23.5970 O   0  0  0  0  0  0  0  0  0  0  0  0
  -22.6560  -29.3330   22.2620 C   0  0  0  0  0  0  0  0  0  0  0  0
  -21.3550  -29.0630   22.0580 N   0  0  0  0  0  0  0  0  0  0  0  0
  -23.3400  -28.7300   23.0930 O   0  0  0  0  0  0  0  0  0  0  0  0
  -20.8570  -29.6100   21.3700 H   0  0  0  0  0  0  0  0  0  0  0  0
  -18.0710  -27.5770   22.3120 C   0  0  0  0  0  0  0  0  0  0  0  0
  -20.5720  -28.0470   22.7610 C   0  0  0  0  0  3  0  0  0  0  0  0
  -20.8350  -26.6370   22.1810 C   0  0  0  0  0  2  0  0  0  0  0  0
  -19.8360  -26.2380   21.0910 C   0  0  0  0  0  2  0  0  0  0  0  0
  -18.4070  -26.2570   21.6400 C   0  0  0  0  0  2  0  0  0  0  0  0
  -19.0880  -28.4260   22.8250 C   0  0  0  0  0  0  0  0  0  0  0  0
  -18.7220  -29.6600   23.4070 C   0  0  0  0  0  3  0  0  0  0  0  0
  -17.3710  -30.0440   23.4860 C   0  0  0  0  0  3  0  0  0  0  0  0
  -16.3670  -29.1950   22.9860 C   0  0  0  0  0  3  0  0  0  0  0  0
  -16.7180  -27.9650   22.4040 C   0  0  0  0  0  3  0  0  0  0  0  0
  -25.5520  -32.5240   23.7950 C   0  0  0  0  0  3  0  0  0  0  0  0
  -25.1850  -33.9270   24.0340 N   0  0  0  0  0  0  0  0  0  0  0  0
  -25.6070  -34.9610   23.2950 C   0  0  0  0  0  0  0  0  0  0  0  0
  -26.4160  -34.8370   22.3710 O   0  0  0  0  0  0  0  0  0  0  0  0
  -24.4820  -34.0980   24.7390 H   0  0  0  0  0  0  0  0  0  0  0  0
  -23.9540  -36.7370   22.6240 C   0  0  0  0  0  1  0  0  0  0  0  0
  -25.0460  -36.3550   23.6360 C   0  0  0  0  0  3  0  0  0  0  0  0
  -27.0190  -37.2650   24.7780 C   0  0  0  0  0  1  0  0  0  0  0  0
  -26.0790  -37.4130   23.6720 N   0  0  0  0  0  0  0  0  0  0  0  0
  -25.6480  -38.3310   23.7420 H   0  0  0  0  0  0  0  0  0  0  0  0
  -25.9770  -31.8220   25.1420 C   0  0  1  0  0  0  0  0  0  0  0  0
  -24.8080  -31.6160   26.1330 C   0  0  0  0  0  1  0  0  0  0  0  0
  -26.6060  -30.4350   24.8680 C   0  0  0  0  0  1  0  0  0  0  0  0
  -27.0590  -32.6650   25.8550 C   0  0  0  0  0  1  0  0  0  0  0  0
  1  2  1  0
  1 52  1  0
  2  4  2  0
  3  6  1  0
  3  2  1  0
  5  3  1  0
  7  8  1  0
  7  6  1  0
  8 10  1  0
  9  7  2  0
 11  8  1  0
 11 12  1  0
 12 13  1  0
 13 22  1  0
 14 20  1  0
 14 19  1  6
 15 14  1  0
 16 17  1  0
 17 18  1  0
 18 27  1  0
 21 14  1  0
 22 23  1  0
 24 49  1  0
 24 25  2  0
 25 44  1  0
 26 25  1  0
 27 28  1  0
 27 24  1  0
 28 26  2  0
 29 26  1  0
 29 30  1  0
 31 30  2  0
 32 31  1  0
 33 34  1  0
 33 32  2  0
 34 29  2  0
 35 32  1  0
 35 36  1  0
 36 41  2  0
 36 37  1  0
 37 38  2  0
 38 39  1  0
 39 43  1  0
 40 39  2  0
 41 40  1  0
 42 41  1  0
 44 45  1  0
 45 48  1  0
 45 47  1  0
 46 44  2  0
 49 51  1  0
 49 50  1  0
 52 53  1  0
 52 54  1  0
 55 52  1  0
 55 56  1  0
 57 56  1  0
 57 59  1  0
 58 57  1  0
 60 59  1  0
 60 61  1  0
 62 73  2  0
 63 61  1  0
 63 68  1  0
 64 72  1  0
 64 74  1  0
 65 71  1  0
 65 67  1  0
 66 72  1  0
 67 68  2  0
 67 66  1  0
 69 70  1  0
 69 63  2  0
 70 65  2  0
 71 64  1  0
 72 62  1  0
 74 76  2  0
 75 74  1  0
 77 75  1  0
 78 87  2  0
 78 83  1  0
 79 75  1  0
 79 83  1  0
 80 79  1  0
 81 82  1  0
 81 80  1  0
 82 78  1  0
 83 84  2  0
 84 85  1  0
 86 85  2  0
 87 86  1  0
 88 62  1  0
 88 89  1  0
 88 98  1  0
 89 92  1  0
 90 94  1  0
 90 89  1  0
 91 90  2  0
 94 93  1  0
 94 96  1  0
 96 97  1  0
 96 95  1  0
 98101  1  1
 98 99  1  0
100 98  1  0
M  ISO  4  14 100  22 100  60 101  61 101
M  END
>  <TORSDO>  (82) 
F 28

>  <SCORE>  (82) 
-5.126

>  <name>  (82) 
86

>  <ligand_id>  (82) 
86

>  <original_smiles>  (82) 
[H]c1c([H])c([H])c2c(c1[H])C([H])([H])C([H])([H])C([H])([H])C2([H])N([H])C(=O)C1([H])N(C(=O)C([H])(N([H])C(=O)C([H])(N([H])C([H])([H])[H])C([H])([H])[H])C(C([H])([H])[H])(C([H])([H])[H])C([H])([H])[H])C([H])([H])c2c([H])c(OC([H])([H])C([H])([H])N([H])C([H])([H])C([H])([H])[N+]([H])([H])C([H])([H])C(=O)N([H])C([H])([H])C(=O)N([H])C([H])([H])C([H])([H])C([H])([H])N([H])C(=O)N3C([H])([H])C([H])([H])C([H])([H])C([H])(n4nc(-c5c([H])c([H])c(Oc6c([H])c([H])c(F)c([H])c6F)c([H])c5[H])c(C(=O)N([H])[H])c4N([H])[H])C3([H])[H])c([H])c([H])c2C1([H])[H]

>  <smiles>  (82) 
[H]c1c([H])c([H])c2c(c1[H])C([H])([H])C([H])([H])C([H])([H])C2([H])N([H])C(=O)C1([H])N(C(=O)C([H])(N([H])C(=O)C([H])(N([H])C([H])([H])[H])C([H])([H])[H])C(C([H])([H])[H])(C([H])([H])[H])C([H])([H])[H])C([H])([H])c2c([H])c(OC([H])([H])C([H])([H])N([H])C([H])([H])C([H])([H])[N+]([H])([H])C([H])([H])C(=O)N([H])C([H])([H])C(=O)N([H])C([H])([H])C([H])([H])C([H])([H])N([H])C(=O)N3C([H])([H])C([H])([H])C([H])([H])C([H])(n4nc(-c5c([H])c([H])c(Oc6c([H])c([H])c(F)c([H])c6F)c([H])c5[H])c(C(=O)N([H])[H])c4N([H])[H])C3([H])[H])c([H])c([H])c2C1([H])[H]

$$$$
87:0:0
     RDKit          3D

100107  0  0  1  0  0  0  0  0999 V2000
  -25.3010  -22.8270   16.5740 N   0  0  0  0  0  4  0  0  0  0  0  0
  -24.7950  -22.9190   17.4410 H   0  0  0  0  0  0  0  0  0  0  0  0
  -24.6790  -22.3820   15.9170 H   0  0  0  0  0  0  0  0  0  0  0  0
  -26.4800  -21.9510   16.7640 C   0  0  0  0  0  2  0  0  0  0  0  0
  -26.3810  -21.0670   18.0210 C   0  0  0  0  0  2  0  0  0  0  0  0
  -27.7440  -20.4290   18.3420 C   0  0  0  0  0  2  0  0  0  0  0  0
  -27.7550  -19.5330   19.5920 C   0  0  0  0  0  2  0  0  0  0  0  0
  -29.1370  -19.1210   19.9200 N   0  0  0  0  0  4  0  0  0  0  0  0
  -29.6350  -19.9250   20.2660 H   0  0  0  0  0  0  0  0  0  0  0  0
  -29.5900  -18.8210   19.0710 H   0  0  0  0  0  0  0  0  0  0  0  0
  -29.2480  -18.0390   20.9190 C   0  0  0  0  0  2  0  0  0  0  0  0
  -30.7250  -17.7610   21.2650 C   0  0  0  0  0  2  0  0  0  0  0  0
  -30.9680  -16.5320   22.1640 C   0  0  0  0  0  2  0  0  0  0  0  0
  -30.8580  -14.5960   20.5800 C   0  0  0  0  0  0  0  0  0  0  0  0
  -30.4310  -12.6710   19.0970 C   0  0  0  0  0  2  0  0  0  0  0  0
  -29.4440  -13.0500   17.9760 C   0  0  0  0  0  2  0  0  0  0  0  0
  -27.9880  -12.8720   18.4470 C   0  0  0  0  0  2  0  0  0  0  0  0
  -27.7220  -13.5510   19.8160 C   0  0  0  0  0  3  0  0  0  0  0  0
  -28.8080  -13.1510   20.8390 C   0  0  0  0  0  2  0  0  0  0  0  0
  -30.1270  -13.4940   20.2750 N   0  0  0  0  0  0  0  0  0  0  0  0
  -31.8620  -14.9480   19.9530 O   0  0  0  0  0  0  0  0  0  0  0  0
  -30.4020  -15.2960   21.6270 N   0  0  0  0  0  0  0  0  0  0  0  0
  -29.6050  -14.9040   22.1070 H   0  0  0  0  0  0  0  0  0  0  0  0
  -25.3180  -14.1030   20.5700 C   0  0  0  0  0  0  0  0  0  0  0  0
  -24.2720  -13.3040   20.9450 C   0  0  0  0  0  0  0  0  0  0  0  0
  -24.7590  -11.9610   20.8830 C   0  0  0  0  0  0  0  0  0  0  0  0
  -26.3780  -13.2480   20.3090 N   0  0  0  0  0  0  0  0  0  0  0  0
  -26.0450  -11.9540   20.5510 N   0  0  0  0  0  0  0  0  0  0  0  0
  -24.0640  -10.6820   21.0650 C   0  0  0  0  0  0  0  0  0  0  0  0
  -24.4820   -9.7480   22.0390 C   0  0  0  0  0  3  0  0  0  0  0  0
  -23.7870   -8.5320   22.2080 C   0  0  0  0  0  3  0  0  0  0  0  0
  -22.6610   -8.2400   21.4020 C   0  0  0  0  0  0  0  0  0  0  0  0
  -22.2630   -9.1640   20.4190 C   0  0  0  0  0  3  0  0  0  0  0  0
  -22.9590  -10.3720   20.2500 C   0  0  0  0  0  3  0  0  0  0  0  0
  -21.9400   -7.0720   21.4780 O   0  0  0  0  0  0  0  0  0  0  0  0
  -21.8010   -6.3880   22.6580 C   0  0  0  0  0  0  0  0  0  0  0  0
  -21.1850   -6.9700   23.7890 C   0  0  0  0  0  3  0  0  0  0  0  0
  -21.0000   -6.2080   24.9590 C   0  0  0  0  0  3  0  0  0  0  0  0
  -21.4190   -4.8640   24.9990 C   0  0  0  0  0  0  0  0  0  0  0  0
  -22.0260   -4.2820   23.8740 C   0  0  0  0  0  3  0  0  0  0  0  0
  -22.2140   -5.0420   22.7050 C   0  0  0  0  0  0  0  0  0  0  0  0
  -22.7810   -4.4690   21.6150 F   0  0  0  0  0  0  0  0  0  0  0  0
  -21.2330   -4.1290   26.1200 F   0  0  0  0  0  0  0  0  0  0  0  0
  -22.8700  -13.7460   21.2520 C   0  0  0  0  0  0  0  0  0  0  0  0
  -22.1730  -13.0180   22.1150 N   0  0  0  0  0  0  0  0  0  0  0  0
  -22.4020  -14.7720   20.7590 O   0  0  0  0  0  0  0  0  0  0  0  0
  -22.5640  -12.1860   22.5330 H   0  0  0  0  0  0  0  0  0  0  0  0
  -21.2330  -13.2960   22.3630 H   0  0  0  0  0  0  0  0  0  0  0  0
  -25.4510  -15.4790   20.4100 N   0  0  0  0  0  0  0  0  0  0  0  0
  -24.6690  -16.1120   20.5390 H   0  0  0  0  0  0  0  0  0  0  0  0
  -26.2810  -15.9330   20.0550 H   0  0  0  0  0  0  0  0  0  0  0  0
  -25.6460  -24.1770   16.0720 C   0  0  0  0  0  2  0  0  0  0  0  0
  -26.3310  -25.0310   17.1630 C   0  0  0  0  0  2  0  0  0  0  0  0
  -27.2730  -26.1230   16.6080 C   0  0  0  0  0  2  0  0  0  0  0  0
  -27.9690  -26.8770   17.6790 N   0  0  0  0  0  4  0  0  0  0  0  0
  -27.2880  -27.1970   18.3530 H   0  0  0  0  0  0  0  0  0  0  0  0
  -28.3740  -27.7020   17.2590 H   0  0  0  0  0  0  0  0  0  0  0  0
  -29.0500  -26.1370   18.3800 C   0  0  0  0  0  2  0  0  0  0  0  0
  -29.4200  -26.7600   19.7410 C   0  0  0  0  0  2  0  0  0  0  0  0
  -28.4450  -26.4120   20.7260 O   0  0  0  0  0  0  0  0  0  0  0  0
  -24.7810  -31.8200   23.5500 C   0  0  0  0  0  0  0  0  0  0  0  0
  -27.3150  -27.1820   20.7180 C   0  0  0  0  0  0  0  0  0  0  0  0
  -23.5480  -30.3890   21.9520 C   0  0  0  0  0  3  0  0  0  0  0  0
  -24.9650  -28.7330   20.6320 C   0  0  0  0  0  0  0  0  0  0  0  0
  -26.0840  -30.6590   21.7750 C   0  0  0  0  0  2  0  0  0  0  0  0
  -26.1320  -29.2600   21.2040 C   0  0  0  0  0  0  0  0  0  0  0  0
  -27.3150  -28.4930   21.2400 C   0  0  0  0  0  3  0  0  0  0  0  0
  -26.1240  -26.6420   20.1950 C   0  0  0  0  0  3  0  0  0  0  0  0
  -24.9540  -27.4210   20.1270 C   0  0  0  0  0  3  0  0  0  0  0  0
  -23.7510  -29.6330   20.6120 C   0  0  0  0  0  2  0  0  0  0  0  0
  -24.8210  -30.9710   22.4840 N   0  0  0  0  0  0  0  0  0  0  0  0
  -23.7020  -32.1580   24.0580 O   0  0  0  0  0  0  0  0  0  0  0  0
  -22.8450  -29.4390   22.9490 C   0  0  0  0  0  0  0  0  0  0  0  0
  -21.5440  -29.1940   22.7230 N   0  0  0  0  0  0  0  0  0  0  0  0
  -23.4710  -28.9200   23.8760 O   0  0  0  0  0  0  0  0  0  0  0  0
  -21.1030  -29.6600   21.9410 H   0  0  0  0  0  0  0  0  0  0  0  0
  -18.2040  -27.8370   22.9600 C   0  0  0  0  0  0  0  0  0  0  0  0
  -20.6880  -28.3020   23.5030 C   0  0  0  0  0  3  0  0  0  0  0  0
  -20.9420  -26.8230   23.1340 C   0  0  0  0  0  2  0  0  0  0  0  0
  -19.9980  -26.3040   22.0450 C   0  0  0  0  0  2  0  0  0  0  0  0
  -18.5380  -26.4320   22.4920 C   0  0  0  0  0  2  0  0  0  0  0  0
  -19.2160  -28.7220   23.4210 C   0  0  0  0  0  0  0  0  0  0  0  0
  -18.8560  -30.0320   23.8080 C   0  0  0  0  0  3  0  0  0  0  0  0
  -17.5150  -30.4580   23.7460 C   0  0  0  0  0  3  0  0  0  0  0  0
  -16.5160  -29.5730   23.3070 C   0  0  0  0  0  3  0  0  0  0  0  0
  -16.8620  -28.2660   22.9170 C   0  0  0  0  0  3  0  0  0  0  0  0
  -26.0810  -32.4260   24.1650 C   0  0  0  0  0  3  0  0  0  0  0  0
  -25.8210  -33.8450   24.4330 N   0  0  0  0  0  0  0  0  0  0  0  0
  -26.1930  -34.8500   23.6280 C   0  0  0  0  0  0  0  0  0  0  0  0
  -26.8600  -34.6770   22.6050 O   0  0  0  0  0  0  0  0  0  0  0  0
  -25.2350  -34.0570   25.2270 H   0  0  0  0  0  0  0  0  0  0  0  0
  -24.5190  -36.6750   23.1960 C   0  0  0  0  0  1  0  0  0  0  0  0
  -25.7500  -36.2720   24.0230 C   0  0  0  0  0  3  0  0  0  0  0  0
  -27.9090  -37.1350   24.8130 C   0  0  0  0  0  1  0  0  0  0  0  0
  -26.8150  -37.2860   23.8570 N   0  0  0  0  0  0  0  0  0  0  0  0
  -26.4360  -38.2240   23.9520 H   0  0  0  0  0  0  0  0  0  0  0  0
  -26.5580  -31.6870   25.4760 C   0  0  1  0  0  0  0  0  0  0  0  0
  -25.4330  -31.4810   26.5170 C   0  0  0  0  0  1  0  0  0  0  0  0
  -27.1460  -30.2980   25.1340 C   0  0  0  0  0  1  0  0  0  0  0  0
  -27.6920  -32.4950   26.1500 C   0  0  0  0  0  1  0  0  0  0  0  0
  1  4  1  0
  1  2  1  0
  3  1  1  0
  4  5  1  0
  5  6  1  0
  6  7  1  0
  7  8  1  0
  8  9  1  0
  8 11  1  0
 10  8  1  0
 11 12  1  0
 12 13  1  0
 14 22  1  0
 15 20  1  0
 16 17  1  0
 16 15  1  0
 18 17  1  0
 18 27  1  0
 18 19  1  0
 20 14  1  0
 20 19  1  0
 21 14  2  0
 22 23  1  0
 22 13  1  0
 24 25  2  0
 25 44  1  0
 26 25  1  0
 26 29  1  0
 27 28  1  0
 27 24  1  0
 28 26  2  0
 29 30  1  0
 30 31  2  0
 32 35  1  0
 32 31  1  0
 33 32  2  0
 34 33  1  0
 34 29  2  0
 35 36  1  0
 36 41  2  0
 36 37  1  0
 37 38  2  0
 38 39  1  0
 39 43  1  0
 40 39  2  0
 41 40  1  0
 42 41  1  0
 44 45  1  0
 45 48  1  0
 45 47  1  0
 46 44  2  0
 49 50  1  0
 49 24  1  0
 51 49  1  0
 52  1  1  0
 52 53  1  0
 54 53  1  0
 54 55  1  0
 55 56  1  0
 55 58  1  0
 57 55  1  0
 58 59  1  0
 59 60  1  0
 61 72  2  0
 62 60  1  0
 62 67  1  0
 63 71  1  0
 63 73  1  0
 64 66  1  0
 65 71  1  0
 66 67  2  0
 66 65  1  0
 68 62  2  0
 69 68  1  0
 69 64  2  0
 70 64  1  0
 70 63  1  0
 71 61  1  0
 73 75  2  0
 74 73  1  0
 76 74  1  0
 77 82  1  0
 78 74  1  0
 79 78  1  0
 80 81  1  0
 80 79  1  0
 81 77  1  0
 82 78  1  0
 82 83  2  0
 84 83  1  0
 85 84  2  0
 86 77  2  0
 86 85  1  0
 87 61  1  0
 87 88  1  0
 87 97  1  0
 88 91  1  0
 89 93  1  0
 89 88  1  0
 90 89  2  0
 93 92  1  0
 95 96  1  0
 95 93  1  0
 95 94  1  0
 97100  1  1
 97 98  1  0
 99 97  1  0
M  ISO  4  14 100  22 100  59 101  60 101
M  END
>  <TORSDO>  (83) 
F 30

>  <SCORE>  (83) 
-8.579

>  <name>  (83) 
87

>  <ligand_id>  (83) 
87

>  <original_smiles>  (83) 
[H]c1c([H])c([H])c2c(c1[H])C([H])([H])C([H])([H])C([H])([H])C2([H])N([H])C(=O)C1([H])N(C(=O)C([H])(N([H])C(=O)C([H])(N([H])C([H])([H])[H])C([H])([H])[H])C(C([H])([H])[H])(C([H])([H])[H])C([H])([H])[H])C([H])([H])c2c([H])c(OC([H])([H])C([H])([H])[N+]([H])([H])C([H])([H])C([H])([H])C([H])([H])[N+]([H])([H])C([H])([H])C([H])([H])C([H])([H])C([H])([H])[N+]([H])([H])C([H])([H])C([H])([H])C([H])([H])N([H])C(=O)N3C([H])([H])C([H])([H])C([H])([H])C([H])(n4nc(-c5c([H])c([H])c(Oc6c([H])c([H])c(F)c([H])c6F)c([H])c5[H])c(C(=O)N([H])[H])c4N([H])[H])C3([H])[H])c([H])c([H])c2C1([H])[H]

>  <smiles>  (83) 
[H]c1c([H])c([H])c2c(c1[H])C([H])([H])C([H])([H])C([H])([H])C2([H])N([H])C(=O)C1([H])N(C(=O)C([H])(N([H])C(=O)C([H])(N([H])C([H])([H])[H])C([H])([H])[H])C(C([H])([H])[H])(C([H])([H])[H])C([H])([H])[H])C([H])([H])c2c([H])c(OC([H])([H])C([H])([H])[N+]([H])([H])C([H])([H])C([H])([H])C([H])([H])[N+]([H])([H])C([H])([H])C([H])([H])C([H])([H])C([H])([H])[N+]([H])([H])C([H])([H])C([H])([H])C([H])([H])N([H])C(=O)N3C([H])([H])C([H])([H])C([H])([H])C([H])(n4nc(-c5c([H])c([H])c(Oc6c([H])c([H])c(F)c([H])c6F)c([H])c5[H])c(C(=O)N([H])[H])c4N([H])[H])C3([H])[H])c([H])c([H])c2C1([H])[H]

$$$$
88:0:0
     RDKit          3D

 98105  0  0  1  0  0  0  0  0999 V2000
  -31.7160  -21.4630   21.7010 N   0  0  0  0  0  4  0  0  0  0  0  0
  -30.9600  -20.9940   21.2340 H   0  0  0  0  0  0  0  0  0  0  0  0
  -32.3000  -21.8890   20.9990 H   0  0  0  0  0  0  0  0  0  0  0  0
  -31.1500  -22.5290   22.5570 C   0  0  0  0  0  2  0  0  0  0  0  0
  -30.3730  -23.5740   21.7260 C   0  0  0  0  0  2  0  0  0  0  0  0
  -29.4000  -24.2890   22.5530 N   0  0  0  0  0  0  0  0  0  0  0  0
  -29.8740  -24.9090   23.2070 H   0  0  0  0  0  0  0  0  0  0  0  0
  -28.4550  -25.0610   21.7460 C   0  0  0  0  0  2  0  0  0  0  0  0
  -29.0350  -26.4000   21.2480 C   0  0  0  0  0  2  0  0  0  0  0  0
  -28.3340  -26.7770   20.0730 O   0  0  0  0  0  0  0  0  0  0  0  0
  -24.5220  -31.9310   23.2660 C   0  0  0  0  0  0  0  0  0  0  0  0
  -27.1700  -27.4900   20.2130 C   0  0  0  0  0  0  0  0  0  0  0  0
  -23.3110  -30.5190   21.6340 C   0  0  0  0  0  3  0  0  0  0  0  0
  -24.7650  -28.9640   20.2300 C   0  0  0  0  0  0  0  0  0  0  0  0
  -25.8350  -30.8760   21.4340 C   0  0  0  0  0  2  0  0  0  0  0  0
  -25.9190  -29.4970   20.8210 C   0  0  0  0  0  0  0  0  0  0  0  0
  -27.1240  -28.7620   20.8250 C   0  0  0  0  0  3  0  0  0  0  0  0
  -26.0040  -26.9620   19.6260 C   0  0  0  0  0  3  0  0  0  0  0  0
  -24.7960  -27.6880   19.6420 C   0  0  0  0  0  3  0  0  0  0  0  0
  -23.5210  -29.8230   20.2620 C   0  0  0  0  0  2  0  0  0  0  0  0
  -24.5750  -31.1240   22.1690 N   0  0  0  0  0  0  0  0  0  0  0  0
  -23.4420  -32.2100   23.8040 O   0  0  0  0  0  0  0  0  0  0  0  0
  -22.6600  -29.5060   22.6010 C   0  0  0  0  0  0  0  0  0  0  0  0
  -21.3400  -29.3100   22.4610 N   0  0  0  0  0  0  0  0  0  0  0  0
  -23.3410  -28.8970   23.4300 O   0  0  0  0  0  0  0  0  0  0  0  0
  -20.8530  -29.8550   21.7630 H   0  0  0  0  0  0  0  0  0  0  0  0
  -17.9740  -28.0820   22.9150 C   0  0  0  0  0  0  0  0  0  0  0  0
  -20.5230  -28.3740   23.2310 C   0  0  0  0  0  3  0  0  0  0  0  0
  -20.6530  -26.9360   22.6810 C   0  0  0  0  0  2  0  0  0  0  0  0
  -19.5740  -26.5820   21.6530 C   0  0  0  0  0  2  0  0  0  0  0  0
  -18.1780  -26.7240   22.2680 C   0  0  0  0  0  2  0  0  0  0  0  0
  -19.0750  -28.8650   23.3520 C   0  0  0  0  0  0  0  0  0  0  0  0
  -18.8310  -30.1390   23.9130 C   0  0  0  0  0  3  0  0  0  0  0  0
  -17.5180  -30.6280   24.0430 C   0  0  0  0  0  3  0  0  0  0  0  0
  -16.4310  -29.8420   23.6240 C   0  0  0  0  0  3  0  0  0  0  0  0
  -16.6600  -28.5710   23.0670 C   0  0  0  0  0  3  0  0  0  0  0  0
  -25.8120  -32.5620   23.8800 C   0  0  0  0  0  3  0  0  0  0  0  0
  -26.3280  -31.7990   25.1620 C   0  0  1  0  0  0  0  0  0  0  0  0
  -25.2320  -31.5720   26.2300 C   0  0  0  0  0  1  0  0  0  0  0  0
  -26.9090  -30.4190   24.7760 C   0  0  0  0  0  1  0  0  0  0  0  0
  -27.4800  -32.5960   25.8190 C   0  0  0  0  0  1  0  0  0  0  0  0
  -25.5120  -33.9650   24.1940 N   0  0  0  0  0  0  0  0  0  0  0  0
  -25.8620  -35.0060   23.4270 C   0  0  0  0  0  0  0  0  0  0  0  0
  -26.5440  -34.8870   22.4050 O   0  0  0  0  0  0  0  0  0  0  0  0
  -24.9130  -34.1330   24.9890 H   0  0  0  0  0  0  0  0  0  0  0  0
  -24.1600  -36.8090   23.0210 C   0  0  0  0  0  1  0  0  0  0  0  0
  -25.3780  -36.4020   23.8640 C   0  0  0  0  0  3  0  0  0  0  0  0
  -27.5030  -37.2680   24.7400 C   0  0  0  0  0  1  0  0  0  0  0  0
  -26.4250  -37.4430   23.7700 N   0  0  0  0  0  0  0  0  0  0  0  0
  -26.0250  -38.3670   23.9040 H   0  0  0  0  0  0  0  0  0  0  0  0
  -32.5090  -20.4500   22.4300 C   0  0  0  0  0  2  0  0  0  0  0  0
  -32.8550  -19.2360   21.5440 C   0  0  0  0  0  2  0  0  0  0  0  0
  -31.0220  -17.5440   21.6280 C   0  0  0  0  0  0  0  0  0  0  0  0
  -31.6640  -18.5590   21.0330 N   0  0  0  0  0  0  0  0  0  0  0  0
  -31.3600  -17.1020   22.7280 O   0  0  0  0  0  0  0  0  0  0  0  0
  -31.3540  -18.7950   20.0990 H   0  0  0  0  0  0  0  0  0  0  0  0
  -29.7890  -16.9620   20.9030 C   0  0  0  0  0  3  0  0  0  0  0  0
  -30.4500  -14.5550   20.4560 C   0  0  0  0  0  0  0  0  0  0  0  0
  -30.1880  -12.4680   19.1850 C   0  0  0  0  0  2  0  0  0  0  0  0
  -29.2080  -12.7410   18.0250 C   0  0  0  0  0  2  0  0  0  0  0  0
  -27.7480  -12.5410   18.4760 C   0  0  0  0  0  2  0  0  0  0  0  0
  -27.4270  -13.2820   19.8010 C   0  0  0  0  0  3  0  0  0  0  0  0
  -28.5120  -13.0000   20.8640 C   0  0  0  0  0  2  0  0  0  0  0  0
  -29.8200  -13.3640   20.2880 N   0  0  0  0  0  0  0  0  0  0  0  0
  -31.5630  -14.8030   19.9850 O   0  0  0  0  0  0  0  0  0  0  0  0
  -29.6910  -15.4990   21.0260 N   0  0  0  0  0  0  0  0  0  0  0  0
  -28.8360  -15.1640   21.4440 H   0  0  0  0  0  0  0  0  0  0  0  0
  -25.0100  -13.8060   20.5180 C   0  0  0  0  0  0  0  0  0  0  0  0
  -23.9760  -12.9940   20.8970 C   0  0  0  0  0  0  0  0  0  0  0  0
  -24.4920  -11.6610   20.8720 C   0  0  0  0  0  0  0  0  0  0  0  0
  -26.0870  -12.9660   20.2880 N   0  0  0  0  0  0  0  0  0  0  0  0
  -25.7800  -11.6720   20.5550 N   0  0  0  0  0  0  0  0  0  0  0  0
  -23.8200  -10.3730   21.0730 C   0  0  0  0  0  0  0  0  0  0  0  0
  -24.2860   -9.4400   22.0260 C   0  0  0  0  0  3  0  0  0  0  0  0
  -23.6130   -8.2140   22.2140 C   0  0  0  0  0  3  0  0  0  0  0  0
  -22.4610   -7.9130   21.4500 C   0  0  0  0  0  0  0  0  0  0  0  0
  -22.0150   -8.8350   20.4870 C   0  0  0  0  0  3  0  0  0  0  0  0
  -22.6890  -10.0520   20.2970 C   0  0  0  0  0  3  0  0  0  0  0  0
  -21.7580   -6.7360   21.5480 O   0  0  0  0  0  0  0  0  0  0  0  0
  -21.7250   -6.0120   22.7130 C   0  0  0  0  0  0  0  0  0  0  0  0
  -21.2480   -6.5670   23.9210 C   0  0  0  0  0  3  0  0  0  0  0  0
  -21.1630   -5.7680   25.0780 C   0  0  0  0  0  3  0  0  0  0  0  0
  -21.5470   -4.4140   25.0270 C   0  0  0  0  0  0  0  0  0  0  0  0
  -22.0180   -3.8590   23.8250 C   0  0  0  0  0  3  0  0  0  0  0  0
  -22.1020   -4.6550   22.6700 C   0  0  0  0  0  0  0  0  0  0  0  0
  -22.5360   -4.1100   21.5080 F   0  0  0  0  0  0  0  0  0  0  0  0
  -21.4610   -3.6430   26.1370 F   0  0  0  0  0  0  0  0  0  0  0  0
  -22.5620  -13.4140   21.1770 C   0  0  0  0  0  0  0  0  0  0  0  0
  -21.8710  -12.6920   22.0510 N   0  0  0  0  0  0  0  0  0  0  0  0
  -22.0770  -14.4180   20.6560 O   0  0  0  0  0  0  0  0  0  0  0  0
  -22.2770  -11.8790   22.4910 H   0  0  0  0  0  0  0  0  0  0  0  0
  -20.9220  -12.9530   22.2800 H   0  0  0  0  0  0  0  0  0  0  0  0
  -25.1140  -15.1830   20.3340 N   0  0  0  0  0  0  0  0  0  0  0  0
  -24.3200  -15.8030   20.4460 H   0  0  0  0  0  0  0  0  0  0  0  0
  -25.9370  -15.6540   19.9820 H   0  0  0  0  0  0  0  0  0  0  0  0
  -30.5450  -17.2340   18.3750 C   0  0  0  0  0  1  0  0  0  0  0  0
  -28.0980  -17.1150   18.9480 C   0  0  0  0  0  1  0  0  0  0  0  0
  -29.4900  -17.5160   19.4650 C   0  0  0  0  0  3  0  0  0  0  0  0
  1 51  1  0
  1  4  1  0
  2  1  1  0
  3  1  1  0
  5  6  1  0
  5  4  1  0
  6  7  1  0
  8  6  1  0
  9  8  1  0
 10 12  1  0
 10  9  1  0
 11 22  2  0
 12 17  1  0
 13 21  1  0
 13 23  1  0
 14 20  1  0
 14 16  1  0
 15 21  1  0
 16 17  2  0
 16 15  1  0
 18 19  1  0
 18 12  2  0
 19 14  2  0
 20 13  1  0
 21 11  1  0
 23 25  2  0
 24 23  1  0
 26 24  1  0
 27 36  2  0
 27 32  1  0
 28 24  1  0
 28 32  1  0
 29 28  1  0
 30 31  1  0
 30 29  1  0
 31 27  1  0
 32 33  2  0
 33 34  1  0
 35 34  2  0
 36 35  1  0
 37 11  1  0
 37 42  1  0
 37 38  1  0
 38 41  1  1
 38 39  1  0
 40 38  1  0
 42 45  1  0
 43 47  1  0
 43 42  1  0
 44 43  2  0
 47 46  1  0
 49 47  1  0
 49 50  1  0
 49 48  1  0
 52 51  1  0
 53 55  2  0
 54 52  1  0
 54 53  1  0
 56 54  1  0
 57 98  1  0
 57 66  1  0
 57 53  1  0
 58 66  1  0
 59 64  1  0
 60 61  1  0
 60 59  1  0
 62 61  1  0
 62 71  1  0
 62 63  1  0
 64 58  1  0
 64 63  1  0
 65 58  2  0
 66 67  1  0
 68 69  2  0
 69 88  1  0
 70 69  1  0
 70 73  1  0
 71 68  1  0
 71 72  1  0
 72 70  2  0
 73 74  1  0
 74 75  2  0
 76 79  1  0
 76 75  1  0
 77 76  2  0
 78 77  1  0
 78 73  2  0
 79 80  1  0
 80 81  1  0
 81 82  2  0
 83 82  1  0
 83 87  1  0
 84 83  2  0
 85 80  2  0
 85 84  1  0
 86 85  1  0
 88 89  1  0
 89 92  1  0
 89 91  1  0
 90 88  2  0
 93 94  1  0
 93 68  1  0
 95 93  1  0
 96 98  1  0
 97 98  1  0
M  ISO  4   9 101  10 101  58 100  66 100
M  END
>  <TORSDO>  (84) 
F 26

>  <SCORE>  (84) 
-11.886

>  <name>  (84) 
88

>  <ligand_id>  (84) 
88

>  <original_smiles>  (84) 
[H]c1c([H])c([H])c2c(c1[H])C([H])([H])C([H])([H])C([H])([H])C2([H])N([H])C(=O)C1([H])N(C(=O)C([H])(N([H])C(=O)C([H])(N([H])C([H])([H])[H])C([H])([H])[H])C(C([H])([H])[H])(C([H])([H])[H])C([H])([H])[H])C([H])([H])c2c([H])c(OC([H])([H])C([H])([H])N([H])C([H])([H])C([H])([H])[N+]([H])([H])C([H])([H])C([H])([H])N([H])C(=O)C([H])(N([H])C(=O)N3C([H])([H])C([H])([H])C([H])([H])C([H])(n4nc(-c5c([H])c([H])c(Oc6c([H])c([H])c(F)c([H])c6F)c([H])c5[H])c(C(=O)N([H])[H])c4N([H])[H])C3([H])[H])C([H])(C([H])([H])[H])C([H])([H])[H])c([H])c([H])c2C1([H])[H]

>  <smiles>  (84) 
[H]c1c([H])c([H])c2c(c1[H])C([H])([H])C([H])([H])C([H])([H])C2([H])N([H])C(=O)C1([H])N(C(=O)C([H])(N([H])C(=O)C([H])(N([H])C([H])([H])[H])C([H])([H])[H])C(C([H])([H])[H])(C([H])([H])[H])C([H])([H])[H])C([H])([H])c2c([H])c(OC([H])([H])C([H])([H])N([H])C([H])([H])C([H])([H])[N+]([H])([H])C([H])([H])C([H])([H])N([H])C(=O)C([H])(N([H])C(=O)N3C([H])([H])C([H])([H])C([H])([H])C([H])(n4nc(-c5c([H])c([H])c(Oc6c([H])c([H])c(F)c([H])c6F)c([H])c5[H])c(C(=O)N([H])[H])c4N([H])[H])C3([H])[H])C([H])(C([H])([H])[H])C([H])([H])[H])c([H])c([H])c2C1([H])[H]

$$$$
89:0:0
     RDKit          3D

 96103  0  0  1  0  0  0  0  0999 V2000
  -32.2660  -21.6050   19.0600 C   0  0  0  0  0  2  0  0  0  0  0  0
  -31.2770  -22.5830   19.5120 N   0  0  0  0  0  0  0  0  0  0  0  0
  -30.4140  -22.4510   18.9810 H   0  0  0  0  0  0  0  0  0  0  0  0
  -31.7060  -23.9750   19.3670 C   0  0  0  0  0  2  0  0  0  0  0  0
  -30.8280  -24.9270   20.1990 C   0  0  0  0  0  2  0  0  0  0  0  0
  -30.6770  -26.3220   19.5560 C   0  0  0  0  0  2  0  0  0  0  0  0
  -29.7030  -27.2510   20.2980 C   0  0  0  0  0  2  0  0  0  0  0  0
  -28.4210  -26.6530   20.1730 O   0  0  0  0  0  0  0  0  0  0  0  0
  -24.6130  -31.8820   23.2420 C   0  0  0  0  0  0  0  0  0  0  0  0
  -27.2970  -27.4410   20.2260 C   0  0  0  0  0  0  0  0  0  0  0  0
  -23.4150  -30.4620   21.6010 C   0  0  0  0  0  3  0  0  0  0  0  0
  -24.8860  -28.9090   20.2120 C   0  0  0  0  0  0  0  0  0  0  0  0
  -25.9380  -30.8300   21.4220 C   0  0  0  0  0  2  0  0  0  0  0  0
  -26.0350  -29.4520   20.8030 C   0  0  0  0  0  0  0  0  0  0  0  0
  -27.2440  -28.7280   20.8150 C   0  0  0  0  0  3  0  0  0  0  0  0
  -26.1330  -26.9010   19.6450 C   0  0  0  0  0  3  0  0  0  0  0  0
  -24.9270  -27.6270   19.6330 C   0  0  0  0  0  3  0  0  0  0  0  0
  -23.6370  -29.7600   20.2330 C   0  0  0  0  0  2  0  0  0  0  0  0
  -24.6710  -31.0740   22.1450 N   0  0  0  0  0  0  0  0  0  0  0  0
  -23.5290  -32.1590   23.7720 O   0  0  0  0  0  0  0  0  0  0  0  0
  -22.7590  -29.4540   22.5710 C   0  0  0  0  0  0  0  0  0  0  0  0
  -21.4340  -29.2720   22.4400 N   0  0  0  0  0  0  0  0  0  0  0  0
  -23.4370  -28.8390   23.3980 O   0  0  0  0  0  0  0  0  0  0  0  0
  -20.9470  -29.8160   21.7420 H   0  0  0  0  0  0  0  0  0  0  0  0
  -18.0560  -28.0960   22.9360 C   0  0  0  0  0  0  0  0  0  0  0  0
  -20.6140  -28.3460   23.2190 C   0  0  0  0  0  3  0  0  0  0  0  0
  -20.7140  -26.9110   22.6560 C   0  0  0  0  0  2  0  0  0  0  0  0
  -19.6150  -26.5840   21.6400 C   0  0  0  0  0  2  0  0  0  0  0  0
  -18.2290  -26.7410   22.2730 C   0  0  0  0  0  2  0  0  0  0  0  0
  -19.1760  -28.8560   23.3650 C   0  0  0  0  0  0  0  0  0  0  0  0
  -18.9620  -30.1250   23.9440 C   0  0  0  0  0  3  0  0  0  0  0  0
  -17.6580  -30.6370   24.0990 C   0  0  0  0  0  3  0  0  0  0  0  0
  -16.5520  -29.8730   23.6880 C   0  0  0  0  0  3  0  0  0  0  0  0
  -16.7510  -28.6060   23.1110 C   0  0  0  0  0  3  0  0  0  0  0  0
  -25.8960  -32.5170   23.8630 C   0  0  0  0  0  3  0  0  0  0  0  0
  -26.4200  -31.7510   25.1410 C   0  0  1  0  0  0  0  0  0  0  0  0
  -25.3300  -31.5180   26.2110 C   0  0  0  0  0  1  0  0  0  0  0  0
  -27.0090  -30.3720   24.7560 C   0  0  0  0  0  1  0  0  0  0  0  0
  -27.5690  -32.5520   25.7980 C   0  0  0  0  0  1  0  0  0  0  0  0
  -25.5820  -33.9160   24.1890 N   0  0  0  0  0  0  0  0  0  0  0  0
  -25.9120  -34.9650   23.4260 C   0  0  0  0  0  0  0  0  0  0  0  0
  -26.5870  -34.8630   22.3970 O   0  0  0  0  0  0  0  0  0  0  0  0
  -24.9850  -34.0730   24.9870 H   0  0  0  0  0  0  0  0  0  0  0  0
  -24.1780  -36.7520   23.0600 C   0  0  0  0  0  1  0  0  0  0  0  0
  -25.4170  -36.3520   23.8780 C   0  0  0  0  0  3  0  0  0  0  0  0
  -27.5470  -37.2410   24.7140 C   0  0  0  0  0  1  0  0  0  0  0  0
  -26.4440  -37.4090   23.7720 N   0  0  0  0  0  0  0  0  0  0  0  0
  -26.0310  -38.3240   23.9260 H   0  0  0  0  0  0  0  0  0  0  0  0
  -31.5890  -20.2570   18.7500 C   0  0  0  0  0  2  0  0  0  0  0  0
  -32.5270  -19.2340   18.2670 N   0  0  0  0  0  0  0  0  0  0  0  0
  -33.1460  -19.6640   17.5750 H   0  0  0  0  0  0  0  0  0  0  0  0
  -33.3390  -18.6510   19.3420 C   0  0  0  0  0  2  0  0  0  0  0  0
  -34.0250  -17.3380   18.9210 C   0  0  0  0  0  2  0  0  0  0  0  0
  -33.0160  -16.3040   18.6090 N   0  0  0  0  0  4  0  0  0  0  0  0
  -32.2510  -16.3370   19.2770 H   0  0  0  0  0  0  0  0  0  0  0  0
  -32.6260  -16.5510   17.7130 H   0  0  0  0  0  0  0  0  0  0  0  0
  -33.4980  -14.9040   18.5800 C   0  0  0  0  0  2  0  0  0  0  0  0
  -33.5360  -14.2260   19.9870 C   0  0  0  0  0  2  0  0  0  0  0  0
  -31.0660  -14.0310   20.3020 C   0  0  0  0  0  0  0  0  0  0  0  0
  -30.2170  -12.1640   19.1010 C   0  0  0  0  0  2  0  0  0  0  0  0
  -29.2520  -12.5820   17.9870 C   0  0  0  0  0  2  0  0  0  0  0  0
  -27.8220  -12.4540   18.5030 C   0  0  0  0  0  2  0  0  0  0  0  0
  -27.5870  -13.2840   19.7860 C   0  0  0  0  0  3  0  0  0  0  0  0
  -28.7310  -13.0940   20.8340 C   0  0  0  0  0  2  0  0  0  0  0  0
  -30.0880  -13.0980   20.2250 N   0  0  0  0  0  0  0  0  0  0  0  0
  -30.9820  -15.2170   20.0830 O   0  0  0  0  0  0  0  0  0  0  0  0
  -32.3010  -13.5200   20.3840 N   0  0  0  0  0  0  0  0  0  0  0  0
  -32.3630  -12.5230   20.5320 H   0  0  0  0  0  0  0  0  0  0  0  0
  -25.1890  -13.8820   20.5600 C   0  0  0  0  0  0  0  0  0  0  0  0
  -24.1220  -13.1110   20.9360 C   0  0  0  0  0  0  0  0  0  0  0  0
  -24.5760  -11.7560   20.8890 C   0  0  0  0  0  0  0  0  0  0  0  0
  -26.2400  -13.0080   20.3160 N   0  0  0  0  0  0  0  0  0  0  0  0
  -25.8670  -11.7220   20.5680 N   0  0  0  0  0  0  0  0  0  0  0  0
  -23.8410  -10.4940   21.0790 C   0  0  0  0  0  0  0  0  0  0  0  0
  -24.2930   -9.5070   21.9820 C   0  0  0  0  0  3  0  0  0  0  0  0
  -23.5630   -8.3140   22.1700 C   0  0  0  0  0  3  0  0  0  0  0  0
  -22.3630   -8.0960   21.4530 C   0  0  0  0  0  0  0  0  0  0  0  0
  -21.9230   -9.0700   20.5400 C   0  0  0  0  0  3  0  0  0  0  0  0
  -22.6550  -10.2560   20.3490 C   0  0  0  0  0  3  0  0  0  0  0  0
  -21.6050   -6.9520   21.5510 O   0  0  0  0  0  0  0  0  0  0  0  0
  -21.6060   -6.1820   22.6850 C   0  0  0  0  0  0  0  0  0  0  0  0
  -21.2650   -6.7100   23.9490 C   0  0  0  0  0  3  0  0  0  0  0  0
  -21.2100   -5.8650   25.0750 C   0  0  0  0  0  3  0  0  0  0  0  0
  -21.4900   -4.4930   24.9410 C   0  0  0  0  0  0  0  0  0  0  0  0
  -21.8250   -3.9620   23.6830 C   0  0  0  0  0  3  0  0  0  0  0  0
  -21.8800   -4.8030   22.5580 C   0  0  0  0  0  0  0  0  0  0  0  0
  -22.1830   -4.2830   21.3450 F   0  0  0  0  0  0  0  0  0  0  0  0
  -21.4310   -3.6780   26.0210 F   0  0  0  0  0  0  0  0  0  0  0  0
  -22.7300  -13.5880   21.2390 C   0  0  0  0  0  0  0  0  0  0  0  0
  -22.0170  -12.8860   22.1140 N   0  0  0  0  0  0  0  0  0  0  0  0
  -22.2830  -14.6190   20.7360 O   0  0  0  0  0  0  0  0  0  0  0  0
  -22.3910  -12.0470   22.5330 H   0  0  0  0  0  0  0  0  0  0  0  0
  -21.0900  -13.1940   22.3700 H   0  0  0  0  0  0  0  0  0  0  0  0
  -25.3540  -15.2540   20.3840 N   0  0  0  0  0  0  0  0  0  0  0  0
  -24.5930  -15.9150   20.4940 H   0  0  0  0  0  0  0  0  0  0  0  0
  -26.2160  -15.6850   20.0740 H   0  0  0  0  0  0  0  0  0  0  0  0
  1  2  1  0
  3  2  1  0
  4  2  1  0
  4  5  1  0
  6  5  1  0
  6  7  1  0
  8 10  1  0
  8  7  1  0
  9 20  2  0
 10 15  1  0
 11 19  1  0
 11 21  1  0
 12 18  1  0
 12 14  1  0
 13 19  1  0
 14 15  2  0
 14 13  1  0
 16 10  2  0
 17 16  1  0
 17 12  2  0
 18 11  1  0
 19  9  1  0
 21 23  2  0
 22 21  1  0
 24 22  1  0
 25 34  2  0
 25 30  1  0
 26 22  1  0
 26 30  1  0
 27 26  1  0
 28 29  1  0
 28 27  1  0
 29 25  1  0
 30 31  2  0
 31 32  1  0
 33 32  2  0
 34 33  1  0
 35  9  1  0
 35 40  1  0
 35 36  1  0
 36 39  1  1
 36 37  1  0
 38 36  1  0
 40 43  1  0
 41 45  1  0
 41 40  1  0
 42 41  2  0
 45 44  1  0
 47 45  1  0
 47 48  1  0
 47 46  1  0
 49  1  1  0
 50 49  1  0
 50 52  1  0
 51 50  1  0
 53 52  1  0
 54 53  1  0
 54 55  1  0
 56 54  1  0
 57 54  1  0
 57 58  1  0
 58 67  1  0
 59 67  1  0
 60 65  1  0
 61 62  1  0
 61 60  1  0
 63 62  1  0
 63 72  1  0
 63 64  1  0
 65 59  1  0
 65 64  1  0
 66 59  2  0
 67 68  1  0
 69 70  2  0
 70 89  1  0
 71 70  1  0
 71 74  1  0
 72 69  1  0
 72 73  1  0
 73 71  2  0
 74 75  1  0
 75 76  2  0
 77 80  1  0
 77 76  1  0
 78 77  2  0
 79 78  1  0
 79 74  2  0
 80 81  1  0
 81 82  1  0
 82 83  2  0
 84 83  1  0
 84 88  1  0
 85 84  2  0
 86 81  2  0
 86 85  1  0
 87 86  1  0
 89 90  1  0
 90 93  1  0
 90 92  1  0
 91 89  2  0
 94 95  1  0
 94 69  1  0
 96 94  1  0
M  ISO  4   7 101   8 101  59 100  67 100
M  END
>  <TORSDO>  (85) 
F 28

>  <SCORE>  (85) 
-11.132

>  <name>  (85) 
89

>  <ligand_id>  (85) 
89

>  <original_smiles>  (85) 
[H]c1c([H])c([H])c2c(c1[H])C([H])([H])C([H])([H])C([H])([H])C2([H])N([H])C(=O)C1([H])N(C(=O)C([H])(N([H])C(=O)C([H])(N([H])C([H])([H])[H])C([H])([H])[H])C(C([H])([H])[H])(C([H])([H])[H])C([H])([H])[H])C([H])([H])c2c([H])c(OC([H])([H])C([H])([H])C([H])([H])C([H])([H])N([H])C([H])([H])C([H])([H])N([H])C([H])([H])C([H])([H])[N+]([H])([H])C([H])([H])C([H])([H])N([H])C(=O)N3C([H])([H])C([H])([H])C([H])([H])C([H])(n4nc(-c5c([H])c([H])c(Oc6c([H])c([H])c(F)c([H])c6F)c([H])c5[H])c(C(=O)N([H])[H])c4N([H])[H])C3([H])[H])c([H])c([H])c2C1([H])[H]

>  <smiles>  (85) 
[H]c1c([H])c([H])c2c(c1[H])C([H])([H])C([H])([H])C([H])([H])C2([H])N([H])C(=O)C1([H])N(C(=O)C([H])(N([H])C(=O)C([H])(N([H])C([H])([H])[H])C([H])([H])[H])C(C([H])([H])[H])(C([H])([H])[H])C([H])([H])[H])C([H])([H])c2c([H])c(OC([H])([H])C([H])([H])C([H])([H])C([H])([H])N([H])C([H])([H])C([H])([H])N([H])C([H])([H])C([H])([H])[N+]([H])([H])C([H])([H])C([H])([H])N([H])C(=O)N3C([H])([H])C([H])([H])C([H])([H])C([H])(n4nc(-c5c([H])c([H])c(Oc6c([H])c([H])c(F)c([H])c6F)c([H])c5[H])c(C(=O)N([H])[H])c4N([H])[H])C3([H])[H])c([H])c([H])c2C1([H])[H]

$$$$
90:0:0
     RDKit          3D

102110  0  0  1  0  0  0  0  0999 V2000
  -24.9530  -19.8480   18.5640 C   0  0  0  0  0  2  0  0  0  0  0  0
  -27.2130  -20.5280   18.4420 C   0  0  0  0  0  2  0  0  0  0  0  0
  -24.5500  -21.2580   19.0370 C   0  0  0  0  0  2  0  0  0  0  0  0
  -26.8750  -21.9730   18.8490 C   0  0  0  0  0  3  0  0  0  0  0  0
  -26.1470  -19.8440   17.7150 N   0  0  0  0  0  0  0  0  0  0  0  0
  -25.6650  -21.9660   19.7360 N   0  0  1  0  0  4  0  0  0  0  0  0
  -25.9040  -21.4040   20.5430 H   0  0  0  0  0  0  0  0  0  0  0  0
  -25.1880  -23.2910   20.2360 C   0  0  0  0  0  2  0  0  0  0  0  0
  -25.7630  -23.7510   21.6090 C   0  0  0  0  0  2  0  0  0  0  0  0
  -27.0650  -24.3560   21.5750 O   0  0  0  0  0  0  0  0  0  0  0  0
  -27.1270  -25.5010   20.7360 C   0  0  0  0  0  2  0  0  0  0  0  0
  -28.4390  -26.3130   20.7780 C   0  0  0  0  0  2  0  0  0  0  0  0
  -28.4110  -27.4560   19.9030 O   0  0  0  0  0  0  0  0  0  0  0  0
  -25.1320  -31.9780   24.2890 C   0  0  0  0  0  0  0  0  0  0  0  0
  -27.3370  -28.2890   20.1060 C   0  0  0  0  0  0  0  0  0  0  0  0
  -23.7690  -31.0910   22.4230 C   0  0  0  0  0  3  0  0  0  0  0  0
  -25.0590  -29.8740   20.5950 C   0  0  0  0  0  0  0  0  0  0  0  0
  -26.3000  -31.3410   22.1880 C   0  0  0  0  0  2  0  0  0  0  0  0
  -26.2670  -30.1580   21.2460 C   0  0  0  0  0  0  0  0  0  0  0  0
  -27.4080  -29.3590   21.0190 C   0  0  0  0  0  3  0  0  0  0  0  0
  -26.1360  -28.0640   19.4000 C   0  0  0  0  0  3  0  0  0  0  0  0
  -24.9840  -28.8190   19.6720 C   0  0  0  0  0  3  0  0  0  0  0  0
  -23.8790  -30.7610   20.9090 C   0  0  0  0  0  2  0  0  0  0  0  0
  -25.0870  -31.4680   23.0260 N   0  0  0  0  0  0  0  0  0  0  0  0
  -24.0950  -32.1750   24.9360 O   0  0  0  0  0  0  0  0  0  0  0  0
  -23.0840  -29.9050   23.1400 C   0  0  0  0  0  0  0  0  0  0  0  0
  -21.7820  -29.7160   22.8720 N   0  0  0  0  0  0  0  0  0  0  0  0
  -23.7210  -29.1710   23.8990 O   0  0  0  0  0  0  0  0  0  0  0  0
  -21.3290  -30.3700   22.2500 H   0  0  0  0  0  0  0  0  0  0  0  0
  -18.5020  -28.2170   22.6660 C   0  0  0  0  0  0  0  0  0  0  0  0
  -20.9410  -28.6460   23.4070 C   0  0  0  0  0  3  0  0  0  0  0  0
  -21.2750  -27.2920   22.7410 C   0  0  0  0  0  2  0  0  0  0  0  0
  -20.3950  -26.9870   21.5250 C   0  0  0  0  0  2  0  0  0  0  0  0
  -18.9170  -26.9570   21.9250 C   0  0  0  0  0  2  0  0  0  0  0  0
  -19.4550  -29.0170   23.3510 C   0  0  0  0  0  0  0  0  0  0  0  0
  -19.0190  -30.1950   23.9990 C   0  0  0  0  0  3  0  0  0  0  0  0
  -17.6670  -30.5760   23.9680 C   0  0  0  0  0  3  0  0  0  0  0  0
  -16.7260  -29.7730   23.3010 C   0  0  0  0  0  3  0  0  0  0  0  0
  -17.1430  -28.5940   22.6560 C   0  0  0  0  0  3  0  0  0  0  0  0
  -26.4850  -32.3580   24.9690 C   0  0  0  0  0  3  0  0  0  0  0  0
  -26.3920  -33.7650   25.3790 N   0  0  0  0  0  0  0  0  0  0  0  0
  -26.9480  -34.7870   24.7160 C   0  0  0  0  0  0  0  0  0  0  0  0
  -27.6610  -34.6350   23.7200 O   0  0  0  0  0  0  0  0  0  0  0  0
  -25.7830  -33.9700   26.1570 H   0  0  0  0  0  0  0  0  0  0  0  0
  -25.5850  -36.8700   24.3690 C   0  0  0  0  0  1  0  0  0  0  0  0
  -26.6660  -36.2090   25.2380 C   0  0  0  0  0  3  0  0  0  0  0  0
  -28.8480  -36.6440   26.2770 C   0  0  0  0  0  1  0  0  0  0  0  0
  -27.8690  -37.0670   25.2800 N   0  0  0  0  0  0  0  0  0  0  0  0
  -27.6180  -38.0320   25.4740 H   0  0  0  0  0  0  0  0  0  0  0  0
  -26.8430  -31.4380   26.1980 C   0  0  1  0  0  0  0  0  0  0  0  0
  -25.6990  -31.3130   27.2310 C   0  0  0  0  0  1  0  0  0  0  0  0
  -27.2120  -30.0130   25.7210 C   0  0  0  0  0  1  0  0  0  0  0  0
  -28.0910  -31.9930   26.9230 C   0  0  0  0  0  1  0  0  0  0  0  0
  -26.4990  -18.4610   17.3270 C   0  0  0  0  0  2  0  0  0  0  0  0
  -28.0050  -18.1370   17.1990 C   0  0  0  0  0  2  0  0  0  0  0  0
  -28.3950  -17.7380   18.5090 O   0  0  0  0  0  0  0  0  0  0  0  0
  -29.7130  -18.0560   18.9260 C   0  0  0  0  0  2  0  0  0  0  0  0
  -29.5920  -18.1910   20.4520 C   0  0  0  0  0  2  0  0  0  0  0  0
  -30.9250  -18.2630   21.2160 C   0  0  0  0  0  2  0  0  0  0  0  0
  -30.9020  -17.4310   22.5230 C   0  0  0  0  0  2  0  0  0  0  0  0
  -30.9930  -15.2510   21.3760 C   0  0  0  0  0  0  0  0  0  0  0  0
  -30.7530  -13.2660   19.9600 C   0  0  0  0  0  2  0  0  0  0  0  0
  -29.9240  -13.5950   18.7050 C   0  0  0  0  0  2  0  0  0  0  0  0
  -28.4290  -13.3670   18.9850 C   0  0  0  0  0  2  0  0  0  0  0  0
  -27.9530  -14.0850   20.2750 C   0  0  0  0  0  3  0  0  0  0  0  0
  -28.9120  -13.8120   21.4600 C   0  0  0  0  0  2  0  0  0  0  0  0
  -30.2900  -14.1360   21.0500 N   0  0  0  0  0  0  0  0  0  0  0  0
  -32.0660  -15.5480   20.8490 O   0  0  0  0  0  0  0  0  0  0  0  0
  -30.4450  -16.0590   22.2870 N   0  0  0  0  0  0  0  0  0  0  0  0
  -29.5850  -15.7590   22.7220 H   0  0  0  0  0  0  0  0  0  0  0  0
  -25.4660  -14.5480   20.7690 C   0  0  0  0  0  0  0  0  0  0  0  0
  -24.4080  -13.7110   20.9970 C   0  0  0  0  0  0  0  0  0  0  0  0
  -24.9340  -12.3820   20.9460 C   0  0  0  0  0  0  0  0  0  0  0  0
  -26.5730  -13.7270   20.6020 N   0  0  0  0  0  0  0  0  0  0  0  0
  -26.2490  -12.4170   20.7630 N   0  0  0  0  0  0  0  0  0  0  0  0
  -24.2540  -11.0810   21.0040 C   0  0  0  0  0  0  0  0  0  0  0  0
  -24.6340  -10.0890   21.9360 C   0  0  0  0  0  3  0  0  0  0  0  0
  -23.9520   -8.8540   21.9860 C   0  0  0  0  0  3  0  0  0  0  0  0
  -22.8780   -8.5990   21.1010 C   0  0  0  0  0  0  0  0  0  0  0  0
  -22.5180   -9.5800   20.1610 C   0  0  0  0  0  3  0  0  0  0  0  0
  -23.2000  -10.8080   20.1090 C   0  0  0  0  0  3  0  0  0  0  0  0
  -22.1770   -7.4180   21.0600 O   0  0  0  0  0  0  0  0  0  0  0  0
  -21.9730   -6.6610   22.1850 C   0  0  0  0  0  0  0  0  0  0  0  0
  -21.3600   -7.1940   23.3400 C   0  0  0  0  0  3  0  0  0  0  0  0
  -21.1100   -6.3620   24.4510 C   0  0  0  0  0  3  0  0  0  0  0  0
  -21.4610   -4.9990   24.4040 C   0  0  0  0  0  0  0  0  0  0  0  0
  -22.0680   -4.4670   23.2540 C   0  0  0  0  0  3  0  0  0  0  0  0
  -22.3210   -5.2950   22.1460 C   0  0  0  0  0  0  0  0  0  0  0  0
  -22.8860   -4.7720   21.0320 F   0  0  0  0  0  0  0  0  0  0  0  0
  -21.2130   -4.1990   25.4680 F   0  0  0  0  0  0  0  0  0  0  0  0
  -22.9690  -14.1090   21.1530 C   0  0  0  0  0  0  0  0  0  0  0  0
  -22.2020  -13.3480   21.9250 N   0  0  0  0  0  0  0  0  0  0  0  0
  -22.5270  -15.1320   20.6290 O   0  0  0  0  0  0  0  0  0  0  0  0
  -22.5660  -12.5190   22.3720 H   0  0  0  0  0  0  0  0  0  0  0  0
  -21.2340  -13.5980   22.0710 H   0  0  0  0  0  0  0  0  0  0  0  0
  -25.5800  -15.9320   20.6680 N   0  0  0  0  0  0  0  0  0  0  0  0
  -24.7730  -16.5410   20.7260 H   0  0  0  0  0  0  0  0  0  0  0  0
  -26.4290  -16.4160   20.4020 H   0  0  0  0  0  0  0  0  0  0  0  0
  -28.1470  -22.6030   19.4540 C   0  0  0  0  0  2  0  0  0  0  0  0
  -28.4840  -21.9650   20.6830 O   0  0  0  0  0  0  0  0  0  0  0  0
  -30.0150  -21.7830   22.5420 C   0  0  0  0  0  1  0  0  0  0  0  0
  -29.6490  -22.5370   21.2650 C   0  0  0  0  0  2  0  0  0  0  0  0
  1  3  1  0
  2  4  1  0
  3  6  1  0
  4 99  1  0
  4  6  1  0
  5  2  1  0
  5  1  1  0
  6  8  1  0
  6  7  1  1
  8  9  1  0
 10  9  1  0
 11 12  1  0
 11 10  1  0
 13 15  1  0
 13 12  1  0
 14 25  2  0
 15 20  1  0
 16 24  1  0
 16 26  1  0
 17 23  1  0
 17 19  1  0
 18 24  1  0
 19 18  1  0
 20 19  2  0
 21 22  1  0
 21 15  2  0
 22 17  2  0
 23 16  1  0
 24 14  1  0
 26 28  2  0
 27 26  1  0
 29 27  1  0
 30 35  1  0
 31 27  1  0
 32 31  1  0
 33 34  1  0
 33 32  1  0
 34 30  1  0
 35 31  1  0
 35 36  2  0
 37 36  1  0
 38 37  2  0
 39 30  2  0
 39 38  1  0
 40 14  1  0
 40 41  1  0
 40 50  1  0
 41 44  1  0
 42 46  1  0
 42 41  1  0
 43 42  2  0
 46 45  1  0
 46 48  1  0
 48 49  1  0
 48 47  1  0
 50 53  1  1
 50 51  1  0
 52 50  1  0
 54  5  1  0
 55 54  1  0
 55 56  1  0
 56 57  1  0
 57 58  1  0
 58 59  1  0
 59 60  1  0
 61 69  1  0
 62 67  1  0
 63 64  1  0
 63 62  1  0
 65 64  1  0
 65 74  1  0
 65 66  1  0
 67 61  1  0
 67 66  1  0
 68 61  2  0
 69 60  1  0
 69 70  1  0
 71 72  2  0
 72 91  1  0
 73 72  1  0
 73 76  1  0
 74 75  1  0
 74 71  1  0
 75 73  2  0
 76 77  1  0
 77 78  2  0
 79 78  1  0
 80 79  2  0
 81 80  1  0
 81 76  2  0
 82 79  1  0
 82 83  1  0
 83 84  1  0
 84 85  2  0
 86 85  1  0
 86 90  1  0
 87 86  2  0
 88 83  2  0
 88 87  1  0
 89 88  1  0
 91 92  1  0
 92 95  1  0
 92 94  1  0
 93 91  2  0
 96 97  1  0
 96 71  1  0
 98 96  1  0
 99100  1  0
100102  1  0
102101  1  0
M  ISO  4  12 101  13 101  61 100  69 100
M  END
>  <TORSDO>  (86) 
F 31

>  <SCORE>  (86) 
-6.588

>  <name>  (86) 
90

>  <ligand_id>  (86) 
90

>  <original_smiles>  (86) 
[H]c1c([H])c([H])c2c(c1[H])C([H])([H])C([H])([H])C([H])([H])C2([H])N([H])C(=O)C1([H])N(C(=O)C([H])(N([H])C(=O)C([H])(N([H])C([H])([H])[H])C([H])([H])[H])C(C([H])([H])[H])(C([H])([H])[H])C([H])([H])[H])C([H])([H])c2c([H])c(OC([H])([H])C([H])([H])OC([H])([H])C([H])([H])[N+]3([H])C([H])([H])C([H])([H])N(C([H])([H])C([H])([H])OC([H])([H])C([H])([H])C([H])([H])C([H])([H])N([H])C(=O)N4C([H])([H])C([H])([H])C([H])([H])C([H])(n5nc(-c6c([H])c([H])c(Oc7c([H])c([H])c(F)c([H])c7F)c([H])c6[H])c(C(=O)N([H])[H])c5N([H])[H])C4([H])[H])C([H])([H])C3([H])C([H])([H])OC([H])([H])C([H])([H])[H])c([H])c([H])c2C1([H])[H]

>  <smiles>  (86) 
[H]c1c([H])c([H])c2c(c1[H])C([H])([H])C([H])([H])C([H])([H])C2([H])N([H])C(=O)C1([H])N(C(=O)C([H])(N([H])C(=O)C([H])(N([H])C([H])([H])[H])C([H])([H])[H])C(C([H])([H])[H])(C([H])([H])[H])C([H])([H])[H])C([H])([H])c2c([H])c(OC([H])([H])C([H])([H])OC([H])([H])C([H])([H])[N+]3([H])C([H])([H])C([H])([H])N(C([H])([H])C([H])([H])OC([H])([H])C([H])([H])C([H])([H])C([H])([H])N([H])C(=O)N4C([H])([H])C([H])([H])C([H])([H])C([H])(n5nc(-c6c([H])c([H])c(Oc7c([H])c([H])c(F)c([H])c7F)c([H])c6[H])c(C(=O)N([H])[H])c5N([H])[H])C4([H])[H])C([H])([H])C3([H])C([H])([H])OC([H])([H])C([H])([H])[H])c([H])c([H])c2C1([H])[H]

$$$$
