0:0:0
     RDKit          3D

 99106  0  0  1  0  0  0  0  0999 V2000
  -25.4620  -22.1830   20.2890 N   0  0  0  0  0  4  0  0  0  0  0  0
  -25.7370  -21.2860   20.6530 H   0  0  0  0  0  0  0  0  0  0  0  0
  -24.4600  -22.2430   20.3500 H   0  0  0  0  0  0  0  0  0  0  0  0
  -26.0040  -23.2230   21.1840 C   0  0  0  0  0  2  0  0  0  0  0  0
  -27.5450  -23.2440   21.2220 C   0  0  0  0  0  2  0  0  0  0  0  0
  -27.9800  -24.3810   22.0170 N   0  0  0  0  0  0  0  0  0  0  0  0
  -27.7310  -24.2510   22.9940 H   0  0  0  0  0  0  0  0  0  0  0  0
  -29.4200  -24.5810   21.9390 C   0  0  0  0  0  2  0  0  0  0  0  0
  -29.7300  -26.0740   22.1370 C   0  0  0  0  0  2  0  0  0  0  0  0
  -29.3930  -26.7650   20.9430 O   0  0  0  0  0  0  0  0  0  0  0  0
  -24.8350  -31.7460   23.2520 C   0  0  0  0  0  0  0  0  0  0  0  0
  -28.1480  -27.3360   20.8890 C   0  0  0  0  0  0  0  0  0  0  0  0
  -23.9330  -30.1200   21.6200 C   0  0  0  0  0  3  0  0  0  0  0  0
  -25.6520  -28.5900   20.5230 C   0  0  0  0  0  0  0  0  0  0  0  0
  -26.4270  -30.6750   21.6680 C   0  0  0  0  0  2  0  0  0  0  0  0
  -26.6850  -29.2650   21.1860 C   0  0  0  0  0  0  0  0  0  0  0  0
  -27.9370  -28.6410   21.3720 C   0  0  0  0  0  3  0  0  0  0  0  0
  -27.1010  -26.6580   20.2330 C   0  0  0  0  0  3  0  0  0  0  0  0
  -25.8500  -27.2780   20.0550 C   0  0  0  0  0  3  0  0  0  0  0  0
  -24.3530  -29.3420   20.3430 C   0  0  0  0  0  2  0  0  0  0  0  0
  -25.0750  -30.8670   22.2400 N   0  0  0  0  0  0  0  0  0  0  0  0
  -23.6820  -31.9730   23.6450 O   0  0  0  0  0  0  0  0  0  0  0  0
  -23.2500  -29.1330   22.5910 C   0  0  0  0  0  0  0  0  0  0  0  0
  -21.9710  -28.8260   22.3260 N   0  0  0  0  0  0  0  0  0  0  0  0
  -23.8710  -28.6420   23.5370 O   0  0  0  0  0  0  0  0  0  0  0  0
  -21.5290  -29.2770   21.5380 H   0  0  0  0  0  0  0  0  0  0  0  0
  -18.6190  -27.5170   22.6390 C   0  0  0  0  0  0  0  0  0  0  0  0
  -21.1390  -27.8900   23.0800 C   0  0  0  0  0  3  0  0  0  0  0  0
  -21.3360  -26.4420   22.5790 C   0  0  0  0  0  2  0  0  0  0  0  0
  -20.3230  -26.0310   21.5040 C   0  0  0  0  0  2  0  0  0  0  0  0
  -18.8950  -26.1470   22.0420 C   0  0  0  0  0  2  0  0  0  0  0  0
  -19.6740  -28.3420   23.1120 C   0  0  0  0  0  0  0  0  0  0  0  0
  -19.3650  -29.6200   23.6240 C   0  0  0  0  0  3  0  0  0  0  0  0
  -18.0350  -30.0770   23.6730 C   0  0  0  0  0  3  0  0  0  0  0  0
  -16.9920  -29.2500   23.2190 C   0  0  0  0  0  3  0  0  0  0  0  0
  -17.2860  -27.9740   22.7060 C   0  0  0  0  0  3  0  0  0  0  0  0
  -25.9920  -32.5280   23.9510 C   0  0  0  0  0  3  0  0  0  0  0  0
  -25.5320  -33.9060   24.1640 N   0  0  0  0  0  0  0  0  0  0  0  0
  -25.8190  -34.9370   23.3580 C   0  0  0  0  0  0  0  0  0  0  0  0
  -26.5740  -34.8360   22.3880 O   0  0  0  0  0  0  0  0  0  0  0  0
  -24.8680  -34.0500   24.9110 H   0  0  0  0  0  0  0  0  0  0  0  0
  -23.9390  -36.5040   22.7850 C   0  0  0  0  0  1  0  0  0  0  0  0
  -25.1700  -36.2940   23.6830 C   0  0  0  0  0  3  0  0  0  0  0  0
  -27.1520  -37.4630   24.5420 C   0  0  0  0  0  1  0  0  0  0  0  0
  -26.0930  -37.4410   23.5350 N   0  0  0  0  0  0  0  0  0  0  0  0
  -25.5870  -38.3200   23.5890 H   0  0  0  0  0  0  0  0  0  0  0  0
  -26.4480  -31.8760   25.3140 C   0  0  1  0  0  0  0  0  0  0  0  0
  -25.2750  -31.4810   26.2400 C   0  0  0  0  0  1  0  0  0  0  0  0
  -27.2940  -30.6070   25.0520 C   0  0  0  0  0  1  0  0  0  0  0  0
  -27.3540  -32.8600   26.0900 C   0  0  0  0  0  1  0  0  0  0  0  0
  -25.8660  -22.3030   18.8700 C   0  0  0  0  0  2  0  0  0  0  0  0
  -26.0570  -20.9310   18.1870 C   0  0  0  0  0  2  0  0  0  0  0  0
  -27.2230  -20.9190   17.1640 C   0  0  0  0  0  2  0  0  0  0  0  0
  -28.5060  -20.4410   17.7350 N   0  0  0  0  0  4  0  0  0  0  0  0
  -29.2510  -20.9500   17.2840 H   0  0  0  0  0  0  0  0  0  0  0  0
  -28.5630  -20.6630   18.7120 H   0  0  0  0  0  0  0  0  0  0  0  0
  -28.7660  -19.0030   17.5020 C   0  0  0  0  0  2  0  0  0  0  0  0
  -29.9580  -18.4440   18.3070 C   0  0  0  0  0  2  0  0  0  0  0  0
  -29.5780  -17.8550   19.6860 C   0  0  0  0  0  2  0  0  0  0  0  0
  -30.6810  -16.9820   20.3310 C   0  0  0  0  0  2  0  0  0  0  0  0
  -30.1090  -15.8580   21.2450 C   0  0  0  0  0  2  0  0  0  0  0  0
  -31.6340  -13.8800   21.0740 C   0  0  0  0  0  0  0  0  0  0  0  0
  -31.1980  -11.8190   19.7920 C   0  0  0  0  0  2  0  0  0  0  0  0
  -30.3720  -12.1370   18.5290 C   0  0  0  0  0  2  0  0  0  0  0  0
  -28.8610  -12.1360   18.8370 C   0  0  0  0  0  2  0  0  0  0  0  0
  -28.5150  -12.9980   20.0790 C   0  0  0  0  0  3  0  0  0  0  0  0
  -29.4460  -12.6230   21.2530 C   0  0  0  0  0  2  0  0  0  0  0  0
  -30.8370  -12.8110   20.8130 N   0  0  0  0  0  0  0  0  0  0  0  0
  -32.8090  -13.9590   20.7100 O   0  0  0  0  0  0  0  0  0  0  0  0
  -31.0880  -14.8900   21.7670 N   0  0  0  0  0  0  0  0  0  0  0  0
  -31.7610  -15.3420   22.3690 H   0  0  0  0  0  0  0  0  0  0  0  0
  -26.1610  -13.8900   20.6080 C   0  0  0  0  0  0  0  0  0  0  0  0
  -24.9900  -13.2460   20.8950 C   0  0  0  0  0  0  0  0  0  0  0  0
  -25.2980  -11.8520   20.8780 C   0  0  0  0  0  0  0  0  0  0  0  0
  -27.1130  -12.8920   20.4470 N   0  0  0  0  0  0  0  0  0  0  0  0
  -26.5910  -11.6610   20.6630 N   0  0  0  0  0  0  0  0  0  0  0  0
  -24.4270  -10.6800   20.9930 C   0  0  0  0  0  0  0  0  0  0  0  0
  -24.7430   -9.6130   21.8620 C   0  0  0  0  0  3  0  0  0  0  0  0
  -23.8820   -8.4980   21.9660 C   0  0  0  0  0  3  0  0  0  0  0  0
  -22.6890   -8.4560   21.2080 C   0  0  0  0  0  0  0  0  0  0  0  0
  -22.3930   -9.5080   20.3230 C   0  0  0  0  0  3  0  0  0  0  0  0
  -23.2610  -10.6060   20.2070 C   0  0  0  0  0  3  0  0  0  0  0  0
  -21.8020   -7.4070   21.2300 O   0  0  0  0  0  0  0  0  0  0  0  0
  -21.5460   -6.7050   22.3790 C   0  0  0  0  0  0  0  0  0  0  0  0
  -21.1290   -7.3430   23.5670 C   0  0  0  0  0  3  0  0  0  0  0  0
  -20.8150   -6.5760   24.7060 C   0  0  0  0  0  3  0  0  0  0  0  0
  -20.9030   -5.1700   24.6550 C   0  0  0  0  0  0  0  0  0  0  0  0
  -21.3130   -4.5330   23.4710 C   0  0  0  0  0  3  0  0  0  0  0  0
  -21.6290   -5.2980   22.3360 C   0  0  0  0  0  0  0  0  0  0  0  0
  -22.0000   -4.6770   21.1900 F   0  0  0  0  0  0  0  0  0  0  0  0
  -20.5950   -4.4300   25.7460 F   0  0  0  0  0  0  0  0  0  0  0  0
  -23.6380  -13.8740   21.0600 C   0  0  0  0  0  0  0  0  0  0  0  0
  -22.7870  -13.2550   21.8730 N   0  0  0  0  0  0  0  0  0  0  0  0
  -23.3440  -14.9260   20.4980 O   0  0  0  0  0  0  0  0  0  0  0  0
  -23.0680  -12.4190   22.3610 H   0  0  0  0  0  0  0  0  0  0  0  0
  -21.8450  -13.6010   21.9980 H   0  0  0  0  0  0  0  0  0  0  0  0
  -26.4830  -15.2330   20.4550 N   0  0  0  0  0  0  0  0  0  0  0  0
  -25.7940  -15.9580   20.6200 H   0  0  0  0  0  0  0  0  0  0  0  0
  -27.3990  -15.5770   20.2030 H   0  0  0  0  0  0  0  0  0  0  0  0
  1  3  1  0
  1  2  1  0
  1  4  1  0
  4  5  1  0
  5  6  1  0
  6  7  1  0
  8  6  1  0
  8  9  1  0
 10  9  1  0
 11 22  2  0
 12 10  1  0
 12 17  1  0
 13 21  1  0
 13 23  1  0
 14 16  1  0
 15 21  1  0
 16 17  2  0
 16 15  1  0
 18 12  2  0
 19 18  1  0
 19 14  2  0
 20 14  1  0
 20 13  1  0
 21 11  1  0
 23 25  2  0
 24 23  1  0
 26 24  1  0
 27 36  2  0
 27 32  1  0
 28 24  1  0
 28 32  1  0
 29 28  1  0
 30 31  1  0
 30 29  1  0
 31 27  1  0
 32 33  2  0
 33 34  1  0
 35 34  2  0
 36 35  1  0
 37 11  1  0
 37 38  1  0
 37 47  1  0
 38 41  1  0
 39 43  1  0
 39 38  1  0
 40 39  2  0
 43 42  1  0
 45 46  1  0
 45 43  1  0
 45 44  1  0
 47 50  1  1
 47 48  1  0
 49 47  1  0
 51  1  1  0
 52 51  1  0
 53 54  1  0
 53 52  1  0
 54 56  1  0
 55 54  1  0
 57 54  1  0
 57 58  1  0
 58 59  1  0
 59 60  1  0
 60 61  1  0
 61 70  1  0
 62 70  1  0
 63 68  1  0
 64 65  1  0
 64 63  1  0
 66 65  1  0
 66 75  1  0
 66 67  1  0
 68 62  1  0
 68 67  1  0
 69 62  2  0
 70 71  1  0
 72 73  2  0
 73 92  1  0
 74 73  1  0
 74 77  1  0
 75 72  1  0
 75 76  1  0
 76 74  2  0
 77 78  1  0
 78 79  2  0
 80 83  1  0
 80 79  1  0
 81 80  2  0
 82 81  1  0
 82 77  2  0
 83 84  1  0
 84 85  1  0
 85 86  2  0
 87 86  1  0
 87 91  1  0
 88 87  2  0
 89 84  2  0
 89 88  1  0
 90 89  1  0
 92 93  1  0
 93 96  1  0
 93 95  1  0
 94 92  2  0
 97 72  1  0
 97 98  1  0
 99 97  1  0
M  ISO  4   9 101  10 101  62 100  70 100
M  END
>  <TORSDO>  (1) 
F 30

>  <SCORE>  (1) 
-9.566

>  <name>  (1) 
0

>  <ligand_id>  (1) 
0

>  <original_smiles>  (1) 
[H]c1c([H])c([H])c2c(c1[H])C([H])([H])C([H])([H])C([H])([H])C2([H])N([H])C(=O)C1([H])N(C(=O)C([H])(N([H])C(=O)C([H])(N([H])C([H])([H])[H])C([H])([H])[H])C(C([H])([H])[H])(C([H])([H])[H])C([H])([H])[H])C([H])([H])c2c([H])c(OC([H])([H])C([H])([H])N([H])C([H])([H])C([H])([H])[N+]([H])([H])C([H])([H])C([H])([H])C([H])([H])[N+]([H])([H])C([H])([H])C([H])([H])C([H])([H])C([H])([H])C([H])([H])N([H])C(=O)N3C([H])([H])C([H])([H])C([H])([H])C([H])(n4nc(-c5c([H])c([H])c(Oc6c([H])c([H])c(F)c([H])c6F)c([H])c5[H])c(C(=O)N([H])[H])c4N([H])[H])C3([H])[H])c([H])c([H])c2C1([H])[H]

>  <smiles>  (1) 
[H]c1c([H])c([H])c2c(c1[H])C([H])([H])C([H])([H])C([H])([H])C2([H])N([H])C(=O)C1([H])N(C(=O)C([H])(N([H])C(=O)C([H])(N([H])C([H])([H])[H])C([H])([H])[H])C(C([H])([H])[H])(C([H])([H])[H])C([H])([H])[H])C([H])([H])c2c([H])c(OC([H])([H])C([H])([H])N([H])C([H])([H])C([H])([H])[N+]([H])([H])C([H])([H])C([H])([H])C([H])([H])[N+]([H])([H])C([H])([H])C([H])([H])C([H])([H])C([H])([H])C([H])([H])N([H])C(=O)N3C([H])([H])C([H])([H])C([H])([H])C([H])(n4nc(-c5c([H])c([H])c(Oc6c([H])c([H])c(F)c([H])c6F)c([H])c5[H])c(C(=O)N([H])[H])c4N([H])[H])C3([H])[H])c([H])c([H])c2C1([H])[H]

$$$$
1:0:0
     RDKit          3D

105113  0  0  1  0  0  0  0  0999 V2000
  -30.1580  -23.0590   22.5090 C   0  0  0  0  0  3  0  0  0  0  0  0
  -31.0750  -22.0710   22.9010 C   0  0  0  0  0  3  0  0  0  0  0  0
  -29.7450  -21.8550   20.4470 C   0  0  0  0  0  3  0  0  0  0  0  0
  -29.5020  -22.9780   21.2680 C   0  0  0  0  0  0  0  0  0  0  0  0
  -31.3440  -20.9560   22.0760 C   0  0  0  0  0  0  0  0  0  0  0  0
  -30.6520  -20.8360   20.8310 C   0  0  0  0  0  0  0  0  0  0  0  0
  -30.8260  -19.6830   19.9210 N   0  0  0  0  0  0  0  0  0  0  0  0
  -30.7270  -19.8810   18.7110 O   0  0  0  0  0  0  0  0  0  0  0  0
  -31.0410  -18.5680   20.3990 O   0  0  0  0  0  0  0  0  0  0  0  0
  -32.3100  -20.0260   22.5120 N   0  0  0  0  0  0  0  0  0  0  0  0
  -32.5750  -19.3640   21.7830 H   0  0  0  0  0  0  0  0  0  0  0  0
  -32.0000  -19.3280   23.7520 C   0  0  0  0  0  2  0  0  0  0  0  0
  -32.8510  -19.7950   24.9490 C   0  0  0  0  0  2  0  0  0  0  0  0
  -32.5040  -19.0460   26.2530 C   0  0  0  0  0  2  0  0  0  0  0  0
  -31.1260  -19.3340   26.7110 N   0  0  0  0  0  4  0  0  0  0  0  0
  -31.2080  -19.8900   27.5480 H   0  0  0  0  0  0  0  0  0  0  0  0
  -30.6500  -19.9070   26.0340 H   0  0  0  0  0  0  0  0  0  0  0  0
  -30.2850  -18.1620   27.0410 C   0  0  0  0  0  2  0  0  0  0  0  0
  -29.5220  -17.5970   25.8200 C   0  0  0  0  0  2  0  0  0  0  0  0
  -30.2460  -16.4670   25.0680 C   0  0  0  0  0  2  0  0  0  0  0  0
  -29.7720  -16.3170   23.6130 C   0  0  0  0  0  2  0  0  0  0  0  0
  -30.5030  -15.1880   22.8750 C   0  0  0  0  0  2  0  0  0  0  0  0
  -30.7700  -14.3610   20.6260 C   0  0  0  0  0  0  0  0  0  0  0  0
  -30.4080  -12.2570   19.3950 C   0  0  0  0  0  2  0  0  0  0  0  0
  -29.4800  -12.5140   18.1960 C   0  0  0  0  0  2  0  0  0  0  0  0
  -28.0020  -12.3820   18.6060 C   0  0  0  0  0  2  0  0  0  0  0  0
  -27.6670  -13.2010   19.8810 C   0  0  0  0  0  3  0  0  0  0  0  0
  -28.7100  -12.9420   20.9920 C   0  0  0  0  0  2  0  0  0  0  0  0
  -30.0540  -13.2200   20.4500 N   0  0  0  0  0  0  0  0  0  0  0  0
  -31.8010  -14.6270   20.0070 O   0  0  0  0  0  0  0  0  0  0  0  0
  -30.2460  -15.2710   21.4440 N   0  0  0  0  0  0  0  0  0  0  0  0
  -30.4560  -16.2010   21.1010 H   0  0  0  0  0  0  0  0  0  0  0  0
  -25.2590  -13.8160   20.5660 C   0  0  0  0  0  0  0  0  0  0  0  0
  -24.1830  -13.0440   20.9160 C   0  0  0  0  0  0  0  0  0  0  0  0
  -24.6390  -11.6920   20.8730 C   0  0  0  0  0  0  0  0  0  0  0  0
  -26.3050  -12.9330   20.3420 N   0  0  0  0  0  0  0  0  0  0  0  0
  -25.9320  -11.6490   20.5810 N   0  0  0  0  0  0  0  0  0  0  0  0
  -23.9070  -10.4290   21.0410 C   0  0  0  0  0  0  0  0  0  0  0  0
  -24.3630   -9.4210   21.9190 C   0  0  0  0  0  3  0  0  0  0  0  0
  -23.6310   -8.2240   22.0740 C   0  0  0  0  0  3  0  0  0  0  0  0
  -22.4290   -8.0270   21.3530 C   0  0  0  0  0  0  0  0  0  0  0  0
  -21.9930   -9.0250   20.4630 C   0  0  0  0  0  3  0  0  0  0  0  0
  -22.7240  -10.2140   20.3050 C   0  0  0  0  0  3  0  0  0  0  0  0
  -21.6650   -6.8880   21.4260 O   0  0  0  0  0  0  0  0  0  0  0  0
  -21.6870   -6.0730   22.5300 C   0  0  0  0  0  0  0  0  0  0  0  0
  -21.4010   -6.5630   23.8230 C   0  0  0  0  0  3  0  0  0  0  0  0
  -21.3670   -5.6780   24.9190 C   0  0  0  0  0  3  0  0  0  0  0  0
  -21.6060   -4.3050   24.7250 C   0  0  0  0  0  0  0  0  0  0  0  0
  -21.8820   -3.8130   23.4370 C   0  0  0  0  0  3  0  0  0  0  0  0
  -21.9190   -4.6950   22.3420 C   0  0  0  0  0  0  0  0  0  0  0  0
  -22.1640   -4.2130   21.1000 F   0  0  0  0  0  0  0  0  0  0  0  0
  -21.5660   -3.4530   25.7760 F   0  0  0  0  0  0  0  0  0  0  0  0
  -22.7840  -13.5220   21.1820 C   0  0  0  0  0  0  0  0  0  0  0  0
  -22.0500  -12.8240   22.0410 N   0  0  0  0  0  0  0  0  0  0  0  0
  -22.3530  -14.5530   20.6650 O   0  0  0  0  0  0  0  0  0  0  0  0
  -22.4120  -11.9950   22.4870 H   0  0  0  0  0  0  0  0  0  0  0  0
  -21.1090  -13.1240   22.2560 H   0  0  0  0  0  0  0  0  0  0  0  0
  -25.4290  -15.1870   20.4090 N   0  0  0  0  0  0  0  0  0  0  0  0
  -24.6710  -15.8480   20.5340 H   0  0  0  0  0  0  0  0  0  0  0  0
  -26.3000  -15.6350   20.1480 H   0  0  0  0  0  0  0  0  0  0  0  0
  -28.6220  -24.0210   20.9370 N   0  0  0  0  0  0  0  0  0  0  0  0
  -28.5730  -24.8090   21.5770 H   0  0  0  0  0  0  0  0  0  0  0  0
  -28.2190  -24.3300   19.5670 C   0  0  0  0  0  2  0  0  0  0  0  0
  -28.6950  -25.7330   19.1280 C   0  0  0  0  0  2  0  0  0  0  0  0
  -28.4360  -26.7640   20.0870 O   0  0  0  0  0  0  0  0  0  0  0  0
  -24.6130  -31.8690   23.2100 C   0  0  0  0  0  0  0  0  0  0  0  0
  -27.2410  -27.4510   20.0700 C   0  0  0  0  0  0  0  0  0  0  0  0
  -23.4000  -30.4930   21.5510 C   0  0  0  0  0  3  0  0  0  0  0  0
  -24.8440  -28.9570   20.1130 C   0  0  0  0  0  0  0  0  0  0  0  0
  -25.9270  -30.8320   21.3650 C   0  0  0  0  0  2  0  0  0  0  0  0
  -26.0000  -29.4660   20.7160 C   0  0  0  0  0  0  0  0  0  0  0  0
  -27.1920  -28.7120   20.7080 C   0  0  0  0  0  3  0  0  0  0  0  0
  -26.0660  -26.9560   19.4570 C   0  0  0  0  0  3  0  0  0  0  0  0
  -24.8710  -27.6990   19.4850 C   0  0  0  0  0  3  0  0  0  0  0  0
  -23.6070  -29.8230   20.1650 C   0  0  0  0  0  2  0  0  0  0  0  0
  -24.6650  -31.0790   22.1010 N   0  0  0  0  0  0  0  0  0  0  0  0
  -23.5330  -32.1450   23.7500 O   0  0  0  0  0  0  0  0  0  0  0  0
  -22.7410  -29.4670   22.5000 C   0  0  0  0  0  0  0  0  0  0  0  0
  -21.4140  -29.3040   22.3730 N   0  0  0  0  0  0  0  0  0  0  0  0
  -23.4180  -28.8220   23.3050 O   0  0  0  0  0  0  0  0  0  0  0  0
  -20.9310  -29.8770   21.6950 H   0  0  0  0  0  0  0  0  0  0  0  0
  -18.0270  -28.1380   22.8490 C   0  0  0  0  0  0  0  0  0  0  0  0
  -20.5860  -28.3670   23.1310 C   0  0  0  0  0  3  0  0  0  0  0  0
  -20.6760  -26.9410   22.5410 C   0  0  0  0  0  2  0  0  0  0  0  0
  -19.5750  -26.6390   21.5200 C   0  0  0  0  0  2  0  0  0  0  0  0
  -18.1920  -26.7930   22.1610 C   0  0  0  0  0  2  0  0  0  0  0  0
  -19.1520  -28.8840   23.2900 C   0  0  0  0  0  0  0  0  0  0  0  0
  -18.9450  -30.1450   23.8910 C   0  0  0  0  0  3  0  0  0  0  0  0
  -17.6440  -30.6580   24.0570 C   0  0  0  0  0  3  0  0  0  0  0  0
  -16.5340  -29.9090   23.6320 C   0  0  0  0  0  3  0  0  0  0  0  0
  -16.7260  -28.6510   23.0340 C   0  0  0  0  0  3  0  0  0  0  0  0
  -25.9030  -32.4830   23.8400 C   0  0  0  0  0  3  0  0  0  0  0  0
  -25.5890  -33.8630   24.2340 N   0  0  0  0  0  0  0  0  0  0  0  0
  -25.9030  -34.9480   23.5130 C   0  0  0  0  0  0  0  0  0  0  0  0
  -26.5590  -34.8930   22.4700 O   0  0  0  0  0  0  0  0  0  0  0  0
  -25.0060  -33.9800   25.0500 H   0  0  0  0  0  0  0  0  0  0  0  0
  -24.1490  -36.7320   23.2640 C   0  0  0  0  0  1  0  0  0  0  0  0
  -25.4110  -36.3120   24.0340 C   0  0  0  0  0  3  0  0  0  0  0  0
  -27.5580  -37.1820   24.8470 C   0  0  0  0  0  1  0  0  0  0  0  0
  -26.4300  -37.3800   23.9400 N   0  0  0  0  0  0  0  0  0  0  0  0
  -26.0200  -38.2890   24.1370 H   0  0  0  0  0  0  0  0  0  0  0  0
  -26.4460  -31.6600   25.0720 C   0  0  1  0  0  0  0  0  0  0  0  0
  -25.3730  -31.3700   26.1470 C   0  0  0  0  0  1  0  0  0  0  0  0
  -27.0280  -30.3060   24.6080 C   0  0  0  0  0  1  0  0  0  0  0  0
  -27.6050  -32.4310   25.7480 C   0  0  0  0  0  1  0  0  0  0  0  0
  1  2  1  0
  3  6  2  0
  3  4  1  0
  4  1  2  0
  5 10  1  0
  5  2  2  0
  6  5  1  0
  7  9  2  0
  7  6  1  0
  8  7  2  0
 10 12  1  0
 11 10  1  0
 12 13  1  0
 13 14  1  0
 14 15  1  0
 15 18  1  0
 15 16  1  0
 17 15  1  0
 19 18  1  0
 20 19  1  0
 21 20  1  0
 22 21  1  0
 23 31  1  0
 24 29  1  0
 25 26  1  0
 25 24  1  0
 27 26  1  0
 27 36  1  0
 27 28  1  0
 29 23  1  0
 29 28  1  0
 30 23  2  0
 31 22  1  0
 32 31  1  0
 33 34  2  0
 34 53  1  0
 35 34  1  0
 35 38  1  0
 36 33  1  0
 36 37  1  0
 37 35  2  0
 38 39  1  0
 39 40  2  0
 41 44  1  0
 41 40  1  0
 42 41  2  0
 43 42  1  0
 43 38  2  0
 44 45  1  0
 45 46  1  0
 46 47  2  0
 48 47  1  0
 48 52  1  0
 49 48  2  0
 50 45  2  0
 50 49  1  0
 51 50  1  0
 53 54  1  0
 54 57  1  0
 54 56  1  0
 55 53  2  0
 58 59  1  0
 58 33  1  0
 60 58  1  0
 61  4  1  0
 61 62  1  0
 63 61  1  0
 64 63  1  0
 64 65  1  0
 66 77  2  0
 67 65  1  0
 67 72  1  0
 68 76  1  0
 68 78  1  0
 69 75  1  0
 69 71  1  0
 70 76  1  0
 71 70  1  0
 72 71  2  0
 73 74  1  0
 73 67  2  0
 74 69  2  0
 75 68  1  0
 76 66  1  0
 78 80  2  0
 79 78  1  0
 81 79  1  0
 82 91  2  0
 82 87  1  0
 83 79  1  0
 83 87  1  0
 84 83  1  0
 85 86  1  0
 85 84  1  0
 86 82  1  0
 87 88  2  0
 88 89  1  0
 90 89  2  0
 91 90  1  0
 92 66  1  0
 92 93  1  0
 92102  1  0
 93 96  1  0
 94 98  1  0
 94 93  1  0
 95 94  2  0
 98 97  1  0
100 98  1  0
100101  1  0
100 99  1  0
102105  1  1
102103  1  0
104102  1  0
M  ISO  4  23 100  31 100  64 101  65 101
M  END
>  <TORSDO>  (2) 
F 30

>  <SCORE>  (2) 
22.510

>  <name>  (2) 
1

>  <ligand_id>  (2) 
1

>  <original_smiles>  (2) 
[H]c1c([H])c([H])c2c(c1[H])C([H])([H])C([H])([H])C([H])([H])C2([H])N([H])C(=O)C1([H])N(C(=O)C([H])(N([H])C(=O)C([H])(N([H])C([H])([H])[H])C([H])([H])[H])C(C([H])([H])[H])(C([H])([H])[H])C([H])([H])[H])C([H])([H])c2c([H])c(OC([H])([H])C([H])([H])N([H])c3c([H])c([H])c(N([H])C([H])([H])C([H])([H])C([H])([H])[N+]([H])([H])C([H])([H])C([H])([H])C([H])([H])C([H])([H])C([H])([H])N([H])C(=O)N4C([H])([H])C([H])([H])C([H])([H])C([H])(n5nc(-c6c([H])c([H])c(Oc7c([H])c([H])c(F)c([H])c7F)c([H])c6[H])c(C(=O)N([H])[H])c5N([H])[H])C4([H])[H])c([N+](=O)[O-])c3[H])c([H])c([H])c2C1([H])[H]

>  <smiles>  (2) 
[H]c1c([H])c([H])c2c(c1[H])C([H])([H])C([H])([H])C([H])([H])C2([H])N([H])C(=O)C1([H])N(C(=O)C([H])(N([H])C(=O)C([H])(N([H])C([H])([H])[H])C([H])([H])[H])C(C([H])([H])[H])(C([H])([H])[H])C([H])([H])[H])C([H])([H])c2c([H])c(OC([H])([H])C([H])([H])N([H])c3c([H])c([H])c(N([H])C([H])([H])C([H])([H])C([H])([H])[N+]([H])([H])C([H])([H])C([H])([H])C([H])([H])C([H])([H])C([H])([H])N([H])C(=O)N4C([H])([H])C([H])([H])C([H])([H])C([H])(n5nc(-c6c([H])c([H])c(Oc7c([H])c([H])c(F)c([H])c7F)c([H])c6[H])c(C(=O)N([H])[H])c5N([H])[H])C4([H])[H])c([N+](=O)[O-])c3[H])c([H])c([H])c2C1([H])[H]

$$$$
2:0:0
     RDKit          3D

 95102  0  0  1  0  0  0  0  0999 V2000
  -26.8520  -22.6180   23.4520 C   0  0  0  0  0  2  0  0  0  0  0  0
  -26.5550  -23.4670   22.2810 N   0  0  0  0  0  4  0  0  0  0  0  0
  -25.7700  -24.0410   22.5420 H   0  0  0  0  0  0  0  0  0  0  0  0
  -26.2510  -22.8850   21.5150 H   0  0  0  0  0  0  0  0  0  0  0  0
  -27.6340  -24.3800   21.8310 C   0  0  0  0  0  2  0  0  0  0  0  0
  -27.1160  -25.2960   20.7090 C   0  0  0  0  0  2  0  0  0  0  0  0
  -28.1810  -26.1700   20.0000 C   0  0  0  0  0  2  0  0  0  0  0  0
  -27.6290  -27.0300   18.9900 O   0  0  0  0  0  0  0  0  0  0  0  0
  -25.5710  -31.1690   24.3950 C   0  0  0  0  0  0  0  0  0  0  0  0
  -26.7240  -27.9450   19.4670 C   0  0  0  0  0  0  0  0  0  0  0  0
  -23.8960  -30.7860   22.6150 C   0  0  0  0  0  3  0  0  0  0  0  0
  -24.7820  -29.7160   20.4750 C   0  0  0  0  0  0  0  0  0  0  0  0
  -26.3980  -30.7270   22.0910 C   0  0  0  0  0  2  0  0  0  0  0  0
  -26.0830  -29.7350   20.9920 C   0  0  0  0  0  0  0  0  0  0  0  0
  -27.0600  -28.8430   20.4990 C   0  0  0  0  0  3  0  0  0  0  0  0
  -25.4220  -27.9610   18.9240 C   0  0  0  0  0  3  0  0  0  0  0  0
  -24.4430  -28.8270   19.4420 C   0  0  0  0  0  3  0  0  0  0  0  0
  -23.7920  -30.6920   21.0700 C   0  0  0  0  0  2  0  0  0  0  0  0
  -25.3140  -30.8810   23.0890 N   0  0  0  0  0  0  0  0  0  0  0  0
  -24.6510  -31.3960   25.1920 O   0  0  0  0  0  0  0  0  0  0  0  0
  -23.1230  -29.6010   23.2350 C   0  0  0  0  0  0  0  0  0  0  0  0
  -21.7970  -29.5750   23.0210 N   0  0  0  0  0  0  0  0  0  0  0  0
  -23.7120  -28.7190   23.8670 O   0  0  0  0  0  0  0  0  0  0  0  0
  -21.3890  -30.3240   22.4800 H   0  0  0  0  0  0  0  0  0  0  0  0
  -18.3900  -28.4030   22.7730 C   0  0  0  0  0  0  0  0  0  0  0  0
  -20.8700  -28.5480   23.4900 C   0  0  0  0  0  3  0  0  0  0  0  0
  -21.0640  -27.2290   22.7130 C   0  0  0  0  0  2  0  0  0  0  0  0
  -20.1460  -27.1090   21.4930 C   0  0  0  0  0  2  0  0  0  0  0  0
  -18.6770  -27.1770   21.9220 C   0  0  0  0  0  2  0  0  0  0  0  0
  -19.4240  -29.0580   23.4940 C   0  0  0  0  0  0  0  0  0  0  0  0
  -19.1120  -30.2140   24.2420 C   0  0  0  0  0  3  0  0  0  0  0  0
  -17.7960  -30.7120   24.2860 C   0  0  0  0  0  3  0  0  0  0  0  0
  -16.7740  -30.0510   23.5840 C   0  0  0  0  0  3  0  0  0  0  0  0
  -17.0700  -28.8980   22.8330 C   0  0  0  0  0  3  0  0  0  0  0  0
  -27.0300  -31.2540   24.9440 C   0  0  0  0  0  3  0  0  0  0  0  0
  -27.1040  -32.4230   25.8300 N   0  0  0  0  0  0  0  0  0  0  0  0
  -27.7120  -33.5740   25.5170 C   0  0  0  0  0  0  0  0  0  0  0  0
  -28.3420  -33.7370   24.4680 O   0  0  0  0  0  0  0  0  0  0  0  0
  -26.5650  -32.3810   26.6820 H   0  0  0  0  0  0  0  0  0  0  0  0
  -26.5820  -35.7600   26.0300 C   0  0  0  0  0  1  0  0  0  0  0  0
  -27.6080  -34.7310   26.5290 C   0  0  0  0  0  3  0  0  0  0  0  0
  -29.8510  -34.5620   27.5120 C   0  0  0  0  0  1  0  0  0  0  0  0
  -28.9000  -35.4030   26.7910 N   0  0  0  0  0  0  0  0  0  0  0  0
  -28.7610  -36.2560   27.3280 H   0  0  0  0  0  0  0  0  0  0  0  0
  -27.4860  -29.9470   25.7000 C   0  0  1  0  0  0  0  0  0  0  0  0
  -26.4930  -29.4820   26.7910 C   0  0  0  0  0  1  0  0  0  0  0  0
  -27.6760  -28.7760   24.7080 C   0  0  0  0  0  1  0  0  0  0  0  0
  -28.8580  -30.1820   26.3740 C   0  0  0  0  0  1  0  0  0  0  0  0
  -28.3100  -22.1280   23.4920 C   0  0  0  0  0  2  0  0  0  0  0  0
  -28.6780  -21.5140   24.8590 C   0  0  0  0  0  2  0  0  0  0  0  0
  -30.1420  -21.7520   25.2680 C   0  0  0  0  0  2  0  0  0  0  0  0
  -31.0940  -21.3230   24.2220 N   0  0  0  0  0  4  0  0  0  0  0  0
  -30.8270  -21.7730   23.3610 H   0  0  0  0  0  0  0  0  0  0  0  0
  -31.0240  -20.3280   24.0840 H   0  0  0  0  0  0  0  0  0  0  0  0
  -32.4980  -21.6900   24.5020 C   0  0  0  0  0  2  0  0  0  0  0  0
  -33.4060  -21.3840   23.3000 C   0  0  0  0  0  2  0  0  0  0  0  0
  -34.8960  -21.3250   23.6760 C   0  0  0  0  0  2  0  0  0  0  0  0
  -36.4910  -20.0480   22.2810 C   0  0  0  0  0  0  0  0  0  0  0  0
  -36.6280  -17.9830   20.9580 C   0  0  0  0  0  2  0  0  0  0  0  0
  -36.2620  -18.3020   19.4940 C   0  0  0  0  0  2  0  0  0  0  0  0
  -34.7400  -18.1940   19.2800 C   0  0  0  0  0  2  0  0  0  0  0  0
  -33.9330  -18.9780   20.3500 C   0  0  0  0  0  3  0  0  0  0  0  0
  -34.4410  -18.6530   21.7700 C   0  0  0  0  0  2  0  0  0  0  0  0
  -35.8900  -18.9220   21.8150 N   0  0  0  0  0  0  0  0  0  0  0  0
  -37.7080  -20.2340   22.2470 O   0  0  0  0  0  0  0  0  0  0  0  0
  -35.6960  -21.1030   22.4790 N   0  0  0  0  0  0  0  0  0  0  0  0
  -36.1880  -21.9460   22.2200 H   0  0  0  0  0  0  0  0  0  0  0  0
  -31.4550  -19.6460   20.1180 C   0  0  0  0  0  0  0  0  0  0  0  0
  -30.3190  -18.8980   19.9630 C   0  0  0  0  0  0  0  0  0  0  0  0
  -30.7380  -17.5330   19.9820 C   0  0  0  0  0  0  0  0  0  0  0  0
  -32.4970  -18.7350   20.2270 N   0  0  0  0  0  0  0  0  0  0  0  0
  -32.0460  -17.4560   20.1990 N   0  0  0  0  0  0  0  0  0  0  0  0
  -29.9820  -16.2950   19.7530 C   0  0  0  0  0  0  0  0  0  0  0  0
  -29.8110  -15.3330   20.7740 C   0  0  0  0  0  3  0  0  0  0  0  0
  -29.0680  -14.1580   20.5320 C   0  0  0  0  0  3  0  0  0  0  0  0
  -28.4830  -13.9360   19.2640 C   0  0  0  0  0  0  0  0  0  0  0  0
  -28.6740  -14.8870   18.2450 C   0  0  0  0  0  3  0  0  0  0  0  0
  -29.4190  -16.0540   18.4850 C   0  0  0  0  0  3  0  0  0  0  0  0
  -27.7650  -12.8130   18.9290 O   0  0  0  0  0  0  0  0  0  0  0  0
  -26.8330  -12.2750   19.7800 C   0  0  0  0  0  0  0  0  0  0  0  0
  -25.7200  -13.0180   20.2300 C   0  0  0  0  0  3  0  0  0  0  0  0
  -24.7500  -12.4040   21.0480 C   0  0  0  0  0  3  0  0  0  0  0  0
  -24.8850  -11.0500   21.4090 C   0  0  0  0  0  0  0  0  0  0  0  0
  -25.9910  -10.3090   20.9580 C   0  0  0  0  0  3  0  0  0  0  0  0
  -26.9620  -10.9200   20.1440 C   0  0  0  0  0  0  0  0  0  0  0  0
  -28.0140  -10.1940   19.6940 F   0  0  0  0  0  0  0  0  0  0  0  0
  -23.9510  -10.4590   22.1890 F   0  0  0  0  0  0  0  0  0  0  0  0
  -28.9320  -19.4160   19.7140 C   0  0  0  0  0  0  0  0  0  0  0  0
  -27.9140  -18.6850   20.1520 N   0  0  0  0  0  0  0  0  0  0  0  0
  -28.7460  -20.5040   19.1710 O   0  0  0  0  0  0  0  0  0  0  0  0
  -28.0660  -17.8030   20.6170 H   0  0  0  0  0  0  0  0  0  0  0  0
  -26.9680  -19.0150   20.0220 H   0  0  0  0  0  0  0  0  0  0  0  0
  -31.6940  -21.0160   20.1540 N   0  0  0  0  0  0  0  0  0  0  0  0
  -30.9590  -21.6910   19.9690 H   0  0  0  0  0  0  0  0  0  0  0  0
  -32.6190  -21.4250   20.1540 H   0  0  0  0  0  0  0  0  0  0  0  0
  1 49  1  0
  2  3  1  0
  2  1  1  0
  4  2  1  0
  5  2  1  0
  6  5  1  0
  7  6  1  0
  8 10  1  0
  8  7  1  0
  9 20  2  0
 10 15  1  0
 11 19  1  0
 11 21  1  0
 12 14  1  0
 12 18  1  0
 13 19  1  0
 14 13  1  0
 15 14  2  0
 16 17  1  0
 16 10  2  0
 17 12  2  0
 18 11  1  0
 19  9  1  0
 21 23  2  0
 22 21  1  0
 24 22  1  0
 25 34  2  0
 25 30  1  0
 26 22  1  0
 26 30  1  0
 27 26  1  0
 28 29  1  0
 28 27  1  0
 29 25  1  0
 30 31  2  0
 31 32  1  0
 33 32  2  0
 34 33  1  0
 35  9  1  0
 35 45  1  0
 35 36  1  0
 36 39  1  0
 37 36  1  0
 37 41  1  0
 38 37  2  0
 41 40  1  0
 41 43  1  0
 43 44  1  0
 43 42  1  0
 45 48  1  1
 45 46  1  0
 47 45  1  0
 49 50  1  0
 50 51  1  0
 52 55  1  0
 52 51  1  0
 53 52  1  0
 54 52  1  0
 56 57  1  0
 56 55  1  0
 58 66  1  0
 59 64  1  0
 60 59  1  0
 61 60  1  0
 62 61  1  0
 62 63  1  0
 63 64  1  0
 64 58  1  0
 65 58  2  0
 66 57  1  0
 67 66  1  0
 68 93  1  0
 68 71  1  0
 69 70  1  0
 69 68  2  0
 70 72  2  0
 71 62  1  0
 72 71  1  0
 73 70  1  0
 73 74  1  0
 75 74  2  0
 76 75  1  0
 77 78  1  0
 77 76  2  0
 78 73  2  0
 79 76  1  0
 79 80  1  0
 80 85  2  0
 80 81  1  0
 81 82  2  0
 82 83  1  0
 83 87  1  0
 84 83  2  0
 85 84  1  0
 86 85  1  0
 88 69  1  0
 88 89  1  0
 89 91  1  0
 90 88  2  0
 92 89  1  0
 94 93  1  0
 95 93  1  0
M  ISO  4   7 101   8 101  58 100  66 100
M  END
>  <TORSDO>  (3) 
F 27

>  <SCORE>  (3) 
4.970

>  <name>  (3) 
2

>  <ligand_id>  (3) 
2

>  <original_smiles>  (3) 
[H]c1c([H])c([H])c2c(c1[H])C([H])([H])C([H])([H])C([H])([H])C2([H])N([H])C(=O)C1([H])N(C(=O)C([H])(N([H])C(=O)C([H])(N([H])C([H])([H])[H])C([H])([H])[H])C(C([H])([H])[H])(C([H])([H])[H])C([H])([H])[H])C([H])([H])c2c([H])c(OC([H])([H])C([H])([H])C([H])([H])[N+]([H])([H])C([H])([H])C([H])([H])C([H])([H])C([H])([H])[N+]([H])([H])C([H])([H])C([H])([H])C([H])([H])N([H])C(=O)N3C([H])([H])C([H])([H])C([H])([H])C([H])(n4nc(-c5c([H])c([H])c(Oc6c([H])c([H])c(F)c([H])c6F)c([H])c5[H])c(C(=O)N([H])[H])c4N([H])[H])C3([H])[H])c([H])c([H])c2C1([H])[H]

>  <smiles>  (3) 
[H]c1c([H])c([H])c2c(c1[H])C([H])([H])C([H])([H])C([H])([H])C2([H])N([H])C(=O)C1([H])N(C(=O)C([H])(N([H])C(=O)C([H])(N([H])C([H])([H])[H])C([H])([H])[H])C(C([H])([H])[H])(C([H])([H])[H])C([H])([H])[H])C([H])([H])c2c([H])c(OC([H])([H])C([H])([H])C([H])([H])[N+]([H])([H])C([H])([H])C([H])([H])C([H])([H])C([H])([H])[N+]([H])([H])C([H])([H])C([H])([H])C([H])([H])N([H])C(=O)N3C([H])([H])C([H])([H])C([H])([H])C([H])(n4nc(-c5c([H])c([H])c(Oc6c([H])c([H])c(F)c([H])c6F)c([H])c5[H])c(C(=O)N([H])[H])c4N([H])[H])C3([H])[H])c([H])c([H])c2C1([H])[H]

$$$$
3:0:0
     RDKit          3D

 91 98  0  0  1  0  0  0  0  0999 V2000
  -28.2880  -21.8550   19.4870 C   0  0  0  0  0  2  0  0  0  0  0  0
  -28.4310  -22.9460   20.4580 N   0  0  0  0  0  0  0  0  0  0  0  0
  -29.3150  -22.8810   20.9570 H   0  0  0  0  0  0  0  0  0  0  0  0
  -28.3650  -24.2500   19.7840 C   0  0  0  0  0  2  0  0  0  0  0  0
  -28.3500  -25.4190   20.7980 C   0  0  0  0  0  2  0  0  0  0  0  0
  -28.4090  -26.7090   20.1730 O   0  0  0  0  0  0  0  0  0  0  0  0
  -24.5950  -31.8770   23.2450 C   0  0  0  0  0  0  0  0  0  0  0  0
  -27.2370  -27.4330   20.1790 C   0  0  0  0  0  0  0  0  0  0  0  0
  -23.3880  -30.4730   21.6040 C   0  0  0  0  0  3  0  0  0  0  0  0
  -24.8420  -28.9310   20.1840 C   0  0  0  0  0  0  0  0  0  0  0  0
  -25.9120  -30.8360   21.4020 C   0  0  0  0  0  2  0  0  0  0  0  0
  -26.0000  -29.4630   20.7670 C   0  0  0  0  0  0  0  0  0  0  0  0
  -27.2040  -28.7230   20.7550 C   0  0  0  0  0  3  0  0  0  0  0  0
  -26.0630  -26.9100   19.5990 C   0  0  0  0  0  3  0  0  0  0  0  0
  -24.8680  -27.6550   19.5970 C   0  0  0  0  0  3  0  0  0  0  0  0
  -23.5970  -29.7890   20.2260 C   0  0  0  0  0  2  0  0  0  0  0  0
  -24.6500  -31.0760   22.1430 N   0  0  0  0  0  0  0  0  0  0  0  0
  -23.5130  -32.1500   23.7840 O   0  0  0  0  0  0  0  0  0  0  0  0
  -22.7360  -29.4540   22.5660 C   0  0  0  0  0  0  0  0  0  0  0  0
  -21.4110  -29.2740   22.4370 N   0  0  0  0  0  0  0  0  0  0  0  0
  -23.4190  -28.8270   23.3810 O   0  0  0  0  0  0  0  0  0  0  0  0
  -20.9230  -29.8330   21.7520 H   0  0  0  0  0  0  0  0  0  0  0  0
  -18.0340  -28.0890   22.9320 C   0  0  0  0  0  0  0  0  0  0  0  0
  -20.5910  -28.3400   23.2080 C   0  0  0  0  0  3  0  0  0  0  0  0
  -20.6910  -26.9090   22.6330 C   0  0  0  0  0  2  0  0  0  0  0  0
  -19.5900  -26.5890   21.6170 C   0  0  0  0  0  2  0  0  0  0  0  0
  -18.2070  -26.7380   22.2580 C   0  0  0  0  0  2  0  0  0  0  0  0
  -19.1530  -28.8490   23.3630 C   0  0  0  0  0  0  0  0  0  0  0  0
  -18.9390  -30.1140   23.9510 C   0  0  0  0  0  3  0  0  0  0  0  0
  -17.6360  -30.6220   24.1120 C   0  0  0  0  0  3  0  0  0  0  0  0
  -16.5290  -29.8590   23.6980 C   0  0  0  0  0  3  0  0  0  0  0  0
  -16.7300  -28.5950   23.1150 C   0  0  0  0  0  3  0  0  0  0  0  0
  -25.8820  -32.5070   23.8650 C   0  0  0  0  0  3  0  0  0  0  0  0
  -26.4010  -31.7350   25.1400 C   0  0  1  0  0  0  0  0  0  0  0  0
  -25.3100  -31.4950   26.2100 C   0  0  0  0  0  1  0  0  0  0  0  0
  -26.9830  -30.3580   24.7430 C   0  0  0  0  0  1  0  0  0  0  0  0
  -27.5530  -32.5280   25.8010 C   0  0  0  0  0  1  0  0  0  0  0  0
  -25.5740  -33.9060   24.1920 N   0  0  0  0  0  0  0  0  0  0  0  0
  -25.9100  -34.9560   23.4300 C   0  0  0  0  0  0  0  0  0  0  0  0
  -26.5800  -34.8480   22.4000 O   0  0  0  0  0  0  0  0  0  0  0  0
  -24.9790  -34.0640   24.9920 H   0  0  0  0  0  0  0  0  0  0  0  0
  -24.1820  -36.7480   23.0660 C   0  0  0  0  0  1  0  0  0  0  0  0
  -25.4220  -36.3460   23.8800 C   0  0  0  0  0  3  0  0  0  0  0  0
  -27.5580  -37.2300   24.7110 C   0  0  0  0  0  1  0  0  0  0  0  0
  -26.4560  -37.3980   23.7660 N   0  0  0  0  0  0  0  0  0  0  0  0
  -26.0510  -38.3180   23.9130 H   0  0  0  0  0  0  0  0  0  0  0  0
  -28.1830  -20.4490   20.1400 C   0  0  0  0  0  2  0  0  0  0  0  0
  -29.4980  -19.8010   20.3460 N   0  0  0  0  0  4  0  0  0  0  0  0
  -29.9730  -19.7720   19.4590 H   0  0  0  0  0  0  0  0  0  0  0  0
  -30.0430  -20.3780   20.9660 H   0  0  0  0  0  0  0  0  0  0  0  0
  -29.4340  -18.4220   20.8980 C   0  0  0  0  0  2  0  0  0  0  0  0
  -30.8160  -17.7260   20.8930 C   0  0  0  0  0  2  0  0  0  0  0  0
  -30.9230  -16.4300   21.7360 C   0  0  0  0  0  2  0  0  0  0  0  0
  -30.7750  -14.3830   20.2910 C   0  0  0  0  0  0  0  0  0  0  0  0
  -30.3630  -12.3110   19.0090 C   0  0  0  0  0  2  0  0  0  0  0  0
  -29.3780  -12.5700   17.8520 C   0  0  0  0  0  2  0  0  0  0  0  0
  -27.9190  -12.4510   18.3330 C   0  0  0  0  0  2  0  0  0  0  0  0
  -27.6500  -13.2560   19.6320 C   0  0  0  0  0  3  0  0  0  0  0  0
  -28.7330  -12.9570   20.6910 C   0  0  0  0  0  2  0  0  0  0  0  0
  -30.0470  -13.2520   20.0930 N   0  0  0  0  0  0  0  0  0  0  0  0
  -31.8330  -14.6210   19.7000 O   0  0  0  0  0  0  0  0  0  0  0  0
  -30.2530  -15.2530   21.1720 N   0  0  0  0  0  0  0  0  0  0  0  0
  -29.3780  -14.9770   21.5930 H   0  0  0  0  0  0  0  0  0  0  0  0
  -25.2840  -13.9080   20.4090 C   0  0  0  0  0  0  0  0  0  0  0  0
  -24.2140  -13.1540   20.8110 C   0  0  0  0  0  0  0  0  0  0  0  0
  -24.6490  -11.7940   20.7650 C   0  0  0  0  0  0  0  0  0  0  0  0
  -26.3050  -13.0080   20.1480 N   0  0  0  0  0  0  0  0  0  0  0  0
  -25.9280  -11.7320   20.4170 N   0  0  0  0  0  0  0  0  0  0  0  0
  -23.9070  -10.5450   20.9760 C   0  0  0  0  0  0  0  0  0  0  0  0
  -24.3550   -9.5670   21.8930 C   0  0  0  0  0  3  0  0  0  0  0  0
  -23.6160   -8.3820   22.0920 C   0  0  0  0  0  3  0  0  0  0  0  0
  -22.4150   -8.1650   21.3760 C   0  0  0  0  0  0  0  0  0  0  0  0
  -21.9850   -9.1310   20.4490 C   0  0  0  0  0  3  0  0  0  0  0  0
  -22.7240  -10.3090   20.2480 C   0  0  0  0  0  3  0  0  0  0  0  0
  -21.6440   -7.0320   21.4850 O   0  0  0  0  0  0  0  0  0  0  0  0
  -21.6260   -6.2830   22.6340 C   0  0  0  0  0  0  0  0  0  0  0  0
  -21.2640   -6.8400   23.8810 C   0  0  0  0  0  3  0  0  0  0  0  0
  -21.1900   -6.0190   25.0240 C   0  0  0  0  0  3  0  0  0  0  0  0
  -21.4670   -4.6430   24.9230 C   0  0  0  0  0  0  0  0  0  0  0  0
  -21.8230   -4.0860   23.6810 C   0  0  0  0  0  3  0  0  0  0  0  0
  -21.8980   -4.9040   22.5400 C   0  0  0  0  0  0  0  0  0  0  0  0
  -22.2200   -4.3590   21.3420 F   0  0  0  0  0  0  0  0  0  0  0  0
  -21.3900   -3.8530   26.0180 F   0  0  0  0  0  0  0  0  0  0  0  0
  -22.8340  -13.6550   21.1260 C   0  0  0  0  0  0  0  0  0  0  0  0
  -22.1210  -12.9700   22.0140 N   0  0  0  0  0  0  0  0  0  0  0  0
  -22.3980  -14.6890   20.6220 O   0  0  0  0  0  0  0  0  0  0  0  0
  -22.4870  -12.1340   22.4460 H   0  0  0  0  0  0  0  0  0  0  0  0
  -21.1950  -13.2880   22.2670 H   0  0  0  0  0  0  0  0  0  0  0  0
  -25.4680  -15.2740   20.2270 N   0  0  0  0  0  0  0  0  0  0  0  0
  -24.7150  -15.9430   20.3500 H   0  0  0  0  0  0  0  0  0  0  0  0
  -26.3160  -15.6930   19.8640 H   0  0  0  0  0  0  0  0  0  0  0  0
  1 47  1  0
  1  2  1  0
  2  3  1  0
  4  2  1  0
  4  5  1  0
  6  8  1  0
  6  5  1  0
  7 18  2  0
  8 13  1  0
  9 17  1  0
  9 19  1  0
 10 16  1  0
 10 12  1  0
 11 17  1  0
 12 11  1  0
 13 12  2  0
 14  8  2  0
 15 14  1  0
 15 10  2  0
 16  9  1  0
 17  7  1  0
 19 21  2  0
 20 19  1  0
 22 20  1  0
 23 32  2  0
 23 28  1  0
 24 20  1  0
 24 28  1  0
 25 24  1  0
 26 27  1  0
 26 25  1  0
 27 23  1  0
 28 29  2  0
 29 30  1  0
 31 30  2  0
 32 31  1  0
 33  7  1  0
 33 38  1  0
 33 34  1  0
 34 37  1  1
 34 35  1  0
 36 34  1  0
 38 41  1  0
 39 43  1  0
 39 38  1  0
 40 39  2  0
 43 42  1  0
 45 43  1  0
 45 46  1  0
 45 44  1  0
 47 48  1  0
 48 51  1  0
 48 50  1  0
 49 48  1  0
 52 51  1  0
 52 53  1  0
 54 62  1  0
 55 60  1  0
 56 57  1  0
 56 55  1  0
 58 57  1  0
 58 67  1  0
 58 59  1  0
 60 54  1  0
 60 59  1  0
 61 54  2  0
 62 63  1  0
 62 53  1  0
 64 65  2  0
 65 84  1  0
 66 65  1  0
 66 69  1  0
 67 64  1  0
 67 68  1  0
 68 66  2  0
 69 70  1  0
 70 71  2  0
 72 75  1  0
 72 71  1  0
 73 72  2  0
 74 73  1  0
 74 69  2  0
 75 76  1  0
 76 77  1  0
 77 78  2  0
 79 78  1  0
 79 83  1  0
 80 79  2  0
 81 76  2  0
 81 80  1  0
 82 81  1  0
 84 85  1  0
 85 88  1  0
 85 87  1  0
 86 84  2  0
 89 90  1  0
 89 64  1  0
 91 89  1  0
M  ISO  4   5 101   6 101  54 100  62 100
M  END
>  <TORSDO>  (4) 
F 24

>  <SCORE>  (4) 
-12.388

>  <name>  (4) 
3

>  <ligand_id>  (4) 
3

>  <original_smiles>  (4) 
[H]c1c([H])c([H])c2c(c1[H])C([H])([H])C([H])([H])C([H])([H])C2([H])N([H])C(=O)C1([H])N(C(=O)C([H])(N([H])C(=O)C([H])(N([H])C([H])([H])[H])C([H])([H])[H])C(C([H])([H])[H])(C([H])([H])[H])C([H])([H])[H])C([H])([H])c2c([H])c(OC([H])([H])C([H])([H])N([H])C([H])([H])C([H])([H])[N+]([H])([H])C([H])([H])C([H])([H])C([H])([H])N([H])C(=O)N3C([H])([H])C([H])([H])C([H])([H])C([H])(n4nc(-c5c([H])c([H])c(Oc6c([H])c([H])c(F)c([H])c6F)c([H])c5[H])c(C(=O)N([H])[H])c4N([H])[H])C3([H])[H])c([H])c([H])c2C1([H])[H]

>  <smiles>  (4) 
[H]c1c([H])c([H])c2c(c1[H])C([H])([H])C([H])([H])C([H])([H])C2([H])N([H])C(=O)C1([H])N(C(=O)C([H])(N([H])C(=O)C([H])(N([H])C([H])([H])[H])C([H])([H])[H])C(C([H])([H])[H])(C([H])([H])[H])C([H])([H])[H])C([H])([H])c2c([H])c(OC([H])([H])C([H])([H])N([H])C([H])([H])C([H])([H])[N+]([H])([H])C([H])([H])C([H])([H])C([H])([H])N([H])C(=O)N3C([H])([H])C([H])([H])C([H])([H])C([H])(n4nc(-c5c([H])c([H])c(Oc6c([H])c([H])c(F)c([H])c6F)c([H])c5[H])c(C(=O)N([H])[H])c4N([H])[H])C3([H])[H])c([H])c([H])c2C1([H])[H]

$$$$
4:0:0
     RDKit          3D

 93100  0  0  1  0  0  0  0  0999 V2000
  -28.0590  -22.0590   21.3460 C   0  0  0  0  0  2  0  0  0  0  0  0
  -27.7950  -23.2110   20.4610 N   0  0  0  0  0  4  0  0  0  0  0  0
  -26.7990  -23.2380   20.2950 H   0  0  0  0  0  0  0  0  0  0  0  0
  -28.2330  -23.0360   19.5700 H   0  0  0  0  0  0  0  0  0  0  0  0
  -28.1980  -24.5470   20.9610 C   0  0  0  0  0  2  0  0  0  0  0  0
  -28.4780  -25.5030   19.7820 C   0  0  0  0  0  2  0  0  0  0  0  0
  -28.3800  -26.8710   20.1620 O   0  0  0  0  0  0  0  0  0  0  0  0
  -24.5640  -31.9480   23.2500 C   0  0  0  0  0  0  0  0  0  0  0  0
  -27.1650  -27.5220   20.1500 C   0  0  0  0  0  0  0  0  0  0  0  0
  -23.3300  -30.5540   21.6200 C   0  0  0  0  0  3  0  0  0  0  0  0
  -24.7610  -29.0130   20.1790 C   0  0  0  0  0  0  0  0  0  0  0  0
  -25.8480  -30.9210   21.3770 C   0  0  0  0  0  2  0  0  0  0  0  0
  -25.9230  -29.5450   20.7500 C   0  0  0  0  0  0  0  0  0  0  0  0
  -27.1260  -28.8070   20.7280 C   0  0  0  0  0  3  0  0  0  0  0  0
  -25.9790  -26.9940   19.5810 C   0  0  0  0  0  3  0  0  0  0  0  0
  -24.7830  -27.7370   19.5910 C   0  0  0  0  0  3  0  0  0  0  0  0
  -23.5170  -29.8670   20.2400 C   0  0  0  0  0  2  0  0  0  0  0  0
  -24.6020  -31.1540   22.1440 N   0  0  0  0  0  0  0  0  0  0  0  0
  -23.4910  -32.2240   23.8040 O   0  0  0  0  0  0  0  0  0  0  0  0
  -22.6870  -29.5370   22.5900 C   0  0  0  0  0  0  0  0  0  0  0  0
  -21.3630  -29.3490   22.4620 N   0  0  0  0  0  0  0  0  0  0  0  0
  -23.3750  -28.9190   23.4070 O   0  0  0  0  0  0  0  0  0  0  0  0
  -20.8760  -29.9000   21.7710 H   0  0  0  0  0  0  0  0  0  0  0  0
  -17.9990  -28.1180   22.9390 C   0  0  0  0  0  0  0  0  0  0  0  0
  -20.5490  -28.4130   23.2340 C   0  0  0  0  0  3  0  0  0  0  0  0
  -20.6780  -26.9770   22.6790 C   0  0  0  0  0  2  0  0  0  0  0  0
  -19.5900  -26.6210   21.6600 C   0  0  0  0  0  2  0  0  0  0  0  0
  -18.1980  -26.7620   22.2840 C   0  0  0  0  0  2  0  0  0  0  0  0
  -19.1050  -28.8990   23.3700 C   0  0  0  0  0  0  0  0  0  0  0  0
  -18.8660  -30.1670   23.9450 C   0  0  0  0  0  3  0  0  0  0  0  0
  -17.5560  -30.6570   24.0880 C   0  0  0  0  0  3  0  0  0  0  0  0
  -16.4630  -29.8760   23.6710 C   0  0  0  0  0  3  0  0  0  0  0  0
  -16.6850  -28.6070   23.1050 C   0  0  0  0  0  3  0  0  0  0  0  0
  -25.8580  -32.5700   23.8610 C   0  0  0  0  0  3  0  0  0  0  0  0
  -26.3880  -31.7890   25.1270 C   0  0  1  0  0  0  0  0  0  0  0  0
  -25.3020  -31.5410   26.2010 C   0  0  0  0  0  1  0  0  0  0  0  0
  -26.9680  -30.4160   24.7170 C   0  0  0  0  0  1  0  0  0  0  0  0
  -27.5550  -32.5700   25.7770 C   0  0  0  0  0  1  0  0  0  0  0  0
  -25.5590  -33.9690   24.1970 N   0  0  0  0  0  0  0  0  0  0  0  0
  -25.8990  -35.0200   23.4370 C   0  0  0  0  0  0  0  0  0  0  0  0
  -26.5680  -34.9130   22.4060 O   0  0  0  0  0  0  0  0  0  0  0  0
  -24.9550  -34.1220   24.9920 H   0  0  0  0  0  0  0  0  0  0  0  0
  -24.1850  -36.8260   23.0880 C   0  0  0  0  0  1  0  0  0  0  0  0
  -25.4240  -36.4110   23.8970 C   0  0  0  0  0  3  0  0  0  0  0  0
  -27.5710  -37.2720   24.7210 C   0  0  0  0  0  1  0  0  0  0  0  0
  -26.4670  -37.4540   23.7820 N   0  0  0  0  0  0  0  0  0  0  0  0
  -26.0730  -38.3800   23.9320 H   0  0  0  0  0  0  0  0  0  0  0  0
  -29.4980  -21.5030   21.2020 C   0  0  0  0  0  2  0  0  0  0  0  0
  -29.6070  -20.0640   21.7470 C   0  0  0  0  0  2  0  0  0  0  0  0
  -30.8430  -19.2560   21.2840 C   0  0  0  0  0  2  0  0  0  0  0  0
  -30.6760  -17.8230   21.6310 N   0  0  0  0  0  4  0  0  0  0  0  0
  -29.8250  -17.4850   21.2120 H   0  0  0  0  0  0  0  0  0  0  0  0
  -30.5800  -17.7480   22.6310 H   0  0  0  0  0  0  0  0  0  0  0  0
  -31.7730  -16.9280   21.2080 C   0  0  0  0  0  2  0  0  0  0  0  0
  -31.5670  -15.4850   21.7220 C   0  0  0  0  0  2  0  0  0  0  0  0
  -30.6150  -14.1150   19.8770 C   0  0  0  0  0  0  0  0  0  0  0  0
  -30.0860  -12.0360   18.6580 C   0  0  0  0  0  2  0  0  0  0  0  0
  -29.0290  -12.2010   17.5530 C   0  0  0  0  0  2  0  0  0  0  0  0
  -27.6120  -12.0520   18.1320 C   0  0  0  0  0  2  0  0  0  0  0  0
  -27.3910  -12.9450   19.3800 C   0  0  0  0  0  3  0  0  0  0  0  0
  -28.5410  -12.7720   20.3990 C   0  0  0  0  0  2  0  0  0  0  0  0
  -29.8230  -13.0230   19.7160 N   0  0  0  0  0  0  0  0  0  0  0  0
  -31.5090  -14.4280   19.0870 O   0  0  0  0  0  0  0  0  0  0  0  0
  -30.4900  -14.7360   21.0610 N   0  0  0  0  0  0  0  0  0  0  0  0
  -29.7330  -14.4090   21.6460 H   0  0  0  0  0  0  0  0  0  0  0  0
  -25.0680  -13.5850   20.2940 C   0  0  0  0  0  0  0  0  0  0  0  0
  -24.0350  -12.8270   20.7760 C   0  0  0  0  0  0  0  0  0  0  0  0
  -24.4850  -11.4730   20.7330 C   0  0  0  0  0  0  0  0  0  0  0  0
  -26.0840  -12.6920   19.9870 N   0  0  0  0  0  0  0  0  0  0  0  0
  -25.7400  -11.4190   20.3070 N   0  0  0  0  0  0  0  0  0  0  0  0
  -23.7760  -10.2190   21.0180 C   0  0  0  0  0  0  0  0  0  0  0  0
  -24.2760   -9.2830   21.9500 C   0  0  0  0  0  3  0  0  0  0  0  0
  -23.5650   -8.0930   22.2200 C   0  0  0  0  0  3  0  0  0  0  0  0
  -22.3410   -7.8310   21.5620 C   0  0  0  0  0  0  0  0  0  0  0  0
  -21.8580   -8.7560   20.6210 C   0  0  0  0  0  3  0  0  0  0  0  0
  -22.5680   -9.9390   20.3470 C   0  0  0  0  0  3  0  0  0  0  0  0
  -21.5960   -6.6910   21.7430 O   0  0  0  0  0  0  0  0  0  0  0  0
  -21.6240   -5.9930   22.9220 C   0  0  0  0  0  0  0  0  0  0  0  0
  -21.2960   -6.5980   24.1540 C   0  0  0  0  0  3  0  0  0  0  0  0
  -21.2700   -5.8270   25.3320 C   0  0  0  0  0  3  0  0  0  0  0  0
  -21.5620   -4.4490   25.2810 C   0  0  0  0  0  0  0  0  0  0  0  0
  -21.8860   -3.8440   24.0540 C   0  0  0  0  0  3  0  0  0  0  0  0
  -21.9120   -4.6140   22.8770 C   0  0  0  0  0  0  0  0  0  0  0  0
  -22.2050   -4.0200   21.6950 F   0  0  0  0  0  0  0  0  0  0  0  0
  -21.5300   -3.7060   26.4130 F   0  0  0  0  0  0  0  0  0  0  0  0
  -22.6730  -13.3200   21.1690 C   0  0  0  0  0  0  0  0  0  0  0  0
  -22.0280  -12.6490   22.1180 N   0  0  0  0  0  0  0  0  0  0  0  0
  -22.1890  -14.3330   20.6650 O   0  0  0  0  0  0  0  0  0  0  0  0
  -22.4340  -11.8280   22.5430 H   0  0  0  0  0  0  0  0  0  0  0  0
  -21.1190  -12.9620   22.4250 H   0  0  0  0  0  0  0  0  0  0  0  0
  -25.2230  -14.9500   20.0710 N   0  0  0  0  0  0  0  0  0  0  0  0
  -24.4780  -15.6170   20.2420 H   0  0  0  0  0  0  0  0  0  0  0  0
  -26.0480  -15.3730   19.6640 H   0  0  0  0  0  0  0  0  0  0  0  0
  2  5  1  0
  2  1  1  0
  3  2  1  0
  4  2  1  0
  6  7  1  0
  6  5  1  0
  8 19  2  0
  9  7  1  0
  9 14  1  0
 10 18  1  0
 10 20  1  0
 11 17  1  0
 11 13  1  0
 12 18  1  0
 13 12  1  0
 14 13  2  0
 15 16  1  0
 15  9  2  0
 16 11  2  0
 17 10  1  0
 18  8  1  0
 20 22  2  0
 21 20  1  0
 23 21  1  0
 24 33  2  0
 24 29  1  0
 25 21  1  0
 25 29  1  0
 26 25  1  0
 27 28  1  0
 27 26  1  0
 28 24  1  0
 29 30  2  0
 30 31  1  0
 32 31  2  0
 33 32  1  0
 34  8  1  0
 34 39  1  0
 34 35  1  0
 35 38  1  1
 35 36  1  0
 37 35  1  0
 39 42  1  0
 40 44  1  0
 40 39  1  0
 41 40  2  0
 44 43  1  0
 46 44  1  0
 46 47  1  0
 46 45  1  0
 48  1  1  0
 48 49  1  0
 50 51  1  0
 50 49  1  0
 51 53  1  0
 52 51  1  0
 54 51  1  0
 54 55  1  0
 56 64  1  0
 57 62  1  0
 58 59  1  0
 58 57  1  0
 60 59  1  0
 60 69  1  0
 60 61  1  0
 62 56  1  0
 62 61  1  0
 63 56  2  0
 64 65  1  0
 64 55  1  0
 66 67  2  0
 67 86  1  0
 68 67  1  0
 68 71  1  0
 69 66  1  0
 69 70  1  0
 70 68  2  0
 71 72  1  0
 72 73  2  0
 74 77  1  0
 74 73  1  0
 75 74  2  0
 76 75  1  0
 76 71  2  0
 77 78  1  0
 78 79  1  0
 79 80  2  0
 81 80  1  0
 81 85  1  0
 82 81  2  0
 83 78  2  0
 83 82  1  0
 84 83  1  0
 86 87  1  0
 87 90  1  0
 87 89  1  0
 88 86  2  0
 91 92  1  0
 91 66  1  0
 93 91  1  0
M  ISO  4   6 101   7 101  56 100  64 100
M  END
>  <TORSDO>  (5) 
F 25

>  <SCORE>  (5) 
-10.804

>  <name>  (5) 
4

>  <ligand_id>  (5) 
4

>  <original_smiles>  (5) 
[H]c1c([H])c([H])c2c(c1[H])C([H])([H])C([H])([H])C([H])([H])C2([H])N([H])C(=O)C1([H])N(C(=O)C([H])(N([H])C(=O)C([H])(N([H])C([H])([H])[H])C([H])([H])[H])C(C([H])([H])[H])(C([H])([H])[H])C([H])([H])[H])C([H])([H])c2c([H])c(OC([H])([H])C([H])([H])[N+]([H])([H])C([H])([H])C([H])([H])C([H])([H])C([H])([H])[N+]([H])([H])C([H])([H])C([H])([H])N([H])C(=O)N3C([H])([H])C([H])([H])C([H])([H])C([H])(n4nc(-c5c([H])c([H])c(Oc6c([H])c([H])c(F)c([H])c6F)c([H])c5[H])c(C(=O)N([H])[H])c4N([H])[H])C3([H])[H])c([H])c([H])c2C1([H])[H]

>  <smiles>  (5) 
[H]c1c([H])c([H])c2c(c1[H])C([H])([H])C([H])([H])C([H])([H])C2([H])N([H])C(=O)C1([H])N(C(=O)C([H])(N([H])C(=O)C([H])(N([H])C([H])([H])[H])C([H])([H])[H])C(C([H])([H])[H])(C([H])([H])[H])C([H])([H])[H])C([H])([H])c2c([H])c(OC([H])([H])C([H])([H])[N+]([H])([H])C([H])([H])C([H])([H])C([H])([H])C([H])([H])[N+]([H])([H])C([H])([H])C([H])([H])N([H])C(=O)N3C([H])([H])C([H])([H])C([H])([H])C([H])(n4nc(-c5c([H])c([H])c(Oc6c([H])c([H])c(F)c([H])c6F)c([H])c5[H])c(C(=O)N([H])[H])c4N([H])[H])C3([H])[H])c([H])c([H])c2C1([H])[H]

$$$$
5:0:0
     RDKit          3D

 94101  0  0  1  0  0  0  0  0999 V2000
  -28.9040  -22.5470   18.6130 C   0  0  0  0  0  2  0  0  0  0  0  0
  -29.3660  -23.9030   18.0520 C   0  0  0  0  0  2  0  0  0  0  0  0
  -28.2280  -24.8390   17.9310 N   0  0  0  0  0  4  0  0  0  0  0  0
  -27.6890  -24.7930   18.7810 H   0  0  0  0  0  0  0  0  0  0  0  0
  -27.6370  -24.5120   17.1820 H   0  0  0  0  0  0  0  0  0  0  0  0
  -28.5740  -26.2600   17.6800 C   0  0  0  0  0  2  0  0  0  0  0  0
  -29.1250  -26.9790   18.9330 C   0  0  0  0  0  2  0  0  0  0  0  0
  -28.3210  -26.7540   20.0940 O   0  0  0  0  0  0  0  0  0  0  0  0
  -24.5550  -31.9110   23.2690 C   0  0  0  0  0  0  0  0  0  0  0  0
  -27.1640  -27.4870   20.1480 C   0  0  0  0  0  0  0  0  0  0  0  0
  -23.3290  -30.5100   21.6410 C   0  0  0  0  0  3  0  0  0  0  0  0
  -24.7700  -28.9680   20.2100 C   0  0  0  0  0  0  0  0  0  0  0  0
  -25.8540  -30.8680   21.4180 C   0  0  0  0  0  2  0  0  0  0  0  0
  -25.9330  -29.4980   20.7820 C   0  0  0  0  0  0  0  0  0  0  0  0
  -27.1390  -28.7620   20.7550 C   0  0  0  0  0  3  0  0  0  0  0  0
  -25.9770  -26.9490   19.6100 C   0  0  0  0  0  3  0  0  0  0  0  0
  -24.7820  -27.6900   19.6280 C   0  0  0  0  0  3  0  0  0  0  0  0
  -23.5250  -29.8230   20.2630 C   0  0  0  0  0  2  0  0  0  0  0  0
  -24.5980  -31.1110   22.1660 N   0  0  0  0  0  0  0  0  0  0  0  0
  -23.4790  -32.1900   23.8170 O   0  0  0  0  0  0  0  0  0  0  0  0
  -22.6870  -29.4920   22.6080 C   0  0  0  0  0  0  0  0  0  0  0  0
  -21.3650  -29.3020   22.4800 N   0  0  0  0  0  0  0  0  0  0  0  0
  -23.3760  -28.8750   23.4240 O   0  0  0  0  0  0  0  0  0  0  0  0
  -20.8720  -29.8490   21.7880 H   0  0  0  0  0  0  0  0  0  0  0  0
  -17.9960  -28.0980   22.9730 C   0  0  0  0  0  0  0  0  0  0  0  0
  -20.5500  -28.3690   23.2560 C   0  0  0  0  0  3  0  0  0  0  0  0
  -20.6630  -26.9340   22.6920 C   0  0  0  0  0  2  0  0  0  0  0  0
  -19.5680  -26.5970   21.6740 C   0  0  0  0  0  2  0  0  0  0  0  0
  -18.1820  -26.7440   22.3080 C   0  0  0  0  0  2  0  0  0  0  0  0
  -19.1100  -28.8680   23.4020 C   0  0  0  0  0  0  0  0  0  0  0  0
  -18.8830  -30.1380   23.9780 C   0  0  0  0  0  3  0  0  0  0  0  0
  -17.5750  -30.6370   24.1300 C   0  0  0  0  0  3  0  0  0  0  0  0
  -16.4770  -29.8620   23.7190 C   0  0  0  0  0  3  0  0  0  0  0  0
  -16.6870  -28.5960   23.1450 C   0  0  0  0  0  3  0  0  0  0  0  0
  -25.8490  -32.5360   23.8760 C   0  0  0  0  0  3  0  0  0  0  0  0
  -26.3790  -31.7680   25.1520 C   0  0  1  0  0  0  0  0  0  0  0  0
  -25.2910  -31.5410   26.2300 C   0  0  0  0  0  1  0  0  0  0  0  0
  -26.9530  -30.3860   24.7630 C   0  0  0  0  0  1  0  0  0  0  0  0
  -27.5390  -32.5630   25.7980 C   0  0  0  0  0  1  0  0  0  0  0  0
  -25.5540  -33.9390   24.1960 N   0  0  0  0  0  0  0  0  0  0  0  0
  -25.9000  -34.9810   23.4280 C   0  0  0  0  0  0  0  0  0  0  0  0
  -26.5710  -34.8650   22.3990 O   0  0  0  0  0  0  0  0  0  0  0  0
  -24.9490  -34.1050   24.9870 H   0  0  0  0  0  0  0  0  0  0  0  0
  -24.1910  -36.7860   23.0510 C   0  0  0  0  0  1  0  0  0  0  0  0
  -25.4210  -36.3750   23.8740 C   0  0  0  0  0  3  0  0  0  0  0  0
  -27.5580  -37.2420   24.7170 C   0  0  0  0  0  1  0  0  0  0  0  0
  -26.4650  -37.4170   23.7650 N   0  0  0  0  0  0  0  0  0  0  0  0
  -26.0660  -38.3420   23.9060 H   0  0  0  0  0  0  0  0  0  0  0  0
  -30.0550  -21.5370   18.7550 C   0  0  0  0  0  2  0  0  0  0  0  0
  -29.6040  -20.2270   19.4250 C   0  0  0  0  0  2  0  0  0  0  0  0
  -30.7350  -19.3180   19.7120 N   0  0  0  0  0  4  0  0  0  0  0  0
  -31.4020  -19.8130   20.2830 H   0  0  0  0  0  0  0  0  0  0  0  0
  -31.1980  -19.0620   18.8520 H   0  0  0  0  0  0  0  0  0  0  0  0
  -30.3310  -18.0950   20.4350 C   0  0  0  0  0  2  0  0  0  0  0  0
  -31.5360  -17.3360   21.0180 C   0  0  0  0  0  2  0  0  0  0  0  0
  -31.1420  -16.1570   21.9390 C   0  0  0  0  0  2  0  0  0  0  0  0
  -30.7370  -14.3080   20.2960 C   0  0  0  0  0  0  0  0  0  0  0  0
  -30.2780  -12.2760   18.9810 C   0  0  0  0  0  2  0  0  0  0  0  0
  -29.2890  -12.5390   17.8310 C   0  0  0  0  0  2  0  0  0  0  0  0
  -27.8360  -12.4040   18.3200 C   0  0  0  0  0  2  0  0  0  0  0  0
  -27.5670  -13.2090   19.6180 C   0  0  0  0  0  3  0  0  0  0  0  0
  -28.6550  -12.9250   20.6770 C   0  0  0  0  0  2  0  0  0  0  0  0
  -29.9740  -13.2080   20.0770 N   0  0  0  0  0  0  0  0  0  0  0  0
  -31.7510  -14.5660   19.6420 O   0  0  0  0  0  0  0  0  0  0  0  0
  -30.3490  -15.0940   21.3090 N   0  0  0  0  0  0  0  0  0  0  0  0
  -29.5040  -14.8120   21.7850 H   0  0  0  0  0  0  0  0  0  0  0  0
  -25.1930  -13.8330   20.3980 C   0  0  0  0  0  0  0  0  0  0  0  0
  -24.1330  -13.0650   20.8020 C   0  0  0  0  0  0  0  0  0  0  0  0
  -24.5870  -11.7120   20.7610 C   0  0  0  0  0  0  0  0  0  0  0  0
  -26.2260  -12.9460   20.1380 N   0  0  0  0  0  0  0  0  0  0  0  0
  -25.8660  -11.6650   20.4120 N   0  0  0  0  0  0  0  0  0  0  0  0
  -23.8620  -10.4540   20.9800 C   0  0  0  0  0  0  0  0  0  0  0  0
  -24.3170   -9.4900   21.9060 C   0  0  0  0  0  3  0  0  0  0  0  0
  -23.5950   -8.2960   22.1110 C   0  0  0  0  0  3  0  0  0  0  0  0
  -22.4030   -8.0550   21.3880 C   0  0  0  0  0  0  0  0  0  0  0  0
  -21.9640   -9.0070   20.4500 C   0  0  0  0  0  3  0  0  0  0  0  0
  -22.6880  -10.1940   20.2450 C   0  0  0  0  0  3  0  0  0  0  0  0
  -21.6500   -6.9120   21.5010 O   0  0  0  0  0  0  0  0  0  0  0  0
  -21.6350   -6.1700   22.6550 C   0  0  0  0  0  0  0  0  0  0  0  0
  -21.2510   -6.7280   23.8930 C   0  0  0  0  0  3  0  0  0  0  0  0
  -21.1840   -5.9140   25.0410 C   0  0  0  0  0  3  0  0  0  0  0  0
  -21.4920   -4.5430   24.9520 C   0  0  0  0  0  0  0  0  0  0  0  0
  -21.8690   -3.9850   23.7190 C   0  0  0  0  0  3  0  0  0  0  0  0
  -21.9380   -4.7960   22.5730 C   0  0  0  0  0  0  0  0  0  0  0  0
  -22.2820   -4.2490   21.3820 F   0  0  0  0  0  0  0  0  0  0  0  0
  -21.4200   -3.7580   26.0530 F   0  0  0  0  0  0  0  0  0  0  0  0
  -22.7470  -13.5510   21.1170 C   0  0  0  0  0  0  0  0  0  0  0  0
  -22.0430  -12.8580   22.0070 N   0  0  0  0  0  0  0  0  0  0  0  0
  -22.2960  -14.5760   20.6090 O   0  0  0  0  0  0  0  0  0  0  0  0
  -22.4210  -12.0290   22.4420 H   0  0  0  0  0  0  0  0  0  0  0  0
  -21.1120  -13.1630   22.2570 H   0  0  0  0  0  0  0  0  0  0  0  0
  -25.3610  -15.2020   20.2120 N   0  0  0  0  0  0  0  0  0  0  0  0
  -24.6050  -15.8640   20.3500 H   0  0  0  0  0  0  0  0  0  0  0  0
  -26.2090  -15.6320   19.8670 H   0  0  0  0  0  0  0  0  0  0  0  0
  1 49  1  0
  2  1  1  0
  3  2  1  0
  3  4  1  0
  5  3  1  0
  6  3  1  0
  6  7  1  0
  7  8  1  0
  8 10  1  0
  9 20  2  0
 10 15  1  0
 11 19  1  0
 11 21  1  0
 12 18  1  0
 12 14  1  0
 13 19  1  0
 14 13  1  0
 15 14  2  0
 16 17  1  0
 16 10  2  0
 17 12  2  0
 18 11  1  0
 19  9  1  0
 21 23  2  0
 22 21  1  0
 24 22  1  0
 25 34  2  0
 25 30  1  0
 26 22  1  0
 26 30  1  0
 27 26  1  0
 28 29  1  0
 28 27  1  0
 29 25  1  0
 30 31  2  0
 31 32  1  0
 33 32  2  0
 34 33  1  0
 35  9  1  0
 35 40  1  0
 35 36  1  0
 36 39  1  1
 36 37  1  0
 38 36  1  0
 40 43  1  0
 41 45  1  0
 41 40  1  0
 42 41  2  0
 45 44  1  0
 47 45  1  0
 47 48  1  0
 47 46  1  0
 49 50  1  0
 50 51  1  0
 51 52  1  0
 51 54  1  0
 53 51  1  0
 54 55  1  0
 55 56  1  0
 57 65  1  0
 58 63  1  0
 59 60  1  0
 59 58  1  0
 61 60  1  0
 61 70  1  0
 61 62  1  0
 63 57  1  0
 63 62  1  0
 64 57  2  0
 65 66  1  0
 65 56  1  0
 67 68  2  0
 68 87  1  0
 69 68  1  0
 69 72  1  0
 70 67  1  0
 70 71  1  0
 71 69  2  0
 72 73  1  0
 73 74  2  0
 75 78  1  0
 75 74  1  0
 76 75  2  0
 77 76  1  0
 77 72  2  0
 78 79  1  0
 79 80  1  0
 80 81  2  0
 82 81  1  0
 82 86  1  0
 83 82  2  0
 84 79  2  0
 84 83  1  0
 85 84  1  0
 87 88  1  0
 88 91  1  0
 88 90  1  0
 89 87  2  0
 92 93  1  0
 92 67  1  0
 94 92  1  0
M  ISO  4   7 101   8 101  57 100  65 100
M  END
>  <TORSDO>  (6) 
F 26

>  <SCORE>  (6) 
-11.668

>  <name>  (6) 
5

>  <ligand_id>  (6) 
5

>  <original_smiles>  (6) 
[H]c1c([H])c([H])c2c(c1[H])C([H])([H])C([H])([H])C([H])([H])C2([H])N([H])C(=O)C1([H])N(C(=O)C([H])(N([H])C(=O)C([H])(N([H])C([H])([H])[H])C([H])([H])[H])C(C([H])([H])[H])(C([H])([H])[H])C([H])([H])[H])C([H])([H])c2c([H])c(OC([H])([H])C([H])([H])[N+]([H])([H])C([H])([H])C([H])([H])C([H])([H])C([H])([H])[N+]([H])([H])C([H])([H])C([H])([H])C([H])([H])N([H])C(=O)N3C([H])([H])C([H])([H])C([H])([H])C([H])(n4nc(-c5c([H])c([H])c(Oc6c([H])c([H])c(F)c([H])c6F)c([H])c5[H])c(C(=O)N([H])[H])c4N([H])[H])C3([H])[H])c([H])c([H])c2C1([H])[H]

>  <smiles>  (6) 
[H]c1c([H])c([H])c2c(c1[H])C([H])([H])C([H])([H])C([H])([H])C2([H])N([H])C(=O)C1([H])N(C(=O)C([H])(N([H])C(=O)C([H])(N([H])C([H])([H])[H])C([H])([H])[H])C(C([H])([H])[H])(C([H])([H])[H])C([H])([H])[H])C([H])([H])c2c([H])c(OC([H])([H])C([H])([H])[N+]([H])([H])C([H])([H])C([H])([H])C([H])([H])C([H])([H])[N+]([H])([H])C([H])([H])C([H])([H])C([H])([H])N([H])C(=O)N3C([H])([H])C([H])([H])C([H])([H])C([H])(n4nc(-c5c([H])c([H])c(Oc6c([H])c([H])c(F)c([H])c6F)c([H])c5[H])c(C(=O)N([H])[H])c4N([H])[H])C3([H])[H])c([H])c([H])c2C1([H])[H]

$$$$
6:0:0
     RDKit          3D

 95102  0  0  1  0  0  0  0  0999 V2000
  -30.2560  -24.9930   21.8030 C   0  0  0  0  0  2  0  0  0  0  0  0
  -30.9120  -23.7070   22.3190 C   0  0  0  0  0  2  0  0  0  0  0  0
  -30.0740  -22.4750   21.9360 C   0  0  0  0  0  2  0  0  0  0  0  0
  -30.7750  -21.2100   22.2260 N   0  0  0  0  0  4  0  0  0  0  0  0
  -30.8290  -21.0820   23.2240 H   0  0  0  0  0  0  0  0  0  0  0  0
  -31.7120  -21.2730   21.8660 H   0  0  0  0  0  0  0  0  0  0  0  0
  -30.1210  -20.0330   21.6230 C   0  0  0  0  0  2  0  0  0  0  0  0
  -30.9060  -18.7420   21.8970 C   0  0  0  0  0  2  0  0  0  0  0  0
  -30.1810  -17.5060   21.3550 C   0  0  0  0  0  2  0  0  0  0  0  0
  -30.9200  -16.2090   21.7040 C   0  0  0  0  0  2  0  0  0  0  0  0
  -30.3150  -14.4570   20.0540 C   0  0  0  0  0  0  0  0  0  0  0  0
  -30.0440  -12.2790   18.9420 C   0  0  0  0  0  2  0  0  0  0  0  0
  -28.9980  -12.2880   17.8170 C   0  0  0  0  0  2  0  0  0  0  0  0
  -27.5930  -12.0200   18.3830 C   0  0  0  0  0  2  0  0  0  0  0  0
  -27.2550  -12.9420   19.5840 C   0  0  0  0  0  3  0  0  0  0  0  0
  -28.3950  -12.9380   20.6250 C   0  0  0  0  0  2  0  0  0  0  0  0
  -29.6640  -13.2750   19.9510 N   0  0  0  0  0  0  0  0  0  0  0  0
  -31.1190  -14.8770   19.2140 O   0  0  0  0  0  0  0  0  0  0  0  0
  -30.1710  -15.0500   21.2410 N   0  0  0  0  0  0  0  0  0  0  0  0
  -29.5550  -14.5970   21.9010 H   0  0  0  0  0  0  0  0  0  0  0  0
  -24.9100  -13.3850   20.5570 C   0  0  0  0  0  0  0  0  0  0  0  0
  -23.9310  -12.5380   21.0030 C   0  0  0  0  0  0  0  0  0  0  0  0
  -24.4600  -11.2180   20.8710 C   0  0  0  0  0  0  0  0  0  0  0  0
  -25.9740  -12.5760   20.1860 N   0  0  0  0  0  0  0  0  0  0  0  0
  -25.7100  -11.2660   20.4290 N   0  0  0  0  0  0  0  0  0  0  0  0
  -23.8300   -9.9090   21.0840 C   0  0  0  0  0  0  0  0  0  0  0  0
  -24.2250   -9.0620   22.1440 C   0  0  0  0  0  3  0  0  0  0  0  0
  -23.5920   -7.8170   22.3390 C   0  0  0  0  0  3  0  0  0  0  0  0
  -22.5490   -7.4060   21.4760 C   0  0  0  0  0  0  0  0  0  0  0  0
  -22.1740   -8.2420   20.4090 C   0  0  0  0  0  3  0  0  0  0  0  0
  -22.8100   -9.4810   20.2110 C   0  0  0  0  0  3  0  0  0  0  0  0
  -21.8950   -6.2030   21.5730 O   0  0  0  0  0  0  0  0  0  0  0  0
  -21.6250   -5.6280   22.7890 C   0  0  0  0  0  0  0  0  0  0  0  0
  -20.7830   -6.2490   23.7370 C   0  0  0  0  0  3  0  0  0  0  0  0
  -20.4770   -5.5900   24.9440 C   0  0  0  0  0  3  0  0  0  0  0  0
  -21.0020   -4.3100   25.2020 C   0  0  0  0  0  0  0  0  0  0  0  0
  -21.8350   -3.6870   24.2560 C   0  0  0  0  0  3  0  0  0  0  0  0
  -22.1430   -4.3420   23.0520 C   0  0  0  0  0  0  0  0  0  0  0  0
  -22.9290   -3.7290   22.1350 F   0  0  0  0  0  0  0  0  0  0  0  0
  -20.7010   -3.6730   26.3580 F   0  0  0  0  0  0  0  0  0  0  0  0
  -22.5450  -12.9220   21.4380 C   0  0  0  0  0  0  0  0  0  0  0  0
  -21.9780  -12.1910   22.3930 N   0  0  0  0  0  0  0  0  0  0  0  0
  -21.9760  -13.9050   20.9670 O   0  0  0  0  0  0  0  0  0  0  0  0
  -22.4530  -11.3960   22.7940 H   0  0  0  0  0  0  0  0  0  0  0  0
  -21.0550  -12.4310   22.7260 H   0  0  0  0  0  0  0  0  0  0  0  0
  -24.9800  -14.7670   20.4180 N   0  0  0  0  0  0  0  0  0  0  0  0
  -24.1980  -15.3760   20.6370 H   0  0  0  0  0  0  0  0  0  0  0  0
  -25.7760  -15.2660   20.0390 H   0  0  0  0  0  0  0  0  0  0  0  0
  -31.2370  -26.1660   21.6080 C   0  0  0  0  0  2  0  0  0  0  0  0
  -30.6470  -27.3340   20.7910 C   0  0  0  0  0  2  0  0  0  0  0  0
  -29.1760  -26.6790   19.0970 C   0  0  0  0  0  3  0  0  0  0  0  0
  -30.3850  -26.9070   19.4230 N   0  0  0  0  0  0  0  0  0  0  0  0
  -28.7810  -26.0860   17.7630 C   0  0  0  0  0  2  0  0  0  0  0  0
  -27.4140  -26.5770   17.2720 C   0  0  0  0  0  2  0  0  0  0  0  0
  -26.3490  -26.0070   18.0400 O   0  0  0  0  0  0  0  0  0  0  0  0
  -24.5340  -30.5550   23.2230 C   0  0  0  0  0  0  0  0  0  0  0  0
  -25.4510  -26.9210   18.5400 C   0  0  0  0  0  0  0  0  0  0  0  0
  -22.8010  -30.1190   21.5080 C   0  0  0  0  0  3  0  0  0  0  0  0
  -23.5850  -28.8300   19.4510 C   0  0  0  0  0  0  0  0  0  0  0  0
  -25.2830  -29.9070   20.9430 C   0  0  0  0  0  2  0  0  0  0  0  0
  -24.8970  -28.8430   19.9390 C   0  0  0  0  0  0  0  0  0  0  0  0
  -25.8290  -27.8870   19.4970 C   0  0  0  0  0  3  0  0  0  0  0  0
  -24.1200  -26.8920   18.0780 C   0  0  0  0  0  3  0  0  0  0  0  0
  -23.1860  -27.8490   18.5230 C   0  0  0  0  0  3  0  0  0  0  0  0
  -22.6550  -29.9000   19.9770 C   0  0  0  0  0  2  0  0  0  0  0  0
  -24.2330  -30.1820   21.9480 N   0  0  0  0  0  0  0  0  0  0  0  0
  -23.6450  -30.8910   24.0180 O   0  0  0  0  0  0  0  0  0  0  0  0
  -21.9840  -29.0320   22.2390 C   0  0  0  0  0  0  0  0  0  0  0  0
  -20.6500  -29.1750   22.2170 N   0  0  0  0  0  0  0  0  0  0  0  0
  -22.5460  -28.0770   22.7820 O   0  0  0  0  0  0  0  0  0  0  0  0
  -20.2700  -29.9900   21.7550 H   0  0  0  0  0  0  0  0  0  0  0  0
  -17.1160  -28.5830   22.6540 C   0  0  0  0  0  0  0  0  0  0  0  0
  -19.6750  -28.2570   22.8010 C   0  0  0  0  0  3  0  0  0  0  0  0
  -19.4670  -27.0180   21.9000 C   0  0  0  0  0  2  0  0  0  0  0  0
  -18.3030  -27.1740   20.9190 C   0  0  0  0  0  2  0  0  0  0  0  0
  -16.9950  -27.4280   21.6730 C   0  0  0  0  0  2  0  0  0  0  0  0
  -18.3770  -28.9820   23.1720 C   0  0  0  0  0  0  0  0  0  0  0  0
  -18.4370  -30.0860   24.0510 C   0  0  0  0  0  3  0  0  0  0  0  0
  -17.2680  -30.7780   24.4180 C   0  0  0  0  0  3  0  0  0  0  0  0
  -16.0210  -30.3650   23.9170 C   0  0  0  0  0  3  0  0  0  0  0  0
  -15.9460  -29.2710   23.0390 C   0  0  0  0  0  3  0  0  0  0  0  0
  -26.0080  -30.6020   23.7380 C   0  0  0  0  0  3  0  0  0  0  0  0
  -26.3910  -29.3680   24.6440 C   0  0  1  0  0  0  0  0  0  0  0  0
  -25.3880  -29.1050   25.7910 C   0  0  0  0  0  1  0  0  0  0  0  0
  -26.4860  -28.0810   23.7920 C   0  0  0  0  0  1  0  0  0  0  0  0
  -27.7880  -29.5900   25.2720 C   0  0  0  0  0  1  0  0  0  0  0  0
  -26.1810  -31.8600   24.4730 N   0  0  0  0  0  0  0  0  0  0  0  0
  -26.8550  -32.9220   24.0140 C   0  0  0  0  0  0  0  0  0  0  0  0
  -27.4630  -32.9150   22.9400 O   0  0  0  0  0  0  0  0  0  0  0  0
  -25.6640  -31.9560   25.3350 H   0  0  0  0  0  0  0  0  0  0  0  0
  -25.8940  -35.2290   24.2710 C   0  0  0  0  0  1  0  0  0  0  0  0
  -26.8520  -34.1930   24.8800 C   0  0  0  0  0  3  0  0  0  0  0  0
  -29.0880  -33.9910   25.8760 C   0  0  0  0  0  1  0  0  0  0  0  0
  -28.1930  -34.7940   25.0470 N   0  0  0  0  0  0  0  0  0  0  0  0
  -28.1240  -35.7190   25.4600 H   0  0  0  0  0  0  0  0  0  0  0  0
  1  2  1  0
  3  4  1  0
  3  2  1  0
  4  5  1  0
  6  4  1  0
  7  8  1  0
  7  4  1  0
  9 10  1  0
  9  8  1  0
 11 19  1  0
 12 17  1  0
 13 14  1  0
 13 12  1  0
 15 14  1  0
 15 24  1  0
 15 16  1  0
 17 11  1  0
 17 16  1  0
 18 11  2  0
 19 10  1  0
 19 20  1  0
 21 22  2  0
 22 41  1  0
 23 22  1  0
 23 26  1  0
 24 25  1  0
 24 21  1  0
 25 23  2  0
 26 27  1  0
 27 28  2  0
 29 32  1  0
 29 28  1  0
 30 29  2  0
 31 30  1  0
 31 26  2  0
 32 33  1  0
 33 38  2  0
 33 34  1  0
 34 35  2  0
 35 36  1  0
 36 40  1  0
 37 36  2  0
 38 37  1  0
 39 38  1  0
 41 42  1  0
 42 45  1  0
 42 44  1  0
 43 41  2  0
 46 21  1  0
 46 47  1  0
 48 46  1  0
 49  1  1  0
 50 49  1  0
 51 52  2  0
 52 50  1  0
 53 51  1  0
 54 53  1  0
 54 55  1  0
 55 57  1  0
 56 67  2  0
 57 62  1  0
 58 66  1  0
 58 68  1  0
 59 61  1  0
 59 65  1  0
 60 66  1  0
 61 60  1  0
 62 61  2  0
 63 64  1  0
 63 57  2  0
 64 59  2  0
 65 58  1  0
 66 56  1  0
 68 70  2  0
 69 68  1  0
 71 69  1  0
 72 81  2  0
 72 77  1  0
 73 69  1  0
 73 77  1  0
 74 73  1  0
 75 76  1  0
 75 74  1  0
 76 72  1  0
 77 78  2  0
 78 79  1  0
 80 79  2  0
 81 80  1  0
 82 56  1  0
 82 87  1  0
 82 83  1  0
 83 86  1  1
 83 84  1  0
 85 83  1  0
 87 90  1  0
 88 87  1  0
 88 92  1  0
 89 88  2  0
 92 91  1  0
 92 94  1  0
 94 95  1  0
 94 93  1  0
M  ISO  4  11 100  19 100  54 101  55 101
M  END
>  <TORSDO>  (7) 
F 28

>  <SCORE>  (7) 
-7.269

>  <name>  (7) 
6

>  <ligand_id>  (7) 
6

>  <original_smiles>  (7) 
[H]C(=NC([H])([H])C([H])([H])C([H])([H])C([H])([H])C([H])([H])[N+]([H])([H])C([H])([H])C([H])([H])C([H])([H])C([H])([H])N([H])C(=O)N1C([H])([H])C([H])([H])C([H])([H])C([H])(n2nc(-c3c([H])c([H])c(Oc4c([H])c([H])c(F)c([H])c4F)c([H])c3[H])c(C(=O)N([H])[H])c2N([H])[H])C1([H])[H])C([H])([H])C([H])([H])Oc1c([H])c([H])c2c(c1[H])C([H])([H])N(C(=O)C([H])(N([H])C(=O)C([H])(N([H])C([H])([H])[H])C([H])([H])[H])C(C([H])([H])[H])(C([H])([H])[H])C([H])([H])[H])C([H])(C(=O)N([H])C1([H])c3c([H])c([H])c([H])c([H])c3C([H])([H])C([H])([H])C1([H])[H])C2([H])[H]

>  <smiles>  (7) 
[H]C(=NC([H])([H])C([H])([H])C([H])([H])C([H])([H])C([H])([H])[N+]([H])([H])C([H])([H])C([H])([H])C([H])([H])C([H])([H])N([H])C(=O)N1C([H])([H])C([H])([H])C([H])([H])C([H])(n2nc(-c3c([H])c([H])c(Oc4c([H])c([H])c(F)c([H])c4F)c([H])c3[H])c(C(=O)N([H])[H])c2N([H])[H])C1([H])[H])C([H])([H])C([H])([H])Oc1c([H])c([H])c2c(c1[H])C([H])([H])N(C(=O)C([H])(N([H])C(=O)C([H])(N([H])C([H])([H])[H])C([H])([H])[H])C(C([H])([H])[H])(C([H])([H])[H])C([H])([H])[H])C([H])(C(=O)N([H])C1([H])c3c([H])c([H])c([H])c([H])c3C([H])([H])C([H])([H])C1([H])[H])C2([H])[H]

$$$$
7:0:0
     RDKit          3D

 95102  0  0  1  0  0  0  0  0999 V2000
  -27.3360  -21.5330   19.8480 C   0  0  0  0  0  2  0  0  0  0  0  0
  -28.3100  -20.3300   19.8750 C   0  0  0  0  0  2  0  0  0  0  0  0
  -28.8520  -20.0200   21.2880 C   0  0  0  0  0  2  0  0  0  0  0  0
  -30.0490  -17.8430   20.6250 C   0  0  0  0  0  0  0  0  0  0  0  0
  -29.5580  -18.7440   21.4930 N   0  0  0  0  0  0  0  0  0  0  0  0
  -29.9390  -17.9490   19.4020 O   0  0  0  0  0  0  0  0  0  0  0  0
  -29.7320  -18.5120   22.4640 H   0  0  0  0  0  0  0  0  0  0  0  0
  -30.8040  -16.6300   21.2130 C   0  0  0  0  0  3  0  0  0  0  0  0
  -30.8100  -14.4780   19.9080 C   0  0  0  0  0  0  0  0  0  0  0  0
  -30.4530  -12.3270   18.7420 C   0  0  0  0  0  2  0  0  0  0  0  0
  -29.4240  -12.4830   17.6050 C   0  0  0  0  0  2  0  0  0  0  0  0
  -27.9820  -12.3330   18.1340 C   0  0  0  0  0  2  0  0  0  0  0  0
  -27.7130  -13.1800   19.4040 C   0  0  0  0  0  3  0  0  0  0  0  0
  -28.8430  -12.9910   20.4390 C   0  0  0  0  0  2  0  0  0  0  0  0
  -30.1250  -13.3100   19.7820 N   0  0  0  0  0  0  0  0  0  0  0  0
  -31.8620  -14.7150   19.3060 O   0  0  0  0  0  0  0  0  0  0  0  0
  -30.2280  -15.3850   20.7010 N   0  0  0  0  0  0  0  0  0  0  0  0
  -29.3130  -15.1380   21.0450 H   0  0  0  0  0  0  0  0  0  0  0  0
  -25.3560  -13.7580   20.2690 C   0  0  0  0  0  0  0  0  0  0  0  0
  -24.3240  -12.9700   20.7070 C   0  0  0  0  0  0  0  0  0  0  0  0
  -24.8070  -11.6280   20.6630 C   0  0  0  0  0  0  0  0  0  0  0  0
  -26.3970  -12.8900   19.9760 N   0  0  0  0  0  0  0  0  0  0  0  0
  -26.0750  -11.6060   20.2700 N   0  0  0  0  0  0  0  0  0  0  0  0
  -24.1190  -10.3560   20.9210 C   0  0  0  0  0  0  0  0  0  0  0  0
  -24.5460   -9.4800   21.9430 C   0  0  0  0  0  3  0  0  0  0  0  0
  -23.8580   -8.2720   22.1810 C   0  0  0  0  0  3  0  0  0  0  0  0
  -22.7270   -7.9310   21.4010 C   0  0  0  0  0  0  0  0  0  0  0  0
  -22.3210   -8.7970   20.3680 C   0  0  0  0  0  3  0  0  0  0  0  0
  -23.0110   -9.9980   20.1280 C   0  0  0  0  0  3  0  0  0  0  0  0
  -22.0140   -6.7660   21.5450 O   0  0  0  0  0  0  0  0  0  0  0  0
  -21.8460   -6.1720   22.7700 C   0  0  0  0  0  0  0  0  0  0  0  0
  -21.2330   -6.8470   23.8480 C   0  0  0  0  0  3  0  0  0  0  0  0
  -21.0130   -6.1770   25.0680 C   0  0  0  0  0  3  0  0  0  0  0  0
  -21.3970   -4.8280   25.2100 C   0  0  0  0  0  0  0  0  0  0  0  0
  -22.0030   -4.1520   24.1360 C   0  0  0  0  0  3  0  0  0  0  0  0
  -22.2220   -4.8220   22.9190 C   0  0  0  0  0  0  0  0  0  0  0  0
  -22.7870   -4.1600   21.8810 F   0  0  0  0  0  0  0  0  0  0  0  0
  -21.1820   -4.1790   26.3780 F   0  0  0  0  0  0  0  0  0  0  0  0
  -22.9360  -13.4290   21.0650 C   0  0  0  0  0  0  0  0  0  0  0  0
  -22.2850  -12.7480   22.0000 N   0  0  0  0  0  0  0  0  0  0  0  0
  -22.4410  -14.4300   20.5450 O   0  0  0  0  0  0  0  0  0  0  0  0
  -22.6960  -11.9380   22.4400 H   0  0  0  0  0  0  0  0  0  0  0  0
  -21.3620  -13.0420   22.2880 H   0  0  0  0  0  0  0  0  0  0  0  0
  -25.4900  -15.1310   20.0800 N   0  0  0  0  0  0  0  0  0  0  0  0
  -24.7490  -15.7830   20.3090 H   0  0  0  0  0  0  0  0  0  0  0  0
  -26.3340  -15.5900   19.7570 H   0  0  0  0  0  0  0  0  0  0  0  0
  -31.8680  -17.0340   23.4890 C   0  0  0  0  0  2  0  0  0  0  0  0
  -30.8710  -16.5460   22.7360 C   0  0  0  0  0  3  0  0  0  0  0  0
  -27.7190  -22.6890   18.8910 C   0  0  0  0  0  2  0  0  0  0  0  0
  -28.5520  -23.7550   19.5000 N   0  0  0  0  0  4  0  0  0  0  0  0
  -28.7480  -24.4220   18.7690 H   0  0  0  0  0  0  0  0  0  0  0  0
  -29.4440  -23.3790   19.7850 H   0  0  0  0  0  0  0  0  0  0  0  0
  -27.9240  -24.5100   20.6180 C   0  0  0  0  0  2  0  0  0  0  0  0
  -28.6170  -25.8680   20.8720 C   0  0  0  0  0  2  0  0  0  0  0  0
  -28.4030  -26.7900   19.7980 O   0  0  0  0  0  0  0  0  0  0  0  0
  -24.5950  -31.7510   23.2190 C   0  0  0  0  0  0  0  0  0  0  0  0
  -27.2350  -27.5100   19.8810 C   0  0  0  0  0  0  0  0  0  0  0  0
  -23.3800  -30.4400   21.5060 C   0  0  0  0  0  3  0  0  0  0  0  0
  -24.8320  -28.9840   19.9930 C   0  0  0  0  0  0  0  0  0  0  0  0
  -25.9010  -30.8180   21.3130 C   0  0  0  0  0  2  0  0  0  0  0  0
  -25.9880  -29.4810   20.6090 C   0  0  0  0  0  0  0  0  0  0  0  0
  -27.1920  -28.7440   20.5620 C   0  0  0  0  0  3  0  0  0  0  0  0
  -26.0740  -27.0300   19.2440 C   0  0  0  0  0  3  0  0  0  0  0  0
  -24.8690  -27.7560   19.3100 C   0  0  0  0  0  3  0  0  0  0  0  0
  -23.5840  -29.8320   20.0920 C   0  0  0  0  0  2  0  0  0  0  0  0
  -24.6430  -31.0140   22.0730 N   0  0  0  0  0  0  0  0  0  0  0  0
  -23.5170  -31.9910   23.7800 O   0  0  0  0  0  0  0  0  0  0  0  0
  -22.7370  -29.3670   22.4130 C   0  0  0  0  0  0  0  0  0  0  0  0
  -21.4120  -29.1910   22.2820 N   0  0  0  0  0  0  0  0  0  0  0  0
  -23.4280  -28.6980   23.1860 O   0  0  0  0  0  0  0  0  0  0  0  0
  -20.9150  -29.7840   21.6350 H   0  0  0  0  0  0  0  0  0  0  0  0
  -18.0460  -27.9630   22.7260 C   0  0  0  0  0  0  0  0  0  0  0  0
  -20.6030  -28.2080   23.0010 C   0  0  0  0  0  3  0  0  0  0  0  0
  -20.7090  -26.8170   22.3370 C   0  0  0  0  0  2  0  0  0  0  0  0
  -19.6010  -26.5550   21.3120 C   0  0  0  0  0  2  0  0  0  0  0  0
  -18.2230  -26.6570   21.9700 C   0  0  0  0  0  2  0  0  0  0  0  0
  -19.1650  -28.7000   23.1950 C   0  0  0  0  0  0  0  0  0  0  0  0
  -18.9470  -29.9270   23.8610 C   0  0  0  0  0  3  0  0  0  0  0  0
  -17.6430  -30.4170   24.0590 C   0  0  0  0  0  3  0  0  0  0  0  0
  -16.5390  -29.6760   23.6050 C   0  0  0  0  0  3  0  0  0  0  0  0
  -16.7410  -28.4510   22.9470 C   0  0  0  0  0  3  0  0  0  0  0  0
  -25.8850  -32.3500   23.8630 C   0  0  0  0  0  3  0  0  0  0  0  0
  -26.4140  -31.5110   25.0910 C   0  0  1  0  0  0  0  0  0  0  0  0
  -25.3280  -31.2120   26.1500 C   0  0  0  0  0  1  0  0  0  0  0  0
  -26.9980  -30.1570   24.6180 C   0  0  0  0  0  1  0  0  0  0  0  0
  -27.5670  -32.2690   25.7860 C   0  0  0  0  0  1  0  0  0  0  0  0
  -25.5830  -33.7280   24.2680 N   0  0  0  0  0  0  0  0  0  0  0  0
  -25.9190  -34.8170   23.5640 C   0  0  0  0  0  0  0  0  0  0  0  0
  -26.5920  -34.7640   22.5300 O   0  0  0  0  0  0  0  0  0  0  0  0
  -24.9890  -33.8420   25.0740 H   0  0  0  0  0  0  0  0  0  0  0  0
  -24.2060  -36.6370   23.2840 C   0  0  0  0  0  1  0  0  0  0  0  0
  -25.4340  -36.1810   24.0900 C   0  0  0  0  0  3  0  0  0  0  0  0
  -27.5600  -37.0070   25.0010 C   0  0  0  0  0  1  0  0  0  0  0  0
  -26.4750  -37.2320   24.0510 N   0  0  0  0  0  0  0  0  0  0  0  0
  -26.0710  -38.1450   24.2380 H   0  0  0  0  0  0  0  0  0  0  0  0
  1  2  1  0
  2  3  1  0
  3  5  1  0
  4  8  1  0
  4  5  1  0
  5  7  1  0
  6  4  2  0
  8 48  1  0
  9 17  1  0
 10 15  1  0
 11 12  1  0
 11 10  1  0
 13 12  1  0
 13 22  1  0
 13 14  1  0
 15  9  1  0
 15 14  1  0
 16  9  2  0
 17 18  1  0
 17  8  1  0
 19 20  2  0
 20 39  1  0
 21 20  1  0
 21 24  1  0
 22 19  1  0
 22 23  1  0
 23 21  2  0
 24 25  1  0
 25 26  2  0
 27 30  1  0
 27 26  1  0
 28 27  2  0
 29 28  1  0
 29 24  2  0
 30 31  1  0
 31 36  2  0
 31 32  1  0
 32 33  2  0
 33 34  1  0
 34 38  1  0
 35 34  2  0
 36 35  1  0
 37 36  1  0
 39 40  1  0
 40 43  1  0
 40 42  1  0
 41 39  2  0
 44 19  1  0
 44 45  1  0
 46 44  1  0
 48 47  2  0
 49 50  1  0
 49  1  1  0
 50 52  1  0
 50 53  1  0
 51 50  1  0
 53 54  1  0
 55 57  1  0
 55 54  1  0
 56 67  2  0
 57 62  1  0
 58 66  1  0
 58 68  1  0
 59 65  1  0
 59 61  1  0
 60 66  1  0
 61 60  1  0
 62 61  2  0
 63 64  1  0
 63 57  2  0
 64 59  2  0
 65 58  1  0
 66 56  1  0
 68 70  2  0
 69 68  1  0
 71 69  1  0
 72 81  2  0
 72 77  1  0
 73 69  1  0
 73 77  1  0
 74 73  1  0
 75 76  1  0
 75 74  1  0
 76 72  1  0
 77 78  2  0
 78 79  1  0
 80 79  2  0
 81 80  1  0
 82 56  1  0
 82 87  1  0
 82 83  1  0
 83 86  1  1
 83 84  1  0
 85 83  1  0
 87 90  1  0
 88 92  1  0
 88 87  1  0
 89 88  2  0
 92 91  1  0
 94 92  1  0
 94 95  1  0
 94 93  1  0
M  ISO  4   9 100  17 100  54 101  55 101
M  END
>  <TORSDO>  (8) 
F 25

>  <SCORE>  (8) 
-8.700

>  <name>  (8) 
7

>  <ligand_id>  (8) 
7

>  <original_smiles>  (8) 
[H]C([H])=C([H])C([H])(C(=O)N([H])C([H])([H])C([H])([H])C([H])([H])C([H])([H])[N+]([H])([H])C([H])([H])C([H])([H])Oc1c([H])c([H])c2c(c1[H])C([H])([H])N(C(=O)C([H])(N([H])C(=O)C([H])(N([H])C([H])([H])[H])C([H])([H])[H])C(C([H])([H])[H])(C([H])([H])[H])C([H])([H])[H])C([H])(C(=O)N([H])C1([H])c3c([H])c([H])c([H])c([H])c3C([H])([H])C([H])([H])C1([H])[H])C2([H])[H])N([H])C(=O)N1C([H])([H])C([H])([H])C([H])([H])C([H])(n2nc(-c3c([H])c([H])c(Oc4c([H])c([H])c(F)c([H])c4F)c([H])c3[H])c(C(=O)N([H])[H])c2N([H])[H])C1([H])[H]

>  <smiles>  (8) 
[H]C([H])=C([H])C([H])(C(=O)N([H])C([H])([H])C([H])([H])C([H])([H])C([H])([H])[N+]([H])([H])C([H])([H])C([H])([H])Oc1c([H])c([H])c2c(c1[H])C([H])([H])N(C(=O)C([H])(N([H])C(=O)C([H])(N([H])C([H])([H])[H])C([H])([H])[H])C(C([H])([H])[H])(C([H])([H])[H])C([H])([H])[H])C([H])(C(=O)N([H])C1([H])c3c([H])c([H])c([H])c([H])c3C([H])([H])C([H])([H])C1([H])[H])C2([H])[H])N([H])C(=O)N1C([H])([H])C([H])([H])C([H])([H])C([H])(n2nc(-c3c([H])c([H])c(Oc4c([H])c([H])c(F)c([H])c4F)c([H])c3[H])c(C(=O)N([H])[H])c2N([H])[H])C1([H])[H]

$$$$
8:0:0
     RDKit          3D

 96103  0  0  1  0  0  0  0  0999 V2000
  -31.2940  -25.3440   12.1260 C   0  0  0  0  0  2  0  0  0  0  0  0
  -30.9140  -23.9370   11.6370 C   0  0  0  0  0  2  0  0  0  0  0  0
  -30.5020  -23.9300   10.1630 C   0  0  0  0  0  2  0  0  0  0  0  0
  -30.0590  -22.6150    9.8630 O   0  0  0  0  0  0  0  0  0  0  0  0
  -28.8150  -22.2700   10.4530 C   0  0  0  0  0  2  0  0  0  0  0  0
  -27.6880  -22.8240    9.5710 C   0  0  0  0  0  2  0  0  0  0  0  0
  -26.3730  -22.3720   10.0800 N   0  0  0  0  0  4  0  0  0  0  0  0
  -25.9470  -21.7780    9.3870 H   0  0  0  0  0  0  0  0  0  0  0  0
  -26.5300  -21.8110   10.9050 H   0  0  0  0  0  0  0  0  0  0  0  0
  -25.4080  -23.4410   10.4100 C   0  0  0  0  0  2  0  0  0  0  0  0
  -24.3420  -23.6110    9.3010 C   0  0  0  0  0  2  0  0  0  0  0  0
  -22.7710  -25.5250    9.2790 C   0  0  0  0  0  0  0  0  0  0  0  0
  -21.3890  -26.8850   10.8130 C   0  0  0  0  0  2  0  0  0  0  0  0
  -21.7860  -28.3750   10.7490 C   0  0  0  0  0  2  0  0  0  0  0  0
  -22.9610  -28.6710   11.6970 C   0  0  0  0  0  2  0  0  0  0  0  0
  -24.1270  -27.6610   11.5350 C   0  0  0  0  0  3  0  0  0  0  0  0
  -23.5990  -26.2100   11.5600 C   0  0  0  0  0  2  0  0  0  0  0  0
  -22.5780  -26.0720   10.5070 N   0  0  0  0  0  0  0  0  0  0  0  0
  -21.9390  -25.5940    8.3720 O   0  0  0  0  0  0  0  0  0  0  0  0
  -23.9880  -25.0130    9.0300 N   0  0  0  0  0  0  0  0  0  0  0  0
  -24.2170  -25.2210    8.0690 H   0  0  0  0  0  0  0  0  0  0  0  0
  -26.4400  -28.3810   12.4040 C   0  0  0  0  0  0  0  0  0  0  0  0
  -26.9670  -28.4250   13.6660 C   0  0  0  0  0  0  0  0  0  0  0  0
  -25.9470  -27.9360   14.5390 C   0  0  0  0  0  0  0  0  0  0  0  0
  -25.1570  -27.8750   12.5470 N   0  0  0  0  0  0  0  0  0  0  0  0
  -24.8870  -27.5580   13.8380 N   0  0  0  0  0  0  0  0  0  0  0  0
  -25.8960  -27.8600   16.0040 C   0  0  0  0  0  0  0  0  0  0  0  0
  -26.5060  -26.7990   16.7070 C   0  0  0  0  0  3  0  0  0  0  0  0
  -26.4580  -26.7550   18.1170 C   0  0  0  0  0  3  0  0  0  0  0  0
  -25.7990  -27.7760   18.8370 C   0  0  0  0  0  0  0  0  0  0  0  0
  -25.1720  -28.8180   18.1320 C   0  0  0  0  0  3  0  0  0  0  0  0
  -25.2150  -28.8590   16.7280 C   0  0  0  0  0  3  0  0  0  0  0  0
  -25.6830  -27.8040   20.2060 O   0  0  0  0  0  0  0  0  0  0  0  0
  -26.4430  -28.6470   20.9760 C   0  0  0  0  0  0  0  0  0  0  0  0
  -25.9550  -29.8940   21.4240 C   0  0  0  0  0  3  0  0  0  0  0  0
  -26.7440  -30.6970   22.2690 C   0  0  0  0  0  3  0  0  0  0  0  0
  -28.0170  -30.2520   22.6780 C   0  0  0  0  0  0  0  0  0  0  0  0
  -28.5020  -29.0090   22.2380 C   0  0  0  0  0  3  0  0  0  0  0  0
  -27.7170  -28.2070   21.3910 C   0  0  0  0  0  0  0  0  0  0  0  0
  -28.1820  -27.0010   20.9860 F   0  0  0  0  0  0  0  0  0  0  0  0
  -28.7730  -31.0200   23.4980 F   0  0  0  0  0  0  0  0  0  0  0  0
  -28.3080  -28.9790   14.0580 C   0  0  0  0  0  0  0  0  0  0  0  0
  -29.0720  -28.2330   14.8470 N   0  0  0  0  0  0  0  0  0  0  0  0
  -28.7020  -30.0590   13.6210 O   0  0  0  0  0  0  0  0  0  0  0  0
  -28.7570  -27.3340   15.1800 H   0  0  0  0  0  0  0  0  0  0  0  0
  -29.9890  -28.5630   15.1190 H   0  0  0  0  0  0  0  0  0  0  0  0
  -26.9310  -28.7410   11.1520 N   0  0  0  0  0  0  0  0  0  0  0  0
  -27.7920  -29.2700   11.0850 H   0  0  0  0  0  0  0  0  0  0  0  0
  -26.3100  -28.9070   10.3710 H   0  0  0  0  0  0  0  0  0  0  0  0
  -32.3760  -25.3140   13.2160 C   0  0  0  0  0  2  0  0  0  0  0  0
  -31.8160  -25.5250   14.5710 N   0  0  0  0  0  4  0  0  0  0  0  0
  -31.9210  -24.6730   15.0980 H   0  0  0  0  0  0  0  0  0  0  0  0
  -30.8300  -25.7220   14.4920 H   0  0  0  0  0  0  0  0  0  0  0  0
  -32.4630  -26.6500   15.2860 C   0  0  0  0  0  2  0  0  0  0  0  0
  -33.8360  -26.2940   15.8860 C   0  0  0  0  0  2  0  0  0  0  0  0
  -34.8580  -26.7670   15.0110 O   0  0  0  0  0  0  0  0  0  0  0  0
  -35.2500  -31.2220    9.5200 C   0  0  0  0  0  0  0  0  0  0  0  0
  -34.9760  -28.0910   14.6520 C   0  0  0  0  0  0  0  0  0  0  0  0
  -35.5730  -32.2550   11.7460 C   0  0  0  0  0  3  0  0  0  0  0  0
  -35.0320  -30.7730   13.7480 C   0  0  0  0  0  0  0  0  0  0  0  0
  -34.1750  -30.1310   11.4850 C   0  0  0  0  0  2  0  0  0  0  0  0
  -34.6010  -29.7570   12.8900 C   0  0  0  0  0  0  0  0  0  0  0  0
  -34.5670  -28.4220   13.3420 C   0  0  0  0  0  3  0  0  0  0  0  0
  -35.4310  -29.1270   15.5030 C   0  0  0  0  0  3  0  0  0  0  0  0
  -35.4500  -30.4650   15.0560 C   0  0  0  0  0  3  0  0  0  0  0  0
  -35.0240  -32.1810   13.1950 C   0  0  0  0  0  2  0  0  0  0  0  0
  -35.0210  -31.1770   10.8630 N   0  0  0  0  0  0  0  0  0  0  0  0
  -35.8700  -32.1640    9.0060 O   0  0  0  0  0  0  0  0  0  0  0  0
  -37.1150  -32.2700   11.8050 C   0  0  0  0  0  0  0  0  0  0  0  0
  -37.7020  -33.4740   11.7130 N   0  0  0  0  0  0  0  0  0  0  0  0
  -37.7540  -31.2260   11.9580 O   0  0  0  0  0  0  0  0  0  0  0  0
  -37.1050  -34.2790   11.5890 H   0  0  0  0  0  0  0  0  0  0  0  0
  -40.4270  -35.1570   10.0430 C   0  0  0  0  0  0  0  0  0  0  0  0
  -39.1390  -33.7360   11.7750 C   0  0  0  0  0  3  0  0  0  0  0  0
  -39.4530  -34.8660   12.7830 C   0  0  0  0  0  2  0  0  0  0  0  0
  -39.5170  -36.2520   12.1360 C   0  0  0  0  0  2  0  0  0  0  0  0
  -40.5930  -36.2850   11.0470 C   0  0  0  0  0  2  0  0  0  0  0  0
  -39.7300  -33.9660   10.3800 C   0  0  0  0  0  0  0  0  0  0  0  0
  -39.5720  -32.9650    9.3990 C   0  0  0  0  0  3  0  0  0  0  0  0
  -40.0970  -33.1350    8.1050 C   0  0  0  0  0  3  0  0  0  0  0  0
  -40.8010  -34.3080    7.7810 C   0  0  0  0  0  3  0  0  0  0  0  0
  -40.9680  -35.3130    8.7500 C   0  0  0  0  0  3  0  0  0  0  0  0
  -34.7210  -30.1060    8.5640 C   0  0  0  0  0  3  0  0  0  0  0  0
  -34.2020  -30.7670    7.3600 N   0  0  0  0  0  0  0  0  0  0  0  0
  -32.9570  -31.2480    7.2350 C   0  0  0  0  0  0  0  0  0  0  0  0
  -32.0960  -31.1120    8.1080 O   0  0  0  0  0  0  0  0  0  0  0  0
  -34.8710  -30.9640    6.6300 H   0  0  0  0  0  0  0  0  0  0  0  0
  -32.8050  -33.5100    6.1510 C   0  0  0  0  0  1  0  0  0  0  0  0
  -32.6120  -31.9990    5.9360 C   0  0  0  0  0  3  0  0  0  0  0  0
  -31.0970  -30.4220    4.8210 C   0  0  0  0  0  1  0  0  0  0  0  0
  -31.2410  -31.7330    5.4480 N   0  0  0  0  0  0  0  0  0  0  0  0
  -30.9520  -32.4390    4.7770 H   0  0  0  0  0  0  0  0  0  0  0  0
  -35.8210  -29.0400    8.1860 C   0  0  1  0  0  0  0  0  0  0  0  0
  -36.7360  -29.4750    7.0170 C   0  0  0  0  0  1  0  0  0  0  0  0
  -36.7270  -28.7380    9.4020 C   0  0  0  0  0  1  0  0  0  0  0  0
  -35.1450  -27.7030    7.8050 C   0  0  0  0  0  1  0  0  0  0  0  0
  1 50  1  0
  2  1  1  0
  3  2  1  0
  4  3  1  0
  4  5  1  0
  6  7  1  0
  6  5  1  0
  7 10  1  0
  7  9  1  0
  8  7  1  0
 11 10  1  0
 12 18  1  0
 14 13  1  0
 14 15  1  0
 16 17  1  0
 16 15  1  0
 16 25  1  0
 18 13  1  0
 18 17  1  0
 19 12  2  0
 20 12  1  0
 20 11  1  0
 21 20  1  0
 22 25  1  0
 22 23  2  0
 23 42  1  0
 23 24  1  0
 24 27  1  0
 25 26  1  0
 26 24  2  0
 27 28  2  0
 27 32  1  0
 28 29  1  0
 29 30  2  0
 30 33  1  0
 31 30  1  0
 32 31  2  0
 33 34  1  0
 34 39  2  0
 34 35  1  0
 35 36  2  0
 36 37  1  0
 37 41  1  0
 38 37  2  0
 39 38  1  0
 40 39  1  0
 42 43  1  0
 43 46  1  0
 43 45  1  0
 44 42  2  0
 47 22  1  0
 48 47  1  0
 49 47  1  0
 50 51  1  0
 51 52  1  0
 51 54  1  0
 53 51  1  0
 54 55  1  0
 56 55  1  0
 57 67  1  0
 58 56  1  0
 58 64  1  0
 59 69  1  0
 59 66  1  0
 60 65  1  0
 61 62  1  0
 62 63  1  0
 62 60  2  0
 63 58  2  0
 65 64  2  0
 66 60  1  0
 67 61  1  0
 67 59  1  0
 68 57  2  0
 69 71  2  0
 70 69  1  0
 72 70  1  0
 73 78  1  0
 73 77  1  0
 74 70  1  0
 74 75  1  0
 76 75  1  0
 77 76  1  0
 78 74  1  0
 79 78  2  0
 80 79  1  0
 81 80  2  0
 81 82  1  0
 82 73  2  0
 83 57  1  0
 84 83  1  0
 85 84  1  0
 85 86  2  0
 87 84  1  0
 89 88  1  0
 89 85  1  0
 90 91  1  0
 91 89  1  0
 92 91  1  0
 93 83  1  0
 93 95  1  1
 94 93  1  0
 96 93  1  0
M  ISO  4  12 100  20 100  55 101  56 101
M  END
>  <TORSDO>  (9) 
F 28

>  <SCORE>  (9) 
-3.985

>  <name>  (9) 
8

>  <ligand_id>  (9) 
8

>  <original_smiles>  (9) 
[H]c1c([H])c([H])c2c(c1[H])C([H])([H])C([H])([H])C([H])([H])C2([H])N([H])C(=O)C1([H])N(C(=O)C([H])(N([H])C(=O)C([H])(N([H])C([H])([H])[H])C([H])([H])[H])C(C([H])([H])[H])(C([H])([H])[H])C([H])([H])[H])C([H])([H])c2c([H])c(OC([H])([H])C([H])([H])[N+]([H])([H])C([H])([H])C([H])([H])C([H])([H])C([H])([H])OC([H])([H])C([H])([H])[N+]([H])([H])C([H])([H])C([H])([H])N([H])C(=O)N3C([H])([H])C([H])([H])C([H])([H])C([H])(n4nc(-c5c([H])c([H])c(Oc6c([H])c([H])c(F)c([H])c6F)c([H])c5[H])c(C(=O)N([H])[H])c4N([H])[H])C3([H])[H])c([H])c([H])c2C1([H])[H]

>  <smiles>  (9) 
[H]c1c([H])c([H])c2c(c1[H])C([H])([H])C([H])([H])C([H])([H])C2([H])N([H])C(=O)C1([H])N(C(=O)C([H])(N([H])C(=O)C([H])(N([H])C([H])([H])[H])C([H])([H])[H])C(C([H])([H])[H])(C([H])([H])[H])C([H])([H])[H])C([H])([H])c2c([H])c(OC([H])([H])C([H])([H])[N+]([H])([H])C([H])([H])C([H])([H])C([H])([H])C([H])([H])OC([H])([H])C([H])([H])[N+]([H])([H])C([H])([H])C([H])([H])N([H])C(=O)N3C([H])([H])C([H])([H])C([H])([H])C([H])(n4nc(-c5c([H])c([H])c(Oc6c([H])c([H])c(F)c([H])c6F)c([H])c5[H])c(C(=O)N([H])[H])c4N([H])[H])C3([H])[H])c([H])c([H])c2C1([H])[H]

$$$$
9:0:0
     RDKit          3D

 95102  0  0  1  0  0  0  0  0999 V2000
  -29.7800  -21.2200   22.3170 C   0  0  0  0  0  2  0  0  0  0  0  0
  -29.9890  -20.1090   21.2730 C   0  0  0  0  0  2  0  0  0  0  0  0
  -31.2250  -19.2360   21.5550 C   0  0  0  0  0  2  0  0  0  0  0  0
  -31.5710  -18.3920   20.3920 N   0  0  0  0  0  4  0  0  0  0  0  0
  -31.0400  -17.5380   20.4710 H   0  0  0  0  0  0  0  0  0  0  0  0
  -31.2910  -18.8420   19.5380 H   0  0  0  0  0  0  0  0  0  0  0  0
  -32.9940  -18.0020   20.3000 C   0  0  0  0  0  2  0  0  0  0  0  0
  -33.9310  -19.1600   19.8820 C   0  0  0  0  0  2  0  0  0  0  0  0
  -34.7870  -18.8820   18.6300 C   0  0  0  0  0  2  0  0  0  0  0  0
  -34.1720  -19.3290   17.2910 C   0  0  0  0  0  2  0  0  0  0  0  0
  -32.9050  -17.9630   15.7160 C   0  0  0  0  0  0  0  0  0  0  0  0
  -33.9780  -16.3330   14.2120 C   0  0  0  0  0  2  0  0  0  0  0  0
  -33.1800  -15.0270   14.0690 C   0  0  0  0  0  2  0  0  0  0  0  0
  -33.5640  -14.0360   15.1800 C   0  0  0  0  0  2  0  0  0  0  0  0
  -33.4970  -14.6790   16.5880 C   0  0  0  0  0  3  0  0  0  0  0  0
  -34.2460  -16.0300   16.6180 C   0  0  0  0  0  2  0  0  0  0  0  0
  -33.7320  -16.8990   15.5440 N   0  0  0  0  0  0  0  0  0  0  0  0
  -32.1680  -18.4030   14.8330 O   0  0  0  0  0  0  0  0  0  0  0  0
  -32.9690  -18.5870   16.9000 N   0  0  0  0  0  0  0  0  0  0  0  0
  -32.1490  -19.1670   17.0030 H   0  0  0  0  0  0  0  0  0  0  0  0
  -33.3710  -13.3080   18.7670 C   0  0  0  0  0  0  0  0  0  0  0  0
  -34.2430  -12.4200   19.3430 C   0  0  0  0  0  0  0  0  0  0  0  0
  -35.3810  -12.3720   18.4790 C   0  0  0  0  0  0  0  0  0  0  0  0
  -33.9950  -13.7620   17.6140 N   0  0  0  0  0  0  0  0  0  0  0  0
  -35.2350  -13.2270   17.4760 N   0  0  0  0  0  0  0  0  0  0  0  0
  -36.5760  -11.5200   18.5200 C   0  0  0  0  0  0  0  0  0  0  0  0
  -37.8760  -12.0710   18.4830 C   0  0  0  0  0  3  0  0  0  0  0  0
  -39.0100  -11.2320   18.5440 C   0  0  0  0  0  3  0  0  0  0  0  0
  -38.8520   -9.8300   18.6480 C   0  0  0  0  0  0  0  0  0  0  0  0
  -37.5540   -9.2860   18.6620 C   0  0  0  0  0  3  0  0  0  0  0  0
  -36.4270  -10.1210   18.5940 C   0  0  0  0  0  3  0  0  0  0  0  0
  -39.8950   -8.9360   18.6840 O   0  0  0  0  0  0  0  0  0  0  0  0
  -41.1250   -9.2850   19.1830 C   0  0  0  0  0  0  0  0  0  0  0  0
  -41.2760   -9.8140   20.4830 C   0  0  0  0  0  3  0  0  0  0  0  0
  -42.5650  -10.0960   20.9830 C   0  0  0  0  0  3  0  0  0  0  0  0
  -43.6990   -9.8400   20.1900 C   0  0  0  0  0  0  0  0  0  0  0  0
  -43.5500   -9.3050   18.8980 C   0  0  0  0  0  3  0  0  0  0  0  0
  -42.2660   -9.0270   18.3970 C   0  0  0  0  0  0  0  0  0  0  0  0
  -42.1280   -8.4920   17.1610 F   0  0  0  0  0  0  0  0  0  0  0  0
  -44.9380  -10.1000   20.6710 F   0  0  0  0  0  0  0  0  0  0  0  0
  -33.9970  -11.5880   20.5680 C   0  0  0  0  0  0  0  0  0  0  0  0
  -35.0460  -11.2780   21.3220 N   0  0  0  0  0  0  0  0  0  0  0  0
  -32.8600  -11.2450   20.8910 O   0  0  0  0  0  0  0  0  0  0  0  0
  -35.9780  -11.5740   21.0730 H   0  0  0  0  0  0  0  0  0  0  0  0
  -34.9170  -10.7340   22.1630 H   0  0  0  0  0  0  0  0  0  0  0  0
  -32.0970  -13.7520   19.1130 N   0  0  0  0  0  0  0  0  0  0  0  0
  -31.5210  -14.3090   18.4950 H   0  0  0  0  0  0  0  0  0  0  0  0
  -31.5770  -13.3450   19.8810 H   0  0  0  0  0  0  0  0  0  0  0  0
  -29.4970  -22.5930   21.6750 C   0  0  0  0  0  2  0  0  0  0  0  0
  -29.8720  -23.7100   22.5670 N   0  0  0  0  0  4  0  0  0  0  0  0
  -30.8020  -23.5460   22.9250 H   0  0  0  0  0  0  0  0  0  0  0  0
  -29.2370  -23.7100   23.3520 H   0  0  0  0  0  0  0  0  0  0  0  0
  -29.8160  -25.0450   21.9220 C   0  0  0  0  0  2  0  0  0  0  0  0
  -30.1000  -26.1920   22.9070 C   0  0  0  0  0  2  0  0  0  0  0  0
  -29.7080  -27.4120   22.2830 O   0  0  0  0  0  0  0  0  0  0  0  0
  -24.4610  -28.0790   27.0550 C   0  0  0  0  0  0  0  0  0  0  0  0
  -28.4300  -27.8220   22.5620 C   0  0  0  0  0  0  0  0  0  0  0  0
  -23.8740  -28.6330   24.7130 C   0  0  0  0  0  3  0  0  0  0  0  0
  -25.8370  -28.7880   23.0910 C   0  0  0  0  0  0  0  0  0  0  0  0
  -26.2730  -28.8840   25.5530 C   0  0  0  0  0  2  0  0  0  0  0  0
  -26.7320  -28.5710   24.1460 C   0  0  0  0  0  0  0  0  0  0  0  0
  -28.0280  -28.0810   23.8890 C   0  0  0  0  0  3  0  0  0  0  0  0
  -27.5230  -28.0360   21.5060 C   0  0  0  0  0  3  0  0  0  0  0  0
  -26.2220  -28.5110   21.7670 C   0  0  0  0  0  3  0  0  0  0  0  0
  -24.4720  -29.3260   23.4570 C   0  0  0  0  0  2  0  0  0  0  0  0
  -24.8720  -28.4920   25.8220 N   0  0  0  0  0  0  0  0  0  0  0  0
  -23.2660  -27.8540   27.2880 O   0  0  0  0  0  0  0  0  0  0  0  0
  -23.2490  -27.2870   24.2810 C   0  0  0  0  0  0  0  0  0  0  0  0
  -22.2780  -27.3490   23.3570 N   0  0  0  0  0  0  0  0  0  0  0  0
  -23.6560  -26.2210   24.7530 O   0  0  0  0  0  0  0  0  0  0  0  0
  -21.9990  -28.2610   23.0230 H   0  0  0  0  0  0  0  0  0  0  0  0
  -20.0640  -26.3580   20.6820 C   0  0  0  0  0  0  0  0  0  0  0  0
  -21.5730  -26.2090   22.7740 C   0  0  0  0  0  3  0  0  0  0  0  0
  -22.5250  -25.3560   21.9030 C   0  0  0  0  0  2  0  0  0  0  0  0
  -22.5100  -25.7570   20.4260 C   0  0  0  0  0  2  0  0  0  0  0  0
  -21.0980  -25.6220   19.8470 C   0  0  0  0  0  2  0  0  0  0  0  0
  -20.2950  -26.6470   22.0530 C   0  0  0  0  0  0  0  0  0  0  0  0
  -19.3170  -27.3650   22.7750 C   0  0  0  0  0  3  0  0  0  0  0  0
  -18.1270  -27.7870   22.1540 C   0  0  0  0  0  3  0  0  0  0  0  0
  -17.8960  -27.4850   20.8000 C   0  0  0  0  0  3  0  0  0  0  0  0
  -18.8610  -26.7690   20.0690 C   0  0  0  0  0  3  0  0  0  0  0  0
  -25.4680  -27.8910   28.2320 C   0  0  0  0  0  3  0  0  0  0  0  0
  -24.7050  -27.9730   29.4850 N   0  0  0  0  0  0  0  0  0  0  0  0
  -24.7580  -29.0020   30.3420 C   0  0  0  0  0  0  0  0  0  0  0  0
  -25.5230  -29.9590   30.1920 O   0  0  0  0  0  0  0  0  0  0  0  0
  -24.0250  -27.2470   29.6470 H   0  0  0  0  0  0  0  0  0  0  0  0
  -22.5930  -29.8570   31.2890 C   0  0  0  0  0  1  0  0  0  0  0  0
  -23.8140  -28.9620   31.5580 C   0  0  0  0  0  3  0  0  0  0  0  0
  -25.4560  -28.4140   33.2990 C   0  0  0  0  0  1  0  0  0  0  0  0
  -24.4620  -29.3730   32.8220 N   0  0  0  0  0  0  0  0  0  0  0  0
  -23.7720  -29.5040   33.5550 H   0  0  0  0  0  0  0  0  0  0  0  0
  -26.2700  -26.5340   28.1560 C   0  0  1  0  0  0  0  0  0  0  0  0
  -25.3660  -25.2860   28.0300 C   0  0  0  0  0  1  0  0  0  0  0  0
  -27.2400  -26.5420   26.9520 C   0  0  0  0  0  1  0  0  0  0  0  0
  -27.1390  -26.3640   29.4250 C   0  0  0  0  0  1  0  0  0  0  0  0
  2  3  1  0
  2  1  1  0
  4  5  1  0
  4  3  1  0
  6  4  1  0
  7  4  1  0
  8  7  1  0
  9  8  1  0
 10  9  1  0
 11 19  1  0
 12 17  1  0
 13 12  1  0
 13 14  1  0
 15 14  1  0
 15 16  1  0
 15 24  1  0
 17 11  1  0
 17 16  1  0
 18 11  2  0
 19 20  1  0
 19 10  1  0
 21 46  1  0
 21 22  2  0
 22 41  1  0
 23 26  1  0
 23 22  1  0
 24 21  1  0
 25 24  1  0
 25 23  2  0
 26 31  1  0
 27 26  2  0
 27 28  1  0
 28 29  2  0
 29 30  1  0
 29 32  1  0
 31 30  2  0
 32 33  1  0
 33 34  1  0
 34 35  2  0
 36 40  1  0
 36 35  1  0
 37 36  2  0
 38 37  1  0
 38 33  2  0
 39 38  1  0
 41 43  2  0
 41 42  1  0
 42 45  1  0
 44 42  1  0
 46 48  1  0
 47 46  1  0
 49  1  1  0
 49 50  1  0
 50 51  1  0
 50 52  1  0
 53 50  1  0
 53 54  1  0
 55 57  1  0
 55 54  1  0
 56 67  2  0
 57 62  1  0
 58 68  1  0
 58 66  1  0
 59 65  1  0
 59 61  1  0
 60 66  1  0
 61 60  1  0
 62 61  2  0
 63 64  1  0
 63 57  2  0
 64 59  2  0
 65 58  1  0
 66 56  1  0
 68 70  2  0
 69 68  1  0
 71 69  1  0
 72 77  1  0
 73 69  1  0
 74 73  1  0
 75 74  1  0
 76 75  1  0
 76 72  1  0
 77 73  1  0
 77 78  2  0
 79 78  1  0
 80 79  2  0
 81 72  2  0
 81 80  1  0
 82 56  1  0
 82 83  1  0
 83 86  1  0
 83 84  1  0
 84 88  1  0
 85 84  2  0
 88 87  1  0
 88 90  1  0
 90 89  1  0
 90 91  1  0
 92 82  1  0
 92 95  1  1
 93 92  1  0
 94 92  1  0
M  ISO  4  11 100  19 100  54 101  55 101
M  END
>  <TORSDO>  (10) 
F 27

>  <SCORE>  (10) 
-3.991

>  <name>  (10) 
9

>  <ligand_id>  (10) 
9

>  <original_smiles>  (10) 
[H]c1c([H])c([H])c2c(c1[H])C([H])([H])C([H])([H])C([H])([H])C2([H])N([H])C(=O)C1([H])N(C(=O)C([H])(N([H])C(=O)C([H])(N([H])C([H])([H])[H])C([H])([H])[H])C(C([H])([H])[H])(C([H])([H])[H])C([H])([H])[H])C([H])([H])c2c([H])c(OC([H])([H])C([H])([H])[N+]([H])([H])C([H])([H])C([H])([H])C([H])([H])C([H])([H])[N+]([H])([H])C([H])([H])C([H])([H])C([H])([H])C([H])([H])N([H])C(=O)N3C([H])([H])C([H])([H])C([H])([H])C([H])(n4nc(-c5c([H])c([H])c(Oc6c([H])c([H])c(F)c([H])c6F)c([H])c5[H])c(C(=O)N([H])[H])c4N([H])[H])C3([H])[H])c([H])c([H])c2C1([H])[H]

>  <smiles>  (10) 
[H]c1c([H])c([H])c2c(c1[H])C([H])([H])C([H])([H])C([H])([H])C2([H])N([H])C(=O)C1([H])N(C(=O)C([H])(N([H])C(=O)C([H])(N([H])C([H])([H])[H])C([H])([H])[H])C(C([H])([H])[H])(C([H])([H])[H])C([H])([H])[H])C([H])([H])c2c([H])c(OC([H])([H])C([H])([H])[N+]([H])([H])C([H])([H])C([H])([H])C([H])([H])C([H])([H])[N+]([H])([H])C([H])([H])C([H])([H])C([H])([H])C([H])([H])N([H])C(=O)N3C([H])([H])C([H])([H])C([H])([H])C([H])(n4nc(-c5c([H])c([H])c(Oc6c([H])c([H])c(F)c([H])c6F)c([H])c5[H])c(C(=O)N([H])[H])c4N([H])[H])C3([H])[H])c([H])c([H])c2C1([H])[H]

$$$$
10:0:0
     RDKit          3D

 92 99  0  0  1  0  0  0  0  0999 V2000
  -30.6930  -22.4050   20.8030 C   0  0  0  0  0  2  0  0  0  0  0  0
  -29.4550  -23.1680   20.5170 N   0  0  0  0  0  4  0  0  0  0  0  0
  -28.7860  -22.9730   21.2460 H   0  0  0  0  0  0  0  0  0  0  0  0
  -29.0670  -22.8270   19.6500 H   0  0  0  0  0  0  0  0  0  0  0  0
  -29.6240  -24.6440   20.4230 C   0  0  0  0  0  2  0  0  0  0  0  0
  -28.3000  -25.3340   20.0460 C   0  0  0  0  0  2  0  0  0  0  0  0
  -28.3910  -26.7570   20.1710 O   0  0  0  0  0  0  0  0  0  0  0  0
  -24.5800  -31.9000   23.2520 C   0  0  0  0  0  0  0  0  0  0  0  0
  -27.2010  -27.4580   20.1600 C   0  0  0  0  0  0  0  0  0  0  0  0
  -23.3630  -30.5030   21.6160 C   0  0  0  0  0  3  0  0  0  0  0  0
  -24.8030  -28.9630   20.1850 C   0  0  0  0  0  0  0  0  0  0  0  0
  -25.8870  -30.8580   21.4040 C   0  0  0  0  0  2  0  0  0  0  0  0
  -25.9660  -29.4870   20.7650 C   0  0  0  0  0  0  0  0  0  0  0  0
  -27.1660  -28.7440   20.7450 C   0  0  0  0  0  3  0  0  0  0  0  0
  -26.0150  -26.9440   19.5780 C   0  0  0  0  0  3  0  0  0  0  0  0
  -24.8230  -27.6910   19.5890 C   0  0  0  0  0  3  0  0  0  0  0  0
  -23.5620  -29.8230   20.2350 C   0  0  0  0  0  2  0  0  0  0  0  0
  -24.6290  -31.1030   22.1490 N   0  0  0  0  0  0  0  0  0  0  0  0
  -23.5020  -32.1770   23.7980 O   0  0  0  0  0  0  0  0  0  0  0  0
  -22.7110  -29.4840   22.5790 C   0  0  0  0  0  0  0  0  0  0  0  0
  -21.3860  -29.3030   22.4530 N   0  0  0  0  0  0  0  0  0  0  0  0
  -23.3930  -28.8570   23.3920 O   0  0  0  0  0  0  0  0  0  0  0  0
  -20.8960  -29.8610   21.7680 H   0  0  0  0  0  0  0  0  0  0  0  0
  -18.0090  -28.1140   22.9470 C   0  0  0  0  0  0  0  0  0  0  0  0
  -20.5670  -28.3670   23.2220 C   0  0  0  0  0  3  0  0  0  0  0  0
  -20.6670  -26.9350   22.6490 C   0  0  0  0  0  2  0  0  0  0  0  0
  -19.5660  -26.6130   21.6340 C   0  0  0  0  0  2  0  0  0  0  0  0
  -18.1820  -26.7610   22.2760 C   0  0  0  0  0  2  0  0  0  0  0  0
  -19.1290  -28.8740   23.3750 C   0  0  0  0  0  0  0  0  0  0  0  0
  -18.9140  -30.1390   23.9630 C   0  0  0  0  0  3  0  0  0  0  0  0
  -17.6110  -30.6460   24.1280 C   0  0  0  0  0  3  0  0  0  0  0  0
  -16.5040  -29.8830   23.7140 C   0  0  0  0  0  3  0  0  0  0  0  0
  -16.7040  -28.6200   23.1300 C   0  0  0  0  0  3  0  0  0  0  0  0
  -25.8690  -32.5250   23.8670 C   0  0  0  0  0  3  0  0  0  0  0  0
  -25.5690  -33.9230   24.1980 N   0  0  0  0  0  0  0  0  0  0  0  0
  -25.9040  -34.9730   23.4380 C   0  0  0  0  0  0  0  0  0  0  0  0
  -26.5690  -34.8670   22.4030 O   0  0  0  0  0  0  0  0  0  0  0  0
  -24.9790  -34.0790   25.0010 H   0  0  0  0  0  0  0  0  0  0  0  0
  -24.1800  -36.7710   23.0870 C   0  0  0  0  0  1  0  0  0  0  0  0
  -25.4230  -36.3640   23.8930 C   0  0  0  0  0  3  0  0  0  0  0  0
  -27.5650  -37.2420   24.7090 C   0  0  0  0  0  1  0  0  0  0  0  0
  -26.4590  -37.4130   23.7720 N   0  0  0  0  0  0  0  0  0  0  0  0
  -26.0590  -38.3350   23.9190 H   0  0  0  0  0  0  0  0  0  0  0  0
  -26.3910  -31.7480   25.1370 C   0  0  1  0  0  0  0  0  0  0  0  0
  -25.3050  -31.5120   26.2120 C   0  0  0  0  0  1  0  0  0  0  0  0
  -26.9670  -30.3690   24.7350 C   0  0  0  0  0  1  0  0  0  0  0  0
  -27.5490  -32.5370   25.7940 C   0  0  0  0  0  1  0  0  0  0  0  0
  -30.4130  -20.9060   21.0740 C   0  0  0  0  0  2  0  0  0  0  0  0
  -31.7000  -20.0750   21.2730 C   0  0  0  0  0  2  0  0  0  0  0  0
  -30.9450  -17.6680   21.2140 C   0  0  0  0  0  0  0  0  0  0  0  0
  -31.4570  -18.7420   21.8340 N   0  0  0  0  0  0  0  0  0  0  0  0
  -30.5160  -17.7000   20.0590 O   0  0  0  0  0  0  0  0  0  0  0  0
  -31.7690  -18.5990   22.7870 H   0  0  0  0  0  0  0  0  0  0  0  0
  -30.9330  -16.3690   22.0370 C   0  0  0  0  0  2  0  0  0  0  0  0
  -30.7260  -14.4190   20.4770 C   0  0  0  0  0  0  0  0  0  0  0  0
  -30.3490  -12.3500   19.1790 C   0  0  0  0  0  2  0  0  0  0  0  0
  -29.3980  -12.5870   17.9910 C   0  0  0  0  0  2  0  0  0  0  0  0
  -27.9290  -12.4480   18.4310 C   0  0  0  0  0  2  0  0  0  0  0  0
  -27.6080  -13.2660   19.7110 C   0  0  0  0  0  3  0  0  0  0  0  0
  -28.6630  -12.9970   20.8050 C   0  0  0  0  0  2  0  0  0  0  0  0
  -29.9930  -13.2960   20.2460 N   0  0  0  0  0  0  0  0  0  0  0  0
  -31.7850  -14.6660   19.8940 O   0  0  0  0  0  0  0  0  0  0  0  0
  -30.2370  -15.2330   21.4210 N   0  0  0  0  0  0  0  0  0  0  0  0
  -29.3360  -14.9920   21.8030 H   0  0  0  0  0  0  0  0  0  0  0  0
  -25.2100  -13.8920   20.4070 C   0  0  0  0  0  0  0  0  0  0  0  0
  -24.1380  -13.1290   20.7870 C   0  0  0  0  0  0  0  0  0  0  0  0
  -24.5960  -11.7740   20.7740 C   0  0  0  0  0  0  0  0  0  0  0  0
  -26.2520  -13.0040   20.1890 N   0  0  0  0  0  0  0  0  0  0  0  0
  -25.8860  -11.7270   20.4690 N   0  0  0  0  0  0  0  0  0  0  0  0
  -23.8670  -10.5170   20.9810 C   0  0  0  0  0  0  0  0  0  0  0  0
  -24.3020   -9.5570   21.9210 C   0  0  0  0  0  3  0  0  0  0  0  0
  -23.5740   -8.3630   22.1140 C   0  0  0  0  0  3  0  0  0  0  0  0
  -22.3970   -8.1220   21.3660 C   0  0  0  0  0  0  0  0  0  0  0  0
  -21.9820   -9.0710   20.4140 C   0  0  0  0  0  3  0  0  0  0  0  0
  -22.7100  -10.2550   20.2200 C   0  0  0  0  0  3  0  0  0  0  0  0
  -21.6390   -6.9790   21.4680 O   0  0  0  0  0  0  0  0  0  0  0  0
  -21.6010   -6.2410   22.6230 C   0  0  0  0  0  0  0  0  0  0  0  0
  -21.2030   -6.8050   23.8550 C   0  0  0  0  0  3  0  0  0  0  0  0
  -21.1120   -5.9940   25.0040 C   0  0  0  0  0  3  0  0  0  0  0  0
  -21.4080   -4.6190   24.9210 C   0  0  0  0  0  0  0  0  0  0  0  0
  -21.8000   -4.0560   23.6940 C   0  0  0  0  0  3  0  0  0  0  0  0
  -21.8930   -4.8650   22.5480 C   0  0  0  0  0  0  0  0  0  0  0  0
  -22.2510   -4.3130   21.3630 F   0  0  0  0  0  0  0  0  0  0  0  0
  -21.3140   -3.8380   26.0220 F   0  0  0  0  0  0  0  0  0  0  0  0
  -22.7420  -13.6120   21.0520 C   0  0  0  0  0  0  0  0  0  0  0  0
  -22.0110  -12.9280   21.9250 N   0  0  0  0  0  0  0  0  0  0  0  0
  -22.3070  -14.6340   20.5220 O   0  0  0  0  0  0  0  0  0  0  0  0
  -22.3740  -12.1040   22.3800 H   0  0  0  0  0  0  0  0  0  0  0  0
  -21.0740  -13.2350   22.1430 H   0  0  0  0  0  0  0  0  0  0  0  0
  -25.3800  -15.2590   20.2100 N   0  0  0  0  0  0  0  0  0  0  0  0
  -24.6160  -15.9200   20.2990 H   0  0  0  0  0  0  0  0  0  0  0  0
  -26.2370  -15.6880   19.8800 H   0  0  0  0  0  0  0  0  0  0  0  0
  1 48  1  0
  2  1  1  0
  2  3  1  0
  4  2  1  0
  5  2  1  0
  6  7  1  0
  6  5  1  0
  8 19  2  0
  9  7  1  0
  9 14  1  0
 10 18  1  0
 10 20  1  0
 11 17  1  0
 11 13  1  0
 12 18  1  0
 13 12  1  0
 14 13  2  0
 15 16  1  0
 15  9  2  0
 16 11  2  0
 17 10  1  0
 18  8  1  0
 20 22  2  0
 21 20  1  0
 23 21  1  0
 24 33  2  0
 24 29  1  0
 25 21  1  0
 25 29  1  0
 26 25  1  0
 27 28  1  0
 27 26  1  0
 28 24  1  0
 29 30  2  0
 30 31  1  0
 32 31  2  0
 33 32  1  0
 34  8  1  0
 34 35  1  0
 34 44  1  0
 35 38  1  0
 36 40  1  0
 36 35  1  0
 37 36  2  0
 40 39  1  0
 42 40  1  0
 42 43  1  0
 42 41  1  0
 44 47  1  1
 44 45  1  0
 46 44  1  0
 48 49  1  0
 49 51  1  0
 50 51  1  0
 50 54  1  0
 51 53  1  0
 52 50  2  0
 55 63  1  0
 56 61  1  0
 57 58  1  0
 57 56  1  0
 59 58  1  0
 59 68  1  0
 59 60  1  0
 61 55  1  0
 61 60  1  0
 62 55  2  0
 63 64  1  0
 63 54  1  0
 65 66  2  0
 66 85  1  0
 67 66  1  0
 67 70  1  0
 68 65  1  0
 68 69  1  0
 69 67  2  0
 70 71  1  0
 71 72  2  0
 73 76  1  0
 73 72  1  0
 74 73  2  0
 75 74  1  0
 75 70  2  0
 76 77  1  0
 77 78  1  0
 78 79  2  0
 80 79  1  0
 80 84  1  0
 81 80  2  0
 82 77  2  0
 82 81  1  0
 83 82  1  0
 85 86  1  0
 86 89  1  0
 86 88  1  0
 87 85  2  0
 90 91  1  0
 90 65  1  0
 92 90  1  0
M  ISO  4   6 101   7 101  55 100  63 100
M  END
>  <TORSDO>  (11) 
F 23

>  <SCORE>  (11) 
-12.781

>  <name>  (11) 
10

>  <ligand_id>  (11) 
10

>  <original_smiles>  (11) 
[H]c1c([H])c([H])c2c(c1[H])C([H])([H])C([H])([H])C([H])([H])C2([H])N([H])C(=O)C1([H])N(C(=O)C([H])(N([H])C(=O)C([H])(N([H])C([H])([H])[H])C([H])([H])[H])C(C([H])([H])[H])(C([H])([H])[H])C([H])([H])[H])C([H])([H])c2c([H])c(OC([H])([H])C([H])([H])[N+]([H])([H])C([H])([H])C([H])([H])C([H])([H])N([H])C(=O)C([H])([H])N([H])C(=O)N3C([H])([H])C([H])([H])C([H])([H])C([H])(n4nc(-c5c([H])c([H])c(Oc6c([H])c([H])c(F)c([H])c6F)c([H])c5[H])c(C(=O)N([H])[H])c4N([H])[H])C3([H])[H])c([H])c([H])c2C1([H])[H]

>  <smiles>  (11) 
[H]c1c([H])c([H])c2c(c1[H])C([H])([H])C([H])([H])C([H])([H])C2([H])N([H])C(=O)C1([H])N(C(=O)C([H])(N([H])C(=O)C([H])(N([H])C([H])([H])[H])C([H])([H])[H])C(C([H])([H])[H])(C([H])([H])[H])C([H])([H])[H])C([H])([H])c2c([H])c(OC([H])([H])C([H])([H])[N+]([H])([H])C([H])([H])C([H])([H])C([H])([H])N([H])C(=O)C([H])([H])N([H])C(=O)N3C([H])([H])C([H])([H])C([H])([H])C([H])(n4nc(-c5c([H])c([H])c(Oc6c([H])c([H])c(F)c([H])c6F)c([H])c5[H])c(C(=O)N([H])[H])c4N([H])[H])C3([H])[H])c([H])c([H])c2C1([H])[H]

$$$$
11:0:0
     RDKit          3D

 90 97  0  0  1  0  0  0  0  0999 V2000
  -29.5390  -21.8770   20.7790 C   0  0  0  0  0  2  0  0  0  0  0  0
  -28.9860  -22.9380   19.9220 N   0  0  0  0  0  0  0  0  0  0  0  0
  -28.0060  -22.7400   19.7320 H   0  0  0  0  0  0  0  0  0  0  0  0
  -29.0760  -24.2850   20.5160 C   0  0  0  0  0  2  0  0  0  0  0  0
  -28.5320  -25.3730   19.5460 C   0  0  0  0  0  2  0  0  0  0  0  0
  -28.4140  -26.6850   20.1510 O   0  0  0  0  0  0  0  0  0  0  0  0
  -24.6120  -31.8920   23.2330 C   0  0  0  0  0  0  0  0  0  0  0  0
  -27.2220  -27.4040   20.1310 C   0  0  0  0  0  0  0  0  0  0  0  0
  -23.3930  -30.4930   21.6020 C   0  0  0  0  0  3  0  0  0  0  0  0
  -24.8320  -28.9530   20.1700 C   0  0  0  0  0  0  0  0  0  0  0  0
  -25.9250  -30.8310   21.3950 C   0  0  0  0  0  2  0  0  0  0  0  0
  -25.9990  -29.4590   20.7520 C   0  0  0  0  0  0  0  0  0  0  0  0
  -27.1920  -28.6920   20.7320 C   0  0  0  0  0  3  0  0  0  0  0  0
  -26.0220  -26.9270   19.5460 C   0  0  0  0  0  3  0  0  0  0  0  0
  -24.8400  -27.6860   19.5680 C   0  0  0  0  0  3  0  0  0  0  0  0
  -23.5930  -29.8170   20.2220 C   0  0  0  0  0  2  0  0  0  0  0  0
  -24.6620  -31.0870   22.1340 N   0  0  0  0  0  0  0  0  0  0  0  0
  -23.5340  -32.1690   23.7760 O   0  0  0  0  0  0  0  0  0  0  0  0
  -22.7460  -29.4710   22.5660 C   0  0  0  0  0  0  0  0  0  0  0  0
  -21.4210  -29.2910   22.4480 N   0  0  0  0  0  0  0  0  0  0  0  0
  -23.4340  -28.8450   23.3770 O   0  0  0  0  0  0  0  0  0  0  0  0
  -20.9260  -29.8490   21.7650 H   0  0  0  0  0  0  0  0  0  0  0  0
  -18.0480  -28.0970   22.9610 C   0  0  0  0  0  0  0  0  0  0  0  0
  -20.6070  -28.3560   23.2240 C   0  0  0  0  0  3  0  0  0  0  0  0
  -20.7080  -26.9220   22.6550 C   0  0  0  0  0  2  0  0  0  0  0  0
  -19.6030  -26.5950   21.6450 C   0  0  0  0  0  2  0  0  0  0  0  0
  -18.2230  -26.7440   22.2920 C   0  0  0  0  0  2  0  0  0  0  0  0
  -19.1670  -28.8610   23.3840 C   0  0  0  0  0  0  0  0  0  0  0  0
  -18.9500  -30.1280   23.9680 C   0  0  0  0  0  3  0  0  0  0  0  0
  -17.6460  -30.6300   24.1340 C   0  0  0  0  0  3  0  0  0  0  0  0
  -16.5400  -29.8630   23.7270 C   0  0  0  0  0  3  0  0  0  0  0  0
  -16.7420  -28.5980   23.1460 C   0  0  0  0  0  3  0  0  0  0  0  0
  -25.9020  -32.5240   23.8410 C   0  0  0  0  0  3  0  0  0  0  0  0
  -26.4360  -31.7460   25.1070 C   0  0  1  0  0  0  0  0  0  0  0  0
  -25.3560  -31.5000   26.1850 C   0  0  0  0  0  1  0  0  0  0  0  0
  -27.0170  -30.3710   24.7010 C   0  0  0  0  0  1  0  0  0  0  0  0
  -27.5930  -32.5380   25.7590 C   0  0  0  0  0  1  0  0  0  0  0  0
  -25.5920  -33.9190   24.1820 N   0  0  0  0  0  0  0  0  0  0  0  0
  -25.9100  -34.9750   23.4220 C   0  0  0  0  0  0  0  0  0  0  0  0
  -26.5650  -34.8790   22.3810 O   0  0  0  0  0  0  0  0  0  0  0  0
  -25.0060  -34.0660   24.9900 H   0  0  0  0  0  0  0  0  0  0  0  0
  -24.1650  -36.7580   23.1040 C   0  0  0  0  0  1  0  0  0  0  0  0
  -25.4220  -36.3590   23.8920 C   0  0  0  0  0  3  0  0  0  0  0  0
  -27.5690  -37.2520   24.6830 C   0  0  0  0  0  1  0  0  0  0  0  0
  -26.4460  -37.4190   23.7640 N   0  0  0  0  0  0  0  0  0  0  0  0
  -26.0390  -38.3360   23.9250 H   0  0  0  0  0  0  0  0  0  0  0  0
  -29.2780  -20.4450   20.2060 C   0  0  0  0  0  2  0  0  0  0  0  0
  -29.9590  -19.3610   20.9710 N   0  0  0  0  0  4  0  0  0  0  0  0
  -30.9530  -19.4810   20.8660 H   0  0  0  0  0  0  0  0  0  0  0  0
  -29.7380  -19.4840   21.9470 H   0  0  0  0  0  0  0  0  0  0  0  0
  -29.5950  -17.9640   20.5850 C   0  0  0  0  0  2  0  0  0  0  0  0
  -30.3920  -16.8790   21.3710 C   0  0  0  0  0  2  0  0  0  0  0  0
  -30.6370  -14.4980   20.5150 C   0  0  0  0  0  0  0  0  0  0  0  0
  -30.3390  -12.3450   19.3390 C   0  0  0  0  0  2  0  0  0  0  0  0
  -29.3830  -12.5410   18.1440 C   0  0  0  0  0  2  0  0  0  0  0  0
  -27.9140  -12.3960   18.5870 C   0  0  0  0  0  2  0  0  0  0  0  0
  -27.5840  -13.2320   19.8520 C   0  0  0  0  0  3  0  0  0  0  0  0
  -28.6470  -13.0070   20.9500 C   0  0  0  0  0  2  0  0  0  0  0  0
  -29.9660  -13.3220   20.3740 N   0  0  0  0  0  0  0  0  0  0  0  0
  -31.7520  -14.6960   20.0290 O   0  0  0  0  0  0  0  0  0  0  0  0
  -29.9470  -15.4910   21.1130 N   0  0  0  0  0  0  0  0  0  0  0  0
  -29.0300  -15.2400   21.4510 H   0  0  0  0  0  0  0  0  0  0  0  0
  -25.1920  -13.8430   20.5770 C   0  0  0  0  0  0  0  0  0  0  0  0
  -24.1240  -13.0710   20.9510 C   0  0  0  0  0  0  0  0  0  0  0  0
  -24.5820  -11.7190   20.9130 C   0  0  0  0  0  0  0  0  0  0  0  0
  -26.2340  -12.9600   20.3380 N   0  0  0  0  0  0  0  0  0  0  0  0
  -25.8700  -11.6770   20.5970 N   0  0  0  0  0  0  0  0  0  0  0  0
  -23.8550  -10.4580   21.1020 C   0  0  0  0  0  0  0  0  0  0  0  0
  -24.3090   -9.4710   22.0050 C   0  0  0  0  0  3  0  0  0  0  0  0
  -23.5820   -8.2740   22.1830 C   0  0  0  0  0  3  0  0  0  0  0  0
  -22.3870   -8.0560   21.4570 C   0  0  0  0  0  0  0  0  0  0  0  0
  -21.9510   -9.0310   20.5430 C   0  0  0  0  0  3  0  0  0  0  0  0
  -22.6780  -10.2190   20.3630 C   0  0  0  0  0  3  0  0  0  0  0  0
  -21.6280   -6.9130   21.5460 O   0  0  0  0  0  0  0  0  0  0  0  0
  -21.6290   -6.1360   22.6770 C   0  0  0  0  0  0  0  0  0  0  0  0
  -21.2830   -6.6610   23.9410 C   0  0  0  0  0  3  0  0  0  0  0  0
  -21.2290   -5.8110   25.0640 C   0  0  0  0  0  3  0  0  0  0  0  0
  -21.5080   -4.4400   24.9250 C   0  0  0  0  0  0  0  0  0  0  0  0
  -21.8470   -3.9130   23.6660 C   0  0  0  0  0  3  0  0  0  0  0  0
  -21.9040   -4.7600   22.5440 C   0  0  0  0  0  0  0  0  0  0  0  0
  -22.2100   -4.2450   21.3290 F   0  0  0  0  0  0  0  0  0  0  0  0
  -21.4480   -3.6210   26.0020 F   0  0  0  0  0  0  0  0  0  0  0  0
  -22.7290  -13.5510   21.2350 C   0  0  0  0  0  0  0  0  0  0  0  0
  -22.0070  -12.8530   22.1040 N   0  0  0  0  0  0  0  0  0  0  0  0
  -22.2890  -14.5790   20.7200 O   0  0  0  0  0  0  0  0  0  0  0  0
  -22.3760  -12.0210   22.5410 H   0  0  0  0  0  0  0  0  0  0  0  0
  -21.0720  -13.1560   22.3370 H   0  0  0  0  0  0  0  0  0  0  0  0
  -25.3580  -15.2130   20.4010 N   0  0  0  0  0  0  0  0  0  0  0  0
  -24.5890  -15.8670   20.5040 H   0  0  0  0  0  0  0  0  0  0  0  0
  -26.1980  -15.6450   20.0380 H   0  0  0  0  0  0  0  0  0  0  0  0
  2  4  1  0
  2  1  1  0
  3  2  1  0
  5  6  1  0
  5  4  1  0
  7 18  2  0
  8  6  1  0
  8 13  1  0
  9 17  1  0
  9 19  1  0
 10 16  1  0
 10 12  1  0
 11 17  1  0
 12 11  1  0
 13 12  2  0
 14 15  1  0
 14  8  2  0
 15 10  2  0
 16  9  1  0
 17  7  1  0
 19 21  2  0
 20 19  1  0
 22 20  1  0
 23 32  2  0
 23 28  1  0
 24 20  1  0
 24 28  1  0
 25 24  1  0
 26 27  1  0
 26 25  1  0
 27 23  1  0
 28 29  2  0
 29 30  1  0
 31 30  2  0
 32 31  1  0
 33  7  1  0
 33 38  1  0
 33 34  1  0
 34 37  1  1
 34 35  1  0
 36 34  1  0
 38 41  1  0
 39 43  1  0
 39 38  1  0
 40 39  2  0
 43 42  1  0
 45 43  1  0
 45 46  1  0
 45 44  1  0
 47  1  1  0
 47 48  1  0
 48 50  1  0
 49 48  1  0
 51 48  1  0
 51 52  1  0
 53 61  1  0
 54 59  1  0
 55 56  1  0
 55 54  1  0
 57 56  1  0
 57 66  1  0
 57 58  1  0
 59 53  1  0
 59 58  1  0
 60 53  2  0
 61 52  1  0
 61 62  1  0
 63 64  2  0
 64 83  1  0
 65 64  1  0
 65 68  1  0
 66 63  1  0
 66 67  1  0
 67 65  2  0
 68 69  1  0
 69 70  2  0
 71 74  1  0
 71 70  1  0
 72 71  2  0
 73 72  1  0
 73 68  2  0
 74 75  1  0
 75 76  1  0
 76 77  2  0
 78 77  1  0
 78 82  1  0
 79 78  2  0
 80 75  2  0
 80 79  1  0
 81 80  1  0
 83 84  1  0
 84 87  1  0
 84 86  1  0
 85 83  2  0
 88 89  1  0
 88 63  1  0
 90 88  1  0
M  ISO  4   5 101   6 101  53 100  61 100
M  END
>  <TORSDO>  (12) 
F 23

>  <SCORE>  (12) 
-12.740

>  <name>  (12) 
11

>  <ligand_id>  (12) 
11

>  <original_smiles>  (12) 
[H]c1c([H])c([H])c2c(c1[H])C([H])([H])C([H])([H])C([H])([H])C2([H])N([H])C(=O)C1([H])N(C(=O)C([H])(N([H])C(=O)C([H])(N([H])C([H])([H])[H])C([H])([H])[H])C(C([H])([H])[H])(C([H])([H])[H])C([H])([H])[H])C([H])([H])c2c([H])c(OC([H])([H])C([H])([H])N([H])C([H])([H])C([H])([H])[N+]([H])([H])C([H])([H])C([H])([H])N([H])C(=O)N3C([H])([H])C([H])([H])C([H])([H])C([H])(n4nc(-c5c([H])c([H])c(Oc6c([H])c([H])c(F)c([H])c6F)c([H])c5[H])c(C(=O)N([H])[H])c4N([H])[H])C3([H])[H])c([H])c([H])c2C1([H])[H]

>  <smiles>  (12) 
[H]c1c([H])c([H])c2c(c1[H])C([H])([H])C([H])([H])C([H])([H])C2([H])N([H])C(=O)C1([H])N(C(=O)C([H])(N([H])C(=O)C([H])(N([H])C([H])([H])[H])C([H])([H])[H])C(C([H])([H])[H])(C([H])([H])[H])C([H])([H])[H])C([H])([H])c2c([H])c(OC([H])([H])C([H])([H])N([H])C([H])([H])C([H])([H])[N+]([H])([H])C([H])([H])C([H])([H])N([H])C(=O)N3C([H])([H])C([H])([H])C([H])([H])C([H])(n4nc(-c5c([H])c([H])c(Oc6c([H])c([H])c(F)c([H])c6F)c([H])c5[H])c(C(=O)N([H])[H])c4N([H])[H])C3([H])[H])c([H])c([H])c2C1([H])[H]

$$$$
12:0:0
     RDKit          3D

 97104  0  0  1  0  0  0  0  0999 V2000
  -29.1010  -23.2100   24.7300 C   0  0  0  0  0  2  0  0  0  0  0  0
  -29.3130  -24.4430   23.9630 N   0  0  0  0  0  0  0  0  0  0  0  0
  -28.5970  -24.5200   23.2410 H   0  0  0  0  0  0  0  0  0  0  0  0
  -29.2990  -25.6380   24.8220 C   0  0  0  0  0  2  0  0  0  0  0  0
  -29.1330  -26.9670   24.0480 C   0  0  0  0  0  2  0  0  0  0  0  0
  -30.3470  -27.5480   23.5840 O   0  0  0  0  0  0  0  0  0  0  0  0
  -31.1300  -26.7060   22.7480 C   0  0  0  0  0  2  0  0  0  0  0  0
  -31.7050  -27.4970   21.5550 C   0  0  0  0  0  2  0  0  0  0  0  0
  -30.9420  -27.2690   20.3670 O   0  0  0  0  0  0  0  0  0  0  0  0
  -25.6000  -30.9670   23.3240 C   0  0  0  0  0  0  0  0  0  0  0  0
  -29.6300  -27.6810   20.3410 C   0  0  0  0  0  0  0  0  0  0  0  0
  -24.9710  -29.4190   21.4920 C   0  0  0  0  0  3  0  0  0  0  0  0
  -26.9150  -28.4380   20.1620 C   0  0  0  0  0  0  0  0  0  0  0  0
  -27.2950  -30.4710   21.5730 C   0  0  0  0  0  2  0  0  0  0  0  0
  -27.8150  -29.2240   20.8910 C   0  0  0  0  0  0  0  0  0  0  0  0
  -29.1710  -28.8530   20.9850 C   0  0  0  0  0  3  0  0  0  0  0  0
  -28.7180  -26.9020   19.6000 C   0  0  0  0  0  3  0  0  0  0  0  0
  -27.3580  -27.2700   19.5180 C   0  0  0  0  0  3  0  0  0  0  0  0
  -25.4790  -28.9140   20.1160 C   0  0  0  0  0  2  0  0  0  0  0  0
  -25.9610  -30.3030   22.1900 N   0  0  0  0  0  0  0  0  0  0  0  0
  -24.4450  -30.8950   23.7650 O   0  0  0  0  0  0  0  0  0  0  0  0
  -24.5490  -28.1930   22.3320 C   0  0  0  0  0  0  0  0  0  0  0  0
  -23.3750  -27.6290   22.0080 N   0  0  0  0  0  0  0  0  0  0  0  0
  -25.2780  -27.7520   23.2220 O   0  0  0  0  0  0  0  0  0  0  0  0
  -22.8380  -28.0510   21.2650 H   0  0  0  0  0  0  0  0  0  0  0  0
  -20.5140  -25.4260   21.9540 C   0  0  0  0  0  0  0  0  0  0  0  0
  -22.7920  -26.4430   22.6340 C   0  0  0  0  0  3  0  0  0  0  0  0
  -23.4230  -25.1520   22.0680 C   0  0  0  0  0  2  0  0  0  0  0  0
  -22.6410  -24.5630   20.8900 C   0  0  0  0  0  2  0  0  0  0  0  0
  -21.2030  -24.2360   21.3050 C   0  0  0  0  0  2  0  0  0  0  0  0
  -21.2620  -26.4670   22.5640 C   0  0  0  0  0  0  0  0  0  0  0  0
  -20.5730  -27.5650   23.1250 C   0  0  0  0  0  3  0  0  0  0  0  0
  -19.1670  -27.6320   23.0830 C   0  0  0  0  0  3  0  0  0  0  0  0
  -18.4320  -26.5900   22.4930 C   0  0  0  0  0  3  0  0  0  0  0  0
  -19.1050  -25.4880   21.9350 C   0  0  0  0  0  3  0  0  0  0  0  0
  -26.6110  -31.8660   24.1070 C   0  0  0  0  0  3  0  0  0  0  0  0
  -27.1320  -31.2050   25.4420 C   0  0  1  0  0  0  0  0  0  0  0  0
  -25.9990  -30.6730   26.3490 C   0  0  0  0  0  1  0  0  0  0  0  0
  -28.0860  -30.0250   25.1380 C   0  0  0  0  0  1  0  0  0  0  0  0
  -27.9520  -32.2340   26.2540 C   0  0  0  0  0  1  0  0  0  0  0  0
  -25.9470  -33.1480   24.3820 N   0  0  0  0  0  0  0  0  0  0  0  0
  -26.1320  -34.2670   23.6700 C   0  0  0  0  0  0  0  0  0  0  0  0
  -26.9500  -34.3490   22.7500 O   0  0  0  0  0  0  0  0  0  0  0  0
  -25.2240  -33.1440   25.0870 H   0  0  0  0  0  0  0  0  0  0  0  0
  -24.1060  -35.6150   23.0440 C   0  0  0  0  0  1  0  0  0  0  0  0
  -25.2680  -35.4900   24.0410 C   0  0  0  0  0  3  0  0  0  0  0  0
  -26.9890  -36.8090   25.1870 C   0  0  0  0  0  1  0  0  0  0  0  0
  -26.0320  -36.7540   24.0840 N   0  0  0  0  0  0  0  0  0  0  0  0
  -25.4080  -37.5520   24.1670 H   0  0  0  0  0  0  0  0  0  0  0  0
  -29.1650  -21.9380   23.8630 C   0  0  0  0  0  2  0  0  0  0  0  0
  -30.4790  -21.7650   23.2310 N   0  0  0  0  0  0  0  0  0  0  0  0
  -31.1860  -21.6710   23.9610 H   0  0  0  0  0  0  0  0  0  0  0  0
  -30.5290  -20.6190   22.3100 C   0  0  0  0  0  2  0  0  0  0  0  0
  -31.9180  -20.4230   21.6550 C   0  0  0  0  0  2  0  0  0  0  0  0
  -32.0520  -19.0690   21.0630 N   0  0  0  0  0  4  0  0  0  0  0  0
  -32.0630  -18.3990   21.8130 H   0  0  0  0  0  0  0  0  0  0  0  0
  -31.2440  -18.8830   20.4910 H   0  0  0  0  0  0  0  0  0  0  0  0
  -33.2660  -18.8620   20.2420 C   0  0  0  0  0  2  0  0  0  0  0  0
  -33.7960  -17.4110   20.3170 C   0  0  0  0  0  2  0  0  0  0  0  0
  -32.7830  -15.5180   19.0610 C   0  0  0  0  0  0  0  0  0  0  0  0
  -32.3480  -13.1400   18.5840 C   0  0  0  0  0  2  0  0  0  0  0  0
  -31.3270  -12.8870   17.4640 C   0  0  0  0  0  2  0  0  0  0  0  0
  -29.9000  -12.8730   18.0350 C   0  0  0  0  0  2  0  0  0  0  0  0
  -29.6030  -14.1240   18.8990 C   0  0  0  0  0  3  0  0  0  0  0  0
  -30.7220  -14.3710   19.9400 C   0  0  0  0  0  2  0  0  0  0  0  0
  -32.0300  -14.4080   19.2570 N   0  0  0  0  0  0  0  0  0  0  0  0
  -33.5890  -15.6470   18.1360 O   0  0  0  0  0  0  0  0  0  0  0  0
  -32.7770  -16.3760   20.0910 N   0  0  0  0  0  0  0  0  0  0  0  0
  -32.1990  -16.1120   20.8760 H   0  0  0  0  0  0  0  0  0  0  0  0
  -27.4140  -15.0360   19.9100 C   0  0  0  0  0  0  0  0  0  0  0  0
  -26.2900  -14.4070   20.3790 C   0  0  0  0  0  0  0  0  0  0  0  0
  -26.5380  -13.0080   20.2460 C   0  0  0  0  0  0  0  0  0  0  0  0
  -28.2850  -14.0270   19.5290 N   0  0  0  0  0  0  0  0  0  0  0  0
  -27.7640  -12.7990   19.7830 N   0  0  0  0  0  0  0  0  0  0  0  0
  -25.6570  -11.8550   20.4810 C   0  0  0  0  0  0  0  0  0  0  0  0
  -25.9380  -10.9070   21.4900 C   0  0  0  0  0  3  0  0  0  0  0  0
  -25.0680   -9.8180   21.7120 C   0  0  0  0  0  3  0  0  0  0  0  0
  -23.9030   -9.6680   20.9220 C   0  0  0  0  0  0  0  0  0  0  0  0
  -23.6400  -10.6030   19.9060 C   0  0  0  0  0  3  0  0  0  0  0  0
  -24.5080  -11.6830   19.6840 C   0  0  0  0  0  3  0  0  0  0  0  0
  -23.0150   -8.6270   21.0470 O   0  0  0  0  0  0  0  0  0  0  0  0
  -22.6600   -8.1250   22.2740 C   0  0  0  0  0  0  0  0  0  0  0  0
  -22.0890   -8.9420   23.2760 C   0  0  0  0  0  3  0  0  0  0  0  0
  -21.6760   -8.3730   24.4960 C   0  0  0  0  0  3  0  0  0  0  0  0
  -21.8210   -6.9900   24.7140 C   0  0  0  0  0  0  0  0  0  0  0  0
  -22.3820   -6.1750   23.7160 C   0  0  0  0  0  3  0  0  0  0  0  0
  -22.7980   -6.7410   22.4980 C   0  0  0  0  0  0  0  0  0  0  0  0
  -23.3190   -5.9480   21.5310 F   0  0  0  0  0  0  0  0  0  0  0  0
  -21.4150   -6.4410   25.8830 F   0  0  0  0  0  0  0  0  0  0  0  0
  -25.0210  -15.0670   20.8370 C   0  0  0  0  0  0  0  0  0  0  0  0
  -24.3330  -14.4660   21.8000 N   0  0  0  0  0  0  0  0  0  0  0  0
  -24.6580  -16.1470   20.3750 O   0  0  0  0  0  0  0  0  0  0  0  0
  -24.6430  -13.5900   22.1950 H   0  0  0  0  0  0  0  0  0  0  0  0
  -23.4850  -14.8880   22.1510 H   0  0  0  0  0  0  0  0  0  0  0  0
  -27.7590  -16.3750   19.7620 N   0  0  0  0  0  0  0  0  0  0  0  0
  -27.1160  -17.1280   19.9850 H   0  0  0  0  0  0  0  0  0  0  0  0
  -28.6290  -16.7050   19.3610 H   0  0  0  0  0  0  0  0  0  0  0  0
  2  1  1  0
  2  4  1  0
  3  2  1  0
  5  4  1  0
  6  5  1  0
  7  6  1  0
  8  7  1  0
  9  8  1  0
 10 21  2  0
 11  9  1  0
 11 16  1  0
 12 20  1  0
 12 22  1  0
 13 15  1  0
 14 20  1  0
 15 16  2  0
 15 14  1  0
 17 11  2  0
 18 17  1  0
 18 13  2  0
 19 13  1  0
 19 12  1  0
 20 10  1  0
 22 24  2  0
 23 22  1  0
 25 23  1  0
 26 31  1  0
 27 23  1  0
 28 27  1  0
 29 30  1  0
 29 28  1  0
 30 26  1  0
 31 27  1  0
 31 32  2  0
 33 32  1  0
 34 33  2  0
 35 26  2  0
 35 34  1  0
 36 10  1  0
 36 41  1  0
 36 37  1  0
 37 40  1  1
 37 38  1  0
 39 37  1  0
 41 44  1  0
 42 46  1  0
 42 41  1  0
 43 42  2  0
 46 45  1  0
 46 48  1  0
 48 49  1  0
 48 47  1  0
 50  1  1  0
 51 50  1  0
 51 52  1  0
 53 51  1  0
 54 53  1  0
 55 54  1  0
 55 56  1  0
 57 55  1  0
 58 59  1  0
 58 55  1  0
 60 66  1  0
 60 68  1  0
 61 66  1  0
 62 63  1  0
 62 61  1  0
 64 63  1  0
 64 73  1  0
 64 65  1  0
 66 65  1  0
 67 60  2  0
 68 59  1  0
 68 69  1  0
 70 71  2  0
 71 90  1  0
 72 71  1  0
 72 75  1  0
 73 74  1  0
 73 70  1  0
 74 72  2  0
 75 76  1  0
 76 77  2  0
 78 81  1  0
 78 77  1  0
 79 78  2  0
 80 79  1  0
 80 75  2  0
 81 82  1  0
 82 87  2  0
 82 83  1  0
 83 84  2  0
 84 85  1  0
 85 89  1  0
 86 85  2  0
 87 86  1  0
 88 87  1  0
 90 91  1  0
 91 94  1  0
 91 93  1  0
 92 90  2  0
 95 70  1  0
 95 96  1  0
 97 95  1  0
M  ISO  4   8 101   9 101  60 100  68 100
M  END
>  <TORSDO>  (13) 
F 29

>  <SCORE>  (13) 
-2.567

>  <name>  (13) 
12

>  <ligand_id>  (13) 
12

>  <original_smiles>  (13) 
[H]c1c([H])c([H])c2c(c1[H])C([H])([H])C([H])([H])C([H])([H])C2([H])N([H])C(=O)C1([H])N(C(=O)C([H])(N([H])C(=O)C([H])(N([H])C([H])([H])[H])C([H])([H])[H])C(C([H])([H])[H])(C([H])([H])[H])C([H])([H])[H])C([H])([H])c2c([H])c(OC([H])([H])C([H])([H])OC([H])([H])C([H])([H])N([H])C([H])([H])C([H])([H])N([H])C([H])([H])C([H])([H])[N+]([H])([H])C([H])([H])C([H])([H])N([H])C(=O)N3C([H])([H])C([H])([H])C([H])([H])C([H])(n4nc(-c5c([H])c([H])c(Oc6c([H])c([H])c(F)c([H])c6F)c([H])c5[H])c(C(=O)N([H])[H])c4N([H])[H])C3([H])[H])c([H])c([H])c2C1([H])[H]

>  <smiles>  (13) 
[H]c1c([H])c([H])c2c(c1[H])C([H])([H])C([H])([H])C([H])([H])C2([H])N([H])C(=O)C1([H])N(C(=O)C([H])(N([H])C(=O)C([H])(N([H])C([H])([H])[H])C([H])([H])[H])C(C([H])([H])[H])(C([H])([H])[H])C([H])([H])[H])C([H])([H])c2c([H])c(OC([H])([H])C([H])([H])OC([H])([H])C([H])([H])N([H])C([H])([H])C([H])([H])N([H])C([H])([H])C([H])([H])[N+]([H])([H])C([H])([H])C([H])([H])N([H])C(=O)N3C([H])([H])C([H])([H])C([H])([H])C([H])(n4nc(-c5c([H])c([H])c(Oc6c([H])c([H])c(F)c([H])c6F)c([H])c5[H])c(C(=O)N([H])[H])c4N([H])[H])C3([H])[H])c([H])c([H])c2C1([H])[H]

$$$$
13:0:0
     RDKit          3D

 92 99  0  0  1  0  0  0  0  0999 V2000
  -30.6930  -22.4050   20.8030 C   0  0  0  0  0  2  0  0  0  0  0  0
  -29.4550  -23.1680   20.5170 N   0  0  0  0  0  4  0  0  0  0  0  0
  -28.7860  -22.9730   21.2460 H   0  0  0  0  0  0  0  0  0  0  0  0
  -29.0670  -22.8270   19.6500 H   0  0  0  0  0  0  0  0  0  0  0  0
  -29.6240  -24.6440   20.4230 C   0  0  0  0  0  2  0  0  0  0  0  0
  -28.3000  -25.3340   20.0460 C   0  0  0  0  0  2  0  0  0  0  0  0
  -28.3910  -26.7570   20.1710 O   0  0  0  0  0  0  0  0  0  0  0  0
  -24.5800  -31.9000   23.2520 C   0  0  0  0  0  0  0  0  0  0  0  0
  -27.2010  -27.4580   20.1600 C   0  0  0  0  0  0  0  0  0  0  0  0
  -23.3630  -30.5030   21.6160 C   0  0  0  0  0  3  0  0  0  0  0  0
  -24.8030  -28.9630   20.1850 C   0  0  0  0  0  0  0  0  0  0  0  0
  -25.8870  -30.8580   21.4040 C   0  0  0  0  0  2  0  0  0  0  0  0
  -25.9660  -29.4870   20.7650 C   0  0  0  0  0  0  0  0  0  0  0  0
  -27.1660  -28.7440   20.7450 C   0  0  0  0  0  3  0  0  0  0  0  0
  -26.0150  -26.9440   19.5780 C   0  0  0  0  0  3  0  0  0  0  0  0
  -24.8230  -27.6910   19.5890 C   0  0  0  0  0  3  0  0  0  0  0  0
  -23.5620  -29.8230   20.2350 C   0  0  0  0  0  2  0  0  0  0  0  0
  -24.6290  -31.1030   22.1490 N   0  0  0  0  0  0  0  0  0  0  0  0
  -23.5020  -32.1770   23.7980 O   0  0  0  0  0  0  0  0  0  0  0  0
  -22.7110  -29.4840   22.5790 C   0  0  0  0  0  0  0  0  0  0  0  0
  -21.3860  -29.3030   22.4530 N   0  0  0  0  0  0  0  0  0  0  0  0
  -23.3930  -28.8570   23.3920 O   0  0  0  0  0  0  0  0  0  0  0  0
  -20.8960  -29.8610   21.7680 H   0  0  0  0  0  0  0  0  0  0  0  0
  -18.0090  -28.1140   22.9470 C   0  0  0  0  0  0  0  0  0  0  0  0
  -20.5670  -28.3670   23.2220 C   0  0  0  0  0  3  0  0  0  0  0  0
  -20.6670  -26.9350   22.6490 C   0  0  0  0  0  2  0  0  0  0  0  0
  -19.5660  -26.6130   21.6340 C   0  0  0  0  0  2  0  0  0  0  0  0
  -18.1820  -26.7610   22.2760 C   0  0  0  0  0  2  0  0  0  0  0  0
  -19.1290  -28.8740   23.3750 C   0  0  0  0  0  0  0  0  0  0  0  0
  -18.9140  -30.1390   23.9630 C   0  0  0  0  0  3  0  0  0  0  0  0
  -17.6110  -30.6460   24.1280 C   0  0  0  0  0  3  0  0  0  0  0  0
  -16.5040  -29.8830   23.7140 C   0  0  0  0  0  3  0  0  0  0  0  0
  -16.7040  -28.6200   23.1300 C   0  0  0  0  0  3  0  0  0  0  0  0
  -25.8690  -32.5250   23.8670 C   0  0  0  0  0  3  0  0  0  0  0  0
  -25.5690  -33.9230   24.1980 N   0  0  0  0  0  0  0  0  0  0  0  0
  -25.9040  -34.9730   23.4380 C   0  0  0  0  0  0  0  0  0  0  0  0
  -26.5690  -34.8670   22.4030 O   0  0  0  0  0  0  0  0  0  0  0  0
  -24.9790  -34.0790   25.0010 H   0  0  0  0  0  0  0  0  0  0  0  0
  -24.1800  -36.7710   23.0870 C   0  0  0  0  0  1  0  0  0  0  0  0
  -25.4230  -36.3640   23.8930 C   0  0  0  0  0  3  0  0  0  0  0  0
  -27.5650  -37.2420   24.7090 C   0  0  0  0  0  1  0  0  0  0  0  0
  -26.4590  -37.4130   23.7720 N   0  0  0  0  0  0  0  0  0  0  0  0
  -26.0590  -38.3350   23.9190 H   0  0  0  0  0  0  0  0  0  0  0  0
  -26.3910  -31.7480   25.1370 C   0  0  1  0  0  0  0  0  0  0  0  0
  -25.3050  -31.5120   26.2120 C   0  0  0  0  0  1  0  0  0  0  0  0
  -26.9670  -30.3690   24.7350 C   0  0  0  0  0  1  0  0  0  0  0  0
  -27.5490  -32.5370   25.7940 C   0  0  0  0  0  1  0  0  0  0  0  0
  -30.4130  -20.9060   21.0740 C   0  0  0  0  0  2  0  0  0  0  0  0
  -31.7000  -20.0750   21.2730 C   0  0  0  0  0  2  0  0  0  0  0  0
  -30.9450  -17.6680   21.2140 C   0  0  0  0  0  0  0  0  0  0  0  0
  -31.4570  -18.7420   21.8340 N   0  0  0  0  0  0  0  0  0  0  0  0
  -30.5160  -17.7000   20.0590 O   0  0  0  0  0  0  0  0  0  0  0  0
  -31.7690  -18.5990   22.7870 H   0  0  0  0  0  0  0  0  0  0  0  0
  -30.9330  -16.3690   22.0370 C   0  0  0  0  0  2  0  0  0  0  0  0
  -30.7260  -14.4190   20.4770 C   0  0  0  0  0  0  0  0  0  0  0  0
  -30.3490  -12.3500   19.1790 C   0  0  0  0  0  2  0  0  0  0  0  0
  -29.3980  -12.5870   17.9910 C   0  0  0  0  0  2  0  0  0  0  0  0
  -27.9290  -12.4480   18.4310 C   0  0  0  0  0  2  0  0  0  0  0  0
  -27.6080  -13.2660   19.7110 C   0  0  0  0  0  3  0  0  0  0  0  0
  -28.6630  -12.9970   20.8050 C   0  0  0  0  0  2  0  0  0  0  0  0
  -29.9930  -13.2960   20.2460 N   0  0  0  0  0  0  0  0  0  0  0  0
  -31.7850  -14.6660   19.8940 O   0  0  0  0  0  0  0  0  0  0  0  0
  -30.2370  -15.2330   21.4210 N   0  0  0  0  0  0  0  0  0  0  0  0
  -29.3360  -14.9920   21.8030 H   0  0  0  0  0  0  0  0  0  0  0  0
  -25.2100  -13.8920   20.4070 C   0  0  0  0  0  0  0  0  0  0  0  0
  -24.1380  -13.1290   20.7870 C   0  0  0  0  0  0  0  0  0  0  0  0
  -24.5960  -11.7740   20.7740 C   0  0  0  0  0  0  0  0  0  0  0  0
  -26.2520  -13.0040   20.1890 N   0  0  0  0  0  0  0  0  0  0  0  0
  -25.8860  -11.7270   20.4690 N   0  0  0  0  0  0  0  0  0  0  0  0
  -23.8670  -10.5170   20.9810 C   0  0  0  0  0  0  0  0  0  0  0  0
  -24.3020   -9.5570   21.9210 C   0  0  0  0  0  3  0  0  0  0  0  0
  -23.5740   -8.3630   22.1140 C   0  0  0  0  0  3  0  0  0  0  0  0
  -22.3970   -8.1220   21.3660 C   0  0  0  0  0  0  0  0  0  0  0  0
  -21.9820   -9.0710   20.4140 C   0  0  0  0  0  3  0  0  0  0  0  0
  -22.7100  -10.2550   20.2200 C   0  0  0  0  0  3  0  0  0  0  0  0
  -21.6390   -6.9790   21.4680 O   0  0  0  0  0  0  0  0  0  0  0  0
  -21.6010   -6.2410   22.6230 C   0  0  0  0  0  0  0  0  0  0  0  0
  -21.2030   -6.8050   23.8550 C   0  0  0  0  0  3  0  0  0  0  0  0
  -21.1120   -5.9940   25.0040 C   0  0  0  0  0  3  0  0  0  0  0  0
  -21.4080   -4.6190   24.9210 C   0  0  0  0  0  0  0  0  0  0  0  0
  -21.8000   -4.0560   23.6940 C   0  0  0  0  0  3  0  0  0  0  0  0
  -21.8930   -4.8650   22.5480 C   0  0  0  0  0  0  0  0  0  0  0  0
  -22.2510   -4.3130   21.3630 F   0  0  0  0  0  0  0  0  0  0  0  0
  -21.3140   -3.8380   26.0220 F   0  0  0  0  0  0  0  0  0  0  0  0
  -22.7420  -13.6120   21.0520 C   0  0  0  0  0  0  0  0  0  0  0  0
  -22.0110  -12.9280   21.9250 N   0  0  0  0  0  0  0  0  0  0  0  0
  -22.3070  -14.6340   20.5220 O   0  0  0  0  0  0  0  0  0  0  0  0
  -22.3740  -12.1040   22.3800 H   0  0  0  0  0  0  0  0  0  0  0  0
  -21.0740  -13.2350   22.1430 H   0  0  0  0  0  0  0  0  0  0  0  0
  -25.3800  -15.2590   20.2100 N   0  0  0  0  0  0  0  0  0  0  0  0
  -24.6160  -15.9200   20.2990 H   0  0  0  0  0  0  0  0  0  0  0  0
  -26.2370  -15.6880   19.8800 H   0  0  0  0  0  0  0  0  0  0  0  0
  1 48  1  0
  2  1  1  0
  2  3  1  0
  4  2  1  0
  5  2  1  0
  6  7  1  0
  6  5  1  0
  8 19  2  0
  9  7  1  0
  9 14  1  0
 10 18  1  0
 10 20  1  0
 11 17  1  0
 11 13  1  0
 12 18  1  0
 13 12  1  0
 14 13  2  0
 15 16  1  0
 15  9  2  0
 16 11  2  0
 17 10  1  0
 18  8  1  0
 20 22  2  0
 21 20  1  0
 23 21  1  0
 24 33  2  0
 24 29  1  0
 25 21  1  0
 25 29  1  0
 26 25  1  0
 27 28  1  0
 27 26  1  0
 28 24  1  0
 29 30  2  0
 30 31  1  0
 32 31  2  0
 33 32  1  0
 34  8  1  0
 34 35  1  0
 34 44  1  0
 35 38  1  0
 36 40  1  0
 36 35  1  0
 37 36  2  0
 40 39  1  0
 42 40  1  0
 42 43  1  0
 42 41  1  0
 44 47  1  1
 44 45  1  0
 46 44  1  0
 48 49  1  0
 49 51  1  0
 50 51  1  0
 50 54  1  0
 51 53  1  0
 52 50  2  0
 55 63  1  0
 56 61  1  0
 57 58  1  0
 57 56  1  0
 59 58  1  0
 59 68  1  0
 59 60  1  0
 61 55  1  0
 61 60  1  0
 62 55  2  0
 63 64  1  0
 63 54  1  0
 65 66  2  0
 66 85  1  0
 67 66  1  0
 67 70  1  0
 68 65  1  0
 68 69  1  0
 69 67  2  0
 70 71  1  0
 71 72  2  0
 73 76  1  0
 73 72  1  0
 74 73  2  0
 75 74  1  0
 75 70  2  0
 76 77  1  0
 77 78  1  0
 78 79  2  0
 80 79  1  0
 80 84  1  0
 81 80  2  0
 82 77  2  0
 82 81  1  0
 83 82  1  0
 85 86  1  0
 86 89  1  0
 86 88  1  0
 87 85  2  0
 90 91  1  0
 90 65  1  0
 92 90  1  0
M  ISO  4   6 101   7 101  55 100  63 100
M  END
>  <TORSDO>  (14) 
F 23

>  <SCORE>  (14) 
-12.781

>  <name>  (14) 
13

>  <ligand_id>  (14) 
13

>  <original_smiles>  (14) 
[H]c1c([H])c([H])c2c(c1[H])C([H])([H])C([H])([H])C([H])([H])C2([H])N([H])C(=O)C1([H])N(C(=O)C([H])(N([H])C(=O)C([H])(N([H])C([H])([H])[H])C([H])([H])[H])C(C([H])([H])[H])(C([H])([H])[H])C([H])([H])[H])C([H])([H])c2c([H])c(OC([H])([H])C([H])([H])[N+]([H])([H])C([H])([H])C([H])([H])C([H])([H])N([H])C(=O)C([H])([H])N([H])C(=O)N3C([H])([H])C([H])([H])C([H])([H])C([H])(n4nc(-c5c([H])c([H])c(Oc6c([H])c([H])c(F)c([H])c6F)c([H])c5[H])c(C(=O)N([H])[H])c4N([H])[H])C3([H])[H])c([H])c([H])c2C1([H])[H]

>  <smiles>  (14) 
[H]c1c([H])c([H])c2c(c1[H])C([H])([H])C([H])([H])C([H])([H])C2([H])N([H])C(=O)C1([H])N(C(=O)C([H])(N([H])C(=O)C([H])(N([H])C([H])([H])[H])C([H])([H])[H])C(C([H])([H])[H])(C([H])([H])[H])C([H])([H])[H])C([H])([H])c2c([H])c(OC([H])([H])C([H])([H])[N+]([H])([H])C([H])([H])C([H])([H])C([H])([H])N([H])C(=O)C([H])([H])N([H])C(=O)N3C([H])([H])C([H])([H])C([H])([H])C([H])(n4nc(-c5c([H])c([H])c(Oc6c([H])c([H])c(F)c([H])c6F)c([H])c5[H])c(C(=O)N([H])[H])c4N([H])[H])C3([H])[H])c([H])c([H])c2C1([H])[H]

$$$$
14:0:0
     RDKit          3D

 89 96  0  0  1  0  0  0  0  0999 V2000
  -29.4340  -20.6870   20.9780 C   0  0  0  0  0  0  0  0  0  0  0  0
  -29.4630  -21.8970   20.3850 N   0  0  0  0  0  0  0  0  0  0  0  0
  -28.9830  -20.5490   22.1190 O   0  0  0  0  0  0  0  0  0  0  0  0
  -29.8670  -21.9830   19.4600 H   0  0  0  0  0  0  0  0  0  0  0  0
  -29.9570  -19.5910   20.1670 C   0  0  0  0  0  3  0  0  0  0  0  0
  -29.9810  -18.3250   20.6530 C   0  0  0  0  0  3  0  0  0  0  0  0
  -30.5550  -17.1090   19.9320 C   0  0  0  0  0  2  0  0  0  0  0  0
  -30.8110  -14.6580   20.1910 C   0  0  0  0  0  0  0  0  0  0  0  0
  -30.4520  -12.4650   19.1430 C   0  0  0  0  0  2  0  0  0  0  0  0
  -29.4950  -12.6530   17.9490 C   0  0  0  0  0  2  0  0  0  0  0  0
  -28.0300  -12.5160   18.4160 C   0  0  0  0  0  2  0  0  0  0  0  0
  -27.7130  -13.3790   19.6690 C   0  0  0  0  0  3  0  0  0  0  0  0
  -28.8010  -13.2160   20.7550 C   0  0  0  0  0  2  0  0  0  0  0  0
  -30.1070  -13.4910   20.1390 N   0  0  0  0  0  0  0  0  0  0  0  0
  -31.9650  -14.7460   19.7700 O   0  0  0  0  0  0  0  0  0  0  0  0
  -30.1150  -15.7880   20.4470 N   0  0  0  0  0  0  0  0  0  0  0  0
  -29.1670  -15.6910   20.7810 H   0  0  0  0  0  0  0  0  0  0  0  0
  -25.3410  -13.9620   20.4780 C   0  0  0  0  0  0  0  0  0  0  0  0
  -24.2870  -13.1800   20.8670 C   0  0  0  0  0  0  0  0  0  0  0  0
  -24.7500  -11.8300   20.7960 C   0  0  0  0  0  0  0  0  0  0  0  0
  -26.3790  -13.0890   20.1930 N   0  0  0  0  0  0  0  0  0  0  0  0
  -26.0290  -11.7990   20.4480 N   0  0  0  0  0  0  0  0  0  0  0  0
  -24.0320  -10.5630   20.9880 C   0  0  0  0  0  0  0  0  0  0  0  0
  -24.4710   -9.5980   21.9210 C   0  0  0  0  0  3  0  0  0  0  0  0
  -23.7540   -8.3940   22.0990 C   0  0  0  0  0  3  0  0  0  0  0  0
  -22.5820   -8.1490   21.3410 C   0  0  0  0  0  0  0  0  0  0  0  0
  -22.1600   -9.1040   20.4000 C   0  0  0  0  0  3  0  0  0  0  0  0
  -22.8790  -10.2980   20.2210 C   0  0  0  0  0  3  0  0  0  0  0  0
  -21.8340   -6.9990   21.4290 O   0  0  0  0  0  0  0  0  0  0  0  0
  -21.7690   -6.2700   22.5910 C   0  0  0  0  0  0  0  0  0  0  0  0
  -21.2750   -6.8230   23.7910 C   0  0  0  0  0  3  0  0  0  0  0  0
  -21.1570   -6.0180   24.9430 C   0  0  0  0  0  3  0  0  0  0  0  0
  -21.5240   -4.6600   24.8930 C   0  0  0  0  0  0  0  0  0  0  0  0
  -22.0120   -4.1050   23.6970 C   0  0  0  0  0  3  0  0  0  0  0  0
  -22.1310   -4.9090   22.5480 C   0  0  0  0  0  0  0  0  0  0  0  0
  -22.5810   -4.3630   21.3930 F   0  0  0  0  0  0  0  0  0  0  0  0
  -21.4070   -3.8830   25.9960 F   0  0  0  0  0  0  0  0  0  0  0  0
  -22.8970  -13.6510   21.1880 C   0  0  0  0  0  0  0  0  0  0  0  0
  -22.1890  -12.9370   22.0560 N   0  0  0  0  0  0  0  0  0  0  0  0
  -22.4450  -14.6860   20.7050 O   0  0  0  0  0  0  0  0  0  0  0  0
  -22.5680  -12.1020   22.4800 H   0  0  0  0  0  0  0  0  0  0  0  0
  -21.2590  -13.2380   22.3110 H   0  0  0  0  0  0  0  0  0  0  0  0
  -25.4970  -15.3370   20.3220 N   0  0  0  0  0  0  0  0  0  0  0  0
  -24.7280  -15.9840   20.4640 H   0  0  0  0  0  0  0  0  0  0  0  0
  -26.3310  -15.7870   19.9670 H   0  0  0  0  0  0  0  0  0  0  0  0
  -28.8290  -23.0890   20.9810 C   0  0  0  0  0  2  0  0  0  0  0  0
  -29.1590  -24.4370   20.2900 C   0  0  0  0  0  2  0  0  0  0  0  0
  -28.4000  -25.6190   20.9410 C   0  0  0  0  0  2  0  0  0  0  0  0
  -28.4740  -26.8340   20.1780 O   0  0  0  0  0  0  0  0  0  0  0  0
  -24.6110  -31.9760   23.2410 C   0  0  0  0  0  0  0  0  0  0  0  0
  -27.3080  -27.5650   20.1760 C   0  0  0  0  0  0  0  0  0  0  0  0
  -23.4190  -30.5550   21.6030 C   0  0  0  0  0  3  0  0  0  0  0  0
  -24.8910  -29.0310   20.1800 C   0  0  0  0  0  0  0  0  0  0  0  0
  -25.9370  -30.9480   21.4000 C   0  0  0  0  0  2  0  0  0  0  0  0
  -26.0400  -29.5770   20.7680 C   0  0  0  0  0  0  0  0  0  0  0  0
  -27.2540  -28.8510   20.7630 C   0  0  0  0  0  3  0  0  0  0  0  0
  -26.1440  -27.0330   19.5840 C   0  0  0  0  0  3  0  0  0  0  0  0
  -24.9350  -27.7570   19.5890 C   0  0  0  0  0  3  0  0  0  0  0  0
  -23.6320  -29.8680   20.2280 C   0  0  0  0  0  2  0  0  0  0  0  0
  -24.6720  -31.1760   22.1390 N   0  0  0  0  0  0  0  0  0  0  0  0
  -23.5280  -32.2350   23.7850 O   0  0  0  0  0  0  0  0  0  0  0  0
  -22.7880  -29.5270   22.5680 C   0  0  0  0  0  0  0  0  0  0  0  0
  -21.4660  -29.3210   22.4380 N   0  0  0  0  0  0  0  0  0  0  0  0
  -23.4770  -28.9230   23.3910 O   0  0  0  0  0  0  0  0  0  0  0  0
  -20.9690  -29.8540   21.7370 H   0  0  0  0  0  0  0  0  0  0  0  0
  -18.1140  -28.0800   22.9420 C   0  0  0  0  0  0  0  0  0  0  0  0
  -20.6670  -28.3760   23.2150 C   0  0  0  0  0  3  0  0  0  0  0  0
  -20.7910  -26.9440   22.6440 C   0  0  0  0  0  2  0  0  0  0  0  0
  -19.6940  -26.6020   21.6300 C   0  0  0  0  0  2  0  0  0  0  0  0
  -18.3110  -26.7290   22.2710 C   0  0  0  0  0  2  0  0  0  0  0  0
  -19.2210  -28.8560   23.3710 C   0  0  0  0  0  0  0  0  0  0  0  0
  -18.9830  -30.1190   23.9580 C   0  0  0  0  0  3  0  0  0  0  0  0
  -17.6710  -30.6020   24.1230 C   0  0  0  0  0  3  0  0  0  0  0  0
  -16.5790  -29.8200   23.7110 C   0  0  0  0  0  3  0  0  0  0  0  0
  -16.8010  -28.5610   23.1240 C   0  0  0  0  0  3  0  0  0  0  0  0
  -25.8900  -32.6230   23.8560 C   0  0  0  0  0  3  0  0  0  0  0  0
  -25.5710  -34.0210   24.1710 N   0  0  0  0  0  0  0  0  0  0  0  0
  -25.9030  -35.0680   23.4040 C   0  0  0  0  0  0  0  0  0  0  0  0
  -26.5830  -34.9600   22.3790 O   0  0  0  0  0  0  0  0  0  0  0  0
  -24.9660  -34.1780   24.9640 H   0  0  0  0  0  0  0  0  0  0  0  0
  -24.1780  -36.8530   23.0050 C   0  0  0  0  0  1  0  0  0  0  0  0
  -25.4020  -36.4570   23.8450 C   0  0  0  0  0  3  0  0  0  0  0  0
  -27.5160  -37.3510   24.7200 C   0  0  0  0  0  1  0  0  0  0  0  0
  -26.4330  -37.5130   23.7540 N   0  0  0  0  0  0  0  0  0  0  0  0
  -26.0190  -38.4310   23.8920 H   0  0  0  0  0  0  0  0  0  0  0  0
  -26.4210  -31.8690   25.1370 C   0  0  1  0  0  0  0  0  0  0  0  0
  -25.3340  -31.6300   26.2100 C   0  0  0  0  0  1  0  0  0  0  0  0
  -27.0210  -30.4950   24.7570 C   0  0  0  0  0  1  0  0  0  0  0  0
  -27.5630  -32.6870   25.7900 C   0  0  0  0  0  1  0  0  0  0  0  0
  1  3  2  0
  2  1  1  0
  2 46  1  0
  4  2  1  0
  5  6  2  0
  5  1  1  0
  7 16  1  0
  7  6  1  0
  8 16  1  0
  9 14  1  0
 10 11  1  0
 10  9  1  0
 12 11  1  0
 12 21  1  0
 12 13  1  0
 14  8  1  0
 14 13  1  0
 15  8  2  0
 16 17  1  0
 18 19  2  0
 19 38  1  0
 20 19  1  0
 20 23  1  0
 21 22  1  0
 21 18  1  0
 22 20  2  0
 23 24  1  0
 24 25  2  0
 26 29  1  0
 26 25  1  0
 27 26  2  0
 28 27  1  0
 28 23  2  0
 29 30  1  0
 30 31  1  0
 31 32  2  0
 33 32  1  0
 33 37  1  0
 34 33  2  0
 35 30  2  0
 35 34  1  0
 36 35  1  0
 38 39  1  0
 39 42  1  0
 39 41  1  0
 40 38  2  0
 43 44  1  0
 43 18  1  0
 45 43  1  0
 47 48  1  0
 47 46  1  0
 49 48  1  0
 50 61  2  0
 51 49  1  0
 51 56  1  0
 52 60  1  0
 52 62  1  0
 53 59  1  0
 53 55  1  0
 54 60  1  0
 55 54  1  0
 56 55  2  0
 57 58  1  0
 57 51  2  0
 58 53  2  0
 59 52  1  0
 60 50  1  0
 62 64  2  0
 63 62  1  0
 65 63  1  0
 66 75  2  0
 66 71  1  0
 67 63  1  0
 67 71  1  0
 68 67  1  0
 69 70  1  0
 69 68  1  0
 70 66  1  0
 71 72  2  0
 72 73  1  0
 74 73  2  0
 75 74  1  0
 76 50  1  0
 76 77  1  0
 76 86  1  0
 77 80  1  0
 78 82  1  0
 78 77  1  0
 79 78  2  0
 82 81  1  0
 84 82  1  0
 84 85  1  0
 84 83  1  0
 86 89  1  1
 86 87  1  0
 88 86  1  0
M  ISO  4   8 100  16 100  48 101  49 101
M  END
>  <TORSDO>  (15) 
F 21

>  <SCORE>  (15) 
-12.853

>  <name>  (15) 
14

>  <ligand_id>  (15) 
14

>  <original_smiles>  (15) 
[H]C(C(=O)N([H])C([H])([H])C([H])([H])C([H])([H])Oc1c([H])c([H])c2c(c1[H])C([H])([H])N(C(=O)C([H])(N([H])C(=O)C([H])(N([H])C([H])([H])[H])C([H])([H])[H])C(C([H])([H])[H])(C([H])([H])[H])C([H])([H])[H])C([H])(C(=O)N([H])C1([H])c3c([H])c([H])c([H])c([H])c3C([H])([H])C([H])([H])C1([H])[H])C2([H])[H])=C([H])C([H])([H])N([H])C(=O)N1C([H])([H])C([H])([H])C([H])([H])C([H])(n2nc(-c3c([H])c([H])c(Oc4c([H])c([H])c(F)c([H])c4F)c([H])c3[H])c(C(=O)N([H])[H])c2N([H])[H])C1([H])[H]

>  <smiles>  (15) 
[H]C(C(=O)N([H])C([H])([H])C([H])([H])C([H])([H])Oc1c([H])c([H])c2c(c1[H])C([H])([H])N(C(=O)C([H])(N([H])C(=O)C([H])(N([H])C([H])([H])[H])C([H])([H])[H])C(C([H])([H])[H])(C([H])([H])[H])C([H])([H])[H])C([H])(C(=O)N([H])C1([H])c3c([H])c([H])c([H])c([H])c3C([H])([H])C([H])([H])C1([H])[H])C2([H])[H])=C([H])C([H])([H])N([H])C(=O)N1C([H])([H])C([H])([H])C([H])([H])C([H])(n2nc(-c3c([H])c([H])c(Oc4c([H])c([H])c(F)c([H])c4F)c([H])c3[H])c(C(=O)N([H])[H])c2N([H])[H])C1([H])[H]

$$$$
15:0:0
     RDKit          3D

 93100  0  0  1  0  0  0  0  0999 V2000
  -30.4760  -22.4100   20.8850 C   0  0  0  0  0  2  0  0  0  0  0  0
  -29.3010  -23.2020   20.4590 N   0  0  0  0  0  4  0  0  0  0  0  0
  -28.5450  -23.0000   21.0960 H   0  0  0  0  0  0  0  0  0  0  0  0
  -29.0200  -22.8790   19.5460 H   0  0  0  0  0  0  0  0  0  0  0  0
  -29.5070  -24.6710   20.4190 C   0  0  0  0  0  2  0  0  0  0  0  0
  -28.2460  -25.3960   19.9170 C   0  0  0  0  0  2  0  0  0  0  0  0
  -28.3360  -26.8070   20.1340 O   0  0  0  0  0  0  0  0  0  0  0  0
  -24.5130  -31.8990   23.2820 C   0  0  0  0  0  0  0  0  0  0  0  0
  -27.1490  -27.5100   20.1290 C   0  0  0  0  0  0  0  0  0  0  0  0
  -23.2990  -30.5160   21.6310 C   0  0  0  0  0  3  0  0  0  0  0  0
  -24.7450  -29.0030   20.1760 C   0  0  0  0  0  0  0  0  0  0  0  0
  -25.8220  -30.8880   21.4130 C   0  0  0  0  0  2  0  0  0  0  0  0
  -25.9050  -29.5240   20.7610 C   0  0  0  0  0  0  0  0  0  0  0  0
  -27.1090  -28.7850   20.7340 C   0  0  0  0  0  3  0  0  0  0  0  0
  -25.9660  -27.0020   19.5370 C   0  0  0  0  0  3  0  0  0  0  0  0
  -24.7690  -27.7400   19.5630 C   0  0  0  0  0  3  0  0  0  0  0  0
  -23.5000  -29.8580   20.2410 C   0  0  0  0  0  2  0  0  0  0  0  0
  -24.5640  -31.1130   22.1690 N   0  0  0  0  0  0  0  0  0  0  0  0
  -23.4350  -32.1630   23.8310 O   0  0  0  0  0  0  0  0  0  0  0  0
  -22.6570  -29.4780   22.5790 C   0  0  0  0  0  0  0  0  0  0  0  0
  -21.3390  -29.2720   22.4360 N   0  0  0  0  0  0  0  0  0  0  0  0
  -23.3420  -28.8610   23.4010 O   0  0  0  0  0  0  0  0  0  0  0  0
  -20.8460  -29.8250   21.7480 H   0  0  0  0  0  0  0  0  0  0  0  0
  -17.9790  -28.0170   22.8790 C   0  0  0  0  0  0  0  0  0  0  0  0
  -20.5280  -28.3200   23.1950 C   0  0  0  0  0  3  0  0  0  0  0  0
  -20.6670  -26.8910   22.6220 C   0  0  0  0  0  2  0  0  0  0  0  0
  -19.5870  -26.5480   21.5900 C   0  0  0  0  0  2  0  0  0  0  0  0
  -18.1910  -26.6690   22.2100 C   0  0  0  0  0  2  0  0  0  0  0  0
  -19.0780  -28.7990   23.3260 C   0  0  0  0  0  0  0  0  0  0  0  0
  -18.8280  -30.0580   23.9120 C   0  0  0  0  0  3  0  0  0  0  0  0
  -17.5130  -30.5380   24.0560 C   0  0  0  0  0  3  0  0  0  0  0  0
  -16.4290  -29.7550   23.6250 C   0  0  0  0  0  3  0  0  0  0  0  0
  -16.6620  -28.4960   23.0410 C   0  0  0  0  0  3  0  0  0  0  0  0
  -25.8010  -32.5250   23.9000 C   0  0  0  0  0  3  0  0  0  0  0  0
  -25.5100  -33.9330   24.1960 N   0  0  0  0  0  0  0  0  0  0  0  0
  -25.8480  -34.9620   23.4070 C   0  0  0  0  0  0  0  0  0  0  0  0
  -26.5090  -34.8240   22.3750 O   0  0  0  0  0  0  0  0  0  0  0  0
  -24.9230  -34.1160   24.9970 H   0  0  0  0  0  0  0  0  0  0  0  0
  -24.1250  -36.7540   23.0250 C   0  0  0  0  0  1  0  0  0  0  0  0
  -25.3760  -36.3660   23.8310 C   0  0  0  0  0  3  0  0  0  0  0  0
  -27.5240  -37.2600   24.6070 C   0  0  0  0  0  1  0  0  0  0  0  0
  -26.4130  -37.4090   23.6730 N   0  0  0  0  0  0  0  0  0  0  0  0
  -26.0150  -38.3360   23.7970 H   0  0  0  0  0  0  0  0  0  0  0  0
  -26.2950  -31.7720   25.1950 C   0  0  1  0  0  0  0  0  0  0  0  0
  -25.1870  -31.5660   26.2550 C   0  0  0  0  0  1  0  0  0  0  0  0
  -26.8670  -30.3830   24.8270 C   0  0  0  0  0  1  0  0  0  0  0  0
  -27.4430  -32.5670   25.8580 C   0  0  0  0  0  1  0  0  0  0  0  0
  -30.1360  -20.9120   21.0330 C   0  0  0  0  0  2  0  0  0  0  0  0
  -31.3670  -20.0510   21.3750 C   0  0  0  0  0  2  0  0  0  0  0  0
  -30.5700  -17.6650   21.2210 C   0  0  0  0  0  0  0  0  0  0  0  0
  -31.0290  -18.7260   21.8990 N   0  0  0  0  0  0  0  0  0  0  0  0
  -30.2440  -17.7230   20.0340 O   0  0  0  0  0  0  0  0  0  0  0  0
  -31.2480  -18.5650   22.8720 H   0  0  0  0  0  0  0  0  0  0  0  0
  -31.8210  -15.9270   22.6620 C   0  0  0  0  0  1  0  0  0  0  0  0
  -30.4820  -16.3480   22.0200 C   0  0  0  0  0  3  0  0  0  0  0  0
  -30.3390  -14.5130   20.2760 C   0  0  0  0  0  0  0  0  0  0  0  0
  -29.9580  -12.5200   18.8620 C   0  0  0  0  0  2  0  0  0  0  0  0
  -28.9250  -12.8180   17.7590 C   0  0  0  0  0  2  0  0  0  0  0  0
  -27.4910  -12.5960   18.2770 C   0  0  0  0  0  2  0  0  0  0  0  0
  -27.2330  -13.3000   19.6360 C   0  0  0  0  0  3  0  0  0  0  0  0
  -28.3640  -12.9840   20.6360 C   0  0  0  0  0  2  0  0  0  0  0  0
  -29.6440  -13.3740   20.0160 N   0  0  0  0  0  0  0  0  0  0  0  0
  -31.3460  -14.8480   19.6460 O   0  0  0  0  0  0  0  0  0  0  0  0
  -29.8530  -15.2390   21.2930 N   0  0  0  0  0  0  0  0  0  0  0  0
  -28.9860  -14.8990   21.6820 H   0  0  0  0  0  0  0  0  0  0  0  0
  -24.8520  -13.7760   20.4960 C   0  0  0  0  0  0  0  0  0  0  0  0
  -23.8440  -12.9440   20.9020 C   0  0  0  0  0  0  0  0  0  0  0  0
  -24.3630  -11.6170   20.8060 C   0  0  0  0  0  0  0  0  0  0  0  0
  -25.9210  -12.9510   20.1790 N   0  0  0  0  0  0  0  0  0  0  0  0
  -25.6320  -11.6460   20.4220 N   0  0  0  0  0  0  0  0  0  0  0  0
  -23.7080  -10.3180   21.0030 C   0  0  0  0  0  0  0  0  0  0  0  0
  -24.2120   -9.3690   21.9200 C   0  0  0  0  0  3  0  0  0  0  0  0
  -23.5570   -8.1330   22.1040 C   0  0  0  0  0  3  0  0  0  0  0  0
  -22.3840   -7.8350   21.3690 C   0  0  0  0  0  0  0  0  0  0  0  0
  -21.9000   -8.7730   20.4400 C   0  0  0  0  0  3  0  0  0  0  0  0
  -22.5570  -10.0010   20.2550 C   0  0  0  0  0  3  0  0  0  0  0  0
  -21.6960   -6.6490   21.4630 O   0  0  0  0  0  0  0  0  0  0  0  0
  -21.6860   -5.9130   22.6200 C   0  0  0  0  0  0  0  0  0  0  0  0
  -21.2230   -6.4500   23.8410 C   0  0  0  0  0  3  0  0  0  0  0  0
  -21.1640   -5.6360   24.9910 C   0  0  0  0  0  3  0  0  0  0  0  0
  -21.5580   -4.2870   24.9200 C   0  0  0  0  0  0  0  0  0  0  0  0
  -22.0130   -3.7490   23.7030 C   0  0  0  0  0  3  0  0  0  0  0  0
  -22.0740   -4.5590   22.5560 C   0  0  0  0  0  0  0  0  0  0  0  0
  -22.4940   -4.0310   21.3810 F   0  0  0  0  0  0  0  0  0  0  0  0
  -21.4930   -3.5020   26.0210 F   0  0  0  0  0  0  0  0  0  0  0  0
  -22.4440  -13.3470   21.2710 C   0  0  0  0  0  0  0  0  0  0  0  0
  -21.8030  -12.5930   22.1570 N   0  0  0  0  0  0  0  0  0  0  0  0
  -21.9280  -14.3640   20.8100 O   0  0  0  0  0  0  0  0  0  0  0  0
  -22.2310  -11.7690   22.5520 H   0  0  0  0  0  0  0  0  0  0  0  0
  -20.8660  -12.8430   22.4430 H   0  0  0  0  0  0  0  0  0  0  0  0
  -24.9460  -15.1570   20.3490 N   0  0  0  0  0  0  0  0  0  0  0  0
  -24.1630  -15.7790   20.5160 H   0  0  0  0  0  0  0  0  0  0  0  0
  -25.7620  -15.6370   19.9880 H   0  0  0  0  0  0  0  0  0  0  0  0
  1 48  1  0
  2  1  1  0
  2  3  1  0
  4  2  1  0
  5  2  1  0
  6  7  1  0
  6  5  1  0
  8 19  2  0
  9  7  1  0
  9 14  1  0
 10 18  1  0
 10 20  1  0
 11 17  1  0
 11 13  1  0
 12 18  1  0
 13 12  1  0
 14 13  2  0
 15 16  1  0
 15  9  2  0
 16 11  2  0
 17 10  1  0
 18  8  1  0
 20 22  2  0
 21 20  1  0
 23 21  1  0
 24 33  2  0
 24 29  1  0
 25 21  1  0
 25 29  1  0
 26 25  1  0
 27 28  1  0
 27 26  1  0
 28 24  1  0
 29 30  2  0
 30 31  1  0
 32 31  2  0
 33 32  1  0
 34  8  1  0
 34 35  1  0
 34 44  1  0
 35 38  1  0
 36 40  1  0
 36 35  1  0
 37 36  2  0
 40 39  1  0
 42 43  1  0
 42 40  1  0
 42 41  1  0
 44 47  1  1
 44 45  1  0
 46 44  1  0
 48 49  1  0
 49 51  1  0
 50 51  1  0
 50 55  1  0
 51 53  1  0
 52 50  2  0
 55 54  1  0
 56 64  1  0
 57 62  1  0
 58 59  1  0
 58 57  1  0
 60 59  1  0
 60 69  1  0
 60 61  1  0
 62 56  1  0
 62 61  1  0
 63 56  2  0
 64 65  1  0
 64 55  1  0
 66 67  2  0
 67 86  1  0
 68 67  1  0
 68 71  1  0
 69 70  1  0
 69 66  1  0
 70 68  2  0
 71 72  1  0
 72 73  2  0
 74 77  1  0
 74 73  1  0
 75 74  2  0
 76 75  1  0
 76 71  2  0
 77 78  1  0
 78 79  1  0
 79 80  2  0
 81 80  1  0
 81 85  1  0
 82 81  2  0
 83 78  2  0
 83 82  1  0
 84 83  1  0
 86 87  1  0
 87 90  1  0
 87 89  1  0
 88 86  2  0
 91 66  1  0
 91 92  1  0
 93 91  1  0
M  ISO  4   6 101   7 101  56 100  64 100
M  END
>  <TORSDO>  (16) 
F 23

>  <SCORE>  (16) 
-10.870

>  <name>  (16) 
15

>  <ligand_id>  (16) 
15

>  <original_smiles>  (16) 
[H]c1c([H])c([H])c2c(c1[H])C([H])([H])C([H])([H])C([H])([H])C2([H])N([H])C(=O)C1([H])N(C(=O)C([H])(N([H])C(=O)C([H])(N([H])C([H])([H])[H])C([H])([H])[H])C(C([H])([H])[H])(C([H])([H])[H])C([H])([H])[H])C([H])([H])c2c([H])c(OC([H])([H])C([H])([H])[N+]([H])([H])C([H])([H])C([H])([H])C([H])([H])N([H])C(=O)C([H])(N([H])C(=O)N3C([H])([H])C([H])([H])C([H])([H])C([H])(n4nc(-c5c([H])c([H])c(Oc6c([H])c([H])c(F)c([H])c6F)c([H])c5[H])c(C(=O)N([H])[H])c4N([H])[H])C3([H])[H])C([H])([H])[H])c([H])c([H])c2C1([H])[H]

>  <smiles>  (16) 
[H]c1c([H])c([H])c2c(c1[H])C([H])([H])C([H])([H])C([H])([H])C2([H])N([H])C(=O)C1([H])N(C(=O)C([H])(N([H])C(=O)C([H])(N([H])C([H])([H])[H])C([H])([H])[H])C(C([H])([H])[H])(C([H])([H])[H])C([H])([H])[H])C([H])([H])c2c([H])c(OC([H])([H])C([H])([H])[N+]([H])([H])C([H])([H])C([H])([H])C([H])([H])N([H])C(=O)C([H])(N([H])C(=O)N3C([H])([H])C([H])([H])C([H])([H])C([H])(n4nc(-c5c([H])c([H])c(Oc6c([H])c([H])c(F)c([H])c6F)c([H])c5[H])c(C(=O)N([H])[H])c4N([H])[H])C3([H])[H])C([H])([H])[H])c([H])c([H])c2C1([H])[H]

$$$$
16:0:0
     RDKit          3D

 91 98  0  0  1  0  0  0  0  0999 V2000
  -28.2880  -21.8550   19.4870 C   0  0  0  0  0  2  0  0  0  0  0  0
  -28.4310  -22.9460   20.4580 N   0  0  0  0  0  0  0  0  0  0  0  0
  -29.3150  -22.8810   20.9570 H   0  0  0  0  0  0  0  0  0  0  0  0
  -28.3650  -24.2500   19.7840 C   0  0  0  0  0  2  0  0  0  0  0  0
  -28.3500  -25.4190   20.7980 C   0  0  0  0  0  2  0  0  0  0  0  0
  -28.4090  -26.7090   20.1730 O   0  0  0  0  0  0  0  0  0  0  0  0
  -24.5950  -31.8770   23.2450 C   0  0  0  0  0  0  0  0  0  0  0  0
  -27.2370  -27.4330   20.1790 C   0  0  0  0  0  0  0  0  0  0  0  0
  -23.3880  -30.4730   21.6040 C   0  0  0  0  0  3  0  0  0  0  0  0
  -24.8420  -28.9310   20.1840 C   0  0  0  0  0  0  0  0  0  0  0  0
  -25.9120  -30.8360   21.4020 C   0  0  0  0  0  2  0  0  0  0  0  0
  -26.0000  -29.4630   20.7670 C   0  0  0  0  0  0  0  0  0  0  0  0
  -27.2040  -28.7230   20.7550 C   0  0  0  0  0  3  0  0  0  0  0  0
  -26.0630  -26.9100   19.5990 C   0  0  0  0  0  3  0  0  0  0  0  0
  -24.8680  -27.6550   19.5970 C   0  0  0  0  0  3  0  0  0  0  0  0
  -23.5970  -29.7890   20.2260 C   0  0  0  0  0  2  0  0  0  0  0  0
  -24.6500  -31.0760   22.1430 N   0  0  0  0  0  0  0  0  0  0  0  0
  -23.5130  -32.1500   23.7840 O   0  0  0  0  0  0  0  0  0  0  0  0
  -22.7360  -29.4540   22.5660 C   0  0  0  0  0  0  0  0  0  0  0  0
  -21.4110  -29.2740   22.4370 N   0  0  0  0  0  0  0  0  0  0  0  0
  -23.4190  -28.8270   23.3810 O   0  0  0  0  0  0  0  0  0  0  0  0
  -20.9230  -29.8330   21.7520 H   0  0  0  0  0  0  0  0  0  0  0  0
  -18.0340  -28.0890   22.9320 C   0  0  0  0  0  0  0  0  0  0  0  0
  -20.5910  -28.3400   23.2080 C   0  0  0  0  0  3  0  0  0  0  0  0
  -20.6910  -26.9090   22.6330 C   0  0  0  0  0  2  0  0  0  0  0  0
  -19.5900  -26.5890   21.6170 C   0  0  0  0  0  2  0  0  0  0  0  0
  -18.2070  -26.7380   22.2580 C   0  0  0  0  0  2  0  0  0  0  0  0
  -19.1530  -28.8490   23.3630 C   0  0  0  0  0  0  0  0  0  0  0  0
  -18.9390  -30.1140   23.9510 C   0  0  0  0  0  3  0  0  0  0  0  0
  -17.6360  -30.6220   24.1120 C   0  0  0  0  0  3  0  0  0  0  0  0
  -16.5290  -29.8590   23.6980 C   0  0  0  0  0  3  0  0  0  0  0  0
  -16.7300  -28.5950   23.1150 C   0  0  0  0  0  3  0  0  0  0  0  0
  -25.8820  -32.5070   23.8650 C   0  0  0  0  0  3  0  0  0  0  0  0
  -26.4010  -31.7350   25.1400 C   0  0  1  0  0  0  0  0  0  0  0  0
  -25.3100  -31.4950   26.2100 C   0  0  0  0  0  1  0  0  0  0  0  0
  -26.9830  -30.3580   24.7430 C   0  0  0  0  0  1  0  0  0  0  0  0
  -27.5530  -32.5280   25.8010 C   0  0  0  0  0  1  0  0  0  0  0  0
  -25.5740  -33.9060   24.1920 N   0  0  0  0  0  0  0  0  0  0  0  0
  -25.9100  -34.9560   23.4300 C   0  0  0  0  0  0  0  0  0  0  0  0
  -26.5800  -34.8480   22.4000 O   0  0  0  0  0  0  0  0  0  0  0  0
  -24.9790  -34.0640   24.9920 H   0  0  0  0  0  0  0  0  0  0  0  0
  -24.1820  -36.7480   23.0660 C   0  0  0  0  0  1  0  0  0  0  0  0
  -25.4220  -36.3460   23.8800 C   0  0  0  0  0  3  0  0  0  0  0  0
  -27.5580  -37.2300   24.7110 C   0  0  0  0  0  1  0  0  0  0  0  0
  -26.4560  -37.3980   23.7660 N   0  0  0  0  0  0  0  0  0  0  0  0
  -26.0510  -38.3180   23.9130 H   0  0  0  0  0  0  0  0  0  0  0  0
  -28.1830  -20.4490   20.1400 C   0  0  0  0  0  2  0  0  0  0  0  0
  -29.4980  -19.8010   20.3460 N   0  0  0  0  0  4  0  0  0  0  0  0
  -29.9730  -19.7720   19.4590 H   0  0  0  0  0  0  0  0  0  0  0  0
  -30.0430  -20.3780   20.9660 H   0  0  0  0  0  0  0  0  0  0  0  0
  -29.4340  -18.4220   20.8980 C   0  0  0  0  0  2  0  0  0  0  0  0
  -30.8160  -17.7260   20.8930 C   0  0  0  0  0  2  0  0  0  0  0  0
  -30.9230  -16.4300   21.7360 C   0  0  0  0  0  2  0  0  0  0  0  0
  -30.7750  -14.3830   20.2910 C   0  0  0  0  0  0  0  0  0  0  0  0
  -30.3630  -12.3110   19.0090 C   0  0  0  0  0  2  0  0  0  0  0  0
  -29.3780  -12.5700   17.8520 C   0  0  0  0  0  2  0  0  0  0  0  0
  -27.9190  -12.4510   18.3330 C   0  0  0  0  0  2  0  0  0  0  0  0
  -27.6500  -13.2560   19.6320 C   0  0  0  0  0  3  0  0  0  0  0  0
  -28.7330  -12.9570   20.6910 C   0  0  0  0  0  2  0  0  0  0  0  0
  -30.0470  -13.2520   20.0930 N   0  0  0  0  0  0  0  0  0  0  0  0
  -31.8330  -14.6210   19.7000 O   0  0  0  0  0  0  0  0  0  0  0  0
  -30.2530  -15.2530   21.1720 N   0  0  0  0  0  0  0  0  0  0  0  0
  -29.3780  -14.9770   21.5930 H   0  0  0  0  0  0  0  0  0  0  0  0
  -25.2840  -13.9080   20.4090 C   0  0  0  0  0  0  0  0  0  0  0  0
  -24.2140  -13.1540   20.8110 C   0  0  0  0  0  0  0  0  0  0  0  0
  -24.6490  -11.7940   20.7650 C   0  0  0  0  0  0  0  0  0  0  0  0
  -26.3050  -13.0080   20.1480 N   0  0  0  0  0  0  0  0  0  0  0  0
  -25.9280  -11.7320   20.4170 N   0  0  0  0  0  0  0  0  0  0  0  0
  -23.9070  -10.5450   20.9760 C   0  0  0  0  0  0  0  0  0  0  0  0
  -24.3550   -9.5670   21.8930 C   0  0  0  0  0  3  0  0  0  0  0  0
  -23.6160   -8.3820   22.0920 C   0  0  0  0  0  3  0  0  0  0  0  0
  -22.4150   -8.1650   21.3760 C   0  0  0  0  0  0  0  0  0  0  0  0
  -21.9850   -9.1310   20.4490 C   0  0  0  0  0  3  0  0  0  0  0  0
  -22.7240  -10.3090   20.2480 C   0  0  0  0  0  3  0  0  0  0  0  0
  -21.6440   -7.0320   21.4850 O   0  0  0  0  0  0  0  0  0  0  0  0
  -21.6260   -6.2830   22.6340 C   0  0  0  0  0  0  0  0  0  0  0  0
  -21.2640   -6.8400   23.8810 C   0  0  0  0  0  3  0  0  0  0  0  0
  -21.1900   -6.0190   25.0240 C   0  0  0  0  0  3  0  0  0  0  0  0
  -21.4670   -4.6430   24.9230 C   0  0  0  0  0  0  0  0  0  0  0  0
  -21.8230   -4.0860   23.6810 C   0  0  0  0  0  3  0  0  0  0  0  0
  -21.8980   -4.9040   22.5400 C   0  0  0  0  0  0  0  0  0  0  0  0
  -22.2200   -4.3590   21.3420 F   0  0  0  0  0  0  0  0  0  0  0  0
  -21.3900   -3.8530   26.0180 F   0  0  0  0  0  0  0  0  0  0  0  0
  -22.8340  -13.6550   21.1260 C   0  0  0  0  0  0  0  0  0  0  0  0
  -22.1210  -12.9700   22.0140 N   0  0  0  0  0  0  0  0  0  0  0  0
  -22.3980  -14.6890   20.6220 O   0  0  0  0  0  0  0  0  0  0  0  0
  -22.4870  -12.1340   22.4460 H   0  0  0  0  0  0  0  0  0  0  0  0
  -21.1950  -13.2880   22.2670 H   0  0  0  0  0  0  0  0  0  0  0  0
  -25.4680  -15.2740   20.2270 N   0  0  0  0  0  0  0  0  0  0  0  0
  -24.7150  -15.9430   20.3500 H   0  0  0  0  0  0  0  0  0  0  0  0
  -26.3160  -15.6930   19.8640 H   0  0  0  0  0  0  0  0  0  0  0  0
  1 47  1  0
  1  2  1  0
  2  3  1  0
  4  2  1  0
  4  5  1  0
  6  8  1  0
  6  5  1  0
  7 18  2  0
  8 13  1  0
  9 17  1  0
  9 19  1  0
 10 16  1  0
 10 12  1  0
 11 17  1  0
 12 11  1  0
 13 12  2  0
 14  8  2  0
 15 14  1  0
 15 10  2  0
 16  9  1  0
 17  7  1  0
 19 21  2  0
 20 19  1  0
 22 20  1  0
 23 32  2  0
 23 28  1  0
 24 20  1  0
 24 28  1  0
 25 24  1  0
 26 27  1  0
 26 25  1  0
 27 23  1  0
 28 29  2  0
 29 30  1  0
 31 30  2  0
 32 31  1  0
 33  7  1  0
 33 38  1  0
 33 34  1  0
 34 37  1  1
 34 35  1  0
 36 34  1  0
 38 41  1  0
 39 43  1  0
 39 38  1  0
 40 39  2  0
 43 42  1  0
 45 43  1  0
 45 46  1  0
 45 44  1  0
 47 48  1  0
 48 51  1  0
 48 50  1  0
 49 48  1  0
 52 51  1  0
 52 53  1  0
 54 62  1  0
 55 60  1  0
 56 57  1  0
 56 55  1  0
 58 57  1  0
 58 67  1  0
 58 59  1  0
 60 54  1  0
 60 59  1  0
 61 54  2  0
 62 63  1  0
 62 53  1  0
 64 65  2  0
 65 84  1  0
 66 65  1  0
 66 69  1  0
 67 64  1  0
 67 68  1  0
 68 66  2  0
 69 70  1  0
 70 71  2  0
 72 75  1  0
 72 71  1  0
 73 72  2  0
 74 73  1  0
 74 69  2  0
 75 76  1  0
 76 77  1  0
 77 78  2  0
 79 78  1  0
 79 83  1  0
 80 79  2  0
 81 76  2  0
 81 80  1  0
 82 81  1  0
 84 85  1  0
 85 88  1  0
 85 87  1  0
 86 84  2  0
 89 90  1  0
 89 64  1  0
 91 89  1  0
M  ISO  4   5 101   6 101  54 100  62 100
M  END
>  <TORSDO>  (17) 
F 24

>  <SCORE>  (17) 
-12.388

>  <name>  (17) 
16

>  <ligand_id>  (17) 
16

>  <original_smiles>  (17) 
[H]c1c([H])c([H])c2c(c1[H])C([H])([H])C([H])([H])C([H])([H])C2([H])N([H])C(=O)C1([H])N(C(=O)C([H])(N([H])C(=O)C([H])(N([H])C([H])([H])[H])C([H])([H])[H])C(C([H])([H])[H])(C([H])([H])[H])C([H])([H])[H])C([H])([H])c2c([H])c(OC([H])([H])C([H])([H])N([H])C([H])([H])C([H])([H])[N+]([H])([H])C([H])([H])C([H])([H])C([H])([H])N([H])C(=O)N3C([H])([H])C([H])([H])C([H])([H])C([H])(n4nc(-c5c([H])c([H])c(Oc6c([H])c([H])c(F)c([H])c6F)c([H])c5[H])c(C(=O)N([H])[H])c4N([H])[H])C3([H])[H])c([H])c([H])c2C1([H])[H]

>  <smiles>  (17) 
[H]c1c([H])c([H])c2c(c1[H])C([H])([H])C([H])([H])C([H])([H])C2([H])N([H])C(=O)C1([H])N(C(=O)C([H])(N([H])C(=O)C([H])(N([H])C([H])([H])[H])C([H])([H])[H])C(C([H])([H])[H])(C([H])([H])[H])C([H])([H])[H])C([H])([H])c2c([H])c(OC([H])([H])C([H])([H])N([H])C([H])([H])C([H])([H])[N+]([H])([H])C([H])([H])C([H])([H])C([H])([H])N([H])C(=O)N3C([H])([H])C([H])([H])C([H])([H])C([H])(n4nc(-c5c([H])c([H])c(Oc6c([H])c([H])c(F)c([H])c6F)c([H])c5[H])c(C(=O)N([H])[H])c4N([H])[H])C3([H])[H])c([H])c([H])c2C1([H])[H]

$$$$
17:0:0
     RDKit          3D

 94101  0  0  1  0  0  0  0  0999 V2000
  -31.2630  -23.5420   18.5740 C   0  0  0  0  0  2  0  0  0  0  0  0
  -31.9940  -24.8580   18.9200 C   0  0  0  0  0  2  0  0  0  0  0  0
  -31.0750  -25.9850   19.2030 N   0  0  0  0  0  4  0  0  0  0  0  0
  -30.2350  -25.8930   18.6530 H   0  0  0  0  0  0  0  0  0  0  0  0
  -31.5330  -26.8250   18.8810 H   0  0  0  0  0  0  0  0  0  0  0  0
  -30.7170  -26.1880   20.6260 C   0  0  0  0  0  2  0  0  0  0  0  0
  -29.5860  -27.2090   20.7720 C   0  0  0  0  0  2  0  0  0  0  0  0
  -28.4310  -26.7120   20.0890 O   0  0  0  0  0  0  0  0  0  0  0  0
  -24.6260  -31.8970   23.1880 C   0  0  0  0  0  0  0  0  0  0  0  0
  -27.2770  -27.4660   20.1450 C   0  0  0  0  0  0  0  0  0  0  0  0
  -23.4000  -30.4720   21.5700 C   0  0  0  0  0  3  0  0  0  0  0  0
  -24.8460  -28.9170   20.1540 C   0  0  0  0  0  0  0  0  0  0  0  0
  -25.9120  -30.8480   21.3390 C   0  0  0  0  0  2  0  0  0  0  0  0
  -25.9970  -29.4680   20.7270 C   0  0  0  0  0  0  0  0  0  0  0  0
  -27.2060  -28.7510   20.7310 C   0  0  0  0  0  3  0  0  0  0  0  0
  -26.1090  -26.9210   19.5680 C   0  0  0  0  0  3  0  0  0  0  0  0
  -24.8940  -27.6360   19.5760 C   0  0  0  0  0  3  0  0  0  0  0  0
  -23.5970  -29.7660   20.1980 C   0  0  0  0  0  2  0  0  0  0  0  0
  -24.6640  -31.0880   22.0920 N   0  0  0  0  0  0  0  0  0  0  0  0
  -23.5520  -32.1750   23.7400 O   0  0  0  0  0  0  0  0  0  0  0  0
  -22.7610  -29.4650   22.5500 C   0  0  0  0  0  0  0  0  0  0  0  0
  -21.4350  -29.2850   22.4430 N   0  0  0  0  0  0  0  0  0  0  0  0
  -23.4550  -28.8450   23.3600 O   0  0  0  0  0  0  0  0  0  0  0  0
  -20.9370  -29.8410   21.7630 H   0  0  0  0  0  0  0  0  0  0  0  0
  -18.0650  -28.1120   22.9860 C   0  0  0  0  0  0  0  0  0  0  0  0
  -20.6250  -28.3580   23.2300 C   0  0  0  0  0  3  0  0  0  0  0  0
  -20.7150  -26.9210   22.6660 C   0  0  0  0  0  2  0  0  0  0  0  0
  -19.6020  -26.5960   21.6660 C   0  0  0  0  0  2  0  0  0  0  0  0
  -18.2280  -26.7540   22.3220 C   0  0  0  0  0  2  0  0  0  0  0  0
  -19.1910  -28.8730   23.3970 C   0  0  0  0  0  0  0  0  0  0  0  0
  -18.9850  -30.1450   23.9720 C   0  0  0  0  0  3  0  0  0  0  0  0
  -17.6860  -30.6550   24.1450 C   0  0  0  0  0  3  0  0  0  0  0  0
  -16.5730  -29.8910   23.7530 C   0  0  0  0  0  3  0  0  0  0  0  0
  -16.7640  -28.6220   23.1780 C   0  0  0  0  0  3  0  0  0  0  0  0
  -25.9230  -32.5290   23.7840 C   0  0  0  0  0  3  0  0  0  0  0  0
  -26.4870  -31.7380   25.0260 C   0  0  1  0  0  0  0  0  0  0  0  0
  -25.4270  -31.4590   26.1160 C   0  0  0  0  0  1  0  0  0  0  0  0
  -27.0870  -30.3810   24.5830 C   0  0  0  0  0  1  0  0  0  0  0  0
  -27.6400  -32.5370   25.6780 C   0  0  0  0  0  1  0  0  0  0  0  0
  -25.6110  -33.9160   24.1470 N   0  0  0  0  0  0  0  0  0  0  0  0
  -25.9150  -34.9850   23.3980 C   0  0  0  0  0  0  0  0  0  0  0  0
  -26.5600  -34.9070   22.3470 O   0  0  0  0  0  0  0  0  0  0  0  0
  -25.0370  -34.0500   24.9680 H   0  0  0  0  0  0  0  0  0  0  0  0
  -24.1560  -36.7590   23.1160 C   0  0  0  0  0  1  0  0  0  0  0  0
  -25.4220  -36.3580   23.8910 C   0  0  0  0  0  3  0  0  0  0  0  0
  -27.5690  -37.2530   24.6770 C   0  0  0  0  0  1  0  0  0  0  0  0
  -26.4380  -37.4260   23.7680 N   0  0  0  0  0  0  0  0  0  0  0  0
  -26.0250  -38.3370   23.9450 H   0  0  0  0  0  0  0  0  0  0  0  0
  -30.7280  -22.7610   19.7920 C   0  0  0  0  0  2  0  0  0  0  0  0
  -30.0500  -21.5170   19.3910 N   0  0  0  0  0  4  0  0  0  0  0  0
  -29.1690  -21.7350   18.9470 H   0  0  0  0  0  0  0  0  0  0  0  0
  -30.6300  -21.0580   18.7080 H   0  0  0  0  0  0  0  0  0  0  0  0
  -29.8120  -20.5500   20.4800 C   0  0  0  0  0  2  0  0  0  0  0  0
  -29.6310  -19.1590   19.8600 C   0  0  0  0  0  2  0  0  0  0  0  0
  -29.6470  -17.9700   20.8320 C   0  0  0  0  0  2  0  0  0  0  0  0
  -29.7500  -16.6810   20.0040 C   0  0  0  0  0  2  0  0  0  0  0  0
  -30.6070  -14.4330   20.4430 C   0  0  0  0  0  0  0  0  0  0  0  0
  -30.3190  -12.2760   19.3230 C   0  0  0  0  0  2  0  0  0  0  0  0
  -29.3760  -12.5220   18.1240 C   0  0  0  0  0  2  0  0  0  0  0  0
  -27.9000  -12.3970   18.5600 C   0  0  0  0  0  2  0  0  0  0  0  0
  -27.5780  -13.2190   19.8380 C   0  0  0  0  0  3  0  0  0  0  0  0
  -28.6380  -12.9560   20.9370 C   0  0  0  0  0  2  0  0  0  0  0  0
  -29.9660  -13.2410   20.3700 N   0  0  0  0  0  0  0  0  0  0  0  0
  -31.7310  -14.6340   19.9660 O   0  0  0  0  0  0  0  0  0  0  0  0
  -29.8090  -15.4520   20.7930 N   0  0  0  0  0  0  0  0  0  0  0  0
  -28.9490  -15.1870   21.2510 H   0  0  0  0  0  0  0  0  0  0  0  0
  -25.1880  -13.8420   20.5690 C   0  0  0  0  0  0  0  0  0  0  0  0
  -24.1200  -13.0720   20.9460 C   0  0  0  0  0  0  0  0  0  0  0  0
  -24.5760  -11.7200   20.9100 C   0  0  0  0  0  0  0  0  0  0  0  0
  -26.2270  -12.9550   20.3240 N   0  0  0  0  0  0  0  0  0  0  0  0
  -25.8620  -11.6750   20.5850 N   0  0  0  0  0  0  0  0  0  0  0  0
  -23.8500  -10.4590   21.1080 C   0  0  0  0  0  0  0  0  0  0  0  0
  -24.3120   -9.4720   22.0070 C   0  0  0  0  0  3  0  0  0  0  0  0
  -23.5840   -8.2780   22.1930 C   0  0  0  0  0  3  0  0  0  0  0  0
  -22.3800   -8.0610   21.4810 C   0  0  0  0  0  0  0  0  0  0  0  0
  -21.9370   -9.0370   20.5710 C   0  0  0  0  0  3  0  0  0  0  0  0
  -22.6660  -10.2230   20.3830 C   0  0  0  0  0  3  0  0  0  0  0  0
  -21.6230   -6.9180   21.5770 O   0  0  0  0  0  0  0  0  0  0  0  0
  -21.6420   -6.1360   22.7050 C   0  0  0  0  0  0  0  0  0  0  0  0
  -21.3280   -6.6590   23.9790 C   0  0  0  0  0  3  0  0  0  0  0  0
  -21.2880   -5.8050   25.1000 C   0  0  0  0  0  3  0  0  0  0  0  0
  -21.5540   -4.4320   24.9480 C   0  0  0  0  0  0  0  0  0  0  0  0
  -21.8620   -3.9080   23.6800 C   0  0  0  0  0  3  0  0  0  0  0  0
  -21.9030   -4.7580   22.5610 C   0  0  0  0  0  0  0  0  0  0  0  0
  -22.1800   -4.2470   21.3370 F   0  0  0  0  0  0  0  0  0  0  0  0
  -21.5090   -3.6090   26.0220 F   0  0  0  0  0  0  0  0  0  0  0  0
  -22.7280  -13.5540   21.2370 C   0  0  0  0  0  0  0  0  0  0  0  0
  -22.0100  -12.8640   22.1150 N   0  0  0  0  0  0  0  0  0  0  0  0
  -22.2860  -14.5780   20.7180 O   0  0  0  0  0  0  0  0  0  0  0  0
  -22.3790  -12.0360   22.5590 H   0  0  0  0  0  0  0  0  0  0  0  0
  -21.0770  -13.1730   22.3490 H   0  0  0  0  0  0  0  0  0  0  0  0
  -25.3520  -15.2130   20.3950 N   0  0  0  0  0  0  0  0  0  0  0  0
  -24.5820  -15.8630   20.5210 H   0  0  0  0  0  0  0  0  0  0  0  0
  -26.1940  -15.6610   20.0580 H   0  0  0  0  0  0  0  0  0  0  0  0
  1  2  1  0
  1 49  1  0
  2  3  1  0
  3  6  1  0
  4  3  1  0
  5  3  1  0
  6  7  1  0
  8 10  1  0
  8  7  1  0
  9 20  2  0
 10 15  1  0
 11 19  1  0
 11 21  1  0
 12 18  1  0
 12 14  1  0
 13 19  1  0
 14 15  2  0
 14 13  1  0
 16 17  1  0
 16 10  2  0
 17 12  2  0
 18 11  1  0
 19  9  1  0
 21 23  2  0
 22 21  1  0
 24 22  1  0
 25 34  2  0
 25 30  1  0
 26 22  1  0
 26 30  1  0
 27 26  1  0
 28 29  1  0
 28 27  1  0
 29 25  1  0
 30 31  2  0
 31 32  1  0
 33 32  2  0
 34 33  1  0
 35  9  1  0
 35 40  1  0
 35 36  1  0
 36 39  1  1
 36 37  1  0
 38 36  1  0
 40 43  1  0
 41 45  1  0
 41 40  1  0
 42 41  2  0
 45 44  1  0
 47 45  1  0
 47 48  1  0
 47 46  1  0
 50 49  1  0
 50 53  1  0
 51 50  1  0
 52 50  1  0
 54 53  1  0
 54 55  1  0
 56 65  1  0
 56 55  1  0
 57 65  1  0
 58 63  1  0
 59 60  1  0
 59 58  1  0
 61 60  1  0
 61 70  1  0
 61 62  1  0
 63 57  1  0
 63 62  1  0
 64 57  2  0
 65 66  1  0
 67 68  2  0
 68 87  1  0
 69 68  1  0
 69 72  1  0
 70 67  1  0
 70 71  1  0
 71 69  2  0
 72 73  1  0
 73 74  2  0
 75 78  1  0
 75 74  1  0
 76 75  2  0
 77 76  1  0
 77 72  2  0
 78 79  1  0
 79 80  1  0
 80 81  2  0
 82 81  1  0
 82 86  1  0
 83 82  2  0
 84 79  2  0
 84 83  1  0
 85 84  1  0
 87 88  1  0
 88 91  1  0
 88 90  1  0
 89 87  2  0
 92 93  1  0
 92 67  1  0
 94 92  1  0
M  ISO  4   7 101   8 101  57 100  65 100
M  END
>  <TORSDO>  (18) 
F 26

>  <SCORE>  (18) 
-11.668

>  <name>  (18) 
17

>  <ligand_id>  (18) 
17

>  <original_smiles>  (18) 
[H]c1c([H])c([H])c2c(c1[H])C([H])([H])C([H])([H])C([H])([H])C2([H])N([H])C(=O)C1([H])N(C(=O)C([H])(N([H])C(=O)C([H])(N([H])C([H])([H])[H])C([H])([H])[H])C(C([H])([H])[H])(C([H])([H])[H])C([H])([H])[H])C([H])([H])c2c([H])c(OC([H])([H])C([H])([H])[N+]([H])([H])C([H])([H])C([H])([H])C([H])([H])[N+]([H])([H])C([H])([H])C([H])([H])C([H])([H])C([H])([H])N([H])C(=O)N3C([H])([H])C([H])([H])C([H])([H])C([H])(n4nc(-c5c([H])c([H])c(Oc6c([H])c([H])c(F)c([H])c6F)c([H])c5[H])c(C(=O)N([H])[H])c4N([H])[H])C3([H])[H])c([H])c([H])c2C1([H])[H]

>  <smiles>  (18) 
[H]c1c([H])c([H])c2c(c1[H])C([H])([H])C([H])([H])C([H])([H])C2([H])N([H])C(=O)C1([H])N(C(=O)C([H])(N([H])C(=O)C([H])(N([H])C([H])([H])[H])C([H])([H])[H])C(C([H])([H])[H])(C([H])([H])[H])C([H])([H])[H])C([H])([H])c2c([H])c(OC([H])([H])C([H])([H])[N+]([H])([H])C([H])([H])C([H])([H])C([H])([H])[N+]([H])([H])C([H])([H])C([H])([H])C([H])([H])C([H])([H])N([H])C(=O)N3C([H])([H])C([H])([H])C([H])([H])C([H])(n4nc(-c5c([H])c([H])c(Oc6c([H])c([H])c(F)c([H])c6F)c([H])c5[H])c(C(=O)N([H])[H])c4N([H])[H])C3([H])[H])c([H])c([H])c2C1([H])[H]

$$$$
18:0:0
     RDKit          3D

 95102  0  0  1  0  0  0  0  0999 V2000
  -28.7200  -23.1600   24.5240 C   0  0  0  0  0  2  0  0  0  0  0  0
  -28.8400  -21.7770   23.8280 C   0  0  0  0  0  2  0  0  0  0  0  0
  -30.2210  -21.2250   23.8740 N   0  0  0  0  0  4  0  0  0  0  0  0
  -30.6120  -21.3890   24.7890 H   0  0  0  0  0  0  0  0  0  0  0  0
  -30.1680  -20.2240   23.7580 H   0  0  0  0  0  0  0  0  0  0  0  0
  -31.1170  -21.7390   22.8040 C   0  0  0  0  0  2  0  0  0  0  0  0
  -32.5890  -21.3060   22.9690 C   0  0  0  0  0  2  0  0  0  0  0  0
  -33.2940  -21.0200   21.6190 C   0  0  0  0  0  2  0  0  0  0  0  0
  -34.7840  -20.6580   21.7860 C   0  0  0  0  0  2  0  0  0  0  0  0
  -35.3680  -19.7010   20.7240 C   0  0  0  0  0  2  0  0  0  0  0  0
  -34.8960  -17.5630   19.5820 C   0  0  0  0  0  0  0  0  0  0  0  0
  -34.4310  -15.3140   18.6800 C   0  0  0  0  0  2  0  0  0  0  0  0
  -33.5760  -15.3340   17.3990 C   0  0  0  0  0  2  0  0  0  0  0  0
  -32.0810  -15.3490   17.7520 C   0  0  0  0  0  2  0  0  0  0  0  0
  -31.7290  -16.4400   18.7960 C   0  0  0  0  0  3  0  0  0  0  0  0
  -32.6930  -16.3980   20.0060 C   0  0  0  0  0  2  0  0  0  0  0  0
  -34.0800  -16.4780   19.5080 N   0  0  0  0  0  0  0  0  0  0  0  0
  -35.9620  -17.6420   18.9620 O   0  0  0  0  0  0  0  0  0  0  0  0
  -34.5230  -18.5420   20.4200 N   0  0  0  0  0  0  0  0  0  0  0  0
  -33.6430  -18.4390   20.9030 H   0  0  0  0  0  0  0  0  0  0  0  0
  -29.4220  -17.3420   19.4910 C   0  0  0  0  0  0  0  0  0  0  0  0
  -28.2350  -16.7140   19.7620 C   0  0  0  0  0  0  0  0  0  0  0  0
  -28.4910  -15.3160   19.6280 C   0  0  0  0  0  0  0  0  0  0  0  0
  -30.3320  -16.3370   19.2150 N   0  0  0  0  0  0  0  0  0  0  0  0
  -29.7720  -15.1070   19.3550 N   0  0  0  0  0  0  0  0  0  0  0  0
  -27.5770  -14.1650   19.6890 C   0  0  0  0  0  0  0  0  0  0  0  0
  -27.7450  -13.1390   20.6450 C   0  0  0  0  0  3  0  0  0  0  0  0
  -26.8430  -12.0550   20.6970 C   0  0  0  0  0  3  0  0  0  0  0  0
  -25.7570  -11.9900   19.7910 C   0  0  0  0  0  0  0  0  0  0  0  0
  -25.6070  -13.0020   18.8280 C   0  0  0  0  0  3  0  0  0  0  0  0
  -26.5080  -14.0790   18.7740 C   0  0  0  0  0  3  0  0  0  0  0  0
  -24.8490  -10.9580   19.7500 O   0  0  0  0  0  0  0  0  0  0  0  0
  -24.4250  -10.3250   20.8890 C   0  0  0  0  0  0  0  0  0  0  0  0
  -23.7760  -11.0250   21.9300 C   0  0  0  0  0  3  0  0  0  0  0  0
  -23.2960  -10.3280   23.0570 C   0  0  0  0  0  3  0  0  0  0  0  0
  -23.4490   -8.9300   23.1390 C   0  0  0  0  0  0  0  0  0  0  0  0
  -24.0880   -8.2310   22.1000 C   0  0  0  0  0  3  0  0  0  0  0  0
  -24.5690   -8.9250   20.9770 C   0  0  0  0  0  0  0  0  0  0  0  0
  -25.1670   -8.2430   19.9690 F   0  0  0  0  0  0  0  0  0  0  0  0
  -22.9770   -8.2590   24.2150 F   0  0  0  0  0  0  0  0  0  0  0  0
  -26.9150  -17.3740   20.0390 C   0  0  0  0  0  0  0  0  0  0  0  0
  -26.0660  -16.7270   20.8310 N   0  0  0  0  0  0  0  0  0  0  0  0
  -26.6500  -18.4930   19.6000 O   0  0  0  0  0  0  0  0  0  0  0  0
  -26.2960  -15.8170   21.2020 H   0  0  0  0  0  0  0  0  0  0  0  0
  -25.1770  -17.1430   21.0690 H   0  0  0  0  0  0  0  0  0  0  0  0
  -29.7960  -18.6810   19.4270 N   0  0  0  0  0  0  0  0  0  0  0  0
  -29.1450  -19.4390   19.5960 H   0  0  0  0  0  0  0  0  0  0  0  0
  -30.7160  -18.9960   19.1470 H   0  0  0  0  0  0  0  0  0  0  0  0
  -28.0620  -24.2780   23.6760 C   0  0  0  0  0  2  0  0  0  0  0  0
  -28.8720  -24.6230   22.4830 N   0  0  0  0  0  4  0  0  0  0  0  0
  -28.6280  -23.9810   21.7450 H   0  0  0  0  0  0  0  0  0  0  0  0
  -29.8470  -24.4870   22.7030 H   0  0  0  0  0  0  0  0  0  0  0  0
  -28.7080  -26.0020   21.9600 C   0  0  0  0  0  2  0  0  0  0  0  0
  -29.2150  -26.0970   20.5020 C   0  0  0  0  0  2  0  0  0  0  0  0
  -29.1110  -27.4160   19.9660 O   0  0  0  0  0  0  0  0  0  0  0  0
  -24.5790  -31.7610   23.2310 C   0  0  0  0  0  0  0  0  0  0  0  0
  -27.8490  -27.9540   19.9590 C   0  0  0  0  0  0  0  0  0  0  0  0
  -23.6010  -30.3670   21.4360 C   0  0  0  0  0  3  0  0  0  0  0  0
  -25.2780  -29.1230   19.9690 C   0  0  0  0  0  0  0  0  0  0  0  0
  -26.0650  -31.0430   21.3680 C   0  0  0  0  0  2  0  0  0  0  0  0
  -26.3400  -29.7490   20.6370 C   0  0  0  0  0  0  0  0  0  0  0  0
  -27.6260  -29.1740   20.6250 C   0  0  0  0  0  3  0  0  0  0  0  0
  -26.7760  -27.3300   19.2850 C   0  0  0  0  0  3  0  0  0  0  0  0
  -25.4910  -27.9050   19.2920 C   0  0  0  0  0  3  0  0  0  0  0  0
  -23.9350  -29.8170   20.0220 C   0  0  0  0  0  2  0  0  0  0  0  0
  -24.7640  -31.0680   22.0720 N   0  0  0  0  0  0  0  0  0  0  0  0
  -23.4570  -31.8640   23.7440 O   0  0  0  0  0  0  0  0  0  0  0  0
  -23.0440  -29.2060   22.2900 C   0  0  0  0  0  0  0  0  0  0  0  0
  -21.7590  -28.8770   22.0830 N   0  0  0  0  0  0  0  0  0  0  0  0
  -23.7650  -28.6030   23.0880 O   0  0  0  0  0  0  0  0  0  0  0  0
  -21.2300  -29.4200   21.4140 H   0  0  0  0  0  0  0  0  0  0  0  0
  -18.5430  -27.2560   22.3110 C   0  0  0  0  0  0  0  0  0  0  0  0
  -21.0340  -27.7910   22.7380 C   0  0  0  0  0  3  0  0  0  0  0  0
  -21.3360  -26.4330   22.0620 C   0  0  0  0  0  2  0  0  0  0  0  0
  -20.3260  -26.0620   20.9710 C   0  0  0  0  0  2  0  0  0  0  0  0
  -18.9110  -25.9940   21.5510 C   0  0  0  0  0  2  0  0  0  0  0  0
  -19.5410  -28.1070   22.8530 C   0  0  0  0  0  0  0  0  0  0  0  0
  -19.1450  -29.2870   23.5200 C   0  0  0  0  0  3  0  0  0  0  0  0
  -17.7830  -29.6170   23.6510 C   0  0  0  0  0  3  0  0  0  0  0  0
  -16.7980  -28.7630   23.1280 C   0  0  0  0  0  3  0  0  0  0  0  0
  -17.1800  -27.5840   22.4620 C   0  0  0  0  0  3  0  0  0  0  0  0
  -25.7610  -32.4800   23.9540 C   0  0  0  0  0  3  0  0  0  0  0  0
  -25.3370  -33.8560   24.2390 N   0  0  0  0  0  0  0  0  0  0  0  0
  -25.6820  -34.9220   23.5040 C   0  0  0  0  0  0  0  0  0  0  0  0
  -26.4640  -34.8550   22.5520 O   0  0  0  0  0  0  0  0  0  0  0  0
  -24.6590  -33.9770   24.9770 H   0  0  0  0  0  0  0  0  0  0  0  0
  -23.8940  -36.5960   22.9430 C   0  0  0  0  0  1  0  0  0  0  0  0
  -25.0630  -36.2770   23.8890 C   0  0  0  0  0  3  0  0  0  0  0  0
  -27.0530  -37.2850   24.9180 C   0  0  0  0  0  1  0  0  0  0  0  0
  -26.0370  -37.3910   23.8730 N   0  0  0  0  0  0  0  0  0  0  0  0
  -25.5650  -38.2860   23.9760 H   0  0  0  0  0  0  0  0  0  0  0  0
  -26.2130  -31.7520   25.2790 C   0  0  1  0  0  0  0  0  0  0  0  0
  -25.0440  -31.4250   26.2360 C   0  0  0  0  0  1  0  0  0  0  0  0
  -26.9410  -30.4280   24.9500 C   0  0  0  0  0  1  0  0  0  0  0  0
  -27.2290  -32.6320   26.0430 C   0  0  0  0  0  1  0  0  0  0  0  0
  2  3  1  0
  2  1  1  0
  3  4  1  0
  5  3  1  0
  6  7  1  0
  6  3  1  0
  8  9  1  0
  8  7  1  0
 10  9  1  0
 11 19  1  0
 12 17  1  0
 13 14  1  0
 13 12  1  0
 15 14  1  0
 15 24  1  0
 15 16  1  0
 17 11  1  0
 17 16  1  0
 18 11  2  0
 19 10  1  0
 19 20  1  0
 21 22  2  0
 22 41  1  0
 23 26  1  0
 23 22  1  0
 24 25  1  0
 24 21  1  0
 25 23  2  0
 26 27  1  0
 27 28  2  0
 29 28  1  0
 30 29  2  0
 31 30  1  0
 31 26  2  0
 32 29  1  0
 32 33  1  0
 33 38  2  0
 33 34  1  0
 34 35  2  0
 35 36  1  0
 36 40  1  0
 37 36  2  0
 38 37  1  0
 39 38  1  0
 41 42  1  0
 42 45  1  0
 42 44  1  0
 43 41  2  0
 46 21  1  0
 46 47  1  0
 48 46  1  0
 49  1  1  0
 50 52  1  0
 50 49  1  0
 51 50  1  0
 53 50  1  0
 54 53  1  0
 55 54  1  0
 56 67  2  0
 57 55  1  0
 57 62  1  0
 58 66  1  0
 58 68  1  0
 59 65  1  0
 59 61  1  0
 60 66  1  0
 61 60  1  0
 62 61  2  0
 63 64  1  0
 63 57  2  0
 64 59  2  0
 65 58  1  0
 66 56  1  0
 68 70  2  0
 69 68  1  0
 71 69  1  0
 72 81  2  0
 72 77  1  0
 73 69  1  0
 73 77  1  0
 74 73  1  0
 75 76  1  0
 75 74  1  0
 76 72  1  0
 77 78  2  0
 78 79  1  0
 80 79  2  0
 81 80  1  0
 82 56  1  0
 82 83  1  0
 82 92  1  0
 83 86  1  0
 84 88  1  0
 84 83  1  0
 85 84  2  0
 88 87  1  0
 90 88  1  0
 90 91  1  0
 90 89  1  0
 92 95  1  1
 92 93  1  0
 94 92  1  0
M  ISO  4  11 100  19 100  54 101  55 101
M  END
>  <TORSDO>  (19) 
F 27

>  <SCORE>  (19) 
-0.220

>  <name>  (19) 
18

>  <ligand_id>  (19) 
18

>  <original_smiles>  (19) 
[H]c1c([H])c([H])c2c(c1[H])C([H])([H])C([H])([H])C([H])([H])C2([H])N([H])C(=O)C1([H])N(C(=O)C([H])(N([H])C(=O)C([H])(N([H])C([H])([H])[H])C([H])([H])[H])C(C([H])([H])[H])(C([H])([H])[H])C([H])([H])[H])C([H])([H])c2c([H])c(OC([H])([H])C([H])([H])[N+]([H])([H])C([H])([H])C([H])([H])C([H])([H])[N+]([H])([H])C([H])([H])C([H])([H])C([H])([H])C([H])([H])C([H])([H])N([H])C(=O)N3C([H])([H])C([H])([H])C([H])([H])C([H])(n4nc(-c5c([H])c([H])c(Oc6c([H])c([H])c(F)c([H])c6F)c([H])c5[H])c(C(=O)N([H])[H])c4N([H])[H])C3([H])[H])c([H])c([H])c2C1([H])[H]

>  <smiles>  (19) 
[H]c1c([H])c([H])c2c(c1[H])C([H])([H])C([H])([H])C([H])([H])C2([H])N([H])C(=O)C1([H])N(C(=O)C([H])(N([H])C(=O)C([H])(N([H])C([H])([H])[H])C([H])([H])[H])C(C([H])([H])[H])(C([H])([H])[H])C([H])([H])[H])C([H])([H])c2c([H])c(OC([H])([H])C([H])([H])[N+]([H])([H])C([H])([H])C([H])([H])C([H])([H])[N+]([H])([H])C([H])([H])C([H])([H])C([H])([H])C([H])([H])C([H])([H])N([H])C(=O)N3C([H])([H])C([H])([H])C([H])([H])C([H])(n4nc(-c5c([H])c([H])c(Oc6c([H])c([H])c(F)c([H])c6F)c([H])c5[H])c(C(=O)N([H])[H])c4N([H])[H])C3([H])[H])c([H])c([H])c2C1([H])[H]

$$$$
19:0:0
     RDKit          3D

 97104  0  0  1  0  0  0  0  0999 V2000
  -29.5280  -24.3770   25.4400 C   0  0  0  0  0  2  0  0  0  0  0  0
  -28.6070  -23.1420   25.5410 C   0  0  0  0  0  2  0  0  0  0  0  0
  -28.6960  -22.1750   24.3510 C   0  0  0  0  0  2  0  0  0  0  0  0
  -30.0090  -21.6350   24.2980 O   0  0  0  0  0  0  0  0  0  0  0  0
  -30.3240  -21.0850   23.0280 C   0  0  0  0  0  2  0  0  0  0  0  0
  -31.4450  -20.0530   23.1980 C   0  0  0  0  0  2  0  0  0  0  0  0
  -31.6590  -19.2710   21.9560 N   0  0  0  0  0  4  0  0  0  0  0  0
  -31.0560  -19.6330   21.2340 H   0  0  0  0  0  0  0  0  0  0  0  0
  -32.6090  -19.4160   21.6520 H   0  0  0  0  0  0  0  0  0  0  0  0
  -31.4070  -17.8180   22.0690 C   0  0  0  0  0  2  0  0  0  0  0  0
  -31.8140  -17.0760   20.7780 C   0  0  0  0  0  2  0  0  0  0  0  0
  -31.8590  -14.7040   20.0390 C   0  0  0  0  0  0  0  0  0  0  0  0
  -31.3760  -12.5260   18.9780 C   0  0  0  0  0  2  0  0  0  0  0  0
  -30.4730  -12.7270   17.7450 C   0  0  0  0  0  2  0  0  0  0  0  0
  -28.9870  -12.7480   18.1530 C   0  0  0  0  0  2  0  0  0  0  0  0
  -28.7110  -13.7080   19.3400 C   0  0  0  0  0  3  0  0  0  0  0  0
  -29.7160  -13.4540   20.4860 C   0  0  0  0  0  2  0  0  0  0  0  0
  -31.0780  -13.5960   19.9420 N   0  0  0  0  0  0  0  0  0  0  0  0
  -32.9370  -14.8350   19.4520 O   0  0  0  0  0  0  0  0  0  0  0  0
  -31.3360  -15.6960   20.7680 N   0  0  0  0  0  0  0  0  0  0  0  0
  -30.4540  -15.5020   21.2160 H   0  0  0  0  0  0  0  0  0  0  0  0
  -26.3570  -14.5850   19.9100 C   0  0  0  0  0  0  0  0  0  0  0  0
  -25.2170  -13.9470   20.3210 C   0  0  0  0  0  0  0  0  0  0  0  0
  -25.5610  -12.5650   20.4330 C   0  0  0  0  0  0  0  0  0  0  0  0
  -27.3280  -13.6020   19.7990 N   0  0  0  0  0  0  0  0  0  0  0  0
  -26.8490  -12.3870   20.1680 N   0  0  0  0  0  0  0  0  0  0  0  0
  -24.7280  -11.3920   20.7230 C   0  0  0  0  0  0  0  0  0  0  0  0
  -25.0640  -10.4800   21.7490 C   0  0  0  0  0  3  0  0  0  0  0  0
  -24.2360   -9.3690   22.0200 C   0  0  0  0  0  3  0  0  0  0  0  0
  -23.0580   -9.1600   21.2640 C   0  0  0  0  0  0  0  0  0  0  0  0
  -22.7400  -10.0570   20.2310 C   0  0  0  0  0  3  0  0  0  0  0  0
  -23.5660  -11.1600   19.9580 C   0  0  0  0  0  3  0  0  0  0  0  0
  -22.2080   -8.0960   21.4410 O   0  0  0  0  0  0  0  0  0  0  0  0
  -22.0410   -7.5030   22.6670 C   0  0  0  0  0  0  0  0  0  0  0  0
  -21.6470   -8.2430   23.8030 C   0  0  0  0  0  3  0  0  0  0  0  0
  -21.4190   -7.5830   25.0280 C   0  0  0  0  0  3  0  0  0  0  0  0
  -21.5750   -6.1870   25.1160 C   0  0  0  0  0  0  0  0  0  0  0  0
  -21.9630   -5.4490   23.9840 C   0  0  0  0  0  3  0  0  0  0  0  0
  -22.1920   -6.1060   22.7630 C   0  0  0  0  0  0  0  0  0  0  0  0
  -22.5450   -5.3860   21.6700 F   0  0  0  0  0  0  0  0  0  0  0  0
  -21.3490   -5.5510   26.2900 F   0  0  0  0  0  0  0  0  0  0  0  0
  -23.8610  -14.5610   20.5110 C   0  0  0  0  0  0  0  0  0  0  0  0
  -23.0730  -14.0320   21.4410 N   0  0  0  0  0  0  0  0  0  0  0  0
  -23.5100  -15.5500   19.8690 O   0  0  0  0  0  0  0  0  0  0  0  0
  -23.3710  -13.2270   21.9760 H   0  0  0  0  0  0  0  0  0  0  0  0
  -22.1640  -14.4330   21.6230 H   0  0  0  0  0  0  0  0  0  0  0  0
  -26.6520  -15.9110   19.6020 N   0  0  0  0  0  0  0  0  0  0  0  0
  -25.9600  -16.6520   19.6240 H   0  0  0  0  0  0  0  0  0  0  0  0
  -27.5460  -16.2130   19.2370 H   0  0  0  0  0  0  0  0  0  0  0  0
  -29.3690  -25.2290   24.1580 C   0  0  0  0  0  2  0  0  0  0  0  0
  -30.3550  -26.4200   24.1380 C   0  0  0  0  0  2  0  0  0  0  0  0
  -30.8160  -26.8520   22.7960 N   0  0  0  0  0  4  0  0  0  0  0  0
  -31.4890  -27.5840   22.9700 H   0  0  0  0  0  0  0  0  0  0  0  0
  -31.3320  -26.1060   22.3520 H   0  0  0  0  0  0  0  0  0  0  0  0
  -29.8190  -27.4130   21.8510 C   0  0  0  0  0  2  0  0  0  0  0  0
  -29.0910  -26.3290   21.0300 C   0  0  0  0  0  2  0  0  0  0  0  0
  -28.6000  -26.8350   19.7910 O   0  0  0  0  0  0  0  0  0  0  0  0
  -24.6510  -31.7050   23.1390 C   0  0  0  0  0  0  0  0  0  0  0  0
  -27.4150  -27.5140   19.8770 C   0  0  0  0  0  0  0  0  0  0  0  0
  -23.4680  -30.3150   21.4650 C   0  0  0  0  0  3  0  0  0  0  0  0
  -24.9570  -28.8800   19.9740 C   0  0  0  0  0  0  0  0  0  0  0  0
  -25.9670  -30.7890   21.2370 C   0  0  0  0  0  2  0  0  0  0  0  0
  -26.0960  -29.4430   20.5630 C   0  0  0  0  0  0  0  0  0  0  0  0
  -27.3290  -28.7660   20.5190 C   0  0  0  0  0  3  0  0  0  0  0  0
  -26.2680  -26.9570   19.2770 C   0  0  0  0  0  3  0  0  0  0  0  0
  -25.0340  -27.6320   19.3290 C   0  0  0  0  0  3  0  0  0  0  0  0
  -23.6780  -29.6810   20.0620 C   0  0  0  0  0  2  0  0  0  0  0  0
  -24.7130  -30.9490   22.0060 N   0  0  0  0  0  0  0  0  0  0  0  0
  -23.5710  -31.9140   23.7090 O   0  0  0  0  0  0  0  0  0  0  0  0
  -22.8730  -29.2380   22.4010 C   0  0  0  0  0  0  0  0  0  0  0  0
  -21.5560  -29.0040   22.2770 N   0  0  0  0  0  0  0  0  0  0  0  0
  -23.5920  -28.6160   23.1880 O   0  0  0  0  0  0  0  0  0  0  0  0
  -21.0360  -29.5570   21.6110 H   0  0  0  0  0  0  0  0  0  0  0  0
  -18.2470  -27.6480   22.7570 C   0  0  0  0  0  0  0  0  0  0  0  0
  -20.7900  -28.0100   23.0270 C   0  0  0  0  0  3  0  0  0  0  0  0
  -20.9530  -26.6020   22.4090 C   0  0  0  0  0  2  0  0  0  0  0  0
  -19.8620  -26.2590   21.3910 C   0  0  0  0  0  2  0  0  0  0  0  0
  -18.4790  -26.3260   22.0450 C   0  0  0  0  0  2  0  0  0  0  0  0
  -19.3310  -28.4450   23.2050 C   0  0  0  0  0  0  0  0  0  0  0  0
  -19.0590  -29.6830   23.8280 C   0  0  0  0  0  3  0  0  0  0  0  0
  -17.7350  -30.1210   24.0120 C   0  0  0  0  0  3  0  0  0  0  0  0
  -16.6640  -29.3200   23.5800 C   0  0  0  0  0  3  0  0  0  0  0  0
  -16.9210  -28.0860   22.9570 C   0  0  0  0  0  3  0  0  0  0  0  0
  -25.9270  -32.3620   23.7590 C   0  0  0  0  0  3  0  0  0  0  0  0
  -26.4660  -31.5860   25.0240 C   0  0  1  0  0  0  0  0  0  0  0  0
  -25.3700  -31.3030   26.0780 C   0  0  0  0  0  1  0  0  0  0  0  0
  -27.0970  -30.2330   24.6120 C   0  0  0  0  0  1  0  0  0  0  0  0
  -27.5890  -32.4050   25.7010 C   0  0  0  0  0  1  0  0  0  0  0  0
  -25.5830  -33.7480   24.1060 N   0  0  0  0  0  0  0  0  0  0  0  0
  -25.9060  -34.8210   23.3730 C   0  0  0  0  0  0  0  0  0  0  0  0
  -26.5980  -34.7510   22.3540 O   0  0  0  0  0  0  0  0  0  0  0  0
  -24.9780  -33.8740   24.9040 H   0  0  0  0  0  0  0  0  0  0  0  0
  -24.1430  -36.5830   23.0160 C   0  0  0  0  0  1  0  0  0  0  0  0
  -25.3780  -36.1900   23.8440 C   0  0  0  0  0  3  0  0  0  0  0  0
  -27.4850  -37.1040   24.7170 C   0  0  0  0  0  1  0  0  0  0  0  0
  -26.3850  -37.2710   23.7700 N   0  0  0  0  0  0  0  0  0  0  0  0
  -25.9520  -38.1750   23.9410 H   0  0  0  0  0  0  0  0  0  0  0  0
  1  2  1  0
  3  2  1  0
  4  3  1  0
  5  6  1  0
  5  4  1  0
  7 10  1  0
  7  6  1  0
  8  7  1  0
  9  7  1  0
 11 10  1  0
 12 20  1  0
 13 18  1  0
 14 15  1  0
 14 13  1  0
 16 15  1  0
 16 25  1  0
 16 17  1  0
 18 12  1  0
 18 17  1  0
 19 12  2  0
 20 11  1  0
 20 21  1  0
 22 23  2  0
 23 24  1  0
 23 42  1  0
 24 27  1  0
 25 22  1  0
 25 26  1  0
 26 24  2  0
 27 28  1  0
 28 29  2  0
 30 33  1  0
 30 29  1  0
 31 30  2  0
 32 31  1  0
 32 27  2  0
 33 34  1  0
 34 39  2  0
 34 35  1  0
 35 36  2  0
 36 37  1  0
 37 41  1  0
 38 37  2  0
 39 38  1  0
 40 39  1  0
 42 43  1  0
 43 46  1  0
 43 45  1  0
 44 42  2  0
 47 48  1  0
 47 22  1  0
 49 47  1  0
 50  1  1  0
 51 50  1  0
 52 53  1  0
 52 51  1  0
 54 52  1  0
 55 52  1  0
 56 55  1  0
 57 59  1  0
 57 56  1  0
 58 69  2  0
 59 64  1  0
 60 68  1  0
 60 70  1  0
 61 67  1  0
 61 63  1  0
 62 68  1  0
 63 62  1  0
 64 63  2  0
 65 66  1  0
 65 59  2  0
 66 61  2  0
 67 60  1  0
 68 58  1  0
 70 72  2  0
 71 70  1  0
 73 71  1  0
 74 83  2  0
 74 79  1  0
 75 71  1  0
 75 79  1  0
 76 75  1  0
 77 78  1  0
 77 76  1  0
 78 74  1  0
 79 80  2  0
 80 81  1  0
 82 81  2  0
 83 82  1  0
 84 58  1  0
 84 89  1  0
 84 85  1  0
 85 88  1  1
 85 86  1  0
 87 85  1  0
 89 92  1  0
 90 94  1  0
 90 89  1  0
 91 90  2  0
 94 93  1  0
 96 94  1  0
 96 97  1  0
 96 95  1  0
M  ISO  4  12 100  20 100  56 101  57 101
M  END
>  <TORSDO>  (20) 
F 29

>  <SCORE>  (20) 
-2.198

>  <name>  (20) 
19

>  <ligand_id>  (20) 
19

>  <original_smiles>  (20) 
[H]c1c([H])c([H])c2c(c1[H])C([H])([H])C([H])([H])C([H])([H])C2([H])N([H])C(=O)C1([H])N(C(=O)C([H])(N([H])C(=O)C([H])(N([H])C([H])([H])[H])C([H])([H])[H])C(C([H])([H])[H])(C([H])([H])[H])C([H])([H])[H])C([H])([H])c2c([H])c(OC([H])([H])C([H])([H])[N+]([H])([H])C([H])([H])C([H])([H])C([H])([H])C([H])([H])C([H])([H])OC([H])([H])C([H])([H])[N+]([H])([H])C([H])([H])C([H])([H])N([H])C(=O)N3C([H])([H])C([H])([H])C([H])([H])C([H])(n4nc(-c5c([H])c([H])c(Oc6c([H])c([H])c(F)c([H])c6F)c([H])c5[H])c(C(=O)N([H])[H])c4N([H])[H])C3([H])[H])c([H])c([H])c2C1([H])[H]

>  <smiles>  (20) 
[H]c1c([H])c([H])c2c(c1[H])C([H])([H])C([H])([H])C([H])([H])C2([H])N([H])C(=O)C1([H])N(C(=O)C([H])(N([H])C(=O)C([H])(N([H])C([H])([H])[H])C([H])([H])[H])C(C([H])([H])[H])(C([H])([H])[H])C([H])([H])[H])C([H])([H])c2c([H])c(OC([H])([H])C([H])([H])[N+]([H])([H])C([H])([H])C([H])([H])C([H])([H])C([H])([H])C([H])([H])OC([H])([H])C([H])([H])[N+]([H])([H])C([H])([H])C([H])([H])N([H])C(=O)N3C([H])([H])C([H])([H])C([H])([H])C([H])(n4nc(-c5c([H])c([H])c(Oc6c([H])c([H])c(F)c([H])c6F)c([H])c5[H])c(C(=O)N([H])[H])c4N([H])[H])C3([H])[H])c([H])c([H])c2C1([H])[H]

$$$$
20:0:0
     RDKit          3D

 96103  0  0  1  0  0  0  0  0999 V2000
  -27.0760  -21.1030   19.0650 C   0  0  0  0  0  0  0  0  0  0  0  0
  -26.4680  -20.0500   19.6320 N   0  0  0  0  0  0  0  0  0  0  0  0
  -27.4340  -21.0970   17.8840 O   0  0  0  0  0  0  0  0  0  0  0  0
  -26.1180  -20.1580   20.5770 H   0  0  0  0  0  0  0  0  0  0  0  0
  -27.3450  -22.3260   19.9470 C   0  0  0  0  0  2  0  0  0  0  0  0
  -28.2340  -23.3040   19.2700 N   0  0  0  0  0  4  0  0  0  0  0  0
  -27.7090  -23.8020   18.5700 H   0  0  0  0  0  0  0  0  0  0  0  0
  -28.9000  -22.7440   18.7580 H   0  0  0  0  0  0  0  0  0  0  0  0
  -28.9950  -24.2430   20.1430 C   0  0  0  0  0  2  0  0  0  0  0  0
  -28.1430  -25.3280   20.8410 C   0  0  0  0  0  2  0  0  0  0  0  0
  -28.3600  -26.6550   20.3130 O   0  0  0  0  0  0  0  0  0  0  0  0
  -24.6050  -31.9300   23.3040 C   0  0  0  0  0  0  0  0  0  0  0  0
  -27.2290  -27.4400   20.2770 C   0  0  0  0  0  0  0  0  0  0  0  0
  -23.4080  -30.5300   21.6570 C   0  0  0  0  0  3  0  0  0  0  0  0
  -24.8630  -28.9820   20.2510 C   0  0  0  0  0  0  0  0  0  0  0  0
  -25.9420  -30.8640   21.4880 C   0  0  0  0  0  2  0  0  0  0  0  0
  -26.0200  -29.4900   20.8530 C   0  0  0  0  0  0  0  0  0  0  0  0
  -27.2130  -28.7280   20.8620 C   0  0  0  0  0  3  0  0  0  0  0  0
  -26.0620  -26.9560   19.6540 C   0  0  0  0  0  3  0  0  0  0  0  0
  -24.8790  -27.7140   19.6480 C   0  0  0  0  0  3  0  0  0  0  0  0
  -23.6280  -29.8500   20.2790 C   0  0  0  0  0  2  0  0  0  0  0  0
  -24.6700  -31.1240   22.2080 N   0  0  0  0  0  0  0  0  0  0  0  0
  -23.5190  -32.2110   23.8310 O   0  0  0  0  0  0  0  0  0  0  0  0
  -22.7400  -29.5140   22.6110 C   0  0  0  0  0  0  0  0  0  0  0  0
  -21.4170  -29.3420   22.4740 N   0  0  0  0  0  0  0  0  0  0  0  0
  -23.4110  -28.8840   23.4340 O   0  0  0  0  0  0  0  0  0  0  0  0
  -20.9360  -29.9070   21.7860 H   0  0  0  0  0  0  0  0  0  0  0  0
  -18.0230  -28.1920   22.9520 C   0  0  0  0  0  0  0  0  0  0  0  0
  -20.5830  -28.4140   23.2390 C   0  0  0  0  0  3  0  0  0  0  0  0
  -20.6680  -26.9830   22.6610 C   0  0  0  0  0  2  0  0  0  0  0  0
  -19.5680  -26.6760   21.6410 C   0  0  0  0  0  2  0  0  0  0  0  0
  -18.1850  -26.8400   22.2760 C   0  0  0  0  0  2  0  0  0  0  0  0
  -19.1500  -28.9370   23.3890 C   0  0  0  0  0  0  0  0  0  0  0  0
  -18.9460  -30.2020   23.9810 C   0  0  0  0  0  3  0  0  0  0  0  0
  -17.6480  -30.7240   24.1390 C   0  0  0  0  0  3  0  0  0  0  0  0
  -16.5350  -29.9740   23.7210 C   0  0  0  0  0  3  0  0  0  0  0  0
  -16.7230  -28.7120   23.1320 C   0  0  0  0  0  3  0  0  0  0  0  0
  -25.8880  -32.5570   23.9350 C   0  0  0  0  0  3  0  0  0  0  0  0
  -26.3740  -31.8000   25.2330 C   0  0  1  0  0  0  0  0  0  0  0  0
  -25.2600  -31.5910   26.2860 C   0  0  0  0  0  1  0  0  0  0  0  0
  -26.9470  -30.4120   24.8700 C   0  0  0  0  0  1  0  0  0  0  0  0
  -27.5230  -32.5910   25.9010 C   0  0  0  0  0  1  0  0  0  0  0  0
  -25.5930  -33.9650   24.2380 N   0  0  0  0  0  0  0  0  0  0  0  0
  -25.9530  -34.9990   23.4680 C   0  0  0  0  0  0  0  0  0  0  0  0
  -26.6430  -34.8690   22.4530 O   0  0  0  0  0  0  0  0  0  0  0  0
  -24.9890  -34.1410   25.0270 H   0  0  0  0  0  0  0  0  0  0  0  0
  -24.2600  -36.8060   23.0380 C   0  0  0  0  0  1  0  0  0  0  0  0
  -25.4730  -36.4010   23.8900 C   0  0  0  0  0  3  0  0  0  0  0  0
  -27.5970  -37.2700   24.7630 C   0  0  0  0  0  1  0  0  0  0  0  0
  -26.5230  -37.4380   23.7870 N   0  0  0  0  0  0  0  0  0  0  0  0
  -26.1270  -38.3650   23.9080 H   0  0  0  0  0  0  0  0  0  0  0  0
  -26.1500  -18.7940   18.9450 C   0  0  0  0  0  2  0  0  0  0  0  0
  -27.3700  -17.8740   18.7790 C   0  0  0  0  0  2  0  0  0  0  0  0
  -27.9480  -17.4820   20.0800 N   0  0  0  0  0  4  0  0  0  0  0  0
  -27.2820  -16.8470   20.5070 H   0  0  0  0  0  0  0  0  0  0  0  0
  -28.0500  -18.2940   20.6700 H   0  0  0  0  0  0  0  0  0  0  0  0
  -29.2450  -16.7870   19.9820 C   0  0  0  0  0  2  0  0  0  0  0  0
  -29.4590  -15.8690   21.1980 C   0  0  0  0  0  2  0  0  0  0  0  0
  -31.0860  -14.2780   20.1450 C   0  0  0  0  0  0  0  0  0  0  0  0
  -30.6740  -12.2110   18.8600 C   0  0  0  0  0  2  0  0  0  0  0  0
  -29.6730  -12.4700   17.7200 C   0  0  0  0  0  2  0  0  0  0  0  0
  -28.2140  -12.3730   18.2170 C   0  0  0  0  0  2  0  0  0  0  0  0
  -27.9660  -13.1620   19.5320 C   0  0  0  0  0  3  0  0  0  0  0  0
  -29.0650  -12.8050   20.5610 C   0  0  0  0  0  2  0  0  0  0  0  0
  -30.3650  -13.1390   19.9600 N   0  0  0  0  0  0  0  0  0  0  0  0
  -32.1180  -14.5310   19.5180 O   0  0  0  0  0  0  0  0  0  0  0  0
  -30.7080  -15.0980   21.1340 N   0  0  0  0  0  0  0  0  0  0  0  0
  -31.4940  -15.6570   21.4390 H   0  0  0  0  0  0  0  0  0  0  0  0
  -25.6180  -13.8520   20.3480 C   0  0  0  0  0  0  0  0  0  0  0  0
  -24.5400  -13.1060   20.7360 C   0  0  0  0  0  0  0  0  0  0  0  0
  -24.9610  -11.7440   20.6860 C   0  0  0  0  0  0  0  0  0  0  0  0
  -26.6240  -12.9390   20.0590 N   0  0  0  0  0  0  0  0  0  0  0  0
  -26.2320  -11.6660   20.3210 N   0  0  0  0  0  0  0  0  0  0  0  0
  -24.2150  -10.5040   20.9160 C   0  0  0  0  0  0  0  0  0  0  0  0
  -24.6170   -9.5760   21.9010 C   0  0  0  0  0  3  0  0  0  0  0  0
  -23.8710   -8.4000   22.1230 C   0  0  0  0  0  3  0  0  0  0  0  0
  -22.7090   -8.1420   21.3580 C   0  0  0  0  0  0  0  0  0  0  0  0
  -22.3260   -9.0590   20.3610 C   0  0  0  0  0  3  0  0  0  0  0  0
  -23.0740  -10.2270   20.1390 C   0  0  0  0  0  3  0  0  0  0  0  0
  -21.9410   -7.0110   21.4790 O   0  0  0  0  0  0  0  0  0  0  0  0
  -21.8060   -6.3580   22.6760 C   0  0  0  0  0  0  0  0  0  0  0  0
  -21.3020   -7.0060   23.8250 C   0  0  0  0  0  3  0  0  0  0  0  0
  -21.1130   -6.2780   25.0170 C   0  0  0  0  0  3  0  0  0  0  0  0
  -21.4210   -4.9030   25.0620 C   0  0  0  0  0  0  0  0  0  0  0  0
  -21.9180   -4.2570   23.9170 C   0  0  0  0  0  3  0  0  0  0  0  0
  -22.1060   -4.9820   22.7270 C   0  0  0  0  0  0  0  0  0  0  0  0
  -22.5620   -4.3470   21.6200 F   0  0  0  0  0  0  0  0  0  0  0  0
  -21.2340   -4.2030   26.2040 F   0  0  0  0  0  0  0  0  0  0  0  0
  -23.1620  -13.6190   21.0520 C   0  0  0  0  0  0  0  0  0  0  0  0
  -22.4420  -12.9480   21.9430 N   0  0  0  0  0  0  0  0  0  0  0  0
  -22.7410  -14.6540   20.5360 O   0  0  0  0  0  0  0  0  0  0  0  0
  -22.7910  -12.1060   22.3790 H   0  0  0  0  0  0  0  0  0  0  0  0
  -21.5230  -13.2840   22.1940 H   0  0  0  0  0  0  0  0  0  0  0  0
  -25.8160  -15.2300   20.2180 N   0  0  0  0  0  0  0  0  0  0  0  0
  -25.1500  -15.5090   19.5050 H   0  0  0  0  0  0  0  0  0  0  0  0
  -25.3510  -15.5900   21.0460 H   0  0  0  0  0  0  0  0  0  0  0  0
  1  2  1  0
  1  5  1  0
  2  4  1  0
  3  1  2  0
  6  5  1  0
  6  9  1  0
  7  6  1  0
  8  6  1  0
  9 10  1  0
 11 10  1  0
 12 23  2  0
 13 11  1  0
 13 18  1  0
 14 22  1  0
 14 24  1  0
 15 21  1  0
 15 17  1  0
 16 22  1  0
 17 18  2  0
 17 16  1  0
 19 13  2  0
 20 19  1  0
 20 15  2  0
 21 14  1  0
 22 12  1  0
 24 26  2  0
 25 24  1  0
 27 25  1  0
 28 37  2  0
 28 33  1  0
 29 25  1  0
 29 33  1  0
 30 29  1  0
 31 32  1  0
 31 30  1  0
 32 28  1  0
 33 34  2  0
 34 35  1  0
 36 35  2  0
 37 36  1  0
 38 12  1  0
 38 43  1  0
 38 39  1  0
 39 42  1  1
 39 40  1  0
 41 39  1  0
 43 46  1  0
 44 48  1  0
 44 43  1  0
 45 44  2  0
 48 47  1  0
 50 48  1  0
 50 51  1  0
 50 49  1  0
 52  2  1  0
 53 52  1  0
 53 54  1  0
 54 55  1  0
 54 56  1  0
 57 54  1  0
 57 58  1  0
 59 67  1  0
 60 65  1  0
 61 62  1  0
 61 60  1  0
 63 62  1  0
 63 72  1  0
 63 64  1  0
 65 59  1  0
 65 64  1  0
 66 59  2  0
 67 58  1  0
 67 68  1  0
 69 70  2  0
 70 89  1  0
 71 70  1  0
 71 74  1  0
 72 73  1  0
 72 69  1  0
 73 71  2  0
 74 75  1  0
 75 76  2  0
 77 80  1  0
 77 76  1  0
 78 77  2  0
 79 78  1  0
 79 74  2  0
 80 81  1  0
 81 86  2  0
 81 82  1  0
 82 83  2  0
 83 84  1  0
 84 88  1  0
 85 84  2  0
 86 85  1  0
 87 86  1  0
 89 90  1  0
 90 93  1  0
 90 92  1  0
 91 89  2  0
 94 69  1  0
 94 96  1  0
 95 94  1  0
M  ISO  4  10 101  11 101  59 100  67 100
M  END
>  <TORSDO>  (21) 
F 25

>  <SCORE>  (21) 
-11.062

>  <name>  (21) 
20

>  <ligand_id>  (21) 
20

>  <original_smiles>  (21) 
[H]c1c([H])c([H])c2c(c1[H])C([H])([H])C([H])([H])C([H])([H])C2([H])N([H])C(=O)C1([H])N(C(=O)C([H])(N([H])C(=O)C([H])(N([H])C([H])([H])[H])C([H])([H])[H])C(C([H])([H])[H])(C([H])([H])[H])C([H])([H])[H])C([H])([H])c2c([H])c(OC([H])([H])C([H])([H])[N+]([H])([H])C([H])([H])C(=O)N([H])C([H])([H])C([H])([H])[N+]([H])([H])C([H])([H])C([H])([H])N([H])C(=O)N3C([H])([H])C([H])([H])C([H])([H])C([H])(n4nc(-c5c([H])c([H])c(Oc6c([H])c([H])c(F)c([H])c6F)c([H])c5[H])c(C(=O)N([H])[H])c4N([H])[H])C3([H])[H])c([H])c([H])c2C1([H])[H]

>  <smiles>  (21) 
[H]c1c([H])c([H])c2c(c1[H])C([H])([H])C([H])([H])C([H])([H])C2([H])N([H])C(=O)C1([H])N(C(=O)C([H])(N([H])C(=O)C([H])(N([H])C([H])([H])[H])C([H])([H])[H])C(C([H])([H])[H])(C([H])([H])[H])C([H])([H])[H])C([H])([H])c2c([H])c(OC([H])([H])C([H])([H])[N+]([H])([H])C([H])([H])C(=O)N([H])C([H])([H])C([H])([H])[N+]([H])([H])C([H])([H])C([H])([H])N([H])C(=O)N3C([H])([H])C([H])([H])C([H])([H])C([H])(n4nc(-c5c([H])c([H])c(Oc6c([H])c([H])c(F)c([H])c6F)c([H])c5[H])c(C(=O)N([H])[H])c4N([H])[H])C3([H])[H])c([H])c([H])c2C1([H])[H]

$$$$
21:0:0
     RDKit          3D

 86 93  0  0  1  0  0  0  0  0999 V2000
  -28.8370  -22.7640   20.5210 C   0  0  0  0  0  3  0  0  0  0  0  0
  -29.3040  -19.8370   20.4720 C   0  0  0  0  0  0  0  0  0  0  0  0
  -29.1010  -21.2080   19.9240 N   0  0  0  0  0  0  0  0  0  0  0  0
  -29.0370  -19.7210   21.6680 O   0  0  0  0  0  0  0  0  0  0  0  0
  -29.2830  -21.2270   18.9280 H   0  0  0  0  0  0  0  0  0  0  0  0
  -29.9160  -18.3420   19.7690 C   0  0  0  0  0  2  0  0  0  0  0  0
  -30.5450  -15.4350   19.9120 C   0  0  0  0  0  0  0  0  0  0  0  0
  -30.4730  -13.0020   18.9930 C   0  0  0  0  0  2  0  0  0  0  0  0
  -29.4800  -12.8250   17.8150 C   0  0  0  0  0  2  0  0  0  0  0  0
  -28.0620  -12.5370   18.3380 C   0  0  0  0  0  2  0  0  0  0  0  0
  -27.6820  -13.4660   19.5160 C   0  0  0  0  0  3  0  0  0  0  0  0
  -28.7990  -13.5920   20.5770 C   0  0  0  0  0  2  0  0  0  0  0  0
  -29.9860  -14.1210   19.8860 N   0  0  0  0  0  0  0  0  0  0  0  0
  -31.7310  -15.4470   19.5520 O   0  0  0  0  0  0  0  0  0  0  0  0
  -29.7910  -16.7020   20.1270 N   0  0  0  0  0  0  0  0  0  0  0  0
  -28.8680  -16.4950   20.4780 H   0  0  0  0  0  0  0  0  0  0  0  0
  -25.3690  -13.9960   20.4450 C   0  0  0  0  0  0  0  0  0  0  0  0
  -24.3330  -13.2060   20.8550 C   0  0  0  0  0  0  0  0  0  0  0  0
  -24.7930  -11.8580   20.7430 C   0  0  0  0  0  0  0  0  0  0  0  0
  -26.3910  -13.1300   20.1000 N   0  0  0  0  0  0  0  0  0  0  0  0
  -26.0610  -11.8360   20.3460 N   0  0  0  0  0  0  0  0  0  0  0  0
  -24.0760  -10.5890   20.9320 C   0  0  0  0  0  0  0  0  0  0  0  0
  -24.5270   -9.6140   21.8480 C   0  0  0  0  0  3  0  0  0  0  0  0
  -23.8060   -8.4140   22.0280 C   0  0  0  0  0  3  0  0  0  0  0  0
  -22.6190   -8.1800   21.2940 C   0  0  0  0  0  0  0  0  0  0  0  0
  -22.1860   -9.1460   20.3670 C   0  0  0  0  0  3  0  0  0  0  0  0
  -22.9080  -10.3370   20.1840 C   0  0  0  0  0  3  0  0  0  0  0  0
  -21.8680   -7.0330   21.3840 O   0  0  0  0  0  0  0  0  0  0  0  0
  -21.8000   -6.3070   22.5460 C   0  0  0  0  0  0  0  0  0  0  0  0
  -21.3120   -6.8670   23.7470 C   0  0  0  0  0  3  0  0  0  0  0  0
  -21.1940   -6.0650   24.9000 C   0  0  0  0  0  3  0  0  0  0  0  0
  -21.5530   -4.7060   24.8530 C   0  0  0  0  0  0  0  0  0  0  0  0
  -22.0340   -4.1450   23.6560 C   0  0  0  0  0  3  0  0  0  0  0  0
  -22.1530   -4.9440   22.5060 C   0  0  0  0  0  0  0  0  0  0  0  0
  -22.5970   -4.3930   21.3500 F   0  0  0  0  0  0  0  0  0  0  0  0
  -21.4340   -3.9340   25.9590 F   0  0  0  0  0  0  0  0  0  0  0  0
  -22.9580  -13.6740   21.2300 C   0  0  0  0  0  0  0  0  0  0  0  0
  -22.2850  -12.9510   22.1170 N   0  0  0  0  0  0  0  0  0  0  0  0
  -22.4910  -14.7170   20.7720 O   0  0  0  0  0  0  0  0  0  0  0  0
  -22.6760  -12.1070   22.5080 H   0  0  0  0  0  0  0  0  0  0  0  0
  -21.3640  -13.2450   22.4110 H   0  0  0  0  0  0  0  0  0  0  0  0
  -25.5210  -15.3730   20.3060 N   0  0  0  0  0  0  0  0  0  0  0  0
  -24.7590  -16.0170   20.4850 H   0  0  0  0  0  0  0  0  0  0  0  0
  -26.3290  -15.8220   19.8970 H   0  0  0  0  0  0  0  0  0  0  0  0
  -28.1150  -24.3050   19.8790 C   0  0  0  0  0  3  0  0  0  0  0  0
  -28.1940  -25.9180   20.2780 O   0  0  0  0  0  0  0  0  0  0  0  0
  -24.5950  -31.8880   23.1940 C   0  0  0  0  0  0  0  0  0  0  0  0
  -27.1750  -27.0110   20.1740 C   0  0  0  0  0  0  0  0  0  0  0  0
  -23.4050  -30.4810   21.5610 C   0  0  0  0  0  3  0  0  0  0  0  0
  -24.8610  -28.8830   20.1320 C   0  0  0  0  0  0  0  0  0  0  0  0
  -25.9690  -30.7060   21.4070 C   0  0  0  0  0  2  0  0  0  0  0  0
  -26.0460  -29.2950   20.7520 C   0  0  0  0  0  0  0  0  0  0  0  0
  -27.1940  -28.3790   20.7500 C   0  0  0  0  0  3  0  0  0  0  0  0
  -25.9610  -26.7580   19.4960 C   0  0  0  0  0  3  0  0  0  0  0  0
  -24.8440  -27.6370   19.4830 C   0  0  0  0  0  3  0  0  0  0  0  0
  -23.6350  -29.7950   20.1850 C   0  0  0  0  0  2  0  0  0  0  0  0
  -24.6780  -31.0530   22.1080 N   0  0  0  0  0  0  0  0  0  0  0  0
  -23.5050  -32.1710   23.7190 O   0  0  0  0  0  0  0  0  0  0  0  0
  -22.7210  -29.4820   22.5320 C   0  0  0  0  0  0  0  0  0  0  0  0
  -21.3910  -29.3080   22.4130 N   0  0  0  0  0  0  0  0  0  0  0  0
  -23.3930  -28.8650   23.3630 O   0  0  0  0  0  0  0  0  0  0  0  0
  -20.9010  -29.8570   21.7200 H   0  0  0  0  0  0  0  0  0  0  0  0
  -18.0190  -28.0780   22.9440 C   0  0  0  0  0  0  0  0  0  0  0  0
  -20.5790  -28.3650   23.1900 C   0  0  0  0  0  3  0  0  0  0  0  0
  -20.6870  -26.9330   22.6150 C   0  0  0  0  0  2  0  0  0  0  0  0
  -19.5810  -26.6030   21.6070 C   0  0  0  0  0  2  0  0  0  0  0  0
  -18.2020  -26.7330   22.2610 C   0  0  0  0  0  2  0  0  0  0  0  0
  -19.1340  -28.8510   23.3650 C   0  0  0  0  0  0  0  0  0  0  0  0
  -18.9060  -30.1080   23.9670 C   0  0  0  0  0  3  0  0  0  0  0  0
  -17.5960  -30.5930   24.1480 C   0  0  0  0  0  3  0  0  0  0  0  0
  -16.4970  -29.8180   23.7400 C   0  0  0  0  0  3  0  0  0  0  0  0
  -16.7080  -28.5620   23.1440 C   0  0  0  0  0  3  0  0  0  0  0  0
  -25.8630  -32.5410   23.8220 C   0  0  0  0  0  3  0  0  0  0  0  0
  -26.3680  -31.7940   25.1190 C   0  0  1  0  0  0  0  0  0  0  0  0
  -25.2640  -31.5700   26.1790 C   0  0  0  0  0  1  0  0  0  0  0  0
  -26.9610  -30.4120   24.7640 C   0  0  0  0  0  1  0  0  0  0  0  0
  -27.5080  -32.6040   25.7790 C   0  0  0  0  0  1  0  0  0  0  0  0
  -25.5400  -33.9440   24.1420 N   0  0  0  0  0  0  0  0  0  0  0  0
  -25.8640  -35.0000   23.3830 C   0  0  0  0  0  0  0  0  0  0  0  0
  -26.5290  -34.8960   22.3480 O   0  0  0  0  0  0  0  0  0  0  0  0
  -24.9480  -34.0970   24.9440 H   0  0  0  0  0  0  0  0  0  0  0  0
  -24.1290  -36.7940   23.0420 C   0  0  0  0  0  1  0  0  0  0  0  0
  -25.3790  -36.3910   23.8420 C   0  0  0  0  0  3  0  0  0  0  0  0
  -27.5130  -37.2930   24.6600 C   0  0  0  0  0  1  0  0  0  0  0  0
  -26.4080  -37.4470   23.7170 N   0  0  0  0  0  0  0  0  0  0  0  0
  -25.9980  -38.3670   23.8570 H   0  0  0  0  0  0  0  0  0  0  0  0
  2  4  2  0
  3  2  1  0
  3  1  1  0
  5  3  1  0
  6 15  1  0
  6  2  1  0
  7 15  1  0
  8 13  1  0
  9 10  1  0
  9  8  1  0
 11 10  1  0
 11 20  1  0
 11 12  1  0
 13  7  1  0
 13 12  1  0
 14  7  2  0
 15 16  1  0
 17 18  2  0
 18 37  1  0
 19 18  1  0
 19 22  1  0
 20 21  1  0
 20 17  1  0
 21 19  2  0
 22 23  1  0
 23 24  2  0
 25 28  1  0
 25 24  1  0
 26 25  2  0
 27 26  1  0
 27 22  2  0
 28 29  1  0
 29 30  1  0
 30 31  2  0
 32 31  1  0
 32 36  1  0
 33 32  2  0
 34 29  2  0
 34 33  1  0
 35 34  1  0
 37 38  1  0
 38 41  1  0
 38 40  1  0
 39 37  2  0
 42 17  1  0
 42 43  1  0
 44 42  1  0
 45 46  1  0
 45  1  2  0
 47 58  2  0
 48 46  1  0
 48 53  1  0
 49 57  1  0
 49 59  1  0
 50 56  1  0
 50 52  1  0
 51 57  1  0
 52 51  1  0
 53 52  2  0
 54 48  2  0
 55 54  1  0
 55 50  2  0
 56 49  1  0
 57 47  1  0
 59 61  2  0
 60 59  1  0
 62 60  1  0
 63 72  2  0
 63 68  1  0
 64 60  1  0
 64 68  1  0
 65 64  1  0
 66 67  1  0
 66 65  1  0
 67 63  1  0
 68 69  2  0
 69 70  1  0
 71 70  2  0
 72 71  1  0
 73 47  1  0
 73 78  1  0
 73 74  1  0
 74 77  1  1
 74 75  1  0
 76 74  1  0
 78 81  1  0
 79 83  1  0
 79 78  1  0
 80 79  2  0
 83 82  1  0
 85 83  1  0
 85 86  1  0
 85 84  1  0
M  ISO  4   7 100  15 100  45 101  46 101
M  END
>  <TORSDO>  (22) 
F 19

>  <SCORE>  (22) 
-15.612

>  <name>  (22) 
21

>  <ligand_id>  (22) 
21

>  <original_smiles>  (22) 
[H]c1c([H])c([H])c2c(c1[H])C([H])([H])C([H])([H])C([H])([H])C2([H])N([H])C(=O)C1([H])N(C(=O)C([H])(N([H])C(=O)C([H])(N([H])C([H])([H])[H])C([H])([H])[H])C(C([H])([H])[H])(C([H])([H])[H])C([H])([H])[H])C([H])([H])c2c([H])c(OC([H])([H])C([H])([H])N([H])C(=O)C([H])([H])N([H])C(=O)N3C([H])([H])C([H])([H])C([H])([H])C([H])(n4nc(-c5c([H])c([H])c(Oc6c([H])c([H])c(F)c([H])c6F)c([H])c5[H])c(C(=O)N([H])[H])c4N([H])[H])C3([H])[H])c([H])c([H])c2C1([H])[H]

>  <smiles>  (22) 
[H]c1c([H])c([H])c2c(c1[H])C([H])([H])C([H])([H])C([H])([H])C2([H])N([H])C(=O)C1([H])N(C(=O)C([H])(N([H])C(=O)C([H])(N([H])C([H])([H])[H])C([H])([H])[H])C(C([H])([H])[H])(C([H])([H])[H])C([H])([H])[H])C([H])([H])c2c([H])c(OC([H])([H])C([H])([H])N([H])C(=O)C([H])([H])N([H])C(=O)N3C([H])([H])C([H])([H])C([H])([H])C([H])(n4nc(-c5c([H])c([H])c(Oc6c([H])c([H])c(F)c([H])c6F)c([H])c5[H])c(C(=O)N([H])[H])c4N([H])[H])C3([H])[H])c([H])c([H])c2C1([H])[H]

$$$$
22:0:0
     RDKit          3D

106113  0  0  1  0  0  0  0  0999 V2000
  -30.2610  -21.0560   21.6090 C   0  0  0  0  0  3  0  0  0  0  0  0
  -29.9090  -21.7420   20.2650 C   0  0  0  0  0  0  0  0  0  0  0  0
  -30.6560  -21.4530   19.1840 N   0  0  0  0  0  0  0  0  0  0  0  0
  -29.0090  -22.5880   20.2180 O   0  0  0  0  0  0  0  0  0  0  0  0
  -31.3810  -20.7540   19.2880 H   0  0  0  0  0  0  0  0  0  0  0  0
  -30.3830  -21.9250   17.8260 C   0  0  0  0  0  2  0  0  0  0  0  0
  -30.9520  -23.3280   17.5480 C   0  0  0  0  0  2  0  0  0  0  0  0
  -32.3930  -23.4150   17.8450 N   0  0  0  0  0  4  0  0  0  0  0  0
  -32.5710  -23.2290   18.8140 H   0  0  0  0  0  0  0  0  0  0  0  0
  -32.7320  -24.3340   17.6280 H   0  0  0  0  0  0  0  0  0  0  0  0
  -32.9060  -22.7540   17.2890 H   0  0  0  0  0  0  0  0  0  0  0  0
  -29.9290  -19.5470   21.5220 C   0  0  0  0  0  0  0  0  0  0  0  0
  -30.5960  -18.7630   22.3790 N   0  0  0  0  0  0  0  0  0  0  0  0
  -29.1090  -19.0760   20.7260 O   0  0  0  0  0  0  0  0  0  0  0  0
  -31.2180  -19.2160   23.0380 H   0  0  0  0  0  0  0  0  0  0  0  0
  -30.5480  -17.3070   22.4030 C   0  0  0  0  0  2  0  0  0  0  0  0
  -31.5470  -16.7360   21.3830 C   0  0  0  0  0  2  0  0  0  0  0  0
  -31.7920  -15.2300   21.5410 C   0  0  0  0  0  2  0  0  0  0  0  0
  -30.5750  -14.0540   19.7210 C   0  0  0  0  0  0  0  0  0  0  0  0
  -29.9690  -12.0380   18.4530 C   0  0  0  0  0  2  0  0  0  0  0  0
  -28.8610  -12.2410   17.4110 C   0  0  0  0  0  2  0  0  0  0  0  0
  -27.4780  -12.0680   18.0590 C   0  0  0  0  0  2  0  0  0  0  0  0
  -27.3150  -12.9290   19.3360 C   0  0  0  0  0  3  0  0  0  0  0  0
  -28.5120  -12.7420   20.2950 C   0  0  0  0  0  2  0  0  0  0  0  0
  -29.7670  -12.9830   19.5570 N   0  0  0  0  0  0  0  0  0  0  0  0
  -31.3260  -14.4930   18.8450 O   0  0  0  0  0  0  0  0  0  0  0  0
  -30.7030  -14.4210   21.0010 N   0  0  0  0  0  0  0  0  0  0  0  0
  -30.1180  -13.9290   21.6620 H   0  0  0  0  0  0  0  0  0  0  0  0
  -25.0510  -13.5300   20.4100 C   0  0  0  0  0  0  0  0  0  0  0  0
  -24.0380  -12.7520   20.9050 C   0  0  0  0  0  0  0  0  0  0  0  0
  -24.4720  -11.3990   20.7570 C   0  0  0  0  0  0  0  0  0  0  0  0
  -26.0420  -12.6500   19.9990 N   0  0  0  0  0  0  0  0  0  0  0  0
  -25.7040  -11.3620   20.2610 N   0  0  0  0  0  0  0  0  0  0  0  0
  -23.7660  -10.1360   21.0080 C   0  0  0  0  0  0  0  0  0  0  0  0
  -24.2810   -9.1650   21.8970 C   0  0  0  0  0  3  0  0  0  0  0  0
  -23.5750   -7.9670   22.1350 C   0  0  0  0  0  3  0  0  0  0  0  0
  -22.3390   -7.7300   21.4850 C   0  0  0  0  0  0  0  0  0  0  0  0
  -21.8430   -8.6890   20.5850 C   0  0  0  0  0  3  0  0  0  0  0  0
  -22.5490   -9.8790   20.3460 C   0  0  0  0  0  3  0  0  0  0  0  0
  -21.5970   -6.5830   21.6360 O   0  0  0  0  0  0  0  0  0  0  0  0
  -21.6160   -5.8620   22.8030 C   0  0  0  0  0  0  0  0  0  0  0  0
  -21.2440   -6.4340   24.0400 C   0  0  0  0  0  3  0  0  0  0  0  0
  -21.2110   -5.6380   25.2010 C   0  0  0  0  0  3  0  0  0  0  0  0
  -21.5370   -4.2710   25.1290 C   0  0  0  0  0  0  0  0  0  0  0  0
  -21.9020   -3.6970   23.8970 C   0  0  0  0  0  3  0  0  0  0  0  0
  -21.9380   -4.4910   22.7370 C   0  0  0  0  0  0  0  0  0  0  0  0
  -22.2690   -3.9290   21.5500 F   0  0  0  0  0  0  0  0  0  0  0  0
  -21.4980   -3.5040   26.2440 F   0  0  0  0  0  0  0  0  0  0  0  0
  -22.7030  -13.2280   21.3990 C   0  0  0  0  0  0  0  0  0  0  0  0
  -22.1120  -12.5160   22.3510 N   0  0  0  0  0  0  0  0  0  0  0  0
  -22.1980  -14.2670   20.9740 O   0  0  0  0  0  0  0  0  0  0  0  0
  -22.5340  -11.6740   22.7130 H   0  0  0  0  0  0  0  0  0  0  0  0
  -21.2220  -12.8180   22.7240 H   0  0  0  0  0  0  0  0  0  0  0  0
  -25.2050  -14.9040   20.2580 N   0  0  0  0  0  0  0  0  0  0  0  0
  -24.4770  -15.5650   20.5060 H   0  0  0  0  0  0  0  0  0  0  0  0
  -26.0180  -15.3470   19.8450 H   0  0  0  0  0  0  0  0  0  0  0  0
  -30.4440  -22.4320   23.4610 N   0  0  0  0  0  2  0  0  0  0  0  0
  -29.6800  -21.7000   22.8030 N   0  0  0  0  0  2  0  0  0  0  0  0
  -29.7940  -23.0780   24.6280 C   0  0  0  0  0  2  0  0  0  0  0  0
  -29.5790  -24.5470   24.2190 C   0  0  0  0  0  2  0  0  0  0  0  0
  -28.8010  -24.6080   22.9630 N   0  0  0  0  0  4  0  0  0  0  0  0
  -27.8410  -24.3620   23.1540 H   0  0  0  0  0  0  0  0  0  0  0  0
  -29.1800  -23.8790   22.3760 H   0  0  0  0  0  0  0  0  0  0  0  0
  -28.8610  -25.8870   22.2230 C   0  0  0  0  0  2  0  0  0  0  0  0
  -28.7510  -25.6530   20.7050 C   0  0  0  0  0  2  0  0  0  0  0  0
  -28.7480  -26.8920   20.0040 O   0  0  0  0  0  0  0  0  0  0  0  0
  -24.6550  -31.7710   23.1130 C   0  0  0  0  0  0  0  0  0  0  0  0
  -27.5400  -27.5380   20.0010 C   0  0  0  0  0  0  0  0  0  0  0  0
  -23.5360  -30.3470   21.4260 C   0  0  0  0  0  3  0  0  0  0  0  0
  -25.0780  -28.9000   20.0040 C   0  0  0  0  0  0  0  0  0  0  0  0
  -26.0420  -30.8310   21.2700 C   0  0  0  0  0  2  0  0  0  0  0  0
  -26.1990  -29.4780   20.6140 C   0  0  0  0  0  0  0  0  0  0  0  0
  -27.4370  -28.8040   20.6080 C   0  0  0  0  0  3  0  0  0  0  0  0
  -26.4080  -26.9590   19.3900 C   0  0  0  0  0  3  0  0  0  0  0  0
  -25.1740  -27.6370   19.3910 C   0  0  0  0  0  3  0  0  0  0  0  0
  -23.7970  -29.6980   20.0400 C   0  0  0  0  0  2  0  0  0  0  0  0
  -24.7610  -30.9950   21.9960 N   0  0  0  0  0  0  0  0  0  0  0  0
  -23.5550  -31.9850   23.6410 O   0  0  0  0  0  0  0  0  0  0  0  0
  -22.9160  -29.2830   22.3570 C   0  0  0  0  0  0  0  0  0  0  0  0
  -21.6000  -29.0560   22.2100 N   0  0  0  0  0  0  0  0  0  0  0  0
  -23.6130  -28.6650   23.1660 O   0  0  0  0  0  0  0  0  0  0  0  0
  -21.1010  -29.6100   21.5280 H   0  0  0  0  0  0  0  0  0  0  0  0
  -18.2640  -27.7380   22.6420 C   0  0  0  0  0  0  0  0  0  0  0  0
  -20.8080  -28.0740   22.9490 C   0  0  0  0  0  3  0  0  0  0  0  0
  -20.9640  -26.6620   22.3400 C   0  0  0  0  0  2  0  0  0  0  0  0
  -19.8840  -26.3270   21.3060 C   0  0  0  0  0  2  0  0  0  0  0  0
  -18.4920  -26.4110   21.9380 C   0  0  0  0  0  2  0  0  0  0  0  0
  -19.3520  -28.5250   23.1030 C   0  0  0  0  0  0  0  0  0  0  0  0
  -19.0860  -29.7670   23.7210 C   0  0  0  0  0  3  0  0  0  0  0  0
  -17.7640  -30.2230   23.8800 C   0  0  0  0  0  3  0  0  0  0  0  0
  -16.6900  -29.4330   23.4360 C   0  0  0  0  0  3  0  0  0  0  0  0
  -16.9400  -28.1930   22.8220 C   0  0  0  0  0  3  0  0  0  0  0  0
  -25.9040  -32.4420   23.7660 C   0  0  0  0  0  3  0  0  0  0  0  0
  -25.5300  -33.8170   24.1220 N   0  0  0  0  0  0  0  0  0  0  0  0
  -25.8290  -34.8980   23.3900 C   0  0  0  0  0  0  0  0  0  0  0  0
  -26.5210  -34.8480   22.3710 O   0  0  0  0  0  0  0  0  0  0  0  0
  -24.9180  -33.9280   24.9170 H   0  0  0  0  0  0  0  0  0  0  0  0
  -24.0330  -36.6210   23.0400 C   0  0  0  0  0  1  0  0  0  0  0  0
  -25.2740  -36.2540   23.8690 C   0  0  0  0  0  3  0  0  0  0  0  0
  -27.3520  -37.2100   24.7610 C   0  0  0  0  0  1  0  0  0  0  0  0
  -26.2620  -37.3530   23.8000 N   0  0  0  0  0  0  0  0  0  0  0  0
  -25.8140  -38.2510   23.9610 H   0  0  0  0  0  0  0  0  0  0  0  0
  -26.4380  -31.6630   25.0300 C   0  0  1  0  0  0  0  0  0  0  0  0
  -25.3420  -31.3460   26.0750 C   0  0  0  0  0  1  0  0  0  0  0  0
  -27.0910  -30.3260   24.6080 C   0  0  0  0  0  1  0  0  0  0  0  0
  -27.5400  -32.4920   25.7320 C   0  0  0  0  0  1  0  0  0  0  0  0
  1  2  1  0
  1 58  1  0
  3  5  1  0
  3  2  1  0
  4  2  2  0
  6  3  1  0
  7  6  1  0
  7  8  1  0
  8  9  1  0
 10  8  1  0
 11  8  1  0
 12  1  1  0
 12 13  1  0
 13 16  1  0
 13 15  1  0
 14 12  2  0
 17 18  1  0
 17 16  1  0
 19 27  1  0
 20 25  1  0
 21 22  1  0
 21 20  1  0
 23 22  1  0
 23 32  1  0
 23 24  1  0
 25 19  1  0
 25 24  1  0
 26 19  2  0
 27 18  1  0
 27 28  1  0
 29 30  2  0
 30 49  1  0
 31 30  1  0
 31 34  1  0
 32 33  1  0
 32 29  1  0
 33 31  2  0
 34 35  1  0
 35 36  2  0
 37 40  1  0
 37 36  1  0
 38 37  2  0
 39 38  1  0
 39 34  2  0
 40 41  1  0
 41 42  1  0
 42 43  2  0
 44 43  1  0
 44 48  1  0
 45 44  2  0
 46 41  2  0
 46 45  1  0
 47 46  1  0
 49 50  1  0
 50 52  1  0
 50 53  1  0
 51 49  2  0
 54 29  1  0
 54 55  1  0
 56 54  1  0
 57 59  1  0
 58 57  1  0
 60 59  1  0
 61 62  1  0
 61 60  1  0
 63 61  1  0
 64 61  1  0
 65 64  1  0
 66 65  1  0
 67 78  2  0
 68 66  1  0
 68 73  1  0
 69 77  1  0
 69 79  1  0
 70 76  1  0
 70 72  1  0
 71 77  1  0
 72 71  1  0
 73 72  2  0
 74 75  1  0
 74 68  2  0
 75 70  2  0
 76 69  1  0
 77 67  1  0
 79 81  2  0
 80 79  1  0
 82 80  1  0
 83 92  2  0
 83 88  1  0
 84 80  1  0
 84 88  1  0
 85 84  1  0
 86 87  1  0
 86 85  1  0
 87 83  1  0
 88 89  2  0
 89 90  1  0
 91 90  2  0
 92 91  1  0
 93 67  1  0
 93 94  1  0
 93103  1  0
 94 97  1  0
 95 99  1  0
 95 94  1  0
 96 95  2  0
 99 98  1  0
101 99  1  0
101102  1  0
101100  1  0
103106  1  1
103104  1  0
105103  1  0
M  ISO  4  19 100  27 100  65 101  66 101
M  END
>  <TORSDO>  (23) 
F 30

>  <SCORE>  (23) 
-9.128

>  <name>  (23) 
22

>  <ligand_id>  (23) 
22

>  <original_smiles>  (23) 
[H]c1c([H])c([H])c2c(c1[H])C([H])([H])C([H])([H])C([H])([H])C2([H])N([H])C(=O)C1([H])N(C(=O)C([H])(N([H])C(=O)C([H])(N([H])C([H])([H])[H])C([H])([H])[H])C(C([H])([H])[H])(C([H])([H])[H])C([H])([H])[H])C([H])([H])c2c([H])c(OC([H])([H])C([H])([H])[N+]([H])([H])C([H])([H])C([H])([H])N=NC([H])(C(=O)N([H])C([H])([H])C([H])([H])C([H])([H])N([H])C(=O)N3C([H])([H])C([H])([H])C([H])([H])C([H])(n4nc(-c5c([H])c([H])c(Oc6c([H])c([H])c(F)c([H])c6F)c([H])c5[H])c(C(=O)N([H])[H])c4N([H])[H])C3([H])[H])C(=O)N([H])C([H])([H])C([H])([H])[N+]([H])([H])[H])c([H])c([H])c2C1([H])[H]

>  <smiles>  (23) 
[H]c1c([H])c([H])c2c(c1[H])C([H])([H])C([H])([H])C([H])([H])C2([H])N([H])C(=O)C1([H])N(C(=O)C([H])(N([H])C(=O)C([H])(N([H])C([H])([H])[H])C([H])([H])[H])C(C([H])([H])[H])(C([H])([H])[H])C([H])([H])[H])C([H])([H])c2c([H])c(OC([H])([H])C([H])([H])[N+]([H])([H])C([H])([H])C([H])([H])N=NC([H])(C(=O)N([H])C([H])([H])C([H])([H])C([H])([H])N([H])C(=O)N3C([H])([H])C([H])([H])C([H])([H])C([H])(n4nc(-c5c([H])c([H])c(Oc6c([H])c([H])c(F)c([H])c6F)c([H])c5[H])c(C(=O)N([H])[H])c4N([H])[H])C3([H])[H])C(=O)N([H])C([H])([H])C([H])([H])[N+]([H])([H])[H])c([H])c([H])c2C1([H])[H]

$$$$
23:0:0
     RDKit          3D

 93100  0  0  1  0  0  0  0  0999 V2000
  -29.4600  -21.6980   22.0450 C   0  0  0  0  0  0  0  0  0  0  0  0
  -28.2660  -22.2410   22.3000 N   0  0  0  0  0  0  0  0  0  0  0  0
  -30.5190  -22.2290   22.3870 O   0  0  0  0  0  0  0  0  0  0  0  0
  -27.4480  -21.7510   21.9640 H   0  0  0  0  0  0  0  0  0  0  0  0
  -29.3380  -20.4260   21.3530 C   0  0  0  0  0  3  0  0  0  0  0  0
  -30.4020  -19.8770   20.7410 C   0  0  0  0  0  3  0  0  0  0  0  0
  -30.4040  -18.5480   20.0080 C   0  0  0  0  0  2  0  0  0  0  0  0
  -31.5900  -17.6650   20.4310 C   0  0  0  0  0  2  0  0  0  0  0  0
  -31.2910  -16.6660   21.5730 C   0  0  0  0  0  2  0  0  0  0  0  0
  -31.0920  -14.5110   20.3310 C   0  0  0  0  0  0  0  0  0  0  0  0
  -30.6730  -12.3890   19.1540 C   0  0  0  0  0  2  0  0  0  0  0  0
  -29.7110  -12.6030   17.9700 C   0  0  0  0  0  2  0  0  0  0  0  0
  -28.2470  -12.4930   18.4350 C   0  0  0  0  0  2  0  0  0  0  0  0
  -27.9530  -13.3590   19.6890 C   0  0  0  0  0  3  0  0  0  0  0  0
  -29.0230  -13.1320   20.7800 C   0  0  0  0  0  2  0  0  0  0  0  0
  -30.3460  -13.3860   20.1850 N   0  0  0  0  0  0  0  0  0  0  0  0
  -32.1610  -14.6870   19.7420 O   0  0  0  0  0  0  0  0  0  0  0  0
  -30.5870  -15.4520   21.1430 N   0  0  0  0  0  0  0  0  0  0  0  0
  -29.6940  -15.2550   21.5720 H   0  0  0  0  0  0  0  0  0  0  0  0
  -25.5910  -14.0240   20.4700 C   0  0  0  0  0  0  0  0  0  0  0  0
  -24.5110  -13.2760   20.8530 C   0  0  0  0  0  0  0  0  0  0  0  0
  -24.9320  -11.9130   20.7880 C   0  0  0  0  0  0  0  0  0  0  0  0
  -26.6050  -13.1180   20.1970 N   0  0  0  0  0  0  0  0  0  0  0  0
  -26.2110  -11.8410   20.4440 N   0  0  0  0  0  0  0  0  0  0  0  0
  -24.1740  -10.6680   20.9740 C   0  0  0  0  0  0  0  0  0  0  0  0
  -24.5900   -9.6820   21.8950 C   0  0  0  0  0  3  0  0  0  0  0  0
  -23.8350   -8.5020   22.0700 C   0  0  0  0  0  3  0  0  0  0  0  0
  -22.6500   -8.3010   21.3230 C   0  0  0  0  0  0  0  0  0  0  0  0
  -22.2520   -9.2750   20.3910 C   0  0  0  0  0  3  0  0  0  0  0  0
  -23.0080  -10.4470   20.2140 C   0  0  0  0  0  3  0  0  0  0  0  0
  -21.8660   -7.1750   21.4090 O   0  0  0  0  0  0  0  0  0  0  0  0
  -21.7890   -6.4390   22.5630 C   0  0  0  0  0  0  0  0  0  0  0  0
  -21.3590   -7.0080   23.7820 C   0  0  0  0  0  3  0  0  0  0  0  0
  -21.2260   -6.1990   24.9290 C   0  0  0  0  0  3  0  0  0  0  0  0
  -21.5110   -4.8220   24.8570 C   0  0  0  0  0  0  0  0  0  0  0  0
  -21.9330   -4.2530   23.6430 C   0  0  0  0  0  3  0  0  0  0  0  0
  -22.0680   -5.0580   22.4980 C   0  0  0  0  0  0  0  0  0  0  0  0
  -22.4540   -4.5010   21.3260 F   0  0  0  0  0  0  0  0  0  0  0  0
  -21.3760   -4.0430   25.9560 F   0  0  0  0  0  0  0  0  0  0  0  0
  -23.1360  -13.7880   21.1740 C   0  0  0  0  0  0  0  0  0  0  0  0
  -22.4180  -13.1040   22.0580 N   0  0  0  0  0  0  0  0  0  0  0  0
  -22.7080  -14.8280   20.6730 O   0  0  0  0  0  0  0  0  0  0  0  0
  -22.7770  -12.2620   22.4840 H   0  0  0  0  0  0  0  0  0  0  0  0
  -21.4960  -13.4280   22.3140 H   0  0  0  0  0  0  0  0  0  0  0  0
  -25.7930  -15.3920   20.3130 N   0  0  0  0  0  0  0  0  0  0  0  0
  -25.0530  -16.0710   20.4540 H   0  0  0  0  0  0  0  0  0  0  0  0
  -26.6520  -15.8090   19.9740 H   0  0  0  0  0  0  0  0  0  0  0  0
  -28.0350  -23.5030   22.9970 C   0  0  0  0  0  2  0  0  0  0  0  0
  -27.4350  -24.5500   22.0520 C   0  0  0  0  0  2  0  0  0  0  0  0
  -28.4490  -25.0570   21.1930 O   0  0  0  0  0  0  0  0  0  0  0  0
  -27.9030  -25.9020   20.1920 C   0  0  0  0  0  2  0  0  0  0  0  0
  -28.9930  -26.7030   19.4460 C   0  0  0  0  0  2  0  0  0  0  0  0
  -28.4620  -27.3320   18.2760 O   0  0  0  0  0  0  0  0  0  0  0  0
  -24.4660  -31.2910   22.6100 C   0  0  0  0  0  0  0  0  0  0  0  0
  -27.2520  -27.9350   18.4940 C   0  0  0  0  0  0  0  0  0  0  0  0
  -23.2560  -30.0750   20.8260 C   0  0  0  0  0  3  0  0  0  0  0  0
  -24.7150  -29.0450   19.0030 C   0  0  0  0  0  0  0  0  0  0  0  0
  -25.6840  -30.8040   20.4970 C   0  0  0  0  0  2  0  0  0  0  0  0
  -25.8560  -29.6050   19.5910 C   0  0  0  0  0  0  0  0  0  0  0  0
  -27.1300  -29.0530   19.3450 C   0  0  0  0  0  3  0  0  0  0  0  0
  -26.1020  -27.3840   17.8930 C   0  0  0  0  0  3  0  0  0  0  0  0
  -24.8310  -27.9270   18.1570 C   0  0  0  0  0  3  0  0  0  0  0  0
  -23.3910  -29.7000   19.3250 C   0  0  0  0  0  2  0  0  0  0  0  0
  -24.4910  -30.7260   21.3710 N   0  0  0  0  0  0  0  0  0  0  0  0
  -23.4260  -31.3150   23.2800 O   0  0  0  0  0  0  0  0  0  0  0  0
  -22.8330  -28.8140   21.6120 C   0  0  0  0  0  0  0  0  0  0  0  0
  -21.5340  -28.4800   21.5460 N   0  0  0  0  0  0  0  0  0  0  0  0
  -23.6630  -28.1500   22.2380 O   0  0  0  0  0  0  0  0  0  0  0  0
  -20.9170  -29.0810   21.0180 H   0  0  0  0  0  0  0  0  0  0  0  0
  -18.3910  -26.7690   22.0320 C   0  0  0  0  0  0  0  0  0  0  0  0
  -20.9120  -27.3150   22.1750 C   0  0  0  0  0  3  0  0  0  0  0  0
  -21.1320  -26.0430   21.3260 C   0  0  0  0  0  2  0  0  0  0  0  0
  -19.9880  -25.7640   20.3470 C   0  0  0  0  0  2  0  0  0  0  0  0
  -18.6640  -25.6010   21.0990 C   0  0  0  0  0  2  0  0  0  0  0  0
  -19.4450  -27.5830   22.5240 C   0  0  0  0  0  0  0  0  0  0  0  0
  -19.1320  -28.6770   23.3600 C   0  0  0  0  0  3  0  0  0  0  0  0
  -17.7970  -28.9590   23.7070 C   0  0  0  0  0  3  0  0  0  0  0  0
  -16.7600  -28.1410   23.2300 C   0  0  0  0  0  3  0  0  0  0  0  0
  -17.0570  -27.0450   22.3990 C   0  0  0  0  0  3  0  0  0  0  0  0
  -25.7350  -31.9520   23.2350 C   0  0  0  0  0  3  0  0  0  0  0  0
  -26.4300  -31.0570   24.3330 C   0  0  1  0  0  0  0  0  0  0  0  0
  -25.4600  -30.5420   25.4210 C   0  0  0  0  0  1  0  0  0  0  0  0
  -27.1080  -29.8280   23.6830 C   0  0  0  0  0  1  0  0  0  0  0  0
  -27.5510  -31.8630   25.0320 C   0  0  0  0  0  1  0  0  0  0  0  0
  -25.3260  -33.2450   23.7980 N   0  0  0  0  0  0  0  0  0  0  0  0
  -25.5080  -34.4270   23.1950 C   0  0  0  0  0  0  0  0  0  0  0  0
  -26.1100  -34.5480   22.1240 O   0  0  0  0  0  0  0  0  0  0  0  0
  -24.7780  -33.2180   24.6460 H   0  0  0  0  0  0  0  0  0  0  0  0
  -23.5980  -36.0600   23.2240 C   0  0  0  0  0  1  0  0  0  0  0  0
  -24.9290  -35.6730   23.8890 C   0  0  0  0  0  3  0  0  0  0  0  0
  -27.0260  -36.6410   24.7220 C   0  0  0  0  0  1  0  0  0  0  0  0
  -25.8480  -36.8320   23.8780 N   0  0  0  0  0  0  0  0  0  0  0  0
  -25.3700  -37.6730   24.1890 H   0  0  0  0  0  0  0  0  0  0  0  0
  1  2  1  0
  1  3  2  0
  2 48  1  0
  4  2  1  0
  5  1  1  0
  6  5  2  0
  7  8  1  0
  7  6  1  0
  8  9  1  0
 10 18  1  0
 11 16  1  0
 12 13  1  0
 12 11  1  0
 14 13  1  0
 14 23  1  0
 14 15  1  0
 16 10  1  0
 16 15  1  0
 17 10  2  0
 18 19  1  0
 18  9  1  0
 20 21  2  0
 21 40  1  0
 22 21  1  0
 22 25  1  0
 23 24  1  0
 23 20  1  0
 24 22  2  0
 25 26  1  0
 26 27  2  0
 28 31  1  0
 28 27  1  0
 29 28  2  0
 30 29  1  0
 30 25  2  0
 31 32  1  0
 32 33  1  0
 33 34  2  0
 35 34  1  0
 35 39  1  0
 36 35  2  0
 37 32  2  0
 37 36  1  0
 38 37  1  0
 40 41  1  0
 41 44  1  0
 41 43  1  0
 42 40  2  0
 45 46  1  0
 45 20  1  0
 47 45  1  0
 49 48  1  0
 50 49  1  0
 51 50  1  0
 52 51  1  0
 53 55  1  0
 53 52  1  0
 54 65  2  0
 55 60  1  0
 56 64  1  0
 56 66  1  0
 57 63  1  0
 57 59  1  0
 58 64  1  0
 59 58  1  0
 60 59  2  0
 61 62  1  0
 61 55  2  0
 62 57  2  0
 63 56  1  0
 64 54  1  0
 66 68  2  0
 67 66  1  0
 69 67  1  0
 70 79  2  0
 70 75  1  0
 71 67  1  0
 71 75  1  0
 72 71  1  0
 73 74  1  0
 73 72  1  0
 74 70  1  0
 75 76  2  0
 76 77  1  0
 78 77  2  0
 79 78  1  0
 80 54  1  0
 80 85  1  0
 80 81  1  0
 81 84  1  1
 81 82  1  0
 83 81  1  0
 85 88  1  0
 86 85  1  0
 86 90  1  0
 87 86  2  0
 90 89  1  0
 92 90  1  0
 92 93  1  0
 92 91  1  0
M  ISO  4  10 100  18 100  52 101  53 101
M  END
>  <TORSDO>  (24) 
F 25

>  <SCORE>  (24) 
-8.383

>  <name>  (24) 
23

>  <ligand_id>  (24) 
23

>  <original_smiles>  (24) 
[H]C(C(=O)N([H])C([H])([H])C([H])([H])OC([H])([H])C([H])([H])Oc1c([H])c([H])c2c(c1[H])C([H])([H])N(C(=O)C([H])(N([H])C(=O)C([H])(N([H])C([H])([H])[H])C([H])([H])[H])C(C([H])([H])[H])(C([H])([H])[H])C([H])([H])[H])C([H])(C(=O)N([H])C1([H])c3c([H])c([H])c([H])c([H])c3C([H])([H])C([H])([H])C1([H])[H])C2([H])[H])=C([H])C([H])([H])C([H])([H])C([H])([H])N([H])C(=O)N1C([H])([H])C([H])([H])C([H])([H])C([H])(n2nc(-c3c([H])c([H])c(Oc4c([H])c([H])c(F)c([H])c4F)c([H])c3[H])c(C(=O)N([H])[H])c2N([H])[H])C1([H])[H]

>  <smiles>  (24) 
[H]C(C(=O)N([H])C([H])([H])C([H])([H])OC([H])([H])C([H])([H])Oc1c([H])c([H])c2c(c1[H])C([H])([H])N(C(=O)C([H])(N([H])C(=O)C([H])(N([H])C([H])([H])[H])C([H])([H])[H])C(C([H])([H])[H])(C([H])([H])[H])C([H])([H])[H])C([H])(C(=O)N([H])C1([H])c3c([H])c([H])c([H])c([H])c3C([H])([H])C([H])([H])C1([H])[H])C2([H])[H])=C([H])C([H])([H])C([H])([H])C([H])([H])N([H])C(=O)N1C([H])([H])C([H])([H])C([H])([H])C([H])(n2nc(-c3c([H])c([H])c(Oc4c([H])c([H])c(F)c([H])c4F)c([H])c3[H])c(C(=O)N([H])[H])c2N([H])[H])C1([H])[H]

$$$$
24:0:0
     RDKit          3D

 94101  0  0  1  0  0  0  0  0999 V2000
  -31.2630  -23.5420   18.5740 C   0  0  0  0  0  2  0  0  0  0  0  0
  -31.9940  -24.8580   18.9200 C   0  0  0  0  0  2  0  0  0  0  0  0
  -31.0750  -25.9850   19.2030 N   0  0  0  0  0  4  0  0  0  0  0  0
  -30.2350  -25.8930   18.6530 H   0  0  0  0  0  0  0  0  0  0  0  0
  -31.5330  -26.8250   18.8810 H   0  0  0  0  0  0  0  0  0  0  0  0
  -30.7170  -26.1880   20.6260 C   0  0  0  0  0  2  0  0  0  0  0  0
  -29.5860  -27.2090   20.7720 C   0  0  0  0  0  2  0  0  0  0  0  0
  -28.4310  -26.7120   20.0890 O   0  0  0  0  0  0  0  0  0  0  0  0
  -24.6260  -31.8970   23.1880 C   0  0  0  0  0  0  0  0  0  0  0  0
  -27.2770  -27.4660   20.1450 C   0  0  0  0  0  0  0  0  0  0  0  0
  -23.4000  -30.4720   21.5700 C   0  0  0  0  0  3  0  0  0  0  0  0
  -24.8460  -28.9170   20.1540 C   0  0  0  0  0  0  0  0  0  0  0  0
  -25.9120  -30.8480   21.3390 C   0  0  0  0  0  2  0  0  0  0  0  0
  -25.9970  -29.4680   20.7270 C   0  0  0  0  0  0  0  0  0  0  0  0
  -27.2060  -28.7510   20.7310 C   0  0  0  0  0  3  0  0  0  0  0  0
  -26.1090  -26.9210   19.5680 C   0  0  0  0  0  3  0  0  0  0  0  0
  -24.8940  -27.6360   19.5760 C   0  0  0  0  0  3  0  0  0  0  0  0
  -23.5970  -29.7660   20.1980 C   0  0  0  0  0  2  0  0  0  0  0  0
  -24.6640  -31.0880   22.0920 N   0  0  0  0  0  0  0  0  0  0  0  0
  -23.5520  -32.1750   23.7400 O   0  0  0  0  0  0  0  0  0  0  0  0
  -22.7610  -29.4650   22.5500 C   0  0  0  0  0  0  0  0  0  0  0  0
  -21.4350  -29.2850   22.4430 N   0  0  0  0  0  0  0  0  0  0  0  0
  -23.4550  -28.8450   23.3600 O   0  0  0  0  0  0  0  0  0  0  0  0
  -20.9370  -29.8410   21.7630 H   0  0  0  0  0  0  0  0  0  0  0  0
  -18.0650  -28.1120   22.9860 C   0  0  0  0  0  0  0  0  0  0  0  0
  -20.6250  -28.3580   23.2300 C   0  0  0  0  0  3  0  0  0  0  0  0
  -20.7150  -26.9210   22.6660 C   0  0  0  0  0  2  0  0  0  0  0  0
  -19.6020  -26.5960   21.6660 C   0  0  0  0  0  2  0  0  0  0  0  0
  -18.2280  -26.7540   22.3220 C   0  0  0  0  0  2  0  0  0  0  0  0
  -19.1910  -28.8730   23.3970 C   0  0  0  0  0  0  0  0  0  0  0  0
  -18.9850  -30.1450   23.9720 C   0  0  0  0  0  3  0  0  0  0  0  0
  -17.6860  -30.6550   24.1450 C   0  0  0  0  0  3  0  0  0  0  0  0
  -16.5730  -29.8910   23.7530 C   0  0  0  0  0  3  0  0  0  0  0  0
  -16.7640  -28.6220   23.1780 C   0  0  0  0  0  3  0  0  0  0  0  0
  -25.9230  -32.5290   23.7840 C   0  0  0  0  0  3  0  0  0  0  0  0
  -26.4870  -31.7380   25.0260 C   0  0  1  0  0  0  0  0  0  0  0  0
  -25.4270  -31.4590   26.1160 C   0  0  0  0  0  1  0  0  0  0  0  0
  -27.0870  -30.3810   24.5830 C   0  0  0  0  0  1  0  0  0  0  0  0
  -27.6400  -32.5370   25.6780 C   0  0  0  0  0  1  0  0  0  0  0  0
  -25.6110  -33.9160   24.1470 N   0  0  0  0  0  0  0  0  0  0  0  0
  -25.9150  -34.9850   23.3980 C   0  0  0  0  0  0  0  0  0  0  0  0
  -26.5600  -34.9070   22.3470 O   0  0  0  0  0  0  0  0  0  0  0  0
  -25.0370  -34.0500   24.9680 H   0  0  0  0  0  0  0  0  0  0  0  0
  -24.1560  -36.7590   23.1160 C   0  0  0  0  0  1  0  0  0  0  0  0
  -25.4220  -36.3580   23.8910 C   0  0  0  0  0  3  0  0  0  0  0  0
  -27.5690  -37.2530   24.6770 C   0  0  0  0  0  1  0  0  0  0  0  0
  -26.4380  -37.4260   23.7680 N   0  0  0  0  0  0  0  0  0  0  0  0
  -26.0250  -38.3370   23.9450 H   0  0  0  0  0  0  0  0  0  0  0  0
  -30.7280  -22.7610   19.7920 C   0  0  0  0  0  2  0  0  0  0  0  0
  -30.0500  -21.5170   19.3910 N   0  0  0  0  0  4  0  0  0  0  0  0
  -29.1690  -21.7350   18.9470 H   0  0  0  0  0  0  0  0  0  0  0  0
  -30.6300  -21.0580   18.7080 H   0  0  0  0  0  0  0  0  0  0  0  0
  -29.8120  -20.5500   20.4800 C   0  0  0  0  0  2  0  0  0  0  0  0
  -29.6310  -19.1590   19.8600 C   0  0  0  0  0  2  0  0  0  0  0  0
  -29.6470  -17.9700   20.8320 C   0  0  0  0  0  2  0  0  0  0  0  0
  -29.7500  -16.6810   20.0040 C   0  0  0  0  0  2  0  0  0  0  0  0
  -30.6070  -14.4330   20.4430 C   0  0  0  0  0  0  0  0  0  0  0  0
  -30.3190  -12.2760   19.3230 C   0  0  0  0  0  2  0  0  0  0  0  0
  -29.3760  -12.5220   18.1240 C   0  0  0  0  0  2  0  0  0  0  0  0
  -27.9000  -12.3970   18.5600 C   0  0  0  0  0  2  0  0  0  0  0  0
  -27.5780  -13.2190   19.8380 C   0  0  0  0  0  3  0  0  0  0  0  0
  -28.6380  -12.9560   20.9370 C   0  0  0  0  0  2  0  0  0  0  0  0
  -29.9660  -13.2410   20.3700 N   0  0  0  0  0  0  0  0  0  0  0  0
  -31.7310  -14.6340   19.9660 O   0  0  0  0  0  0  0  0  0  0  0  0
  -29.8090  -15.4520   20.7930 N   0  0  0  0  0  0  0  0  0  0  0  0
  -28.9490  -15.1870   21.2510 H   0  0  0  0  0  0  0  0  0  0  0  0
  -25.1880  -13.8420   20.5690 C   0  0  0  0  0  0  0  0  0  0  0  0
  -24.1200  -13.0720   20.9460 C   0  0  0  0  0  0  0  0  0  0  0  0
  -24.5760  -11.7200   20.9100 C   0  0  0  0  0  0  0  0  0  0  0  0
  -26.2270  -12.9550   20.3240 N   0  0  0  0  0  0  0  0  0  0  0  0
  -25.8620  -11.6750   20.5850 N   0  0  0  0  0  0  0  0  0  0  0  0
  -23.8500  -10.4590   21.1080 C   0  0  0  0  0  0  0  0  0  0  0  0
  -24.3120   -9.4720   22.0070 C   0  0  0  0  0  3  0  0  0  0  0  0
  -23.5840   -8.2780   22.1930 C   0  0  0  0  0  3  0  0  0  0  0  0
  -22.3800   -8.0610   21.4810 C   0  0  0  0  0  0  0  0  0  0  0  0
  -21.9370   -9.0370   20.5710 C   0  0  0  0  0  3  0  0  0  0  0  0
  -22.6660  -10.2230   20.3830 C   0  0  0  0  0  3  0  0  0  0  0  0
  -21.6230   -6.9180   21.5770 O   0  0  0  0  0  0  0  0  0  0  0  0
  -21.6420   -6.1360   22.7050 C   0  0  0  0  0  0  0  0  0  0  0  0
  -21.3280   -6.6590   23.9790 C   0  0  0  0  0  3  0  0  0  0  0  0
  -21.2880   -5.8050   25.1000 C   0  0  0  0  0  3  0  0  0  0  0  0
  -21.5540   -4.4320   24.9480 C   0  0  0  0  0  0  0  0  0  0  0  0
  -21.8620   -3.9080   23.6800 C   0  0  0  0  0  3  0  0  0  0  0  0
  -21.9030   -4.7580   22.5610 C   0  0  0  0  0  0  0  0  0  0  0  0
  -22.1800   -4.2470   21.3370 F   0  0  0  0  0  0  0  0  0  0  0  0
  -21.5090   -3.6090   26.0220 F   0  0  0  0  0  0  0  0  0  0  0  0
  -22.7280  -13.5540   21.2370 C   0  0  0  0  0  0  0  0  0  0  0  0
  -22.0100  -12.8640   22.1150 N   0  0  0  0  0  0  0  0  0  0  0  0
  -22.2860  -14.5780   20.7180 O   0  0  0  0  0  0  0  0  0  0  0  0
  -22.3790  -12.0360   22.5590 H   0  0  0  0  0  0  0  0  0  0  0  0
  -21.0770  -13.1730   22.3490 H   0  0  0  0  0  0  0  0  0  0  0  0
  -25.3520  -15.2130   20.3950 N   0  0  0  0  0  0  0  0  0  0  0  0
  -24.5820  -15.8630   20.5210 H   0  0  0  0  0  0  0  0  0  0  0  0
  -26.1940  -15.6610   20.0580 H   0  0  0  0  0  0  0  0  0  0  0  0
  1  2  1  0
  1 49  1  0
  2  3  1  0
  3  6  1  0
  4  3  1  0
  5  3  1  0
  6  7  1  0
  8 10  1  0
  8  7  1  0
  9 20  2  0
 10 15  1  0
 11 19  1  0
 11 21  1  0
 12 18  1  0
 12 14  1  0
 13 19  1  0
 14 15  2  0
 14 13  1  0
 16 17  1  0
 16 10  2  0
 17 12  2  0
 18 11  1  0
 19  9  1  0
 21 23  2  0
 22 21  1  0
 24 22  1  0
 25 34  2  0
 25 30  1  0
 26 22  1  0
 26 30  1  0
 27 26  1  0
 28 29  1  0
 28 27  1  0
 29 25  1  0
 30 31  2  0
 31 32  1  0
 33 32  2  0
 34 33  1  0
 35  9  1  0
 35 40  1  0
 35 36  1  0
 36 39  1  1
 36 37  1  0
 38 36  1  0
 40 43  1  0
 41 45  1  0
 41 40  1  0
 42 41  2  0
 45 44  1  0
 47 45  1  0
 47 48  1  0
 47 46  1  0
 50 49  1  0
 50 53  1  0
 51 50  1  0
 52 50  1  0
 54 53  1  0
 54 55  1  0
 56 65  1  0
 56 55  1  0
 57 65  1  0
 58 63  1  0
 59 60  1  0
 59 58  1  0
 61 60  1  0
 61 70  1  0
 61 62  1  0
 63 57  1  0
 63 62  1  0
 64 57  2  0
 65 66  1  0
 67 68  2  0
 68 87  1  0
 69 68  1  0
 69 72  1  0
 70 67  1  0
 70 71  1  0
 71 69  2  0
 72 73  1  0
 73 74  2  0
 75 78  1  0
 75 74  1  0
 76 75  2  0
 77 76  1  0
 77 72  2  0
 78 79  1  0
 79 80  1  0
 80 81  2  0
 82 81  1  0
 82 86  1  0
 83 82  2  0
 84 79  2  0
 84 83  1  0
 85 84  1  0
 87 88  1  0
 88 91  1  0
 88 90  1  0
 89 87  2  0
 92 93  1  0
 92 67  1  0
 94 92  1  0
M  ISO  4   7 101   8 101  57 100  65 100
M  END
>  <TORSDO>  (25) 
F 26

>  <SCORE>  (25) 
-11.668

>  <name>  (25) 
24

>  <ligand_id>  (25) 
24

>  <original_smiles>  (25) 
[H]c1c([H])c([H])c2c(c1[H])C([H])([H])C([H])([H])C([H])([H])C2([H])N([H])C(=O)C1([H])N(C(=O)C([H])(N([H])C(=O)C([H])(N([H])C([H])([H])[H])C([H])([H])[H])C(C([H])([H])[H])(C([H])([H])[H])C([H])([H])[H])C([H])([H])c2c([H])c(OC([H])([H])C([H])([H])[N+]([H])([H])C([H])([H])C([H])([H])C([H])([H])[N+]([H])([H])C([H])([H])C([H])([H])C([H])([H])C([H])([H])N([H])C(=O)N3C([H])([H])C([H])([H])C([H])([H])C([H])(n4nc(-c5c([H])c([H])c(Oc6c([H])c([H])c(F)c([H])c6F)c([H])c5[H])c(C(=O)N([H])[H])c4N([H])[H])C3([H])[H])c([H])c([H])c2C1([H])[H]

>  <smiles>  (25) 
[H]c1c([H])c([H])c2c(c1[H])C([H])([H])C([H])([H])C([H])([H])C2([H])N([H])C(=O)C1([H])N(C(=O)C([H])(N([H])C(=O)C([H])(N([H])C([H])([H])[H])C([H])([H])[H])C(C([H])([H])[H])(C([H])([H])[H])C([H])([H])[H])C([H])([H])c2c([H])c(OC([H])([H])C([H])([H])[N+]([H])([H])C([H])([H])C([H])([H])C([H])([H])[N+]([H])([H])C([H])([H])C([H])([H])C([H])([H])C([H])([H])N([H])C(=O)N3C([H])([H])C([H])([H])C([H])([H])C([H])(n4nc(-c5c([H])c([H])c(Oc6c([H])c([H])c(F)c([H])c6F)c([H])c5[H])c(C(=O)N([H])[H])c4N([H])[H])C3([H])[H])c([H])c([H])c2C1([H])[H]

$$$$
25:0:0
     RDKit          3D

 88 95  0  0  1  0  0  0  0  0999 V2000
  -28.8420  -22.3700   20.1150 N   0  0  0  0  0  4  0  0  0  0  0  0
  -27.8560  -22.1760   20.0390 H   0  0  0  0  0  0  0  0  0  0  0  0
  -29.2170  -22.3140   19.1810 H   0  0  0  0  0  0  0  0  0  0  0  0
  -29.4540  -21.2330   20.9380 C   0  0  0  0  0  2  0  0  0  0  0  0
  -29.7650  -18.5680   20.8110 C   0  0  0  0  0  3  0  0  0  0  0  0
  -29.7680  -19.8380   20.2590 C   0  0  0  0  0  3  0  0  0  0  0  0
  -30.2940  -17.2450   20.1280 C   0  0  0  0  0  2  0  0  0  0  0  0
  -30.6200  -14.6980   20.3730 C   0  0  0  0  0  0  0  0  0  0  0  0
  -30.3550  -12.4420   19.3580 C   0  0  0  0  0  2  0  0  0  0  0  0
  -29.4170  -12.5510   18.1380 C   0  0  0  0  0  2  0  0  0  0  0  0
  -27.9470  -12.4020   18.5720 C   0  0  0  0  0  2  0  0  0  0  0  0
  -27.5920  -13.2820   19.8010 C   0  0  0  0  0  3  0  0  0  0  0  0
  -28.6560  -13.1740   20.9170 C   0  0  0  0  0  2  0  0  0  0  0  0
  -29.9570  -13.4950   20.3210 N   0  0  0  0  0  0  0  0  0  0  0  0
  -31.7930  -14.7740   20.0000 O   0  0  0  0  0  0  0  0  0  0  0  0
  -29.8980  -15.8530   20.6010 N   0  0  0  0  0  0  0  0  0  0  0  0
  -28.9400  -15.7260   20.8930 H   0  0  0  0  0  0  0  0  0  0  0  0
  -25.2090  -13.8840   20.5340 C   0  0  0  0  0  0  0  0  0  0  0  0
  -24.1410  -13.1160   20.9100 C   0  0  0  0  0  0  0  0  0  0  0  0
  -24.5980  -11.7620   20.8810 C   0  0  0  0  0  0  0  0  0  0  0  0
  -26.2490  -13.0010   20.2970 N   0  0  0  0  0  0  0  0  0  0  0  0
  -25.8880  -11.7190   20.5680 N   0  0  0  0  0  0  0  0  0  0  0  0
  -23.8670  -10.5030   21.0760 C   0  0  0  0  0  0  0  0  0  0  0  0
  -24.3140   -9.5220   21.9870 C   0  0  0  0  0  3  0  0  0  0  0  0
  -23.5840   -8.3290   22.1720 C   0  0  0  0  0  3  0  0  0  0  0  0
  -22.3900   -8.1080   21.4440 C   0  0  0  0  0  0  0  0  0  0  0  0
  -21.9610   -9.0780   20.5200 C   0  0  0  0  0  3  0  0  0  0  0  0
  -22.6920  -10.2620   20.3340 C   0  0  0  0  0  3  0  0  0  0  0  0
  -21.6290   -6.9680   21.5390 O   0  0  0  0  0  0  0  0  0  0  0  0
  -21.6220   -6.2000   22.6750 C   0  0  0  0  0  0  0  0  0  0  0  0
  -21.2720   -6.7330   23.9340 C   0  0  0  0  0  3  0  0  0  0  0  0
  -21.2100   -5.8920   25.0630 C   0  0  0  0  0  3  0  0  0  0  0  0
  -21.4900   -4.5190   24.9350 C   0  0  0  0  0  0  0  0  0  0  0  0
  -21.8330   -3.9840   23.6810 C   0  0  0  0  0  3  0  0  0  0  0  0
  -21.8960   -4.8230   22.5540 C   0  0  0  0  0  0  0  0  0  0  0  0
  -22.2070   -4.2980   21.3440 F   0  0  0  0  0  0  0  0  0  0  0  0
  -21.4240   -3.7090   26.0170 F   0  0  0  0  0  0  0  0  0  0  0  0
  -22.7460  -13.5990   21.1840 C   0  0  0  0  0  0  0  0  0  0  0  0
  -22.0200  -12.9100   22.0570 N   0  0  0  0  0  0  0  0  0  0  0  0
  -22.3110  -14.6230   20.6600 O   0  0  0  0  0  0  0  0  0  0  0  0
  -22.3870  -12.0820   22.5030 H   0  0  0  0  0  0  0  0  0  0  0  0
  -21.0840  -13.2150   22.2830 H   0  0  0  0  0  0  0  0  0  0  0  0
  -25.3770  -15.2540   20.3510 N   0  0  0  0  0  0  0  0  0  0  0  0
  -24.6110  -15.9110   20.4600 H   0  0  0  0  0  0  0  0  0  0  0  0
  -26.2190  -15.6860   19.9940 H   0  0  0  0  0  0  0  0  0  0  0  0
  -29.0290  -23.8200   20.5960 C   0  0  0  0  0  3  0  0  0  0  0  0
  -28.0840  -24.9510   19.9540 C   0  0  0  0  0  3  0  0  0  0  0  0
  -28.2870  -26.4100   20.2320 O   0  0  0  0  0  0  0  0  0  0  0  0
  -24.6110  -31.8750   23.2310 C   0  0  0  0  0  0  0  0  0  0  0  0
  -27.1850  -27.2900   20.1570 C   0  0  0  0  0  0  0  0  0  0  0  0
  -23.3930  -30.4810   21.5980 C   0  0  0  0  0  3  0  0  0  0  0  0
  -24.8300  -28.9310   20.1570 C   0  0  0  0  0  0  0  0  0  0  0  0
  -25.9340  -30.7860   21.4010 C   0  0  0  0  0  2  0  0  0  0  0  0
  -26.0050  -29.4070   20.7520 C   0  0  0  0  0  0  0  0  0  0  0  0
  -27.1840  -28.5970   20.7440 C   0  0  0  0  0  3  0  0  0  0  0  0
  -25.9900  -26.8870   19.5140 C   0  0  0  0  0  3  0  0  0  0  0  0
  -24.8270  -27.6790   19.5280 C   0  0  0  0  0  3  0  0  0  0  0  0
  -23.5960  -29.8090   20.2160 C   0  0  0  0  0  2  0  0  0  0  0  0
  -24.6660  -31.0660   22.1320 N   0  0  0  0  0  0  0  0  0  0  0  0
  -23.5310  -32.1550   23.7720 O   0  0  0  0  0  0  0  0  0  0  0  0
  -22.7350  -29.4640   22.5620 C   0  0  0  0  0  0  0  0  0  0  0  0
  -21.4070  -29.2910   22.4460 N   0  0  0  0  0  0  0  0  0  0  0  0
  -23.4170  -28.8340   23.3740 O   0  0  0  0  0  0  0  0  0  0  0  0
  -20.9150  -29.8510   21.7630 H   0  0  0  0  0  0  0  0  0  0  0  0
  -18.0320  -28.0910   22.9580 C   0  0  0  0  0  0  0  0  0  0  0  0
  -20.5900  -28.3570   23.2230 C   0  0  0  0  0  3  0  0  0  0  0  0
  -20.6950  -26.9220   22.6560 C   0  0  0  0  0  2  0  0  0  0  0  0
  -19.5920  -26.5920   21.6460 C   0  0  0  0  0  2  0  0  0  0  0  0
  -18.2110  -26.7380   22.2910 C   0  0  0  0  0  2  0  0  0  0  0  0
  -19.1500  -28.8580   23.3830 C   0  0  0  0  0  0  0  0  0  0  0  0
  -18.9290  -30.1230   23.9690 C   0  0  0  0  0  3  0  0  0  0  0  0
  -17.6230  -30.6230   24.1340 C   0  0  0  0  0  3  0  0  0  0  0  0
  -16.5200  -29.8520   23.7250 C   0  0  0  0  0  3  0  0  0  0  0  0
  -16.7260  -28.5890   23.1430 C   0  0  0  0  0  3  0  0  0  0  0  0
  -25.8990  -32.5050   23.8430 C   0  0  0  0  0  3  0  0  0  0  0  0
  -25.5920  -33.9030   24.1800 N   0  0  0  0  0  0  0  0  0  0  0  0
  -25.9140  -34.9580   23.4200 C   0  0  0  0  0  0  0  0  0  0  0  0
  -26.5700  -34.8570   22.3790 O   0  0  0  0  0  0  0  0  0  0  0  0
  -25.0080  -34.0550   24.9890 H   0  0  0  0  0  0  0  0  0  0  0  0
  -24.1760  -36.7490   23.1010 C   0  0  0  0  0  1  0  0  0  0  0  0
  -25.4330  -36.3460   23.8880 C   0  0  0  0  0  3  0  0  0  0  0  0
  -27.5840  -37.2320   24.6750 C   0  0  0  0  0  1  0  0  0  0  0  0
  -26.4620  -37.4000   23.7560 N   0  0  0  0  0  0  0  0  0  0  0  0
  -26.0570  -38.3200   23.9140 H   0  0  0  0  0  0  0  0  0  0  0  0
  -26.4240  -31.7310   25.1140 C   0  0  1  0  0  0  0  0  0  0  0  0
  -25.3400  -31.4950   26.1910 C   0  0  0  0  0  1  0  0  0  0  0  0
  -27.0000  -30.3510   24.7170 C   0  0  0  0  0  1  0  0  0  0  0  0
  -27.5840  -32.5210   25.7670 C   0  0  0  0  0  1  0  0  0  0  0  0
  1 46  1  0
  1  4  1  0
  2  1  1  0
  3  1  1  0
  6  5  2  0
  6  4  1  0
  7 16  1  0
  7  5  1  0
  8 16  1  0
  9 14  1  0
 10 11  1  0
 10  9  1  0
 12 11  1  0
 12 21  1  0
 12 13  1  0
 14  8  1  0
 14 13  1  0
 15  8  2  0
 16 17  1  0
 18 19  2  0
 19 38  1  0
 20 19  1  0
 20 23  1  0
 21 18  1  0
 21 22  1  0
 22 20  2  0
 23 24  1  0
 24 25  2  0
 26 29  1  0
 26 25  1  0
 27 26  2  0
 28 27  1  0
 28 23  2  0
 29 30  1  0
 30 31  1  0
 31 32  2  0
 33 32  1  0
 33 37  1  0
 34 33  2  0
 35 30  2  0
 35 34  1  0
 36 35  1  0
 38 39  1  0
 39 42  1  0
 39 41  1  0
 40 38  2  0
 43 44  1  0
 43 18  1  0
 45 43  1  0
 47 48  1  0
 47 46  2  0
 49 60  2  0
 50 48  1  0
 50 55  1  0
 51 59  1  0
 51 61  1  0
 52 58  1  0
 52 54  1  0
 53 59  1  0
 54 53  1  0
 55 54  2  0
 56 57  1  0
 56 50  2  0
 57 52  2  0
 58 51  1  0
 59 49  1  0
 61 63  2  0
 62 61  1  0
 64 62  1  0
 65 74  2  0
 65 70  1  0
 66 62  1  0
 66 70  1  0
 67 66  1  0
 68 69  1  0
 68 67  1  0
 69 65  1  0
 70 71  2  0
 71 72  1  0
 73 72  2  0
 74 73  1  0
 75 49  1  0
 75 76  1  0
 75 85  1  0
 76 79  1  0
 77 81  1  0
 77 76  1  0
 78 77  2  0
 81 80  1  0
 83 81  1  0
 83 84  1  0
 83 82  1  0
 85 88  1  1
 85 86  1  0
 87 85  1  0
M  ISO  4   8 100  16 100  47 101  48 101
M  END
>  <TORSDO>  (26) 
F 21

>  <SCORE>  (26) 
-13.169

>  <name>  (26) 
25

>  <ligand_id>  (26) 
25

>  <original_smiles>  (26) 
[H]C(=C([H])C([H])([H])[N+]([H])([H])C([H])([H])C([H])([H])Oc1c([H])c([H])c2c(c1[H])C([H])([H])N(C(=O)C([H])(N([H])C(=O)C([H])(N([H])C([H])([H])[H])C([H])([H])[H])C(C([H])([H])[H])(C([H])([H])[H])C([H])([H])[H])C([H])(C(=O)N([H])C1([H])c3c([H])c([H])c([H])c([H])c3C([H])([H])C([H])([H])C1([H])[H])C2([H])[H])C([H])([H])N([H])C(=O)N1C([H])([H])C([H])([H])C([H])([H])C([H])(n2nc(-c3c([H])c([H])c(Oc4c([H])c([H])c(F)c([H])c4F)c([H])c3[H])c(C(=O)N([H])[H])c2N([H])[H])C1([H])[H]

>  <smiles>  (26) 
[H]C(=C([H])C([H])([H])[N+]([H])([H])C([H])([H])C([H])([H])Oc1c([H])c([H])c2c(c1[H])C([H])([H])N(C(=O)C([H])(N([H])C(=O)C([H])(N([H])C([H])([H])[H])C([H])([H])[H])C(C([H])([H])[H])(C([H])([H])[H])C([H])([H])[H])C([H])(C(=O)N([H])C1([H])c3c([H])c([H])c([H])c([H])c3C([H])([H])C([H])([H])C1([H])[H])C2([H])[H])C([H])([H])N([H])C(=O)N1C([H])([H])C([H])([H])C([H])([H])C([H])(n2nc(-c3c([H])c([H])c(Oc4c([H])c([H])c(F)c([H])c4F)c([H])c3[H])c(C(=O)N([H])[H])c2N([H])[H])C1([H])[H]

$$$$
26:0:0
     RDKit          3D

 92 99  0  0  1  0  0  0  0  0999 V2000
  -27.7450  -22.0340   20.9010 C   0  0  0  0  0  2  0  0  0  0  0  0
  -28.2720  -23.1040   20.0190 N   0  0  0  0  0  4  0  0  0  0  0  0
  -27.8640  -22.9850   19.1020 H   0  0  0  0  0  0  0  0  0  0  0  0
  -29.2690  -22.9970   19.9210 H   0  0  0  0  0  0  0  0  0  0  0  0
  -27.9950  -24.4780   20.4990 C   0  0  0  0  0  2  0  0  0  0  0  0
  -28.5300  -25.5480   19.5250 C   0  0  0  0  0  2  0  0  0  0  0  0
  -28.4170  -26.8520   20.0900 O   0  0  0  0  0  0  0  0  0  0  0  0
  -24.5730  -31.9140   23.2300 C   0  0  0  0  0  0  0  0  0  0  0  0
  -27.2020  -27.5040   20.0970 C   0  0  0  0  0  0  0  0  0  0  0  0
  -23.3540  -30.5180   21.5920 C   0  0  0  0  0  3  0  0  0  0  0  0
  -24.7910  -28.9860   20.1510 C   0  0  0  0  0  0  0  0  0  0  0  0
  -25.8730  -30.8800   21.3730 C   0  0  0  0  0  2  0  0  0  0  0  0
  -25.9510  -29.5100   20.7350 C   0  0  0  0  0  0  0  0  0  0  0  0
  -27.1530  -28.7740   20.7110 C   0  0  0  0  0  3  0  0  0  0  0  0
  -26.0200  -26.9840   19.5170 C   0  0  0  0  0  3  0  0  0  0  0  0
  -24.8190  -27.7190   19.5450 C   0  0  0  0  0  3  0  0  0  0  0  0
  -23.5480  -29.8420   20.2090 C   0  0  0  0  0  2  0  0  0  0  0  0
  -24.6190  -31.1190   22.1230 N   0  0  0  0  0  0  0  0  0  0  0  0
  -23.4960  -32.1850   23.7800 O   0  0  0  0  0  0  0  0  0  0  0  0
  -22.7110  -29.4930   22.5540 C   0  0  0  0  0  0  0  0  0  0  0  0
  -21.3870  -29.3070   22.4300 N   0  0  0  0  0  0  0  0  0  0  0  0
  -23.4000  -28.8670   23.3630 O   0  0  0  0  0  0  0  0  0  0  0  0
  -20.8920  -29.8670   21.7500 H   0  0  0  0  0  0  0  0  0  0  0  0
  -18.0170  -28.1040   22.9310 C   0  0  0  0  0  0  0  0  0  0  0  0
  -20.5750  -28.3660   23.1970 C   0  0  0  0  0  3  0  0  0  0  0  0
  -20.6800  -26.9370   22.6160 C   0  0  0  0  0  2  0  0  0  0  0  0
  -19.5750  -26.6180   21.6050 C   0  0  0  0  0  2  0  0  0  0  0  0
  -18.1960  -26.7550   22.2550 C   0  0  0  0  0  2  0  0  0  0  0  0
  -19.1360  -28.8670   23.3590 C   0  0  0  0  0  0  0  0  0  0  0  0
  -18.9180  -30.1300   23.9490 C   0  0  0  0  0  3  0  0  0  0  0  0
  -17.6120  -30.6300   24.1180 C   0  0  0  0  0  3  0  0  0  0  0  0
  -16.5080  -29.8630   23.7060 C   0  0  0  0  0  3  0  0  0  0  0  0
  -16.7120  -28.6020   23.1180 C   0  0  0  0  0  3  0  0  0  0  0  0
  -25.8650  -32.5400   23.8430 C   0  0  0  0  0  3  0  0  0  0  0  0
  -25.5630  -33.9380   24.1770 N   0  0  0  0  0  0  0  0  0  0  0  0
  -25.9000  -34.9890   23.4180 C   0  0  0  0  0  0  0  0  0  0  0  0
  -26.5710  -34.8830   22.3870 O   0  0  0  0  0  0  0  0  0  0  0  0
  -24.9670  -34.0930   24.9770 H   0  0  0  0  0  0  0  0  0  0  0  0
  -24.1820  -36.7890   23.0520 C   0  0  0  0  0  1  0  0  0  0  0  0
  -25.4160  -36.3790   23.8740 C   0  0  0  0  0  3  0  0  0  0  0  0
  -27.5490  -37.2480   24.7230 C   0  0  0  0  0  1  0  0  0  0  0  0
  -26.4550  -37.4270   23.7710 N   0  0  0  0  0  0  0  0  0  0  0  0
  -26.0540  -38.3490   23.9170 H   0  0  0  0  0  0  0  0  0  0  0  0
  -26.3890  -31.7650   25.1150 C   0  0  1  0  0  0  0  0  0  0  0  0
  -25.3020  -31.5230   26.1890 C   0  0  0  0  0  1  0  0  0  0  0  0
  -26.9660  -30.3890   24.7100 C   0  0  0  0  0  1  0  0  0  0  0  0
  -27.5470  -32.5540   25.7690 C   0  0  0  0  0  1  0  0  0  0  0  0
  -28.4590  -20.6840   20.6820 C   0  0  0  0  0  2  0  0  0  0  0  0
  -29.6770  -20.4720   21.6110 C   0  0  0  0  0  2  0  0  0  0  0  0
  -30.5030  -19.3060   21.2210 N   0  0  0  0  0  4  0  0  0  0  0  0
  -30.8100  -19.4240   20.2710 H   0  0  0  0  0  0  0  0  0  0  0  0
  -31.3330  -19.3190   21.7930 H   0  0  0  0  0  0  0  0  0  0  0  0
  -29.8690  -17.9770   21.3640 C   0  0  0  0  0  2  0  0  0  0  0  0
  -30.7640  -16.8880   20.7490 C   0  0  0  0  0  2  0  0  0  0  0  0
  -30.8480  -14.4740   20.3380 C   0  0  0  0  0  0  0  0  0  0  0  0
  -30.4730  -12.3270   19.2150 C   0  0  0  0  0  2  0  0  0  0  0  0
  -29.5310  -12.5440   18.0120 C   0  0  0  0  0  2  0  0  0  0  0  0
  -28.0600  -12.4340   18.4530 C   0  0  0  0  0  2  0  0  0  0  0  0
  -27.7380  -13.2870   19.7070 C   0  0  0  0  0  3  0  0  0  0  0  0
  -28.7990  -13.0840   20.8140 C   0  0  0  0  0  2  0  0  0  0  0  0
  -30.1280  -13.3300   20.2320 N   0  0  0  0  0  0  0  0  0  0  0  0
  -31.9650  -14.6180   19.8400 O   0  0  0  0  0  0  0  0  0  0  0  0
  -30.2150  -15.5310   20.8630 N   0  0  0  0  0  0  0  0  0  0  0  0
  -29.2840  -15.3950   21.2300 H   0  0  0  0  0  0  0  0  0  0  0  0
  -25.3390  -13.9100   20.4120 C   0  0  0  0  0  0  0  0  0  0  0  0
  -24.2700  -13.1440   20.7920 C   0  0  0  0  0  0  0  0  0  0  0  0
  -24.7290  -11.7900   20.7770 C   0  0  0  0  0  0  0  0  0  0  0  0
  -26.3840  -13.0250   20.1940 N   0  0  0  0  0  0  0  0  0  0  0  0
  -26.0200  -11.7470   20.4730 N   0  0  0  0  0  0  0  0  0  0  0  0
  -24.0020  -10.5300   20.9780 C   0  0  0  0  0  0  0  0  0  0  0  0
  -24.4280   -9.5720   21.9240 C   0  0  0  0  0  3  0  0  0  0  0  0
  -23.7000   -8.3790   22.1110 C   0  0  0  0  0  3  0  0  0  0  0  0
  -22.5290   -8.1340   21.3540 C   0  0  0  0  0  0  0  0  0  0  0  0
  -22.1220   -9.0810   20.3980 C   0  0  0  0  0  3  0  0  0  0  0  0
  -22.8510  -10.2670   20.2080 C   0  0  0  0  0  3  0  0  0  0  0  0
  -21.7700   -6.9920   21.4530 O   0  0  0  0  0  0  0  0  0  0  0  0
  -21.7140   -6.2620   22.6140 C   0  0  0  0  0  0  0  0  0  0  0  0
  -21.2870   -6.8330   23.8330 C   0  0  0  0  0  3  0  0  0  0  0  0
  -21.1800   -6.0290   24.9860 C   0  0  0  0  0  3  0  0  0  0  0  0
  -21.4900   -4.6580   24.9200 C   0  0  0  0  0  0  0  0  0  0  0  0
  -21.9080   -4.0870   23.7070 C   0  0  0  0  0  3  0  0  0  0  0  0
  -22.0200   -4.8870   22.5560 C   0  0  0  0  0  0  0  0  0  0  0  0
  -22.4040   -4.3280   21.3830 F   0  0  0  0  0  0  0  0  0  0  0  0
  -21.3770   -3.8840   26.0260 F   0  0  0  0  0  0  0  0  0  0  0  0
  -22.8720  -13.6250   21.0590 C   0  0  0  0  0  0  0  0  0  0  0  0
  -22.1360  -12.9440   21.9300 N   0  0  0  0  0  0  0  0  0  0  0  0
  -22.4390  -14.6470   20.5250 O   0  0  0  0  0  0  0  0  0  0  0  0
  -22.4910  -12.1210   22.3930 H   0  0  0  0  0  0  0  0  0  0  0  0
  -21.1960  -13.2540   22.1400 H   0  0  0  0  0  0  0  0  0  0  0  0
  -25.5080  -15.2780   20.2070 N   0  0  0  0  0  0  0  0  0  0  0  0
  -24.7380  -15.9340   20.2740 H   0  0  0  0  0  0  0  0  0  0  0  0
  -26.3480  -15.6930   19.8230 H   0  0  0  0  0  0  0  0  0  0  0  0
  2  5  1  0
  2  1  1  0
  3  2  1  0
  4  2  1  0
  6  7  1  0
  6  5  1  0
  7  9  1  0
  8 19  2  0
  9 14  1  0
 10 18  1  0
 10 20  1  0
 11 17  1  0
 11 13  1  0
 12 18  1  0
 13 12  1  0
 14 13  2  0
 15 16  1  0
 15  9  2  0
 16 11  2  0
 17 10  1  0
 18  8  1  0
 20 22  2  0
 21 20  1  0
 23 21  1  0
 24 33  2  0
 24 29  1  0
 25 21  1  0
 25 29  1  0
 26 25  1  0
 27 28  1  0
 27 26  1  0
 28 24  1  0
 29 30  2  0
 30 31  1  0
 32 31  2  0
 33 32  1  0
 34  8  1  0
 34 35  1  0
 34 44  1  0
 35 38  1  0
 36 40  1  0
 36 35  1  0
 37 36  2  0
 40 39  1  0
 42 40  1  0
 42 43  1  0
 42 41  1  0
 44 47  1  1
 44 45  1  0
 46 44  1  0
 48  1  1  0
 48 49  1  0
 50 53  1  0
 50 49  1  0
 50 52  1  0
 51 50  1  0
 54 63  1  0
 54 53  1  0
 55 63  1  0
 56 61  1  0
 57 58  1  0
 57 56  1  0
 59 58  1  0
 59 68  1  0
 59 60  1  0
 61 55  1  0
 61 60  1  0
 62 55  2  0
 63 64  1  0
 65 66  2  0
 66 85  1  0
 67 66  1  0
 67 70  1  0
 68 65  1  0
 68 69  1  0
 69 67  2  0
 70 71  1  0
 71 72  2  0
 73 76  1  0
 73 72  1  0
 74 73  2  0
 75 74  1  0
 75 70  2  0
 76 77  1  0
 77 78  1  0
 78 79  2  0
 80 79  1  0
 80 84  1  0
 81 80  2  0
 82 77  2  0
 82 81  1  0
 83 82  1  0
 85 86  1  0
 86 89  1  0
 86 88  1  0
 87 85  2  0
 90 91  1  0
 90 65  1  0
 92 90  1  0
M  ISO  4   6 101   7 101  55 100  63 100
M  END
>  <TORSDO>  (27) 
F 24

>  <SCORE>  (27) 
-12.253

>  <name>  (27) 
26

>  <ligand_id>  (27) 
26

>  <original_smiles>  (27) 
[H]c1c([H])c([H])c2c(c1[H])C([H])([H])C([H])([H])C([H])([H])C2([H])N([H])C(=O)C1([H])N(C(=O)C([H])(N([H])C(=O)C([H])(N([H])C([H])([H])[H])C([H])([H])[H])C(C([H])([H])[H])(C([H])([H])[H])C([H])([H])[H])C([H])([H])c2c([H])c(OC([H])([H])C([H])([H])[N+]([H])([H])C([H])([H])C([H])([H])C([H])([H])[N+]([H])([H])C([H])([H])C([H])([H])N([H])C(=O)N3C([H])([H])C([H])([H])C([H])([H])C([H])(n4nc(-c5c([H])c([H])c(Oc6c([H])c([H])c(F)c([H])c6F)c([H])c5[H])c(C(=O)N([H])[H])c4N([H])[H])C3([H])[H])c([H])c([H])c2C1([H])[H]

>  <smiles>  (27) 
[H]c1c([H])c([H])c2c(c1[H])C([H])([H])C([H])([H])C([H])([H])C2([H])N([H])C(=O)C1([H])N(C(=O)C([H])(N([H])C(=O)C([H])(N([H])C([H])([H])[H])C([H])([H])[H])C(C([H])([H])[H])(C([H])([H])[H])C([H])([H])[H])C([H])([H])c2c([H])c(OC([H])([H])C([H])([H])[N+]([H])([H])C([H])([H])C([H])([H])C([H])([H])[N+]([H])([H])C([H])([H])C([H])([H])N([H])C(=O)N3C([H])([H])C([H])([H])C([H])([H])C([H])(n4nc(-c5c([H])c([H])c(Oc6c([H])c([H])c(F)c([H])c6F)c([H])c5[H])c(C(=O)N([H])[H])c4N([H])[H])C3([H])[H])c([H])c([H])c2C1([H])[H]

$$$$
27:0:0
     RDKit          3D

 93100  0  0  1  0  0  0  0  0999 V2000
  -30.5390  -21.6200   22.0800 N   0  0  0  0  0  0  0  0  0  0  0  0
  -30.8500  -21.1460   21.2380 H   0  0  0  0  0  0  0  0  0  0  0  0
  -31.3990  -21.2830   23.2190 C   0  0  0  0  0  2  0  0  0  0  0  0
  -31.4080  -19.7660   23.4990 C   0  0  0  0  0  2  0  0  0  0  0  0
  -31.7790  -18.9720   22.3100 N   0  0  0  0  0  4  0  0  0  0  0  0
  -31.4520  -19.4480   21.4890 H   0  0  0  0  0  0  0  0  0  0  0  0
  -32.7850  -18.9360   22.2660 H   0  0  0  0  0  0  0  0  0  0  0  0
  -31.2240  -17.5980   22.3170 C   0  0  0  0  0  2  0  0  0  0  0  0
  -31.9050  -16.6800   21.2870 C   0  0  0  0  0  2  0  0  0  0  0  0
  -31.6220  -15.1730   21.4900 C   0  0  0  0  0  2  0  0  0  0  0  0
  -30.1880  -14.2300   19.7090 C   0  0  0  0  0  0  0  0  0  0  0  0
  -29.6460  -12.1680   18.4860 C   0  0  0  0  0  2  0  0  0  0  0  0
  -28.5150  -12.2870   17.4560 C   0  0  0  0  0  2  0  0  0  0  0  0
  -27.1610  -12.0350   18.1330 C   0  0  0  0  0  2  0  0  0  0  0  0
  -26.9600  -12.9100   19.3960 C   0  0  0  0  0  3  0  0  0  0  0  0
  -28.1830  -12.8290   20.3420 C   0  0  0  0  0  2  0  0  0  0  0  0
  -29.4120  -13.1240   19.5800 N   0  0  0  0  0  0  0  0  0  0  0  0
  -30.9270  -14.6500   18.8150 O   0  0  0  0  0  0  0  0  0  0  0  0
  -30.3420  -14.6660   20.9660 N   0  0  0  0  0  0  0  0  0  0  0  0
  -29.6990  -14.2750   21.6400 H   0  0  0  0  0  0  0  0  0  0  0  0
  -24.6840  -13.3920   20.5080 C   0  0  0  0  0  0  0  0  0  0  0  0
  -23.7150  -12.5600   21.0060 C   0  0  0  0  0  0  0  0  0  0  0  0
  -24.2100  -11.2320   20.8390 C   0  0  0  0  0  0  0  0  0  0  0  0
  -25.7100  -12.5640   20.0760 N   0  0  0  0  0  0  0  0  0  0  0  0
  -25.4370  -11.2580   20.3320 N   0  0  0  0  0  0  0  0  0  0  0  0
  -23.5650   -9.9340   21.0820 C   0  0  0  0  0  0  0  0  0  0  0  0
  -24.0980   -9.0070   22.0030 C   0  0  0  0  0  3  0  0  0  0  0  0
  -23.4510   -7.7740   22.2350 C   0  0  0  0  0  3  0  0  0  0  0  0
  -22.2550   -7.4600   21.5460 C   0  0  0  0  0  0  0  0  0  0  0  0
  -21.7410   -8.3760   20.6120 C   0  0  0  0  0  3  0  0  0  0  0  0
  -22.3900   -9.6000   20.3780 C   0  0  0  0  0  3  0  0  0  0  0  0
  -21.5700   -6.2770   21.6900 O   0  0  0  0  0  0  0  0  0  0  0  0
  -21.5700   -5.5830   22.8720 C   0  0  0  0  0  0  0  0  0  0  0  0
  -21.0810   -6.1520   24.0700 C   0  0  0  0  0  3  0  0  0  0  0  0
  -21.0330   -5.3800   25.2470 C   0  0  0  0  0  3  0  0  0  0  0  0
  -21.4670   -4.0400   25.2300 C   0  0  0  0  0  0  0  0  0  0  0  0
  -21.9480   -3.4710   24.0380 C   0  0  0  0  0  3  0  0  0  0  0  0
  -21.9970   -4.2400   22.8640 C   0  0  0  0  0  0  0  0  0  0  0  0
  -22.4430   -3.6800   21.7120 F   0  0  0  0  0  0  0  0  0  0  0  0
  -21.4160   -3.2950   26.3600 F   0  0  0  0  0  0  0  0  0  0  0  0
  -22.3670  -12.9690   21.5240 C   0  0  0  0  0  0  0  0  0  0  0  0
  -21.8200  -12.2150   22.4730 N   0  0  0  0  0  0  0  0  0  0  0  0
  -21.8080  -13.9880   21.1210 O   0  0  0  0  0  0  0  0  0  0  0  0
  -22.2850  -11.3870   22.8150 H   0  0  0  0  0  0  0  0  0  0  0  0
  -20.9240  -12.4700   22.8630 H   0  0  0  0  0  0  0  0  0  0  0  0
  -24.7720  -14.7730   20.3680 N   0  0  0  0  0  0  0  0  0  0  0  0
  -24.0160  -15.3980   20.6250 H   0  0  0  0  0  0  0  0  0  0  0  0
  -25.5500  -15.2540   19.9310 H   0  0  0  0  0  0  0  0  0  0  0  0
  -30.6080  -23.0550   21.8220 C   0  0  0  0  0  2  0  0  0  0  0  0
  -29.6210  -23.4510   20.7140 C   0  0  0  0  0  2  0  0  0  0  0  0
  -29.6580  -24.9720   20.4720 C   0  0  0  0  0  2  0  0  0  0  0  0
  -28.4530  -25.5490   19.7120 C   0  0  0  0  0  2  0  0  0  0  0  0
  -28.4530  -26.9560   19.9570 O   0  0  0  0  0  0  0  0  0  0  0  0
  -24.6410  -31.9780   23.2300 C   0  0  0  0  0  0  0  0  0  0  0  0
  -27.2480  -27.6210   20.0030 C   0  0  0  0  0  0  0  0  0  0  0  0
  -23.4040  -30.5890   21.5990 C   0  0  0  0  0  3  0  0  0  0  0  0
  -24.8330  -29.0850   20.1160 C   0  0  0  0  0  0  0  0  0  0  0  0
  -25.9200  -30.9740   21.3430 C   0  0  0  0  0  2  0  0  0  0  0  0
  -26.0000  -29.6160   20.6800 C   0  0  0  0  0  0  0  0  0  0  0  0
  -27.2070  -28.8880   20.6230 C   0  0  0  0  0  3  0  0  0  0  0  0
  -26.0630  -27.0990   19.4340 C   0  0  0  0  0  3  0  0  0  0  0  0
  -24.8590  -27.8240   19.4960 C   0  0  0  0  0  3  0  0  0  0  0  0
  -23.5820  -29.9280   20.2060 C   0  0  0  0  0  2  0  0  0  0  0  0
  -24.6740  -31.1930   22.1160 N   0  0  0  0  0  0  0  0  0  0  0  0
  -23.5720  -32.2320   23.8040 O   0  0  0  0  0  0  0  0  0  0  0  0
  -22.7870  -29.5460   22.5590 C   0  0  0  0  0  0  0  0  0  0  0  0
  -21.4700  -29.3200   22.4270 N   0  0  0  0  0  0  0  0  0  0  0  0
  -23.4890  -28.9450   23.3770 O   0  0  0  0  0  0  0  0  0  0  0  0
  -20.9630  -29.8600   21.7410 H   0  0  0  0  0  0  0  0  0  0  0  0
  -18.1410  -28.0030   22.8910 C   0  0  0  0  0  0  0  0  0  0  0  0
  -20.6820  -28.3560   23.1960 C   0  0  0  0  0  3  0  0  0  0  0  0
  -20.8470  -26.9270   22.6300 C   0  0  0  0  0  2  0  0  0  0  0  0
  -19.7710  -26.5560   21.6060 C   0  0  0  0  0  2  0  0  0  0  0  0
  -18.3750  -26.6560   22.2300 C   0  0  0  0  0  2  0  0  0  0  0  0
  -19.2240  -28.8090   23.3300 C   0  0  0  0  0  0  0  0  0  0  0  0
  -18.9510  -30.0690   23.9050 C   0  0  0  0  0  3  0  0  0  0  0  0
  -17.6260  -30.5230   24.0490 C   0  0  0  0  0  3  0  0  0  0  0  0
  -16.5560  -29.7130   23.6310 C   0  0  0  0  0  3  0  0  0  0  0  0
  -16.8150  -28.4550   23.0560 C   0  0  0  0  0  3  0  0  0  0  0  0
  -25.9370  -32.6110   23.8250 C   0  0  0  0  0  3  0  0  0  0  0  0
  -26.4870  -31.8320   25.0830 C   0  0  1  0  0  0  0  0  0  0  0  0
  -25.4120  -31.5520   26.1570 C   0  0  0  0  0  1  0  0  0  0  0  0
  -27.1010  -30.4760   24.6620 C   0  0  0  0  0  1  0  0  0  0  0  0
  -27.6210  -32.6460   25.7500 C   0  0  0  0  0  1  0  0  0  0  0  0
  -25.6320  -34.0050   24.1710 N   0  0  0  0  0  0  0  0  0  0  0  0
  -25.9460  -35.0620   23.4110 C   0  0  0  0  0  0  0  0  0  0  0  0
  -26.5950  -34.9680   22.3670 O   0  0  0  0  0  0  0  0  0  0  0  0
  -25.0580  -34.1520   24.9880 H   0  0  0  0  0  0  0  0  0  0  0  0
  -24.2030  -36.8470   23.0980 C   0  0  0  0  0  1  0  0  0  0  0  0
  -25.4600  -36.4450   23.8860 C   0  0  0  0  0  3  0  0  0  0  0  0
  -27.6060  -37.3290   24.6830 C   0  0  0  0  0  1  0  0  0  0  0  0
  -26.4850  -37.5030   23.7640 N   0  0  0  0  0  0  0  0  0  0  0  0
  -26.0770  -38.4180   23.9330 H   0  0  0  0  0  0  0  0  0  0  0  0
  1  3  1  0
  2  1  1  0
  3  4  1  0
  5  8  1  0
  5  4  1  0
  6  5  1  0
  7  5  1  0
  9 10  1  0
  9  8  1  0
 11 19  1  0
 12 17  1  0
 13 14  1  0
 13 12  1  0
 15 14  1  0
 15 24  1  0
 15 16  1  0
 17 11  1  0
 17 16  1  0
 18 11  2  0
 19 10  1  0
 19 20  1  0
 21 22  2  0
 22 41  1  0
 23 22  1  0
 23 26  1  0
 24 25  1  0
 24 21  1  0
 25 23  2  0
 26 27  1  0
 27 28  2  0
 29 32  1  0
 29 28  1  0
 30 29  2  0
 31 30  1  0
 31 26  2  0
 32 33  1  0
 33 34  1  0
 34 35  2  0
 36 35  1  0
 36 40  1  0
 37 36  2  0
 38 33  2  0
 38 37  1  0
 39 38  1  0
 41 42  1  0
 42 44  1  0
 42 45  1  0
 43 41  2  0
 46 21  1  0
 46 47  1  0
 48 46  1  0
 49  1  1  0
 50 49  1  0
 51 50  1  0
 52 53  1  0
 52 51  1  0
 53 55  1  0
 54 65  2  0
 55 60  1  0
 56 64  1  0
 56 66  1  0
 57 63  1  0
 57 59  1  0
 58 64  1  0
 59 58  1  0
 60 59  2  0
 61 62  1  0
 61 55  2  0
 62 57  2  0
 63 56  1  0
 64 54  1  0
 66 68  2  0
 67 66  1  0
 69 67  1  0
 70 79  2  0
 70 75  1  0
 71 67  1  0
 71 75  1  0
 72 71  1  0
 73 74  1  0
 73 72  1  0
 74 70  1  0
 75 76  2  0
 76 77  1  0
 78 77  2  0
 79 78  1  0
 80 54  1  0
 80 85  1  0
 80 81  1  0
 81 84  1  1
 81 82  1  0
 83 81  1  0
 85 88  1  0
 86 90  1  0
 86 85  1  0
 87 86  2  0
 90 89  1  0
 92 90  1  0
 92 93  1  0
 92 91  1  0
M  ISO  4  11 100  19 100  52 101  53 101
M  END
>  <TORSDO>  (28) 
F 26

>  <SCORE>  (28) 
-9.906

>  <name>  (28) 
27

>  <ligand_id>  (28) 
27

>  <original_smiles>  (28) 
[H]c1c([H])c([H])c2c(c1[H])C([H])([H])C([H])([H])C([H])([H])C2([H])N([H])C(=O)C1([H])N(C(=O)C([H])(N([H])C(=O)C([H])(N([H])C([H])([H])[H])C([H])([H])[H])C(C([H])([H])[H])(C([H])([H])[H])C([H])([H])[H])C([H])([H])c2c([H])c(OC([H])([H])C([H])([H])C([H])([H])C([H])([H])N([H])C([H])([H])C([H])([H])[N+]([H])([H])C([H])([H])C([H])([H])C([H])([H])N([H])C(=O)N3C([H])([H])C([H])([H])C([H])([H])C([H])(n4nc(-c5c([H])c([H])c(Oc6c([H])c([H])c(F)c([H])c6F)c([H])c5[H])c(C(=O)N([H])[H])c4N([H])[H])C3([H])[H])c([H])c([H])c2C1([H])[H]

>  <smiles>  (28) 
[H]c1c([H])c([H])c2c(c1[H])C([H])([H])C([H])([H])C([H])([H])C2([H])N([H])C(=O)C1([H])N(C(=O)C([H])(N([H])C(=O)C([H])(N([H])C([H])([H])[H])C([H])([H])[H])C(C([H])([H])[H])(C([H])([H])[H])C([H])([H])[H])C([H])([H])c2c([H])c(OC([H])([H])C([H])([H])C([H])([H])C([H])([H])N([H])C([H])([H])C([H])([H])[N+]([H])([H])C([H])([H])C([H])([H])C([H])([H])N([H])C(=O)N3C([H])([H])C([H])([H])C([H])([H])C([H])(n4nc(-c5c([H])c([H])c(Oc6c([H])c([H])c(F)c([H])c6F)c([H])c5[H])c(C(=O)N([H])[H])c4N([H])[H])C3([H])[H])c([H])c([H])c2C1([H])[H]

$$$$
28:0:0
     RDKit          3D

 92 99  0  0  1  0  0  0  0  0999 V2000
  -30.5720  -21.4150   19.9940 N   0  0  0  0  0  0  0  0  0  0  0  0
  -31.5730  -21.5890   20.0650 H   0  0  0  0  0  0  0  0  0  0  0  0
  -30.2120  -20.3310   20.9040 C   0  0  0  0  0  2  0  0  0  0  0  0
  -31.1430  -19.1260   20.6650 C   0  0  0  0  0  2  0  0  0  0  0  0
  -30.7080  -17.9190   21.3970 N   0  0  0  0  0  4  0  0  0  0  0  0
  -30.4060  -18.1890   22.3190 H   0  0  0  0  0  0  0  0  0  0  0  0
  -29.9230  -17.5100   20.9170 H   0  0  0  0  0  0  0  0  0  0  0  0
  -31.7780  -16.9100   21.5350 C   0  0  0  0  0  2  0  0  0  0  0  0
  -31.2990  -15.6060   22.2070 C   0  0  0  0  0  2  0  0  0  0  0  0
  -30.5140  -14.2580   20.2660 C   0  0  0  0  0  0  0  0  0  0  0  0
  -30.0270  -12.2730   18.8870 C   0  0  0  0  0  2  0  0  0  0  0  0
  -29.0030  -12.5350   17.7710 C   0  0  0  0  0  2  0  0  0  0  0  0
  -27.5690  -12.3540   18.3000 C   0  0  0  0  0  2  0  0  0  0  0  0
  -27.3190  -13.1370   19.6140 C   0  0  0  0  0  3  0  0  0  0  0  0
  -28.4410  -12.8700   20.6410 C   0  0  0  0  0  2  0  0  0  0  0  0
  -29.7390  -13.1740   20.0130 N   0  0  0  0  0  0  0  0  0  0  0  0
  -31.4430  -14.6140   19.5370 O   0  0  0  0  0  0  0  0  0  0  0  0
  -30.2990  -14.8420   21.4530 N   0  0  0  0  0  0  0  0  0  0  0  0
  -29.5200  -14.4740   21.9810 H   0  0  0  0  0  0  0  0  0  0  0  0
  -24.9450  -13.6950   20.4400 C   0  0  0  0  0  0  0  0  0  0  0  0
  -23.9180  -12.9010   20.8770 C   0  0  0  0  0  0  0  0  0  0  0  0
  -24.4140  -11.5620   20.8420 C   0  0  0  0  0  0  0  0  0  0  0  0
  -26.0000  -12.8380   20.1670 N   0  0  0  0  0  0  0  0  0  0  0  0
  -25.6850  -11.5510   20.4650 N   0  0  0  0  0  0  0  0  0  0  0  0
  -23.7340  -10.2840   21.0900 C   0  0  0  0  0  0  0  0  0  0  0  0
  -24.2250   -9.3570   22.0360 C   0  0  0  0  0  3  0  0  0  0  0  0
  -23.5440   -8.1440   22.2700 C   0  0  0  0  0  3  0  0  0  0  0  0
  -22.3580   -7.8470   21.5570 C   0  0  0  0  0  0  0  0  0  0  0  0
  -21.8850   -8.7620   20.6010 C   0  0  0  0  0  3  0  0  0  0  0  0
  -22.5680   -9.9680   20.3650 C   0  0  0  0  0  3  0  0  0  0  0  0
  -21.6450   -6.6810   21.6990 O   0  0  0  0  0  0  0  0  0  0  0  0
  -21.6430   -5.9770   22.8760 C   0  0  0  0  0  0  0  0  0  0  0  0
  -21.2250   -6.5600   24.0930 C   0  0  0  0  0  3  0  0  0  0  0  0
  -21.1730   -5.7800   25.2660 C   0  0  0  0  0  3  0  0  0  0  0  0
  -21.5300   -4.4180   25.2230 C   0  0  0  0  0  0  0  0  0  0  0  0
  -21.9400   -3.8350   24.0120 C   0  0  0  0  0  3  0  0  0  0  0  0
  -21.9940   -4.6120   22.8410 C   0  0  0  0  0  0  0  0  0  0  0  0
  -22.3700   -4.0400   21.6720 F   0  0  0  0  0  0  0  0  0  0  0  0
  -21.4720   -3.6670   26.3470 F   0  0  0  0  0  0  0  0  0  0  0  0
  -22.5250  -13.3460   21.2180 C   0  0  0  0  0  0  0  0  0  0  0  0
  -21.8660  -12.6490   22.1370 N   0  0  0  0  0  0  0  0  0  0  0  0
  -22.0300  -14.3470   20.7020 O   0  0  0  0  0  0  0  0  0  0  0  0
  -22.2800  -11.8390   22.5750 H   0  0  0  0  0  0  0  0  0  0  0  0
  -20.9350  -12.9310   22.4070 H   0  0  0  0  0  0  0  0  0  0  0  0
  -25.0620  -15.0670   20.2330 N   0  0  0  0  0  0  0  0  0  0  0  0
  -24.2860  -15.7050   20.3730 H   0  0  0  0  0  0  0  0  0  0  0  0
  -25.8870  -15.5220   19.8600 H   0  0  0  0  0  0  0  0  0  0  0  0
  -29.8740  -22.6450   20.3390 C   0  0  0  0  0  2  0  0  0  0  0  0
  -30.2790  -23.7370   19.3360 C   0  0  0  0  0  2  0  0  0  0  0  0
  -29.9390  -25.1590   19.8070 C   0  0  0  0  0  2  0  0  0  0  0  0
  -28.4520  -25.5330   19.7380 C   0  0  0  0  0  2  0  0  0  0  0  0
  -28.3610  -26.8640   20.2320 O   0  0  0  0  0  0  0  0  0  0  0  0
  -24.5050  -31.9790   23.2660 C   0  0  0  0  0  0  0  0  0  0  0  0
  -27.1470  -27.5130   20.2300 C   0  0  0  0  0  0  0  0  0  0  0  0
  -23.2910  -30.5520   21.6490 C   0  0  0  0  0  3  0  0  0  0  0  0
  -24.7380  -28.9920   20.2460 C   0  0  0  0  0  0  0  0  0  0  0  0
  -25.8130  -30.9130   21.4350 C   0  0  0  0  0  2  0  0  0  0  0  0
  -25.8950  -29.5330   20.8160 C   0  0  0  0  0  0  0  0  0  0  0  0
  -27.0990  -28.8000   20.8080 C   0  0  0  0  0  3  0  0  0  0  0  0
  -25.9670  -26.9690   19.6710 C   0  0  0  0  0  3  0  0  0  0  0  0
  -24.7670  -27.7060   19.6750 C   0  0  0  0  0  3  0  0  0  0  0  0
  -23.4940  -29.8490   20.2800 C   0  0  0  0  0  2  0  0  0  0  0  0
  -24.5550  -31.1630   22.1750 N   0  0  0  0  0  0  0  0  0  0  0  0
  -23.4270  -32.2580   23.8070 O   0  0  0  0  0  0  0  0  0  0  0  0
  -22.6470  -29.5440   22.6270 C   0  0  0  0  0  0  0  0  0  0  0  0
  -21.3240  -29.3520   22.4990 N   0  0  0  0  0  0  0  0  0  0  0  0
  -23.3320  -28.9380   23.4550 O   0  0  0  0  0  0  0  0  0  0  0  0
  -20.8320  -29.8920   21.8010 H   0  0  0  0  0  0  0  0  0  0  0  0
  -17.9560  -28.1460   23.0000 C   0  0  0  0  0  0  0  0  0  0  0  0
  -20.5100  -28.4250   23.2830 C   0  0  0  0  0  3  0  0  0  0  0  0
  -20.6250  -26.9830   22.7370 C   0  0  0  0  0  2  0  0  0  0  0  0
  -19.5320  -26.6320   21.7220 C   0  0  0  0  0  2  0  0  0  0  0  0
  -18.1450  -26.7830   22.3540 C   0  0  0  0  0  2  0  0  0  0  0  0
  -19.0670  -28.9220   23.4210 C   0  0  0  0  0  0  0  0  0  0  0  0
  -18.8380  -30.1980   23.9820 C   0  0  0  0  0  3  0  0  0  0  0  0
  -17.5290  -30.6960   24.1270 C   0  0  0  0  0  3  0  0  0  0  0  0
  -16.4320  -29.9150   23.7230 C   0  0  0  0  0  3  0  0  0  0  0  0
  -16.6470  -28.6410   23.1650 C   0  0  0  0  0  3  0  0  0  0  0  0
  -25.7940  -32.6170   23.8710 C   0  0  0  0  0  3  0  0  0  0  0  0
  -26.3260  -31.8590   25.1490 C   0  0  1  0  0  0  0  0  0  0  0  0
  -25.2410  -31.6210   26.2260 C   0  0  0  0  0  1  0  0  0  0  0  0
  -26.9160  -30.4830   24.7620 C   0  0  0  0  0  1  0  0  0  0  0  0
  -27.4750  -32.6650   25.7980 C   0  0  0  0  0  1  0  0  0  0  0  0
  -25.4880  -34.0180   24.1870 N   0  0  0  0  0  0  0  0  0  0  0  0
  -25.8210  -35.0610   23.4150 C   0  0  0  0  0  0  0  0  0  0  0  0
  -26.4910  -34.9460   22.3850 O   0  0  0  0  0  0  0  0  0  0  0  0
  -24.8940  -34.1820   24.9860 H   0  0  0  0  0  0  0  0  0  0  0  0
  -24.0950  -36.8500   23.0330 C   0  0  0  0  0  1  0  0  0  0  0  0
  -25.3320  -36.4540   23.8550 C   0  0  0  0  0  3  0  0  0  0  0  0
  -27.4640  -37.3440   24.6870 C   0  0  0  0  0  1  0  0  0  0  0  0
  -26.3660  -37.5050   23.7370 N   0  0  0  0  0  0  0  0  0  0  0  0
  -25.9610  -38.4270   23.8760 H   0  0  0  0  0  0  0  0  0  0  0  0
  1  2  1  0
  1 48  1  0
  1  3  1  0
  4  3  1  0
  4  5  1  0
  5  8  1  0
  5  6  1  0
  7  5  1  0
  8  9  1  0
 10 18  1  0
 11 16  1  0
 12 13  1  0
 12 11  1  0
 14 13  1  0
 14 23  1  0
 14 15  1  0
 16 10  1  0
 16 15  1  0
 17 10  2  0
 18 19  1  0
 18  9  1  0
 20 21  2  0
 21 40  1  0
 22 21  1  0
 22 25  1  0
 23 20  1  0
 23 24  1  0
 24 22  2  0
 25 26  1  0
 26 27  2  0
 28 31  1  0
 28 27  1  0
 29 28  2  0
 30 29  1  0
 30 25  2  0
 31 32  1  0
 32 33  1  0
 33 34  2  0
 35 34  1  0
 35 39  1  0
 36 35  2  0
 37 32  2  0
 37 36  1  0
 38 37  1  0
 40 41  1  0
 41 44  1  0
 41 43  1  0
 42 40  2  0
 45 46  1  0
 45 20  1  0
 47 45  1  0
 49 50  1  0
 49 48  1  0
 51 50  1  0
 51 52  1  0
 53 64  2  0
 54 52  1  0
 54 59  1  0
 55 63  1  0
 55 65  1  0
 56 62  1  0
 56 58  1  0
 57 63  1  0
 58 57  1  0
 59 58  2  0
 60 61  1  0
 60 54  2  0
 61 56  2  0
 62 55  1  0
 63 53  1  0
 65 67  2  0
 66 65  1  0
 68 66  1  0
 69 78  2  0
 69 74  1  0
 70 66  1  0
 70 74  1  0
 71 70  1  0
 72 73  1  0
 72 71  1  0
 73 69  1  0
 74 75  2  0
 75 76  1  0
 77 76  2  0
 78 77  1  0
 79 53  1  0
 79 84  1  0
 79 80  1  0
 80 83  1  1
 80 81  1  0
 82 80  1  0
 84 87  1  0
 85 89  1  0
 85 84  1  0
 86 85  2  0
 89 88  1  0
 91 89  1  0
 91 92  1  0
 91 90  1  0
M  ISO  4  10 100  18 100  51 101  52 101
M  END
>  <TORSDO>  (29) 
F 25

>  <SCORE>  (29) 
-10.900

>  <name>  (29) 
28

>  <ligand_id>  (29) 
28

>  <original_smiles>  (29) 
[H]c1c([H])c([H])c2c(c1[H])C([H])([H])C([H])([H])C([H])([H])C2([H])N([H])C(=O)C1([H])N(C(=O)C([H])(N([H])C(=O)C([H])(N([H])C([H])([H])[H])C([H])([H])[H])C(C([H])([H])[H])(C([H])([H])[H])C([H])([H])[H])C([H])([H])c2c([H])c(OC([H])([H])C([H])([H])C([H])([H])C([H])([H])N([H])C([H])([H])C([H])([H])[N+]([H])([H])C([H])([H])C([H])([H])N([H])C(=O)N3C([H])([H])C([H])([H])C([H])([H])C([H])(n4nc(-c5c([H])c([H])c(Oc6c([H])c([H])c(F)c([H])c6F)c([H])c5[H])c(C(=O)N([H])[H])c4N([H])[H])C3([H])[H])c([H])c([H])c2C1([H])[H]

>  <smiles>  (29) 
[H]c1c([H])c([H])c2c(c1[H])C([H])([H])C([H])([H])C([H])([H])C2([H])N([H])C(=O)C1([H])N(C(=O)C([H])(N([H])C(=O)C([H])(N([H])C([H])([H])[H])C([H])([H])[H])C(C([H])([H])[H])(C([H])([H])[H])C([H])([H])[H])C([H])([H])c2c([H])c(OC([H])([H])C([H])([H])C([H])([H])C([H])([H])N([H])C([H])([H])C([H])([H])[N+]([H])([H])C([H])([H])C([H])([H])N([H])C(=O)N3C([H])([H])C([H])([H])C([H])([H])C([H])(n4nc(-c5c([H])c([H])c(Oc6c([H])c([H])c(F)c([H])c6F)c([H])c5[H])c(C(=O)N([H])[H])c4N([H])[H])C3([H])[H])c([H])c([H])c2C1([H])[H]

$$$$
29:0:0
     RDKit          3D

 88 95  0  0  1  0  0  0  0  0999 V2000
  -29.0310  -22.4880   20.9650 N   0  0  0  0  0  4  0  0  0  0  0  0
  -29.7290  -22.5230   21.6940 H   0  0  0  0  0  0  0  0  0  0  0  0
  -28.1430  -22.4060   21.4360 H   0  0  0  0  0  0  0  0  0  0  0  0
  -29.2390  -21.1870   20.1850 C   0  0  0  0  0  2  0  0  0  0  0  0
  -29.7550  -19.8870   20.9880 C   0  0  0  0  0  2  0  0  0  0  0  0
  -29.5250  -18.4070   20.3970 C   0  0  0  0  0  3  0  0  0  0  0  0
  -30.2770  -17.1790   21.1070 C   0  0  0  0  0  3  0  0  0  0  0  0
  -30.5940  -14.6720   20.4330 C   0  0  0  0  0  0  0  0  0  0  0  0
  -30.3580  -12.4400   19.3460 C   0  0  0  0  0  2  0  0  0  0  0  0
  -29.4040  -12.5520   18.1390 C   0  0  0  0  0  2  0  0  0  0  0  0
  -27.9330  -12.3960   18.5820 C   0  0  0  0  0  2  0  0  0  0  0  0
  -27.5870  -13.2610   19.8270 C   0  0  0  0  0  3  0  0  0  0  0  0
  -28.6560  -13.1110   20.9290 C   0  0  0  0  0  2  0  0  0  0  0  0
  -29.9510  -13.4640   20.3310 N   0  0  0  0  0  0  0  0  0  0  0  0
  -31.7600  -14.8050   20.0510 O   0  0  0  0  0  0  0  0  0  0  0  0
  -29.8460  -15.7600   20.8100 N   0  0  0  0  0  0  0  0  0  0  0  0
  -28.8940  -15.5390   21.0650 H   0  0  0  0  0  0  0  0  0  0  0  0
  -25.2050  -13.8610   20.5710 C   0  0  0  0  0  0  0  0  0  0  0  0
  -24.1420  -13.0880   20.9500 C   0  0  0  0  0  0  0  0  0  0  0  0
  -24.6010  -11.7370   20.9140 C   0  0  0  0  0  0  0  0  0  0  0  0
  -26.2450  -12.9790   20.3240 N   0  0  0  0  0  0  0  0  0  0  0  0
  -25.8890  -11.6970   20.5910 N   0  0  0  0  0  0  0  0  0  0  0  0
  -23.8760  -10.4740   21.1060 C   0  0  0  0  0  0  0  0  0  0  0  0
  -24.3320   -9.4910   22.0120 C   0  0  0  0  0  3  0  0  0  0  0  0
  -23.6050   -8.2950   22.1970 C   0  0  0  0  0  3  0  0  0  0  0  0
  -22.4050   -8.0750   21.4770 C   0  0  0  0  0  0  0  0  0  0  0  0
  -21.9670   -9.0470   20.5600 C   0  0  0  0  0  3  0  0  0  0  0  0
  -22.6950  -10.2340   20.3730 C   0  0  0  0  0  3  0  0  0  0  0  0
  -21.6460   -6.9340   21.5730 O   0  0  0  0  0  0  0  0  0  0  0  0
  -21.6500   -6.1600   22.7060 C   0  0  0  0  0  0  0  0  0  0  0  0
  -21.3120   -6.6870   23.9710 C   0  0  0  0  0  3  0  0  0  0  0  0
  -21.2650   -5.8420   25.0970 C   0  0  0  0  0  3  0  0  0  0  0  0
  -21.5410   -4.4700   24.9580 C   0  0  0  0  0  0  0  0  0  0  0  0
  -21.8710   -3.9400   23.6980 C   0  0  0  0  0  3  0  0  0  0  0  0
  -21.9220   -4.7840   22.5750 C   0  0  0  0  0  0  0  0  0  0  0  0
  -22.2200   -4.2640   21.3590 F   0  0  0  0  0  0  0  0  0  0  0  0
  -21.4860   -3.6550   26.0360 F   0  0  0  0  0  0  0  0  0  0  0  0
  -22.7470  -13.5680   21.2340 C   0  0  0  0  0  0  0  0  0  0  0  0
  -22.0300  -12.8720   22.1070 N   0  0  0  0  0  0  0  0  0  0  0  0
  -22.3050  -14.5930   20.7160 O   0  0  0  0  0  0  0  0  0  0  0  0
  -22.3990  -12.0390   22.5440 H   0  0  0  0  0  0  0  0  0  0  0  0
  -21.0920  -13.1690   22.3400 H   0  0  0  0  0  0  0  0  0  0  0  0
  -25.3690  -15.2310   20.3900 N   0  0  0  0  0  0  0  0  0  0  0  0
  -24.6070  -15.8910   20.5070 H   0  0  0  0  0  0  0  0  0  0  0  0
  -26.2130  -15.6650   20.0410 H   0  0  0  0  0  0  0  0  0  0  0  0
  -29.0850  -23.8420   20.2350 C   0  0  0  0  0  3  0  0  0  0  0  0
  -28.1300  -25.0380   20.7490 C   0  0  0  0  0  3  0  0  0  0  0  0
  -28.3260  -26.4340   20.2380 O   0  0  0  0  0  0  0  0  0  0  0  0
  -24.6280  -31.8880   23.2210 C   0  0  0  0  0  0  0  0  0  0  0  0
  -27.2160  -27.2980   20.2020 C   0  0  0  0  0  0  0  0  0  0  0  0
  -23.4150  -30.4840   21.5890 C   0  0  0  0  0  3  0  0  0  0  0  0
  -24.8580  -28.9270   20.1590 C   0  0  0  0  0  0  0  0  0  0  0  0
  -25.9510  -30.8010   21.3920 C   0  0  0  0  0  2  0  0  0  0  0  0
  -26.0260  -29.4150   20.7590 C   0  0  0  0  0  0  0  0  0  0  0  0
  -27.2080  -28.6120   20.7680 C   0  0  0  0  0  3  0  0  0  0  0  0
  -26.0350  -26.8730   19.5550 C   0  0  0  0  0  3  0  0  0  0  0  0
  -24.8700  -27.6660   19.5380 C   0  0  0  0  0  3  0  0  0  0  0  0
  -23.6230  -29.8040   20.2090 C   0  0  0  0  0  2  0  0  0  0  0  0
  -24.6840  -31.0750   22.1250 N   0  0  0  0  0  0  0  0  0  0  0  0
  -23.5480  -32.1680   23.7590 O   0  0  0  0  0  0  0  0  0  0  0  0
  -22.7540  -29.4750   22.5620 C   0  0  0  0  0  0  0  0  0  0  0  0
  -21.4260  -29.3020   22.4460 N   0  0  0  0  0  0  0  0  0  0  0  0
  -23.4370  -28.8510   23.3770 O   0  0  0  0  0  0  0  0  0  0  0  0
  -20.9290  -29.8610   21.7670 H   0  0  0  0  0  0  0  0  0  0  0  0
  -18.0550  -28.1050   22.9670 C   0  0  0  0  0  0  0  0  0  0  0  0
  -20.6120  -28.3690   23.2280 C   0  0  0  0  0  3  0  0  0  0  0  0
  -20.7150  -26.9330   22.6610 C   0  0  0  0  0  2  0  0  0  0  0  0
  -19.6110  -26.6030   21.6520 C   0  0  0  0  0  2  0  0  0  0  0  0
  -18.2310  -26.7530   22.2960 C   0  0  0  0  0  2  0  0  0  0  0  0
  -19.1730  -28.8710   23.3900 C   0  0  0  0  0  0  0  0  0  0  0  0
  -18.9540  -30.1370   23.9770 C   0  0  0  0  0  3  0  0  0  0  0  0
  -17.6500  -30.6380   24.1410 C   0  0  0  0  0  3  0  0  0  0  0  0
  -16.5460  -29.8690   23.7340 C   0  0  0  0  0  3  0  0  0  0  0  0
  -16.7490  -28.6040   23.1530 C   0  0  0  0  0  3  0  0  0  0  0  0
  -25.9150  -32.5220   23.8340 C   0  0  0  0  0  3  0  0  0  0  0  0
  -26.4480  -31.7460   25.1000 C   0  0  1  0  0  0  0  0  0  0  0  0
  -25.3680  -31.5030   26.1790 C   0  0  0  0  0  1  0  0  0  0  0  0
  -27.0260  -30.3720   24.6910 C   0  0  0  0  0  1  0  0  0  0  0  0
  -27.6090  -32.5360   25.7490 C   0  0  0  0  0  1  0  0  0  0  0  0
  -25.6030  -33.9200   24.1800 N   0  0  0  0  0  0  0  0  0  0  0  0
  -25.9250  -34.9770   23.4210 C   0  0  0  0  0  0  0  0  0  0  0  0
  -26.5850  -34.8850   22.3830 O   0  0  0  0  0  0  0  0  0  0  0  0
  -25.0140  -34.0700   24.9840 H   0  0  0  0  0  0  0  0  0  0  0  0
  -24.1870  -36.7660   23.1060 C   0  0  0  0  0  1  0  0  0  0  0  0
  -25.4430  -36.3610   23.8950 C   0  0  0  0  0  3  0  0  0  0  0  0
  -27.5900  -37.2470   24.6930 C   0  0  0  0  0  1  0  0  0  0  0  0
  -26.4690  -37.4190   23.7710 N   0  0  0  0  0  0  0  0  0  0  0  0
  -26.0640  -38.3360   23.9360 H   0  0  0  0  0  0  0  0  0  0  0  0
  1  3  1  0
  1  2  1  0
  4  1  1  0
  4  5  1  0
  6  5  1  0
  6  7  2  0
  8 16  1  0
  9 14  1  0
 10 11  1  0
 10  9  1  0
 12 11  1  0
 12 21  1  0
 12 13  1  0
 14  8  1  0
 14 13  1  0
 15  8  2  0
 16 17  1  0
 16  7  1  0
 18 19  2  0
 19 38  1  0
 20 19  1  0
 20 23  1  0
 21 18  1  0
 21 22  1  0
 22 20  2  0
 23 24  1  0
 24 25  2  0
 26 29  1  0
 26 25  1  0
 27 26  2  0
 28 27  1  0
 28 23  2  0
 29 30  1  0
 30 31  1  0
 31 32  2  0
 33 32  1  0
 33 37  1  0
 34 33  2  0
 35 30  2  0
 35 34  1  0
 36 35  1  0
 38 39  1  0
 39 42  1  0
 39 41  1  0
 40 38  2  0
 43 44  1  0
 43 18  1  0
 45 43  1  0
 46 47  2  0
 46  1  1  0
 48 47  1  0
 49 60  2  0
 50 48  1  0
 50 55  1  0
 51 59  1  0
 51 61  1  0
 52 58  1  0
 52 54  1  0
 53 59  1  0
 54 55  2  0
 54 53  1  0
 56 50  2  0
 57 56  1  0
 57 52  2  0
 58 51  1  0
 59 49  1  0
 61 63  2  0
 62 61  1  0
 64 62  1  0
 65 74  2  0
 65 70  1  0
 66 62  1  0
 66 70  1  0
 67 66  1  0
 68 69  1  0
 68 67  1  0
 69 65  1  0
 70 71  2  0
 71 72  1  0
 73 72  2  0
 74 73  1  0
 75 49  1  0
 75 80  1  0
 75 76  1  0
 76 79  1  1
 76 77  1  0
 78 76  1  0
 80 83  1  0
 81 85  1  0
 81 80  1  0
 82 81  2  0
 85 84  1  0
 87 85  1  0
 87 88  1  0
 87 86  1  0
M  ISO  4   8 100  16 100  47 101  48 101
M  END
>  <TORSDO>  (30) 
F 22

>  <SCORE>  (30) 
-12.877

>  <name>  (30) 
29

>  <ligand_id>  (30) 
29

>  <original_smiles>  (30) 
[H]c1c([H])c([H])c2c(c1[H])C([H])([H])C([H])([H])C([H])([H])C2([H])N([H])C(=O)C1([H])N(C(=O)C([H])(N([H])C(=O)C([H])(N([H])C([H])([H])[H])C([H])([H])[H])C(C([H])([H])[H])(C([H])([H])[H])C([H])([H])[H])C([H])([H])c2c([H])c(OC([H])([H])C([H])([H])[N+]([H])([H])C([H])([H])C([H])([H])C([H])([H])C([H])([H])N([H])C(=O)N3C([H])([H])C([H])([H])C([H])([H])C([H])(n4nc(-c5c([H])c([H])c(Oc6c([H])c([H])c(F)c([H])c6F)c([H])c5[H])c(C(=O)N([H])[H])c4N([H])[H])C3([H])[H])c([H])c([H])c2C1([H])[H]

>  <smiles>  (30) 
[H]c1c([H])c([H])c2c(c1[H])C([H])([H])C([H])([H])C([H])([H])C2([H])N([H])C(=O)C1([H])N(C(=O)C([H])(N([H])C(=O)C([H])(N([H])C([H])([H])[H])C([H])([H])[H])C(C([H])([H])[H])(C([H])([H])[H])C([H])([H])[H])C([H])([H])c2c([H])c(OC([H])([H])C([H])([H])[N+]([H])([H])C([H])([H])C([H])([H])C([H])([H])C([H])([H])N([H])C(=O)N3C([H])([H])C([H])([H])C([H])([H])C([H])(n4nc(-c5c([H])c([H])c(Oc6c([H])c([H])c(F)c([H])c6F)c([H])c5[H])c(C(=O)N([H])[H])c4N([H])[H])C3([H])[H])c([H])c([H])c2C1([H])[H]

$$$$
30:0:0
     RDKit          3D

 90 97  0  0  1  0  0  0  0  0999 V2000
  -29.5390  -21.8770   20.7790 C   0  0  0  0  0  2  0  0  0  0  0  0
  -28.9860  -22.9380   19.9220 N   0  0  0  0  0  0  0  0  0  0  0  0
  -28.0060  -22.7400   19.7320 H   0  0  0  0  0  0  0  0  0  0  0  0
  -29.0760  -24.2850   20.5160 C   0  0  0  0  0  2  0  0  0  0  0  0
  -28.5320  -25.3730   19.5460 C   0  0  0  0  0  2  0  0  0  0  0  0
  -28.4140  -26.6850   20.1510 O   0  0  0  0  0  0  0  0  0  0  0  0
  -24.6120  -31.8920   23.2330 C   0  0  0  0  0  0  0  0  0  0  0  0
  -27.2220  -27.4040   20.1310 C   0  0  0  0  0  0  0  0  0  0  0  0
  -23.3930  -30.4930   21.6020 C   0  0  0  0  0  3  0  0  0  0  0  0
  -24.8320  -28.9530   20.1700 C   0  0  0  0  0  0  0  0  0  0  0  0
  -25.9250  -30.8310   21.3950 C   0  0  0  0  0  2  0  0  0  0  0  0
  -25.9990  -29.4590   20.7520 C   0  0  0  0  0  0  0  0  0  0  0  0
  -27.1920  -28.6920   20.7320 C   0  0  0  0  0  3  0  0  0  0  0  0
  -26.0220  -26.9270   19.5460 C   0  0  0  0  0  3  0  0  0  0  0  0
  -24.8400  -27.6860   19.5680 C   0  0  0  0  0  3  0  0  0  0  0  0
  -23.5930  -29.8170   20.2220 C   0  0  0  0  0  2  0  0  0  0  0  0
  -24.6620  -31.0870   22.1340 N   0  0  0  0  0  0  0  0  0  0  0  0
  -23.5340  -32.1690   23.7760 O   0  0  0  0  0  0  0  0  0  0  0  0
  -22.7460  -29.4710   22.5660 C   0  0  0  0  0  0  0  0  0  0  0  0
  -21.4210  -29.2910   22.4480 N   0  0  0  0  0  0  0  0  0  0  0  0
  -23.4340  -28.8450   23.3770 O   0  0  0  0  0  0  0  0  0  0  0  0
  -20.9260  -29.8490   21.7650 H   0  0  0  0  0  0  0  0  0  0  0  0
  -18.0480  -28.0970   22.9610 C   0  0  0  0  0  0  0  0  0  0  0  0
  -20.6070  -28.3560   23.2240 C   0  0  0  0  0  3  0  0  0  0  0  0
  -20.7080  -26.9220   22.6550 C   0  0  0  0  0  2  0  0  0  0  0  0
  -19.6030  -26.5950   21.6450 C   0  0  0  0  0  2  0  0  0  0  0  0
  -18.2230  -26.7440   22.2920 C   0  0  0  0  0  2  0  0  0  0  0  0
  -19.1670  -28.8610   23.3840 C   0  0  0  0  0  0  0  0  0  0  0  0
  -18.9500  -30.1280   23.9680 C   0  0  0  0  0  3  0  0  0  0  0  0
  -17.6460  -30.6300   24.1340 C   0  0  0  0  0  3  0  0  0  0  0  0
  -16.5400  -29.8630   23.7270 C   0  0  0  0  0  3  0  0  0  0  0  0
  -16.7420  -28.5980   23.1460 C   0  0  0  0  0  3  0  0  0  0  0  0
  -25.9020  -32.5240   23.8410 C   0  0  0  0  0  3  0  0  0  0  0  0
  -26.4360  -31.7460   25.1070 C   0  0  1  0  0  0  0  0  0  0  0  0
  -25.3560  -31.5000   26.1850 C   0  0  0  0  0  1  0  0  0  0  0  0
  -27.0170  -30.3710   24.7010 C   0  0  0  0  0  1  0  0  0  0  0  0
  -27.5930  -32.5380   25.7590 C   0  0  0  0  0  1  0  0  0  0  0  0
  -25.5920  -33.9190   24.1820 N   0  0  0  0  0  0  0  0  0  0  0  0
  -25.9100  -34.9750   23.4220 C   0  0  0  0  0  0  0  0  0  0  0  0
  -26.5650  -34.8790   22.3810 O   0  0  0  0  0  0  0  0  0  0  0  0
  -25.0060  -34.0660   24.9900 H   0  0  0  0  0  0  0  0  0  0  0  0
  -24.1650  -36.7580   23.1040 C   0  0  0  0  0  1  0  0  0  0  0  0
  -25.4220  -36.3590   23.8920 C   0  0  0  0  0  3  0  0  0  0  0  0
  -27.5690  -37.2520   24.6830 C   0  0  0  0  0  1  0  0  0  0  0  0
  -26.4460  -37.4190   23.7640 N   0  0  0  0  0  0  0  0  0  0  0  0
  -26.0390  -38.3360   23.9250 H   0  0  0  0  0  0  0  0  0  0  0  0
  -29.2780  -20.4450   20.2060 C   0  0  0  0  0  2  0  0  0  0  0  0
  -29.9590  -19.3610   20.9710 N   0  0  0  0  0  4  0  0  0  0  0  0
  -30.9530  -19.4810   20.8660 H   0  0  0  0  0  0  0  0  0  0  0  0
  -29.7380  -19.4840   21.9470 H   0  0  0  0  0  0  0  0  0  0  0  0
  -29.5950  -17.9640   20.5850 C   0  0  0  0  0  2  0  0  0  0  0  0
  -30.3920  -16.8790   21.3710 C   0  0  0  0  0  2  0  0  0  0  0  0
  -30.6370  -14.4980   20.5150 C   0  0  0  0  0  0  0  0  0  0  0  0
  -30.3390  -12.3450   19.3390 C   0  0  0  0  0  2  0  0  0  0  0  0
  -29.3830  -12.5410   18.1440 C   0  0  0  0  0  2  0  0  0  0  0  0
  -27.9140  -12.3960   18.5870 C   0  0  0  0  0  2  0  0  0  0  0  0
  -27.5840  -13.2320   19.8520 C   0  0  0  0  0  3  0  0  0  0  0  0
  -28.6470  -13.0070   20.9500 C   0  0  0  0  0  2  0  0  0  0  0  0
  -29.9660  -13.3220   20.3740 N   0  0  0  0  0  0  0  0  0  0  0  0
  -31.7520  -14.6960   20.0290 O   0  0  0  0  0  0  0  0  0  0  0  0
  -29.9470  -15.4910   21.1130 N   0  0  0  0  0  0  0  0  0  0  0  0
  -29.0300  -15.2400   21.4510 H   0  0  0  0  0  0  0  0  0  0  0  0
  -25.1920  -13.8430   20.5770 C   0  0  0  0  0  0  0  0  0  0  0  0
  -24.1240  -13.0710   20.9510 C   0  0  0  0  0  0  0  0  0  0  0  0
  -24.5820  -11.7190   20.9130 C   0  0  0  0  0  0  0  0  0  0  0  0
  -26.2340  -12.9600   20.3380 N   0  0  0  0  0  0  0  0  0  0  0  0
  -25.8700  -11.6770   20.5970 N   0  0  0  0  0  0  0  0  0  0  0  0
  -23.8550  -10.4580   21.1020 C   0  0  0  0  0  0  0  0  0  0  0  0
  -24.3090   -9.4710   22.0050 C   0  0  0  0  0  3  0  0  0  0  0  0
  -23.5820   -8.2740   22.1830 C   0  0  0  0  0  3  0  0  0  0  0  0
  -22.3870   -8.0560   21.4570 C   0  0  0  0  0  0  0  0  0  0  0  0
  -21.9510   -9.0310   20.5430 C   0  0  0  0  0  3  0  0  0  0  0  0
  -22.6780  -10.2190   20.3630 C   0  0  0  0  0  3  0  0  0  0  0  0
  -21.6280   -6.9130   21.5460 O   0  0  0  0  0  0  0  0  0  0  0  0
  -21.6290   -6.1360   22.6770 C   0  0  0  0  0  0  0  0  0  0  0  0
  -21.2830   -6.6610   23.9410 C   0  0  0  0  0  3  0  0  0  0  0  0
  -21.2290   -5.8110   25.0640 C   0  0  0  0  0  3  0  0  0  0  0  0
  -21.5080   -4.4400   24.9250 C   0  0  0  0  0  0  0  0  0  0  0  0
  -21.8470   -3.9130   23.6660 C   0  0  0  0  0  3  0  0  0  0  0  0
  -21.9040   -4.7600   22.5440 C   0  0  0  0  0  0  0  0  0  0  0  0
  -22.2100   -4.2450   21.3290 F   0  0  0  0  0  0  0  0  0  0  0  0
  -21.4480   -3.6210   26.0020 F   0  0  0  0  0  0  0  0  0  0  0  0
  -22.7290  -13.5510   21.2350 C   0  0  0  0  0  0  0  0  0  0  0  0
  -22.0070  -12.8530   22.1040 N   0  0  0  0  0  0  0  0  0  0  0  0
  -22.2890  -14.5790   20.7200 O   0  0  0  0  0  0  0  0  0  0  0  0
  -22.3760  -12.0210   22.5410 H   0  0  0  0  0  0  0  0  0  0  0  0
  -21.0720  -13.1560   22.3370 H   0  0  0  0  0  0  0  0  0  0  0  0
  -25.3580  -15.2130   20.4010 N   0  0  0  0  0  0  0  0  0  0  0  0
  -24.5890  -15.8670   20.5040 H   0  0  0  0  0  0  0  0  0  0  0  0
  -26.1980  -15.6450   20.0380 H   0  0  0  0  0  0  0  0  0  0  0  0
  2  4  1  0
  2  1  1  0
  3  2  1  0
  5  6  1  0
  5  4  1  0
  7 18  2  0
  8  6  1  0
  8 13  1  0
  9 17  1  0
  9 19  1  0
 10 16  1  0
 10 12  1  0
 11 17  1  0
 12 11  1  0
 13 12  2  0
 14 15  1  0
 14  8  2  0
 15 10  2  0
 16  9  1  0
 17  7  1  0
 19 21  2  0
 20 19  1  0
 22 20  1  0
 23 32  2  0
 23 28  1  0
 24 20  1  0
 24 28  1  0
 25 24  1  0
 26 27  1  0
 26 25  1  0
 27 23  1  0
 28 29  2  0
 29 30  1  0
 31 30  2  0
 32 31  1  0
 33  7  1  0
 33 38  1  0
 33 34  1  0
 34 37  1  1
 34 35  1  0
 36 34  1  0
 38 41  1  0
 39 43  1  0
 39 38  1  0
 40 39  2  0
 43 42  1  0
 45 43  1  0
 45 46  1  0
 45 44  1  0
 47  1  1  0
 47 48  1  0
 48 50  1  0
 49 48  1  0
 51 48  1  0
 51 52  1  0
 53 61  1  0
 54 59  1  0
 55 56  1  0
 55 54  1  0
 57 56  1  0
 57 66  1  0
 57 58  1  0
 59 53  1  0
 59 58  1  0
 60 53  2  0
 61 52  1  0
 61 62  1  0
 63 64  2  0
 64 83  1  0
 65 64  1  0
 65 68  1  0
 66 63  1  0
 66 67  1  0
 67 65  2  0
 68 69  1  0
 69 70  2  0
 71 74  1  0
 71 70  1  0
 72 71  2  0
 73 72  1  0
 73 68  2  0
 74 75  1  0
 75 76  1  0
 76 77  2  0
 78 77  1  0
 78 82  1  0
 79 78  2  0
 80 75  2  0
 80 79  1  0
 81 80  1  0
 83 84  1  0
 84 87  1  0
 84 86  1  0
 85 83  2  0
 88 89  1  0
 88 63  1  0
 90 88  1  0
M  ISO  4   5 101   6 101  53 100  61 100
M  END
>  <TORSDO>  (31) 
F 23

>  <SCORE>  (31) 
-12.740

>  <name>  (31) 
30

>  <ligand_id>  (31) 
30

>  <original_smiles>  (31) 
[H]c1c([H])c([H])c2c(c1[H])C([H])([H])C([H])([H])C([H])([H])C2([H])N([H])C(=O)C1([H])N(C(=O)C([H])(N([H])C(=O)C([H])(N([H])C([H])([H])[H])C([H])([H])[H])C(C([H])([H])[H])(C([H])([H])[H])C([H])([H])[H])C([H])([H])c2c([H])c(OC([H])([H])C([H])([H])N([H])C([H])([H])C([H])([H])[N+]([H])([H])C([H])([H])C([H])([H])N([H])C(=O)N3C([H])([H])C([H])([H])C([H])([H])C([H])(n4nc(-c5c([H])c([H])c(Oc6c([H])c([H])c(F)c([H])c6F)c([H])c5[H])c(C(=O)N([H])[H])c4N([H])[H])C3([H])[H])c([H])c([H])c2C1([H])[H]

>  <smiles>  (31) 
[H]c1c([H])c([H])c2c(c1[H])C([H])([H])C([H])([H])C([H])([H])C2([H])N([H])C(=O)C1([H])N(C(=O)C([H])(N([H])C(=O)C([H])(N([H])C([H])([H])[H])C([H])([H])[H])C(C([H])([H])[H])(C([H])([H])[H])C([H])([H])[H])C([H])([H])c2c([H])c(OC([H])([H])C([H])([H])N([H])C([H])([H])C([H])([H])[N+]([H])([H])C([H])([H])C([H])([H])N([H])C(=O)N3C([H])([H])C([H])([H])C([H])([H])C([H])(n4nc(-c5c([H])c([H])c(Oc6c([H])c([H])c(F)c([H])c6F)c([H])c5[H])c(C(=O)N([H])[H])c4N([H])[H])C3([H])[H])c([H])c([H])c2C1([H])[H]

$$$$
32:0:0
     RDKit          3D

 93100  0  0  1  0  0  0  0  0999 V2000
  -28.6160  -21.3100   21.6470 C   0  0  0  0  0  0  0  0  0  0  0  0
  -27.6290  -22.1590   21.3390 N   0  0  0  0  0  0  0  0  0  0  0  0
  -29.4790  -21.5530   22.4950 O   0  0  0  0  0  0  0  0  0  0  0  0
  -26.9680  -21.8550   20.6350 H   0  0  0  0  0  0  0  0  0  0  0  0
  -28.6210  -19.9800   20.8990 C   0  0  0  0  0  2  0  0  0  0  0  0
  -29.8680  -19.2200   21.1290 N   0  0  0  0  0  4  0  0  0  0  0  0
  -30.1090  -19.3280   22.1020 H   0  0  0  0  0  0  0  0  0  0  0  0
  -30.6020  -19.6520   20.5940 H   0  0  0  0  0  0  0  0  0  0  0  0
  -29.7550  -17.7860   20.7890 C   0  0  0  0  0  2  0  0  0  0  0  0
  -31.0700  -17.0030   20.9760 C   0  0  0  0  0  2  0  0  0  0  0  0
  -31.3560  -14.6430   20.1470 C   0  0  0  0  0  0  0  0  0  0  0  0
  -31.0330  -12.4000   19.1650 C   0  0  0  0  0  2  0  0  0  0  0  0
  -30.0820  -12.4740   17.9550 C   0  0  0  0  0  2  0  0  0  0  0  0
  -28.6090  -12.3880   18.4040 C   0  0  0  0  0  2  0  0  0  0  0  0
  -28.2830  -13.3710   19.5600 C   0  0  0  0  0  3  0  0  0  0  0  0
  -29.3340  -13.2390   20.6850 C   0  0  0  0  0  2  0  0  0  0  0  0
  -30.6720  -13.4710   20.1030 N   0  0  0  0  0  0  0  0  0  0  0  0
  -32.3780  -14.8700   19.4920 O   0  0  0  0  0  0  0  0  0  0  0  0
  -30.7990  -15.5660   20.9400 N   0  0  0  0  0  0  0  0  0  0  0  0
  -30.0210  -15.2350   21.4910 H   0  0  0  0  0  0  0  0  0  0  0  0
  -25.9310  -14.1030   20.3210 C   0  0  0  0  0  0  0  0  0  0  0  0
  -24.8360  -13.3830   20.7140 C   0  0  0  0  0  0  0  0  0  0  0  0
  -25.2250  -12.0100   20.6630 C   0  0  0  0  0  0  0  0  0  0  0  0
  -26.9250  -13.1700   20.0630 N   0  0  0  0  0  0  0  0  0  0  0  0
  -26.5040  -11.9060   20.3240 N   0  0  0  0  0  0  0  0  0  0  0  0
  -24.4430  -10.7840   20.8640 C   0  0  0  0  0  0  0  0  0  0  0  0
  -24.8110   -9.8230   21.8300 C   0  0  0  0  0  3  0  0  0  0  0  0
  -24.0290   -8.6620   22.0200 C   0  0  0  0  0  3  0  0  0  0  0  0
  -22.8690   -8.4520   21.2360 C   0  0  0  0  0  0  0  0  0  0  0  0
  -22.5210   -9.4020   20.2590 C   0  0  0  0  0  3  0  0  0  0  0  0
  -23.3020  -10.5540   20.0700 C   0  0  0  0  0  3  0  0  0  0  0  0
  -22.0690   -7.3390   21.3270 O   0  0  0  0  0  0  0  0  0  0  0  0
  -21.9010   -6.6700   22.5130 C   0  0  0  0  0  0  0  0  0  0  0  0
  -21.3870   -7.3110   23.6610 C   0  0  0  0  0  3  0  0  0  0  0  0
  -21.1630   -6.5710   24.8390 C   0  0  0  0  0  3  0  0  0  0  0  0
  -21.4410   -5.1920   24.8700 C   0  0  0  0  0  0  0  0  0  0  0  0
  -21.9490   -4.5510   23.7250 C   0  0  0  0  0  3  0  0  0  0  0  0
  -22.1740   -5.2870   22.5500 C   0  0  0  0  0  0  0  0  0  0  0  0
  -22.6410   -4.6610   21.4430 F   0  0  0  0  0  0  0  0  0  0  0  0
  -21.2180   -4.4790   25.9990 F   0  0  0  0  0  0  0  0  0  0  0  0
  -23.4700  -13.9270   21.0240 C   0  0  0  0  0  0  0  0  0  0  0  0
  -22.7360  -13.2690   21.9120 N   0  0  0  0  0  0  0  0  0  0  0  0
  -23.0690  -14.9710   20.5140 O   0  0  0  0  0  0  0  0  0  0  0  0
  -23.0740  -12.4230   22.3450 H   0  0  0  0  0  0  0  0  0  0  0  0
  -21.8220  -13.6170   22.1670 H   0  0  0  0  0  0  0  0  0  0  0  0
  -26.1650  -15.4630   20.1430 N   0  0  0  0  0  0  0  0  0  0  0  0
  -25.4400  -16.1620   20.2780 H   0  0  0  0  0  0  0  0  0  0  0  0
  -27.0170  -15.8430   19.7520 H   0  0  0  0  0  0  0  0  0  0  0  0
  -27.3750  -23.4600   21.9540 C   0  0  0  0  0  2  0  0  0  0  0  0
  -27.4530  -24.6030   20.9250 C   0  0  0  0  0  2  0  0  0  0  0  0
  -28.8620  -24.8070   20.3430 C   0  0  0  0  0  2  0  0  0  0  0  0
  -28.9890  -25.9420   19.3100 C   0  0  0  0  0  2  0  0  0  0  0  0
  -28.7990  -27.2280   19.9050 O   0  0  0  0  0  0  0  0  0  0  0  0
  -24.6410  -31.9210   23.2410 C   0  0  0  0  0  0  0  0  0  0  0  0
  -27.5540  -27.8250   19.9260 C   0  0  0  0  0  0  0  0  0  0  0  0
  -23.5290  -30.5560   21.5060 C   0  0  0  0  0  3  0  0  0  0  0  0
  -25.0730  -29.1860   20.0140 C   0  0  0  0  0  0  0  0  0  0  0  0
  -26.0340  -31.0590   21.3620 C   0  0  0  0  0  2  0  0  0  0  0  0
  -26.1940  -29.7360   20.6420 C   0  0  0  0  0  0  0  0  0  0  0  0
  -27.4330  -29.0610   20.5990 C   0  0  0  0  0  3  0  0  0  0  0  0
  -26.4030  -27.2780   19.3070 C   0  0  0  0  0  3  0  0  0  0  0  0
  -25.1700  -27.9530   19.3460 C   0  0  0  0  0  3  0  0  0  0  0  0
  -23.7860  -29.9730   20.0930 C   0  0  0  0  0  2  0  0  0  0  0  0
  -24.7530  -31.1910   22.0960 N   0  0  0  0  0  0  0  0  0  0  0  0
  -23.5420  -32.1010   23.7810 O   0  0  0  0  0  0  0  0  0  0  0  0
  -22.9260  -29.4430   22.3960 C   0  0  0  0  0  0  0  0  0  0  0  0
  -21.6170  -29.1960   22.2370 N   0  0  0  0  0  0  0  0  0  0  0  0
  -23.6340  -28.8100   23.1830 O   0  0  0  0  0  0  0  0  0  0  0  0
  -21.1050  -29.7570   21.5710 H   0  0  0  0  0  0  0  0  0  0  0  0
  -18.3060  -27.8080   22.6210 C   0  0  0  0  0  0  0  0  0  0  0  0
  -20.8440  -28.1730   22.9400 C   0  0  0  0  0  3  0  0  0  0  0  0
  -21.0250  -26.7880   22.2750 C   0  0  0  0  0  2  0  0  0  0  0  0
  -19.9490  -26.4750   21.2310 C   0  0  0  0  0  2  0  0  0  0  0  0
  -18.5560  -26.5130   21.8670 C   0  0  0  0  0  2  0  0  0  0  0  0
  -19.3800  -28.5960   23.1110 C   0  0  0  0  0  0  0  0  0  0  0  0
  -19.0930  -29.8080   23.7730 C   0  0  0  0  0  3  0  0  0  0  0  0
  -17.7630  -30.2340   23.9530 C   0  0  0  0  0  3  0  0  0  0  0  0
  -16.7030  -29.4400   23.4810 C   0  0  0  0  0  3  0  0  0  0  0  0
  -16.9750  -28.2300   22.8180 C   0  0  0  0  0  3  0  0  0  0  0  0
  -25.8860  -32.5820   23.9110 C   0  0  0  0  0  3  0  0  0  0  0  0
  -25.5300  -33.9700   24.2330 N   0  0  0  0  0  0  0  0  0  0  0  0
  -25.8580  -35.0310   23.4840 C   0  0  0  0  0  0  0  0  0  0  0  0
  -26.5650  -34.9470   22.4750 O   0  0  0  0  0  0  0  0  0  0  0  0
  -24.9040  -34.1080   25.0130 H   0  0  0  0  0  0  0  0  0  0  0  0
  -24.0880  -36.7690   23.0770 C   0  0  0  0  0  1  0  0  0  0  0  0
  -25.3180  -36.4040   23.9250 C   0  0  0  0  0  3  0  0  0  0  0  0
  -27.3980  -37.3530   24.8160 C   0  0  0  0  0  1  0  0  0  0  0  0
  -26.3200  -37.4870   23.8390 N   0  0  0  0  0  0  0  0  0  0  0  0
  -25.8830  -38.3950   23.9710 H   0  0  0  0  0  0  0  0  0  0  0  0
  -26.3750  -31.8180   25.2020 C   0  0  1  0  0  0  0  0  0  0  0  0
  -25.2450  -31.5310   26.2180 C   0  0  0  0  0  1  0  0  0  0  0  0
  -27.0180  -30.4650   24.8190 C   0  0  0  0  0  1  0  0  0  0  0  0
  -27.4730  -32.6420   25.9150 C   0  0  0  0  0  1  0  0  0  0  0  0
  1  3  2  0
  2  1  1  0
  2 49  1  0
  4  2  1  0
  5  6  1  0
  5  1  1  0
  6  7  1  0
  8  6  1  0
  9 10  1  0
  9  6  1  0
 11 19  1  0
 12 17  1  0
 13 14  1  0
 13 12  1  0
 15 14  1  0
 15 24  1  0
 15 16  1  0
 17 11  1  0
 17 16  1  0
 18 11  2  0
 19 10  1  0
 19 20  1  0
 21 22  2  0
 22 41  1  0
 23 22  1  0
 23 26  1  0
 24 21  1  0
 24 25  1  0
 25 23  2  0
 26 27  1  0
 27 28  2  0
 29 32  1  0
 29 28  1  0
 30 29  2  0
 31 30  1  0
 31 26  2  0
 32 33  1  0
 33 38  2  0
 33 34  1  0
 34 35  2  0
 35 36  1  0
 36 40  1  0
 37 36  2  0
 38 37  1  0
 39 38  1  0
 41 42  1  0
 42 45  1  0
 42 44  1  0
 43 41  2  0
 46 47  1  0
 46 21  1  0
 48 46  1  0
 50 49  1  0
 51 50  1  0
 52 53  1  0
 52 51  1  0
 53 55  1  0
 54 65  2  0
 55 60  1  0
 56 64  1  0
 56 66  1  0
 57 63  1  0
 57 59  1  0
 58 64  1  0
 59 58  1  0
 60 59  2  0
 61 62  1  0
 61 55  2  0
 62 57  2  0
 63 56  1  0
 64 54  1  0
 66 68  2  0
 67 66  1  0
 69 67  1  0
 70 79  2  0
 70 75  1  0
 71 67  1  0
 71 75  1  0
 72 71  1  0
 73 74  1  0
 73 72  1  0
 74 70  1  0
 75 76  2  0
 76 77  1  0
 78 77  2  0
 79 78  1  0
 80 54  1  0
 80 81  1  0
 80 90  1  0
 81 84  1  0
 82 86  1  0
 82 81  1  0
 83 82  2  0
 86 85  1  0
 88 86  1  0
 88 89  1  0
 88 87  1  0
 90 93  1  1
 90 91  1  0
 92 90  1  0
M  ISO  4  11 100  19 100  52 101  53 101
M  END
>  <TORSDO>  (32) 
F 24

>  <SCORE>  (32) 
-11.747

>  <name>  (32) 
32

>  <ligand_id>  (32) 
32

>  <original_smiles>  (32) 
[H]c1c([H])c([H])c2c(c1[H])C([H])([H])C([H])([H])C([H])([H])C2([H])N([H])C(=O)C1([H])N(C(=O)C([H])(N([H])C(=O)C([H])(N([H])C([H])([H])[H])C([H])([H])[H])C(C([H])([H])[H])(C([H])([H])[H])C([H])([H])[H])C([H])([H])c2c([H])c(OC([H])([H])C([H])([H])C([H])([H])C([H])([H])N([H])C(=O)C([H])([H])[N+]([H])([H])C([H])([H])C([H])([H])N([H])C(=O)N3C([H])([H])C([H])([H])C([H])([H])C([H])(n4nc(-c5c([H])c([H])c(Oc6c([H])c([H])c(F)c([H])c6F)c([H])c5[H])c(C(=O)N([H])[H])c4N([H])[H])C3([H])[H])c([H])c([H])c2C1([H])[H]

>  <smiles>  (32) 
[H]c1c([H])c([H])c2c(c1[H])C([H])([H])C([H])([H])C([H])([H])C2([H])N([H])C(=O)C1([H])N(C(=O)C([H])(N([H])C(=O)C([H])(N([H])C([H])([H])[H])C([H])([H])[H])C(C([H])([H])[H])(C([H])([H])[H])C([H])([H])[H])C([H])([H])c2c([H])c(OC([H])([H])C([H])([H])C([H])([H])C([H])([H])N([H])C(=O)C([H])([H])[N+]([H])([H])C([H])([H])C([H])([H])N([H])C(=O)N3C([H])([H])C([H])([H])C([H])([H])C([H])(n4nc(-c5c([H])c([H])c(Oc6c([H])c([H])c(F)c([H])c6F)c([H])c5[H])c(C(=O)N([H])[H])c4N([H])[H])C3([H])[H])c([H])c([H])c2C1([H])[H]

$$$$
33:0:0
     RDKit          3D

 86 93  0  0  1  0  0  0  0  0999 V2000
  -28.6850  -22.7120   19.8940 C   0  0  0  0  0  2  0  0  0  0  0  0
  -29.0090  -21.2360   20.6150 N   0  0  0  0  0  4  0  0  0  0  0  0
  -28.3790  -21.1820   21.3990 H   0  0  0  0  0  0  0  0  0  0  0  0
  -29.9200  -21.3500   21.0300 H   0  0  0  0  0  0  0  0  0  0  0  0
  -29.0140  -19.6790   20.0020 C   0  0  0  0  0  3  0  0  0  0  0  0
  -29.8200  -18.1820   20.6130 C   0  0  0  0  0  3  0  0  0  0  0  0
  -30.3950  -15.2850   20.2500 C   0  0  0  0  0  0  0  0  0  0  0  0
  -30.3780  -12.8470   19.3460 C   0  0  0  0  0  2  0  0  0  0  0  0
  -29.4440  -12.6300   18.1300 C   0  0  0  0  0  2  0  0  0  0  0  0
  -28.0010  -12.3530   18.5880 C   0  0  0  0  0  2  0  0  0  0  0  0
  -27.5550  -13.3130   19.7190 C   0  0  0  0  0  3  0  0  0  0  0  0
  -28.6160  -13.4650   20.8280 C   0  0  0  0  0  2  0  0  0  0  0  0
  -29.8290  -13.9810   20.1740 N   0  0  0  0  0  0  0  0  0  0  0  0
  -31.6210  -15.2900   20.0780 O   0  0  0  0  0  0  0  0  0  0  0  0
  -29.6130  -16.5450   20.3200 N   0  0  0  0  0  0  0  0  0  0  0  0
  -28.6300  -16.3180   20.2990 H   0  0  0  0  0  0  0  0  0  0  0  0
  -25.1880  -13.8560   20.4940 C   0  0  0  0  0  0  0  0  0  0  0  0
  -24.1350  -13.0720   20.8720 C   0  0  0  0  0  0  0  0  0  0  0  0
  -24.6130  -11.7260   20.8390 C   0  0  0  0  0  0  0  0  0  0  0  0
  -26.2350  -12.9880   20.2420 N   0  0  0  0  0  0  0  0  0  0  0  0
  -25.9020  -11.7010   20.5190 N   0  0  0  0  0  0  0  0  0  0  0  0
  -23.8950  -10.4580   21.0330 C   0  0  0  0  0  0  0  0  0  0  0  0
  -24.3390   -9.4910   21.9610 C   0  0  0  0  0  3  0  0  0  0  0  0
  -23.6190   -8.2910   22.1450 C   0  0  0  0  0  3  0  0  0  0  0  0
  -22.4400   -8.0490   21.4000 C   0  0  0  0  0  0  0  0  0  0  0  0
  -22.0140   -9.0050   20.4610 C   0  0  0  0  0  3  0  0  0  0  0  0
  -22.7360  -10.1970   20.2760 C   0  0  0  0  0  3  0  0  0  0  0  0
  -21.6900   -6.9010   21.4930 O   0  0  0  0  0  0  0  0  0  0  0  0
  -21.6610   -6.1520   22.6420 C   0  0  0  0  0  0  0  0  0  0  0  0
  -21.2520   -6.6990   23.8780 C   0  0  0  0  0  3  0  0  0  0  0  0
  -21.1710   -5.8760   25.0200 C   0  0  0  0  0  3  0  0  0  0  0  0
  -21.4880   -4.5080   24.9260 C   0  0  0  0  0  0  0  0  0  0  0  0
  -21.8910   -3.9610   23.6950 C   0  0  0  0  0  3  0  0  0  0  0  0
  -21.9740   -4.7800   22.5550 C   0  0  0  0  0  0  0  0  0  0  0  0
  -22.3420   -4.2440   21.3670 F   0  0  0  0  0  0  0  0  0  0  0  0
  -21.4030   -3.7150   26.0200 F   0  0  0  0  0  0  0  0  0  0  0  0
  -22.7360  -13.5390   21.1460 C   0  0  0  0  0  0  0  0  0  0  0  0
  -22.0170  -12.8410   22.0170 N   0  0  0  0  0  0  0  0  0  0  0  0
  -22.2900  -14.5610   20.6230 O   0  0  0  0  0  0  0  0  0  0  0  0
  -22.3910  -12.0160   22.4620 H   0  0  0  0  0  0  0  0  0  0  0  0
  -21.0770  -13.1370   22.2430 H   0  0  0  0  0  0  0  0  0  0  0  0
  -25.3360  -15.2290   20.3130 N   0  0  0  0  0  0  0  0  0  0  0  0
  -24.5560  -15.8680   20.4220 H   0  0  0  0  0  0  0  0  0  0  0  0
  -26.1600  -15.6730   19.9320 H   0  0  0  0  0  0  0  0  0  0  0  0
  -28.1150  -24.2800   20.5860 C   0  0  0  0  0  2  0  0  0  0  0  0
  -28.2440  -25.8910   20.2250 O   0  0  0  0  0  0  0  0  0  0  0  0
  -24.6440  -31.8550   23.2020 C   0  0  0  0  0  0  0  0  0  0  0  0
  -27.2040  -26.9580   20.2370 C   0  0  0  0  0  0  0  0  0  0  0  0
  -23.4510  -30.4450   21.5750 C   0  0  0  0  0  3  0  0  0  0  0  0
  -24.8990  -28.8260   20.1730 C   0  0  0  0  0  0  0  0  0  0  0  0
  -26.0160  -30.6620   21.4240 C   0  0  0  0  0  2  0  0  0  0  0  0
  -26.0880  -29.2440   20.7840 C   0  0  0  0  0  0  0  0  0  0  0  0
  -27.2380  -28.3330   20.7840 C   0  0  0  0  0  3  0  0  0  0  0  0
  -25.9810  -26.6850   19.5860 C   0  0  0  0  0  3  0  0  0  0  0  0
  -24.8690  -27.5660   19.5540 C   0  0  0  0  0  3  0  0  0  0  0  0
  -23.6810  -29.7480   20.2070 C   0  0  0  0  0  2  0  0  0  0  0  0
  -24.7250  -31.0150   22.1200 N   0  0  0  0  0  0  0  0  0  0  0  0
  -23.5540  -32.1480   23.7210 O   0  0  0  0  0  0  0  0  0  0  0  0
  -22.7570  -29.4580   22.5490 C   0  0  0  0  0  0  0  0  0  0  0  0
  -21.4260  -29.2940   22.4280 N   0  0  0  0  0  0  0  0  0  0  0  0
  -23.4230  -28.8380   23.3810 O   0  0  0  0  0  0  0  0  0  0  0  0
  -20.9420  -29.8440   21.7330 H   0  0  0  0  0  0  0  0  0  0  0  0
  -18.0450  -28.0840   22.9450 C   0  0  0  0  0  0  0  0  0  0  0  0
  -20.6040  -28.3610   23.2070 C   0  0  0  0  0  3  0  0  0  0  0  0
  -20.7100  -26.9240   22.6470 C   0  0  0  0  0  2  0  0  0  0  0  0
  -19.6100  -26.5880   21.6350 C   0  0  0  0  0  2  0  0  0  0  0  0
  -18.2270  -26.7310   22.2770 C   0  0  0  0  0  2  0  0  0  0  0  0
  -19.1600  -28.8560   23.3670 C   0  0  0  0  0  0  0  0  0  0  0  0
  -18.9330  -30.1200   23.9540 C   0  0  0  0  0  3  0  0  0  0  0  0
  -17.6250  -30.6130   24.1200 C   0  0  0  0  0  3  0  0  0  0  0  0
  -16.5260  -29.8400   23.7120 C   0  0  0  0  0  3  0  0  0  0  0  0
  -16.7360  -28.5770   23.1300 C   0  0  0  0  0  3  0  0  0  0  0  0
  -25.9140  -32.5040   23.8300 C   0  0  0  0  0  3  0  0  0  0  0  0
  -26.4240  -31.7450   25.1180 C   0  0  1  0  0  0  0  0  0  0  0  0
  -25.3260  -31.5190   26.1840 C   0  0  0  0  0  1  0  0  0  0  0  0
  -27.0090  -30.3630   24.7500 C   0  0  0  0  0  1  0  0  0  0  0  0
  -27.5720  -32.5460   25.7770 C   0  0  0  0  0  1  0  0  0  0  0  0
  -25.5920  -33.9030   24.1620 N   0  0  0  0  0  0  0  0  0  0  0  0
  -25.9210  -34.9650   23.4130 C   0  0  0  0  0  0  0  0  0  0  0  0
  -26.5890  -34.8700   22.3810 O   0  0  0  0  0  0  0  0  0  0  0  0
  -24.9980  -34.0500   24.9630 H   0  0  0  0  0  0  0  0  0  0  0  0
  -24.1870  -36.7630   23.0820 C   0  0  0  0  0  1  0  0  0  0  0  0
  -25.4350  -36.3530   23.8830 C   0  0  0  0  0  3  0  0  0  0  0  0
  -27.5710  -37.2410   24.7070 C   0  0  0  0  0  1  0  0  0  0  0  0
  -26.4640  -37.4090   23.7690 N   0  0  0  0  0  0  0  0  0  0  0  0
  -26.0570  -38.3270   23.9220 H   0  0  0  0  0  0  0  0  0  0  0  0
  1 45  1  0
  1  2  1  0
  2  4  1  0
  2  3  1  0
  5  6  2  0
  5  2  1  0
  7 15  1  0
  8 13  1  0
  9 10  1  0
  9  8  1  0
 11 10  1  0
 11 20  1  0
 11 12  1  0
 13  7  1  0
 13 12  1  0
 14  7  2  0
 15  6  1  0
 16 15  1  0
 17 18  2  0
 18 37  1  0
 19 18  1  0
 19 22  1  0
 20 17  1  0
 20 21  1  0
 21 19  2  0
 22 23  1  0
 23 24  2  0
 25 28  1  0
 25 24  1  0
 26 25  2  0
 27 26  1  0
 27 22  2  0
 28 29  1  0
 29 30  1  0
 30 31  2  0
 32 31  1  0
 32 36  1  0
 33 32  2  0
 34 29  2  0
 34 33  1  0
 35 34  1  0
 37 38  1  0
 38 41  1  0
 38 40  1  0
 39 37  2  0
 42 43  1  0
 42 17  1  0
 44 42  1  0
 46 48  1  0
 46 45  1  0
 47 58  2  0
 48 53  1  0
 49 57  1  0
 49 59  1  0
 50 56  1  0
 50 52  1  0
 51 57  1  0
 52 53  2  0
 52 51  1  0
 54 48  2  0
 55 54  1  0
 55 50  2  0
 56 49  1  0
 57 47  1  0
 59 61  2  0
 60 59  1  0
 62 60  1  0
 63 72  2  0
 63 68  1  0
 64 60  1  0
 64 68  1  0
 65 64  1  0
 66 67  1  0
 66 65  1  0
 67 63  1  0
 68 69  2  0
 69 70  1  0
 71 70  2  0
 72 71  1  0
 73 47  1  0
 73 78  1  0
 73 74  1  0
 74 77  1  1
 74 75  1  0
 76 74  1  0
 78 81  1  0
 79 83  1  0
 79 78  1  0
 80 79  2  0
 83 82  1  0
 85 83  1  0
 85 86  1  0
 85 84  1  0
M  ISO  4   7 100  15 100  45 101  46 101
M  END
>  <TORSDO>  (33) 
F 20

>  <SCORE>  (33) 
-16.364

>  <name>  (33) 
33

>  <ligand_id>  (33) 
33

>  <original_smiles>  (33) 
[H]c1c([H])c([H])c2c(c1[H])C([H])([H])C([H])([H])C([H])([H])C2([H])N([H])C(=O)C1([H])N(C(=O)C([H])(N([H])C(=O)C([H])(N([H])C([H])([H])[H])C([H])([H])[H])C(C([H])([H])[H])(C([H])([H])[H])C([H])([H])[H])C([H])([H])c2c([H])c(OC([H])([H])C([H])([H])[N+]([H])([H])C([H])([H])C([H])([H])N([H])C(=O)N3C([H])([H])C([H])([H])C([H])([H])C([H])(n4nc(-c5c([H])c([H])c(Oc6c([H])c([H])c(F)c([H])c6F)c([H])c5[H])c(C(=O)N([H])[H])c4N([H])[H])C3([H])[H])c([H])c([H])c2C1([H])[H]

>  <smiles>  (33) 
[H]c1c([H])c([H])c2c(c1[H])C([H])([H])C([H])([H])C([H])([H])C2([H])N([H])C(=O)C1([H])N(C(=O)C([H])(N([H])C(=O)C([H])(N([H])C([H])([H])[H])C([H])([H])[H])C(C([H])([H])[H])(C([H])([H])[H])C([H])([H])[H])C([H])([H])c2c([H])c(OC([H])([H])C([H])([H])[N+]([H])([H])C([H])([H])C([H])([H])N([H])C(=O)N3C([H])([H])C([H])([H])C([H])([H])C([H])(n4nc(-c5c([H])c([H])c(Oc6c([H])c([H])c(F)c([H])c6F)c([H])c5[H])c(C(=O)N([H])[H])c4N([H])[H])C3([H])[H])c([H])c([H])c2C1([H])[H]

$$$$
34:0:0
     RDKit          3D

 89 96  0  0  1  0  0  0  0  0999 V2000
  -28.8130  -21.6610   19.5890 C   0  0  0  0  0  2  0  0  0  0  0  0
  -29.8860  -20.5530   19.8820 C   0  0  0  0  0  2  0  0  0  0  0  0
  -29.5300  -19.4960   20.8900 N   0  0  0  0  0  4  0  0  0  0  0  0
  -30.2810  -19.4710   21.5610 H   0  0  0  0  0  0  0  0  0  0  0  0
  -28.7150  -19.7900   21.4050 H   0  0  0  0  0  0  0  0  0  0  0  0
  -29.3130  -18.0810   20.4250 C   0  0  0  0  0  2  0  0  0  0  0  0
  -30.2390  -17.0140   21.1170 C   0  0  0  0  0  2  0  0  0  0  0  0
  -30.6130  -14.5520   20.4810 C   0  0  0  0  0  0  0  0  0  0  0  0
  -30.3580  -12.3620   19.3560 C   0  0  0  0  0  2  0  0  0  0  0  0
  -29.4140  -12.5420   18.1480 C   0  0  0  0  0  2  0  0  0  0  0  0
  -27.9390  -12.3940   18.5770 C   0  0  0  0  0  2  0  0  0  0  0  0
  -27.5940  -13.2360   19.8340 C   0  0  0  0  0  3  0  0  0  0  0  0
  -28.6510  -13.0340   20.9430 C   0  0  0  0  0  2  0  0  0  0  0  0
  -29.9670  -13.3570   20.3680 N   0  0  0  0  0  0  0  0  0  0  0  0
  -31.7640  -14.7240   20.0740 O   0  0  0  0  0  0  0  0  0  0  0  0
  -29.8520  -15.5900   20.9100 N   0  0  0  0  0  0  0  0  0  0  0  0
  -28.9090  -15.3420   21.1720 H   0  0  0  0  0  0  0  0  0  0  0  0
  -25.1990  -13.8440   20.5450 C   0  0  0  0  0  0  0  0  0  0  0  0
  -24.1300  -13.0740   20.9160 C   0  0  0  0  0  0  0  0  0  0  0  0
  -24.5890  -11.7220   20.8870 C   0  0  0  0  0  0  0  0  0  0  0  0
  -26.2420  -12.9610   20.3150 N   0  0  0  0  0  0  0  0  0  0  0  0
  -25.8790  -11.6810   20.5790 N   0  0  0  0  0  0  0  0  0  0  0  0
  -23.8600  -10.4610   21.0790 C   0  0  0  0  0  0  0  0  0  0  0  0
  -24.3030   -9.4850   21.9980 C   0  0  0  0  0  3  0  0  0  0  0  0
  -23.5770   -8.2880   22.1760 C   0  0  0  0  0  3  0  0  0  0  0  0
  -22.3930   -8.0590   21.4350 C   0  0  0  0  0  0  0  0  0  0  0  0
  -21.9690   -9.0240   20.5050 C   0  0  0  0  0  3  0  0  0  0  0  0
  -22.6950  -10.2130   20.3240 C   0  0  0  0  0  3  0  0  0  0  0  0
  -21.6370   -6.9150   21.5240 O   0  0  0  0  0  0  0  0  0  0  0  0
  -21.6150   -6.1530   22.6650 C   0  0  0  0  0  0  0  0  0  0  0  0
  -21.2360   -6.6910   23.9120 C   0  0  0  0  0  3  0  0  0  0  0  0
  -21.1620   -5.8560   25.0460 C   0  0  0  0  0  3  0  0  0  0  0  0
  -21.4570   -4.4850   24.9320 C   0  0  0  0  0  0  0  0  0  0  0  0
  -21.8280   -3.9450   23.6870 C   0  0  0  0  0  3  0  0  0  0  0  0
  -21.9040   -4.7780   22.5560 C   0  0  0  0  0  0  0  0  0  0  0  0
  -22.2440   -4.2490   21.3560 F   0  0  0  0  0  0  0  0  0  0  0  0
  -21.3770   -3.6800   26.0180 F   0  0  0  0  0  0  0  0  0  0  0  0
  -22.7330  -13.5550   21.1860 C   0  0  0  0  0  0  0  0  0  0  0  0
  -22.0030  -12.8620   22.0540 N   0  0  0  0  0  0  0  0  0  0  0  0
  -22.2980  -14.5800   20.6630 O   0  0  0  0  0  0  0  0  0  0  0  0
  -22.3670  -12.0330   22.5000 H   0  0  0  0  0  0  0  0  0  0  0  0
  -21.0650  -13.1650   22.2740 H   0  0  0  0  0  0  0  0  0  0  0  0
  -25.3660  -15.2140   20.3600 N   0  0  0  0  0  0  0  0  0  0  0  0
  -24.5920  -15.8650   20.4430 H   0  0  0  0  0  0  0  0  0  0  0  0
  -26.2000  -15.6400   19.9780 H   0  0  0  0  0  0  0  0  0  0  0  0
  -28.9410  -22.8750   20.3710 O   0  0  0  0  0  0  0  0  0  0  0  0
  -28.4230  -24.0800   19.7430 C   0  0  0  0  0  2  0  0  0  0  0  0
  -28.3230  -25.3040   20.7150 C   0  0  0  0  0  2  0  0  0  0  0  0
  -28.3790  -26.6340   20.1300 O   0  0  0  0  0  0  0  0  0  0  0  0
  -24.5960  -31.8740   23.2320 C   0  0  0  0  0  0  0  0  0  0  0  0
  -27.2180  -27.3920   20.1530 C   0  0  0  0  0  0  0  0  0  0  0  0
  -23.3840  -30.4730   21.5940 C   0  0  0  0  0  3  0  0  0  0  0  0
  -24.8300  -28.9270   20.1660 C   0  0  0  0  0  0  0  0  0  0  0  0
  -25.9110  -30.8200   21.3880 C   0  0  0  0  0  2  0  0  0  0  0  0
  -25.9940  -29.4450   20.7480 C   0  0  0  0  0  0  0  0  0  0  0  0
  -27.1940  -28.6890   20.7300 C   0  0  0  0  0  3  0  0  0  0  0  0
  -26.0360  -26.8920   19.5700 C   0  0  0  0  0  3  0  0  0  0  0  0
  -24.8470  -27.6520   19.5730 C   0  0  0  0  0  3  0  0  0  0  0  0
  -23.5890  -29.7920   20.2140 C   0  0  0  0  0  2  0  0  0  0  0  0
  -24.6490  -31.0720   22.1290 N   0  0  0  0  0  0  0  0  0  0  0  0
  -23.5170  -32.1470   23.7770 O   0  0  0  0  0  0  0  0  0  0  0  0
  -22.7340  -29.4530   22.5580 C   0  0  0  0  0  0  0  0  0  0  0  0
  -21.4080  -29.2740   22.4380 N   0  0  0  0  0  0  0  0  0  0  0  0
  -23.4190  -28.8280   23.3720 O   0  0  0  0  0  0  0  0  0  0  0  0
  -20.9150  -29.8340   21.7560 H   0  0  0  0  0  0  0  0  0  0  0  0
  -18.0360  -28.0770   22.9430 C   0  0  0  0  0  0  0  0  0  0  0  0
  -20.5930  -28.3380   23.2120 C   0  0  0  0  0  3  0  0  0  0  0  0
  -20.6960  -26.9050   22.6380 C   0  0  0  0  0  2  0  0  0  0  0  0
  -19.5930  -26.5800   21.6260 C   0  0  0  0  0  2  0  0  0  0  0  0
  -18.2120  -26.7250   22.2710 C   0  0  0  0  0  2  0  0  0  0  0  0
  -19.1540  -28.8410   23.3710 C   0  0  0  0  0  0  0  0  0  0  0  0
  -18.9360  -30.1040   23.9600 C   0  0  0  0  0  3  0  0  0  0  0  0
  -17.6310  -30.6040   24.1270 C   0  0  0  0  0  3  0  0  0  0  0  0
  -16.5260  -29.8390   23.7160 C   0  0  0  0  0  3  0  0  0  0  0  0
  -16.7300  -28.5780   23.1270 C   0  0  0  0  0  3  0  0  0  0  0  0
  -25.8850  -32.5040   23.8470 C   0  0  0  0  0  3  0  0  0  0  0  0
  -25.5760  -33.9020   24.1810 N   0  0  0  0  0  0  0  0  0  0  0  0
  -25.9080  -34.9560   23.4240 C   0  0  0  0  0  0  0  0  0  0  0  0
  -26.5750  -34.8550   22.3900 O   0  0  0  0  0  0  0  0  0  0  0  0
  -24.9830  -34.0530   24.9820 H   0  0  0  0  0  0  0  0  0  0  0  0
  -24.1780  -36.7510   23.0790 C   0  0  0  0  0  1  0  0  0  0  0  0
  -25.4220  -36.3430   23.8860 C   0  0  0  0  0  3  0  0  0  0  0  0
  -27.5610  -37.2250   24.7090 C   0  0  0  0  0  1  0  0  0  0  0  0
  -26.4550  -37.3970   23.7720 N   0  0  0  0  0  0  0  0  0  0  0  0
  -26.0490  -38.3160   23.9250 H   0  0  0  0  0  0  0  0  0  0  0  0
  -26.4100  -31.7300   25.1180 C   0  0  1  0  0  0  0  0  0  0  0  0
  -25.3240  -31.4940   26.1940 C   0  0  0  0  0  1  0  0  0  0  0  0
  -26.9880  -30.3510   24.7190 C   0  0  0  0  0  1  0  0  0  0  0  0
  -27.5640  -32.5230   25.7750 C   0  0  0  0  0  1  0  0  0  0  0  0
  1  2  1  0
  1 46  1  0
  2  3  1  0
  3  5  1  0
  3  4  1  0
  6  3  1  0
  6  7  1  0
  8 16  1  0
  9 14  1  0
 10 11  1  0
 10  9  1  0
 12 11  1  0
 12 21  1  0
 12 13  1  0
 14  8  1  0
 14 13  1  0
 15  8  2  0
 16  7  1  0
 16 17  1  0
 18 19  2  0
 19 38  1  0
 20 19  1  0
 20 23  1  0
 21 18  1  0
 21 22  1  0
 22 20  2  0
 23 24  1  0
 24 25  2  0
 26 29  1  0
 26 25  1  0
 27 26  2  0
 28 27  1  0
 28 23  2  0
 29 30  1  0
 30 31  1  0
 31 32  2  0
 33 32  1  0
 33 37  1  0
 34 33  2  0
 35 30  2  0
 35 34  1  0
 36 35  1  0
 38 39  1  0
 39 42  1  0
 39 41  1  0
 40 38  2  0
 43 44  1  0
 43 18  1  0
 45 43  1  0
 47 46  1  0
 47 48  1  0
 49 51  1  0
 49 48  1  0
 50 61  2  0
 51 56  1  0
 52 60  1  0
 52 62  1  0
 53 59  1  0
 53 55  1  0
 54 60  1  0
 55 54  1  0
 56 55  2  0
 57 58  1  0
 57 51  2  0
 58 53  2  0
 59 52  1  0
 60 50  1  0
 62 64  2  0
 63 62  1  0
 65 63  1  0
 66 75  2  0
 66 71  1  0
 67 63  1  0
 67 71  1  0
 68 67  1  0
 69 70  1  0
 69 68  1  0
 70 66  1  0
 71 72  2  0
 72 73  1  0
 74 73  2  0
 75 74  1  0
 76 50  1  0
 76 77  1  0
 76 86  1  0
 77 80  1  0
 78 82  1  0
 78 77  1  0
 79 78  2  0
 82 81  1  0
 84 82  1  0
 84 85  1  0
 84 83  1  0
 86 89  1  1
 86 87  1  0
 88 86  1  0
M  ISO  4   8 100  16 100  48 101  49 101
M  END
>  <TORSDO>  (34) 
F 23

>  <SCORE>  (34) 
-12.718

>  <name>  (34) 
34

>  <ligand_id>  (34) 
34

>  <original_smiles>  (34) 
[H]c1c([H])c([H])c2c(c1[H])C([H])([H])C([H])([H])C([H])([H])C2([H])N([H])C(=O)C1([H])N(C(=O)C([H])(N([H])C(=O)C([H])(N([H])C([H])([H])[H])C([H])([H])[H])C(C([H])([H])[H])(C([H])([H])[H])C([H])([H])[H])C([H])([H])c2c([H])c(OC([H])([H])C([H])([H])OC([H])([H])C([H])([H])[N+]([H])([H])C([H])([H])C([H])([H])N([H])C(=O)N3C([H])([H])C([H])([H])C([H])([H])C([H])(n4nc(-c5c([H])c([H])c(Oc6c([H])c([H])c(F)c([H])c6F)c([H])c5[H])c(C(=O)N([H])[H])c4N([H])[H])C3([H])[H])c([H])c([H])c2C1([H])[H]

>  <smiles>  (34) 
[H]c1c([H])c([H])c2c(c1[H])C([H])([H])C([H])([H])C([H])([H])C2([H])N([H])C(=O)C1([H])N(C(=O)C([H])(N([H])C(=O)C([H])(N([H])C([H])([H])[H])C([H])([H])[H])C(C([H])([H])[H])(C([H])([H])[H])C([H])([H])[H])C([H])([H])c2c([H])c(OC([H])([H])C([H])([H])OC([H])([H])C([H])([H])[N+]([H])([H])C([H])([H])C([H])([H])N([H])C(=O)N3C([H])([H])C([H])([H])C([H])([H])C([H])(n4nc(-c5c([H])c([H])c(Oc6c([H])c([H])c(F)c([H])c6F)c([H])c5[H])c(C(=O)N([H])[H])c4N([H])[H])C3([H])[H])c([H])c([H])c2C1([H])[H]

$$$$
35:0:0
     RDKit          3D

 93100  0  0  1  0  0  0  0  0999 V2000
  -28.0590  -22.0590   21.3460 C   0  0  0  0  0  2  0  0  0  0  0  0
  -27.7950  -23.2110   20.4610 N   0  0  0  0  0  4  0  0  0  0  0  0
  -26.7990  -23.2380   20.2950 H   0  0  0  0  0  0  0  0  0  0  0  0
  -28.2330  -23.0360   19.5700 H   0  0  0  0  0  0  0  0  0  0  0  0
  -28.1980  -24.5470   20.9610 C   0  0  0  0  0  2  0  0  0  0  0  0
  -28.4780  -25.5030   19.7820 C   0  0  0  0  0  2  0  0  0  0  0  0
  -28.3800  -26.8710   20.1620 O   0  0  0  0  0  0  0  0  0  0  0  0
  -24.5640  -31.9480   23.2500 C   0  0  0  0  0  0  0  0  0  0  0  0
  -27.1650  -27.5220   20.1500 C   0  0  0  0  0  0  0  0  0  0  0  0
  -23.3300  -30.5540   21.6200 C   0  0  0  0  0  3  0  0  0  0  0  0
  -24.7610  -29.0130   20.1790 C   0  0  0  0  0  0  0  0  0  0  0  0
  -25.8480  -30.9210   21.3770 C   0  0  0  0  0  2  0  0  0  0  0  0
  -25.9230  -29.5450   20.7500 C   0  0  0  0  0  0  0  0  0  0  0  0
  -27.1260  -28.8070   20.7280 C   0  0  0  0  0  3  0  0  0  0  0  0
  -25.9790  -26.9940   19.5810 C   0  0  0  0  0  3  0  0  0  0  0  0
  -24.7830  -27.7370   19.5910 C   0  0  0  0  0  3  0  0  0  0  0  0
  -23.5170  -29.8670   20.2400 C   0  0  0  0  0  2  0  0  0  0  0  0
  -24.6020  -31.1540   22.1440 N   0  0  0  0  0  0  0  0  0  0  0  0
  -23.4910  -32.2240   23.8040 O   0  0  0  0  0  0  0  0  0  0  0  0
  -22.6870  -29.5370   22.5900 C   0  0  0  0  0  0  0  0  0  0  0  0
  -21.3630  -29.3490   22.4620 N   0  0  0  0  0  0  0  0  0  0  0  0
  -23.3750  -28.9190   23.4070 O   0  0  0  0  0  0  0  0  0  0  0  0
  -20.8760  -29.9000   21.7710 H   0  0  0  0  0  0  0  0  0  0  0  0
  -17.9990  -28.1180   22.9390 C   0  0  0  0  0  0  0  0  0  0  0  0
  -20.5490  -28.4130   23.2340 C   0  0  0  0  0  3  0  0  0  0  0  0
  -20.6780  -26.9770   22.6790 C   0  0  0  0  0  2  0  0  0  0  0  0
  -19.5900  -26.6210   21.6600 C   0  0  0  0  0  2  0  0  0  0  0  0
  -18.1980  -26.7620   22.2840 C   0  0  0  0  0  2  0  0  0  0  0  0
  -19.1050  -28.8990   23.3700 C   0  0  0  0  0  0  0  0  0  0  0  0
  -18.8660  -30.1670   23.9450 C   0  0  0  0  0  3  0  0  0  0  0  0
  -17.5560  -30.6570   24.0880 C   0  0  0  0  0  3  0  0  0  0  0  0
  -16.4630  -29.8760   23.6710 C   0  0  0  0  0  3  0  0  0  0  0  0
  -16.6850  -28.6070   23.1050 C   0  0  0  0  0  3  0  0  0  0  0  0
  -25.8580  -32.5700   23.8610 C   0  0  0  0  0  3  0  0  0  0  0  0
  -26.3880  -31.7890   25.1270 C   0  0  1  0  0  0  0  0  0  0  0  0
  -25.3020  -31.5410   26.2010 C   0  0  0  0  0  1  0  0  0  0  0  0
  -26.9680  -30.4160   24.7170 C   0  0  0  0  0  1  0  0  0  0  0  0
  -27.5550  -32.5700   25.7770 C   0  0  0  0  0  1  0  0  0  0  0  0
  -25.5590  -33.9690   24.1970 N   0  0  0  0  0  0  0  0  0  0  0  0
  -25.8990  -35.0200   23.4370 C   0  0  0  0  0  0  0  0  0  0  0  0
  -26.5680  -34.9130   22.4060 O   0  0  0  0  0  0  0  0  0  0  0  0
  -24.9550  -34.1220   24.9920 H   0  0  0  0  0  0  0  0  0  0  0  0
  -24.1850  -36.8260   23.0880 C   0  0  0  0  0  1  0  0  0  0  0  0
  -25.4240  -36.4110   23.8970 C   0  0  0  0  0  3  0  0  0  0  0  0
  -27.5710  -37.2720   24.7210 C   0  0  0  0  0  1  0  0  0  0  0  0
  -26.4670  -37.4540   23.7820 N   0  0  0  0  0  0  0  0  0  0  0  0
  -26.0730  -38.3800   23.9320 H   0  0  0  0  0  0  0  0  0  0  0  0
  -29.4980  -21.5030   21.2020 C   0  0  0  0  0  2  0  0  0  0  0  0
  -29.6070  -20.0640   21.7470 C   0  0  0  0  0  2  0  0  0  0  0  0
  -30.8430  -19.2560   21.2840 C   0  0  0  0  0  2  0  0  0  0  0  0
  -30.6760  -17.8230   21.6310 N   0  0  0  0  0  4  0  0  0  0  0  0
  -29.8250  -17.4850   21.2120 H   0  0  0  0  0  0  0  0  0  0  0  0
  -30.5800  -17.7480   22.6310 H   0  0  0  0  0  0  0  0  0  0  0  0
  -31.7730  -16.9280   21.2080 C   0  0  0  0  0  2  0  0  0  0  0  0
  -31.5670  -15.4850   21.7220 C   0  0  0  0  0  2  0  0  0  0  0  0
  -30.6150  -14.1150   19.8770 C   0  0  0  0  0  0  0  0  0  0  0  0
  -30.0860  -12.0360   18.6580 C   0  0  0  0  0  2  0  0  0  0  0  0
  -29.0290  -12.2010   17.5530 C   0  0  0  0  0  2  0  0  0  0  0  0
  -27.6120  -12.0520   18.1320 C   0  0  0  0  0  2  0  0  0  0  0  0
  -27.3910  -12.9450   19.3800 C   0  0  0  0  0  3  0  0  0  0  0  0
  -28.5410  -12.7720   20.3990 C   0  0  0  0  0  2  0  0  0  0  0  0
  -29.8230  -13.0230   19.7160 N   0  0  0  0  0  0  0  0  0  0  0  0
  -31.5090  -14.4280   19.0870 O   0  0  0  0  0  0  0  0  0  0  0  0
  -30.4900  -14.7360   21.0610 N   0  0  0  0  0  0  0  0  0  0  0  0
  -29.7330  -14.4090   21.6460 H   0  0  0  0  0  0  0  0  0  0  0  0
  -25.0680  -13.5850   20.2940 C   0  0  0  0  0  0  0  0  0  0  0  0
  -24.0350  -12.8270   20.7760 C   0  0  0  0  0  0  0  0  0  0  0  0
  -24.4850  -11.4730   20.7330 C   0  0  0  0  0  0  0  0  0  0  0  0
  -26.0840  -12.6920   19.9870 N   0  0  0  0  0  0  0  0  0  0  0  0
  -25.7400  -11.4190   20.3070 N   0  0  0  0  0  0  0  0  0  0  0  0
  -23.7760  -10.2190   21.0180 C   0  0  0  0  0  0  0  0  0  0  0  0
  -24.2760   -9.2830   21.9500 C   0  0  0  0  0  3  0  0  0  0  0  0
  -23.5650   -8.0930   22.2200 C   0  0  0  0  0  3  0  0  0  0  0  0
  -22.3410   -7.8310   21.5620 C   0  0  0  0  0  0  0  0  0  0  0  0
  -21.8580   -8.7560   20.6210 C   0  0  0  0  0  3  0  0  0  0  0  0
  -22.5680   -9.9390   20.3470 C   0  0  0  0  0  3  0  0  0  0  0  0
  -21.5960   -6.6910   21.7430 O   0  0  0  0  0  0  0  0  0  0  0  0
  -21.6240   -5.9930   22.9220 C   0  0  0  0  0  0  0  0  0  0  0  0
  -21.2960   -6.5980   24.1540 C   0  0  0  0  0  3  0  0  0  0  0  0
  -21.2700   -5.8270   25.3320 C   0  0  0  0  0  3  0  0  0  0  0  0
  -21.5620   -4.4490   25.2810 C   0  0  0  0  0  0  0  0  0  0  0  0
  -21.8860   -3.8440   24.0540 C   0  0  0  0  0  3  0  0  0  0  0  0
  -21.9120   -4.6140   22.8770 C   0  0  0  0  0  0  0  0  0  0  0  0
  -22.2050   -4.0200   21.6950 F   0  0  0  0  0  0  0  0  0  0  0  0
  -21.5300   -3.7060   26.4130 F   0  0  0  0  0  0  0  0  0  0  0  0
  -22.6730  -13.3200   21.1690 C   0  0  0  0  0  0  0  0  0  0  0  0
  -22.0280  -12.6490   22.1180 N   0  0  0  0  0  0  0  0  0  0  0  0
  -22.1890  -14.3330   20.6650 O   0  0  0  0  0  0  0  0  0  0  0  0
  -22.4340  -11.8280   22.5430 H   0  0  0  0  0  0  0  0  0  0  0  0
  -21.1190  -12.9620   22.4250 H   0  0  0  0  0  0  0  0  0  0  0  0
  -25.2230  -14.9500   20.0710 N   0  0  0  0  0  0  0  0  0  0  0  0
  -24.4780  -15.6170   20.2420 H   0  0  0  0  0  0  0  0  0  0  0  0
  -26.0480  -15.3730   19.6640 H   0  0  0  0  0  0  0  0  0  0  0  0
  2  5  1  0
  2  1  1  0
  3  2  1  0
  4  2  1  0
  6  7  1  0
  6  5  1  0
  8 19  2  0
  9  7  1  0
  9 14  1  0
 10 18  1  0
 10 20  1  0
 11 17  1  0
 11 13  1  0
 12 18  1  0
 13 12  1  0
 14 13  2  0
 15 16  1  0
 15  9  2  0
 16 11  2  0
 17 10  1  0
 18  8  1  0
 20 22  2  0
 21 20  1  0
 23 21  1  0
 24 33  2  0
 24 29  1  0
 25 21  1  0
 25 29  1  0
 26 25  1  0
 27 28  1  0
 27 26  1  0
 28 24  1  0
 29 30  2  0
 30 31  1  0
 32 31  2  0
 33 32  1  0
 34  8  1  0
 34 39  1  0
 34 35  1  0
 35 38  1  1
 35 36  1  0
 37 35  1  0
 39 42  1  0
 40 44  1  0
 40 39  1  0
 41 40  2  0
 44 43  1  0
 46 44  1  0
 46 47  1  0
 46 45  1  0
 48  1  1  0
 48 49  1  0
 50 51  1  0
 50 49  1  0
 51 53  1  0
 52 51  1  0
 54 51  1  0
 54 55  1  0
 56 64  1  0
 57 62  1  0
 58 59  1  0
 58 57  1  0
 60 59  1  0
 60 69  1  0
 60 61  1  0
 62 56  1  0
 62 61  1  0
 63 56  2  0
 64 65  1  0
 64 55  1  0
 66 67  2  0
 67 86  1  0
 68 67  1  0
 68 71  1  0
 69 66  1  0
 69 70  1  0
 70 68  2  0
 71 72  1  0
 72 73  2  0
 74 77  1  0
 74 73  1  0
 75 74  2  0
 76 75  1  0
 76 71  2  0
 77 78  1  0
 78 79  1  0
 79 80  2  0
 81 80  1  0
 81 85  1  0
 82 81  2  0
 83 78  2  0
 83 82  1  0
 84 83  1  0
 86 87  1  0
 87 90  1  0
 87 89  1  0
 88 86  2  0
 91 92  1  0
 91 66  1  0
 93 91  1  0
M  ISO  4   6 101   7 101  56 100  64 100
M  END
>  <TORSDO>  (35) 
F 25

>  <SCORE>  (35) 
-10.804

>  <name>  (35) 
35

>  <ligand_id>  (35) 
35

>  <original_smiles>  (35) 
[H]c1c([H])c([H])c2c(c1[H])C([H])([H])C([H])([H])C([H])([H])C2([H])N([H])C(=O)C1([H])N(C(=O)C([H])(N([H])C(=O)C([H])(N([H])C([H])([H])[H])C([H])([H])[H])C(C([H])([H])[H])(C([H])([H])[H])C([H])([H])[H])C([H])([H])c2c([H])c(OC([H])([H])C([H])([H])[N+]([H])([H])C([H])([H])C([H])([H])C([H])([H])C([H])([H])[N+]([H])([H])C([H])([H])C([H])([H])N([H])C(=O)N3C([H])([H])C([H])([H])C([H])([H])C([H])(n4nc(-c5c([H])c([H])c(Oc6c([H])c([H])c(F)c([H])c6F)c([H])c5[H])c(C(=O)N([H])[H])c4N([H])[H])C3([H])[H])c([H])c([H])c2C1([H])[H]

>  <smiles>  (35) 
[H]c1c([H])c([H])c2c(c1[H])C([H])([H])C([H])([H])C([H])([H])C2([H])N([H])C(=O)C1([H])N(C(=O)C([H])(N([H])C(=O)C([H])(N([H])C([H])([H])[H])C([H])([H])[H])C(C([H])([H])[H])(C([H])([H])[H])C([H])([H])[H])C([H])([H])c2c([H])c(OC([H])([H])C([H])([H])[N+]([H])([H])C([H])([H])C([H])([H])C([H])([H])C([H])([H])[N+]([H])([H])C([H])([H])C([H])([H])N([H])C(=O)N3C([H])([H])C([H])([H])C([H])([H])C([H])(n4nc(-c5c([H])c([H])c(Oc6c([H])c([H])c(F)c([H])c6F)c([H])c5[H])c(C(=O)N([H])[H])c4N([H])[H])C3([H])[H])c([H])c([H])c2C1([H])[H]

$$$$
36:0:0
     RDKit          3D

 94101  0  0  1  0  0  0  0  0999 V2000
  -29.6420  -20.9360   21.3980 C   0  0  0  0  0  2  0  0  0  0  0  0
  -30.6720  -19.9460   21.1280 N   0  0  0  0  0  0  0  0  0  0  0  0
  -31.5750  -20.4220   21.0650 H   0  0  0  0  0  0  0  0  0  0  0  0
  -30.7350  -18.9250   22.1710 C   0  0  0  0  0  2  0  0  0  0  0  0
  -31.8620  -17.9180   21.9090 C   0  0  0  0  0  2  0  0  0  0  0  0
  -31.8940  -16.8860   22.9590 N   0  0  0  0  0  4  0  0  0  0  0  0
  -32.0680  -17.3110   23.8560 H   0  0  0  0  0  0  0  0  0  0  0  0
  -30.9930  -16.4390   22.9960 H   0  0  0  0  0  0  0  0  0  0  0  0
  -32.8850  -15.8220   22.7330 C   0  0  0  0  0  2  0  0  0  0  0  0
  -32.2320  -14.4410   22.8820 C   0  0  0  0  0  2  0  0  0  0  0  0
  -30.8940  -14.1770   20.8090 C   0  0  0  0  0  0  0  0  0  0  0  0
  -30.3960  -12.2840   19.3380 C   0  0  0  0  0  2  0  0  0  0  0  0
  -29.4510  -12.5440   18.1610 C   0  0  0  0  0  2  0  0  0  0  0  0
  -27.9900  -12.3770   18.6060 C   0  0  0  0  0  2  0  0  0  0  0  0
  -27.6620  -13.2040   19.8750 C   0  0  0  0  0  3  0  0  0  0  0  0
  -28.7060  -12.9650   20.9880 C   0  0  0  0  0  2  0  0  0  0  0  0
  -30.0550  -13.1890   20.4400 N   0  0  0  0  0  0  0  0  0  0  0  0
  -31.7480  -14.6780   20.0730 O   0  0  0  0  0  0  0  0  0  0  0  0
  -30.9730  -14.2790   22.1430 N   0  0  0  0  0  0  0  0  0  0  0  0
  -30.2410  -13.7850   22.6350 H   0  0  0  0  0  0  0  0  0  0  0  0
  -25.2580  -13.8170   20.5690 C   0  0  0  0  0  0  0  0  0  0  0  0
  -24.1830  -13.0440   20.9180 C   0  0  0  0  0  0  0  0  0  0  0  0
  -24.6370  -11.6910   20.8720 C   0  0  0  0  0  0  0  0  0  0  0  0
  -26.3030  -12.9340   20.3400 N   0  0  0  0  0  0  0  0  0  0  0  0
  -25.9300  -11.6490   20.5780 N   0  0  0  0  0  0  0  0  0  0  0  0
  -23.9040  -10.4290   21.0390 C   0  0  0  0  0  0  0  0  0  0  0  0
  -24.3590   -9.4210   21.9180 C   0  0  0  0  0  3  0  0  0  0  0  0
  -23.6280   -8.2240   22.0750 C   0  0  0  0  0  3  0  0  0  0  0  0
  -22.4260   -8.0270   21.3540 C   0  0  0  0  0  0  0  0  0  0  0  0
  -21.9890   -9.0250   20.4640 C   0  0  0  0  0  3  0  0  0  0  0  0
  -22.7210  -10.2130   20.3050 C   0  0  0  0  0  3  0  0  0  0  0  0
  -21.6630   -6.8870   21.4240 O   0  0  0  0  0  0  0  0  0  0  0  0
  -21.6850   -6.0730   22.5280 C   0  0  0  0  0  0  0  0  0  0  0  0
  -21.4020   -6.5640   23.8220 C   0  0  0  0  0  3  0  0  0  0  0  0
  -21.3650   -5.6800   24.9180 C   0  0  0  0  0  3  0  0  0  0  0  0
  -21.6040   -4.3050   24.7230 C   0  0  0  0  0  0  0  0  0  0  0  0
  -21.8810   -3.8150   23.4350 C   0  0  0  0  0  3  0  0  0  0  0  0
  -21.9190   -4.6960   22.3410 C   0  0  0  0  0  0  0  0  0  0  0  0
  -22.1660   -4.2140   21.0980 F   0  0  0  0  0  0  0  0  0  0  0  0
  -21.5620   -3.4540   25.7740 F   0  0  0  0  0  0  0  0  0  0  0  0
  -22.7850  -13.5240   21.1850 C   0  0  0  0  0  0  0  0  0  0  0  0
  -22.0490  -12.8230   22.0400 N   0  0  0  0  0  0  0  0  0  0  0  0
  -22.3540  -14.5560   20.6720 O   0  0  0  0  0  0  0  0  0  0  0  0
  -22.4090  -11.9870   22.4770 H   0  0  0  0  0  0  0  0  0  0  0  0
  -21.1110  -13.1270   22.2610 H   0  0  0  0  0  0  0  0  0  0  0  0
  -25.4330  -15.1890   20.4080 N   0  0  0  0  0  0  0  0  0  0  0  0
  -24.6710  -15.8520   20.5120 H   0  0  0  0  0  0  0  0  0  0  0  0
  -26.2970  -15.6230   20.1070 H   0  0  0  0  0  0  0  0  0  0  0  0
  -29.7340  -22.1070   20.4180 C   0  0  0  0  0  2  0  0  0  0  0  0
  -28.9470  -23.2150   20.9310 N   0  0  0  0  0  0  0  0  0  0  0  0
  -29.2550  -23.4240   21.8820 H   0  0  0  0  0  0  0  0  0  0  0  0
  -29.0370  -24.4320   20.1290 C   0  0  0  0  0  2  0  0  0  0  0  0
  -28.3460  -25.5850   20.8610 C   0  0  0  0  0  2  0  0  0  0  0  0
  -28.3980  -26.7620   20.0660 O   0  0  0  0  0  0  0  0  0  0  0  0
  -24.6100  -31.8710   23.2130 C   0  0  0  0  0  0  0  0  0  0  0  0
  -27.2350  -27.4820   20.0830 C   0  0  0  0  0  0  0  0  0  0  0  0
  -23.3960  -30.4940   21.5530 C   0  0  0  0  0  3  0  0  0  0  0  0
  -24.8430  -28.9650   20.1160 C   0  0  0  0  0  0  0  0  0  0  0  0
  -25.9200  -30.8500   21.3590 C   0  0  0  0  0  2  0  0  0  0  0  0
  -26.0000  -29.4880   20.7070 C   0  0  0  0  0  0  0  0  0  0  0  0
  -27.2030  -28.7530   20.6880 C   0  0  0  0  0  3  0  0  0  0  0  0
  -26.0660  -26.9590   19.4930 C   0  0  0  0  0  3  0  0  0  0  0  0
  -24.8670  -27.6960   19.5090 C   0  0  0  0  0  3  0  0  0  0  0  0
  -23.6010  -29.8240   20.1680 C   0  0  0  0  0  2  0  0  0  0  0  0
  -24.6600  -31.0850   22.1010 N   0  0  0  0  0  0  0  0  0  0  0  0
  -23.5310  -32.1440   23.7560 O   0  0  0  0  0  0  0  0  0  0  0  0
  -22.7380  -29.4670   22.5010 C   0  0  0  0  0  0  0  0  0  0  0  0
  -21.4120  -29.3020   22.3750 N   0  0  0  0  0  0  0  0  0  0  0  0
  -23.4170  -28.8220   23.3040 O   0  0  0  0  0  0  0  0  0  0  0  0
  -20.9270  -29.8730   21.6960 H   0  0  0  0  0  0  0  0  0  0  0  0
  -18.0270  -28.1370   22.8500 C   0  0  0  0  0  0  0  0  0  0  0  0
  -20.5850  -28.3650   23.1340 C   0  0  0  0  0  3  0  0  0  0  0  0
  -20.6770  -26.9390   22.5420 C   0  0  0  0  0  2  0  0  0  0  0  0
  -19.5750  -26.6390   21.5210 C   0  0  0  0  0  2  0  0  0  0  0  0
  -18.1920  -26.7920   22.1620 C   0  0  0  0  0  2  0  0  0  0  0  0
  -19.1510  -28.8820   23.2920 C   0  0  0  0  0  0  0  0  0  0  0  0
  -18.9440  -30.1440   23.8920 C   0  0  0  0  0  3  0  0  0  0  0  0
  -17.6440  -30.6580   24.0560 C   0  0  0  0  0  3  0  0  0  0  0  0
  -16.5340  -29.9080   23.6320 C   0  0  0  0  0  3  0  0  0  0  0  0
  -16.7250  -28.6500   23.0340 C   0  0  0  0  0  3  0  0  0  0  0  0
  -25.9020  -32.4840   23.8410 C   0  0  0  0  0  3  0  0  0  0  0  0
  -26.4470  -31.6600   25.0720 C   0  0  1  0  0  0  0  0  0  0  0  0
  -25.3750  -31.3680   26.1480 C   0  0  0  0  0  1  0  0  0  0  0  0
  -27.0280  -30.3050   24.6050 C   0  0  0  0  0  1  0  0  0  0  0  0
  -27.6070  -32.4290   25.7470 C   0  0  0  0  0  1  0  0  0  0  0  0
  -25.5890  -33.8640   24.2350 N   0  0  0  0  0  0  0  0  0  0  0  0
  -25.9030  -34.9490   23.5140 C   0  0  0  0  0  0  0  0  0  0  0  0
  -26.5580  -34.8930   22.4690 O   0  0  0  0  0  0  0  0  0  0  0  0
  -25.0050  -33.9800   25.0510 H   0  0  0  0  0  0  0  0  0  0  0  0
  -24.1490  -36.7320   23.2640 C   0  0  0  0  0  1  0  0  0  0  0  0
  -25.4100  -36.3120   24.0340 C   0  0  0  0  0  3  0  0  0  0  0  0
  -27.5580  -37.1810   24.8460 C   0  0  0  0  0  1  0  0  0  0  0  0
  -26.4290  -37.3800   23.9400 N   0  0  0  0  0  0  0  0  0  0  0  0
  -26.0190  -38.2880   24.1420 H   0  0  0  0  0  0  0  0  0  0  0  0
  2  1  1  0
  2  4  1  0
  3  2  1  0
  5  4  1  0
  5  6  1  0
  6  8  1  0
  6  7  1  0
  9 10  1  0
  9  6  1  0
 11 19  1  0
 12 17  1  0
 13 14  1  0
 13 12  1  0
 15 14  1  0
 15 24  1  0
 15 16  1  0
 17 11  1  0
 17 16  1  0
 18 11  2  0
 19 20  1  0
 19 10  1  0
 21 22  2  0
 22 41  1  0
 23 22  1  0
 23 26  1  0
 24 21  1  0
 24 25  1  0
 25 23  2  0
 26 27  1  0
 27 28  2  0
 29 32  1  0
 29 28  1  0
 30 29  2  0
 31 30  1  0
 31 26  2  0
 32 33  1  0
 33 34  1  0
 34 35  2  0
 36 35  1  0
 36 40  1  0
 37 36  2  0
 38 33  2  0
 38 37  1  0
 39 38  1  0
 41 42  1  0
 42 45  1  0
 42 44  1  0
 43 41  2  0
 46 47  1  0
 46 21  1  0
 48 46  1  0
 49 50  1  0
 49  1  1  0
 50 51  1  0
 52 53  1  0
 52 50  1  0
 54 56  1  0
 54 53  1  0
 55 66  2  0
 56 61  1  0
 57 65  1  0
 57 67  1  0
 58 64  1  0
 58 60  1  0
 59 65  1  0
 60 59  1  0
 61 60  2  0
 62 63  1  0
 62 56  2  0
 63 58  2  0
 64 57  1  0
 65 55  1  0
 67 69  2  0
 68 67  1  0
 70 68  1  0
 71 80  2  0
 71 76  1  0
 72 68  1  0
 72 76  1  0
 73 72  1  0
 74 75  1  0
 74 73  1  0
 75 71  1  0
 76 77  2  0
 77 78  1  0
 79 78  2  0
 80 79  1  0
 81 55  1  0
 81 86  1  0
 81 82  1  0
 82 85  1  1
 82 83  1  0
 84 82  1  0
 86 89  1  0
 87 91  1  0
 87 86  1  0
 88 87  2  0
 91 90  1  0
 93 91  1  0
 93 94  1  0
 93 92  1  0
M  ISO  4  11 100  19 100  53 101  54 101
M  END
>  <TORSDO>  (36) 
F 26

>  <SCORE>  (36) 
-2.703

>  <name>  (36) 
36

>  <ligand_id>  (36) 
36

>  <original_smiles>  (36) 
[H]c1c([H])c([H])c2c(c1[H])C([H])([H])C([H])([H])C([H])([H])C2([H])N([H])C(=O)C1([H])N(C(=O)C([H])(N([H])C(=O)C([H])(N([H])C([H])([H])[H])C([H])([H])[H])C(C([H])([H])[H])(C([H])([H])[H])C([H])([H])[H])C([H])([H])c2c([H])c(OC([H])([H])C([H])([H])N([H])C([H])([H])C([H])([H])N([H])C([H])([H])C([H])([H])[N+]([H])([H])C([H])([H])C([H])([H])N([H])C(=O)N3C([H])([H])C([H])([H])C([H])([H])C([H])(n4nc(-c5c([H])c([H])c(Oc6c([H])c([H])c(F)c([H])c6F)c([H])c5[H])c(C(=O)N([H])[H])c4N([H])[H])C3([H])[H])c([H])c([H])c2C1([H])[H]

>  <smiles>  (36) 
[H]c1c([H])c([H])c2c(c1[H])C([H])([H])C([H])([H])C([H])([H])C2([H])N([H])C(=O)C1([H])N(C(=O)C([H])(N([H])C(=O)C([H])(N([H])C([H])([H])[H])C([H])([H])[H])C(C([H])([H])[H])(C([H])([H])[H])C([H])([H])[H])C([H])([H])c2c([H])c(OC([H])([H])C([H])([H])N([H])C([H])([H])C([H])([H])N([H])C([H])([H])C([H])([H])[N+]([H])([H])C([H])([H])C([H])([H])N([H])C(=O)N3C([H])([H])C([H])([H])C([H])([H])C([H])(n4nc(-c5c([H])c([H])c(Oc6c([H])c([H])c(F)c([H])c6F)c([H])c5[H])c(C(=O)N([H])[H])c4N([H])[H])C3([H])[H])c([H])c([H])c2C1([H])[H]

$$$$
37:0:0
     RDKit          3D

 95102  0  0  1  0  0  0  0  0999 V2000
  -27.4440  -20.7330   20.0340 C   0  0  0  0  0  2  0  0  0  0  0  0
  -27.6330  -22.0890   19.3500 C   0  0  0  0  0  0  0  0  0  0  0  0
  -28.0160  -23.1160   20.1120 N   0  0  0  0  0  0  0  0  0  0  0  0
  -27.5060  -22.1700   18.1280 O   0  0  0  0  0  0  0  0  0  0  0  0
  -28.1410  -22.9680   21.1050 H   0  0  0  0  0  0  0  0  0  0  0  0
  -28.2810  -24.4450   19.5870 C   0  0  0  0  0  2  0  0  0  0  0  0
  -28.2640  -25.4930   20.7050 C   0  0  0  0  0  2  0  0  0  0  0  0
  -28.3870  -26.7890   20.1330 O   0  0  0  0  0  0  0  0  0  0  0  0
  -24.5970  -31.8830   23.2340 C   0  0  0  0  0  0  0  0  0  0  0  0
  -27.2150  -27.4990   20.1040 C   0  0  0  0  0  0  0  0  0  0  0  0
  -23.3750  -30.4940   21.5920 C   0  0  0  0  0  3  0  0  0  0  0  0
  -24.8180  -28.9780   20.1400 C   0  0  0  0  0  0  0  0  0  0  0  0
  -25.9000  -30.8590   21.3820 C   0  0  0  0  0  2  0  0  0  0  0  0
  -25.9800  -29.5040   20.7200 C   0  0  0  0  0  0  0  0  0  0  0  0
  -27.1830  -28.7750   20.6970 C   0  0  0  0  0  3  0  0  0  0  0  0
  -26.0390  -26.9780   19.5170 C   0  0  0  0  0  3  0  0  0  0  0  0
  -24.8410  -27.7120   19.5350 C   0  0  0  0  0  3  0  0  0  0  0  0
  -23.5750  -29.8330   20.2010 C   0  0  0  0  0  2  0  0  0  0  0  0
  -24.6420  -31.0910   22.1260 N   0  0  0  0  0  0  0  0  0  0  0  0
  -23.5230  -32.1480   23.7890 O   0  0  0  0  0  0  0  0  0  0  0  0
  -22.7390  -29.4540   22.5440 C   0  0  0  0  0  0  0  0  0  0  0  0
  -21.4130  -29.2770   22.4340 N   0  0  0  0  0  0  0  0  0  0  0  0
  -23.4340  -28.8170   23.3390 O   0  0  0  0  0  0  0  0  0  0  0  0
  -20.9160  -29.8520   21.7680 H   0  0  0  0  0  0  0  0  0  0  0  0
  -18.0380  -28.0920   22.9500 C   0  0  0  0  0  0  0  0  0  0  0  0
  -20.5980  -28.3370   23.2020 C   0  0  0  0  0  3  0  0  0  0  0  0
  -20.6900  -26.9080   22.6150 C   0  0  0  0  0  2  0  0  0  0  0  0
  -19.5780  -26.5980   21.6080 C   0  0  0  0  0  2  0  0  0  0  0  0
  -18.2010  -26.7450   22.2650 C   0  0  0  0  0  2  0  0  0  0  0  0
  -19.1640  -28.8470   23.3730 C   0  0  0  0  0  0  0  0  0  0  0  0
  -18.9540  -30.1090   23.9690 C   0  0  0  0  0  3  0  0  0  0  0  0
  -17.6530  -30.6170   24.1440 C   0  0  0  0  0  3  0  0  0  0  0  0
  -16.5430  -29.8570   23.7420 C   0  0  0  0  0  3  0  0  0  0  0  0
  -16.7350  -28.5950   23.1530 C   0  0  0  0  0  3  0  0  0  0  0  0
  -25.8920  -32.5110   23.8400 C   0  0  0  0  0  3  0  0  0  0  0  0
  -26.4370  -31.7310   25.1010 C   0  0  1  0  0  0  0  0  0  0  0  0
  -25.3670  -31.4700   26.1870 C   0  0  0  0  0  1  0  0  0  0  0  0
  -27.0270  -30.3630   24.6820 C   0  0  0  0  0  1  0  0  0  0  0  0
  -27.5940  -32.5270   25.7490 C   0  0  0  0  0  1  0  0  0  0  0  0
  -25.5890  -33.9060   24.1830 N   0  0  0  0  0  0  0  0  0  0  0  0
  -25.9050  -34.9600   23.4190 C   0  0  0  0  0  0  0  0  0  0  0  0
  -26.5560  -34.8640   22.3750 O   0  0  0  0  0  0  0  0  0  0  0  0
  -25.0340  -34.0590   25.0120 H   0  0  0  0  0  0  0  0  0  0  0  0
  -24.1620  -36.7390   23.0840 C   0  0  0  0  0  1  0  0  0  0  0  0
  -25.4140  -36.3430   23.8850 C   0  0  0  0  0  3  0  0  0  0  0  0
  -27.5540  -37.2230   24.6990 C   0  0  0  0  0  1  0  0  0  0  0  0
  -26.4400  -37.4020   23.7710 N   0  0  0  0  0  0  0  0  0  0  0  0
  -26.0310  -38.3150   23.9430 H   0  0  0  0  0  0  0  0  0  0  0  0
  -28.5640  -19.8000   19.7720 N   0  0  0  0  0  0  0  0  0  0  0  0
  -28.6490  -19.6520   18.7670 H   0  0  0  0  0  0  0  0  0  0  0  0
  -29.8370  -20.3230   20.2690 C   0  0  0  0  0  2  0  0  0  0  0  0
  -30.9450  -19.2670   20.1890 C   0  0  0  0  0  2  0  0  0  0  0  0
  -30.5700  -18.0390   20.9140 N   0  0  0  0  0  4  0  0  0  0  0  0
  -30.1270  -18.3030   21.7770 H   0  0  0  0  0  0  0  0  0  0  0  0
  -29.8790  -17.5510   20.3660 H   0  0  0  0  0  0  0  0  0  0  0  0
  -31.7160  -17.1580   21.2040 C   0  0  0  0  0  2  0  0  0  0  0  0
  -31.3100  -15.8960   21.9890 C   0  0  0  0  0  2  0  0  0  0  0  0
  -30.7200  -14.2650   20.2120 C   0  0  0  0  0  0  0  0  0  0  0  0
  -30.2380  -12.2440   18.8870 C   0  0  0  0  0  2  0  0  0  0  0  0
  -29.2180  -12.4790   17.7600 C   0  0  0  0  0  2  0  0  0  0  0  0
  -27.7760  -12.3590   18.2830 C   0  0  0  0  0  2  0  0  0  0  0  0
  -27.5330  -13.1720   19.5820 C   0  0  0  0  0  3  0  0  0  0  0  0
  -28.6420  -12.8880   20.6170 C   0  0  0  0  0  2  0  0  0  0  0  0
  -29.9430  -13.1750   19.9890 N   0  0  0  0  0  0  0  0  0  0  0  0
  -31.7130  -14.5360   19.5370 O   0  0  0  0  0  0  0  0  0  0  0  0
  -30.3870  -15.0060   21.2770 N   0  0  0  0  0  0  0  0  0  0  0  0
  -29.5230  -14.7730   21.7420 H   0  0  0  0  0  0  0  0  0  0  0  0
  -25.1730  -13.8030   20.3990 C   0  0  0  0  0  0  0  0  0  0  0  0
  -24.1150  -13.0430   20.8190 C   0  0  0  0  0  0  0  0  0  0  0  0
  -24.5610  -11.6850   20.7720 C   0  0  0  0  0  0  0  0  0  0  0  0
  -26.2000  -12.9130   20.1230 N   0  0  0  0  0  0  0  0  0  0  0  0
  -25.8360  -11.6360   20.4040 N   0  0  0  0  0  0  0  0  0  0  0  0
  -23.8340  -10.4310   21.0010 C   0  0  0  0  0  0  0  0  0  0  0  0
  -24.3030   -9.4610   21.9150 C   0  0  0  0  0  3  0  0  0  0  0  0
  -23.5770   -8.2720   22.1330 C   0  0  0  0  0  3  0  0  0  0  0  0
  -22.3670   -8.0400   21.4360 C   0  0  0  0  0  0  0  0  0  0  0  0
  -21.9160   -8.9990   20.5090 C   0  0  0  0  0  3  0  0  0  0  0  0
  -22.6430  -10.1790   20.2900 C   0  0  0  0  0  3  0  0  0  0  0  0
  -21.6080   -6.9020   21.5630 O   0  0  0  0  0  0  0  0  0  0  0  0
  -21.6140   -6.1580   22.7170 C   0  0  0  0  0  0  0  0  0  0  0  0
  -21.2750   -6.7200   23.9660 C   0  0  0  0  0  3  0  0  0  0  0  0
  -21.2260   -5.9050   25.1160 C   0  0  0  0  0  3  0  0  0  0  0  0
  -21.5100   -4.5300   25.0150 C   0  0  0  0  0  0  0  0  0  0  0  0
  -21.8420   -3.9670   23.7710 C   0  0  0  0  0  3  0  0  0  0  0  0
  -21.8930   -4.7800   22.6240 C   0  0  0  0  0  0  0  0  0  0  0  0
  -22.1930   -4.2290   21.4230 F   0  0  0  0  0  0  0  0  0  0  0  0
  -21.4560   -3.7440   26.1170 F   0  0  0  0  0  0  0  0  0  0  0  0
  -22.7350  -13.5330   21.1550 C   0  0  0  0  0  0  0  0  0  0  0  0
  -22.0420  -12.8470   22.0580 N   0  0  0  0  0  0  0  0  0  0  0  0
  -22.2820  -14.5610   20.6520 O   0  0  0  0  0  0  0  0  0  0  0  0
  -22.4210  -12.0170   22.4880 H   0  0  0  0  0  0  0  0  0  0  0  0
  -21.1200  -13.1610   22.3230 H   0  0  0  0  0  0  0  0  0  0  0  0
  -25.3420  -15.1730   20.2090 N   0  0  0  0  0  0  0  0  0  0  0  0
  -24.5990  -15.8430   20.3790 H   0  0  0  0  0  0  0  0  0  0  0  0
  -26.1880  -15.6010   19.8540 H   0  0  0  0  0  0  0  0  0  0  0  0
  2  1  1  0
  2  3  1  0
  3  5  1  0
  4  2  2  0
  6  3  1  0
  6  7  1  0
  8  7  1  0
  9 20  2  0
 10  8  1  0
 10 15  1  0
 11 19  1  0
 11 21  1  0
 12 18  1  0
 12 14  1  0
 13 19  1  0
 14 13  1  0
 15 14  2  0
 16 17  1  0
 16 10  2  0
 17 12  2  0
 18 11  1  0
 19  9  1  0
 21 23  2  0
 22 21  1  0
 24 22  1  0
 25 34  2  0
 25 30  1  0
 26 22  1  0
 26 30  1  0
 27 26  1  0
 28 29  1  0
 28 27  1  0
 29 25  1  0
 30 31  2  0
 31 32  1  0
 33 32  2  0
 34 33  1  0
 35  9  1  0
 35 40  1  0
 35 36  1  0
 36 39  1  1
 36 37  1  0
 38 36  1  0
 40 43  1  0
 41 45  1  0
 41 40  1  0
 42 41  2  0
 45 44  1  0
 47 45  1  0
 47 48  1  0
 47 46  1  0
 49  1  1  0
 49 51  1  0
 50 49  1  0
 52 51  1  0
 52 53  1  0
 53 56  1  0
 53 54  1  0
 55 53  1  0
 56 57  1  0
 58 66  1  0
 59 64  1  0
 60 61  1  0
 60 59  1  0
 62 61  1  0
 62 71  1  0
 62 63  1  0
 64 58  1  0
 64 63  1  0
 65 58  2  0
 66 67  1  0
 66 57  1  0
 68 69  2  0
 69 88  1  0
 70 69  1  0
 70 73  1  0
 71 68  1  0
 71 72  1  0
 72 70  2  0
 73 74  1  0
 74 75  2  0
 76 79  1  0
 76 75  1  0
 77 76  2  0
 78 77  1  0
 78 73  2  0
 79 80  1  0
 80 81  1  0
 81 82  2  0
 83 82  1  0
 83 87  1  0
 84 83  2  0
 85 80  2  0
 85 84  1  0
 86 85  1  0
 88 89  1  0
 89 92  1  0
 89 91  1  0
 90 88  2  0
 93 94  1  0
 93 68  1  0
 95 93  1  0
M  ISO  4   7 101   8 101  58 100  66 100
M  END
>  <TORSDO>  (37) 
F 25

>  <SCORE>  (37) 
-11.603

>  <name>  (37) 
37

>  <ligand_id>  (37) 
37

>  <original_smiles>  (37) 
[H]c1c([H])c([H])c2c(c1[H])C([H])([H])C([H])([H])C([H])([H])C2([H])N([H])C(=O)C1([H])N(C(=O)C([H])(N([H])C(=O)C([H])(N([H])C([H])([H])[H])C([H])([H])[H])C(C([H])([H])[H])(C([H])([H])[H])C([H])([H])[H])C([H])([H])c2c([H])c(OC([H])([H])C([H])([H])N([H])C(=O)C([H])([H])N([H])C([H])([H])C([H])([H])[N+]([H])([H])C([H])([H])C([H])([H])N([H])C(=O)N3C([H])([H])C([H])([H])C([H])([H])C([H])(n4nc(-c5c([H])c([H])c(Oc6c([H])c([H])c(F)c([H])c6F)c([H])c5[H])c(C(=O)N([H])[H])c4N([H])[H])C3([H])[H])c([H])c([H])c2C1([H])[H]

>  <smiles>  (37) 
[H]c1c([H])c([H])c2c(c1[H])C([H])([H])C([H])([H])C([H])([H])C2([H])N([H])C(=O)C1([H])N(C(=O)C([H])(N([H])C(=O)C([H])(N([H])C([H])([H])[H])C([H])([H])[H])C(C([H])([H])[H])(C([H])([H])[H])C([H])([H])[H])C([H])([H])c2c([H])c(OC([H])([H])C([H])([H])N([H])C(=O)C([H])([H])N([H])C([H])([H])C([H])([H])[N+]([H])([H])C([H])([H])C([H])([H])N([H])C(=O)N3C([H])([H])C([H])([H])C([H])([H])C([H])(n4nc(-c5c([H])c([H])c(Oc6c([H])c([H])c(F)c([H])c6F)c([H])c5[H])c(C(=O)N([H])[H])c4N([H])[H])C3([H])[H])c([H])c([H])c2C1([H])[H]

$$$$
38:0:0
     RDKit          3D

 90 97  0  0  1  0  0  0  0  0999 V2000
  -28.7340  -21.8750   20.1860 C   0  0  0  0  0  0  0  0  0  0  0  0
  -29.0090  -23.1550   19.9050 N   0  0  0  0  0  0  0  0  0  0  0  0
  -27.6940  -21.5380   20.7560 O   0  0  0  0  0  0  0  0  0  0  0  0
  -29.8810  -23.3430   19.4280 H   0  0  0  0  0  0  0  0  0  0  0  0
  -30.0600  -19.7280   20.1430 C   0  0  0  0  0  3  0  0  0  0  0  0
  -29.7910  -20.9850   19.7090 C   0  0  0  0  0  3  0  0  0  0  0  0
  -29.3740  -18.9670   21.1890 C   0  0  0  0  0  3  0  0  0  0  0  0
  -29.6480  -17.6990   21.5740 C   0  0  0  0  0  3  0  0  0  0  0  0
  -30.7110  -16.7500   21.0290 C   0  0  0  0  0  2  0  0  0  0  0  0
  -30.8010  -14.4190   20.1530 C   0  0  0  0  0  0  0  0  0  0  0  0
  -30.4080  -12.3080   18.9470 C   0  0  0  0  0  2  0  0  0  0  0  0
  -29.4130  -12.5590   17.7960 C   0  0  0  0  0  2  0  0  0  0  0  0
  -27.9600  -12.4170   18.2890 C   0  0  0  0  0  2  0  0  0  0  0  0
  -27.6890  -13.2410   19.5770 C   0  0  0  0  0  3  0  0  0  0  0  0
  -28.7870  -12.9710   20.6310 C   0  0  0  0  0  2  0  0  0  0  0  0
  -30.0950  -13.2630   20.0170 N   0  0  0  0  0  0  0  0  0  0  0  0
  -31.8720  -14.6280   19.5780 O   0  0  0  0  0  0  0  0  0  0  0  0
  -30.2050  -15.3800   20.8760 N   0  0  0  0  0  0  0  0  0  0  0  0
  -29.3350  -15.1460   21.3310 H   0  0  0  0  0  0  0  0  0  0  0  0
  -25.3200  -13.8650   20.3750 C   0  0  0  0  0  0  0  0  0  0  0  0
  -24.2660  -13.1000   20.7940 C   0  0  0  0  0  0  0  0  0  0  0  0
  -24.7210  -11.7450   20.7560 C   0  0  0  0  0  0  0  0  0  0  0  0
  -26.3520  -12.9780   20.1090 N   0  0  0  0  0  0  0  0  0  0  0  0
  -25.9970  -11.6990   20.3930 N   0  0  0  0  0  0  0  0  0  0  0  0
  -24.0000  -10.4870   20.9840 C   0  0  0  0  0  0  0  0  0  0  0  0
  -24.4570   -9.5280   21.9170 C   0  0  0  0  0  3  0  0  0  0  0  0
  -23.7330   -8.3350   22.1280 C   0  0  0  0  0  3  0  0  0  0  0  0
  -22.5390   -8.0910   21.4060 C   0  0  0  0  0  0  0  0  0  0  0  0
  -22.1060   -9.0360   20.4590 C   0  0  0  0  0  3  0  0  0  0  0  0
  -22.8320  -10.2200   20.2440 C   0  0  0  0  0  3  0  0  0  0  0  0
  -21.7830   -6.9500   21.5300 O   0  0  0  0  0  0  0  0  0  0  0  0
  -21.7450   -6.2360   22.7020 C   0  0  0  0  0  0  0  0  0  0  0  0
  -21.3320   -6.8210   23.9180 C   0  0  0  0  0  3  0  0  0  0  0  0
  -21.2360   -6.0320   25.0820 C   0  0  0  0  0  3  0  0  0  0  0  0
  -21.5440   -4.6600   25.0320 C   0  0  0  0  0  0  0  0  0  0  0  0
  -21.9540   -4.0750   23.8210 C   0  0  0  0  0  3  0  0  0  0  0  0
  -22.0500   -4.8600   22.6580 C   0  0  0  0  0  0  0  0  0  0  0  0
  -22.4210   -4.2850   21.4900 F   0  0  0  0  0  0  0  0  0  0  0  0
  -21.4480   -3.9020   26.1490 F   0  0  0  0  0  0  0  0  0  0  0  0
  -22.8830  -13.5830   21.1250 C   0  0  0  0  0  0  0  0  0  0  0  0
  -22.1920  -12.8980   22.0280 N   0  0  0  0  0  0  0  0  0  0  0  0
  -22.4270  -14.6060   20.6150 O   0  0  0  0  0  0  0  0  0  0  0  0
  -22.5730  -12.0710   22.4630 H   0  0  0  0  0  0  0  0  0  0  0  0
  -21.2680  -13.2080   22.2920 H   0  0  0  0  0  0  0  0  0  0  0  0
  -25.4830  -15.2340   20.1760 N   0  0  0  0  0  0  0  0  0  0  0  0
  -24.7230  -15.8980   20.2820 H   0  0  0  0  0  0  0  0  0  0  0  0
  -26.3180  -15.6570   19.7930 H   0  0  0  0  0  0  0  0  0  0  0  0
  -28.2220  -24.3300   20.2950 C   0  0  0  0  0  2  0  0  0  0  0  0
  -28.5820  -25.5650   19.4340 C   0  0  0  0  0  2  0  0  0  0  0  0
  -28.4200  -26.7980   20.1400 O   0  0  0  0  0  0  0  0  0  0  0  0
  -24.5850  -31.8910   23.2710 C   0  0  0  0  0  0  0  0  0  0  0  0
  -27.2120  -27.4630   20.1520 C   0  0  0  0  0  0  0  0  0  0  0  0
  -23.3640  -30.4970   21.6330 C   0  0  0  0  0  3  0  0  0  0  0  0
  -24.8060  -28.9570   20.1990 C   0  0  0  0  0  0  0  0  0  0  0  0
  -25.8890  -30.8510   21.4230 C   0  0  0  0  0  2  0  0  0  0  0  0
  -25.9670  -29.4810   20.7790 C   0  0  0  0  0  0  0  0  0  0  0  0
  -27.1670  -28.7390   20.7590 C   0  0  0  0  0  3  0  0  0  0  0  0
  -26.0260  -26.9410   19.5830 C   0  0  0  0  0  3  0  0  0  0  0  0
  -24.8290  -27.6830   19.6060 C   0  0  0  0  0  3  0  0  0  0  0  0
  -23.5650  -29.8210   20.2500 C   0  0  0  0  0  2  0  0  0  0  0  0
  -24.6300  -31.0960   22.1660 N   0  0  0  0  0  0  0  0  0  0  0  0
  -23.5090  -32.1610   23.8230 O   0  0  0  0  0  0  0  0  0  0  0  0
  -22.7220  -29.4720   22.5940 C   0  0  0  0  0  0  0  0  0  0  0  0
  -21.3980  -29.2850   22.4650 N   0  0  0  0  0  0  0  0  0  0  0  0
  -23.4080  -28.8470   23.4060 O   0  0  0  0  0  0  0  0  0  0  0  0
  -20.9060  -29.8400   21.7800 H   0  0  0  0  0  0  0  0  0  0  0  0
  -18.0280  -28.0760   22.9480 C   0  0  0  0  0  0  0  0  0  0  0  0
  -20.5840  -28.3460   23.2350 C   0  0  0  0  0  3  0  0  0  0  0  0
  -20.6980  -26.9130   22.6660 C   0  0  0  0  0  2  0  0  0  0  0  0
  -19.6030  -26.5810   21.6480 C   0  0  0  0  0  2  0  0  0  0  0  0
  -18.2150  -26.7240   22.2820 C   0  0  0  0  0  2  0  0  0  0  0  0
  -19.1420  -28.8450   23.3810 C   0  0  0  0  0  0  0  0  0  0  0  0
  -18.9130  -30.1130   23.9590 C   0  0  0  0  0  3  0  0  0  0  0  0
  -17.6060  -30.6100   24.1120 C   0  0  0  0  0  3  0  0  0  0  0  0
  -16.5070  -29.8370   23.6990 C   0  0  0  0  0  3  0  0  0  0  0  0
  -16.7190  -28.5730   23.1200 C   0  0  0  0  0  3  0  0  0  0  0  0
  -25.8790  -32.5170   23.8810 C   0  0  0  0  0  3  0  0  0  0  0  0
  -25.5810  -33.9160   24.2100 N   0  0  0  0  0  0  0  0  0  0  0  0
  -25.9180  -34.9660   23.4480 C   0  0  0  0  0  0  0  0  0  0  0  0
  -26.5860  -34.8580   22.4170 O   0  0  0  0  0  0  0  0  0  0  0  0
  -24.9920  -34.0760   25.0140 H   0  0  0  0  0  0  0  0  0  0  0  0
  -24.1980  -36.7650   23.0890 C   0  0  0  0  0  1  0  0  0  0  0  0
  -25.4350  -36.3550   23.9040 C   0  0  0  0  0  3  0  0  0  0  0  0
  -27.5690  -37.2280   24.7430 C   0  0  0  0  0  1  0  0  0  0  0  0
  -26.4700  -37.4040   23.7970 N   0  0  0  0  0  0  0  0  0  0  0  0
  -26.0660  -38.3240   23.9510 H   0  0  0  0  0  0  0  0  0  0  0  0
  -26.4020  -31.7450   25.1540 C   0  0  1  0  0  0  0  0  0  0  0  0
  -25.3180  -31.5100   26.2310 C   0  0  0  0  0  1  0  0  0  0  0  0
  -26.9770  -30.3660   24.7550 C   0  0  0  0  0  1  0  0  0  0  0  0
  -27.5590  -32.5360   25.8100 C   0  0  0  0  0  1  0  0  0  0  0  0
  1  3  2  0
  2  1  1  0
  2 48  1  0
  4  2  1  0
  5  7  1  0
  6  5  2  0
  6  1  1  0
  7  8  2  0
  9  8  1  0
 10 18  1  0
 11 16  1  0
 12 13  1  0
 12 11  1  0
 14 13  1  0
 14 23  1  0
 14 15  1  0
 16 10  1  0
 16 15  1  0
 17 10  2  0
 18  9  1  0
 18 19  1  0
 20 21  2  0
 21 40  1  0
 22 21  1  0
 22 25  1  0
 23 20  1  0
 23 24  1  0
 24 22  2  0
 25 26  1  0
 26 27  2  0
 28 31  1  0
 28 27  1  0
 29 28  2  0
 30 29  1  0
 30 25  2  0
 31 32  1  0
 32 33  1  0
 33 34  2  0
 35 34  1  0
 35 39  1  0
 36 35  2  0
 37 32  2  0
 37 36  1  0
 38 37  1  0
 40 41  1  0
 41 44  1  0
 41 43  1  0
 42 40  2  0
 45 46  1  0
 45 20  1  0
 47 45  1  0
 49 50  1  0
 49 48  1  0
 50 52  1  0
 51 62  2  0
 52 57  1  0
 53 61  1  0
 53 63  1  0
 54 60  1  0
 54 56  1  0
 55 61  1  0
 56 55  1  0
 57 56  2  0
 58 59  1  0
 58 52  2  0
 59 54  2  0
 60 53  1  0
 61 51  1  0
 63 65  2  0
 64 63  1  0
 66 64  1  0
 67 76  2  0
 67 72  1  0
 68 64  1  0
 68 72  1  0
 69 68  1  0
 70 71  1  0
 70 69  1  0
 71 67  1  0
 72 73  2  0
 73 74  1  0
 75 74  2  0
 76 75  1  0
 77 51  1  0
 77 78  1  0
 77 87  1  0
 78 81  1  0
 79 83  1  0
 79 78  1  0
 80 79  2  0
 83 82  1  0
 85 83  1  0
 85 86  1  0
 85 84  1  0
 87 90  1  1
 87 88  1  0
 89 87  1  0
M  ISO  4  10 100  18 100  49 101  50 101
M  END
>  <TORSDO>  (38) 
F 21

>  <SCORE>  (38) 
-12.763

>  <name>  (38) 
38

>  <ligand_id>  (38) 
38

>  <original_smiles>  (38) 
[H]C(C(=O)N([H])C([H])([H])C([H])([H])Oc1c([H])c([H])c2c(c1[H])C([H])([H])N(C(=O)C([H])(N([H])C(=O)C([H])(N([H])C([H])([H])[H])C([H])([H])[H])C(C([H])([H])[H])(C([H])([H])[H])C([H])([H])[H])C([H])(C(=O)N([H])C1([H])c3c([H])c([H])c([H])c([H])c3C([H])([H])C([H])([H])C1([H])[H])C2([H])[H])=C([H])C([H])=C([H])C([H])([H])N([H])C(=O)N1C([H])([H])C([H])([H])C([H])([H])C([H])(n2nc(-c3c([H])c([H])c(Oc4c([H])c([H])c(F)c([H])c4F)c([H])c3[H])c(C(=O)N([H])[H])c2N([H])[H])C1([H])[H]

>  <smiles>  (38) 
[H]C(C(=O)N([H])C([H])([H])C([H])([H])Oc1c([H])c([H])c2c(c1[H])C([H])([H])N(C(=O)C([H])(N([H])C(=O)C([H])(N([H])C([H])([H])[H])C([H])([H])[H])C(C([H])([H])[H])(C([H])([H])[H])C([H])([H])[H])C([H])(C(=O)N([H])C1([H])c3c([H])c([H])c([H])c([H])c3C([H])([H])C([H])([H])C1([H])[H])C2([H])[H])=C([H])C([H])=C([H])C([H])([H])N([H])C(=O)N1C([H])([H])C([H])([H])C([H])([H])C([H])(n2nc(-c3c([H])c([H])c(Oc4c([H])c([H])c(F)c([H])c4F)c([H])c3[H])c(C(=O)N([H])[H])c2N([H])[H])C1([H])[H]

$$$$
39:0:0
     RDKit          3D

100107  0  0  1  0  0  0  0  0999 V2000
  -34.4280  -25.0970   20.4580 N   0  0  0  0  0  4  0  0  0  0  0  0
  -35.3840  -25.1490   20.7780 H   0  0  0  0  0  0  0  0  0  0  0  0
  -33.8780  -24.7620   21.2310 H   0  0  0  0  0  0  0  0  0  0  0  0
  -34.0000  -26.4700   20.0820 C   0  0  0  0  0  2  0  0  0  0  0  0
  -33.6240  -27.3820   21.2770 C   0  0  0  0  0  2  0  0  0  0  0  0
  -32.3560  -26.9920   22.0740 C   0  0  0  0  0  2  0  0  0  0  0  0
  -31.1100  -26.9710   21.2710 N   0  0  0  0  0  4  0  0  0  0  0  0
  -31.1500  -26.2250   20.5950 H   0  0  0  0  0  0  0  0  0  0  0  0
  -31.0210  -27.8340   20.7550 H   0  0  0  0  0  0  0  0  0  0  0  0
  -29.8790  -26.7850   22.0770 C   0  0  0  0  0  2  0  0  0  0  0  0
  -28.7500  -26.1260   21.2660 C   0  0  0  0  0  2  0  0  0  0  0  0
  -28.4690  -26.8870   20.0950 O   0  0  0  0  0  0  0  0  0  0  0  0
  -24.5960  -31.9560   23.2360 C   0  0  0  0  0  0  0  0  0  0  0  0
  -27.2910  -27.5840   20.1460 C   0  0  0  0  0  0  0  0  0  0  0  0
  -23.3960  -30.5340   21.6040 C   0  0  0  0  0  3  0  0  0  0  0  0
  -24.8640  -29.0100   20.1790 C   0  0  0  0  0  0  0  0  0  0  0  0
  -25.9090  -30.9390   21.3820 C   0  0  0  0  0  2  0  0  0  0  0  0
  -26.0120  -29.5670   20.7550 C   0  0  0  0  0  0  0  0  0  0  0  0
  -27.2310  -28.8580   20.7440 C   0  0  0  0  0  3  0  0  0  0  0  0
  -26.1340  -27.0280   19.5650 C   0  0  0  0  0  3  0  0  0  0  0  0
  -24.9160  -27.7370   19.5830 C   0  0  0  0  0  3  0  0  0  0  0  0
  -23.6050  -29.8480   20.2270 C   0  0  0  0  0  2  0  0  0  0  0  0
  -24.6520  -31.1570   22.1330 N   0  0  0  0  0  0  0  0  0  0  0  0
  -23.5170  -32.2160   23.7830 O   0  0  0  0  0  0  0  0  0  0  0  0
  -22.7680  -29.5060   22.5720 C   0  0  0  0  0  0  0  0  0  0  0  0
  -21.4450  -29.3060   22.4520 N   0  0  0  0  0  0  0  0  0  0  0  0
  -23.4650  -28.8930   23.3830 O   0  0  0  0  0  0  0  0  0  0  0  0
  -20.9440  -29.8550   21.7680 H   0  0  0  0  0  0  0  0  0  0  0  0
  -18.0890  -28.0770   22.9700 C   0  0  0  0  0  0  0  0  0  0  0  0
  -20.6450  -28.3600   23.2280 C   0  0  0  0  0  3  0  0  0  0  0  0
  -20.7590  -26.9300   22.6520 C   0  0  0  0  0  2  0  0  0  0  0  0
  -19.6550  -26.5940   21.6450 C   0  0  0  0  0  2  0  0  0  0  0  0
  -18.2750  -26.7280   22.2960 C   0  0  0  0  0  2  0  0  0  0  0  0
  -19.2030  -28.8500   23.3930 C   0  0  0  0  0  0  0  0  0  0  0  0
  -18.9750  -30.1120   23.9810 C   0  0  0  0  0  3  0  0  0  0  0  0
  -17.6670  -30.6030   24.1510 C   0  0  0  0  0  3  0  0  0  0  0  0
  -16.5670  -29.8260   23.7460 C   0  0  0  0  0  3  0  0  0  0  0  0
  -16.7800  -28.5650   23.1610 C   0  0  0  0  0  3  0  0  0  0  0  0
  -25.8810  -32.6040   23.8440 C   0  0  0  0  0  3  0  0  0  0  0  0
  -25.5600  -33.9990   24.1720 N   0  0  0  0  0  0  0  0  0  0  0  0
  -25.8860  -35.0530   23.4130 C   0  0  0  0  0  0  0  0  0  0  0  0
  -26.5610  -34.9530   22.3840 O   0  0  0  0  0  0  0  0  0  0  0  0
  -24.9590  -34.1470   24.9690 H   0  0  0  0  0  0  0  0  0  0  0  0
  -24.1500  -36.8320   23.0350 C   0  0  0  0  0  1  0  0  0  0  0  0
  -25.3800  -36.4350   23.8650 C   0  0  0  0  0  3  0  0  0  0  0  0
  -27.4990  -37.3290   24.7270 C   0  0  0  0  0  1  0  0  0  0  0  0
  -26.4050  -37.4970   23.7730 N   0  0  0  0  0  0  0  0  0  0  0  0
  -25.9900  -38.4120   23.9260 H   0  0  0  0  0  0  0  0  0  0  0  0
  -26.4230  -31.8390   25.1150 C   0  0  1  0  0  0  0  0  0  0  0  0
  -25.3480  -31.5970   26.2000 C   0  0  0  0  0  1  0  0  0  0  0  0
  -27.0060  -30.4620   24.7140 C   0  0  0  0  0  1  0  0  0  0  0  0
  -27.5790  -32.6400   25.7560 C   0  0  0  0  0  1  0  0  0  0  0  0
  -34.3500  -24.1290   19.3300 C   0  0  0  0  0  2  0  0  0  0  0  0
  -34.5400  -22.6430   19.7370 C   0  0  0  0  0  2  0  0  0  0  0  0
  -33.3210  -21.9510   20.4090 C   0  0  0  0  0  2  0  0  0  0  0  0
  -33.6170  -20.5380   20.7980 N   0  0  0  0  0  4  0  0  0  0  0  0
  -33.7860  -19.9580   19.9900 H   0  0  0  0  0  0  0  0  0  0  0  0
  -34.4800  -20.5510   21.3180 H   0  0  0  0  0  0  0  0  0  0  0  0
  -32.6400  -19.8440   21.6760 C   0  0  0  0  0  2  0  0  0  0  0  0
  -31.6210  -18.9680   20.9090 C   0  0  0  0  0  2  0  0  0  0  0  0
  -31.1110  -17.7290   21.6990 C   0  0  0  0  0  2  0  0  0  0  0  0
  -30.0240  -16.9480   20.9240 C   0  0  0  0  0  2  0  0  0  0  0  0
  -30.5730  -14.5720   20.5170 C   0  0  0  0  0  0  0  0  0  0  0  0
  -30.3030  -12.4490   19.2990 C   0  0  0  0  0  2  0  0  0  0  0  0
  -29.3650  -12.6880   18.0990 C   0  0  0  0  0  2  0  0  0  0  0  0
  -27.8880  -12.5190   18.5070 C   0  0  0  0  0  2  0  0  0  0  0  0
  -27.5320  -13.3070   19.7990 C   0  0  0  0  0  3  0  0  0  0  0  0
  -28.5860  -13.0560   20.9020 C   0  0  0  0  0  2  0  0  0  0  0  0
  -29.9190  -13.3870   20.3650 N   0  0  0  0  0  0  0  0  0  0  0  0
  -31.6240  -14.8410   19.9320 O   0  0  0  0  0  0  0  0  0  0  0  0
  -29.9250  -15.5100   21.2250 N   0  0  0  0  0  0  0  0  0  0  0  0
  -29.1200  -15.1950   21.7460 H   0  0  0  0  0  0  0  0  0  0  0  0
  -25.1030  -13.8470   20.4710 C   0  0  0  0  0  0  0  0  0  0  0  0
  -24.0540  -13.0460   20.8410 C   0  0  0  0  0  0  0  0  0  0  0  0
  -24.5580  -11.7080   20.8280 C   0  0  0  0  0  0  0  0  0  0  0  0
  -26.1800  -12.9970   20.2640 N   0  0  0  0  0  0  0  0  0  0  0  0
  -25.8510  -11.7070   20.5310 N   0  0  0  0  0  0  0  0  0  0  0  0
  -23.8700  -10.4250   21.0310 C   0  0  0  0  0  0  0  0  0  0  0  0
  -24.3200   -9.4930   21.9920 C   0  0  0  0  0  3  0  0  0  0  0  0
  -23.6350   -8.2730   22.1790 C   0  0  0  0  0  3  0  0  0  0  0  0
  -22.4890   -7.9760   21.4080 C   0  0  0  0  0  0  0  0  0  0  0  0
  -22.0570   -8.9000   20.4390 C   0  0  0  0  0  3  0  0  0  0  0  0
  -22.7420  -10.1120   20.2490 C   0  0  0  0  0  3  0  0  0  0  0  0
  -21.7690   -6.8090   21.5070 O   0  0  0  0  0  0  0  0  0  0  0  0
  -21.7230   -6.0850   22.6720 C   0  0  0  0  0  0  0  0  0  0  0  0
  -21.2410   -6.6440   23.8750 C   0  0  0  0  0  3  0  0  0  0  0  0
  -21.1450   -5.8460   25.0320 C   0  0  0  0  0  3  0  0  0  0  0  0
  -21.5170   -4.4890   24.9850 C   0  0  0  0  0  0  0  0  0  0  0  0
  -21.9900   -3.9290   23.7850 C   0  0  0  0  0  3  0  0  0  0  0  0
  -22.0880   -4.7230   22.6300 C   0  0  0  0  0  0  0  0  0  0  0  0
  -22.5250   -4.1730   21.4720 F   0  0  0  0  0  0  0  0  0  0  0  0
  -21.4170   -3.7190   26.0950 F   0  0  0  0  0  0  0  0  0  0  0  0
  -22.6400  -13.4820   21.0980 C   0  0  0  0  0  0  0  0  0  0  0  0
  -21.9250  -12.7730   21.9630 N   0  0  0  0  0  0  0  0  0  0  0  0
  -22.1770  -14.4870   20.5610 O   0  0  0  0  0  0  0  0  0  0  0  0
  -22.3130  -11.9660   22.4270 H   0  0  0  0  0  0  0  0  0  0  0  0
  -20.9760  -13.0500   22.1670 H   0  0  0  0  0  0  0  0  0  0  0  0
  -25.2310  -15.2200   20.2800 N   0  0  0  0  0  0  0  0  0  0  0  0
  -24.4490  -15.8610   20.3510 H   0  0  0  0  0  0  0  0  0  0  0  0
  -26.0860  -15.6660   19.9700 H   0  0  0  0  0  0  0  0  0  0  0  0
  1  2  1  0
  1  3  1  0
  4  1  1  0
  4  5  1  0
  5  6  1  0
  7  6  1  0
  7 10  1  0
  8  7  1  0
  9  7  1  0
 11 10  1  0
 12 14  1  0
 12 11  1  0
 13 24  2  0
 14 19  1  0
 15 23  1  0
 15 25  1  0
 16 22  1  0
 16 18  1  0
 17 23  1  0
 18 17  1  0
 19 18  2  0
 20 21  1  0
 20 14  2  0
 21 16  2  0
 22 15  1  0
 23 13  1  0
 25 27  2  0
 26 25  1  0
 28 26  1  0
 29 38  2  0
 29 34  1  0
 30 26  1  0
 30 34  1  0
 31 30  1  0
 32 33  1  0
 32 31  1  0
 33 29  1  0
 34 35  2  0
 35 36  1  0
 37 36  2  0
 38 37  1  0
 39 13  1  0
 39 40  1  0
 39 49  1  0
 40 43  1  0
 41 45  1  0
 41 40  1  0
 42 41  2  0
 45 44  1  0
 47 45  1  0
 47 48  1  0
 47 46  1  0
 49 52  1  1
 49 50  1  0
 51 49  1  0
 53 54  1  0
 53  1  1  0
 54 55  1  0
 55 56  1  0
 56 58  1  0
 56 59  1  0
 57 56  1  0
 60 59  1  0
 60 61  1  0
 62 71  1  0
 62 61  1  0
 63 71  1  0
 64 69  1  0
 65 66  1  0
 65 64  1  0
 67 66  1  0
 67 76  1  0
 67 68  1  0
 69 63  1  0
 69 68  1  0
 70 63  2  0
 71 72  1  0
 73 74  2  0
 74 93  1  0
 75 74  1  0
 75 78  1  0
 76 73  1  0
 76 77  1  0
 77 75  2  0
 78 79  1  0
 79 80  2  0
 81 84  1  0
 81 80  1  0
 82 81  2  0
 83 82  1  0
 83 78  2  0
 84 85  1  0
 85 86  1  0
 86 87  2  0
 88 87  1  0
 88 92  1  0
 89 88  2  0
 90 85  2  0
 90 89  1  0
 91 90  1  0
 93 94  1  0
 94 97  1  0
 94 96  1  0
 95 93  2  0
 98 99  1  0
 98 73  1  0
100 98  1  0
M  ISO  4  11 101  12 101  63 100  71 100
M  END
>  <TORSDO>  (39) 
F 30

>  <SCORE>  (39) 
-10.949

>  <name>  (39) 
39

>  <ligand_id>  (39) 
39

>  <original_smiles>  (39) 
[H]c1c([H])c([H])c2c(c1[H])C([H])([H])C([H])([H])C([H])([H])C2([H])N([H])C(=O)C1([H])N(C(=O)C([H])(N([H])C(=O)C([H])(N([H])C([H])([H])[H])C([H])([H])[H])C(C([H])([H])[H])(C([H])([H])[H])C([H])([H])[H])C([H])([H])c2c([H])c(OC([H])([H])C([H])([H])[N+]([H])([H])C([H])([H])C([H])([H])C([H])([H])[N+]([H])([H])C([H])([H])C([H])([H])C([H])([H])[N+]([H])([H])C([H])([H])C([H])([H])C([H])([H])C([H])([H])N([H])C(=O)N3C([H])([H])C([H])([H])C([H])([H])C([H])(n4nc(-c5c([H])c([H])c(Oc6c([H])c([H])c(F)c([H])c6F)c([H])c5[H])c(C(=O)N([H])[H])c4N([H])[H])C3([H])[H])c([H])c([H])c2C1([H])[H]

>  <smiles>  (39) 
[H]c1c([H])c([H])c2c(c1[H])C([H])([H])C([H])([H])C([H])([H])C2([H])N([H])C(=O)C1([H])N(C(=O)C([H])(N([H])C(=O)C([H])(N([H])C([H])([H])[H])C([H])([H])[H])C(C([H])([H])[H])(C([H])([H])[H])C([H])([H])[H])C([H])([H])c2c([H])c(OC([H])([H])C([H])([H])[N+]([H])([H])C([H])([H])C([H])([H])C([H])([H])[N+]([H])([H])C([H])([H])C([H])([H])C([H])([H])[N+]([H])([H])C([H])([H])C([H])([H])C([H])([H])C([H])([H])N([H])C(=O)N3C([H])([H])C([H])([H])C([H])([H])C([H])(n4nc(-c5c([H])c([H])c(Oc6c([H])c([H])c(F)c([H])c6F)c([H])c5[H])c(C(=O)N([H])[H])c4N([H])[H])C3([H])[H])c([H])c([H])c2C1([H])[H]

$$$$
40:0:0
     RDKit          3D

 97104  0  0  1  0  0  0  0  0999 V2000
  -29.7960  -21.9800   24.4670 C   0  0  0  0  0  2  0  0  0  0  0  0
  -29.6750  -21.4360   25.8980 C   0  0  0  0  0  2  0  0  0  0  0  0
  -29.6300  -20.0240   25.7640 O   0  0  0  0  0  0  0  0  0  0  0  0
  -29.7720  -19.3020   26.9850 C   0  0  0  0  0  2  0  0  0  0  0  0
  -29.8390  -17.8230   26.5810 C   0  0  0  0  0  2  0  0  0  0  0  0
  -30.8160  -17.6670   25.4820 N   0  0  0  0  0  4  0  0  0  0  0  0
  -30.6140  -18.4210   24.8400 H   0  0  0  0  0  0  0  0  0  0  0  0
  -31.7440  -17.8220   25.8430 H   0  0  0  0  0  0  0  0  0  0  0  0
  -30.7750  -16.3860   24.7470 C   0  0  0  0  0  2  0  0  0  0  0  0
  -31.7370  -16.4240   23.5430 C   0  0  0  0  0  2  0  0  0  0  0  0
  -31.9850  -15.0720   22.8480 C   0  0  0  0  0  2  0  0  0  0  0  0
  -30.8610  -14.2530   20.7840 C   0  0  0  0  0  0  0  0  0  0  0  0
  -30.4020  -12.2930   19.3730 C   0  0  0  0  0  2  0  0  0  0  0  0
  -29.4680  -12.5460   18.1830 C   0  0  0  0  0  2  0  0  0  0  0  0
  -28.0020  -12.3780   18.6130 C   0  0  0  0  0  2  0  0  0  0  0  0
  -27.6640  -13.2090   19.8770 C   0  0  0  0  0  3  0  0  0  0  0  0
  -28.7030  -12.9850   20.9990 C   0  0  0  0  0  2  0  0  0  0  0  0
  -30.0560  -13.2150   20.4610 N   0  0  0  0  0  0  0  0  0  0  0  0
  -31.7390  -14.6950   20.0360 O   0  0  0  0  0  0  0  0  0  0  0  0
  -30.8380  -14.5520   22.0920 N   0  0  0  0  0  0  0  0  0  0  0  0
  -30.1160  -14.0850   22.6210 H   0  0  0  0  0  0  0  0  0  0  0  0
  -25.2590  -13.8170   20.5690 C   0  0  0  0  0  0  0  0  0  0  0  0
  -24.1830  -13.0440   20.9170 C   0  0  0  0  0  0  0  0  0  0  0  0
  -24.6400  -11.6910   20.8730 C   0  0  0  0  0  0  0  0  0  0  0  0
  -26.3030  -12.9350   20.3380 N   0  0  0  0  0  0  0  0  0  0  0  0
  -25.9320  -11.6500   20.5760 N   0  0  0  0  0  0  0  0  0  0  0  0
  -23.9060  -10.4300   21.0400 C   0  0  0  0  0  0  0  0  0  0  0  0
  -24.3600   -9.4210   21.9180 C   0  0  0  0  0  3  0  0  0  0  0  0
  -23.6290   -8.2250   22.0750 C   0  0  0  0  0  3  0  0  0  0  0  0
  -22.4280   -8.0280   21.3540 C   0  0  0  0  0  0  0  0  0  0  0  0
  -21.9900   -9.0240   20.4640 C   0  0  0  0  0  3  0  0  0  0  0  0
  -22.7230  -10.2130   20.3050 C   0  0  0  0  0  3  0  0  0  0  0  0
  -21.6640   -6.8880   21.4240 O   0  0  0  0  0  0  0  0  0  0  0  0
  -21.6860   -6.0730   22.5280 C   0  0  0  0  0  0  0  0  0  0  0  0
  -21.4010   -6.5630   23.8210 C   0  0  0  0  0  3  0  0  0  0  0  0
  -21.3660   -5.6790   24.9170 C   0  0  0  0  0  3  0  0  0  0  0  0
  -21.6050   -4.3050   24.7230 C   0  0  0  0  0  0  0  0  0  0  0  0
  -21.8820   -3.8140   23.4350 C   0  0  0  0  0  3  0  0  0  0  0  0
  -21.9190   -4.6960   22.3410 C   0  0  0  0  0  0  0  0  0  0  0  0
  -22.1660   -4.2150   21.0990 F   0  0  0  0  0  0  0  0  0  0  0  0
  -21.5630   -3.4540   25.7740 F   0  0  0  0  0  0  0  0  0  0  0  0
  -22.7860  -13.5240   21.1840 C   0  0  0  0  0  0  0  0  0  0  0  0
  -22.0500  -12.8220   22.0390 N   0  0  0  0  0  0  0  0  0  0  0  0
  -22.3540  -14.5560   20.6710 O   0  0  0  0  0  0  0  0  0  0  0  0
  -22.4100  -11.9870   22.4760 H   0  0  0  0  0  0  0  0  0  0  0  0
  -21.1120  -13.1230   22.2620 H   0  0  0  0  0  0  0  0  0  0  0  0
  -25.4320  -15.1890   20.4120 N   0  0  0  0  0  0  0  0  0  0  0  0
  -24.6710  -15.8510   20.5180 H   0  0  0  0  0  0  0  0  0  0  0  0
  -26.2990  -15.6260   20.1230 H   0  0  0  0  0  0  0  0  0  0  0  0
  -29.7540  -23.5120   24.3340 C   0  0  0  0  0  2  0  0  0  0  0  0
  -30.1320  -23.9540   22.9010 C   0  0  0  0  0  2  0  0  0  0  0  0
  -29.7970  -25.3650   22.6080 N   0  0  0  0  0  4  0  0  0  0  0  0
  -30.1340  -25.9460   23.3620 H   0  0  0  0  0  0  0  0  0  0  0  0
  -28.7920  -25.4510   22.5820 H   0  0  0  0  0  0  0  0  0  0  0  0
  -30.3530  -25.8630   21.3230 C   0  0  0  0  0  2  0  0  0  0  0  0
  -29.5960  -27.0980   20.7980 C   0  0  0  0  0  2  0  0  0  0  0  0
  -28.4030  -26.6800   20.1180 O   0  0  0  0  0  0  0  0  0  0  0  0
  -24.6050  -31.8720   23.2090 C   0  0  0  0  0  0  0  0  0  0  0  0
  -27.2760  -27.4800   20.1320 C   0  0  0  0  0  0  0  0  0  0  0  0
  -23.3950  -30.4890   21.5470 C   0  0  0  0  0  3  0  0  0  0  0  0
  -24.8550  -28.9580   20.1190 C   0  0  0  0  0  0  0  0  0  0  0  0
  -25.9110  -30.8630   21.3450 C   0  0  0  0  0  2  0  0  0  0  0  0
  -26.0040  -29.4940   20.7100 C   0  0  0  0  0  0  0  0  0  0  0  0
  -27.2140  -28.7720   20.7100 C   0  0  0  0  0  3  0  0  0  0  0  0
  -26.1070  -26.9550   19.5370 C   0  0  0  0  0  3  0  0  0  0  0  0
  -24.9010  -27.6840   19.5240 C   0  0  0  0  0  3  0  0  0  0  0  0
  -23.6080  -29.8100   20.1650 C   0  0  0  0  0  2  0  0  0  0  0  0
  -24.6560  -31.0870   22.0960 N   0  0  0  0  0  0  0  0  0  0  0  0
  -23.5250  -32.1460   23.7490 O   0  0  0  0  0  0  0  0  0  0  0  0
  -22.7370  -29.4670   22.4990 C   0  0  0  0  0  0  0  0  0  0  0  0
  -21.4110  -29.3020   22.3730 N   0  0  0  0  0  0  0  0  0  0  0  0
  -23.4160  -28.8220   23.3040 O   0  0  0  0  0  0  0  0  0  0  0  0
  -20.9260  -29.8740   21.6960 H   0  0  0  0  0  0  0  0  0  0  0  0
  -18.0280  -28.1390   22.8500 C   0  0  0  0  0  0  0  0  0  0  0  0
  -20.5860  -28.3660   23.1330 C   0  0  0  0  0  3  0  0  0  0  0  0
  -20.6760  -26.9380   22.5440 C   0  0  0  0  0  2  0  0  0  0  0  0
  -19.5750  -26.6390   21.5220 C   0  0  0  0  0  2  0  0  0  0  0  0
  -18.1930  -26.7930   22.1630 C   0  0  0  0  0  2  0  0  0  0  0  0
  -19.1530  -28.8840   23.2920 C   0  0  0  0  0  0  0  0  0  0  0  0
  -18.9450  -30.1450   23.8930 C   0  0  0  0  0  3  0  0  0  0  0  0
  -17.6460  -30.6600   24.0580 C   0  0  0  0  0  3  0  0  0  0  0  0
  -16.5360  -29.9100   23.6340 C   0  0  0  0  0  3  0  0  0  0  0  0
  -16.7270  -28.6520   23.0350 C   0  0  0  0  0  3  0  0  0  0  0  0
  -25.8950  -32.4850   23.8410 C   0  0  0  0  0  3  0  0  0  0  0  0
  -26.4420  -31.6600   25.0700 C   0  0  1  0  0  0  0  0  0  0  0  0
  -25.3700  -31.3720   26.1480 C   0  0  0  0  0  1  0  0  0  0  0  0
  -27.0260  -30.3060   24.6000 C   0  0  0  0  0  1  0  0  0  0  0  0
  -27.6040  -32.4280   25.7450 C   0  0  0  0  0  1  0  0  0  0  0  0
  -25.5840  -33.8640   24.2360 N   0  0  0  0  0  0  0  0  0  0  0  0
  -25.9010  -34.9490   23.5150 C   0  0  0  0  0  0  0  0  0  0  0  0
  -26.5570  -34.8920   22.4710 O   0  0  0  0  0  0  0  0  0  0  0  0
  -24.9970  -33.9820   25.0480 H   0  0  0  0  0  0  0  0  0  0  0  0
  -24.1480  -36.7330   23.2630 C   0  0  0  0  0  1  0  0  0  0  0  0
  -25.4090  -36.3120   24.0350 C   0  0  0  0  0  3  0  0  0  0  0  0
  -27.5590  -37.1790   24.8440 C   0  0  0  0  0  1  0  0  0  0  0  0
  -26.4270  -37.3800   23.9430 N   0  0  0  0  0  0  0  0  0  0  0  0
  -26.0160  -38.2860   24.1510 H   0  0  0  0  0  0  0  0  0  0  0  0
  1  2  1  0
  3  2  1  0
  3  4  1  0
  5  4  1  0
  6  8  1  0
  6  5  1  0
  7  6  1  0
  9  6  1  0
 10  9  1  0
 11 10  1  0
 12 20  1  0
 13 18  1  0
 14 15  1  0
 14 13  1  0
 16 15  1  0
 16 25  1  0
 16 17  1  0
 18 12  1  0
 18 17  1  0
 19 12  2  0
 20 21  1  0
 20 11  1  0
 22 23  2  0
 23 42  1  0
 24 23  1  0
 24 27  1  0
 25 22  1  0
 25 26  1  0
 26 24  2  0
 27 28  1  0
 28 29  2  0
 30 33  1  0
 30 29  1  0
 31 30  2  0
 32 31  1  0
 32 27  2  0
 33 34  1  0
 34 35  1  0
 35 36  2  0
 37 36  1  0
 37 41  1  0
 38 37  2  0
 39 34  2  0
 39 38  1  0
 40 39  1  0
 42 43  1  0
 43 46  1  0
 43 45  1  0
 44 42  2  0
 47 48  1  0
 47 22  1  0
 49 47  1  0
 50  1  1  0
 51 50  1  0
 52 51  1  0
 52 53  1  0
 54 52  1  0
 55 52  1  0
 56 55  1  0
 57 59  1  0
 57 56  1  0
 58 69  2  0
 59 64  1  0
 60 68  1  0
 60 70  1  0
 61 67  1  0
 61 63  1  0
 62 68  1  0
 63 62  1  0
 64 63  2  0
 65 59  2  0
 66 65  1  0
 66 61  2  0
 67 60  1  0
 68 58  1  0
 70 72  2  0
 71 70  1  0
 73 71  1  0
 74 83  2  0
 74 79  1  0
 75 71  1  0
 75 79  1  0
 76 75  1  0
 77 78  1  0
 77 76  1  0
 78 74  1  0
 79 80  2  0
 80 81  1  0
 82 81  2  0
 83 82  1  0
 84 58  1  0
 84 89  1  0
 84 85  1  0
 85 88  1  1
 85 86  1  0
 87 85  1  0
 89 92  1  0
 90 94  1  0
 90 89  1  0
 91 90  2  0
 94 93  1  0
 96 94  1  0
 96 97  1  0
 96 95  1  0
M  ISO  4  12 100  20 100  56 101  57 101
M  END
>  <TORSDO>  (40) 
F 29

>  <SCORE>  (40) 
9.198

>  <name>  (40) 
40

>  <ligand_id>  (40) 
40

>  <original_smiles>  (40) 
[H]c1c([H])c([H])c2c(c1[H])C([H])([H])C([H])([H])C([H])([H])C2([H])N([H])C(=O)C1([H])N(C(=O)C([H])(N([H])C(=O)C([H])(N([H])C([H])([H])[H])C([H])([H])[H])C(C([H])([H])[H])(C([H])([H])[H])C([H])([H])[H])C([H])([H])c2c([H])c(OC([H])([H])C([H])([H])[N+]([H])([H])C([H])([H])C([H])([H])C([H])([H])C([H])([H])OC([H])([H])C([H])([H])[N+]([H])([H])C([H])([H])C([H])([H])C([H])([H])N([H])C(=O)N3C([H])([H])C([H])([H])C([H])([H])C([H])(n4nc(-c5c([H])c([H])c(Oc6c([H])c([H])c(F)c([H])c6F)c([H])c5[H])c(C(=O)N([H])[H])c4N([H])[H])C3([H])[H])c([H])c([H])c2C1([H])[H]

>  <smiles>  (40) 
[H]c1c([H])c([H])c2c(c1[H])C([H])([H])C([H])([H])C([H])([H])C2([H])N([H])C(=O)C1([H])N(C(=O)C([H])(N([H])C(=O)C([H])(N([H])C([H])([H])[H])C([H])([H])[H])C(C([H])([H])[H])(C([H])([H])[H])C([H])([H])[H])C([H])([H])c2c([H])c(OC([H])([H])C([H])([H])[N+]([H])([H])C([H])([H])C([H])([H])C([H])([H])C([H])([H])OC([H])([H])C([H])([H])[N+]([H])([H])C([H])([H])C([H])([H])C([H])([H])N([H])C(=O)N3C([H])([H])C([H])([H])C([H])([H])C([H])(n4nc(-c5c([H])c([H])c(Oc6c([H])c([H])c(F)c([H])c6F)c([H])c5[H])c(C(=O)N([H])[H])c4N([H])[H])C3([H])[H])c([H])c([H])c2C1([H])[H]

$$$$
42:0:0
     RDKit          3D

102106  0  0  1  0  0  0  0  0999 V2000
  -31.6410  -18.4570   20.9380 C   0  0  0  0  0  2  0  0  0  0  0  0
  -32.0420  -17.3810   21.8760 N   0  0  0  0  0  4  0  0  0  0  0  0
  -32.9580  -17.0810   21.5840 H   0  0  0  0  0  0  0  0  0  0  0  0
  -32.1440  -17.7560   22.8050 H   0  0  0  0  0  0  0  0  0  0  0  0
  -31.1790  -16.1730   21.9070 C   0  0  0  0  0  2  0  0  0  0  0  0
  -31.9940  -14.8650   21.7440 C   0  0  0  0  0  2  0  0  0  0  0  0
  -31.1840  -13.5960   22.1030 C   0  0  0  0  0  2  0  0  0  0  0  0
  -31.9560  -12.2570   22.0340 C   0  0  0  0  0  2  0  0  0  0  0  0
  -31.9710  -11.6640   20.6740 N   0  0  0  0  0  4  0  0  0  0  0  0
  -31.4290  -12.2380   20.0480 H   0  0  0  0  0  0  0  0  0  0  0  0
  -32.9280  -11.7010   20.3530 H   0  0  0  0  0  0  0  0  0  0  0  0
  -31.5120  -10.2570   20.5470 C   0  0  0  0  0  2  0  0  0  0  0  0
  -29.9960  -10.0320   20.8280 C   0  0  0  0  0  2  0  0  0  0  0  0
  -29.0410   -9.9590   19.5880 C   0  0  0  0  0  2  0  0  0  0  0  0
  -28.9660  -12.7480   18.9410 C   0  0  2  0  0  0  0  0  0  0  0  0
  -29.7920  -12.2410   17.6510 C   0  0  0  0  0  1  0  0  0  0  0  0
  -28.1170  -12.3440   16.7620 C   0  0  0  0  0  1  0  0  0  0  0  0
  -26.6410  -12.5170   17.7110 C   0  0  0  0  0  2  0  0  0  0  0  0
  -26.6300  -13.0180   19.3920 C   0  0  0  0  0  2  0  0  0  0  0  0
  -28.2360  -13.0030   20.3760 C   0  0  0  0  0  1  0  0  0  0  0  0
  -29.7430  -12.5670   19.4530 N   0  0  0  0  0  1  0  0  0  0  0  0
  -28.9680  -14.0730   18.5400 O   0  0  0  0  0  1  0  0  0  0  0  0
  -28.4200  -11.2160   19.0690 N   0  0  0  0  0  2  0  0  0  0  0  0
  -27.5100  -11.0890   18.6450 H   0  0  0  0  0  0  0  0  0  0  0  0
  -24.4260  -13.2200   20.6710 C   0  0  0  0  0  0  0  0  0  0  0  0
  -23.5240  -12.3280   21.1810 C   0  0  0  0  0  0  0  0  0  0  0  0
  -24.0360  -11.0280   20.8800 C   0  0  0  0  0  0  0  0  0  0  0  0
  -25.4510  -12.4810   20.1090 N   0  0  0  0  0  0  0  0  0  0  0  0
  -25.2250  -11.1390   20.2640 N   0  0  0  0  0  0  0  0  0  0  0  0
  -23.4190   -9.7010   21.1130 C   0  0  0  0  0  0  0  0  0  0  0  0
  -24.0340   -8.7230   21.9270 C   0  0  0  0  0  3  0  0  0  0  0  0
  -23.4020   -7.4790   22.1630 C   0  0  0  0  0  3  0  0  0  0  0  0
  -22.1370   -7.2000   21.5920 C   0  0  0  0  0  0  0  0  0  0  0  0
  -21.5350   -8.1690   20.7700 C   0  0  0  0  0  3  0  0  0  0  0  0
  -22.1670   -9.4040   20.5320 C   0  0  0  0  0  3  0  0  0  0  0  0
  -21.4660   -6.0080   21.7410 O   0  0  0  0  0  0  0  0  0  0  0  0
  -21.5800   -5.2490   22.8810 C   0  0  0  0  0  0  0  0  0  0  0  0
  -21.2590   -5.7660   24.1540 C   0  0  0  0  0  3  0  0  0  0  0  0
  -21.3220   -4.9330   25.2890 C   0  0  0  0  0  3  0  0  0  0  0  0
  -21.7000   -3.5850   25.1550 C   0  0  0  0  0  0  0  0  0  0  0  0
  -22.0130   -3.0660   23.8860 C   0  0  0  0  0  3  0  0  0  0  0  0
  -21.9510   -3.8940   22.7530 C   0  0  0  0  0  0  0  0  0  0  0  0
  -22.2350   -3.3800   21.5310 F   0  0  0  0  0  0  0  0  0  0  0  0
  -21.7540   -2.7830   26.2450 F   0  0  0  0  0  0  0  0  0  0  0  0
  -22.2170  -12.6780   21.8340 C   0  0  0  0  0  0  0  0  0  0  0  0
  -21.7790  -11.8820   22.8030 N   0  0  0  0  0  0  0  0  0  0  0  0
  -21.6030  -13.6990   21.5260 O   0  0  0  0  0  0  0  0  0  0  0  0
  -22.2900  -11.0540   23.0700 H   0  0  0  0  0  0  0  0  0  0  0  0
  -20.9180  -12.1050   23.2800 H   0  0  0  0  0  0  0  0  0  0  0  0
  -24.4530  -14.6090   20.6250 N   0  0  0  0  0  0  0  0  0  0  0  0
  -23.6920  -15.1750   20.9820 H   0  0  0  0  0  0  0  0  0  0  0  0
  -25.1830  -15.1640   20.1970 H   0  0  0  0  0  0  0  0  0  0  0  0
  -30.9250  -19.6570   21.6070 C   0  0  0  0  0  2  0  0  0  0  0  0
  -30.2020  -20.4680   20.6110 N   0  0  0  0  0  0  0  0  0  0  0  0
  -30.8140  -20.6570   19.8150 H   0  0  0  0  0  0  0  0  0  0  0  0
  -29.6620  -21.7460   21.0930 C   0  0  0  0  0  2  0  0  0  0  0  0
  -28.7750  -22.3880   20.0020 C   0  0  0  0  0  2  0  0  0  0  0  0
  -28.5440  -23.8270   20.1810 N   0  0  0  0  0  0  0  0  0  0  0  0
  -28.3430  -24.0280   21.1630 H   0  0  0  0  0  0  0  0  0  0  0  0
  -29.6490  -24.6900   19.7370 C   0  0  0  0  0  2  0  0  0  0  0  0
  -29.1490  -26.0680   19.2570 C   0  0  0  0  0  2  0  0  0  0  0  0
  -28.7500  -26.8910   20.3540 O   0  0  0  0  0  0  0  0  0  0  0  0
  -24.6680  -31.9180   23.2690 C   0  0  0  0  0  0  0  0  0  0  0  0
  -27.5300  -27.5330   20.3000 C   0  0  0  0  0  0  0  0  0  0  0  0
  -23.5330  -30.4250   21.6550 C   0  0  0  0  0  3  0  0  0  0  0  0
  -25.0620  -28.9180   20.2770 C   0  0  0  0  0  0  0  0  0  0  0  0
  -26.0410  -30.8890   21.4630 C   0  0  0  0  0  2  0  0  0  0  0  0
  -26.1890  -29.5070   20.8590 C   0  0  0  0  0  0  0  0  0  0  0  0
  -27.4200  -28.8180   20.8780 C   0  0  0  0  0  3  0  0  0  0  0  0
  -26.3750  -26.9420   19.7380 C   0  0  0  0  0  3  0  0  0  0  0  0
  -25.1470  -27.6290   19.7200 C   0  0  0  0  0  3  0  0  0  0  0  0
  -23.7810  -29.7230   20.2940 C   0  0  0  0  0  2  0  0  0  0  0  0
  -24.7640  -31.0940   22.1870 N   0  0  0  0  0  0  0  0  0  0  0  0
  -23.5730  -32.1570   23.7950 O   0  0  0  0  0  0  0  0  0  0  0  0
  -22.9200  -29.4000   22.6360 C   0  0  0  0  0  0  0  0  0  0  0  0
  -21.6180  -29.1210   22.4710 N   0  0  0  0  0  0  0  0  0  0  0  0
  -23.6140  -28.8600   23.5000 O   0  0  0  0  0  0  0  0  0  0  0  0
  -21.1170  -29.6120   21.7430 H   0  0  0  0  0  0  0  0  0  0  0  0
  -18.3260  -27.6880   22.8720 C   0  0  0  0  0  0  0  0  0  0  0  0
  -20.8390  -28.1610   23.2510 C   0  0  0  0  0  3  0  0  0  0  0  0
  -21.0810  -26.7160   22.7580 C   0  0  0  0  0  2  0  0  0  0  0  0
  -20.0610  -26.2570   21.7120 C   0  0  0  0  0  2  0  0  0  0  0  0
  -18.6410  -26.3240   22.2820 C   0  0  0  0  0  2  0  0  0  0  0  0
  -19.3580  -28.5570   23.3120 C   0  0  0  0  0  0  0  0  0  0  0  0
  -19.0150  -29.8280   23.8200 C   0  0  0  0  0  3  0  0  0  0  0  0
  -17.6680  -30.2330   23.8950 C   0  0  0  0  0  3  0  0  0  0  0  0
  -16.6490  -29.3620   23.4720 C   0  0  0  0  0  3  0  0  0  0  0  0
  -16.9780  -28.0920   22.9650 C   0  0  0  0  0  3  0  0  0  0  0  0
  -25.9230  -32.6160   23.8790 C   0  0  0  0  0  3  0  0  0  0  0  0
  -25.5550  -34.0090   24.1690 N   0  0  0  0  0  0  0  0  0  0  0  0
  -25.8450  -35.0510   23.3790 C   0  0  0  0  0  0  0  0  0  0  0  0
  -26.5200  -34.9460   22.3510 O   0  0  0  0  0  0  0  0  0  0  0  0
  -24.9530  -34.1620   24.9650 H   0  0  0  0  0  0  0  0  0  0  0  0
  -24.0340  -36.7510   22.9800 C   0  0  0  0  0  1  0  0  0  0  0  0
  -25.2980  -36.4300   23.7940 C   0  0  0  0  0  3  0  0  0  0  0  0
  -27.3950  -37.4360   24.5800 C   0  0  0  0  0  1  0  0  0  0  0  0
  -26.2810  -37.5240   23.6400 N   0  0  0  0  0  0  0  0  0  0  0  0
  -25.8350  -38.4290   23.7600 H   0  0  0  0  0  0  0  0  0  0  0  0
  -26.4640  -31.8990   25.1770 C   0  0  1  0  0  0  0  0  0  0  0  0
  -25.3680  -31.6110   26.2280 C   0  0  0  0  0  1  0  0  0  0  0  0
  -27.1370  -30.5550   24.8150 C   0  0  0  0  0  1  0  0  0  0  0  0
  -27.5490  -32.7750   25.8460 C   0  0  0  0  0  1  0  0  0  0  0  0
  1 53  1  0
  1  2  1  0
  2  5  1  0
  2  4  1  0
  3  2  1  0
  6  5  1  0
  6  7  1  0
  8  7  1  0
  9  8  1  0
 10  9  1  0
 11  9  1  0
 12  9  1  0
 12 13  1  0
 14 13  1  0
 15 21  1  0
 15 20  1  1
 16 15  1  0
 17 18  1  0
 18 19  1  0
 19 28  1  0
 22 15  1  0
 23 14  1  0
 24 23  1  0
 25 26  2  0
 26 45  1  0
 27 30  1  0
 27 26  1  0
 28 29  1  0
 28 25  1  0
 29 27  2  0
 30 31  1  0
 31 32  2  0
 33 36  1  0
 33 32  1  0
 34 33  2  0
 35 34  1  0
 35 30  2  0
 36 37  1  0
 37 38  1  0
 38 39  2  0
 40 39  1  0
 40 44  1  0
 41 40  2  0
 42 37  2  0
 42 41  1  0
 43 42  1  0
 45 46  1  0
 46 48  1  0
 46 49  1  0
 47 45  2  0
 50 25  1  0
 50 51  1  0
 52 50  1  0
 54 56  1  0
 54 53  1  0
 55 54  1  0
 57 58  1  0
 57 56  1  0
 58 59  1  0
 60 58  1  0
 61 60  1  0
 61 62  1  0
 63 74  2  0
 64 62  1  0
 64 69  1  0
 65 73  1  0
 65 75  1  0
 66 72  1  0
 66 68  1  0
 67 73  1  0
 68 69  2  0
 68 67  1  0
 70 64  2  0
 71 70  1  0
 71 66  2  0
 72 65  1  0
 73 63  1  0
 75 77  2  0
 76 75  1  0
 78 76  1  0
 79 88  2  0
 79 84  1  0
 80 76  1  0
 80 84  1  0
 81 80  1  0
 82 83  1  0
 82 81  1  0
 83 79  1  0
 84 85  2  0
 85 86  1  0
 87 86  2  0
 88 87  1  0
 89 63  1  0
 89 90  1  0
 89 99  1  0
 90 93  1  0
 91 95  1  0
 91 90  1  0
 92 91  2  0
 95 94  1  0
 97 98  1  0
 97 95  1  0
 97 96  1  0
 99102  1  1
 99100  1  0
101 99  1  0
M  ISO  4  15 100  23 100  61 101  62 101
M  END
>  <TORSDO>  (41) 
F 32

>  <SCORE>  (41) 
-5.759

>  <name>  (41) 
42

>  <ligand_id>  (41) 
42

>  <original_smiles>  (41) 
[H]c1c([H])c([H])c2c(c1[H])C([H])([H])C([H])([H])C([H])([H])C2([H])N([H])C(=O)C1([H])N(C(=O)C([H])(N([H])C(=O)C([H])(N([H])C([H])([H])[H])C([H])([H])[H])C(C([H])([H])[H])(C([H])([H])[H])C([H])([H])[H])C([H])([H])c2c([H])c(OC([H])([H])C([H])([H])N([H])C([H])([H])C([H])([H])N([H])C([H])([H])C([H])([H])[N+]([H])([H])C([H])([H])C([H])([H])C([H])([H])C([H])([H])[N+]([H])([H])C([H])([H])C([H])([H])C([H])([H])N([H])C(=O)N3C([H])([H])C([H])([H])C([H])([H])C([H])(n4nc(-c5c([H])c([H])c(Oc6c([H])c([H])c(F)c([H])c6F)c([H])c5[H])c(C(=O)N([H])[H])c4N([H])[H])C3([H])[H])c([H])c([H])c2C1([H])[H]

>  <smiles>  (41) 
[H]c1c([H])c([H])c2c(c1[H])C([H])([H])C([H])([H])C([H])([H])C2([H])N([H])C(=O)C1([H])N(C(=O)C([H])(N([H])C(=O)C([H])(N([H])C([H])([H])[H])C([H])([H])[H])C(C([H])([H])[H])(C([H])([H])[H])C([H])([H])[H])C([H])([H])c2c([H])c(OC([H])([H])C([H])([H])N([H])C([H])([H])C([H])([H])N([H])C([H])([H])C([H])([H])[N+]([H])([H])C([H])([H])C([H])([H])C([H])([H])C([H])([H])[N+]([H])([H])C([H])([H])C([H])([H])C([H])([H])N([H])C(=O)N3C([H])([H])C([H])([H])C([H])([H])C([H])(n4nc(-c5c([H])c([H])c(Oc6c([H])c([H])c(F)c([H])c6F)c([H])c5[H])c(C(=O)N([H])[H])c4N([H])[H])C3([H])[H])c([H])c([H])c2C1([H])[H]

$$$$
43:0:0
     RDKit          3D

 90 97  0  0  1  0  0  0  0  0999 V2000
  -29.5390  -21.8770   20.7790 C   0  0  0  0  0  2  0  0  0  0  0  0
  -28.9860  -22.9380   19.9220 N   0  0  0  0  0  0  0  0  0  0  0  0
  -28.0060  -22.7400   19.7320 H   0  0  0  0  0  0  0  0  0  0  0  0
  -29.0760  -24.2850   20.5160 C   0  0  0  0  0  2  0  0  0  0  0  0
  -28.5320  -25.3730   19.5460 C   0  0  0  0  0  2  0  0  0  0  0  0
  -28.4140  -26.6850   20.1510 O   0  0  0  0  0  0  0  0  0  0  0  0
  -24.6120  -31.8920   23.2330 C   0  0  0  0  0  0  0  0  0  0  0  0
  -27.2220  -27.4040   20.1310 C   0  0  0  0  0  0  0  0  0  0  0  0
  -23.3930  -30.4930   21.6020 C   0  0  0  0  0  3  0  0  0  0  0  0
  -24.8320  -28.9530   20.1700 C   0  0  0  0  0  0  0  0  0  0  0  0
  -25.9250  -30.8310   21.3950 C   0  0  0  0  0  2  0  0  0  0  0  0
  -25.9990  -29.4590   20.7520 C   0  0  0  0  0  0  0  0  0  0  0  0
  -27.1920  -28.6920   20.7320 C   0  0  0  0  0  3  0  0  0  0  0  0
  -26.0220  -26.9270   19.5460 C   0  0  0  0  0  3  0  0  0  0  0  0
  -24.8400  -27.6860   19.5680 C   0  0  0  0  0  3  0  0  0  0  0  0
  -23.5930  -29.8170   20.2220 C   0  0  0  0  0  2  0  0  0  0  0  0
  -24.6620  -31.0870   22.1340 N   0  0  0  0  0  0  0  0  0  0  0  0
  -23.5340  -32.1690   23.7760 O   0  0  0  0  0  0  0  0  0  0  0  0
  -22.7460  -29.4710   22.5660 C   0  0  0  0  0  0  0  0  0  0  0  0
  -21.4210  -29.2910   22.4480 N   0  0  0  0  0  0  0  0  0  0  0  0
  -23.4340  -28.8450   23.3770 O   0  0  0  0  0  0  0  0  0  0  0  0
  -20.9260  -29.8490   21.7650 H   0  0  0  0  0  0  0  0  0  0  0  0
  -18.0480  -28.0970   22.9610 C   0  0  0  0  0  0  0  0  0  0  0  0
  -20.6070  -28.3560   23.2240 C   0  0  0  0  0  3  0  0  0  0  0  0
  -20.7080  -26.9220   22.6550 C   0  0  0  0  0  2  0  0  0  0  0  0
  -19.6030  -26.5950   21.6450 C   0  0  0  0  0  2  0  0  0  0  0  0
  -18.2230  -26.7440   22.2920 C   0  0  0  0  0  2  0  0  0  0  0  0
  -19.1670  -28.8610   23.3840 C   0  0  0  0  0  0  0  0  0  0  0  0
  -18.9500  -30.1280   23.9680 C   0  0  0  0  0  3  0  0  0  0  0  0
  -17.6460  -30.6300   24.1340 C   0  0  0  0  0  3  0  0  0  0  0  0
  -16.5400  -29.8630   23.7270 C   0  0  0  0  0  3  0  0  0  0  0  0
  -16.7420  -28.5980   23.1460 C   0  0  0  0  0  3  0  0  0  0  0  0
  -25.9020  -32.5240   23.8410 C   0  0  0  0  0  3  0  0  0  0  0  0
  -26.4360  -31.7460   25.1070 C   0  0  1  0  0  0  0  0  0  0  0  0
  -25.3560  -31.5000   26.1850 C   0  0  0  0  0  1  0  0  0  0  0  0
  -27.0170  -30.3710   24.7010 C   0  0  0  0  0  1  0  0  0  0  0  0
  -27.5930  -32.5380   25.7590 C   0  0  0  0  0  1  0  0  0  0  0  0
  -25.5920  -33.9190   24.1820 N   0  0  0  0  0  0  0  0  0  0  0  0
  -25.9100  -34.9750   23.4220 C   0  0  0  0  0  0  0  0  0  0  0  0
  -26.5650  -34.8790   22.3810 O   0  0  0  0  0  0  0  0  0  0  0  0
  -25.0060  -34.0660   24.9900 H   0  0  0  0  0  0  0  0  0  0  0  0
  -24.1650  -36.7580   23.1040 C   0  0  0  0  0  1  0  0  0  0  0  0
  -25.4220  -36.3590   23.8920 C   0  0  0  0  0  3  0  0  0  0  0  0
  -27.5690  -37.2520   24.6830 C   0  0  0  0  0  1  0  0  0  0  0  0
  -26.4460  -37.4190   23.7640 N   0  0  0  0  0  0  0  0  0  0  0  0
  -26.0390  -38.3360   23.9250 H   0  0  0  0  0  0  0  0  0  0  0  0
  -29.2780  -20.4450   20.2060 C   0  0  0  0  0  2  0  0  0  0  0  0
  -29.9590  -19.3610   20.9710 N   0  0  0  0  0  4  0  0  0  0  0  0
  -30.9530  -19.4810   20.8660 H   0  0  0  0  0  0  0  0  0  0  0  0
  -29.7380  -19.4840   21.9470 H   0  0  0  0  0  0  0  0  0  0  0  0
  -29.5950  -17.9640   20.5850 C   0  0  0  0  0  2  0  0  0  0  0  0
  -30.3920  -16.8790   21.3710 C   0  0  0  0  0  2  0  0  0  0  0  0
  -30.6370  -14.4980   20.5150 C   0  0  0  0  0  0  0  0  0  0  0  0
  -30.3390  -12.3450   19.3390 C   0  0  0  0  0  2  0  0  0  0  0  0
  -29.3830  -12.5410   18.1440 C   0  0  0  0  0  2  0  0  0  0  0  0
  -27.9140  -12.3960   18.5870 C   0  0  0  0  0  2  0  0  0  0  0  0
  -27.5840  -13.2320   19.8520 C   0  0  0  0  0  3  0  0  0  0  0  0
  -28.6470  -13.0070   20.9500 C   0  0  0  0  0  2  0  0  0  0  0  0
  -29.9660  -13.3220   20.3740 N   0  0  0  0  0  0  0  0  0  0  0  0
  -31.7520  -14.6960   20.0290 O   0  0  0  0  0  0  0  0  0  0  0  0
  -29.9470  -15.4910   21.1130 N   0  0  0  0  0  0  0  0  0  0  0  0
  -29.0300  -15.2400   21.4510 H   0  0  0  0  0  0  0  0  0  0  0  0
  -25.1920  -13.8430   20.5770 C   0  0  0  0  0  0  0  0  0  0  0  0
  -24.1240  -13.0710   20.9510 C   0  0  0  0  0  0  0  0  0  0  0  0
  -24.5820  -11.7190   20.9130 C   0  0  0  0  0  0  0  0  0  0  0  0
  -26.2340  -12.9600   20.3380 N   0  0  0  0  0  0  0  0  0  0  0  0
  -25.8700  -11.6770   20.5970 N   0  0  0  0  0  0  0  0  0  0  0  0
  -23.8550  -10.4580   21.1020 C   0  0  0  0  0  0  0  0  0  0  0  0
  -24.3090   -9.4710   22.0050 C   0  0  0  0  0  3  0  0  0  0  0  0
  -23.5820   -8.2740   22.1830 C   0  0  0  0  0  3  0  0  0  0  0  0
  -22.3870   -8.0560   21.4570 C   0  0  0  0  0  0  0  0  0  0  0  0
  -21.9510   -9.0310   20.5430 C   0  0  0  0  0  3  0  0  0  0  0  0
  -22.6780  -10.2190   20.3630 C   0  0  0  0  0  3  0  0  0  0  0  0
  -21.6280   -6.9130   21.5460 O   0  0  0  0  0  0  0  0  0  0  0  0
  -21.6290   -6.1360   22.6770 C   0  0  0  0  0  0  0  0  0  0  0  0
  -21.2830   -6.6610   23.9410 C   0  0  0  0  0  3  0  0  0  0  0  0
  -21.2290   -5.8110   25.0640 C   0  0  0  0  0  3  0  0  0  0  0  0
  -21.5080   -4.4400   24.9250 C   0  0  0  0  0  0  0  0  0  0  0  0
  -21.8470   -3.9130   23.6660 C   0  0  0  0  0  3  0  0  0  0  0  0
  -21.9040   -4.7600   22.5440 C   0  0  0  0  0  0  0  0  0  0  0  0
  -22.2100   -4.2450   21.3290 F   0  0  0  0  0  0  0  0  0  0  0  0
  -21.4480   -3.6210   26.0020 F   0  0  0  0  0  0  0  0  0  0  0  0
  -22.7290  -13.5510   21.2350 C   0  0  0  0  0  0  0  0  0  0  0  0
  -22.0070  -12.8530   22.1040 N   0  0  0  0  0  0  0  0  0  0  0  0
  -22.2890  -14.5790   20.7200 O   0  0  0  0  0  0  0  0  0  0  0  0
  -22.3760  -12.0210   22.5410 H   0  0  0  0  0  0  0  0  0  0  0  0
  -21.0720  -13.1560   22.3370 H   0  0  0  0  0  0  0  0  0  0  0  0
  -25.3580  -15.2130   20.4010 N   0  0  0  0  0  0  0  0  0  0  0  0
  -24.5890  -15.8670   20.5040 H   0  0  0  0  0  0  0  0  0  0  0  0
  -26.1980  -15.6450   20.0380 H   0  0  0  0  0  0  0  0  0  0  0  0
  2  4  1  0
  2  1  1  0
  3  2  1  0
  5  6  1  0
  5  4  1  0
  7 18  2  0
  8  6  1  0
  8 13  1  0
  9 17  1  0
  9 19  1  0
 10 16  1  0
 10 12  1  0
 11 17  1  0
 12 11  1  0
 13 12  2  0
 14 15  1  0
 14  8  2  0
 15 10  2  0
 16  9  1  0
 17  7  1  0
 19 21  2  0
 20 19  1  0
 22 20  1  0
 23 32  2  0
 23 28  1  0
 24 20  1  0
 24 28  1  0
 25 24  1  0
 26 27  1  0
 26 25  1  0
 27 23  1  0
 28 29  2  0
 29 30  1  0
 31 30  2  0
 32 31  1  0
 33  7  1  0
 33 38  1  0
 33 34  1  0
 34 37  1  1
 34 35  1  0
 36 34  1  0
 38 41  1  0
 39 43  1  0
 39 38  1  0
 40 39  2  0
 43 42  1  0
 45 43  1  0
 45 46  1  0
 45 44  1  0
 47  1  1  0
 47 48  1  0
 48 50  1  0
 49 48  1  0
 51 48  1  0
 51 52  1  0
 53 61  1  0
 54 59  1  0
 55 56  1  0
 55 54  1  0
 57 56  1  0
 57 66  1  0
 57 58  1  0
 59 53  1  0
 59 58  1  0
 60 53  2  0
 61 52  1  0
 61 62  1  0
 63 64  2  0
 64 83  1  0
 65 64  1  0
 65 68  1  0
 66 63  1  0
 66 67  1  0
 67 65  2  0
 68 69  1  0
 69 70  2  0
 71 74  1  0
 71 70  1  0
 72 71  2  0
 73 72  1  0
 73 68  2  0
 74 75  1  0
 75 76  1  0
 76 77  2  0
 78 77  1  0
 78 82  1  0
 79 78  2  0
 80 75  2  0
 80 79  1  0
 81 80  1  0
 83 84  1  0
 84 87  1  0
 84 86  1  0
 85 83  2  0
 88 89  1  0
 88 63  1  0
 90 88  1  0
M  ISO  4   5 101   6 101  53 100  61 100
M  END
>  <TORSDO>  (42) 
F 23

>  <SCORE>  (42) 
-12.740

>  <name>  (42) 
43

>  <ligand_id>  (42) 
43

>  <original_smiles>  (42) 
[H]c1c([H])c([H])c2c(c1[H])C([H])([H])C([H])([H])C([H])([H])C2([H])N([H])C(=O)C1([H])N(C(=O)C([H])(N([H])C(=O)C([H])(N([H])C([H])([H])[H])C([H])([H])[H])C(C([H])([H])[H])(C([H])([H])[H])C([H])([H])[H])C([H])([H])c2c([H])c(OC([H])([H])C([H])([H])N([H])C([H])([H])C([H])([H])[N+]([H])([H])C([H])([H])C([H])([H])N([H])C(=O)N3C([H])([H])C([H])([H])C([H])([H])C([H])(n4nc(-c5c([H])c([H])c(Oc6c([H])c([H])c(F)c([H])c6F)c([H])c5[H])c(C(=O)N([H])[H])c4N([H])[H])C3([H])[H])c([H])c([H])c2C1([H])[H]

>  <smiles>  (42) 
[H]c1c([H])c([H])c2c(c1[H])C([H])([H])C([H])([H])C([H])([H])C2([H])N([H])C(=O)C1([H])N(C(=O)C([H])(N([H])C(=O)C([H])(N([H])C([H])([H])[H])C([H])([H])[H])C(C([H])([H])[H])(C([H])([H])[H])C([H])([H])[H])C([H])([H])c2c([H])c(OC([H])([H])C([H])([H])N([H])C([H])([H])C([H])([H])[N+]([H])([H])C([H])([H])C([H])([H])N([H])C(=O)N3C([H])([H])C([H])([H])C([H])([H])C([H])(n4nc(-c5c([H])c([H])c(Oc6c([H])c([H])c(F)c([H])c6F)c([H])c5[H])c(C(=O)N([H])[H])c4N([H])[H])C3([H])[H])c([H])c([H])c2C1([H])[H]

$$$$
44:0:0
     RDKit          3D

 91 98  0  0  1  0  0  0  0  0999 V2000
  -29.1310  -21.6220   21.3840 C   0  0  0  0  0  0  0  0  0  0  0  0
  -28.8740  -22.9590   21.3570 N   0  0  0  0  0  0  0  0  0  0  0  0
  -29.1470  -21.0690   22.4830 O   0  0  0  0  0  0  0  0  0  0  0  0
  -28.7180  -23.3270   22.2860 H   0  0  0  0  0  0  0  0  0  0  0  0
  -29.3850  -20.7290   20.1370 C   0  0  0  0  0  2  0  0  0  0  0  0
  -29.6240  -18.1620   20.4760 C   0  0  0  0  0  2  0  0  0  0  0  0
  -30.3890  -17.0360   20.6610 N   0  0  0  0  0  0  0  0  0  0  0  0
  -30.1100  -19.4400   20.4360 N   0  0  0  0  0  0  0  0  0  0  0  0
  -31.4000  -17.0870   20.6790 H   0  0  0  0  0  0  0  0  0  0  0  0
  -31.0860  -19.5710   20.6570 H   0  0  0  0  0  0  0  0  0  0  0  0
  -30.5970  -14.6430   20.3540 C   0  0  0  0  0  0  0  0  0  0  0  0
  -30.3300  -12.4440   19.2460 C   0  0  0  0  0  2  0  0  0  0  0  0
  -29.3700  -12.6130   18.0490 C   0  0  0  0  0  2  0  0  0  0  0  0
  -27.9020  -12.4630   18.4980 C   0  0  0  0  0  2  0  0  0  0  0  0
  -27.5710  -13.3040   19.7590 C   0  0  0  0  0  3  0  0  0  0  0  0
  -28.6440  -13.1170   20.8550 C   0  0  0  0  0  2  0  0  0  0  0  0
  -29.9500  -13.4420   20.2610 N   0  0  0  0  0  0  0  0  0  0  0  0
  -31.7530  -14.7980   19.9460 O   0  0  0  0  0  0  0  0  0  0  0  0
  -29.8420  -15.7100   20.7340 N   0  0  0  0  0  0  0  0  0  0  0  0
  -28.8870  -15.7230   21.0550 H   0  0  0  0  0  0  0  0  0  0  0  0
  -25.1850  -13.9070   20.5010 C   0  0  0  0  0  0  0  0  0  0  0  0
  -24.1220  -13.1350   20.8850 C   0  0  0  0  0  0  0  0  0  0  0  0
  -24.5840  -11.7840   20.8510 C   0  0  0  0  0  0  0  0  0  0  0  0
  -26.2260  -13.0270   20.2570 N   0  0  0  0  0  0  0  0  0  0  0  0
  -25.8700  -11.7450   20.5270 N   0  0  0  0  0  0  0  0  0  0  0  0
  -23.8610  -10.5210   21.0490 C   0  0  0  0  0  0  0  0  0  0  0  0
  -24.3110   -9.5500   21.9700 C   0  0  0  0  0  3  0  0  0  0  0  0
  -23.5880   -8.3520   22.1580 C   0  0  0  0  0  3  0  0  0  0  0  0
  -22.4000   -8.1180   21.4240 C   0  0  0  0  0  0  0  0  0  0  0  0
  -21.9700   -9.0780   20.4920 C   0  0  0  0  0  3  0  0  0  0  0  0
  -22.6930  -10.2670   20.3030 C   0  0  0  0  0  3  0  0  0  0  0  0
  -21.6470   -6.9730   21.5210 O   0  0  0  0  0  0  0  0  0  0  0  0
  -21.6290   -6.2190   22.6660 C   0  0  0  0  0  0  0  0  0  0  0  0
  -21.2430   -6.7620   23.9110 C   0  0  0  0  0  3  0  0  0  0  0  0
  -21.1720   -5.9340   25.0500 C   0  0  0  0  0  3  0  0  0  0  0  0
  -21.4770   -4.5630   24.9440 C   0  0  0  0  0  0  0  0  0  0  0  0
  -21.8580   -4.0190   23.7040 C   0  0  0  0  0  3  0  0  0  0  0  0
  -21.9300   -4.8440   22.5680 C   0  0  0  0  0  0  0  0  0  0  0  0
  -22.2760   -4.3110   21.3720 F   0  0  0  0  0  0  0  0  0  0  0  0
  -21.4020   -3.7650   26.0340 F   0  0  0  0  0  0  0  0  0  0  0  0
  -22.7270  -13.6130   21.1700 C   0  0  0  0  0  0  0  0  0  0  0  0
  -22.0080  -12.9180   22.0450 N   0  0  0  0  0  0  0  0  0  0  0  0
  -22.2840  -14.6370   20.6540 O   0  0  0  0  0  0  0  0  0  0  0  0
  -22.3790  -12.0890   22.4850 H   0  0  0  0  0  0  0  0  0  0  0  0
  -21.0720  -13.2200   22.2790 H   0  0  0  0  0  0  0  0  0  0  0  0
  -25.3460  -15.2770   20.3150 N   0  0  0  0  0  0  0  0  0  0  0  0
  -24.5710  -15.9240   20.4150 H   0  0  0  0  0  0  0  0  0  0  0  0
  -26.1680  -15.7070   19.9110 H   0  0  0  0  0  0  0  0  0  0  0  0
  -28.8050  -24.0200   20.3170 C   0  0  0  0  0  2  0  0  0  0  0  0
  -28.2400  -25.3670   20.9250 C   0  0  0  0  0  2  0  0  0  0  0  0
  -28.3620  -26.6160   20.1740 O   0  0  0  0  0  0  0  0  0  0  0  0
  -24.6090  -31.9210   23.2480 C   0  0  0  0  0  0  0  0  0  0  0  0
  -27.2330  -27.4270   20.1730 C   0  0  0  0  0  0  0  0  0  0  0  0
  -23.3980  -30.5150   21.6150 C   0  0  0  0  0  3  0  0  0  0  0  0
  -24.8480  -28.9740   20.1820 C   0  0  0  0  0  0  0  0  0  0  0  0
  -25.9270  -30.8640   21.4060 C   0  0  0  0  0  2  0  0  0  0  0  0
  -26.0140  -29.4890   20.7640 C   0  0  0  0  0  0  0  0  0  0  0  0
  -27.2130  -28.7270   20.7490 C   0  0  0  0  0  3  0  0  0  0  0  0
  -26.0500  -26.9440   19.5750 C   0  0  0  0  0  3  0  0  0  0  0  0
  -24.8650  -27.7040   19.5790 C   0  0  0  0  0  3  0  0  0  0  0  0
  -23.6040  -29.8350   20.2350 C   0  0  0  0  0  2  0  0  0  0  0  0
  -24.6640  -31.1160   22.1480 N   0  0  0  0  0  0  0  0  0  0  0  0
  -23.5290  -32.1920   23.7930 O   0  0  0  0  0  0  0  0  0  0  0  0
  -22.7520  -29.4940   22.5820 C   0  0  0  0  0  0  0  0  0  0  0  0
  -21.4270  -29.3050   22.4600 N   0  0  0  0  0  0  0  0  0  0  0  0
  -23.4390  -28.8760   23.3980 O   0  0  0  0  0  0  0  0  0  0  0  0
  -20.9310  -29.8570   21.7740 H   0  0  0  0  0  0  0  0  0  0  0  0
  -18.0630  -28.0770   22.9590 C   0  0  0  0  0  0  0  0  0  0  0  0
  -20.6180  -28.3640   23.2350 C   0  0  0  0  0  3  0  0  0  0  0  0
  -20.7360  -26.9300   22.6670 C   0  0  0  0  0  2  0  0  0  0  0  0
  -19.6400  -26.5900   21.6530 C   0  0  0  0  0  2  0  0  0  0  0  0
  -18.2550  -26.7250   22.2930 C   0  0  0  0  0  2  0  0  0  0  0  0
  -19.1730  -28.8540   23.3870 C   0  0  0  0  0  0  0  0  0  0  0  0
  -18.9400  -30.1190   23.9690 C   0  0  0  0  0  3  0  0  0  0  0  0
  -17.6300  -30.6080   24.1270 C   0  0  0  0  0  3  0  0  0  0  0  0
  -16.5350  -29.8280   23.7160 C   0  0  0  0  0  3  0  0  0  0  0  0
  -16.7520  -28.5650   23.1390 C   0  0  0  0  0  3  0  0  0  0  0  0
  -25.8960  -32.5580   23.8600 C   0  0  0  0  0  3  0  0  0  0  0  0
  -26.4190  -31.7940   25.1380 C   0  0  1  0  0  0  0  0  0  0  0  0
  -25.3330  -31.5630   26.2140 C   0  0  0  0  0  1  0  0  0  0  0  0
  -27.0000  -30.4140   24.7500 C   0  0  0  0  0  1  0  0  0  0  0  0
  -27.5740  -32.5920   25.7890 C   0  0  0  0  0  1  0  0  0  0  0  0
  -25.5870  -33.9580   24.1830 N   0  0  0  0  0  0  0  0  0  0  0  0
  -25.9210  -35.0050   23.4190 C   0  0  0  0  0  0  0  0  0  0  0  0
  -26.5920  -34.8970   22.3880 O   0  0  0  0  0  0  0  0  0  0  0  0
  -24.9950  -34.1170   24.9840 H   0  0  0  0  0  0  0  0  0  0  0  0
  -24.1960  -36.7990   23.0500 C   0  0  0  0  0  1  0  0  0  0  0  0
  -25.4350  -36.3970   23.8680 C   0  0  0  0  0  3  0  0  0  0  0  0
  -27.5680  -37.2810   24.7030 C   0  0  0  0  0  1  0  0  0  0  0  0
  -26.4690  -37.4480   23.7550 N   0  0  0  0  0  0  0  0  0  0  0  0
  -26.0650  -38.3700   23.8970 H   0  0  0  0  0  0  0  0  0  0  0  0
  1  3  2  0
  2  1  1  0
  2  4  1  0
  5  8  1  0
  5  1  1  0
  6  7  1  0
  7  9  1  0
  7 19  1  0
  8  6  1  0
  8 10  1  0
 11 19  1  0
 12 17  1  0
 13 14  1  0
 13 12  1  0
 15 14  1  0
 15 24  1  0
 15 16  1  0
 17 11  1  0
 17 16  1  0
 18 11  2  0
 19 20  1  0
 21 22  2  0
 22 41  1  0
 23 22  1  0
 23 26  1  0
 24 21  1  0
 24 25  1  0
 25 23  2  0
 26 27  1  0
 27 28  2  0
 29 32  1  0
 29 28  1  0
 30 29  2  0
 31 30  1  0
 31 26  2  0
 32 33  1  0
 33 34  1  0
 34 35  2  0
 36 35  1  0
 36 40  1  0
 37 36  2  0
 38 33  2  0
 38 37  1  0
 39 38  1  0
 41 42  1  0
 42 45  1  0
 42 44  1  0
 43 41  2  0
 46 47  1  0
 46 21  1  0
 48 46  1  0
 49 50  1  0
 49  2  1  0
 51 50  1  0
 52 63  2  0
 53 51  1  0
 53 58  1  0
 54 62  1  0
 54 64  1  0
 55 61  1  0
 55 57  1  0
 56 62  1  0
 57 56  1  0
 58 57  2  0
 59 60  1  0
 59 53  2  0
 60 55  2  0
 61 54  1  0
 62 52  1  0
 64 66  2  0
 65 64  1  0
 67 65  1  0
 68 77  2  0
 68 73  1  0
 69 65  1  0
 69 73  1  0
 70 69  1  0
 71 72  1  0
 71 70  1  0
 72 68  1  0
 73 74  2  0
 74 75  1  0
 76 75  2  0
 77 76  1  0
 78 52  1  0
 78 83  1  0
 78 79  1  0
 79 82  1  1
 79 80  1  0
 81 79  1  0
 83 86  1  0
 84 88  1  0
 84 83  1  0
 85 84  2  0
 88 87  1  0
 90 88  1  0
 90 91  1  0
 90 89  1  0
M  ISO  4  11 100  19 100  50 101  51 101
M  END
>  <TORSDO>  (43) 
F 20

>  <SCORE>  (43) 
-13.591

>  <name>  (43) 
44

>  <ligand_id>  (43) 
44

>  <original_smiles>  (43) 
[H]C(N([H])N([H])C(=O)N1C([H])([H])C([H])([H])C([H])([H])C([H])(n2nc(-c3c([H])c([H])c(Oc4c([H])c([H])c(F)c([H])c4F)c([H])c3[H])c(C(=O)N([H])[H])c2N([H])[H])C1([H])[H])=[N+]([H])C([H])([H])C(=O)N([H])C([H])([H])C([H])([H])Oc1c([H])c([H])c2c(c1[H])C([H])([H])N(C(=O)C([H])(N([H])C(=O)C([H])(N([H])C([H])([H])[H])C([H])([H])[H])C(C([H])([H])[H])(C([H])([H])[H])C([H])([H])[H])C([H])(C(=O)N([H])C1([H])c3c([H])c([H])c([H])c([H])c3C([H])([H])C([H])([H])C1([H])[H])C2([H])[H]

>  <smiles>  (43) 
[H]C(N([H])N([H])C(=O)N1C([H])([H])C([H])([H])C([H])([H])C([H])(n2nc(-c3c([H])c([H])c(Oc4c([H])c([H])c(F)c([H])c4F)c([H])c3[H])c(C(=O)N([H])[H])c2N([H])[H])C1([H])[H])=[N+]([H])C([H])([H])C(=O)N([H])C([H])([H])C([H])([H])Oc1c([H])c([H])c2c(c1[H])C([H])([H])N(C(=O)C([H])(N([H])C(=O)C([H])(N([H])C([H])([H])[H])C([H])([H])[H])C(C([H])([H])[H])(C([H])([H])[H])C([H])([H])[H])C([H])(C(=O)N([H])C1([H])c3c([H])c([H])c([H])c([H])c3C([H])([H])C([H])([H])C1([H])[H])C2([H])[H]

$$$$
45:0:0
     RDKit          3D

 89 96  0  0  1  0  0  0  0  0999 V2000
  -28.8090  -22.9630   19.7550 N   0  0  0  0  0  4  0  0  0  0  0  0
  -27.9360  -22.6970   19.3250 H   0  0  0  0  0  0  0  0  0  0  0  0
  -29.4910  -23.0500   19.0180 H   0  0  0  0  0  0  0  0  0  0  0  0
  -29.2590  -21.8660   20.6560 C   0  0  0  0  0  2  0  0  0  0  0  0
  -29.2120  -20.4490   20.0140 C   0  0  0  0  0  2  0  0  0  0  0  0
  -29.8550  -19.3470   20.9000 C   0  0  0  0  0  2  0  0  0  0  0  0
  -29.6250  -17.8840   20.4320 C   0  0  0  0  0  2  0  0  0  0  0  0
  -30.3840  -16.8410   21.2990 C   0  0  0  0  0  2  0  0  0  0  0  0
  -30.6620  -14.4670   20.4540 C   0  0  0  0  0  0  0  0  0  0  0  0
  -30.3600  -12.3190   19.2760 C   0  0  0  0  0  2  0  0  0  0  0  0
  -29.3980  -12.5260   18.0870 C   0  0  0  0  0  2  0  0  0  0  0  0
  -27.9290  -12.3930   18.5360 C   0  0  0  0  0  2  0  0  0  0  0  0
  -27.6130  -13.2230   19.8080 C   0  0  0  0  0  3  0  0  0  0  0  0
  -28.6780  -12.9770   20.8990 C   0  0  0  0  0  2  0  0  0  0  0  0
  -29.9950  -13.2900   20.3180 N   0  0  0  0  0  0  0  0  0  0  0  0
  -31.7760  -14.6720   19.9610 O   0  0  0  0  0  0  0  0  0  0  0  0
  -29.9660  -15.4500   21.0570 N   0  0  0  0  0  0  0  0  0  0  0  0
  -29.0560  -15.1850   21.4040 H   0  0  0  0  0  0  0  0  0  0  0  0
  -25.2240  -13.8430   20.5430 C   0  0  0  0  0  0  0  0  0  0  0  0
  -24.1560  -13.0760   20.9210 C   0  0  0  0  0  0  0  0  0  0  0  0
  -24.6080  -11.7210   20.8790 C   0  0  0  0  0  0  0  0  0  0  0  0
  -26.2620  -12.9560   20.2990 N   0  0  0  0  0  0  0  0  0  0  0  0
  -25.8950  -11.6750   20.5560 N   0  0  0  0  0  0  0  0  0  0  0  0
  -23.8770  -10.4620   21.0710 C   0  0  0  0  0  0  0  0  0  0  0  0
  -24.3330   -9.4740   21.9720 C   0  0  0  0  0  3  0  0  0  0  0  0
  -23.6040   -8.2790   22.1520 C   0  0  0  0  0  3  0  0  0  0  0  0
  -22.4040   -8.0650   21.4310 C   0  0  0  0  0  0  0  0  0  0  0  0
  -21.9670   -9.0420   20.5200 C   0  0  0  0  0  3  0  0  0  0  0  0
  -22.6970  -10.2280   20.3370 C   0  0  0  0  0  3  0  0  0  0  0  0
  -21.6440   -6.9250   21.5230 O   0  0  0  0  0  0  0  0  0  0  0  0
  -21.6460   -6.1470   22.6530 C   0  0  0  0  0  0  0  0  0  0  0  0
  -21.3110   -6.6710   23.9200 C   0  0  0  0  0  3  0  0  0  0  0  0
  -21.2590   -5.8210   25.0430 C   0  0  0  0  0  3  0  0  0  0  0  0
  -21.5320   -4.4480   24.9010 C   0  0  0  0  0  0  0  0  0  0  0  0
  -21.8600   -3.9220   23.6390 C   0  0  0  0  0  3  0  0  0  0  0  0
  -21.9140   -4.7690   22.5170 C   0  0  0  0  0  0  0  0  0  0  0  0
  -22.2110   -4.2540   21.3000 F   0  0  0  0  0  0  0  0  0  0  0  0
  -21.4740   -3.6290   25.9770 F   0  0  0  0  0  0  0  0  0  0  0  0
  -22.7630  -13.5590   21.2110 C   0  0  0  0  0  0  0  0  0  0  0  0
  -22.0420  -12.8620   22.0810 N   0  0  0  0  0  0  0  0  0  0  0  0
  -22.3250  -14.5890   20.7010 O   0  0  0  0  0  0  0  0  0  0  0  0
  -22.4100  -12.0280   22.5150 H   0  0  0  0  0  0  0  0  0  0  0  0
  -21.1090  -13.1670   22.3200 H   0  0  0  0  0  0  0  0  0  0  0  0
  -25.3970  -15.2130   20.3700 N   0  0  0  0  0  0  0  0  0  0  0  0
  -24.6380  -15.8750   20.4950 H   0  0  0  0  0  0  0  0  0  0  0  0
  -26.2480  -15.6460   20.0310 H   0  0  0  0  0  0  0  0  0  0  0  0
  -28.6310  -24.2910   20.4190 C   0  0  0  0  0  2  0  0  0  0  0  0
  -28.6020  -25.4860   19.4320 C   0  0  0  0  0  2  0  0  0  0  0  0
  -28.4380  -26.7460   20.1130 O   0  0  0  0  0  0  0  0  0  0  0  0
  -24.6050  -31.8860   23.2280 C   0  0  0  0  0  0  0  0  0  0  0  0
  -27.2280  -27.4220   20.1280 C   0  0  0  0  0  0  0  0  0  0  0  0
  -23.3840  -30.4790   21.6030 C   0  0  0  0  0  3  0  0  0  0  0  0
  -24.8250  -28.9320   20.1760 C   0  0  0  0  0  0  0  0  0  0  0  0
  -25.9110  -30.8310   21.3830 C   0  0  0  0  0  2  0  0  0  0  0  0
  -25.9880  -29.4560   20.7480 C   0  0  0  0  0  0  0  0  0  0  0  0
  -27.1890  -28.7070   20.7220 C   0  0  0  0  0  3  0  0  0  0  0  0
  -26.0310  -26.9030   19.5780 C   0  0  0  0  0  3  0  0  0  0  0  0
  -24.8400  -27.6530   19.5950 C   0  0  0  0  0  3  0  0  0  0  0  0
  -23.5830  -29.7930   20.2260 C   0  0  0  0  0  2  0  0  0  0  0  0
  -24.6530  -31.0800   22.1300 N   0  0  0  0  0  0  0  0  0  0  0  0
  -23.5270  -32.1610   23.7750 O   0  0  0  0  0  0  0  0  0  0  0  0
  -22.7420  -29.4610   22.5720 C   0  0  0  0  0  0  0  0  0  0  0  0
  -21.4170  -29.2760   22.4540 N   0  0  0  0  0  0  0  0  0  0  0  0
  -23.4320  -28.8400   23.3850 O   0  0  0  0  0  0  0  0  0  0  0  0
  -20.9210  -29.8280   21.7680 H   0  0  0  0  0  0  0  0  0  0  0  0
  -18.0480  -28.0720   22.9670 C   0  0  0  0  0  0  0  0  0  0  0  0
  -20.6060  -28.3410   23.2330 C   0  0  0  0  0  3  0  0  0  0  0  0
  -20.7130  -26.9060   22.6660 C   0  0  0  0  0  2  0  0  0  0  0  0
  -19.6100  -26.5730   21.6560 C   0  0  0  0  0  2  0  0  0  0  0  0
  -18.2300  -26.7190   22.3010 C   0  0  0  0  0  2  0  0  0  0  0  0
  -19.1660  -28.8410   23.3890 C   0  0  0  0  0  0  0  0  0  0  0  0
  -18.9440  -30.1090   23.9700 C   0  0  0  0  0  3  0  0  0  0  0  0
  -17.6390  -30.6090   24.1320 C   0  0  0  0  0  3  0  0  0  0  0  0
  -16.5360  -29.8370   23.7270 C   0  0  0  0  0  3  0  0  0  0  0  0
  -16.7420  -28.5700   23.1500 C   0  0  0  0  0  3  0  0  0  0  0  0
  -25.8950  -32.5190   23.8350 C   0  0  0  0  0  3  0  0  0  0  0  0
  -26.4310  -31.7460   25.1020 C   0  0  1  0  0  0  0  0  0  0  0  0
  -25.3520  -31.5030   26.1830 C   0  0  0  0  0  1  0  0  0  0  0  0
  -27.0130  -30.3710   24.6970 C   0  0  0  0  0  1  0  0  0  0  0  0
  -27.5890  -32.5420   25.7510 C   0  0  0  0  0  1  0  0  0  0  0  0
  -25.5850  -33.9160   24.1710 N   0  0  0  0  0  0  0  0  0  0  0  0
  -25.9070  -34.9690   23.4080 C   0  0  0  0  0  0  0  0  0  0  0  0
  -26.5670  -34.8700   22.3710 O   0  0  0  0  0  0  0  0  0  0  0  0
  -24.9950  -34.0670   24.9760 H   0  0  0  0  0  0  0  0  0  0  0  0
  -24.1640  -36.7520   23.0810 C   0  0  0  0  0  1  0  0  0  0  0  0
  -25.4190  -36.3550   23.8730 C   0  0  0  0  0  3  0  0  0  0  0  0
  -27.5650  -37.2470   24.6680 C   0  0  0  0  0  1  0  0  0  0  0  0
  -26.4460  -37.4130   23.7450 N   0  0  0  0  0  0  0  0  0  0  0  0
  -26.0380  -38.3300   23.9040 H   0  0  0  0  0  0  0  0  0  0  0  0
  1 47  1  0
  1  4  1  0
  2  1  1  0
  3  1  1  0
  5  4  1  0
  5  6  1  0
  7  6  1  0
  7  8  1  0
  9 17  1  0
 10 15  1  0
 11 12  1  0
 11 10  1  0
 13 12  1  0
 13 22  1  0
 13 14  1  0
 15  9  1  0
 15 14  1  0
 16  9  2  0
 17  8  1  0
 17 18  1  0
 19 20  2  0
 20 39  1  0
 21 20  1  0
 21 24  1  0
 22 19  1  0
 22 23  1  0
 23 21  2  0
 24 25  1  0
 25 26  2  0
 27 30  1  0
 27 26  1  0
 28 27  2  0
 29 28  1  0
 29 24  2  0
 30 31  1  0
 31 32  1  0
 32 33  2  0
 34 33  1  0
 34 38  1  0
 35 34  2  0
 36 31  2  0
 36 35  1  0
 37 36  1  0
 39 40  1  0
 40 43  1  0
 40 42  1  0
 41 39  2  0
 44 45  1  0
 44 19  1  0
 46 44  1  0
 48 49  1  0
 48 47  1  0
 49 51  1  0
 50 61  2  0
 51 56  1  0
 52 60  1  0
 52 62  1  0
 53 59  1  0
 53 55  1  0
 54 60  1  0
 55 54  1  0
 56 55  2  0
 57 58  1  0
 57 51  2  0
 58 53  2  0
 59 52  1  0
 60 50  1  0
 62 64  2  0
 63 62  1  0
 65 63  1  0
 66 75  2  0
 66 71  1  0
 67 63  1  0
 67 71  1  0
 68 67  1  0
 69 70  1  0
 69 68  1  0
 70 66  1  0
 71 72  2  0
 72 73  1  0
 74 73  2  0
 75 74  1  0
 76 50  1  0
 76 81  1  0
 76 77  1  0
 77 80  1  1
 77 78  1  0
 79 77  1  0
 81 84  1  0
 82 86  1  0
 82 81  1  0
 83 82  2  0
 86 85  1  0
 88 86  1  0
 88 89  1  0
 88 87  1  0
M  ISO  4   9 100  17 100  48 101  49 101
M  END
>  <TORSDO>  (44) 
F 23

>  <SCORE>  (44) 
-12.591

>  <name>  (44) 
45

>  <ligand_id>  (44) 
45

>  <original_smiles>  (44) 
[H]c1c([H])c([H])c2c(c1[H])C([H])([H])C([H])([H])C([H])([H])C2([H])N([H])C(=O)C1([H])N(C(=O)C([H])(N([H])C(=O)C([H])(N([H])C([H])([H])[H])C([H])([H])[H])C(C([H])([H])[H])(C([H])([H])[H])C([H])([H])[H])C([H])([H])c2c([H])c(OC([H])([H])C([H])([H])[N+]([H])([H])C([H])([H])C([H])([H])C([H])([H])C([H])([H])C([H])([H])N([H])C(=O)N3C([H])([H])C([H])([H])C([H])([H])C([H])(n4nc(-c5c([H])c([H])c(Oc6c([H])c([H])c(F)c([H])c6F)c([H])c5[H])c(C(=O)N([H])[H])c4N([H])[H])C3([H])[H])c([H])c([H])c2C1([H])[H]

>  <smiles>  (44) 
[H]c1c([H])c([H])c2c(c1[H])C([H])([H])C([H])([H])C([H])([H])C2([H])N([H])C(=O)C1([H])N(C(=O)C([H])(N([H])C(=O)C([H])(N([H])C([H])([H])[H])C([H])([H])[H])C(C([H])([H])[H])(C([H])([H])[H])C([H])([H])[H])C([H])([H])c2c([H])c(OC([H])([H])C([H])([H])[N+]([H])([H])C([H])([H])C([H])([H])C([H])([H])C([H])([H])C([H])([H])N([H])C(=O)N3C([H])([H])C([H])([H])C([H])([H])C([H])(n4nc(-c5c([H])c([H])c(Oc6c([H])c([H])c(F)c([H])c6F)c([H])c5[H])c(C(=O)N([H])[H])c4N([H])[H])C3([H])[H])c([H])c([H])c2C1([H])[H]

$$$$
46:0:0
     RDKit          3D

 92 99  0  0  1  0  0  0  0  0999 V2000
  -27.7450  -22.0340   20.9010 C   0  0  0  0  0  2  0  0  0  0  0  0
  -28.2720  -23.1040   20.0190 N   0  0  0  0  0  4  0  0  0  0  0  0
  -27.8640  -22.9850   19.1020 H   0  0  0  0  0  0  0  0  0  0  0  0
  -29.2690  -22.9970   19.9210 H   0  0  0  0  0  0  0  0  0  0  0  0
  -27.9950  -24.4780   20.4990 C   0  0  0  0  0  2  0  0  0  0  0  0
  -28.5300  -25.5480   19.5250 C   0  0  0  0  0  2  0  0  0  0  0  0
  -28.4170  -26.8520   20.0900 O   0  0  0  0  0  0  0  0  0  0  0  0
  -24.5730  -31.9140   23.2300 C   0  0  0  0  0  0  0  0  0  0  0  0
  -27.2020  -27.5040   20.0970 C   0  0  0  0  0  0  0  0  0  0  0  0
  -23.3540  -30.5180   21.5920 C   0  0  0  0  0  3  0  0  0  0  0  0
  -24.7910  -28.9860   20.1510 C   0  0  0  0  0  0  0  0  0  0  0  0
  -25.8730  -30.8800   21.3730 C   0  0  0  0  0  2  0  0  0  0  0  0
  -25.9510  -29.5100   20.7350 C   0  0  0  0  0  0  0  0  0  0  0  0
  -27.1530  -28.7740   20.7110 C   0  0  0  0  0  3  0  0  0  0  0  0
  -26.0200  -26.9840   19.5170 C   0  0  0  0  0  3  0  0  0  0  0  0
  -24.8190  -27.7190   19.5450 C   0  0  0  0  0  3  0  0  0  0  0  0
  -23.5480  -29.8420   20.2090 C   0  0  0  0  0  2  0  0  0  0  0  0
  -24.6190  -31.1190   22.1230 N   0  0  0  0  0  0  0  0  0  0  0  0
  -23.4960  -32.1850   23.7800 O   0  0  0  0  0  0  0  0  0  0  0  0
  -22.7110  -29.4930   22.5540 C   0  0  0  0  0  0  0  0  0  0  0  0
  -21.3870  -29.3070   22.4300 N   0  0  0  0  0  0  0  0  0  0  0  0
  -23.4000  -28.8670   23.3630 O   0  0  0  0  0  0  0  0  0  0  0  0
  -20.8920  -29.8670   21.7500 H   0  0  0  0  0  0  0  0  0  0  0  0
  -18.0170  -28.1040   22.9310 C   0  0  0  0  0  0  0  0  0  0  0  0
  -20.5750  -28.3660   23.1970 C   0  0  0  0  0  3  0  0  0  0  0  0
  -20.6800  -26.9370   22.6160 C   0  0  0  0  0  2  0  0  0  0  0  0
  -19.5750  -26.6180   21.6050 C   0  0  0  0  0  2  0  0  0  0  0  0
  -18.1960  -26.7550   22.2550 C   0  0  0  0  0  2  0  0  0  0  0  0
  -19.1360  -28.8670   23.3590 C   0  0  0  0  0  0  0  0  0  0  0  0
  -18.9180  -30.1300   23.9490 C   0  0  0  0  0  3  0  0  0  0  0  0
  -17.6120  -30.6300   24.1180 C   0  0  0  0  0  3  0  0  0  0  0  0
  -16.5080  -29.8630   23.7060 C   0  0  0  0  0  3  0  0  0  0  0  0
  -16.7120  -28.6020   23.1180 C   0  0  0  0  0  3  0  0  0  0  0  0
  -25.8650  -32.5400   23.8430 C   0  0  0  0  0  3  0  0  0  0  0  0
  -25.5630  -33.9380   24.1770 N   0  0  0  0  0  0  0  0  0  0  0  0
  -25.9000  -34.9890   23.4180 C   0  0  0  0  0  0  0  0  0  0  0  0
  -26.5710  -34.8830   22.3870 O   0  0  0  0  0  0  0  0  0  0  0  0
  -24.9670  -34.0930   24.9770 H   0  0  0  0  0  0  0  0  0  0  0  0
  -24.1820  -36.7890   23.0520 C   0  0  0  0  0  1  0  0  0  0  0  0
  -25.4160  -36.3790   23.8740 C   0  0  0  0  0  3  0  0  0  0  0  0
  -27.5490  -37.2480   24.7230 C   0  0  0  0  0  1  0  0  0  0  0  0
  -26.4550  -37.4270   23.7710 N   0  0  0  0  0  0  0  0  0  0  0  0
  -26.0540  -38.3490   23.9170 H   0  0  0  0  0  0  0  0  0  0  0  0
  -26.3890  -31.7650   25.1150 C   0  0  1  0  0  0  0  0  0  0  0  0
  -25.3020  -31.5230   26.1890 C   0  0  0  0  0  1  0  0  0  0  0  0
  -26.9660  -30.3890   24.7100 C   0  0  0  0  0  1  0  0  0  0  0  0
  -27.5470  -32.5540   25.7690 C   0  0  0  0  0  1  0  0  0  0  0  0
  -28.4590  -20.6840   20.6820 C   0  0  0  0  0  2  0  0  0  0  0  0
  -29.6770  -20.4720   21.6110 C   0  0  0  0  0  2  0  0  0  0  0  0
  -30.5030  -19.3060   21.2210 N   0  0  0  0  0  4  0  0  0  0  0  0
  -30.8100  -19.4240   20.2710 H   0  0  0  0  0  0  0  0  0  0  0  0
  -31.3330  -19.3190   21.7930 H   0  0  0  0  0  0  0  0  0  0  0  0
  -29.8690  -17.9770   21.3640 C   0  0  0  0  0  2  0  0  0  0  0  0
  -30.7640  -16.8880   20.7490 C   0  0  0  0  0  2  0  0  0  0  0  0
  -30.8480  -14.4740   20.3380 C   0  0  0  0  0  0  0  0  0  0  0  0
  -30.4730  -12.3270   19.2150 C   0  0  0  0  0  2  0  0  0  0  0  0
  -29.5310  -12.5440   18.0120 C   0  0  0  0  0  2  0  0  0  0  0  0
  -28.0600  -12.4340   18.4530 C   0  0  0  0  0  2  0  0  0  0  0  0
  -27.7380  -13.2870   19.7070 C   0  0  0  0  0  3  0  0  0  0  0  0
  -28.7990  -13.0840   20.8140 C   0  0  0  0  0  2  0  0  0  0  0  0
  -30.1280  -13.3300   20.2320 N   0  0  0  0  0  0  0  0  0  0  0  0
  -31.9650  -14.6180   19.8400 O   0  0  0  0  0  0  0  0  0  0  0  0
  -30.2150  -15.5310   20.8630 N   0  0  0  0  0  0  0  0  0  0  0  0
  -29.2840  -15.3950   21.2300 H   0  0  0  0  0  0  0  0  0  0  0  0
  -25.3390  -13.9100   20.4120 C   0  0  0  0  0  0  0  0  0  0  0  0
  -24.2700  -13.1440   20.7920 C   0  0  0  0  0  0  0  0  0  0  0  0
  -24.7290  -11.7900   20.7770 C   0  0  0  0  0  0  0  0  0  0  0  0
  -26.3840  -13.0250   20.1940 N   0  0  0  0  0  0  0  0  0  0  0  0
  -26.0200  -11.7470   20.4730 N   0  0  0  0  0  0  0  0  0  0  0  0
  -24.0020  -10.5300   20.9780 C   0  0  0  0  0  0  0  0  0  0  0  0
  -24.4280   -9.5720   21.9240 C   0  0  0  0  0  3  0  0  0  0  0  0
  -23.7000   -8.3790   22.1110 C   0  0  0  0  0  3  0  0  0  0  0  0
  -22.5290   -8.1340   21.3540 C   0  0  0  0  0  0  0  0  0  0  0  0
  -22.1220   -9.0810   20.3980 C   0  0  0  0  0  3  0  0  0  0  0  0
  -22.8510  -10.2670   20.2080 C   0  0  0  0  0  3  0  0  0  0  0  0
  -21.7700   -6.9920   21.4530 O   0  0  0  0  0  0  0  0  0  0  0  0
  -21.7140   -6.2620   22.6140 C   0  0  0  0  0  0  0  0  0  0  0  0
  -21.2870   -6.8330   23.8330 C   0  0  0  0  0  3  0  0  0  0  0  0
  -21.1800   -6.0290   24.9860 C   0  0  0  0  0  3  0  0  0  0  0  0
  -21.4900   -4.6580   24.9200 C   0  0  0  0  0  0  0  0  0  0  0  0
  -21.9080   -4.0870   23.7070 C   0  0  0  0  0  3  0  0  0  0  0  0
  -22.0200   -4.8870   22.5560 C   0  0  0  0  0  0  0  0  0  0  0  0
  -22.4040   -4.3280   21.3830 F   0  0  0  0  0  0  0  0  0  0  0  0
  -21.3770   -3.8840   26.0260 F   0  0  0  0  0  0  0  0  0  0  0  0
  -22.8720  -13.6250   21.0590 C   0  0  0  0  0  0  0  0  0  0  0  0
  -22.1360  -12.9440   21.9300 N   0  0  0  0  0  0  0  0  0  0  0  0
  -22.4390  -14.6470   20.5250 O   0  0  0  0  0  0  0  0  0  0  0  0
  -22.4910  -12.1210   22.3930 H   0  0  0  0  0  0  0  0  0  0  0  0
  -21.1960  -13.2540   22.1400 H   0  0  0  0  0  0  0  0  0  0  0  0
  -25.5080  -15.2780   20.2070 N   0  0  0  0  0  0  0  0  0  0  0  0
  -24.7380  -15.9340   20.2740 H   0  0  0  0  0  0  0  0  0  0  0  0
  -26.3480  -15.6930   19.8230 H   0  0  0  0  0  0  0  0  0  0  0  0
  2  5  1  0
  2  1  1  0
  3  2  1  0
  4  2  1  0
  6  7  1  0
  6  5  1  0
  7  9  1  0
  8 19  2  0
  9 14  1  0
 10 18  1  0
 10 20  1  0
 11 17  1  0
 11 13  1  0
 12 18  1  0
 13 12  1  0
 14 13  2  0
 15 16  1  0
 15  9  2  0
 16 11  2  0
 17 10  1  0
 18  8  1  0
 20 22  2  0
 21 20  1  0
 23 21  1  0
 24 33  2  0
 24 29  1  0
 25 21  1  0
 25 29  1  0
 26 25  1  0
 27 28  1  0
 27 26  1  0
 28 24  1  0
 29 30  2  0
 30 31  1  0
 32 31  2  0
 33 32  1  0
 34  8  1  0
 34 35  1  0
 34 44  1  0
 35 38  1  0
 36 40  1  0
 36 35  1  0
 37 36  2  0
 40 39  1  0
 42 40  1  0
 42 43  1  0
 42 41  1  0
 44 47  1  1
 44 45  1  0
 46 44  1  0
 48  1  1  0
 48 49  1  0
 50 53  1  0
 50 49  1  0
 50 52  1  0
 51 50  1  0
 54 63  1  0
 54 53  1  0
 55 63  1  0
 56 61  1  0
 57 58  1  0
 57 56  1  0
 59 58  1  0
 59 68  1  0
 59 60  1  0
 61 55  1  0
 61 60  1  0
 62 55  2  0
 63 64  1  0
 65 66  2  0
 66 85  1  0
 67 66  1  0
 67 70  1  0
 68 65  1  0
 68 69  1  0
 69 67  2  0
 70 71  1  0
 71 72  2  0
 73 76  1  0
 73 72  1  0
 74 73  2  0
 75 74  1  0
 75 70  2  0
 76 77  1  0
 77 78  1  0
 78 79  2  0
 80 79  1  0
 80 84  1  0
 81 80  2  0
 82 77  2  0
 82 81  1  0
 83 82  1  0
 85 86  1  0
 86 89  1  0
 86 88  1  0
 87 85  2  0
 90 91  1  0
 90 65  1  0
 92 90  1  0
M  ISO  4   6 101   7 101  55 100  63 100
M  END
>  <TORSDO>  (45) 
F 24

>  <SCORE>  (45) 
-12.253

>  <name>  (45) 
46

>  <ligand_id>  (45) 
46

>  <original_smiles>  (45) 
[H]c1c([H])c([H])c2c(c1[H])C([H])([H])C([H])([H])C([H])([H])C2([H])N([H])C(=O)C1([H])N(C(=O)C([H])(N([H])C(=O)C([H])(N([H])C([H])([H])[H])C([H])([H])[H])C(C([H])([H])[H])(C([H])([H])[H])C([H])([H])[H])C([H])([H])c2c([H])c(OC([H])([H])C([H])([H])[N+]([H])([H])C([H])([H])C([H])([H])C([H])([H])[N+]([H])([H])C([H])([H])C([H])([H])N([H])C(=O)N3C([H])([H])C([H])([H])C([H])([H])C([H])(n4nc(-c5c([H])c([H])c(Oc6c([H])c([H])c(F)c([H])c6F)c([H])c5[H])c(C(=O)N([H])[H])c4N([H])[H])C3([H])[H])c([H])c([H])c2C1([H])[H]

>  <smiles>  (45) 
[H]c1c([H])c([H])c2c(c1[H])C([H])([H])C([H])([H])C([H])([H])C2([H])N([H])C(=O)C1([H])N(C(=O)C([H])(N([H])C(=O)C([H])(N([H])C([H])([H])[H])C([H])([H])[H])C(C([H])([H])[H])(C([H])([H])[H])C([H])([H])[H])C([H])([H])c2c([H])c(OC([H])([H])C([H])([H])[N+]([H])([H])C([H])([H])C([H])([H])C([H])([H])[N+]([H])([H])C([H])([H])C([H])([H])N([H])C(=O)N3C([H])([H])C([H])([H])C([H])([H])C([H])(n4nc(-c5c([H])c([H])c(Oc6c([H])c([H])c(F)c([H])c6F)c([H])c5[H])c(C(=O)N([H])[H])c4N([H])[H])C3([H])[H])c([H])c([H])c2C1([H])[H]

$$$$
47:0:0
     RDKit          3D

 93100  0  0  1  0  0  0  0  0999 V2000
  -29.0440  -23.5270   19.7320 C   0  0  0  0  0  0  0  0  0  0  0  0
  -29.0850  -24.2390   18.6020 N   0  0  0  0  0  0  0  0  0  0  0  0
  -29.4430  -23.9620   20.8150 O   0  0  0  0  0  0  0  0  0  0  0  0
  -28.7240  -23.8060   17.7630 H   0  0  0  0  0  0  0  0  0  0  0  0
  -28.5560  -22.1810   19.4880 C   0  0  0  0  0  3  0  0  0  0  0  0
  -28.8190  -21.1940   20.3660 C   0  0  0  0  0  3  0  0  0  0  0  0
  -28.4240  -19.7400   20.1740 C   0  0  0  0  0  2  0  0  0  0  0  0
  -30.2410  -19.2160   18.5680 C   0  0  0  0  0  1  0  0  0  0  0  0
  -29.6090  -18.8900   19.8740 N   0  0  2  0  0  4  0  0  0  0  0  0
  -30.2970  -19.1160   20.5770 H   0  0  0  0  0  0  0  0  0  0  0  0
  -29.3480  -17.4310   20.0100 C   0  0  0  0  0  2  0  0  0  0  0  0
  -30.1670  -16.7880   21.1550 C   0  0  0  0  0  2  0  0  0  0  0  0
  -30.6540  -14.4160   20.5360 C   0  0  0  0  0  0  0  0  0  0  0  0
  -30.3770  -12.3000   19.3070 C   0  0  0  0  0  2  0  0  0  0  0  0
  -29.4210  -12.5450   18.1190 C   0  0  0  0  0  2  0  0  0  0  0  0
  -27.9450  -12.4140   18.5470 C   0  0  0  0  0  2  0  0  0  0  0  0
  -27.6250  -13.2100   19.8380 C   0  0  0  0  0  3  0  0  0  0  0  0
  -28.6770  -12.9120   20.9340 C   0  0  0  0  0  2  0  0  0  0  0  0
  -30.0060  -13.2320   20.3810 N   0  0  0  0  0  0  0  0  0  0  0  0
  -31.7290  -14.6850   19.9940 O   0  0  0  0  0  0  0  0  0  0  0  0
  -29.9510  -15.3410   21.2020 N   0  0  0  0  0  0  0  0  0  0  0  0
  -29.0960  -15.0220   21.6330 H   0  0  0  0  0  0  0  0  0  0  0  0
  -25.2150  -13.8280   20.5150 C   0  0  0  0  0  0  0  0  0  0  0  0
  -24.1440  -13.0590   20.8870 C   0  0  0  0  0  0  0  0  0  0  0  0
  -24.6050  -11.7070   20.8660 C   0  0  0  0  0  0  0  0  0  0  0  0
  -26.2650  -12.9460   20.3040 N   0  0  0  0  0  0  0  0  0  0  0  0
  -25.8960  -11.6670   20.5630 N   0  0  0  0  0  0  0  0  0  0  0  0
  -23.8760  -10.4460   21.0630 C   0  0  0  0  0  0  0  0  0  0  0  0
  -24.3220   -9.4720   21.9830 C   0  0  0  0  0  3  0  0  0  0  0  0
  -23.5970   -8.2760   22.1670 C   0  0  0  0  0  3  0  0  0  0  0  0
  -22.4120   -8.0430   21.4280 C   0  0  0  0  0  0  0  0  0  0  0  0
  -21.9880   -9.0050   20.4950 C   0  0  0  0  0  3  0  0  0  0  0  0
  -22.7130  -10.1940   20.3110 C   0  0  0  0  0  3  0  0  0  0  0  0
  -21.6570   -6.8990   21.5230 O   0  0  0  0  0  0  0  0  0  0  0  0
  -21.6420   -6.1410   22.6640 C   0  0  0  0  0  0  0  0  0  0  0  0
  -21.2680   -6.6840   23.9130 C   0  0  0  0  0  3  0  0  0  0  0  0
  -21.1940   -5.8510   25.0480 C   0  0  0  0  0  3  0  0  0  0  0  0
  -21.4890   -4.4790   24.9380 C   0  0  0  0  0  0  0  0  0  0  0  0
  -21.8580   -3.9350   23.6930 C   0  0  0  0  0  3  0  0  0  0  0  0
  -21.9330   -4.7650   22.5600 C   0  0  0  0  0  0  0  0  0  0  0  0
  -22.2670   -4.2320   21.3600 F   0  0  0  0  0  0  0  0  0  0  0  0
  -21.4120   -3.6790   26.0260 F   0  0  0  0  0  0  0  0  0  0  0  0
  -22.7460  -13.5380   21.1550 C   0  0  0  0  0  0  0  0  0  0  0  0
  -22.0190  -12.8440   22.0250 N   0  0  0  0  0  0  0  0  0  0  0  0
  -22.3050  -14.5600   20.6290 O   0  0  0  0  0  0  0  0  0  0  0  0
  -22.3910  -12.0200   22.4720 H   0  0  0  0  0  0  0  0  0  0  0  0
  -21.0820  -13.1450   22.2540 H   0  0  0  0  0  0  0  0  0  0  0  0
  -25.3770  -15.1970   20.3220 N   0  0  0  0  0  0  0  0  0  0  0  0
  -24.5970  -15.8400   20.3970 H   0  0  0  0  0  0  0  0  0  0  0  0
  -26.2140  -15.6250   19.9490 H   0  0  0  0  0  0  0  0  0  0  0  0
  -29.7780  -25.5140   18.4310 C   0  0  0  0  0  2  0  0  0  0  0  0
  -28.8500  -26.7150   18.6230 C   0  0  0  0  0  2  0  0  0  0  0  0
  -28.4100  -26.8130   19.9780 O   0  0  0  0  0  0  0  0  0  0  0  0
  -24.5890  -31.8850   23.2230 C   0  0  0  0  0  0  0  0  0  0  0  0
  -27.2290  -27.4920   20.0940 C   0  0  0  0  0  0  0  0  0  0  0  0
  -23.3780  -30.4850   21.5860 C   0  0  0  0  0  3  0  0  0  0  0  0
  -24.8240  -28.9500   20.1590 C   0  0  0  0  0  0  0  0  0  0  0  0
  -25.8990  -30.8560   21.3730 C   0  0  0  0  0  2  0  0  0  0  0  0
  -25.9830  -29.4850   20.7390 C   0  0  0  0  0  0  0  0  0  0  0  0
  -27.1910  -28.7570   20.7140 C   0  0  0  0  0  3  0  0  0  0  0  0
  -26.0480  -26.9460   19.5480 C   0  0  0  0  0  3  0  0  0  0  0  0
  -24.8460  -27.6740   19.5730 C   0  0  0  0  0  3  0  0  0  0  0  0
  -23.5810  -29.8070   20.2050 C   0  0  0  0  0  2  0  0  0  0  0  0
  -24.6410  -31.0890   22.1180 N   0  0  0  0  0  0  0  0  0  0  0  0
  -23.5110  -32.1540   23.7680 O   0  0  0  0  0  0  0  0  0  0  0  0
  -22.7380  -29.4580   22.5460 C   0  0  0  0  0  0  0  0  0  0  0  0
  -21.4140  -29.2720   22.4240 N   0  0  0  0  0  0  0  0  0  0  0  0
  -23.4280  -28.8280   23.3540 O   0  0  0  0  0  0  0  0  0  0  0  0
  -20.9200  -29.8260   21.7390 H   0  0  0  0  0  0  0  0  0  0  0  0
  -18.0440  -28.0800   22.9380 C   0  0  0  0  0  0  0  0  0  0  0  0
  -20.6030  -28.3340   23.1990 C   0  0  0  0  0  3  0  0  0  0  0  0
  -20.7030  -26.9040   22.6190 C   0  0  0  0  0  2  0  0  0  0  0  0
  -19.5950  -26.5840   21.6090 C   0  0  0  0  0  2  0  0  0  0  0  0
  -18.2170  -26.7310   22.2610 C   0  0  0  0  0  2  0  0  0  0  0  0
  -19.1650  -28.8400   23.3660 C   0  0  0  0  0  0  0  0  0  0  0  0
  -18.9520  -30.1020   23.9590 C   0  0  0  0  0  3  0  0  0  0  0  0
  -17.6480  -30.6050   24.1320 C   0  0  0  0  0  3  0  0  0  0  0  0
  -16.5420  -29.8410   23.7200 C   0  0  0  0  0  3  0  0  0  0  0  0
  -16.7400  -28.5820   23.1310 C   0  0  0  0  0  3  0  0  0  0  0  0
  -25.8760  -32.5200   23.8340 C   0  0  0  0  0  3  0  0  0  0  0  0
  -25.5640  -33.9130   24.1710 N   0  0  0  0  0  0  0  0  0  0  0  0
  -25.8930  -34.9700   23.4140 C   0  0  0  0  0  0  0  0  0  0  0  0
  -26.5620  -34.8720   22.3810 O   0  0  0  0  0  0  0  0  0  0  0  0
  -24.9700  -34.0620   24.9720 H   0  0  0  0  0  0  0  0  0  0  0  0
  -24.1560  -36.7560   23.0680 C   0  0  0  0  0  1  0  0  0  0  0  0
  -25.3990  -36.3530   23.8790 C   0  0  0  0  0  3  0  0  0  0  0  0
  -27.5320  -37.2390   24.7120 C   0  0  0  0  0  1  0  0  0  0  0  0
  -26.4270  -37.4100   23.7720 N   0  0  0  0  0  0  0  0  0  0  0  0
  -26.0180  -38.3280   23.9300 H   0  0  0  0  0  0  0  0  0  0  0  0
  -26.4090  -31.7440   25.0990 C   0  0  1  0  0  0  0  0  0  0  0  0
  -25.3300  -31.4920   26.1780 C   0  0  0  0  0  1  0  0  0  0  0  0
  -26.9940  -30.3710   24.6910 C   0  0  0  0  0  1  0  0  0  0  0  0
  -27.5620  -32.5400   25.7560 C   0  0  0  0  0  1  0  0  0  0  0  0
  1  3  2  0
  2  1  1  0
  4  2  1  0
  5  1  1  0
  5  6  2  0
  7  6  1  0
  8  9  1  0
  9 11  1  0
  9  7  1  0
  9 10  1  1
 11 12  1  0
 12 21  1  0
 13 21  1  0
 14 19  1  0
 15 16  1  0
 15 14  1  0
 17 16  1  0
 17 26  1  0
 17 18  1  0
 19 13  1  0
 19 18  1  0
 20 13  2  0
 21 22  1  0
 23 24  2  0
 24 43  1  0
 25 24  1  0
 25 28  1  0
 26 23  1  0
 26 27  1  0
 27 25  2  0
 28 29  1  0
 29 30  2  0
 31 34  1  0
 31 30  1  0
 32 31  2  0
 33 32  1  0
 33 28  2  0
 34 35  1  0
 35 36  1  0
 36 37  2  0
 38 37  1  0
 38 42  1  0
 39 38  2  0
 40 35  2  0
 40 39  1  0
 41 40  1  0
 43 44  1  0
 44 47  1  0
 44 46  1  0
 45 43  2  0
 48 49  1  0
 48 23  1  0
 50 48  1  0
 51  2  1  0
 51 52  1  0
 52 53  1  0
 53 55  1  0
 54 65  2  0
 55 60  1  0
 56 64  1  0
 56 66  1  0
 57 63  1  0
 57 59  1  0
 58 64  1  0
 59 58  1  0
 60 59  2  0
 61 62  1  0
 61 55  2  0
 62 57  2  0
 63 56  1  0
 64 54  1  0
 66 68  2  0
 67 66  1  0
 69 67  1  0
 70 79  2  0
 70 75  1  0
 71 67  1  0
 71 75  1  0
 72 71  1  0
 73 74  1  0
 73 72  1  0
 74 70  1  0
 75 76  2  0
 76 77  1  0
 78 77  2  0
 79 78  1  0
 80 54  1  0
 80 81  1  0
 80 90  1  0
 81 84  1  0
 82 86  1  0
 82 81  1  0
 83 82  2  0
 86 85  1  0
 88 86  1  0
 88 89  1  0
 88 87  1  0
 90 93  1  1
 90 91  1  0
 92 90  1  0
M  ISO  4  13 100  21 100  52 101  53 101
M  END
>  <TORSDO>  (46) 
F 23

>  <SCORE>  (46) 
-12.860

>  <name>  (46) 
47

>  <ligand_id>  (46) 
47

>  <original_smiles>  (46) 
[H]C(C(=O)N([H])C([H])([H])C([H])([H])Oc1c([H])c([H])c2c(c1[H])C([H])([H])N(C(=O)C([H])(N([H])C(=O)C([H])(N([H])C([H])([H])[H])C([H])([H])[H])C(C([H])([H])[H])(C([H])([H])[H])C([H])([H])[H])C([H])(C(=O)N([H])C1([H])c3c([H])c([H])c([H])c([H])c3C([H])([H])C([H])([H])C1([H])[H])C2([H])[H])=C([H])C([H])([H])[N+]([H])(C([H])([H])[H])C([H])([H])C([H])([H])N([H])C(=O)N1C([H])([H])C([H])([H])C([H])([H])C([H])(n2nc(-c3c([H])c([H])c(Oc4c([H])c([H])c(F)c([H])c4F)c([H])c3[H])c(C(=O)N([H])[H])c2N([H])[H])C1([H])[H]

>  <smiles>  (46) 
[H]C(C(=O)N([H])C([H])([H])C([H])([H])Oc1c([H])c([H])c2c(c1[H])C([H])([H])N(C(=O)C([H])(N([H])C(=O)C([H])(N([H])C([H])([H])[H])C([H])([H])[H])C(C([H])([H])[H])(C([H])([H])[H])C([H])([H])[H])C([H])(C(=O)N([H])C1([H])c3c([H])c([H])c([H])c([H])c3C([H])([H])C([H])([H])C1([H])[H])C2([H])[H])=C([H])C([H])([H])[N+]([H])(C([H])([H])[H])C([H])([H])C([H])([H])N([H])C(=O)N1C([H])([H])C([H])([H])C([H])([H])C([H])(n2nc(-c3c([H])c([H])c(Oc4c([H])c([H])c(F)c([H])c4F)c([H])c3[H])c(C(=O)N([H])[H])c2N([H])[H])C1([H])[H]

$$$$
48:0:0
     RDKit          3D

 94 95  0  0  1  0  0  0  0  0999 V2000
  -23.7020  -26.9770   24.5380 N   0  0  0  0  0  4  0  0  0  0  0  0
  -23.7550  -26.7430   25.5170 H   0  0  0  0  0  0  0  0  0  0  0  0
  -24.3870  -27.7250   24.4000 H   0  0  0  0  0  0  0  0  0  0  0  0
  -24.5750  -25.6520   23.7060 C   0  0  0  0  0  2  0  0  0  0  0  0
  -26.4120  -25.1680   23.1950 C   0  0  0  0  0  1  0  0  0  0  0  0
  -27.4360  -23.8190   22.1790 C   0  0  0  0  0  1  0  0  0  0  0  0
  -29.1310  -23.2800   21.9270 N   0  0  0  0  0  4  0  0  0  0  0  0
  -29.5620  -24.1130   21.5600 H   0  0  0  0  0  0  0  0  0  0  0  0
  -29.4930  -23.2010   22.8610 H   0  0  0  0  0  0  0  0  0  0  0  0
  -30.0040  -21.9870   21.0370 C   0  0  0  0  0  1  0  0  0  0  0  0
  -31.7730  -21.1080   21.0560 C   0  0  0  0  0  1  0  0  0  0  0  0
  -34.0800  -18.9740   20.0450 C   0  0  0  0  0  0  0  0  0  0  0  0
  -35.9460  -17.7380   18.5030 C   0  0  0  0  0  2  0  0  0  0  0  0
  -36.6190  -18.5670   17.3600 C   0  0  0  0  0  2  0  0  0  0  0  0
  -35.6740  -18.7120   16.1560 C   0  0  0  0  0  2  0  0  0  0  0  0
  -34.2310  -18.9730   16.6420 C   0  0  0  0  0  3  0  0  0  0  0  0
  -33.7450  -17.9730   17.6960 C   0  0  0  0  0  2  0  0  0  0  0  0
  -34.5430  -18.2720   18.8680 N   0  0  0  0  0  0  0  0  0  0  0  0
  -34.9630  -18.7910   20.9220 O   0  0  0  0  0  0  0  0  0  0  0  0
  -32.7620  -19.8260   20.2330 N   0  0  0  0  0  0  0  0  0  0  0  0
  -32.5520  -19.2090   21.0090 H   0  0  0  0  0  0  0  0  0  0  0  0
  -32.0680  -19.7450   15.5990 C   0  0  0  0  0  0  0  0  0  0  0  0
  -31.5310  -19.5590   14.3630 C   0  0  0  0  0  0  0  0  0  0  0  0
  -32.4480  -18.7250   13.6490 C   0  0  0  0  0  0  0  0  0  0  0  0
  -33.2630  -19.0570   15.5810 N   0  0  0  0  0  0  0  0  0  0  0  0
  -33.4640  -18.3820   14.4270 N   0  0  0  0  0  0  0  0  0  0  0  0
  -32.4510  -18.2940   12.2510 C   0  0  0  0  0  0  0  0  0  0  0  0
  -32.4780  -16.9280   11.8960 C   0  0  0  0  0  3  0  0  0  0  0  0
  -32.4590  -16.5440   10.5380 C   0  0  0  0  0  3  0  0  0  0  0  0
  -32.4100  -17.5290    9.5240 C   0  0  0  0  0  0  0  0  0  0  0  0
  -32.4070  -18.8890    9.8830 C   0  0  0  0  0  3  0  0  0  0  0  0
  -32.4310  -19.2710   11.2340 C   0  0  0  0  0  3  0  0  0  0  0  0
  -32.4110  -17.2530    8.1800 O   0  0  0  0  0  0  0  0  0  0  0  0
  -31.9170  -16.0710    7.6870 C   0  0  0  0  0  0  0  0  0  0  0  0
  -30.5560  -15.7240    7.8100 C   0  0  0  0  0  3  0  0  0  0  0  0
  -30.0800  -14.5320    7.2300 C   0  0  0  0  0  3  0  0  0  0  0  0
  -30.9580  -13.6930    6.5200 C   0  0  0  0  0  0  0  0  0  0  0  0
  -32.3150  -14.0390    6.3950 C   0  0  0  0  0  3  0  0  0  0  0  0
  -32.7930  -15.2280    6.9750 C   0  0  0  0  0  0  0  0  0  0  0  0
  -34.0980  -15.5670    6.8310 F   0  0  0  0  0  0  0  0  0  0  0  0
  -30.5000  -12.5510    5.9560 F   0  0  0  0  0  0  0  0  0  0  0  0
  -30.2800  -20.2020   13.8450 C   0  0  0  0  0  0  0  0  0  0  0  0
  -29.5400  -19.4980   12.9980 N   0  0  0  0  0  0  0  0  0  0  0  0
  -29.9320  -21.3180   14.2260 O   0  0  0  0  0  0  0  0  0  0  0  0
  -29.8190  -18.5750   12.7030 H   0  0  0  0  0  0  0  0  0  0  0  0
  -28.6790  -19.8870   12.6410 H   0  0  0  0  0  0  0  0  0  0  0  0
  -31.6580  -20.4470   16.7320 N   0  0  0  0  0  0  0  0  0  0  0  0
  -30.8030  -20.9910   16.7460 H   0  0  0  0  0  0  0  0  0  0  0  0
  -32.1710  -20.4860   17.6050 H   0  0  0  0  0  0  0  0  0  0  0  0
  -22.2580  -28.1280   24.3960 C   0  0  0  0  0  1  0  0  0  0  0  0
  -21.4530  -29.2590   22.8160 C   0  0  0  0  0 15  0  0  0  0  0  0
  -21.1290  -28.5660   20.8270 C   0  0  0  0  0 15  0  0  0  0  0  0
  -22.5180  -27.5600   19.6080 C   0  0  0  0  0 15  0  0  0  0  0  0
  -24.3780  -27.5810   19.3940 O   0  0  0  0  0  1  0  0  0  0  0  0
  -24.9660  -31.3200   23.2470 C   0  0  0  0  0  0  0  0  0  0  0  0
  -25.4350  -28.1920   18.5990 C   0  0  0  0  0  3  0  0  0  0  0  0
  -23.7250  -29.8620   21.7050 C   0  0  0  0  0  3  0  0  0  0  0  0
  -24.0150  -30.1630   19.2190 C   0  0  0  0  0  3  0  0  0  0  0  0
  -25.6080  -31.1560   20.8430 C   0  0  0  0  0  2  0  0  0  0  0  0
  -25.3300  -30.2610   19.6530 C   0  0  0  0  0  3  0  0  0  0  0  0
  -26.1770  -29.2570   19.1970 C   0  0  0  0  0  2  0  0  0  0  0  0
  -24.6970  -28.5580   17.5230 C   0  0  0  0  0  2  0  0  0  0  0  0
  -23.7310  -29.4520   18.0110 C   0  0  0  0  0  2  0  0  0  0  0  0
  -23.0740  -30.4320   20.3430 C   0  0  0  0  0  2  0  0  0  0  0  0
  -24.7980  -30.7840   22.0120 N   0  0  0  0  0  0  0  0  0  0  0  0
  -24.1680  -31.1870   24.1850 O   0  0  0  0  0  0  0  0  0  0  0  0
  -24.2560  -28.2070   21.9210 C   0  0  0  0  0  0  0  0  0  0  0  0
  -23.5640  -26.8370   21.5400 N   0  0  0  0  0  0  0  0  0  0  0  0
  -25.1620  -28.1230   22.6910 O   0  0  0  0  0  0  0  0  0  0  0  0
  -24.3100  -26.2130   21.2780 H   0  0  0  0  0  0  0  0  0  0  0  0
  -19.3650  -25.2660   21.3270 C   0  0  0  0  0  0  0  0  0  0  0  0
  -22.0450  -25.9060   21.7210 C   0  0  0  0  0  3  0  0  0  0  0  0
  -22.2850  -24.8020   20.7760 C   0  0  0  0  0  2  0  0  0  0  0  0
  -21.1780  -24.5300   19.7870 C   0  0  0  0  0  2  0  0  0  0  0  0
  -19.9100  -24.1270   20.5130 C   0  0  0  0  0  2  0  0  0  0  0  0
  -20.2980  -26.1390   21.9770 C   0  0  0  0  0  0  0  0  0  0  0  0
  -19.5210  -26.9440   22.9370 C   0  0  0  0  0  3  0  0  0  0  0  0
  -18.1010  -27.0680   23.0280 C   0  0  0  0  0  3  0  0  0  0  0  0
  -17.2860  -26.2350   22.2640 C   0  0  0  0  0  3  0  0  0  0  0  0
  -17.9440  -25.3140   21.4470 C   0  0  0  0  0  3  0  0  0  0  0  0
  -26.2470  -32.1190   23.5220 C   0  0  0  0  0  3  0  0  0  0  0  0
  -27.2220  -31.3560   24.4920 C   0  0  1  0  0  0  0  0  0  0  0  0
  -26.5230  -30.8310   25.7650 C   0  0  0  0  0  1  0  0  0  0  0  0
  -27.9090  -30.1520   23.8100 C   0  0  0  0  0  1  0  0  0  0  0  0
  -28.3650  -32.3040   24.9040 C   0  0  0  0  0  1  0  0  0  0  0  0
  -25.8330  -33.4060   24.0860 N   0  0  0  0  0  0  0  0  0  0  0  0
  -25.8420  -34.5570   23.4050 C   0  0  0  0  0  0  0  0  0  0  0  0
  -26.2550  -34.6470   22.2470 O   0  0  0  0  0  0  0  0  0  0  0  0
  -25.4240  -33.4020   25.0090 H   0  0  0  0  0  0  0  0  0  0  0  0
  -23.9110  -36.1490   23.6470 C   0  0  0  0  0  1  0  0  0  0  0  0
  -25.3270  -35.8100   24.1370 C   0  0  0  0  0  3  0  0  0  0  0  0
  -27.4960  -36.8290   24.6620 C   0  0  0  0  0  1  0  0  0  0  0  0
  -26.2110  -36.9870   23.9840 N   0  0  0  0  0  0  0  0  0  0  0  0
  -25.7590  -37.8240   24.3430 H   0  0  0  0  0  0  0  0  0  0  0  0
  1  2  1  0
  3  1  1  0
  4  1  1  0
  5  4  1  0
  7  6  1  0
  7  9  1  0
  8  7  1  0
 10  7  1  0
 12 20  1  0
 12 19  2  0
 13 18  1  0
 14 13  1  0
 15 16  1  0
 15 14  1  0
 16 25  1  0
 16 17  1  0
 17 18  1  0
 18 12  1  0
 20 21  1  0
 20 11  1  0
 22 47  1  0
 23 22  2  0
 24 23  1  0
 24 26  2  0
 25 22  1  0
 26 25  1  0
 27 24  1  0
 28 27  1  0
 29 28  2  0
 30 31  2  0
 30 29  1  0
 31 32  1  0
 32 27  2  0
 33 30  1  0
 34 35  1  0
 34 33  1  0
 36 35  2  0
 37 36  1  0
 38 37  2  0
 38 39  1  0
 39 34  2  0
 40 39  1  0
 41 37  1  0
 42 44  2  0
 42 23  1  0
 43 42  1  0
 45 43  1  0
 46 43  1  0
 47 48  1  0
 47 49  1  0
 50  1  1  0
 55 66  2  0
 56 61  1  0
 56 54  1  0
 57 67  1  0
 57 65  1  0
 58 63  1  0
 58 60  1  0
 58 64  1  0
 59 65  1  0
 60 61  1  0
 60 59  1  0
 62 63  1  0
 62 56  1  0
 64 57  1  0
 65 55  1  0
 67 69  2  0
 68 67  1  0
 70 68  1  0
 71 80  2  0
 71 76  1  0
 72 68  1  0
 72 76  1  0
 73 72  1  0
 74 75  1  0
 74 73  1  0
 75 71  1  0
 76 77  2  0
 77 78  1  0
 79 78  2  0
 80 79  1  0
 81 55  1  0
 81 86  1  0
 81 82  1  0
 82 85  1  1
 82 83  1  0
 84 82  1  0
 86 89  1  0
 87 86  1  0
 87 91  1  0
 88 87  2  0
 91 90  1  0
 93 91  1  0
 93 94  1  0
 93 92  1  0
M  ISO  4  12 100  20 100  53 101  54 101
M  END
>  <TORSDO>  (47) 
F 26

>  <SCORE>  (47) 
-6.547

>  <name>  (47) 
48

>  <ligand_id>  (47) 
48

>  <original_smiles>  (47) 
[H]c1c([H])c([H])c2c(c1[H])C([H])([H])C([H])([H])C([H])([H])C2([H])N([H])C(=O)C1([H])N(C(=O)C([H])(N([H])C(=O)C([H])(N([H])C([H])([H])[H])C([H])([H])[H])C(C([H])([H])[H])(C([H])([H])[H])C([H])([H])[H])C([H])([H])c2c([H])c(OC([H])([H])C([H])([H])C([H])([H])C([H])([H])[N+]([H])([H])C([H])([H])C([H])([H])C([H])([H])[N+]([H])([H])C([H])([H])C([H])([H])N([H])C(=O)N3C([H])([H])C([H])([H])C([H])([H])C([H])(n4nc(-c5c([H])c([H])c(Oc6c([H])c([H])c(F)c([H])c6F)c([H])c5[H])c(C(=O)N([H])[H])c4N([H])[H])C3([H])[H])c([H])c([H])c2C1([H])[H]

>  <smiles>  (47) 
[H]c1c([H])c([H])c2c(c1[H])C([H])([H])C([H])([H])C([H])([H])C2([H])N([H])C(=O)C1([H])N(C(=O)C([H])(N([H])C(=O)C([H])(N([H])C([H])([H])[H])C([H])([H])[H])C(C([H])([H])[H])(C([H])([H])[H])C([H])([H])[H])C([H])([H])c2c([H])c(OC([H])([H])C([H])([H])C([H])([H])C([H])([H])[N+]([H])([H])C([H])([H])C([H])([H])C([H])([H])[N+]([H])([H])C([H])([H])C([H])([H])N([H])C(=O)N3C([H])([H])C([H])([H])C([H])([H])C([H])(n4nc(-c5c([H])c([H])c(Oc6c([H])c([H])c(F)c([H])c6F)c([H])c5[H])c(C(=O)N([H])[H])c4N([H])[H])C3([H])[H])c([H])c([H])c2C1([H])[H]

$$$$
49:0:0
     RDKit          3D

 90 97  0  0  1  0  0  0  0  0999 V2000
  -29.5390  -21.8770   20.7790 C   0  0  0  0  0  2  0  0  0  0  0  0
  -28.9860  -22.9380   19.9220 N   0  0  0  0  0  0  0  0  0  0  0  0
  -28.0060  -22.7400   19.7320 H   0  0  0  0  0  0  0  0  0  0  0  0
  -29.0760  -24.2850   20.5160 C   0  0  0  0  0  2  0  0  0  0  0  0
  -28.5320  -25.3730   19.5460 C   0  0  0  0  0  2  0  0  0  0  0  0
  -28.4140  -26.6850   20.1510 O   0  0  0  0  0  0  0  0  0  0  0  0
  -24.6120  -31.8920   23.2330 C   0  0  0  0  0  0  0  0  0  0  0  0
  -27.2220  -27.4040   20.1310 C   0  0  0  0  0  0  0  0  0  0  0  0
  -23.3930  -30.4930   21.6020 C   0  0  0  0  0  3  0  0  0  0  0  0
  -24.8320  -28.9530   20.1700 C   0  0  0  0  0  0  0  0  0  0  0  0
  -25.9250  -30.8310   21.3950 C   0  0  0  0  0  2  0  0  0  0  0  0
  -25.9990  -29.4590   20.7520 C   0  0  0  0  0  0  0  0  0  0  0  0
  -27.1920  -28.6920   20.7320 C   0  0  0  0  0  3  0  0  0  0  0  0
  -26.0220  -26.9270   19.5460 C   0  0  0  0  0  3  0  0  0  0  0  0
  -24.8400  -27.6860   19.5680 C   0  0  0  0  0  3  0  0  0  0  0  0
  -23.5930  -29.8170   20.2220 C   0  0  0  0  0  2  0  0  0  0  0  0
  -24.6620  -31.0870   22.1340 N   0  0  0  0  0  0  0  0  0  0  0  0
  -23.5340  -32.1690   23.7760 O   0  0  0  0  0  0  0  0  0  0  0  0
  -22.7460  -29.4710   22.5660 C   0  0  0  0  0  0  0  0  0  0  0  0
  -21.4210  -29.2910   22.4480 N   0  0  0  0  0  0  0  0  0  0  0  0
  -23.4340  -28.8450   23.3770 O   0  0  0  0  0  0  0  0  0  0  0  0
  -20.9260  -29.8490   21.7650 H   0  0  0  0  0  0  0  0  0  0  0  0
  -18.0480  -28.0970   22.9610 C   0  0  0  0  0  0  0  0  0  0  0  0
  -20.6070  -28.3560   23.2240 C   0  0  0  0  0  3  0  0  0  0  0  0
  -20.7080  -26.9220   22.6550 C   0  0  0  0  0  2  0  0  0  0  0  0
  -19.6030  -26.5950   21.6450 C   0  0  0  0  0  2  0  0  0  0  0  0
  -18.2230  -26.7440   22.2920 C   0  0  0  0  0  2  0  0  0  0  0  0
  -19.1670  -28.8610   23.3840 C   0  0  0  0  0  0  0  0  0  0  0  0
  -18.9500  -30.1280   23.9680 C   0  0  0  0  0  3  0  0  0  0  0  0
  -17.6460  -30.6300   24.1340 C   0  0  0  0  0  3  0  0  0  0  0  0
  -16.5400  -29.8630   23.7270 C   0  0  0  0  0  3  0  0  0  0  0  0
  -16.7420  -28.5980   23.1460 C   0  0  0  0  0  3  0  0  0  0  0  0
  -25.9020  -32.5240   23.8410 C   0  0  0  0  0  3  0  0  0  0  0  0
  -26.4360  -31.7460   25.1070 C   0  0  1  0  0  0  0  0  0  0  0  0
  -25.3560  -31.5000   26.1850 C   0  0  0  0  0  1  0  0  0  0  0  0
  -27.0170  -30.3710   24.7010 C   0  0  0  0  0  1  0  0  0  0  0  0
  -27.5930  -32.5380   25.7590 C   0  0  0  0  0  1  0  0  0  0  0  0
  -25.5920  -33.9190   24.1820 N   0  0  0  0  0  0  0  0  0  0  0  0
  -25.9100  -34.9750   23.4220 C   0  0  0  0  0  0  0  0  0  0  0  0
  -26.5650  -34.8790   22.3810 O   0  0  0  0  0  0  0  0  0  0  0  0
  -25.0060  -34.0660   24.9900 H   0  0  0  0  0  0  0  0  0  0  0  0
  -24.1650  -36.7580   23.1040 C   0  0  0  0  0  1  0  0  0  0  0  0
  -25.4220  -36.3590   23.8920 C   0  0  0  0  0  3  0  0  0  0  0  0
  -27.5690  -37.2520   24.6830 C   0  0  0  0  0  1  0  0  0  0  0  0
  -26.4460  -37.4190   23.7640 N   0  0  0  0  0  0  0  0  0  0  0  0
  -26.0390  -38.3360   23.9250 H   0  0  0  0  0  0  0  0  0  0  0  0
  -29.2780  -20.4450   20.2060 C   0  0  0  0  0  2  0  0  0  0  0  0
  -29.9590  -19.3610   20.9710 N   0  0  0  0  0  4  0  0  0  0  0  0
  -30.9530  -19.4810   20.8660 H   0  0  0  0  0  0  0  0  0  0  0  0
  -29.7380  -19.4840   21.9470 H   0  0  0  0  0  0  0  0  0  0  0  0
  -29.5950  -17.9640   20.5850 C   0  0  0  0  0  2  0  0  0  0  0  0
  -30.3920  -16.8790   21.3710 C   0  0  0  0  0  2  0  0  0  0  0  0
  -30.6370  -14.4980   20.5150 C   0  0  0  0  0  0  0  0  0  0  0  0
  -30.3390  -12.3450   19.3390 C   0  0  0  0  0  2  0  0  0  0  0  0
  -29.3830  -12.5410   18.1440 C   0  0  0  0  0  2  0  0  0  0  0  0
  -27.9140  -12.3960   18.5870 C   0  0  0  0  0  2  0  0  0  0  0  0
  -27.5840  -13.2320   19.8520 C   0  0  0  0  0  3  0  0  0  0  0  0
  -28.6470  -13.0070   20.9500 C   0  0  0  0  0  2  0  0  0  0  0  0
  -29.9660  -13.3220   20.3740 N   0  0  0  0  0  0  0  0  0  0  0  0
  -31.7520  -14.6960   20.0290 O   0  0  0  0  0  0  0  0  0  0  0  0
  -29.9470  -15.4910   21.1130 N   0  0  0  0  0  0  0  0  0  0  0  0
  -29.0300  -15.2400   21.4510 H   0  0  0  0  0  0  0  0  0  0  0  0
  -25.1920  -13.8430   20.5770 C   0  0  0  0  0  0  0  0  0  0  0  0
  -24.1240  -13.0710   20.9510 C   0  0  0  0  0  0  0  0  0  0  0  0
  -24.5820  -11.7190   20.9130 C   0  0  0  0  0  0  0  0  0  0  0  0
  -26.2340  -12.9600   20.3380 N   0  0  0  0  0  0  0  0  0  0  0  0
  -25.8700  -11.6770   20.5970 N   0  0  0  0  0  0  0  0  0  0  0  0
  -23.8550  -10.4580   21.1020 C   0  0  0  0  0  0  0  0  0  0  0  0
  -24.3090   -9.4710   22.0050 C   0  0  0  0  0  3  0  0  0  0  0  0
  -23.5820   -8.2740   22.1830 C   0  0  0  0  0  3  0  0  0  0  0  0
  -22.3870   -8.0560   21.4570 C   0  0  0  0  0  0  0  0  0  0  0  0
  -21.9510   -9.0310   20.5430 C   0  0  0  0  0  3  0  0  0  0  0  0
  -22.6780  -10.2190   20.3630 C   0  0  0  0  0  3  0  0  0  0  0  0
  -21.6280   -6.9130   21.5460 O   0  0  0  0  0  0  0  0  0  0  0  0
  -21.6290   -6.1360   22.6770 C   0  0  0  0  0  0  0  0  0  0  0  0
  -21.2830   -6.6610   23.9410 C   0  0  0  0  0  3  0  0  0  0  0  0
  -21.2290   -5.8110   25.0640 C   0  0  0  0  0  3  0  0  0  0  0  0
  -21.5080   -4.4400   24.9250 C   0  0  0  0  0  0  0  0  0  0  0  0
  -21.8470   -3.9130   23.6660 C   0  0  0  0  0  3  0  0  0  0  0  0
  -21.9040   -4.7600   22.5440 C   0  0  0  0  0  0  0  0  0  0  0  0
  -22.2100   -4.2450   21.3290 F   0  0  0  0  0  0  0  0  0  0  0  0
  -21.4480   -3.6210   26.0020 F   0  0  0  0  0  0  0  0  0  0  0  0
  -22.7290  -13.5510   21.2350 C   0  0  0  0  0  0  0  0  0  0  0  0
  -22.0070  -12.8530   22.1040 N   0  0  0  0  0  0  0  0  0  0  0  0
  -22.2890  -14.5790   20.7200 O   0  0  0  0  0  0  0  0  0  0  0  0
  -22.3760  -12.0210   22.5410 H   0  0  0  0  0  0  0  0  0  0  0  0
  -21.0720  -13.1560   22.3370 H   0  0  0  0  0  0  0  0  0  0  0  0
  -25.3580  -15.2130   20.4010 N   0  0  0  0  0  0  0  0  0  0  0  0
  -24.5890  -15.8670   20.5040 H   0  0  0  0  0  0  0  0  0  0  0  0
  -26.1980  -15.6450   20.0380 H   0  0  0  0  0  0  0  0  0  0  0  0
  2  4  1  0
  2  1  1  0
  3  2  1  0
  5  6  1  0
  5  4  1  0
  7 18  2  0
  8  6  1  0
  8 13  1  0
  9 17  1  0
  9 19  1  0
 10 16  1  0
 10 12  1  0
 11 17  1  0
 12 11  1  0
 13 12  2  0
 14 15  1  0
 14  8  2  0
 15 10  2  0
 16  9  1  0
 17  7  1  0
 19 21  2  0
 20 19  1  0
 22 20  1  0
 23 32  2  0
 23 28  1  0
 24 20  1  0
 24 28  1  0
 25 24  1  0
 26 27  1  0
 26 25  1  0
 27 23  1  0
 28 29  2  0
 29 30  1  0
 31 30  2  0
 32 31  1  0
 33  7  1  0
 33 38  1  0
 33 34  1  0
 34 37  1  1
 34 35  1  0
 36 34  1  0
 38 41  1  0
 39 43  1  0
 39 38  1  0
 40 39  2  0
 43 42  1  0
 45 43  1  0
 45 46  1  0
 45 44  1  0
 47  1  1  0
 47 48  1  0
 48 50  1  0
 49 48  1  0
 51 48  1  0
 51 52  1  0
 53 61  1  0
 54 59  1  0
 55 56  1  0
 55 54  1  0
 57 56  1  0
 57 66  1  0
 57 58  1  0
 59 53  1  0
 59 58  1  0
 60 53  2  0
 61 52  1  0
 61 62  1  0
 63 64  2  0
 64 83  1  0
 65 64  1  0
 65 68  1  0
 66 63  1  0
 66 67  1  0
 67 65  2  0
 68 69  1  0
 69 70  2  0
 71 74  1  0
 71 70  1  0
 72 71  2  0
 73 72  1  0
 73 68  2  0
 74 75  1  0
 75 76  1  0
 76 77  2  0
 78 77  1  0
 78 82  1  0
 79 78  2  0
 80 75  2  0
 80 79  1  0
 81 80  1  0
 83 84  1  0
 84 87  1  0
 84 86  1  0
 85 83  2  0
 88 89  1  0
 88 63  1  0
 90 88  1  0
M  ISO  4   5 101   6 101  53 100  61 100
M  END
>  <TORSDO>  (48) 
F 23

>  <SCORE>  (48) 
-12.740

>  <name>  (48) 
49

>  <ligand_id>  (48) 
49

>  <original_smiles>  (48) 
[H]c1c([H])c([H])c2c(c1[H])C([H])([H])C([H])([H])C([H])([H])C2([H])N([H])C(=O)C1([H])N(C(=O)C([H])(N([H])C(=O)C([H])(N([H])C([H])([H])[H])C([H])([H])[H])C(C([H])([H])[H])(C([H])([H])[H])C([H])([H])[H])C([H])([H])c2c([H])c(OC([H])([H])C([H])([H])N([H])C([H])([H])C([H])([H])[N+]([H])([H])C([H])([H])C([H])([H])N([H])C(=O)N3C([H])([H])C([H])([H])C([H])([H])C([H])(n4nc(-c5c([H])c([H])c(Oc6c([H])c([H])c(F)c([H])c6F)c([H])c5[H])c(C(=O)N([H])[H])c4N([H])[H])C3([H])[H])c([H])c([H])c2C1([H])[H]

>  <smiles>  (48) 
[H]c1c([H])c([H])c2c(c1[H])C([H])([H])C([H])([H])C([H])([H])C2([H])N([H])C(=O)C1([H])N(C(=O)C([H])(N([H])C(=O)C([H])(N([H])C([H])([H])[H])C([H])([H])[H])C(C([H])([H])[H])(C([H])([H])[H])C([H])([H])[H])C([H])([H])c2c([H])c(OC([H])([H])C([H])([H])N([H])C([H])([H])C([H])([H])[N+]([H])([H])C([H])([H])C([H])([H])N([H])C(=O)N3C([H])([H])C([H])([H])C([H])([H])C([H])(n4nc(-c5c([H])c([H])c(Oc6c([H])c([H])c(F)c([H])c6F)c([H])c5[H])c(C(=O)N([H])[H])c4N([H])[H])C3([H])[H])c([H])c([H])c2C1([H])[H]

$$$$
50:0:0
     RDKit          3D

 93100  0  0  1  0  0  0  0  0999 V2000
  -27.4260  -23.1220   21.1780 N   0  0  0  0  0  4  0  0  0  0  0  0
  -27.9490  -22.3060   20.9020 H   0  0  0  0  0  0  0  0  0  0  0  0
  -27.5850  -23.8350   20.4830 H   0  0  0  0  0  0  0  0  0  0  0  0
  -27.9210  -23.6110   22.4870 C   0  0  0  0  0  2  0  0  0  0  0  0
  -29.4020  -24.0240   22.4360 C   0  0  0  0  0  2  0  0  0  0  0  0
  -29.8910  -24.7310   23.7170 C   0  0  0  0  0  2  0  0  0  0  0  0
  -29.9000  -26.1450   23.5410 O   0  0  0  0  0  0  0  0  0  0  0  0
  -24.3800  -28.0010   27.6430 C   0  0  0  0  0  0  0  0  0  0  0  0
  -28.6760  -26.7540   23.6440 C   0  0  0  0  0  0  0  0  0  0  0  0
  -24.1010  -28.3700   25.2120 C   0  0  0  0  0  3  0  0  0  0  0  0
  -26.2100  -28.1050   23.8030 C   0  0  0  0  0  0  0  0  0  0  0  0
  -26.4230  -28.4030   26.2780 C   0  0  0  0  0  2  0  0  0  0  0  0
  -26.9670  -27.8900   24.9620 C   0  0  0  0  0  0  0  0  0  0  0  0
  -28.2030  -27.2130   24.8890 C   0  0  0  0  0  3  0  0  0  0  0  0
  -27.9120  -26.9770   22.4810 C   0  0  0  0  0  3  0  0  0  0  0  0
  -26.6770  -27.6470   22.5560 C   0  0  0  0  0  3  0  0  0  0  0  0
  -24.9020  -28.8470   23.9700 C   0  0  0  0  0  2  0  0  0  0  0  0
  -24.9610  -28.2240   26.4300 N   0  0  0  0  0  0  0  0  0  0  0  0
  -23.1480  -27.9600   27.7650 O   0  0  0  0  0  0  0  0  0  0  0  0
  -23.3420  -27.0760   24.8410 C   0  0  0  0  0  0  0  0  0  0  0  0
  -22.6520  -27.0970   23.6890 N   0  0  0  0  0  0  0  0  0  0  0  0
  -23.4020  -26.0770   25.5630 O   0  0  0  0  0  0  0  0  0  0  0  0
  -22.6480  -27.9580   23.1580 H   0  0  0  0  0  0  0  0  0  0  0  0
  -21.0410  -25.9140   20.6800 C   0  0  0  0  0  0  0  0  0  0  0  0
  -21.8940  -25.9860   23.1180 C   0  0  0  0  0  3  0  0  0  0  0  0
  -22.8310  -24.8230   22.7160 C   0  0  0  0  0  2  0  0  0  0  0  0
  -23.2820  -24.8870   21.2530 C   0  0  0  0  0  2  0  0  0  0  0  0
  -22.0700  -24.8570   20.3160 C   0  0  0  0  0  2  0  0  0  0  0  0
  -20.9690  -26.4540   21.9900 C   0  0  0  0  0  0  0  0  0  0  0  0
  -20.0160  -27.4590   22.2670 C   0  0  0  0  0  3  0  0  0  0  0  0
  -19.1470  -27.9220   21.2610 C   0  0  0  0  0  3  0  0  0  0  0  0
  -19.2120  -27.3730   19.9680 C   0  0  0  0  0  3  0  0  0  0  0  0
  -20.1520  -26.3680   19.6810 C   0  0  0  0  0  3  0  0  0  0  0  0
  -25.2330  -27.8120   28.9360 C   0  0  0  0  0  3  0  0  0  0  0  0
  -25.7400  -26.3310   29.1370 C   0  0  1  0  0  0  0  0  0  0  0  0
  -24.6060  -25.2790   29.1170 C   0  0  0  0  0  1  0  0  0  0  0  0
  -26.7590  -25.9490   28.0380 C   0  0  0  0  0  1  0  0  0  0  0  0
  -26.4820  -26.2090   30.4890 C   0  0  0  0  0  1  0  0  0  0  0  0
  -24.4120  -28.2410   30.0760 N   0  0  0  0  0  0  0  0  0  0  0  0
  -24.5760  -29.3930   30.7390 C   0  0  0  0  0  0  0  0  0  0  0  0
  -25.4950  -30.1810   30.4980 O   0  0  0  0  0  0  0  0  0  0  0  0
  -23.6080  -27.6700   30.2930 H   0  0  0  0  0  0  0  0  0  0  0  0
  -22.4650  -30.6440   31.2830 C   0  0  0  0  0  1  0  0  0  0  0  0
  -23.5590  -29.7250   31.8480 C   0  0  0  0  0  3  0  0  0  0  0  0
  -25.0300  -29.4410   33.7930 C   0  0  0  0  0  1  0  0  0  0  0  0
  -24.1720  -30.3510   33.0390 N   0  0  0  0  0  0  0  0  0  0  0  0
  -23.4560  -30.7040   33.6680 H   0  0  0  0  0  0  0  0  0  0  0  0
  -25.9870  -22.7700   21.1810 C   0  0  0  0  0  2  0  0  0  0  0  0
  -25.3240  -23.0120   19.8190 C   0  0  0  0  0  2  0  0  0  0  0  0
  -26.2830  -22.8700   18.7730 O   0  0  0  0  0  0  0  0  0  0  0  0
  -25.9690  -23.7040   17.6610 C   0  0  0  0  0  2  0  0  0  0  0  0
  -27.1630  -23.8090   16.7000 C   0  0  0  0  0  2  0  0  0  0  0  0
  -28.3880  -24.5530   17.2570 C   0  0  0  0  0  2  0  0  0  0  0  0
  -29.5580  -24.5400   16.2500 C   0  0  0  0  0  2  0  0  0  0  0  0
  -30.8380  -25.2800   16.6930 C   0  0  0  0  0  2  0  0  0  0  0  0
  -31.4350  -27.6730   16.7110 C   0  0  0  0  0  0  0  0  0  0  0  0
  -31.7050  -29.6220   15.2260 C   0  0  0  0  0  2  0  0  0  0  0  0
  -30.5030  -30.5730   15.3980 C   0  0  0  0  0  2  0  0  0  0  0  0
  -29.3310  -30.1540   14.4850 C   0  0  0  0  0  2  0  0  0  0  0  0
  -29.0100  -28.6400   14.5830 C   0  0  0  0  0  3  0  0  0  0  0  0
  -30.3030  -27.8050   14.4550 C   0  0  0  0  0  2  0  0  0  0  0  0
  -31.2420  -28.2540   15.4970 N   0  0  0  0  0  0  0  0  0  0  0  0
  -32.1740  -28.1450   17.5770 O   0  0  0  0  0  0  0  0  0  0  0  0
  -30.5950  -26.6810   17.0330 N   0  0  0  0  0  0  0  0  0  0  0  0
  -30.3390  -26.7510   18.0070 H   0  0  0  0  0  0  0  0  0  0  0  0
  -26.6740  -27.9120   13.7770 C   0  0  0  0  0  0  0  0  0  0  0  0
  -26.1690  -27.6860   12.5250 C   0  0  0  0  0  0  0  0  0  0  0  0
  -27.2470  -27.9100   11.6170 C   0  0  0  0  0  0  0  0  0  0  0  0
  -28.0090  -28.2420   13.5940 N   0  0  0  0  0  0  0  0  0  0  0  0
  -28.3600  -28.1920   12.2830 N   0  0  0  0  0  0  0  0  0  0  0  0
  -27.2730  -27.9290   10.1490 C   0  0  0  0  0  0  0  0  0  0  0  0
  -28.1390  -27.0890    9.4150 C   0  0  0  0  0  3  0  0  0  0  0  0
  -28.1350  -27.1110    8.0040 C   0  0  0  0  0  3  0  0  0  0  0  0
  -27.2560  -27.9790    7.3110 C   0  0  0  0  0  0  0  0  0  0  0  0
  -26.4130  -28.8300    8.0460 C   0  0  0  0  0  3  0  0  0  0  0  0
  -26.4220  -28.8090    9.4510 C   0  0  0  0  0  3  0  0  0  0  0  0
  -27.2030  -28.0880    5.9420 O   0  0  0  0  0  0  0  0  0  0  0  0
  -27.4820  -27.0240    5.1250 C   0  0  0  0  0  0  0  0  0  0  0  0
  -26.7460  -25.8200    5.1910 C   0  0  0  0  0  3  0  0  0  0  0  0
  -27.0220  -24.7770    4.2850 C   0  0  0  0  0  3  0  0  0  0  0  0
  -28.0210  -24.9380    3.3070 C   0  0  0  0  0  0  0  0  0  0  0  0
  -28.7520  -26.1370    3.2360 C   0  0  0  0  0  3  0  0  0  0  0  0
  -28.4800  -27.1780    4.1400 C   0  0  0  0  0  0  0  0  0  0  0  0
  -29.1710  -28.3400    4.0550 F   0  0  0  0  0  0  0  0  0  0  0  0
  -28.2790  -23.9390    2.4310 F   0  0  0  0  0  0  0  0  0  0  0  0
  -24.7400  -27.3760   12.1790 C   0  0  0  0  0  0  0  0  0  0  0  0
  -24.5190  -26.6040   11.1210 N   0  0  0  0  0  0  0  0  0  0  0  0
  -23.8120  -27.7790   12.8780 O   0  0  0  0  0  0  0  0  0  0  0  0
  -25.2850  -26.2500   10.5650 H   0  0  0  0  0  0  0  0  0  0  0  0
  -23.5740  -26.3580   10.8680 H   0  0  0  0  0  0  0  0  0  0  0  0
  -26.1070  -27.8880   15.0450 N   0  0  0  0  0  0  0  0  0  0  0  0
  -25.1190  -27.7250   15.1900 H   0  0  0  0  0  0  0  0  0  0  0  0
  -26.6070  -28.1250   15.8930 H   0  0  0  0  0  0  0  0  0  0  0  0
  1 48  1  0
  1  4  1  0
  2  1  1  0
  3  1  1  0
  5  4  1  0
  5  6  1  0
  7  9  1  0
  7  6  1  0
  8 19  2  0
  9 14  1  0
 10 20  1  0
 10 18  1  0
 11 17  1  0
 11 13  1  0
 12 18  1  0
 13 12  1  0
 14 13  2  0
 15 16  1  0
 15  9  2  0
 16 11  2  0
 17 10  1  0
 18  8  1  0
 20 22  2  0
 21 20  1  0
 23 21  1  0
 24 29  1  0
 25 21  1  0
 26 25  1  0
 27 26  1  0
 28 24  1  0
 28 27  1  0
 29 30  2  0
 29 25  1  0
 31 30  1  0
 32 31  2  0
 33 32  1  0
 33 24  2  0
 34  8  1  0
 34 35  1  0
 34 39  1  0
 35 38  1  1
 36 35  1  0
 37 35  1  0
 39 42  1  0
 39 40  1  0
 40 44  1  0
 41 40  2  0
 44 43  1  0
 44 46  1  0
 46 47  1  0
 46 45  1  0
 49 48  1  0
 50 49  1  0
 51 50  1  0
 52 53  1  0
 52 51  1  0
 54 55  1  0
 54 53  1  0
 55 64  1  0
 56 64  1  0
 56 63  2  0
 57 58  1  0
 57 62  1  0
 59 60  1  0
 59 58  1  0
 60 69  1  0
 61 60  1  0
 61 62  1  0
 62 56  1  0
 64 65  1  0
 66 91  1  0
 67 66  2  0
 68 70  2  0
 68 67  1  0
 69 66  1  0
 70 69  1  0
 71 68  1  0
 72 71  2  0
 73 72  1  0
 74 73  2  0
 74 75  1  0
 75 76  2  0
 76 71  1  0
 77 74  1  0
 78 79  1  0
 78 77  1  0
 80 79  2  0
 81 80  1  0
 82 81  2  0
 82 83  1  0
 83 78  2  0
 84 83  1  0
 85 81  1  0
 86 67  1  0
 86 88  2  0
 87 86  1  0
 89 87  1  0
 90 87  1  0
 91 92  1  0
 91 93  1  0
M  ISO  4   6 101   7 101  56 100  64 100
M  END
>  <TORSDO>  (49) 
F 27

>  <SCORE>  (49) 
-2.232

>  <name>  (49) 
50

>  <ligand_id>  (49) 
50

>  <original_smiles>  (49) 
[H]c1c([H])c([H])c2c(c1[H])C([H])([H])C([H])([H])C([H])([H])C2([H])N([H])C(=O)C1([H])N(C(=O)C([H])(N([H])C(=O)C([H])(N([H])C([H])([H])[H])C([H])([H])[H])C(C([H])([H])[H])(C([H])([H])[H])C([H])([H])[H])C([H])([H])c2c([H])c(OC([H])([H])C([H])([H])C([H])([H])[N+]([H])([H])C([H])([H])C([H])([H])OC([H])([H])C([H])([H])C([H])([H])C([H])([H])C([H])([H])N([H])C(=O)N3C([H])([H])C([H])([H])C([H])([H])C([H])(n4nc(-c5c([H])c([H])c(Oc6c([H])c([H])c(F)c([H])c6F)c([H])c5[H])c(C(=O)N([H])[H])c4N([H])[H])C3([H])[H])c([H])c([H])c2C1([H])[H]

>  <smiles>  (49) 
[H]c1c([H])c([H])c2c(c1[H])C([H])([H])C([H])([H])C([H])([H])C2([H])N([H])C(=O)C1([H])N(C(=O)C([H])(N([H])C(=O)C([H])(N([H])C([H])([H])[H])C([H])([H])[H])C(C([H])([H])[H])(C([H])([H])[H])C([H])([H])[H])C([H])([H])c2c([H])c(OC([H])([H])C([H])([H])C([H])([H])[N+]([H])([H])C([H])([H])C([H])([H])OC([H])([H])C([H])([H])C([H])([H])C([H])([H])C([H])([H])N([H])C(=O)N3C([H])([H])C([H])([H])C([H])([H])C([H])(n4nc(-c5c([H])c([H])c(Oc6c([H])c([H])c(F)c([H])c6F)c([H])c5[H])c(C(=O)N([H])[H])c4N([H])[H])C3([H])[H])c([H])c([H])c2C1([H])[H]

$$$$
51:0:0
     RDKit          3D

 94101  0  0  1  0  0  0  0  0999 V2000
  -28.9040  -22.5470   18.6130 C   0  0  0  0  0  2  0  0  0  0  0  0
  -29.3660  -23.9030   18.0520 C   0  0  0  0  0  2  0  0  0  0  0  0
  -28.2280  -24.8390   17.9310 N   0  0  0  0  0  4  0  0  0  0  0  0
  -27.6890  -24.7930   18.7810 H   0  0  0  0  0  0  0  0  0  0  0  0
  -27.6370  -24.5120   17.1820 H   0  0  0  0  0  0  0  0  0  0  0  0
  -28.5740  -26.2600   17.6800 C   0  0  0  0  0  2  0  0  0  0  0  0
  -29.1250  -26.9790   18.9330 C   0  0  0  0  0  2  0  0  0  0  0  0
  -28.3210  -26.7540   20.0940 O   0  0  0  0  0  0  0  0  0  0  0  0
  -24.5550  -31.9110   23.2690 C   0  0  0  0  0  0  0  0  0  0  0  0
  -27.1640  -27.4870   20.1480 C   0  0  0  0  0  0  0  0  0  0  0  0
  -23.3290  -30.5100   21.6410 C   0  0  0  0  0  3  0  0  0  0  0  0
  -24.7700  -28.9680   20.2100 C   0  0  0  0  0  0  0  0  0  0  0  0
  -25.8540  -30.8680   21.4180 C   0  0  0  0  0  2  0  0  0  0  0  0
  -25.9330  -29.4980   20.7820 C   0  0  0  0  0  0  0  0  0  0  0  0
  -27.1390  -28.7620   20.7550 C   0  0  0  0  0  3  0  0  0  0  0  0
  -25.9770  -26.9490   19.6100 C   0  0  0  0  0  3  0  0  0  0  0  0
  -24.7820  -27.6900   19.6280 C   0  0  0  0  0  3  0  0  0  0  0  0
  -23.5250  -29.8230   20.2630 C   0  0  0  0  0  2  0  0  0  0  0  0
  -24.5980  -31.1110   22.1660 N   0  0  0  0  0  0  0  0  0  0  0  0
  -23.4790  -32.1900   23.8170 O   0  0  0  0  0  0  0  0  0  0  0  0
  -22.6870  -29.4920   22.6080 C   0  0  0  0  0  0  0  0  0  0  0  0
  -21.3650  -29.3020   22.4800 N   0  0  0  0  0  0  0  0  0  0  0  0
  -23.3760  -28.8750   23.4240 O   0  0  0  0  0  0  0  0  0  0  0  0
  -20.8720  -29.8490   21.7880 H   0  0  0  0  0  0  0  0  0  0  0  0
  -17.9960  -28.0980   22.9730 C   0  0  0  0  0  0  0  0  0  0  0  0
  -20.5500  -28.3690   23.2560 C   0  0  0  0  0  3  0  0  0  0  0  0
  -20.6630  -26.9340   22.6920 C   0  0  0  0  0  2  0  0  0  0  0  0
  -19.5680  -26.5970   21.6740 C   0  0  0  0  0  2  0  0  0  0  0  0
  -18.1820  -26.7440   22.3080 C   0  0  0  0  0  2  0  0  0  0  0  0
  -19.1100  -28.8680   23.4020 C   0  0  0  0  0  0  0  0  0  0  0  0
  -18.8830  -30.1380   23.9780 C   0  0  0  0  0  3  0  0  0  0  0  0
  -17.5750  -30.6370   24.1300 C   0  0  0  0  0  3  0  0  0  0  0  0
  -16.4770  -29.8620   23.7190 C   0  0  0  0  0  3  0  0  0  0  0  0
  -16.6870  -28.5960   23.1450 C   0  0  0  0  0  3  0  0  0  0  0  0
  -25.8490  -32.5360   23.8760 C   0  0  0  0  0  3  0  0  0  0  0  0
  -26.3790  -31.7680   25.1520 C   0  0  1  0  0  0  0  0  0  0  0  0
  -25.2910  -31.5410   26.2300 C   0  0  0  0  0  1  0  0  0  0  0  0
  -26.9530  -30.3860   24.7630 C   0  0  0  0  0  1  0  0  0  0  0  0
  -27.5390  -32.5630   25.7980 C   0  0  0  0  0  1  0  0  0  0  0  0
  -25.5540  -33.9390   24.1960 N   0  0  0  0  0  0  0  0  0  0  0  0
  -25.9000  -34.9810   23.4280 C   0  0  0  0  0  0  0  0  0  0  0  0
  -26.5710  -34.8650   22.3990 O   0  0  0  0  0  0  0  0  0  0  0  0
  -24.9490  -34.1050   24.9870 H   0  0  0  0  0  0  0  0  0  0  0  0
  -24.1910  -36.7860   23.0510 C   0  0  0  0  0  1  0  0  0  0  0  0
  -25.4210  -36.3750   23.8740 C   0  0  0  0  0  3  0  0  0  0  0  0
  -27.5580  -37.2420   24.7170 C   0  0  0  0  0  1  0  0  0  0  0  0
  -26.4650  -37.4170   23.7650 N   0  0  0  0  0  0  0  0  0  0  0  0
  -26.0660  -38.3420   23.9060 H   0  0  0  0  0  0  0  0  0  0  0  0
  -30.0550  -21.5370   18.7550 C   0  0  0  0  0  2  0  0  0  0  0  0
  -29.6040  -20.2270   19.4250 C   0  0  0  0  0  2  0  0  0  0  0  0
  -30.7350  -19.3180   19.7120 N   0  0  0  0  0  4  0  0  0  0  0  0
  -31.4020  -19.8130   20.2830 H   0  0  0  0  0  0  0  0  0  0  0  0
  -31.1980  -19.0620   18.8520 H   0  0  0  0  0  0  0  0  0  0  0  0
  -30.3310  -18.0950   20.4350 C   0  0  0  0  0  2  0  0  0  0  0  0
  -31.5360  -17.3360   21.0180 C   0  0  0  0  0  2  0  0  0  0  0  0
  -31.1420  -16.1570   21.9390 C   0  0  0  0  0  2  0  0  0  0  0  0
  -30.7370  -14.3080   20.2960 C   0  0  0  0  0  0  0  0  0  0  0  0
  -30.2780  -12.2760   18.9810 C   0  0  0  0  0  2  0  0  0  0  0  0
  -29.2890  -12.5390   17.8310 C   0  0  0  0  0  2  0  0  0  0  0  0
  -27.8360  -12.4040   18.3200 C   0  0  0  0  0  2  0  0  0  0  0  0
  -27.5670  -13.2090   19.6180 C   0  0  0  0  0  3  0  0  0  0  0  0
  -28.6550  -12.9250   20.6770 C   0  0  0  0  0  2  0  0  0  0  0  0
  -29.9740  -13.2080   20.0770 N   0  0  0  0  0  0  0  0  0  0  0  0
  -31.7510  -14.5660   19.6420 O   0  0  0  0  0  0  0  0  0  0  0  0
  -30.3490  -15.0940   21.3090 N   0  0  0  0  0  0  0  0  0  0  0  0
  -29.5040  -14.8120   21.7850 H   0  0  0  0  0  0  0  0  0  0  0  0
  -25.1930  -13.8330   20.3980 C   0  0  0  0  0  0  0  0  0  0  0  0
  -24.1330  -13.0650   20.8020 C   0  0  0  0  0  0  0  0  0  0  0  0
  -24.5870  -11.7120   20.7610 C   0  0  0  0  0  0  0  0  0  0  0  0
  -26.2260  -12.9460   20.1380 N   0  0  0  0  0  0  0  0  0  0  0  0
  -25.8660  -11.6650   20.4120 N   0  0  0  0  0  0  0  0  0  0  0  0
  -23.8620  -10.4540   20.9800 C   0  0  0  0  0  0  0  0  0  0  0  0
  -24.3170   -9.4900   21.9060 C   0  0  0  0  0  3  0  0  0  0  0  0
  -23.5950   -8.2960   22.1110 C   0  0  0  0  0  3  0  0  0  0  0  0
  -22.4030   -8.0550   21.3880 C   0  0  0  0  0  0  0  0  0  0  0  0
  -21.9640   -9.0070   20.4500 C   0  0  0  0  0  3  0  0  0  0  0  0
  -22.6880  -10.1940   20.2450 C   0  0  0  0  0  3  0  0  0  0  0  0
  -21.6500   -6.9120   21.5010 O   0  0  0  0  0  0  0  0  0  0  0  0
  -21.6350   -6.1700   22.6550 C   0  0  0  0  0  0  0  0  0  0  0  0
  -21.2510   -6.7280   23.8930 C   0  0  0  0  0  3  0  0  0  0  0  0
  -21.1840   -5.9140   25.0410 C   0  0  0  0  0  3  0  0  0  0  0  0
  -21.4920   -4.5430   24.9520 C   0  0  0  0  0  0  0  0  0  0  0  0
  -21.8690   -3.9850   23.7190 C   0  0  0  0  0  3  0  0  0  0  0  0
  -21.9380   -4.7960   22.5730 C   0  0  0  0  0  0  0  0  0  0  0  0
  -22.2820   -4.2490   21.3820 F   0  0  0  0  0  0  0  0  0  0  0  0
  -21.4200   -3.7580   26.0530 F   0  0  0  0  0  0  0  0  0  0  0  0
  -22.7470  -13.5510   21.1170 C   0  0  0  0  0  0  0  0  0  0  0  0
  -22.0430  -12.8580   22.0070 N   0  0  0  0  0  0  0  0  0  0  0  0
  -22.2960  -14.5760   20.6090 O   0  0  0  0  0  0  0  0  0  0  0  0
  -22.4210  -12.0290   22.4420 H   0  0  0  0  0  0  0  0  0  0  0  0
  -21.1120  -13.1630   22.2570 H   0  0  0  0  0  0  0  0  0  0  0  0
  -25.3610  -15.2020   20.2120 N   0  0  0  0  0  0  0  0  0  0  0  0
  -24.6050  -15.8640   20.3500 H   0  0  0  0  0  0  0  0  0  0  0  0
  -26.2090  -15.6320   19.8670 H   0  0  0  0  0  0  0  0  0  0  0  0
  1 49  1  0
  2  1  1  0
  3  2  1  0
  3  4  1  0
  5  3  1  0
  6  3  1  0
  6  7  1  0
  7  8  1  0
  8 10  1  0
  9 20  2  0
 10 15  1  0
 11 19  1  0
 11 21  1  0
 12 18  1  0
 12 14  1  0
 13 19  1  0
 14 13  1  0
 15 14  2  0
 16 17  1  0
 16 10  2  0
 17 12  2  0
 18 11  1  0
 19  9  1  0
 21 23  2  0
 22 21  1  0
 24 22  1  0
 25 34  2  0
 25 30  1  0
 26 22  1  0
 26 30  1  0
 27 26  1  0
 28 29  1  0
 28 27  1  0
 29 25  1  0
 30 31  2  0
 31 32  1  0
 33 32  2  0
 34 33  1  0
 35  9  1  0
 35 40  1  0
 35 36  1  0
 36 39  1  1
 36 37  1  0
 38 36  1  0
 40 43  1  0
 41 45  1  0
 41 40  1  0
 42 41  2  0
 45 44  1  0
 47 45  1  0
 47 48  1  0
 47 46  1  0
 49 50  1  0
 50 51  1  0
 51 52  1  0
 51 54  1  0
 53 51  1  0
 54 55  1  0
 55 56  1  0
 57 65  1  0
 58 63  1  0
 59 60  1  0
 59 58  1  0
 61 60  1  0
 61 70  1  0
 61 62  1  0
 63 57  1  0
 63 62  1  0
 64 57  2  0
 65 66  1  0
 65 56  1  0
 67 68  2  0
 68 87  1  0
 69 68  1  0
 69 72  1  0
 70 67  1  0
 70 71  1  0
 71 69  2  0
 72 73  1  0
 73 74  2  0
 75 78  1  0
 75 74  1  0
 76 75  2  0
 77 76  1  0
 77 72  2  0
 78 79  1  0
 79 80  1  0
 80 81  2  0
 82 81  1  0
 82 86  1  0
 83 82  2  0
 84 79  2  0
 84 83  1  0
 85 84  1  0
 87 88  1  0
 88 91  1  0
 88 90  1  0
 89 87  2  0
 92 93  1  0
 92 67  1  0
 94 92  1  0
M  ISO  4   7 101   8 101  57 100  65 100
M  END
>  <TORSDO>  (50) 
F 26

>  <SCORE>  (50) 
-11.668

>  <name>  (50) 
51

>  <ligand_id>  (50) 
51

>  <original_smiles>  (50) 
[H]c1c([H])c([H])c2c(c1[H])C([H])([H])C([H])([H])C([H])([H])C2([H])N([H])C(=O)C1([H])N(C(=O)C([H])(N([H])C(=O)C([H])(N([H])C([H])([H])[H])C([H])([H])[H])C(C([H])([H])[H])(C([H])([H])[H])C([H])([H])[H])C([H])([H])c2c([H])c(OC([H])([H])C([H])([H])[N+]([H])([H])C([H])([H])C([H])([H])C([H])([H])C([H])([H])[N+]([H])([H])C([H])([H])C([H])([H])C([H])([H])N([H])C(=O)N3C([H])([H])C([H])([H])C([H])([H])C([H])(n4nc(-c5c([H])c([H])c(Oc6c([H])c([H])c(F)c([H])c6F)c([H])c5[H])c(C(=O)N([H])[H])c4N([H])[H])C3([H])[H])c([H])c([H])c2C1([H])[H]

>  <smiles>  (50) 
[H]c1c([H])c([H])c2c(c1[H])C([H])([H])C([H])([H])C([H])([H])C2([H])N([H])C(=O)C1([H])N(C(=O)C([H])(N([H])C(=O)C([H])(N([H])C([H])([H])[H])C([H])([H])[H])C(C([H])([H])[H])(C([H])([H])[H])C([H])([H])[H])C([H])([H])c2c([H])c(OC([H])([H])C([H])([H])[N+]([H])([H])C([H])([H])C([H])([H])C([H])([H])C([H])([H])[N+]([H])([H])C([H])([H])C([H])([H])C([H])([H])N([H])C(=O)N3C([H])([H])C([H])([H])C([H])([H])C([H])(n4nc(-c5c([H])c([H])c(Oc6c([H])c([H])c(F)c([H])c6F)c([H])c5[H])c(C(=O)N([H])[H])c4N([H])[H])C3([H])[H])c([H])c([H])c2C1([H])[H]

$$$$
53:0:0
     RDKit          3D

 96103  0  0  1  0  0  0  0  0999 V2000
  -29.3150  -22.1790   22.8800 N   0  0  0  0  0  4  0  0  0  0  0  0
  -28.5850  -22.3700   23.5480 H   0  0  0  0  0  0  0  0  0  0  0  0
  -30.1500  -22.6480   23.1960 H   0  0  0  0  0  0  0  0  0  0  0  0
  -29.5600  -20.7210   22.8260 C   0  0  0  0  0  2  0  0  0  0  0  0
  -30.8030  -20.3080   23.6200 C   0  0  0  0  0  2  0  0  0  0  0  0
  -30.7680  -18.8930   23.6970 O   0  0  0  0  0  0  0  0  0  0  0  0
  -32.0290  -18.2970   23.9440 C   0  0  0  0  0  2  0  0  0  0  0  0
  -31.8020  -16.8070   24.2490 C   0  0  0  0  0  2  0  0  0  0  0  0
  -31.7840  -15.8850   23.0140 C   0  0  0  0  0  2  0  0  0  0  0  0
  -30.4440  -15.8520   22.2540 C   0  0  0  0  0  2  0  0  0  0  0  0
  -30.2500  -14.5600   21.4440 C   0  0  0  0  0  2  0  0  0  0  0  0
  -29.9650  -14.0170   19.0580 C   0  0  0  0  0  0  0  0  0  0  0  0
  -29.5010  -11.7830   18.1220 C   0  0  0  0  0  2  0  0  0  0  0  0
  -28.3080  -11.7960   17.1480 C   0  0  0  0  0  2  0  0  0  0  0  0
  -26.9850  -11.5990   17.9110 C   0  0  0  0  0  2  0  0  0  0  0  0
  -26.8490  -12.5610   19.1190 C   0  0  0  0  0  3  0  0  0  0  0  0
  -28.1290  -12.5450   19.9830 C   0  0  0  0  0  2  0  0  0  0  0  0
  -29.3000  -12.8320   19.1300 N   0  0  0  0  0  0  0  0  0  0  0  0
  -30.6790  -14.3370   18.1060 O   0  0  0  0  0  0  0  0  0  0  0  0
  -29.8140  -14.8650   20.0820 N   0  0  0  0  0  0  0  0  0  0  0  0
  -30.0410  -15.8110   19.8120 H   0  0  0  0  0  0  0  0  0  0  0  0
  -24.7800  -13.1160   20.5520 C   0  0  0  0  0  0  0  0  0  0  0  0
  -23.8070  -12.3240   21.1030 C   0  0  0  0  0  0  0  0  0  0  0  0
  -24.1560  -10.9800   20.7640 C   0  0  0  0  0  0  0  0  0  0  0  0
  -25.6620  -12.2540   19.9190 N   0  0  0  0  0  0  0  0  0  0  0  0
  -25.3030  -10.9570   20.0970 N   0  0  0  0  0  0  0  0  0  0  0  0
  -23.4310   -9.7220   20.9830 C   0  0  0  0  0  0  0  0  0  0  0  0
  -23.8190   -8.8150   21.9940 C   0  0  0  0  0  3  0  0  0  0  0  0
  -23.0940   -7.6200   22.1980 C   0  0  0  0  0  3  0  0  0  0  0  0
  -21.9710   -7.3230   21.3900 C   0  0  0  0  0  0  0  0  0  0  0  0
  -21.6060   -8.2190   20.3690 C   0  0  0  0  0  3  0  0  0  0  0  0
  -22.3310   -9.4050   20.1650 C   0  0  0  0  0  3  0  0  0  0  0  0
  -21.2230   -6.1760   21.5000 O   0  0  0  0  0  0  0  0  0  0  0  0
  -20.5730   -5.8490   22.6630 C   0  0  0  0  0  0  0  0  0  0  0  0
  -19.7660   -6.7800   23.3540 C   0  0  0  0  0  3  0  0  0  0  0  0
  -19.0590   -6.3800   24.5040 C   0  0  0  0  0  3  0  0  0  0  0  0
  -19.1500   -5.0520   24.9630 C   0  0  0  0  0  0  0  0  0  0  0  0
  -19.9490   -4.1230   24.2740 C   0  0  0  0  0  3  0  0  0  0  0  0
  -20.6560   -4.5200   23.1250 C   0  0  0  0  0  0  0  0  0  0  0  0
  -21.4070   -3.6150   22.4530 F   0  0  0  0  0  0  0  0  0  0  0  0
  -18.4660   -4.6660   26.0650 F   0  0  0  0  0  0  0  0  0  0  0  0
  -22.5730  -12.7900   21.8200 C   0  0  0  0  0  0  0  0  0  0  0  0
  -22.1460  -12.0630   22.8470 N   0  0  0  0  0  0  0  0  0  0  0  0
  -22.0030  -13.8330   21.5010 O   0  0  0  0  0  0  0  0  0  0  0  0
  -22.6240  -11.2180   23.1260 H   0  0  0  0  0  0  0  0  0  0  0  0
  -21.3300  -12.3570   23.3640 H   0  0  0  0  0  0  0  0  0  0  0  0
  -24.9760  -14.4930   20.5190 N   0  0  0  0  0  0  0  0  0  0  0  0
  -24.3230  -15.1490   20.9340 H   0  0  0  0  0  0  0  0  0  0  0  0
  -25.7440  -14.9470   20.0400 H   0  0  0  0  0  0  0  0  0  0  0  0
  -28.9260  -22.7620   21.5830 C   0  0  0  0  0  2  0  0  0  0  0  0
  -28.9010  -24.2960   21.6560 C   0  0  0  0  0  2  0  0  0  0  0  0
  -28.8310  -24.8650   20.3170 N   0  0  0  0  0  0  0  0  0  0  0  0
  -28.0320  -24.4760   19.8200 H   0  0  0  0  0  0  0  0  0  0  0  0
  -28.6630  -26.3070   20.4150 C   0  0  0  0  0  2  0  0  0  0  0  0
  -28.7470  -26.9570   19.0240 C   0  0  0  0  0  2  0  0  0  0  0  0
  -28.4640  -28.3460   19.1380 O   0  0  0  0  0  0  0  0  0  0  0  0
  -24.4760  -31.9720   23.7490 C   0  0  0  0  0  0  0  0  0  0  0  0
  -27.1870  -28.7500   19.4630 C   0  0  0  0  0  0  0  0  0  0  0  0
  -23.2260  -30.7060   22.0300 C   0  0  0  0  0  3  0  0  0  0  0  0
  -24.6260  -29.7380   20.1340 C   0  0  0  0  0  0  0  0  0  0  0  0
  -25.5940  -31.5460   21.5640 C   0  0  0  0  0  2  0  0  0  0  0  0
  -25.7720  -30.3530   20.6510 C   0  0  0  0  0  0  0  0  0  0  0  0
  -27.0510  -29.8650   20.3150 C   0  0  0  0  0  3  0  0  0  0  0  0
  -26.0190  -28.1270   18.9590 C   0  0  0  0  0  3  0  0  0  0  0  0
  -24.7430  -28.6210   19.2900 C   0  0  0  0  0  3  0  0  0  0  0  0
  -23.2940  -30.3370   20.5240 C   0  0  0  0  0  2  0  0  0  0  0  0
  -24.4580  -31.4140   22.5060 N   0  0  0  0  0  0  0  0  0  0  0  0
  -23.4750  -31.9450   24.4780 O   0  0  0  0  0  0  0  0  0  0  0  0
  -22.9060  -29.4270   22.8340 C   0  0  0  0  0  0  0  0  0  0  0  0
  -21.7350  -28.8280   22.5620 N   0  0  0  0  0  0  0  0  0  0  0  0
  -23.7090  -28.9790   23.6570 O   0  0  0  0  0  0  0  0  0  0  0  0
  -21.1280  -29.2600   21.8790 H   0  0  0  0  0  0  0  0  0  0  0  0
  -19.1300  -26.3350   22.3660 C   0  0  0  0  0  0  0  0  0  0  0  0
  -21.2420  -27.5930   23.1680 C   0  0  0  0  0  3  0  0  0  0  0  0
  -22.0400  -26.3680   22.6640 C   0  0  0  0  0  2  0  0  0  0  0  0
  -21.4000  -25.6910   21.4480 C   0  0  0  0  0  2  0  0  0  0  0  0
  -19.9810  -25.2200   21.7790 C   0  0  0  0  0  2  0  0  0  0  0  0
  -19.7230  -27.4560   23.0040 C   0  0  0  0  0  0  0  0  0  0  0  0
  -18.8910  -28.4820   23.5000 C   0  0  0  0  0  3  0  0  0  0  0  0
  -17.4920  -28.4000   23.3710 C   0  0  0  0  0  3  0  0  0  0  0  0
  -16.9100  -27.2790   22.7520 C   0  0  0  0  0  3  0  0  0  0  0  0
  -17.7270  -26.2490   22.2550 C   0  0  0  0  0  3  0  0  0  0  0  0
  -25.7440  -32.6940   24.3040 C   0  0  0  0  0  3  0  0  0  0  0  0
  -26.2490  -32.0990   25.6760 C   0  0  1  0  0  0  0  0  0  0  0  0
  -25.1330  -31.9580   26.7370 C   0  0  0  0  0  1  0  0  0  0  0  0
  -26.8810  -30.7040   25.4640 C   0  0  0  0  0  1  0  0  0  0  0  0
  -27.3560  -33.0050   26.2660 C   0  0  0  0  0  1  0  0  0  0  0  0
  -25.4160  -34.1190   24.4410 N   0  0  0  0  0  0  0  0  0  0  0  0
  -25.8690  -35.0840   23.6300 C   0  0  0  0  0  0  0  0  0  0  0  0
  -26.6750  -34.8720   22.7190 O   0  0  0  0  0  0  0  0  0  0  0  0
  -24.7180  -34.3600   25.1300 H   0  0  0  0  0  0  0  0  0  0  0  0
  -24.2990  -36.8620   22.7940 C   0  0  0  0  0  1  0  0  0  0  0  0
  -25.3440  -36.5130   23.8650 C   0  0  0  0  0  3  0  0  0  0  0  0
  -27.2980  -37.4380   25.0290 C   0  0  0  0  0  1  0  0  0  0  0  0
  -26.4110  -37.5380   23.8730 N   0  0  0  0  0  0  0  0  0  0  0  0
  -26.0120  -38.4730   23.8600 H   0  0  0  0  0  0  0  0  0  0  0  0
  1  3  1  0
  1  2  1  0
  4  1  1  0
  4  5  1  0
  5  6  1  0
  6  7  1  0
  7  8  1  0
  9  8  1  0
 10  9  1  0
 11 10  1  0
 12 18  1  0
 12 20  1  0
 13 18  1  0
 14 15  1  0
 14 13  1  0
 16 15  1  0
 16 25  1  0
 16 17  1  0
 18 17  1  0
 19 12  2  0
 20 11  1  0
 21 20  1  0
 22 23  2  0
 23 42  1  0
 24 27  1  0
 24 23  1  0
 25 26  1  0
 25 22  1  0
 26 24  2  0
 27 28  1  0
 28 29  2  0
 30 33  1  0
 30 29  1  0
 31 30  2  0
 32 31  1  0
 32 27  2  0
 33 34  1  0
 34 39  2  0
 34 35  1  0
 35 36  2  0
 36 37  1  0
 37 41  1  0
 38 37  2  0
 39 38  1  0
 40 39  1  0
 42 43  1  0
 43 45  1  0
 43 46  1  0
 44 42  2  0
 47 22  1  0
 47 48  1  0
 49 47  1  0
 50 51  1  0
 50  1  1  0
 52 54  1  0
 52 51  1  0
 53 52  1  0
 55 56  1  0
 55 54  1  0
 56 58  1  0
 57 68  2  0
 58 63  1  0
 59 67  1  0
 59 69  1  0
 60 66  1  0
 60 62  1  0
 61 67  1  0
 62 61  1  0
 63 62  2  0
 64 65  1  0
 64 58  2  0
 65 60  2  0
 66 59  1  0
 67 57  1  0
 69 71  2  0
 70 69  1  0
 72 70  1  0
 73 78  1  0
 74 70  1  0
 75 74  1  0
 76 77  1  0
 76 75  1  0
 77 73  1  0
 78 74  1  0
 78 79  2  0
 80 79  1  0
 81 80  2  0
 82 73  2  0
 82 81  1  0
 83 57  1  0
 83 88  1  0
 83 84  1  0
 84 87  1  1
 84 85  1  0
 86 84  1  0
 88 91  1  0
 89 93  1  0
 89 88  1  0
 90 89  2  0
 93 92  1  0
 93 95  1  0
 95 94  1  0
 96 95  1  0
M  ISO  4  12 100  20 100  55 101  56 101
M  END
>  <TORSDO>  (51) 
F 29

>  <SCORE>  (51) 
2.841

>  <name>  (51) 
53

>  <ligand_id>  (51) 
53

>  <original_smiles>  (51) 
[H]c1c([H])c([H])c2c(c1[H])C([H])([H])C([H])([H])C([H])([H])C2([H])N([H])C(=O)C1([H])N(C(=O)C([H])(N([H])C(=O)C([H])(N([H])C([H])([H])[H])C([H])([H])[H])C(C([H])([H])[H])(C([H])([H])[H])C([H])([H])[H])C([H])([H])c2c([H])c(OC([H])([H])C([H])([H])N([H])C([H])([H])C([H])([H])[N+]([H])([H])C([H])([H])C([H])([H])OC([H])([H])C([H])([H])C([H])([H])C([H])([H])C([H])([H])N([H])C(=O)N3C([H])([H])C([H])([H])C([H])([H])C([H])(n4nc(-c5c([H])c([H])c(Oc6c([H])c([H])c(F)c([H])c6F)c([H])c5[H])c(C(=O)N([H])[H])c4N([H])[H])C3([H])[H])c([H])c([H])c2C1([H])[H]

>  <smiles>  (51) 
[H]c1c([H])c([H])c2c(c1[H])C([H])([H])C([H])([H])C([H])([H])C2([H])N([H])C(=O)C1([H])N(C(=O)C([H])(N([H])C(=O)C([H])(N([H])C([H])([H])[H])C([H])([H])[H])C(C([H])([H])[H])(C([H])([H])[H])C([H])([H])[H])C([H])([H])c2c([H])c(OC([H])([H])C([H])([H])N([H])C([H])([H])C([H])([H])[N+]([H])([H])C([H])([H])C([H])([H])OC([H])([H])C([H])([H])C([H])([H])C([H])([H])C([H])([H])N([H])C(=O)N3C([H])([H])C([H])([H])C([H])([H])C([H])(n4nc(-c5c([H])c([H])c(Oc6c([H])c([H])c(F)c([H])c6F)c([H])c5[H])c(C(=O)N([H])[H])c4N([H])[H])C3([H])[H])c([H])c([H])c2C1([H])[H]

$$$$
54:0:0
     RDKit          3D

 87 94  0  0  1  0  0  0  0  0999 V2000
  -28.5720  -21.8660   20.2650 N   0  0  0  0  0  4  0  0  0  0  0  0
  -27.8610  -21.7250   20.9660 H   0  0  0  0  0  0  0  0  0  0  0  0
  -28.1090  -21.7550   19.3770 H   0  0  0  0  0  0  0  0  0  0  0  0
  -29.5730  -20.6410   20.3930 C   0  0  0  0  0  2  0  0  0  0  0  0
  -29.1030  -19.0140   20.3830 C   0  0  0  0  0  3  0  0  0  0  0  0
  -30.1590  -17.6960   20.4240 C   0  0  0  0  0  3  0  0  0  0  0  0
  -30.5210  -14.9810   20.3370 C   0  0  0  0  0  0  0  0  0  0  0  0
  -30.3860  -12.6420   19.3800 C   0  0  0  0  0  2  0  0  0  0  0  0
  -29.4480  -12.6130   18.1520 C   0  0  0  0  0  2  0  0  0  0  0  0
  -27.9850  -12.4040   18.5900 C   0  0  0  0  0  2  0  0  0  0  0  0
  -27.5850  -13.3160   19.7790 C   0  0  0  0  0  3  0  0  0  0  0  0
  -28.6480  -13.3180   20.9000 C   0  0  0  0  0  2  0  0  0  0  0  0
  -29.9150  -13.7290   20.2840 N   0  0  0  0  0  0  0  0  0  0  0  0
  -31.7210  -15.0450   20.0530 O   0  0  0  0  0  0  0  0  0  0  0  0
  -29.7580  -16.1690   20.4970 N   0  0  0  0  0  0  0  0  0  0  0  0
  -28.7790  -15.9980   20.6790 H   0  0  0  0  0  0  0  0  0  0  0  0
  -25.2050  -13.8790   20.5340 C   0  0  0  0  0  0  0  0  0  0  0  0
  -24.1470  -13.0960   20.9040 C   0  0  0  0  0  0  0  0  0  0  0  0
  -24.6180  -11.7480   20.8630 C   0  0  0  0  0  0  0  0  0  0  0  0
  -26.2510  -13.0080   20.2830 N   0  0  0  0  0  0  0  0  0  0  0  0
  -25.9090  -11.7210   20.5480 N   0  0  0  0  0  0  0  0  0  0  0  0
  -23.8980  -10.4800   21.0460 C   0  0  0  0  0  0  0  0  0  0  0  0
  -24.3320   -9.5120   21.9780 C   0  0  0  0  0  3  0  0  0  0  0  0
  -23.6100   -8.3110   22.1500 C   0  0  0  0  0  3  0  0  0  0  0  0
  -22.4400   -8.0700   21.3920 C   0  0  0  0  0  0  0  0  0  0  0  0
  -22.0260   -9.0280   20.4490 C   0  0  0  0  0  3  0  0  0  0  0  0
  -22.7490  -10.2200   20.2750 C   0  0  0  0  0  3  0  0  0  0  0  0
  -21.6900   -6.9220   21.4730 O   0  0  0  0  0  0  0  0  0  0  0  0
  -21.6350   -6.1790   22.6250 C   0  0  0  0  0  0  0  0  0  0  0  0
  -21.1810   -6.7270   23.8450 C   0  0  0  0  0  3  0  0  0  0  0  0
  -21.0750   -5.9090   24.9880 C   0  0  0  0  0  3  0  0  0  0  0  0
  -21.4140   -4.5450   24.9130 C   0  0  0  0  0  0  0  0  0  0  0  0
  -21.8610   -3.9970   23.6980 C   0  0  0  0  0  3  0  0  0  0  0  0
  -21.9680   -4.8120   22.5560 C   0  0  0  0  0  0  0  0  0  0  0  0
  -22.3800   -4.2730   21.3830 F   0  0  0  0  0  0  0  0  0  0  0  0
  -21.3050   -3.7570   26.0080 F   0  0  0  0  0  0  0  0  0  0  0  0
  -22.7480  -13.5650   21.1810 C   0  0  0  0  0  0  0  0  0  0  0  0
  -22.0280  -12.8640   22.0500 N   0  0  0  0  0  0  0  0  0  0  0  0
  -22.3030  -14.5870   20.6620 O   0  0  0  0  0  0  0  0  0  0  0  0
  -22.4030  -12.0370   22.4910 H   0  0  0  0  0  0  0  0  0  0  0  0
  -21.0900  -13.1590   22.2790 H   0  0  0  0  0  0  0  0  0  0  0  0
  -25.3590  -15.2510   20.3620 N   0  0  0  0  0  0  0  0  0  0  0  0
  -24.5840  -15.8960   20.4740 H   0  0  0  0  0  0  0  0  0  0  0  0
  -26.1910  -15.6960   19.9970 H   0  0  0  0  0  0  0  0  0  0  0  0
  -29.0140  -23.3920   20.3650 C   0  0  0  0  0  3  0  0  0  0  0  0
  -27.9550  -24.6840   20.1350 C   0  0  0  0  0  3  0  0  0  0  0  0
  -28.2380  -26.2140   20.2750 O   0  0  0  0  0  0  0  0  0  0  0  0
  -24.6190  -31.9100   23.2420 C   0  0  0  0  0  0  0  0  0  0  0  0
  -27.1820  -27.1950   20.2080 C   0  0  0  0  0  0  0  0  0  0  0  0
  -23.4170  -30.5250   21.5940 C   0  0  0  0  0  3  0  0  0  0  0  0
  -24.8610  -28.9490   20.1710 C   0  0  0  0  0  0  0  0  0  0  0  0
  -25.9720  -30.7790   21.4390 C   0  0  0  0  0  2  0  0  0  0  0  0
  -26.0400  -29.3890   20.7830 C   0  0  0  0  0  0  0  0  0  0  0  0
  -27.2030  -28.5310   20.7820 C   0  0  0  0  0  3  0  0  0  0  0  0
  -25.9730  -26.8550   19.5600 C   0  0  0  0  0  3  0  0  0  0  0  0
  -24.8400  -27.6950   19.5440 C   0  0  0  0  0  3  0  0  0  0  0  0
  -23.6370  -29.8500   20.2160 C   0  0  0  0  0  2  0  0  0  0  0  0
  -24.6900  -31.0940   22.1460 N   0  0  0  0  0  0  0  0  0  0  0  0
  -23.5320  -32.1990   23.7660 O   0  0  0  0  0  0  0  0  0  0  0  0
  -22.7300  -29.5190   22.5520 C   0  0  0  0  0  0  0  0  0  0  0  0
  -21.4010  -29.3580   22.4240 N   0  0  0  0  0  0  0  0  0  0  0  0
  -23.3970  -28.8850   23.3750 O   0  0  0  0  0  0  0  0  0  0  0  0
  -20.9200  -29.9220   21.7360 H   0  0  0  0  0  0  0  0  0  0  0  0
  -18.0070  -28.1930   22.9270 C   0  0  0  0  0  0  0  0  0  0  0  0
  -20.5710  -28.4260   23.1900 C   0  0  0  0  0  3  0  0  0  0  0  0
  -20.6550  -26.9960   22.6060 C   0  0  0  0  0  2  0  0  0  0  0  0
  -19.5470  -26.6910   21.5920 C   0  0  0  0  0  2  0  0  0  0  0  0
  -18.1680  -26.8470   22.2410 C   0  0  0  0  0  2  0  0  0  0  0  0
  -19.1350  -28.9410   23.3580 C   0  0  0  0  0  0  0  0  0  0  0  0
  -18.9300  -30.2010   23.9610 C   0  0  0  0  0  3  0  0  0  0  0  0
  -17.6310  -30.7130   24.1360 C   0  0  0  0  0  3  0  0  0  0  0  0
  -16.5180  -29.9620   23.7200 C   0  0  0  0  0  3  0  0  0  0  0  0
  -16.7070  -28.7040   23.1210 C   0  0  0  0  0  3  0  0  0  0  0  0
  -25.8980  -32.5370   23.8750 C   0  0  0  0  0  3  0  0  0  0  0  0
  -25.5910  -33.9360   24.2110 N   0  0  0  0  0  0  0  0  0  0  0  0
  -25.9050  -34.9930   23.4490 C   0  0  0  0  0  0  0  0  0  0  0  0
  -26.5500  -34.8930   22.4020 O   0  0  0  0  0  0  0  0  0  0  0  0
  -25.0140  -34.0880   25.0260 H   0  0  0  0  0  0  0  0  0  0  0  0
  -24.1530  -36.7780   23.1630 C   0  0  0  0  0  1  0  0  0  0  0  0
  -25.4280  -36.3810   23.9230 C   0  0  0  0  0  3  0  0  0  0  0  0
  -27.5880  -37.2830   24.6670 C   0  0  0  0  0  1  0  0  0  0  0  0
  -26.4490  -37.4390   23.7650 N   0  0  0  0  0  0  0  0  0  0  0  0
  -26.0430  -38.3580   23.9230 H   0  0  0  0  0  0  0  0  0  0  0  0
  -26.3990  -31.7620   25.1550 C   0  0  1  0  0  0  0  0  0  0  0  0
  -25.2960  -31.5320   26.2150 C   0  0  0  0  0  1  0  0  0  0  0  0
  -26.9760  -30.3790   24.7720 C   0  0  0  0  0  1  0  0  0  0  0  0
  -27.5510  -32.5490   25.8250 C   0  0  0  0  0  1  0  0  0  0  0  0
  1 45  1  0
  1  4  1  0
  1  2  1  0
  3  1  1  0
  5  4  1  0
  5  6  2  0
  6 15  1  0
  7 15  1  0
  8 13  1  0
  9 10  1  0
  9  8  1  0
 11 10  1  0
 11 20  1  0
 11 12  1  0
 13  7  1  0
 13 12  1  0
 14  7  2  0
 15 16  1  0
 17 18  2  0
 18 37  1  0
 19 18  1  0
 19 22  1  0
 20 17  1  0
 20 21  1  0
 21 19  2  0
 22 23  1  0
 23 24  2  0
 25 28  1  0
 25 24  1  0
 26 25  2  0
 27 26  1  0
 27 22  2  0
 28 29  1  0
 29 30  1  0
 30 31  2  0
 32 31  1  0
 32 36  1  0
 33 32  2  0
 34 29  2  0
 34 33  1  0
 35 34  1  0
 37 38  1  0
 38 41  1  0
 38 40  1  0
 39 37  2  0
 42 43  1  0
 42 17  1  0
 44 42  1  0
 46 47  1  0
 46 45  2  0
 48 59  2  0
 49 47  1  0
 49 54  1  0
 50 58  1  0
 50 60  1  0
 51 57  1  0
 51 53  1  0
 52 58  1  0
 53 52  1  0
 54 53  2  0
 55 49  2  0
 56 55  1  0
 56 51  2  0
 57 50  1  0
 58 48  1  0
 60 62  2  0
 61 60  1  0
 63 61  1  0
 64 73  2  0
 64 69  1  0
 65 61  1  0
 65 69  1  0
 66 65  1  0
 67 68  1  0
 67 66  1  0
 68 64  1  0
 69 70  2  0
 70 71  1  0
 72 71  2  0
 73 72  1  0
 74 48  1  0
 74 75  1  0
 74 84  1  0
 75 78  1  0
 76 80  1  0
 76 75  1  0
 77 76  2  0
 80 79  1  0
 82 80  1  0
 82 83  1  0
 82 81  1  0
 84 87  1  1
 84 85  1  0
 86 84  1  0
M  ISO  4   7 100  15 100  46 101  47 101
M  END
>  <TORSDO>  (52) 
F 21

>  <SCORE>  (52) 
-13.179

>  <name>  (52) 
54

>  <ligand_id>  (52) 
54

>  <original_smiles>  (52) 
[H]c1c([H])c([H])c2c(c1[H])C([H])([H])C([H])([H])C([H])([H])C2([H])N([H])C(=O)C1([H])N(C(=O)C([H])(N([H])C(=O)C([H])(N([H])C([H])([H])[H])C([H])([H])[H])C(C([H])([H])[H])(C([H])([H])[H])C([H])([H])[H])C([H])([H])c2c([H])c(OC([H])([H])C([H])([H])[N+]([H])([H])C([H])([H])C([H])([H])C([H])([H])N([H])C(=O)N3C([H])([H])C([H])([H])C([H])([H])C([H])(n4nc(-c5c([H])c([H])c(Oc6c([H])c([H])c(F)c([H])c6F)c([H])c5[H])c(C(=O)N([H])[H])c4N([H])[H])C3([H])[H])c([H])c([H])c2C1([H])[H]

>  <smiles>  (52) 
[H]c1c([H])c([H])c2c(c1[H])C([H])([H])C([H])([H])C([H])([H])C2([H])N([H])C(=O)C1([H])N(C(=O)C([H])(N([H])C(=O)C([H])(N([H])C([H])([H])[H])C([H])([H])[H])C(C([H])([H])[H])(C([H])([H])[H])C([H])([H])[H])C([H])([H])c2c([H])c(OC([H])([H])C([H])([H])[N+]([H])([H])C([H])([H])C([H])([H])C([H])([H])N([H])C(=O)N3C([H])([H])C([H])([H])C([H])([H])C([H])(n4nc(-c5c([H])c([H])c(Oc6c([H])c([H])c(F)c([H])c6F)c([H])c5[H])c(C(=O)N([H])[H])c4N([H])[H])C3([H])[H])c([H])c([H])c2C1([H])[H]

$$$$
55:0:0
     RDKit          3D

 94101  0  0  1  0  0  0  0  0999 V2000
  -29.2030  -23.0100   17.1650 C   0  0  0  0  0  2  0  0  0  0  0  0
  -30.5200  -23.6560   17.3600 N   0  0  0  0  0  4  0  0  0  0  0  0
  -31.1080  -23.3700   16.5930 H   0  0  0  0  0  0  0  0  0  0  0  0
  -30.9600  -23.3270   18.2040 H   0  0  0  0  0  0  0  0  0  0  0  0
  -30.5110  -25.1360   17.3670 C   0  0  0  0  0  2  0  0  0  0  0  0
  -30.1540  -25.7620   18.7360 C   0  0  0  0  0  2  0  0  0  0  0  0
  -28.6490  -25.8890   19.0130 C   0  0  0  0  0  2  0  0  0  0  0  0
  -28.4500  -26.8120   20.0760 O   0  0  0  0  0  0  0  0  0  0  0  0
  -24.6080  -31.8800   23.2260 C   0  0  0  0  0  0  0  0  0  0  0  0
  -27.2390  -27.4640   20.1180 C   0  0  0  0  0  0  0  0  0  0  0  0
  -23.3880  -30.4750   21.5940 C   0  0  0  0  0  3  0  0  0  0  0  0
  -24.8290  -28.9340   20.1690 C   0  0  0  0  0  0  0  0  0  0  0  0
  -25.9090  -30.8390   21.3770 C   0  0  0  0  0  2  0  0  0  0  0  0
  -25.9880  -29.4660   20.7480 C   0  0  0  0  0  0  0  0  0  0  0  0
  -27.1920  -28.7320   20.7300 C   0  0  0  0  0  3  0  0  0  0  0  0
  -26.0550  -26.9240   19.5640 C   0  0  0  0  0  3  0  0  0  0  0  0
  -24.8540  -27.6570   19.5830 C   0  0  0  0  0  3  0  0  0  0  0  0
  -23.5870  -29.7910   20.2160 C   0  0  0  0  0  2  0  0  0  0  0  0
  -24.6540  -31.0790   22.1240 N   0  0  0  0  0  0  0  0  0  0  0  0
  -23.5310  -32.1520   23.7740 O   0  0  0  0  0  0  0  0  0  0  0  0
  -22.7460  -29.4540   22.5600 C   0  0  0  0  0  0  0  0  0  0  0  0
  -21.4220  -29.2700   22.4380 N   0  0  0  0  0  0  0  0  0  0  0  0
  -23.4350  -28.8320   23.3730 O   0  0  0  0  0  0  0  0  0  0  0  0
  -20.9290  -29.8240   21.7510 H   0  0  0  0  0  0  0  0  0  0  0  0
  -18.0530  -28.0690   22.9370 C   0  0  0  0  0  0  0  0  0  0  0  0
  -20.6090  -28.3350   23.2120 C   0  0  0  0  0  3  0  0  0  0  0  0
  -20.7160  -26.9010   22.6450 C   0  0  0  0  0  2  0  0  0  0  0  0
  -19.6160  -26.5690   21.6310 C   0  0  0  0  0  2  0  0  0  0  0  0
  -18.2330  -26.7150   22.2720 C   0  0  0  0  0  2  0  0  0  0  0  0
  -19.1690  -28.8360   23.3650 C   0  0  0  0  0  0  0  0  0  0  0  0
  -18.9470  -30.1040   23.9450 C   0  0  0  0  0  3  0  0  0  0  0  0
  -17.6410  -30.6040   24.1040 C   0  0  0  0  0  3  0  0  0  0  0  0
  -16.5390  -29.8340   23.6940 C   0  0  0  0  0  3  0  0  0  0  0  0
  -16.7450  -28.5680   23.1160 C   0  0  0  0  0  3  0  0  0  0  0  0
  -25.9010  -32.5070   23.8370 C   0  0  0  0  0  3  0  0  0  0  0  0
  -26.4350  -31.7270   25.1000 C   0  0  1  0  0  0  0  0  0  0  0  0
  -25.3570  -31.4800   26.1810 C   0  0  0  0  0  1  0  0  0  0  0  0
  -27.0140  -30.3540   24.6850 C   0  0  0  0  0  1  0  0  0  0  0  0
  -27.5950  -32.5170   25.7500 C   0  0  0  0  0  1  0  0  0  0  0  0
  -25.5930  -33.9030   24.1770 N   0  0  0  0  0  0  0  0  0  0  0  0
  -25.9210  -34.9580   23.4190 C   0  0  0  0  0  0  0  0  0  0  0  0
  -26.5850  -34.8600   22.3830 O   0  0  0  0  0  0  0  0  0  0  0  0
  -25.0030  -34.0530   24.9810 H   0  0  0  0  0  0  0  0  0  0  0  0
  -24.1870  -36.7490   23.0830 C   0  0  0  0  0  1  0  0  0  0  0  0
  -25.4350  -36.3440   23.8850 C   0  0  0  0  0  3  0  0  0  0  0  0
  -27.5770  -37.2240   24.7020 C   0  0  0  0  0  1  0  0  0  0  0  0
  -26.4660  -37.3980   23.7690 N   0  0  0  0  0  0  0  0  0  0  0  0
  -26.0610  -38.3170   23.9270 H   0  0  0  0  0  0  0  0  0  0  0  0
  -29.2820  -21.4750   17.2140 C   0  0  0  0  0  2  0  0  0  0  0  0
  -29.6520  -20.9120   18.5990 C   0  0  0  0  0  2  0  0  0  0  0  0
  -29.5480  -19.3790   18.6350 C   0  0  0  0  0  2  0  0  0  0  0  0
  -29.9980  -18.8060   19.9220 N   0  0  0  0  0  4  0  0  0  0  0  0
  -29.4920  -19.2450   20.6740 H   0  0  0  0  0  0  0  0  0  0  0  0
  -30.9780  -19.0040   20.0440 H   0  0  0  0  0  0  0  0  0  0  0  0
  -29.7920  -17.3460   19.9970 C   0  0  0  0  0  2  0  0  0  0  0  0
  -30.3190  -16.7220   21.3070 C   0  0  0  0  0  2  0  0  0  0  0  0
  -30.6860  -14.3730   20.5870 C   0  0  0  0  0  0  0  0  0  0  0  0
  -30.3530  -12.2740   19.3430 C   0  0  0  0  0  2  0  0  0  0  0  0
  -29.4040  -12.5270   18.1540 C   0  0  0  0  0  2  0  0  0  0  0  0
  -27.9310  -12.4030   18.5870 C   0  0  0  0  0  2  0  0  0  0  0  0
  -27.6140  -13.2140   19.8710 C   0  0  0  0  0  3  0  0  0  0  0  0
  -28.6640  -12.9190   20.9660 C   0  0  0  0  0  2  0  0  0  0  0  0
  -30.0020  -13.2140   20.4160 N   0  0  0  0  0  0  0  0  0  0  0  0
  -31.7470  -14.6400   20.0160 O   0  0  0  0  0  0  0  0  0  0  0  0
  -30.0480  -15.2870   21.3280 N   0  0  0  0  0  0  0  0  0  0  0  0
  -29.2020  -14.9790   21.7850 H   0  0  0  0  0  0  0  0  0  0  0  0
  -25.2140  -13.8440   20.5590 C   0  0  0  0  0  0  0  0  0  0  0  0
  -24.1390  -13.0800   20.9260 C   0  0  0  0  0  0  0  0  0  0  0  0
  -24.5930  -11.7250   20.9020 C   0  0  0  0  0  0  0  0  0  0  0  0
  -26.2550  -12.9550   20.3410 N   0  0  0  0  0  0  0  0  0  0  0  0
  -25.8820  -11.6760   20.5990 N   0  0  0  0  0  0  0  0  0  0  0  0
  -23.8590  -10.4680   21.0930 C   0  0  0  0  0  0  0  0  0  0  0  0
  -24.3030   -9.4870   22.0060 C   0  0  0  0  0  3  0  0  0  0  0  0
  -23.5730   -8.2920   22.1860 C   0  0  0  0  0  3  0  0  0  0  0  0
  -22.3820   -8.0720   21.4540 C   0  0  0  0  0  0  0  0  0  0  0  0
  -21.9560   -9.0420   20.5290 C   0  0  0  0  0  3  0  0  0  0  0  0
  -22.6880  -10.2270   20.3470 C   0  0  0  0  0  3  0  0  0  0  0  0
  -21.6210   -6.9320   21.5460 O   0  0  0  0  0  0  0  0  0  0  0  0
  -21.6110   -6.1630   22.6820 C   0  0  0  0  0  0  0  0  0  0  0  0
  -21.2600   -6.6950   23.9410 C   0  0  0  0  0  3  0  0  0  0  0  0
  -21.1970   -5.8540   25.0700 C   0  0  0  0  0  3  0  0  0  0  0  0
  -21.4730   -4.4790   24.9400 C   0  0  0  0  0  0  0  0  0  0  0  0
  -21.8170   -3.9460   23.6850 C   0  0  0  0  0  3  0  0  0  0  0  0
  -21.8830   -4.7850   22.5600 C   0  0  0  0  0  0  0  0  0  0  0  0
  -22.1940   -4.2620   21.3500 F   0  0  0  0  0  0  0  0  0  0  0  0
  -21.4040   -3.6680   26.0210 F   0  0  0  0  0  0  0  0  0  0  0  0
  -22.7430  -13.5640   21.1960 C   0  0  0  0  0  0  0  0  0  0  0  0
  -22.0140  -12.8750   22.0670 N   0  0  0  0  0  0  0  0  0  0  0  0
  -22.3090  -14.5880   20.6700 O   0  0  0  0  0  0  0  0  0  0  0  0
  -22.3780  -12.0460   22.5130 H   0  0  0  0  0  0  0  0  0  0  0  0
  -21.0770  -13.1810   22.2910 H   0  0  0  0  0  0  0  0  0  0  0  0
  -25.3870  -15.2110   20.3710 N   0  0  0  0  0  0  0  0  0  0  0  0
  -24.6220  -15.8720   20.4630 H   0  0  0  0  0  0  0  0  0  0  0  0
  -26.2370  -15.6350   20.0230 H   0  0  0  0  0  0  0  0  0  0  0  0
  1 49  1  0
  1  2  1  0
  2  5  1  0
  2  4  1  0
  3  2  1  0
  5  6  1  0
  6  7  1  0
  7  8  1  0
  8 10  1  0
  9 20  2  0
 10 15  1  0
 11 19  1  0
 11 21  1  0
 12 18  1  0
 12 14  1  0
 13 19  1  0
 14 13  1  0
 15 14  2  0
 16 17  1  0
 16 10  2  0
 17 12  2  0
 18 11  1  0
 19  9  1  0
 21 23  2  0
 22 21  1  0
 24 22  1  0
 25 34  2  0
 25 30  1  0
 26 22  1  0
 26 30  1  0
 27 26  1  0
 28 29  1  0
 28 27  1  0
 29 25  1  0
 30 31  2  0
 31 32  1  0
 33 32  2  0
 34 33  1  0
 35  9  1  0
 35 40  1  0
 35 36  1  0
 36 39  1  1
 36 37  1  0
 38 36  1  0
 40 43  1  0
 41 45  1  0
 41 40  1  0
 42 41  2  0
 45 44  1  0
 47 45  1  0
 47 48  1  0
 47 46  1  0
 49 50  1  0
 50 51  1  0
 51 52  1  0
 52 55  1  0
 52 54  1  0
 52 53  1  0
 55 56  1  0
 56 65  1  0
 57 65  1  0
 58 63  1  0
 59 60  1  0
 59 58  1  0
 61 60  1  0
 61 70  1  0
 61 62  1  0
 63 57  1  0
 63 62  1  0
 64 57  2  0
 65 66  1  0
 67 68  2  0
 68 87  1  0
 69 68  1  0
 69 72  1  0
 70 67  1  0
 70 71  1  0
 71 69  2  0
 72 73  1  0
 73 74  2  0
 75 78  1  0
 75 74  1  0
 76 75  2  0
 77 76  1  0
 77 72  2  0
 78 79  1  0
 79 80  1  0
 80 81  2  0
 82 81  1  0
 82 86  1  0
 83 82  2  0
 84 79  2  0
 84 83  1  0
 85 84  1  0
 87 88  1  0
 88 91  1  0
 88 90  1  0
 89 87  2  0
 92 93  1  0
 92 67  1  0
 94 92  1  0
M  ISO  4   7 101   8 101  57 100  65 100
M  END
>  <TORSDO>  (53) 
F 26

>  <SCORE>  (53) 
-11.711

>  <name>  (53) 
55

>  <ligand_id>  (53) 
55

>  <original_smiles>  (53) 
[H]c1c([H])c([H])c2c(c1[H])C([H])([H])C([H])([H])C([H])([H])C2([H])N([H])C(=O)C1([H])N(C(=O)C([H])(N([H])C(=O)C([H])(N([H])C([H])([H])[H])C([H])([H])[H])C(C([H])([H])[H])(C([H])([H])[H])C([H])([H])[H])C([H])([H])c2c([H])c(OC([H])([H])C([H])([H])C([H])([H])[N+]([H])([H])C([H])([H])C([H])([H])C([H])([H])C([H])([H])[N+]([H])([H])C([H])([H])C([H])([H])N([H])C(=O)N3C([H])([H])C([H])([H])C([H])([H])C([H])(n4nc(-c5c([H])c([H])c(Oc6c([H])c([H])c(F)c([H])c6F)c([H])c5[H])c(C(=O)N([H])[H])c4N([H])[H])C3([H])[H])c([H])c([H])c2C1([H])[H]

>  <smiles>  (53) 
[H]c1c([H])c([H])c2c(c1[H])C([H])([H])C([H])([H])C([H])([H])C2([H])N([H])C(=O)C1([H])N(C(=O)C([H])(N([H])C(=O)C([H])(N([H])C([H])([H])[H])C([H])([H])[H])C(C([H])([H])[H])(C([H])([H])[H])C([H])([H])[H])C([H])([H])c2c([H])c(OC([H])([H])C([H])([H])C([H])([H])[N+]([H])([H])C([H])([H])C([H])([H])C([H])([H])C([H])([H])[N+]([H])([H])C([H])([H])C([H])([H])N([H])C(=O)N3C([H])([H])C([H])([H])C([H])([H])C([H])(n4nc(-c5c([H])c([H])c(Oc6c([H])c([H])c(F)c([H])c6F)c([H])c5[H])c(C(=O)N([H])[H])c4N([H])[H])C3([H])[H])c([H])c([H])c2C1([H])[H]

$$$$
56:0:0
     RDKit          3D

 93100  0  0  1  0  0  0  0  0999 V2000
  -30.0650  -22.1250   19.4420 N   0  0  0  0  0  4  0  0  0  0  0  0
  -29.6120  -22.2220   20.3360 H   0  0  0  0  0  0  0  0  0  0  0  0
  -29.3730  -21.8100   18.7790 H   0  0  0  0  0  0  0  0  0  0  0  0
  -30.5720  -23.4500   19.0360 C   0  0  0  0  0  2  0  0  0  0  0  0
  -29.4630  -24.5110   19.0870 C   0  0  0  0  0  2  0  0  0  0  0  0
  -30.0180  -25.9340   18.8830 C   0  0  0  0  0  2  0  0  0  0  0  0
  -28.9630  -26.9380   18.9020 N   0  0  0  0  0  0  0  0  0  0  0  0
  -28.2360  -26.7010   18.2320 H   0  0  0  0  0  0  0  0  0  0  0  0
  -28.3470  -26.8190   20.1970 O   0  0  0  0  0  0  0  0  0  0  0  0
  -24.5020  -31.9270   23.2670 C   0  0  0  0  0  0  0  0  0  0  0  0
  -27.1730  -27.5170   20.2100 C   0  0  0  0  0  0  0  0  0  0  0  0
  -23.2980  -30.5050   21.6360 C   0  0  0  0  0  3  0  0  0  0  0  0
  -24.7590  -28.9640   20.2230 C   0  0  0  0  0  0  0  0  0  0  0  0
  -25.8150  -30.8900   21.4250 C   0  0  0  0  0  2  0  0  0  0  0  0
  -25.9100  -29.5150   20.8020 C   0  0  0  0  0  0  0  0  0  0  0  0
  -27.1210  -28.7940   20.7990 C   0  0  0  0  0  3  0  0  0  0  0  0
  -26.0090  -26.9560   19.6470 C   0  0  0  0  0  3  0  0  0  0  0  0
  -24.8000  -27.6800   19.6470 C   0  0  0  0  0  3  0  0  0  0  0  0
  -23.5080  -29.8120   20.2610 C   0  0  0  0  0  2  0  0  0  0  0  0
  -24.5560  -31.1230   22.1680 N   0  0  0  0  0  0  0  0  0  0  0  0
  -23.4220  -32.1970   23.8090 O   0  0  0  0  0  0  0  0  0  0  0  0
  -22.6570  -29.4890   22.6050 C   0  0  0  0  0  0  0  0  0  0  0  0
  -21.3330  -29.2980   22.4790 N   0  0  0  0  0  0  0  0  0  0  0  0
  -23.3440  -28.8740   23.4250 O   0  0  0  0  0  0  0  0  0  0  0  0
  -20.8400  -29.8470   21.7900 H   0  0  0  0  0  0  0  0  0  0  0  0
  -17.9650  -28.0940   22.9800 C   0  0  0  0  0  0  0  0  0  0  0  0
  -20.5210  -28.3620   23.2560 C   0  0  0  0  0  3  0  0  0  0  0  0
  -20.6290  -26.9270   22.6930 C   0  0  0  0  0  2  0  0  0  0  0  0
  -19.5320  -26.5910   21.6780 C   0  0  0  0  0  2  0  0  0  0  0  0
  -18.1470  -26.7380   22.3170 C   0  0  0  0  0  2  0  0  0  0  0  0
  -19.0800  -28.8630   23.4060 C   0  0  0  0  0  0  0  0  0  0  0  0
  -18.8560  -30.1320   23.9850 C   0  0  0  0  0  3  0  0  0  0  0  0
  -17.5500  -30.6300   24.1420 C   0  0  0  0  0  3  0  0  0  0  0  0
  -16.4480  -29.8580   23.7320 C   0  0  0  0  0  3  0  0  0  0  0  0
  -16.6570  -28.5920   23.1580 C   0  0  0  0  0  3  0  0  0  0  0  0
  -25.7880  -32.5670   23.8790 C   0  0  0  0  0  3  0  0  0  0  0  0
  -26.3090  -31.8120   25.1630 C   0  0  1  0  0  0  0  0  0  0  0  0
  -25.2200  -31.5880   26.2370 C   0  0  0  0  0  1  0  0  0  0  0  0
  -26.8910  -30.4300   24.7820 C   0  0  0  0  0  1  0  0  0  0  0  0
  -27.4610  -32.6140   25.8120 C   0  0  0  0  0  1  0  0  0  0  0  0
  -25.4790  -33.9690   24.1890 N   0  0  0  0  0  0  0  0  0  0  0  0
  -25.8220  -35.0100   23.4190 C   0  0  0  0  0  0  0  0  0  0  0  0
  -26.5040  -34.8920   22.3960 O   0  0  0  0  0  0  0  0  0  0  0  0
  -24.8770  -34.1340   24.9820 H   0  0  0  0  0  0  0  0  0  0  0  0
  -24.1050  -36.8010   23.0110 C   0  0  0  0  0  1  0  0  0  0  0  0
  -25.3300  -36.4040   23.8510 C   0  0  0  0  0  3  0  0  0  0  0  0
  -27.4530  -37.2880   24.7080 C   0  0  0  0  0  1  0  0  0  0  0  0
  -26.3660  -37.4540   23.7470 N   0  0  0  0  0  0  0  0  0  0  0  0
  -25.9600  -38.3750   23.8840 H   0  0  0  0  0  0  0  0  0  0  0  0
  -31.1130  -21.0960   19.5790 C   0  0  0  0  0  2  0  0  0  0  0  0
  -30.5360  -19.7920   20.1510 C   0  0  0  0  0  2  0  0  0  0  0  0
  -31.6030  -18.7080   20.3300 C   0  0  0  0  0  2  0  0  0  0  0  0
  -31.0240  -17.4300   20.9500 C   0  0  0  0  0  2  0  0  0  0  0  0
  -32.1060  -16.3620   21.1570 C   0  0  0  0  0  2  0  0  0  0  0  0
  -31.5990  -15.0740   21.8320 C   0  0  0  0  0  2  0  0  0  0  0  0
  -30.5060  -13.9750   19.8480 C   0  0  0  0  0  0  0  0  0  0  0  0
  -29.8650  -12.0430   18.4650 C   0  0  0  0  0  2  0  0  0  0  0  0
  -28.7840  -12.3470   17.4170 C   0  0  0  0  0  2  0  0  0  0  0  0
  -27.3840  -12.1830   18.0290 C   0  0  0  0  0  2  0  0  0  0  0  0
  -27.2270  -12.9570   19.3620 C   0  0  0  0  0  3  0  0  0  0  0  0
  -28.4030  -12.6710   20.3210 C   0  0  0  0  0  2  0  0  0  0  0  0
  -29.6720  -12.9340   19.6170 N   0  0  0  0  0  0  0  0  0  0  0  0
  -31.3300  -14.3810   19.0230 O   0  0  0  0  0  0  0  0  0  0  0  0
  -30.5200  -14.3740   21.1280 N   0  0  0  0  0  0  0  0  0  0  0  0
  -29.8130  -13.9510   21.7130 H   0  0  0  0  0  0  0  0  0  0  0  0
  -24.9180  -13.5390   20.3460 C   0  0  0  0  0  0  0  0  0  0  0  0
  -23.9080  -12.7540   20.8340 C   0  0  0  0  0  0  0  0  0  0  0  0
  -24.3760  -11.4070   20.7450 C   0  0  0  0  0  0  0  0  0  0  0  0
  -25.9400  -12.6700   19.9930 N   0  0  0  0  0  0  0  0  0  0  0  0
  -25.6210  -11.3840   20.2870 N   0  0  0  0  0  0  0  0  0  0  0  0
  -23.6900  -10.1380   21.0150 C   0  0  0  0  0  0  0  0  0  0  0  0
  -24.2040   -9.2030   21.9420 C   0  0  0  0  0  3  0  0  0  0  0  0
  -23.5180   -7.9970   22.1980 C   0  0  0  0  0  3  0  0  0  0  0  0
  -22.3030   -7.7160   21.5290 C   0  0  0  0  0  0  0  0  0  0  0  0
  -21.8080   -8.6370   20.5880 C   0  0  0  0  0  3  0  0  0  0  0  0
  -22.4970   -9.8340   20.3300 C   0  0  0  0  0  3  0  0  0  0  0  0
  -21.5800   -6.5590   21.6960 O   0  0  0  0  0  0  0  0  0  0  0  0
  -21.5930   -5.8670   22.8810 C   0  0  0  0  0  0  0  0  0  0  0  0
  -21.1960   -6.4630   24.0980 C   0  0  0  0  0  3  0  0  0  0  0  0
  -21.1550   -5.6940   25.2790 C   0  0  0  0  0  3  0  0  0  0  0  0
  -21.5030   -4.3310   25.2440 C   0  0  0  0  0  0  0  0  0  0  0  0
  -21.8940   -3.7340   24.0320 C   0  0  0  0  0  3  0  0  0  0  0  0
  -21.9360   -4.5000   22.8530 C   0  0  0  0  0  0  0  0  0  0  0  0
  -22.2930   -3.9150   21.6850 F   0  0  0  0  0  0  0  0  0  0  0  0
  -21.4570   -3.5910   26.3770 F   0  0  0  0  0  0  0  0  0  0  0  0
  -22.5470  -13.2160   21.2710 C   0  0  0  0  0  0  0  0  0  0  0  0
  -21.9390  -12.5160   22.2220 N   0  0  0  0  0  0  0  0  0  0  0  0
  -22.0360  -14.2320   20.8020 O   0  0  0  0  0  0  0  0  0  0  0  0
  -22.3660  -11.6950   22.6220 H   0  0  0  0  0  0  0  0  0  0  0  0
  -21.0290  -12.8050   22.5560 H   0  0  0  0  0  0  0  0  0  0  0  0
  -25.0450  -14.9120   20.1580 N   0  0  0  0  0  0  0  0  0  0  0  0
  -24.2920  -15.5580   20.3700 H   0  0  0  0  0  0  0  0  0  0  0  0
  -25.8550  -15.3650   19.7550 H   0  0  0  0  0  0  0  0  0  0  0  0
  1 50  1  0
  1  2  1  0
  3  1  1  0
  4  5  1  0
  4  1  1  0
  6  7  1  0
  6  5  1  0
  7  9  1  0
  8  7  1  0
  9 11  1  0
 10 21  2  0
 11 16  1  0
 12 20  1  0
 12 22  1  0
 13 19  1  0
 13 15  1  0
 14 20  1  0
 15 14  1  0
 16 15  2  0
 17 18  1  0
 17 11  2  0
 18 13  2  0
 19 12  1  0
 20 10  1  0
 22 24  2  0
 23 22  1  0
 25 23  1  0
 26 35  2  0
 26 31  1  0
 27 23  1  0
 27 31  1  0
 28 27  1  0
 29 30  1  0
 29 28  1  0
 30 26  1  0
 31 32  2  0
 32 33  1  0
 34 33  2  0
 35 34  1  0
 36 10  1  0
 36 41  1  0
 36 37  1  0
 37 40  1  1
 37 38  1  0
 39 37  1  0
 41 44  1  0
 42 46  1  0
 42 41  1  0
 43 42  2  0
 46 45  1  0
 48 46  1  0
 48 49  1  0
 48 47  1  0
 50 51  1  0
 51 52  1  0
 52 53  1  0
 53 54  1  0
 54 55  1  0
 56 64  1  0
 57 62  1  0
 58 59  1  0
 58 57  1  0
 60 59  1  0
 60 69  1  0
 60 61  1  0
 62 56  1  0
 62 61  1  0
 63 56  2  0
 64 65  1  0
 64 55  1  0
 66 67  2  0
 67 86  1  0
 68 67  1  0
 68 71  1  0
 69 70  1  0
 69 66  1  0
 70 68  2  0
 71 72  1  0
 72 73  2  0
 74 77  1  0
 74 73  1  0
 75 74  2  0
 76 75  1  0
 76 71  2  0
 77 78  1  0
 78 79  1  0
 79 80  2  0
 81 80  1  0
 81 85  1  0
 82 81  2  0
 83 78  2  0
 83 82  1  0
 84 83  1  0
 86 87  1  0
 87 90  1  0
 87 89  1  0
 88 86  2  0
 91 66  1  0
 91 92  1  0
 93 91  1  0
M  ISO  4   7 101   9 101  56 100  64 100
M  END
>  <TORSDO>  (54) 
F 26

>  <SCORE>  (54) 
-10.022

>  <name>  (54) 
56

>  <ligand_id>  (54) 
56

>  <original_smiles>  (54) 
[H]c1c([H])c([H])c2c(c1[H])C([H])([H])C([H])([H])C([H])([H])C2([H])N([H])C(=O)C1([H])N(C(=O)C([H])(N([H])C(=O)C([H])(N([H])C([H])([H])[H])C([H])([H])[H])C(C([H])([H])[H])(C([H])([H])[H])C([H])([H])[H])C([H])([H])c2c([H])c(ON([H])C([H])([H])C([H])([H])C([H])([H])[N+]([H])([H])C([H])([H])C([H])([H])C([H])([H])C([H])([H])C([H])([H])C([H])([H])N([H])C(=O)N3C([H])([H])C([H])([H])C([H])([H])C([H])(n4nc(-c5c([H])c([H])c(Oc6c([H])c([H])c(F)c([H])c6F)c([H])c5[H])c(C(=O)N([H])[H])c4N([H])[H])C3([H])[H])c([H])c([H])c2C1([H])[H]

>  <smiles>  (54) 
[H]c1c([H])c([H])c2c(c1[H])C([H])([H])C([H])([H])C([H])([H])C2([H])N([H])C(=O)C1([H])N(C(=O)C([H])(N([H])C(=O)C([H])(N([H])C([H])([H])[H])C([H])([H])[H])C(C([H])([H])[H])(C([H])([H])[H])C([H])([H])[H])C([H])([H])c2c([H])c(ON([H])C([H])([H])C([H])([H])C([H])([H])[N+]([H])([H])C([H])([H])C([H])([H])C([H])([H])C([H])([H])C([H])([H])C([H])([H])N([H])C(=O)N3C([H])([H])C([H])([H])C([H])([H])C([H])(n4nc(-c5c([H])c([H])c(Oc6c([H])c([H])c(F)c([H])c6F)c([H])c5[H])c(C(=O)N([H])[H])c4N([H])[H])C3([H])[H])c([H])c([H])c2C1([H])[H]

$$$$
57:0:0
     RDKit          3D

 98105  0  0  1  0  0  0  0  0999 V2000
  -28.7980  -20.9150   26.0700 C   0  0  0  0  0  2  0  0  0  0  0  0
  -29.3240  -21.2660   24.7410 N   0  0  0  0  0  0  0  0  0  0  0  0
  -28.5910  -21.1120   24.0480 H   0  0  0  0  0  0  0  0  0  0  0  0
  -29.7950  -22.6390   24.6420 C   0  0  0  0  0  2  0  0  0  0  0  0
  -30.1540  -22.9940   23.1890 C   0  0  0  0  0  2  0  0  0  0  0  0
  -30.5560  -24.3940   23.0930 N   0  0  0  0  0  0  0  0  0  0  0  0
  -29.8600  -24.9760   23.5620 H   0  0  0  0  0  0  0  0  0  0  0  0
  -30.6980  -24.8640   21.7150 C   0  0  0  0  0  2  0  0  0  0  0  0
  -30.9960  -26.3700   21.6610 C   0  0  0  0  0  2  0  0  0  0  0  0
  -30.6690  -26.8480   20.3570 O   0  0  0  0  0  0  0  0  0  0  0  0
  -25.4970  -30.7300   23.2590 C   0  0  0  0  0  0  0  0  0  0  0  0
  -29.3790  -27.2990   20.2590 C   0  0  0  0  0  0  0  0  0  0  0  0
  -24.8080  -29.2140   21.4250 C   0  0  0  0  0  3  0  0  0  0  0  0
  -26.7090  -28.1700   20.0800 C   0  0  0  0  0  0  0  0  0  0  0  0
  -27.1730  -30.1750   21.5070 C   0  0  0  0  0  2  0  0  0  0  0  0
  -27.6400  -28.9130   20.8160 C   0  0  0  0  0  0  0  0  0  0  0  0
  -28.9770  -28.4820   20.9110 C   0  0  0  0  0  3  0  0  0  0  0  0
  -28.4440  -26.5620   19.5060 C   0  0  0  0  0  3  0  0  0  0  0  0
  -27.1040  -26.9900   19.4200 C   0  0  0  0  0  3  0  0  0  0  0  0
  -25.2940  -28.7010   20.0410 C   0  0  0  0  0  2  0  0  0  0  0  0
  -25.8350  -30.0510   22.1260 N   0  0  0  0  0  0  0  0  0  0  0  0
  -24.3370  -30.7060   23.6960 O   0  0  0  0  0  0  0  0  0  0  0  0
  -24.3360  -28.0010   22.2590 C   0  0  0  0  0  0  0  0  0  0  0  0
  -23.1310  -27.5030   21.9510 N   0  0  0  0  0  0  0  0  0  0  0  0
  -25.0590  -27.5150   23.1330 O   0  0  0  0  0  0  0  0  0  0  0  0
  -22.6020  -27.9630   21.2230 H   0  0  0  0  0  0  0  0  0  0  0  0
  -20.1400  -25.4800   21.9430 C   0  0  0  0  0  0  0  0  0  0  0  0
  -22.4940  -26.3420   22.5710 C   0  0  0  0  0  3  0  0  0  0  0  0
  -23.0270  -25.0240   21.9620 C   0  0  0  0  0  2  0  0  0  0  0  0
  -22.1760  -24.5100   20.7970 C   0  0  0  0  0  2  0  0  0  0  0  0
  -20.7350  -24.2640   21.2520 C   0  0  0  0  0  2  0  0  0  0  0  0
  -20.9670  -26.4630   22.5470 C   0  0  0  0  0  0  0  0  0  0  0  0
  -20.3650  -27.5940   23.1430 C   0  0  0  0  0  3  0  0  0  0  0  0
  -18.9650  -27.7470   23.1460 C   0  0  0  0  0  3  0  0  0  0  0  0
  -18.1510  -26.7610   22.5630 C   0  0  0  0  0  3  0  0  0  0  0  0
  -18.7370  -25.6300   21.9680 C   0  0  0  0  0  3  0  0  0  0  0  0
  -26.5410  -31.5870   24.0430 C   0  0  0  0  0  3  0  0  0  0  0  0
  -27.0050  -30.9190   25.3940 C   0  0  1  0  0  0  0  0  0  0  0  0
  -25.8310  -30.4690   26.2970 C   0  0  0  0  0  1  0  0  0  0  0  0
  -27.8910  -29.6830   25.1110 C   0  0  0  0  0  1  0  0  0  0  0  0
  -27.8780  -31.9110   26.2000 C   0  0  0  0  0  1  0  0  0  0  0  0
  -25.9370  -32.9010   24.2940 N   0  0  0  0  0  0  0  0  0  0  0  0
  -26.1870  -34.0020   23.5710 C   0  0  0  0  0  0  0  0  0  0  0  0
  -27.0190  -34.0310   22.6600 O   0  0  0  0  0  0  0  0  0  0  0  0
  -25.2080  -32.9400   24.9920 H   0  0  0  0  0  0  0  0  0  0  0  0
  -24.2440  -35.4440   22.9020 C   0  0  0  0  0  1  0  0  0  0  0  0
  -25.3880  -35.2720   23.9150 C   0  0  0  0  0  3  0  0  0  0  0  0
  -27.1540  -36.5230   25.0710 C   0  0  0  0  0  1  0  0  0  0  0  0
  -26.2170  -36.4970   23.9500 N   0  0  0  0  0  0  0  0  0  0  0  0
  -25.6320  -37.3260   24.0090 H   0  0  0  0  0  0  0  0  0  0  0  0
  -28.6770  -19.3900   26.1630 C   0  0  0  0  0  2  0  0  0  0  0  0
  -29.2860  -18.8490   24.9530 N   0  0  0  0  0  0  0  0  0  0  0  0
  -29.0860  -19.6030   24.2810 H   0  0  0  0  0  0  0  0  0  0  0  0
  -30.7390  -18.6190   25.0170 C   0  0  0  0  0  2  0  0  0  0  0  0
  -31.2880  -18.4400   23.5950 C   0  0  0  0  0  2  0  0  0  0  0  0
  -30.3540  -17.5930   22.8260 N   0  0  0  0  0  4  0  0  0  0  0  0
  -30.2560  -16.6950   23.2650 H   0  0  0  0  0  0  0  0  0  0  0  0
  -29.4660  -18.0630   22.9510 H   0  0  0  0  0  0  0  0  0  0  0  0
  -30.6680  -17.4490   21.3900 C   0  0  0  0  0  2  0  0  0  0  0  0
  -31.4380  -16.1460   21.1120 C   0  0  0  0  0  2  0  0  0  0  0  0
  -30.6000  -14.3950   19.5450 C   0  0  0  0  0  0  0  0  0  0  0  0
  -30.2400  -12.1270   18.6470 C   0  0  0  0  0  2  0  0  0  0  0  0
  -29.1490  -12.0360   17.5680 C   0  0  0  0  0  2  0  0  0  0  0  0
  -27.7680  -11.8430   18.2160 C   0  0  0  0  0  2  0  0  0  0  0  0
  -27.4880  -12.9000   19.3110 C   0  0  0  0  0  3  0  0  0  0  0  0
  -28.6640  -12.9900   20.3090 C   0  0  0  0  0  2  0  0  0  0  0  0
  -29.9140  -13.2280   19.5640 N   0  0  0  0  0  0  0  0  0  0  0  0
  -31.3670  -14.7270   18.6350 O   0  0  0  0  0  0  0  0  0  0  0  0
  -30.5540  -15.0520   20.7120 N   0  0  0  0  0  0  0  0  0  0  0  0
  -29.9690  -14.6330   21.4210 H   0  0  0  0  0  0  0  0  0  0  0  0
  -25.2810  -13.5270   20.4840 C   0  0  0  0  0  0  0  0  0  0  0  0
  -24.2540  -12.7600   20.9710 C   0  0  0  0  0  0  0  0  0  0  0  0
  -24.6360  -11.4020   20.7430 C   0  0  0  0  0  0  0  0  0  0  0  0
  -26.2240  -12.6350   19.9960 N   0  0  0  0  0  0  0  0  0  0  0  0
  -25.8480  -11.3470   20.2080 N   0  0  0  0  0  0  0  0  0  0  0  0
  -23.8930  -10.1540   20.9540 C   0  0  0  0  0  0  0  0  0  0  0  0
  -24.3590   -9.1590   21.8430 C   0  0  0  0  0  3  0  0  0  0  0  0
  -23.6180   -7.9730   22.0390 C   0  0  0  0  0  3  0  0  0  0  0  0
  -22.4000   -7.7740   21.3480 C   0  0  0  0  0  0  0  0  0  0  0  0
  -21.9530   -8.7580   20.4480 C   0  0  0  0  0  3  0  0  0  0  0  0
  -22.6930   -9.9350   20.2490 C   0  0  0  0  0  3  0  0  0  0  0  0
  -21.6260   -6.6430   21.4570 O   0  0  0  0  0  0  0  0  0  0  0  0
  -21.5180   -5.9570   22.6400 C   0  0  0  0  0  0  0  0  0  0  0  0
  -21.0400   -6.5720   23.8170 C   0  0  0  0  0  3  0  0  0  0  0  0
  -20.8770   -5.8110   24.9920 C   0  0  0  0  0  3  0  0  0  0  0  0
  -21.1850   -4.4380   24.9910 C   0  0  0  0  0  0  0  0  0  0  0  0
  -21.6550   -3.8220   23.8180 C   0  0  0  0  0  3  0  0  0  0  0  0
  -21.8200   -4.5800   22.6450 C   0  0  0  0  0  0  0  0  0  0  0  0
  -22.2530   -3.9780   21.5120 F   0  0  0  0  0  0  0  0  0  0  0  0
  -21.0210   -3.7060   26.1180 F   0  0  0  0  0  0  0  0  0  0  0  0
  -22.9520  -13.2580   21.5280 C   0  0  0  0  0  0  0  0  0  0  0  0
  -22.3640  -12.5190   22.4640 N   0  0  0  0  0  0  0  0  0  0  0  0
  -22.4740  -14.3330   21.1710 O   0  0  0  0  0  0  0  0  0  0  0  0
  -22.7640  -11.6440   22.7670 H   0  0  0  0  0  0  0  0  0  0  0  0
  -21.5010  -12.8350   22.8820 H   0  0  0  0  0  0  0  0  0  0  0  0
  -25.4800  -14.9000   20.3990 N   0  0  0  0  0  0  0  0  0  0  0  0
  -24.7790  -15.5700   20.6960 H   0  0  0  0  0  0  0  0  0  0  0  0
  -26.2930  -15.3390   19.9840 H   0  0  0  0  0  0  0  0  0  0  0  0
  1 51  1  0
  2  1  1  0
  3  2  1  0
  4  2  1  0
  5  4  1  0
  6  5  1  0
  6  7  1  0
  8  6  1  0
  9  8  1  0
 10  9  1  0
 11 22  2  0
 12 10  1  0
 12 17  1  0
 13 21  1  0
 13 23  1  0
 14 16  1  0
 15 21  1  0
 16 17  2  0
 16 15  1  0
 18 12  2  0
 19 18  1  0
 19 14  2  0
 20 14  1  0
 20 13  1  0
 21 11  1  0
 23 25  2  0
 24 23  1  0
 26 24  1  0
 27 36  2  0
 27 32  1  0
 28 24  1  0
 29 28  1  0
 30 31  1  0
 30 29  1  0
 31 27  1  0
 32 28  1  0
 32 33  2  0
 33 34  1  0
 35 34  2  0
 36 35  1  0
 37 11  1  0
 37 42  1  0
 37 38  1  0
 38 41  1  1
 38 39  1  0
 40 38  1  0
 42 45  1  0
 43 47  1  0
 43 42  1  0
 44 43  2  0
 47 46  1  0
 47 49  1  0
 49 50  1  0
 49 48  1  0
 52 54  1  0
 52 51  1  0
 53 52  1  0
 55 54  1  0
 56 58  1  0
 56 57  1  0
 56 55  1  0
 59 56  1  0
 60 59  1  0
 61 67  1  0
 61 69  1  0
 62 67  1  0
 63 64  1  0
 63 62  1  0
 65 64  1  0
 65 74  1  0
 65 66  1  0
 67 66  1  0
 68 61  2  0
 69 60  1  0
 69 70  1  0
 71 72  2  0
 72 91  1  0
 73 76  1  0
 73 72  1  0
 74 75  1  0
 74 71  1  0
 75 73  2  0
 76 77  1  0
 77 78  2  0
 79 82  1  0
 79 78  1  0
 80 79  2  0
 81 80  1  0
 81 76  2  0
 82 83  1  0
 83 88  2  0
 83 84  1  0
 84 85  2  0
 86 85  1  0
 86 90  1  0
 87 86  2  0
 88 87  1  0
 89 88  1  0
 91 92  1  0
 92 94  1  0
 92 95  1  0
 93 91  2  0
 96 71  1  0
 96 97  1  0
 98 96  1  0
M  ISO  4   9 101  10 101  61 100  69 100
M  END
>  <TORSDO>  (55) 
F 29

>  <SCORE>  (55) 
0.437

>  <name>  (55) 
57

>  <ligand_id>  (55) 
57

>  <original_smiles>  (55) 
[H]c1c([H])c([H])c2c(c1[H])C([H])([H])C([H])([H])C([H])([H])C2([H])N([H])C(=O)C1([H])N(C(=O)C([H])(N([H])C(=O)C([H])(N([H])C([H])([H])[H])C([H])([H])[H])C(C([H])([H])[H])(C([H])([H])[H])C([H])([H])[H])C([H])([H])c2c([H])c(OC([H])([H])C([H])([H])N([H])C([H])([H])C([H])([H])N([H])C([H])([H])C([H])([H])N([H])C([H])([H])C([H])([H])[N+]([H])([H])C([H])([H])C([H])([H])N([H])C(=O)N3C([H])([H])C([H])([H])C([H])([H])C([H])(n4nc(-c5c([H])c([H])c(Oc6c([H])c([H])c(F)c([H])c6F)c([H])c5[H])c(C(=O)N([H])[H])c4N([H])[H])C3([H])[H])c([H])c([H])c2C1([H])[H]

>  <smiles>  (55) 
[H]c1c([H])c([H])c2c(c1[H])C([H])([H])C([H])([H])C([H])([H])C2([H])N([H])C(=O)C1([H])N(C(=O)C([H])(N([H])C(=O)C([H])(N([H])C([H])([H])[H])C([H])([H])[H])C(C([H])([H])[H])(C([H])([H])[H])C([H])([H])[H])C([H])([H])c2c([H])c(OC([H])([H])C([H])([H])N([H])C([H])([H])C([H])([H])N([H])C([H])([H])C([H])([H])N([H])C([H])([H])C([H])([H])[N+]([H])([H])C([H])([H])C([H])([H])N([H])C(=O)N3C([H])([H])C([H])([H])C([H])([H])C([H])(n4nc(-c5c([H])c([H])c(Oc6c([H])c([H])c(F)c([H])c6F)c([H])c5[H])c(C(=O)N([H])[H])c4N([H])[H])C3([H])[H])c([H])c([H])c2C1([H])[H]

$$$$
58:0:0
     RDKit          3D

 94101  0  0  1  0  0  0  0  0999 V2000
  -31.2630  -23.5420   18.5740 C   0  0  0  0  0  2  0  0  0  0  0  0
  -31.9940  -24.8580   18.9200 C   0  0  0  0  0  2  0  0  0  0  0  0
  -31.0750  -25.9850   19.2030 N   0  0  0  0  0  4  0  0  0  0  0  0
  -30.2350  -25.8930   18.6530 H   0  0  0  0  0  0  0  0  0  0  0  0
  -31.5330  -26.8250   18.8810 H   0  0  0  0  0  0  0  0  0  0  0  0
  -30.7170  -26.1880   20.6260 C   0  0  0  0  0  2  0  0  0  0  0  0
  -29.5860  -27.2090   20.7720 C   0  0  0  0  0  2  0  0  0  0  0  0
  -28.4310  -26.7120   20.0890 O   0  0  0  0  0  0  0  0  0  0  0  0
  -24.6260  -31.8970   23.1880 C   0  0  0  0  0  0  0  0  0  0  0  0
  -27.2770  -27.4660   20.1450 C   0  0  0  0  0  0  0  0  0  0  0  0
  -23.4000  -30.4720   21.5700 C   0  0  0  0  0  3  0  0  0  0  0  0
  -24.8460  -28.9170   20.1540 C   0  0  0  0  0  0  0  0  0  0  0  0
  -25.9120  -30.8480   21.3390 C   0  0  0  0  0  2  0  0  0  0  0  0
  -25.9970  -29.4680   20.7270 C   0  0  0  0  0  0  0  0  0  0  0  0
  -27.2060  -28.7510   20.7310 C   0  0  0  0  0  3  0  0  0  0  0  0
  -26.1090  -26.9210   19.5680 C   0  0  0  0  0  3  0  0  0  0  0  0
  -24.8940  -27.6360   19.5760 C   0  0  0  0  0  3  0  0  0  0  0  0
  -23.5970  -29.7660   20.1980 C   0  0  0  0  0  2  0  0  0  0  0  0
  -24.6640  -31.0880   22.0920 N   0  0  0  0  0  0  0  0  0  0  0  0
  -23.5520  -32.1750   23.7400 O   0  0  0  0  0  0  0  0  0  0  0  0
  -22.7610  -29.4650   22.5500 C   0  0  0  0  0  0  0  0  0  0  0  0
  -21.4350  -29.2850   22.4430 N   0  0  0  0  0  0  0  0  0  0  0  0
  -23.4550  -28.8450   23.3600 O   0  0  0  0  0  0  0  0  0  0  0  0
  -20.9370  -29.8410   21.7630 H   0  0  0  0  0  0  0  0  0  0  0  0
  -18.0650  -28.1120   22.9860 C   0  0  0  0  0  0  0  0  0  0  0  0
  -20.6250  -28.3580   23.2300 C   0  0  0  0  0  3  0  0  0  0  0  0
  -20.7150  -26.9210   22.6660 C   0  0  0  0  0  2  0  0  0  0  0  0
  -19.6020  -26.5960   21.6660 C   0  0  0  0  0  2  0  0  0  0  0  0
  -18.2280  -26.7540   22.3220 C   0  0  0  0  0  2  0  0  0  0  0  0
  -19.1910  -28.8730   23.3970 C   0  0  0  0  0  0  0  0  0  0  0  0
  -18.9850  -30.1450   23.9720 C   0  0  0  0  0  3  0  0  0  0  0  0
  -17.6860  -30.6550   24.1450 C   0  0  0  0  0  3  0  0  0  0  0  0
  -16.5730  -29.8910   23.7530 C   0  0  0  0  0  3  0  0  0  0  0  0
  -16.7640  -28.6220   23.1780 C   0  0  0  0  0  3  0  0  0  0  0  0
  -25.9230  -32.5290   23.7840 C   0  0  0  0  0  3  0  0  0  0  0  0
  -26.4870  -31.7380   25.0260 C   0  0  1  0  0  0  0  0  0  0  0  0
  -25.4270  -31.4590   26.1160 C   0  0  0  0  0  1  0  0  0  0  0  0
  -27.0870  -30.3810   24.5830 C   0  0  0  0  0  1  0  0  0  0  0  0
  -27.6400  -32.5370   25.6780 C   0  0  0  0  0  1  0  0  0  0  0  0
  -25.6110  -33.9160   24.1470 N   0  0  0  0  0  0  0  0  0  0  0  0
  -25.9150  -34.9850   23.3980 C   0  0  0  0  0  0  0  0  0  0  0  0
  -26.5600  -34.9070   22.3470 O   0  0  0  0  0  0  0  0  0  0  0  0
  -25.0370  -34.0500   24.9680 H   0  0  0  0  0  0  0  0  0  0  0  0
  -24.1560  -36.7590   23.1160 C   0  0  0  0  0  1  0  0  0  0  0  0
  -25.4220  -36.3580   23.8910 C   0  0  0  0  0  3  0  0  0  0  0  0
  -27.5690  -37.2530   24.6770 C   0  0  0  0  0  1  0  0  0  0  0  0
  -26.4380  -37.4260   23.7680 N   0  0  0  0  0  0  0  0  0  0  0  0
  -26.0250  -38.3370   23.9450 H   0  0  0  0  0  0  0  0  0  0  0  0
  -30.7280  -22.7610   19.7920 C   0  0  0  0  0  2  0  0  0  0  0  0
  -30.0500  -21.5170   19.3910 N   0  0  0  0  0  4  0  0  0  0  0  0
  -29.1690  -21.7350   18.9470 H   0  0  0  0  0  0  0  0  0  0  0  0
  -30.6300  -21.0580   18.7080 H   0  0  0  0  0  0  0  0  0  0  0  0
  -29.8120  -20.5500   20.4800 C   0  0  0  0  0  2  0  0  0  0  0  0
  -29.6310  -19.1590   19.8600 C   0  0  0  0  0  2  0  0  0  0  0  0
  -29.6470  -17.9700   20.8320 C   0  0  0  0  0  2  0  0  0  0  0  0
  -29.7500  -16.6810   20.0040 C   0  0  0  0  0  2  0  0  0  0  0  0
  -30.6070  -14.4330   20.4430 C   0  0  0  0  0  0  0  0  0  0  0  0
  -30.3190  -12.2760   19.3230 C   0  0  0  0  0  2  0  0  0  0  0  0
  -29.3760  -12.5220   18.1240 C   0  0  0  0  0  2  0  0  0  0  0  0
  -27.9000  -12.3970   18.5600 C   0  0  0  0  0  2  0  0  0  0  0  0
  -27.5780  -13.2190   19.8380 C   0  0  0  0  0  3  0  0  0  0  0  0
  -28.6380  -12.9560   20.9370 C   0  0  0  0  0  2  0  0  0  0  0  0
  -29.9660  -13.2410   20.3700 N   0  0  0  0  0  0  0  0  0  0  0  0
  -31.7310  -14.6340   19.9660 O   0  0  0  0  0  0  0  0  0  0  0  0
  -29.8090  -15.4520   20.7930 N   0  0  0  0  0  0  0  0  0  0  0  0
  -28.9490  -15.1870   21.2510 H   0  0  0  0  0  0  0  0  0  0  0  0
  -25.1880  -13.8420   20.5690 C   0  0  0  0  0  0  0  0  0  0  0  0
  -24.1200  -13.0720   20.9460 C   0  0  0  0  0  0  0  0  0  0  0  0
  -24.5760  -11.7200   20.9100 C   0  0  0  0  0  0  0  0  0  0  0  0
  -26.2270  -12.9550   20.3240 N   0  0  0  0  0  0  0  0  0  0  0  0
  -25.8620  -11.6750   20.5850 N   0  0  0  0  0  0  0  0  0  0  0  0
  -23.8500  -10.4590   21.1080 C   0  0  0  0  0  0  0  0  0  0  0  0
  -24.3120   -9.4720   22.0070 C   0  0  0  0  0  3  0  0  0  0  0  0
  -23.5840   -8.2780   22.1930 C   0  0  0  0  0  3  0  0  0  0  0  0
  -22.3800   -8.0610   21.4810 C   0  0  0  0  0  0  0  0  0  0  0  0
  -21.9370   -9.0370   20.5710 C   0  0  0  0  0  3  0  0  0  0  0  0
  -22.6660  -10.2230   20.3830 C   0  0  0  0  0  3  0  0  0  0  0  0
  -21.6230   -6.9180   21.5770 O   0  0  0  0  0  0  0  0  0  0  0  0
  -21.6420   -6.1360   22.7050 C   0  0  0  0  0  0  0  0  0  0  0  0
  -21.3280   -6.6590   23.9790 C   0  0  0  0  0  3  0  0  0  0  0  0
  -21.2880   -5.8050   25.1000 C   0  0  0  0  0  3  0  0  0  0  0  0
  -21.5540   -4.4320   24.9480 C   0  0  0  0  0  0  0  0  0  0  0  0
  -21.8620   -3.9080   23.6800 C   0  0  0  0  0  3  0  0  0  0  0  0
  -21.9030   -4.7580   22.5610 C   0  0  0  0  0  0  0  0  0  0  0  0
  -22.1800   -4.2470   21.3370 F   0  0  0  0  0  0  0  0  0  0  0  0
  -21.5090   -3.6090   26.0220 F   0  0  0  0  0  0  0  0  0  0  0  0
  -22.7280  -13.5540   21.2370 C   0  0  0  0  0  0  0  0  0  0  0  0
  -22.0100  -12.8640   22.1150 N   0  0  0  0  0  0  0  0  0  0  0  0
  -22.2860  -14.5780   20.7180 O   0  0  0  0  0  0  0  0  0  0  0  0
  -22.3790  -12.0360   22.5590 H   0  0  0  0  0  0  0  0  0  0  0  0
  -21.0770  -13.1730   22.3490 H   0  0  0  0  0  0  0  0  0  0  0  0
  -25.3520  -15.2130   20.3950 N   0  0  0  0  0  0  0  0  0  0  0  0
  -24.5820  -15.8630   20.5210 H   0  0  0  0  0  0  0  0  0  0  0  0
  -26.1940  -15.6610   20.0580 H   0  0  0  0  0  0  0  0  0  0  0  0
  1  2  1  0
  1 49  1  0
  2  3  1  0
  3  6  1  0
  4  3  1  0
  5  3  1  0
  6  7  1  0
  8 10  1  0
  8  7  1  0
  9 20  2  0
 10 15  1  0
 11 19  1  0
 11 21  1  0
 12 18  1  0
 12 14  1  0
 13 19  1  0
 14 15  2  0
 14 13  1  0
 16 17  1  0
 16 10  2  0
 17 12  2  0
 18 11  1  0
 19  9  1  0
 21 23  2  0
 22 21  1  0
 24 22  1  0
 25 34  2  0
 25 30  1  0
 26 22  1  0
 26 30  1  0
 27 26  1  0
 28 29  1  0
 28 27  1  0
 29 25  1  0
 30 31  2  0
 31 32  1  0
 33 32  2  0
 34 33  1  0
 35  9  1  0
 35 40  1  0
 35 36  1  0
 36 39  1  1
 36 37  1  0
 38 36  1  0
 40 43  1  0
 41 45  1  0
 41 40  1  0
 42 41  2  0
 45 44  1  0
 47 45  1  0
 47 48  1  0
 47 46  1  0
 50 49  1  0
 50 53  1  0
 51 50  1  0
 52 50  1  0
 54 53  1  0
 54 55  1  0
 56 65  1  0
 56 55  1  0
 57 65  1  0
 58 63  1  0
 59 60  1  0
 59 58  1  0
 61 60  1  0
 61 70  1  0
 61 62  1  0
 63 57  1  0
 63 62  1  0
 64 57  2  0
 65 66  1  0
 67 68  2  0
 68 87  1  0
 69 68  1  0
 69 72  1  0
 70 67  1  0
 70 71  1  0
 71 69  2  0
 72 73  1  0
 73 74  2  0
 75 78  1  0
 75 74  1  0
 76 75  2  0
 77 76  1  0
 77 72  2  0
 78 79  1  0
 79 80  1  0
 80 81  2  0
 82 81  1  0
 82 86  1  0
 83 82  2  0
 84 79  2  0
 84 83  1  0
 85 84  1  0
 87 88  1  0
 88 91  1  0
 88 90  1  0
 89 87  2  0
 92 93  1  0
 92 67  1  0
 94 92  1  0
M  ISO  4   7 101   8 101  57 100  65 100
M  END
>  <TORSDO>  (56) 
F 26

>  <SCORE>  (56) 
-11.668

>  <name>  (56) 
58

>  <ligand_id>  (56) 
58

>  <original_smiles>  (56) 
[H]c1c([H])c([H])c2c(c1[H])C([H])([H])C([H])([H])C([H])([H])C2([H])N([H])C(=O)C1([H])N(C(=O)C([H])(N([H])C(=O)C([H])(N([H])C([H])([H])[H])C([H])([H])[H])C(C([H])([H])[H])(C([H])([H])[H])C([H])([H])[H])C([H])([H])c2c([H])c(OC([H])([H])C([H])([H])[N+]([H])([H])C([H])([H])C([H])([H])C([H])([H])[N+]([H])([H])C([H])([H])C([H])([H])C([H])([H])C([H])([H])N([H])C(=O)N3C([H])([H])C([H])([H])C([H])([H])C([H])(n4nc(-c5c([H])c([H])c(Oc6c([H])c([H])c(F)c([H])c6F)c([H])c5[H])c(C(=O)N([H])[H])c4N([H])[H])C3([H])[H])c([H])c([H])c2C1([H])[H]

>  <smiles>  (56) 
[H]c1c([H])c([H])c2c(c1[H])C([H])([H])C([H])([H])C([H])([H])C2([H])N([H])C(=O)C1([H])N(C(=O)C([H])(N([H])C(=O)C([H])(N([H])C([H])([H])[H])C([H])([H])[H])C(C([H])([H])[H])(C([H])([H])[H])C([H])([H])[H])C([H])([H])c2c([H])c(OC([H])([H])C([H])([H])[N+]([H])([H])C([H])([H])C([H])([H])C([H])([H])[N+]([H])([H])C([H])([H])C([H])([H])C([H])([H])C([H])([H])N([H])C(=O)N3C([H])([H])C([H])([H])C([H])([H])C([H])(n4nc(-c5c([H])c([H])c(Oc6c([H])c([H])c(F)c([H])c6F)c([H])c5[H])c(C(=O)N([H])[H])c4N([H])[H])C3([H])[H])c([H])c([H])c2C1([H])[H]

$$$$
59:0:0
     RDKit          3D

 94101  0  0  1  0  0  0  0  0999 V2000
  -31.9600  -22.5910   20.8240 C   0  0  0  0  0  2  0  0  0  0  0  0
  -32.0950  -22.1570   19.3470 C   0  0  0  0  0  2  0  0  0  0  0  0
  -31.3430  -20.8890   18.8920 C   0  0  0  0  0  2  0  0  0  0  0  0
  -30.4200  -19.1230   20.3700 C   0  0  0  0  0  0  0  0  0  0  0  0
  -31.4600  -19.7550   19.8120 N   0  0  0  0  0  0  0  0  0  0  0  0
  -29.2780  -19.5880   20.3430 O   0  0  0  0  0  0  0  0  0  0  0  0
  -32.3730  -19.3250   19.9030 H   0  0  0  0  0  0  0  0  0  0  0  0
  -30.6710  -17.7620   21.0240 C   0  0  0  0  0  2  0  0  0  0  0  0
  -29.6550  -16.7280   20.5040 C   0  0  0  0  0  2  0  0  0  0  0  0
  -30.5920  -14.4440   20.5110 C   0  0  0  0  0  0  0  0  0  0  0  0
  -30.3300  -12.3260   19.2990 C   0  0  0  0  0  2  0  0  0  0  0  0
  -29.3670  -12.5920   18.1200 C   0  0  0  0  0  2  0  0  0  0  0  0
  -27.8930  -12.4580   18.5550 C   0  0  0  0  0  2  0  0  0  0  0  0
  -27.5790  -13.2370   19.8610 C   0  0  0  0  0  3  0  0  0  0  0  0
  -28.6410  -12.9180   20.9400 C   0  0  0  0  0  2  0  0  0  0  0  0
  -29.9700  -13.2450   20.3860 N   0  0  0  0  0  0  0  0  0  0  0  0
  -31.6760  -14.7170   19.9890 O   0  0  0  0  0  0  0  0  0  0  0  0
  -29.8120  -15.3840   21.0540 N   0  0  0  0  0  0  0  0  0  0  0  0
  -29.0020  -15.0200   21.5370 H   0  0  0  0  0  0  0  0  0  0  0  0
  -25.1760  -13.8440   20.5710 C   0  0  0  0  0  0  0  0  0  0  0  0
  -24.1130  -13.0690   20.9470 C   0  0  0  0  0  0  0  0  0  0  0  0
  -24.5760  -11.7190   20.9090 C   0  0  0  0  0  0  0  0  0  0  0  0
  -26.2250  -12.9650   20.3380 N   0  0  0  0  0  0  0  0  0  0  0  0
  -25.8640  -11.6830   20.5940 N   0  0  0  0  0  0  0  0  0  0  0  0
  -23.8560  -10.4540   21.1010 C   0  0  0  0  0  0  0  0  0  0  0  0
  -24.3170   -9.4750   22.0090 C   0  0  0  0  0  3  0  0  0  0  0  0
  -23.5980   -8.2740   22.1900 C   0  0  0  0  0  3  0  0  0  0  0  0
  -22.4070   -8.0440   21.4640 C   0  0  0  0  0  0  0  0  0  0  0  0
  -21.9650   -9.0110   20.5460 C   0  0  0  0  0  3  0  0  0  0  0  0
  -22.6820  -10.2050   20.3630 C   0  0  0  0  0  3  0  0  0  0  0  0
  -21.6560   -6.8960   21.5560 O   0  0  0  0  0  0  0  0  0  0  0  0
  -21.6600   -6.1200   22.6880 C   0  0  0  0  0  0  0  0  0  0  0  0
  -21.3060   -6.6440   23.9490 C   0  0  0  0  0  3  0  0  0  0  0  0
  -21.2570   -5.7970   25.0750 C   0  0  0  0  0  3  0  0  0  0  0  0
  -21.5530   -4.4280   24.9390 C   0  0  0  0  0  0  0  0  0  0  0  0
  -21.9020   -3.9040   23.6810 C   0  0  0  0  0  3  0  0  0  0  0  0
  -21.9530   -4.7490   22.5590 C   0  0  0  0  0  0  0  0  0  0  0  0
  -22.2690   -4.2340   21.3460 F   0  0  0  0  0  0  0  0  0  0  0  0
  -21.4990   -3.6110   26.0190 F   0  0  0  0  0  0  0  0  0  0  0  0
  -22.7150  -13.5420   21.2300 C   0  0  0  0  0  0  0  0  0  0  0  0
  -21.9950  -12.8430   22.1010 N   0  0  0  0  0  0  0  0  0  0  0  0
  -22.2690  -14.5650   20.7140 O   0  0  0  0  0  0  0  0  0  0  0  0
  -22.3680  -12.0140   22.5430 H   0  0  0  0  0  0  0  0  0  0  0  0
  -21.0590  -13.1430   22.3320 H   0  0  0  0  0  0  0  0  0  0  0  0
  -25.3350  -15.2160   20.3950 N   0  0  0  0  0  0  0  0  0  0  0  0
  -24.5610  -15.8630   20.4930 H   0  0  0  0  0  0  0  0  0  0  0  0
  -26.1790  -15.6590   20.0550 H   0  0  0  0  0  0  0  0  0  0  0  0
  -30.5470  -22.5920   21.4460 C   0  0  0  0  0  2  0  0  0  0  0  0
  -29.5140  -23.2730   20.6340 N   0  0  0  0  0  4  0  0  0  0  0  0
  -28.6280  -23.0380   21.0590 H   0  0  0  0  0  0  0  0  0  0  0  0
  -29.4980  -22.8920   19.7020 H   0  0  0  0  0  0  0  0  0  0  0  0
  -29.6140  -24.7490   20.5920 C   0  0  0  0  0  2  0  0  0  0  0  0
  -28.3210  -25.3630   20.0420 C   0  0  0  0  0  2  0  0  0  0  0  0
  -28.3820  -26.7790   20.1720 O   0  0  0  0  0  0  0  0  0  0  0  0
  -24.5670  -31.8920   23.2600 C   0  0  0  0  0  0  0  0  0  0  0  0
  -27.1860  -27.4610   20.1690 C   0  0  0  0  0  0  0  0  0  0  0  0
  -23.3450  -30.4890   21.6270 C   0  0  0  0  0  3  0  0  0  0  0  0
  -24.7860  -28.9480   20.2010 C   0  0  0  0  0  0  0  0  0  0  0  0
  -25.8670  -30.8510   21.4080 C   0  0  0  0  0  2  0  0  0  0  0  0
  -25.9460  -29.4790   20.7750 C   0  0  0  0  0  0  0  0  0  0  0  0
  -27.1480  -28.7420   20.7550 C   0  0  0  0  0  3  0  0  0  0  0  0
  -26.0040  -26.9350   19.5930 C   0  0  0  0  0  3  0  0  0  0  0  0
  -24.8070  -27.6720   19.6130 C   0  0  0  0  0  3  0  0  0  0  0  0
  -23.5440  -29.8070   20.2480 C   0  0  0  0  0  2  0  0  0  0  0  0
  -24.6120  -31.0920   22.1570 N   0  0  0  0  0  0  0  0  0  0  0  0
  -23.4910  -32.1660   23.8070 O   0  0  0  0  0  0  0  0  0  0  0  0
  -22.7020  -29.4710   22.5940 C   0  0  0  0  0  0  0  0  0  0  0  0
  -21.3790  -29.2840   22.4700 N   0  0  0  0  0  0  0  0  0  0  0  0
  -23.3890  -28.8480   23.4080 O   0  0  0  0  0  0  0  0  0  0  0  0
  -20.8850  -29.8390   21.7840 H   0  0  0  0  0  0  0  0  0  0  0  0
  -18.0080  -28.0800   22.9630 C   0  0  0  0  0  0  0  0  0  0  0  0
  -20.5640  -28.3490   23.2450 C   0  0  0  0  0  3  0  0  0  0  0  0
  -20.6740  -26.9140   22.6810 C   0  0  0  0  0  2  0  0  0  0  0  0
  -19.5780  -26.5790   21.6660 C   0  0  0  0  0  2  0  0  0  0  0  0
  -18.1930  -26.7250   22.3020 C   0  0  0  0  0  2  0  0  0  0  0  0
  -19.1220  -28.8500   23.3920 C   0  0  0  0  0  0  0  0  0  0  0  0
  -18.8970  -30.1180   23.9680 C   0  0  0  0  0  3  0  0  0  0  0  0
  -17.5910  -30.6180   24.1220 C   0  0  0  0  0  3  0  0  0  0  0  0
  -16.4910  -29.8450   23.7110 C   0  0  0  0  0  3  0  0  0  0  0  0
  -16.7000  -28.5790   23.1370 C   0  0  0  0  0  3  0  0  0  0  0  0
  -25.8590  -32.5200   23.8690 C   0  0  0  0  0  3  0  0  0  0  0  0
  -26.3880  -31.7480   25.1390 C   0  0  1  0  0  0  0  0  0  0  0  0
  -25.3070  -31.5130   26.2180 C   0  0  0  0  0  1  0  0  0  0  0  0
  -26.9630  -30.3700   24.7360 C   0  0  0  0  0  1  0  0  0  0  0  0
  -27.5450  -32.5390   25.7920 C   0  0  0  0  0  1  0  0  0  0  0  0
  -25.5590  -33.9190   24.1980 N   0  0  0  0  0  0  0  0  0  0  0  0
  -25.8870  -34.9680   23.4330 C   0  0  0  0  0  0  0  0  0  0  0  0
  -26.5480  -34.8600   22.3960 O   0  0  0  0  0  0  0  0  0  0  0  0
  -24.9730  -34.0770   25.0060 H   0  0  0  0  0  0  0  0  0  0  0  0
  -24.1560  -36.7590   23.0850 C   0  0  0  0  0  1  0  0  0  0  0  0
  -25.4030  -36.3570   23.8890 C   0  0  0  0  0  3  0  0  0  0  0  0
  -27.5460  -37.2400   24.6990 C   0  0  0  0  0  1  0  0  0  0  0  0
  -26.4350  -37.4100   23.7660 N   0  0  0  0  0  0  0  0  0  0  0  0
  -26.0310  -38.3290   23.9190 H   0  0  0  0  0  0  0  0  0  0  0  0
  1 48  1  0
  2  1  1  0
  3  2  1  0
  3  5  1  0
  4  8  1  0
  5  7  1  0
  5  4  1  0
  6  4  2  0
  9  8  1  0
  9 18  1  0
 10 18  1  0
 11 16  1  0
 12 13  1  0
 12 11  1  0
 14 13  1  0
 14 23  1  0
 14 15  1  0
 16 10  1  0
 16 15  1  0
 17 10  2  0
 18 19  1  0
 20 21  2  0
 21 40  1  0
 22 21  1  0
 22 25  1  0
 23 20  1  0
 23 24  1  0
 24 22  2  0
 25 26  1  0
 26 27  2  0
 28 31  1  0
 28 27  1  0
 29 28  2  0
 30 29  1  0
 30 25  2  0
 31 32  1  0
 32 33  1  0
 33 34  2  0
 35 34  1  0
 35 39  1  0
 36 35  2  0
 37 32  2  0
 37 36  1  0
 38 37  1  0
 40 41  1  0
 41 44  1  0
 41 43  1  0
 42 40  2  0
 45 46  1  0
 45 20  1  0
 47 45  1  0
 49 50  1  0
 49 48  1  0
 51 49  1  0
 52 49  1  0
 53 54  1  0
 53 52  1  0
 55 66  2  0
 56 54  1  0
 56 61  1  0
 57 65  1  0
 57 67  1  0
 58 64  1  0
 58 60  1  0
 59 65  1  0
 60 59  1  0
 61 60  2  0
 62 63  1  0
 62 56  2  0
 63 58  2  0
 64 57  1  0
 65 55  1  0
 67 69  2  0
 68 67  1  0
 70 68  1  0
 71 80  2  0
 71 76  1  0
 72 68  1  0
 72 76  1  0
 73 72  1  0
 74 75  1  0
 74 73  1  0
 75 71  1  0
 76 77  2  0
 77 78  1  0
 79 78  2  0
 80 79  1  0
 81 55  1  0
 81 86  1  0
 81 82  1  0
 82 85  1  1
 82 83  1  0
 84 82  1  0
 86 89  1  0
 87 91  1  0
 87 86  1  0
 88 87  2  0
 91 90  1  0
 93 91  1  0
 93 94  1  0
 93 92  1  0
M  ISO  4  10 100  18 100  53 101  54 101
M  END
>  <TORSDO>  (57) 
F 25

>  <SCORE>  (57) 
-12.128

>  <name>  (57) 
59

>  <ligand_id>  (57) 
59

>  <original_smiles>  (57) 
[H]c1c([H])c([H])c2c(c1[H])C([H])([H])C([H])([H])C([H])([H])C2([H])N([H])C(=O)C1([H])N(C(=O)C([H])(N([H])C(=O)C([H])(N([H])C([H])([H])[H])C([H])([H])[H])C(C([H])([H])[H])(C([H])([H])[H])C([H])([H])[H])C([H])([H])c2c([H])c(OC([H])([H])C([H])([H])[N+]([H])([H])C([H])([H])C([H])([H])C([H])([H])C([H])([H])N([H])C(=O)C([H])([H])C([H])([H])N([H])C(=O)N3C([H])([H])C([H])([H])C([H])([H])C([H])(n4nc(-c5c([H])c([H])c(Oc6c([H])c([H])c(F)c([H])c6F)c([H])c5[H])c(C(=O)N([H])[H])c4N([H])[H])C3([H])[H])c([H])c([H])c2C1([H])[H]

>  <smiles>  (57) 
[H]c1c([H])c([H])c2c(c1[H])C([H])([H])C([H])([H])C([H])([H])C2([H])N([H])C(=O)C1([H])N(C(=O)C([H])(N([H])C(=O)C([H])(N([H])C([H])([H])[H])C([H])([H])[H])C(C([H])([H])[H])(C([H])([H])[H])C([H])([H])[H])C([H])([H])c2c([H])c(OC([H])([H])C([H])([H])[N+]([H])([H])C([H])([H])C([H])([H])C([H])([H])C([H])([H])N([H])C(=O)C([H])([H])C([H])([H])N([H])C(=O)N3C([H])([H])C([H])([H])C([H])([H])C([H])(n4nc(-c5c([H])c([H])c(Oc6c([H])c([H])c(F)c([H])c6F)c([H])c5[H])c(C(=O)N([H])[H])c4N([H])[H])C3([H])[H])c([H])c([H])c2C1([H])[H]

$$$$
60:0:0
     RDKit          3D

 91 98  0  0  1  0  0  0  0  0999 V2000
  -30.0820  -22.5710   21.4470 C   0  0  0  0  0  0  0  0  0  0  0  0
  -29.4560  -23.7180   21.7260 N   0  0  0  0  0  0  0  0  0  0  0  0
  -30.9700  -22.4990   20.5940 O   0  0  0  0  0  0  0  0  0  0  0  0
  -28.7590  -23.7160   22.4580 H   0  0  0  0  0  0  0  0  0  0  0  0
  -29.3110  -20.2420   21.7330 C   0  0  0  0  0  3  0  0  0  0  0  0
  -29.5730  -21.4680   22.2430 C   0  0  0  0  0  3  0  0  0  0  0  0
  -29.4160  -19.8570   20.3340 C   0  0  0  0  0  3  0  0  0  0  0  0
  -29.3120  -18.6020   19.8610 C   0  0  0  0  0  3  0  0  0  0  0  0
  -29.0710  -17.3430   20.6630 C   0  0  0  0  0  2  0  0  0  0  0  0
  -30.3900  -16.7080   21.1410 C   0  0  0  0  0  2  0  0  0  0  0  0
  -30.7850  -14.4070   20.3070 C   0  0  0  0  0  0  0  0  0  0  0  0
  -30.3960  -12.3240   19.0530 C   0  0  0  0  0  2  0  0  0  0  0  0
  -29.4260  -12.5940   17.8850 C   0  0  0  0  0  2  0  0  0  0  0  0
  -27.9610  -12.4760   18.3490 C   0  0  0  0  0  2  0  0  0  0  0  0
  -27.6810  -13.2870   19.6380 C   0  0  0  0  0  3  0  0  0  0  0  0
  -28.7490  -12.9830   20.7130 C   0  0  0  0  0  2  0  0  0  0  0  0
  -30.0800  -13.2610   20.1400 N   0  0  0  0  0  0  0  0  0  0  0  0
  -31.8000  -14.6900   19.6640 O   0  0  0  0  0  0  0  0  0  0  0  0
  -30.2440  -15.2590   21.1840 N   0  0  0  0  0  0  0  0  0  0  0  0
  -29.4940  -14.8930   21.7530 H   0  0  0  0  0  0  0  0  0  0  0  0
  -25.3000  -13.9370   20.3810 C   0  0  0  0  0  0  0  0  0  0  0  0
  -24.2310  -13.1780   20.7760 C   0  0  0  0  0  0  0  0  0  0  0  0
  -24.6770  -11.8210   20.7480 C   0  0  0  0  0  0  0  0  0  0  0  0
  -26.3330  -13.0400   20.1420 N   0  0  0  0  0  0  0  0  0  0  0  0
  -25.9600  -11.7650   20.4160 N   0  0  0  0  0  0  0  0  0  0  0  0
  -23.9430  -10.5680   20.9650 C   0  0  0  0  0  0  0  0  0  0  0  0
  -24.3970   -9.5970   21.8850 C   0  0  0  0  0  3  0  0  0  0  0  0
  -23.6650   -8.4070   22.0880 C   0  0  0  0  0  3  0  0  0  0  0  0
  -22.4650   -8.1810   21.3710 C   0  0  0  0  0  0  0  0  0  0  0  0
  -22.0310   -9.1410   20.4410 C   0  0  0  0  0  3  0  0  0  0  0  0
  -22.7620  -10.3230   20.2350 C   0  0  0  0  0  3  0  0  0  0  0  0
  -21.7040   -7.0400   21.4810 O   0  0  0  0  0  0  0  0  0  0  0  0
  -21.6950   -6.2930   22.6310 C   0  0  0  0  0  0  0  0  0  0  0  0
  -21.3430   -6.8520   23.8790 C   0  0  0  0  0  3  0  0  0  0  0  0
  -21.2740   -6.0330   25.0230 C   0  0  0  0  0  3  0  0  0  0  0  0
  -21.5500   -4.6550   24.9200 C   0  0  0  0  0  0  0  0  0  0  0  0
  -21.8990   -4.0960   23.6770 C   0  0  0  0  0  3  0  0  0  0  0  0
  -21.9670   -4.9130   22.5360 C   0  0  0  0  0  0  0  0  0  0  0  0
  -22.2810   -4.3680   21.3360 F   0  0  0  0  0  0  0  0  0  0  0  0
  -21.4790   -3.8640   26.0170 F   0  0  0  0  0  0  0  0  0  0  0  0
  -22.8460  -13.6740   21.0780 C   0  0  0  0  0  0  0  0  0  0  0  0
  -22.1320  -12.9980   21.9730 N   0  0  0  0  0  0  0  0  0  0  0  0
  -22.4070  -14.6980   20.5560 O   0  0  0  0  0  0  0  0  0  0  0  0
  -22.4990  -12.1710   22.4210 H   0  0  0  0  0  0  0  0  0  0  0  0
  -21.2050  -13.3130   22.2140 H   0  0  0  0  0  0  0  0  0  0  0  0
  -25.4770  -15.3040   20.1890 N   0  0  0  0  0  0  0  0  0  0  0  0
  -24.7330  -15.9730   20.3340 H   0  0  0  0  0  0  0  0  0  0  0  0
  -26.3350  -15.7300   19.8620 H   0  0  0  0  0  0  0  0  0  0  0  0
  -29.5970  -24.9190   20.9130 C   0  0  0  0  0  2  0  0  0  0  0  0
  -28.5090  -25.9400   21.2340 C   0  0  0  0  0  2  0  0  0  0  0  0
  -28.4190  -26.8290   20.1280 O   0  0  0  0  0  0  0  0  0  0  0  0
  -24.5870  -31.9220   23.2300 C   0  0  0  0  0  0  0  0  0  0  0  0
  -27.2550  -27.5440   20.1360 C   0  0  0  0  0  0  0  0  0  0  0  0
  -23.3840  -30.5160   21.5810 C   0  0  0  0  0  3  0  0  0  0  0  0
  -24.8470  -28.9920   20.1540 C   0  0  0  0  0  0  0  0  0  0  0  0
  -25.9000  -30.9020   21.3790 C   0  0  0  0  0  2  0  0  0  0  0  0
  -25.9960  -29.5340   20.7460 C   0  0  0  0  0  0  0  0  0  0  0  0
  -27.2060  -28.8110   20.7440 C   0  0  0  0  0  3  0  0  0  0  0  0
  -26.0980  -26.9980   19.5450 C   0  0  0  0  0  3  0  0  0  0  0  0
  -24.8890  -27.7180   19.5560 C   0  0  0  0  0  3  0  0  0  0  0  0
  -23.5960  -29.8380   20.2000 C   0  0  0  0  0  2  0  0  0  0  0  0
  -24.6410  -31.1270   22.1220 N   0  0  0  0  0  0  0  0  0  0  0  0
  -23.5060  -32.1880   23.7720 O   0  0  0  0  0  0  0  0  0  0  0  0
  -22.7410  -29.4910   22.5400 C   0  0  0  0  0  0  0  0  0  0  0  0
  -21.4180  -29.3080   22.4130 N   0  0  0  0  0  0  0  0  0  0  0  0
  -23.4290  -28.8630   23.3500 O   0  0  0  0  0  0  0  0  0  0  0  0
  -20.9280  -29.8660   21.7290 H   0  0  0  0  0  0  0  0  0  0  0  0
  -18.0470  -28.1080   22.9040 C   0  0  0  0  0  0  0  0  0  0  0  0
  -20.6030  -28.3660   23.1800 C   0  0  0  0  0  3  0  0  0  0  0  0
  -20.7080  -26.9380   22.5990 C   0  0  0  0  0  2  0  0  0  0  0  0
  -19.6080  -26.6160   21.5820 C   0  0  0  0  0  2  0  0  0  0  0  0
  -18.2260  -26.7600   22.2260 C   0  0  0  0  0  2  0  0  0  0  0  0
  -19.1640  -28.8690   23.3380 C   0  0  0  0  0  0  0  0  0  0  0  0
  -18.9450  -30.1300   23.9310 C   0  0  0  0  0  3  0  0  0  0  0  0
  -17.6410  -30.6330   24.0940 C   0  0  0  0  0  3  0  0  0  0  0  0
  -16.5370  -29.8690   23.6780 C   0  0  0  0  0  3  0  0  0  0  0  0
  -16.7410  -28.6080   23.0900 C   0  0  0  0  0  3  0  0  0  0  0  0
  -25.8740  -32.5520   23.8470 C   0  0  0  0  0  3  0  0  0  0  0  0
  -25.5640  -33.9490   24.1800 N   0  0  0  0  0  0  0  0  0  0  0  0
  -25.8960  -35.0020   23.4230 C   0  0  0  0  0  0  0  0  0  0  0  0
  -26.5710  -34.9010   22.3950 O   0  0  0  0  0  0  0  0  0  0  0  0
  -24.9660  -34.1020   24.9790 H   0  0  0  0  0  0  0  0  0  0  0  0
  -24.1660  -36.7890   23.0590 C   0  0  0  0  0  1  0  0  0  0  0  0
  -25.4030  -36.3890   23.8780 C   0  0  0  0  0  3  0  0  0  0  0  0
  -27.5330  -37.2750   24.7180 C   0  0  0  0  0  1  0  0  0  0  0  0
  -26.4330  -37.4440   23.7720 N   0  0  0  0  0  0  0  0  0  0  0  0
  -26.0250  -38.3620   23.9220 H   0  0  0  0  0  0  0  0  0  0  0  0
  -26.3980  -31.7770   25.1190 C   0  0  1  0  0  0  0  0  0  0  0  0
  -25.3100  -31.5310   26.1880 C   0  0  0  0  0  1  0  0  0  0  0  0
  -26.9840  -30.4040   24.7150 C   0  0  0  0  0  1  0  0  0  0  0  0
  -27.5480  -32.5710   25.7830 C   0  0  0  0  0  1  0  0  0  0  0  0
  1  2  1  0
  1  6  1  0
  2  4  1  0
  3  1  2  0
  5  6  2  0
  7  5  1  0
  8  7  2  0
  8  9  1  0
  9 10  1  0
 10 19  1  0
 11 19  1  0
 12 17  1  0
 13 14  1  0
 13 12  1  0
 15 14  1  0
 15 24  1  0
 15 16  1  0
 17 11  1  0
 17 16  1  0
 18 11  2  0
 19 20  1  0
 21 22  2  0
 22 41  1  0
 23 22  1  0
 23 26  1  0
 24 21  1  0
 24 25  1  0
 25 23  2  0
 26 27  1  0
 27 28  2  0
 29 32  1  0
 29 28  1  0
 30 29  2  0
 31 30  1  0
 31 26  2  0
 32 33  1  0
 33 34  1  0
 34 35  2  0
 36 35  1  0
 36 40  1  0
 37 36  2  0
 38 33  2  0
 38 37  1  0
 39 38  1  0
 41 42  1  0
 42 45  1  0
 42 44  1  0
 43 41  2  0
 46 47  1  0
 46 21  1  0
 48 46  1  0
 49 50  1  0
 49  2  1  0
 51 53  1  0
 51 50  1  0
 52 63  2  0
 53 58  1  0
 54 62  1  0
 54 64  1  0
 55 61  1  0
 55 57  1  0
 56 62  1  0
 57 56  1  0
 58 57  2  0
 59 60  1  0
 59 53  2  0
 60 55  2  0
 61 54  1  0
 62 52  1  0
 64 66  2  0
 65 64  1  0
 67 65  1  0
 68 77  2  0
 68 73  1  0
 69 65  1  0
 69 73  1  0
 70 69  1  0
 71 72  1  0
 71 70  1  0
 72 68  1  0
 73 74  2  0
 74 75  1  0
 76 75  2  0
 77 76  1  0
 78 52  1  0
 78 79  1  0
 78 88  1  0
 79 82  1  0
 80 84  1  0
 80 79  1  0
 81 80  2  0
 84 83  1  0
 86 84  1  0
 86 87  1  0
 86 85  1  0
 88 91  1  1
 88 89  1  0
 90 88  1  0
M  ISO  4  11 100  19 100  50 101  51 101
M  END
>  <TORSDO>  (58) 
F 22

>  <SCORE>  (58) 
-12.901

>  <name>  (58) 
60

>  <ligand_id>  (58) 
60

>  <original_smiles>  (58) 
[H]C(C(=O)N([H])C([H])([H])C([H])([H])Oc1c([H])c([H])c2c(c1[H])C([H])([H])N(C(=O)C([H])(N([H])C(=O)C([H])(N([H])C([H])([H])[H])C([H])([H])[H])C(C([H])([H])[H])(C([H])([H])[H])C([H])([H])[H])C([H])(C(=O)N([H])C1([H])c3c([H])c([H])c([H])c([H])c3C([H])([H])C([H])([H])C1([H])[H])C2([H])[H])=C([H])C([H])=C([H])C([H])([H])C([H])([H])N([H])C(=O)N1C([H])([H])C([H])([H])C([H])([H])C([H])(n2nc(-c3c([H])c([H])c(Oc4c([H])c([H])c(F)c([H])c4F)c([H])c3[H])c(C(=O)N([H])[H])c2N([H])[H])C1([H])[H]

>  <smiles>  (58) 
[H]C(C(=O)N([H])C([H])([H])C([H])([H])Oc1c([H])c([H])c2c(c1[H])C([H])([H])N(C(=O)C([H])(N([H])C(=O)C([H])(N([H])C([H])([H])[H])C([H])([H])[H])C(C([H])([H])[H])(C([H])([H])[H])C([H])([H])[H])C([H])(C(=O)N([H])C1([H])c3c([H])c([H])c([H])c([H])c3C([H])([H])C([H])([H])C1([H])[H])C2([H])[H])=C([H])C([H])=C([H])C([H])([H])C([H])([H])N([H])C(=O)N1C([H])([H])C([H])([H])C([H])([H])C([H])(n2nc(-c3c([H])c([H])c(Oc4c([H])c([H])c(F)c([H])c4F)c([H])c3[H])c(C(=O)N([H])[H])c2N([H])[H])C1([H])[H]

$$$$
61:0:0
     RDKit          3D

 86 93  0  0  1  0  0  0  0  0999 V2000
  -28.8370  -22.7640   20.5210 C   0  0  0  0  0  3  0  0  0  0  0  0
  -29.3040  -19.8370   20.4720 C   0  0  0  0  0  0  0  0  0  0  0  0
  -29.1010  -21.2080   19.9240 N   0  0  0  0  0  0  0  0  0  0  0  0
  -29.0370  -19.7210   21.6680 O   0  0  0  0  0  0  0  0  0  0  0  0
  -29.2830  -21.2270   18.9280 H   0  0  0  0  0  0  0  0  0  0  0  0
  -29.9160  -18.3420   19.7690 C   0  0  0  0  0  2  0  0  0  0  0  0
  -30.5450  -15.4350   19.9120 C   0  0  0  0  0  0  0  0  0  0  0  0
  -30.4730  -13.0020   18.9930 C   0  0  0  0  0  2  0  0  0  0  0  0
  -29.4800  -12.8250   17.8150 C   0  0  0  0  0  2  0  0  0  0  0  0
  -28.0620  -12.5370   18.3380 C   0  0  0  0  0  2  0  0  0  0  0  0
  -27.6820  -13.4660   19.5160 C   0  0  0  0  0  3  0  0  0  0  0  0
  -28.7990  -13.5920   20.5770 C   0  0  0  0  0  2  0  0  0  0  0  0
  -29.9860  -14.1210   19.8860 N   0  0  0  0  0  0  0  0  0  0  0  0
  -31.7310  -15.4470   19.5520 O   0  0  0  0  0  0  0  0  0  0  0  0
  -29.7910  -16.7020   20.1270 N   0  0  0  0  0  0  0  0  0  0  0  0
  -28.8680  -16.4950   20.4780 H   0  0  0  0  0  0  0  0  0  0  0  0
  -25.3690  -13.9960   20.4450 C   0  0  0  0  0  0  0  0  0  0  0  0
  -24.3330  -13.2060   20.8550 C   0  0  0  0  0  0  0  0  0  0  0  0
  -24.7930  -11.8580   20.7430 C   0  0  0  0  0  0  0  0  0  0  0  0
  -26.3910  -13.1300   20.1000 N   0  0  0  0  0  0  0  0  0  0  0  0
  -26.0610  -11.8360   20.3460 N   0  0  0  0  0  0  0  0  0  0  0  0
  -24.0760  -10.5890   20.9320 C   0  0  0  0  0  0  0  0  0  0  0  0
  -24.5270   -9.6140   21.8480 C   0  0  0  0  0  3  0  0  0  0  0  0
  -23.8060   -8.4140   22.0280 C   0  0  0  0  0  3  0  0  0  0  0  0
  -22.6190   -8.1800   21.2940 C   0  0  0  0  0  0  0  0  0  0  0  0
  -22.1860   -9.1460   20.3670 C   0  0  0  0  0  3  0  0  0  0  0  0
  -22.9080  -10.3370   20.1840 C   0  0  0  0  0  3  0  0  0  0  0  0
  -21.8680   -7.0330   21.3840 O   0  0  0  0  0  0  0  0  0  0  0  0
  -21.8000   -6.3070   22.5460 C   0  0  0  0  0  0  0  0  0  0  0  0
  -21.3120   -6.8670   23.7470 C   0  0  0  0  0  3  0  0  0  0  0  0
  -21.1940   -6.0650   24.9000 C   0  0  0  0  0  3  0  0  0  0  0  0
  -21.5530   -4.7060   24.8530 C   0  0  0  0  0  0  0  0  0  0  0  0
  -22.0340   -4.1450   23.6560 C   0  0  0  0  0  3  0  0  0  0  0  0
  -22.1530   -4.9440   22.5060 C   0  0  0  0  0  0  0  0  0  0  0  0
  -22.5970   -4.3930   21.3500 F   0  0  0  0  0  0  0  0  0  0  0  0
  -21.4340   -3.9340   25.9590 F   0  0  0  0  0  0  0  0  0  0  0  0
  -22.9580  -13.6740   21.2300 C   0  0  0  0  0  0  0  0  0  0  0  0
  -22.2850  -12.9510   22.1170 N   0  0  0  0  0  0  0  0  0  0  0  0
  -22.4910  -14.7170   20.7720 O   0  0  0  0  0  0  0  0  0  0  0  0
  -22.6760  -12.1070   22.5080 H   0  0  0  0  0  0  0  0  0  0  0  0
  -21.3640  -13.2450   22.4110 H   0  0  0  0  0  0  0  0  0  0  0  0
  -25.5210  -15.3730   20.3060 N   0  0  0  0  0  0  0  0  0  0  0  0
  -24.7590  -16.0170   20.4850 H   0  0  0  0  0  0  0  0  0  0  0  0
  -26.3290  -15.8220   19.8970 H   0  0  0  0  0  0  0  0  0  0  0  0
  -28.1150  -24.3050   19.8790 C   0  0  0  0  0  3  0  0  0  0  0  0
  -28.1940  -25.9180   20.2780 O   0  0  0  0  0  0  0  0  0  0  0  0
  -24.5950  -31.8880   23.1940 C   0  0  0  0  0  0  0  0  0  0  0  0
  -27.1750  -27.0110   20.1740 C   0  0  0  0  0  0  0  0  0  0  0  0
  -23.4050  -30.4810   21.5610 C   0  0  0  0  0  3  0  0  0  0  0  0
  -24.8610  -28.8830   20.1320 C   0  0  0  0  0  0  0  0  0  0  0  0
  -25.9690  -30.7060   21.4070 C   0  0  0  0  0  2  0  0  0  0  0  0
  -26.0460  -29.2950   20.7520 C   0  0  0  0  0  0  0  0  0  0  0  0
  -27.1940  -28.3790   20.7500 C   0  0  0  0  0  3  0  0  0  0  0  0
  -25.9610  -26.7580   19.4960 C   0  0  0  0  0  3  0  0  0  0  0  0
  -24.8440  -27.6370   19.4830 C   0  0  0  0  0  3  0  0  0  0  0  0
  -23.6350  -29.7950   20.1850 C   0  0  0  0  0  2  0  0  0  0  0  0
  -24.6780  -31.0530   22.1080 N   0  0  0  0  0  0  0  0  0  0  0  0
  -23.5050  -32.1710   23.7190 O   0  0  0  0  0  0  0  0  0  0  0  0
  -22.7210  -29.4820   22.5320 C   0  0  0  0  0  0  0  0  0  0  0  0
  -21.3910  -29.3080   22.4130 N   0  0  0  0  0  0  0  0  0  0  0  0
  -23.3930  -28.8650   23.3630 O   0  0  0  0  0  0  0  0  0  0  0  0
  -20.9010  -29.8570   21.7200 H   0  0  0  0  0  0  0  0  0  0  0  0
  -18.0190  -28.0780   22.9440 C   0  0  0  0  0  0  0  0  0  0  0  0
  -20.5790  -28.3650   23.1900 C   0  0  0  0  0  3  0  0  0  0  0  0
  -20.6870  -26.9330   22.6150 C   0  0  0  0  0  2  0  0  0  0  0  0
  -19.5810  -26.6030   21.6070 C   0  0  0  0  0  2  0  0  0  0  0  0
  -18.2020  -26.7330   22.2610 C   0  0  0  0  0  2  0  0  0  0  0  0
  -19.1340  -28.8510   23.3650 C   0  0  0  0  0  0  0  0  0  0  0  0
  -18.9060  -30.1080   23.9670 C   0  0  0  0  0  3  0  0  0  0  0  0
  -17.5960  -30.5930   24.1480 C   0  0  0  0  0  3  0  0  0  0  0  0
  -16.4970  -29.8180   23.7400 C   0  0  0  0  0  3  0  0  0  0  0  0
  -16.7080  -28.5620   23.1440 C   0  0  0  0  0  3  0  0  0  0  0  0
  -25.8630  -32.5410   23.8220 C   0  0  0  0  0  3  0  0  0  0  0  0
  -26.3680  -31.7940   25.1190 C   0  0  1  0  0  0  0  0  0  0  0  0
  -25.2640  -31.5700   26.1790 C   0  0  0  0  0  1  0  0  0  0  0  0
  -26.9610  -30.4120   24.7640 C   0  0  0  0  0  1  0  0  0  0  0  0
  -27.5080  -32.6040   25.7790 C   0  0  0  0  0  1  0  0  0  0  0  0
  -25.5400  -33.9440   24.1420 N   0  0  0  0  0  0  0  0  0  0  0  0
  -25.8640  -35.0000   23.3830 C   0  0  0  0  0  0  0  0  0  0  0  0
  -26.5290  -34.8960   22.3480 O   0  0  0  0  0  0  0  0  0  0  0  0
  -24.9480  -34.0970   24.9440 H   0  0  0  0  0  0  0  0  0  0  0  0
  -24.1290  -36.7940   23.0420 C   0  0  0  0  0  1  0  0  0  0  0  0
  -25.3790  -36.3910   23.8420 C   0  0  0  0  0  3  0  0  0  0  0  0
  -27.5130  -37.2930   24.6600 C   0  0  0  0  0  1  0  0  0  0  0  0
  -26.4080  -37.4470   23.7170 N   0  0  0  0  0  0  0  0  0  0  0  0
  -25.9980  -38.3670   23.8570 H   0  0  0  0  0  0  0  0  0  0  0  0
  2  4  2  0
  3  2  1  0
  3  1  1  0
  5  3  1  0
  6 15  1  0
  6  2  1  0
  7 15  1  0
  8 13  1  0
  9 10  1  0
  9  8  1  0
 11 10  1  0
 11 20  1  0
 11 12  1  0
 13  7  1  0
 13 12  1  0
 14  7  2  0
 15 16  1  0
 17 18  2  0
 18 37  1  0
 19 18  1  0
 19 22  1  0
 20 21  1  0
 20 17  1  0
 21 19  2  0
 22 23  1  0
 23 24  2  0
 25 28  1  0
 25 24  1  0
 26 25  2  0
 27 26  1  0
 27 22  2  0
 28 29  1  0
 29 30  1  0
 30 31  2  0
 32 31  1  0
 32 36  1  0
 33 32  2  0
 34 29  2  0
 34 33  1  0
 35 34  1  0
 37 38  1  0
 38 41  1  0
 38 40  1  0
 39 37  2  0
 42 17  1  0
 42 43  1  0
 44 42  1  0
 45 46  1  0
 45  1  2  0
 47 58  2  0
 48 46  1  0
 48 53  1  0
 49 57  1  0
 49 59  1  0
 50 56  1  0
 50 52  1  0
 51 57  1  0
 52 51  1  0
 53 52  2  0
 54 48  2  0
 55 54  1  0
 55 50  2  0
 56 49  1  0
 57 47  1  0
 59 61  2  0
 60 59  1  0
 62 60  1  0
 63 72  2  0
 63 68  1  0
 64 60  1  0
 64 68  1  0
 65 64  1  0
 66 67  1  0
 66 65  1  0
 67 63  1  0
 68 69  2  0
 69 70  1  0
 71 70  2  0
 72 71  1  0
 73 47  1  0
 73 78  1  0
 73 74  1  0
 74 77  1  1
 74 75  1  0
 76 74  1  0
 78 81  1  0
 79 83  1  0
 79 78  1  0
 80 79  2  0
 83 82  1  0
 85 83  1  0
 85 86  1  0
 85 84  1  0
M  ISO  4   7 100  15 100  45 101  46 101
M  END
>  <TORSDO>  (59) 
F 19

>  <SCORE>  (59) 
-15.612

>  <name>  (59) 
61

>  <ligand_id>  (59) 
61

>  <original_smiles>  (59) 
[H]c1c([H])c([H])c2c(c1[H])C([H])([H])C([H])([H])C([H])([H])C2([H])N([H])C(=O)C1([H])N(C(=O)C([H])(N([H])C(=O)C([H])(N([H])C([H])([H])[H])C([H])([H])[H])C(C([H])([H])[H])(C([H])([H])[H])C([H])([H])[H])C([H])([H])c2c([H])c(OC([H])([H])C([H])([H])N([H])C(=O)C([H])([H])N([H])C(=O)N3C([H])([H])C([H])([H])C([H])([H])C([H])(n4nc(-c5c([H])c([H])c(Oc6c([H])c([H])c(F)c([H])c6F)c([H])c5[H])c(C(=O)N([H])[H])c4N([H])[H])C3([H])[H])c([H])c([H])c2C1([H])[H]

>  <smiles>  (59) 
[H]c1c([H])c([H])c2c(c1[H])C([H])([H])C([H])([H])C([H])([H])C2([H])N([H])C(=O)C1([H])N(C(=O)C([H])(N([H])C(=O)C([H])(N([H])C([H])([H])[H])C([H])([H])[H])C(C([H])([H])[H])(C([H])([H])[H])C([H])([H])[H])C([H])([H])c2c([H])c(OC([H])([H])C([H])([H])N([H])C(=O)C([H])([H])N([H])C(=O)N3C([H])([H])C([H])([H])C([H])([H])C([H])(n4nc(-c5c([H])c([H])c(Oc6c([H])c([H])c(F)c([H])c6F)c([H])c5[H])c(C(=O)N([H])[H])c4N([H])[H])C3([H])[H])c([H])c([H])c2C1([H])[H]

$$$$
62:0:0
     RDKit          3D

 94101  0  0  1  0  0  0  0  0999 V2000
  -29.9080  -20.8770   23.5560 N   0  0  0  0  0  4  0  0  0  0  0  0
  -29.9660  -21.4420   24.3910 H   0  0  0  0  0  0  0  0  0  0  0  0
  -29.0310  -20.3790   23.6070 H   0  0  0  0  0  0  0  0  0  0  0  0
  -30.9690  -19.8520   23.6020 C   0  0  0  0  0  2  0  0  0  0  0  0
  -30.4530  -18.5960   24.3100 C   0  0  0  0  0  0  0  0  0  0  0  0
  -30.3240  -17.4430   23.6440 N   0  0  0  0  0  0  0  0  0  0  0  0
  -30.1550  -18.6670   25.5010 O   0  0  0  0  0  0  0  0  0  0  0  0
  -30.0200  -16.6460   24.1890 H   0  0  0  0  0  0  0  0  0  0  0  0
  -30.4370  -17.2180   22.2040 C   0  0  0  0  0  2  0  0  0  0  0  0
  -31.7950  -16.5970   21.7970 C   0  0  0  0  0  2  0  0  0  0  0  0
  -31.9960  -14.4810   20.4630 C   0  0  0  0  0  0  0  0  0  0  0  0
  -31.4720  -12.4840   19.1060 C   0  0  0  0  0  2  0  0  0  0  0  0
  -30.5860  -12.8600   17.9040 C   0  0  0  0  0  2  0  0  0  0  0  0
  -29.0980  -12.8620   18.2980 C   0  0  0  0  0  2  0  0  0  0  0  0
  -28.8290  -13.6920   19.5810 C   0  0  0  0  0  3  0  0  0  0  0  0
  -29.8060  -13.2670   20.6980 C   0  0  0  0  0  2  0  0  0  0  0  0
  -31.1920  -13.4190   20.2010 N   0  0  0  0  0  0  0  0  0  0  0  0
  -33.0070  -14.7690   19.8140 O   0  0  0  0  0  0  0  0  0  0  0  0
  -31.5870  -15.1860   21.5220 N   0  0  0  0  0  0  0  0  0  0  0  0
  -30.8500  -14.7460   22.0540 H   0  0  0  0  0  0  0  0  0  0  0  0
  -26.4940  -14.5730   20.2270 C   0  0  0  0  0  0  0  0  0  0  0  0
  -25.3370  -13.9280   20.5750 C   0  0  0  0  0  0  0  0  0  0  0  0
  -25.6440  -12.5340   20.5500 C   0  0  0  0  0  0  0  0  0  0  0  0
  -27.4380  -13.5790   20.0180 N   0  0  0  0  0  0  0  0  0  0  0  0
  -26.9260  -12.3470   20.2640 N   0  0  0  0  0  0  0  0  0  0  0  0
  -24.7760  -11.3620   20.7260 C   0  0  0  0  0  0  0  0  0  0  0  0
  -25.0720  -10.3650   21.6810 C   0  0  0  0  0  3  0  0  0  0  0  0
  -24.2160   -9.2560   21.8460 C   0  0  0  0  0  3  0  0  0  0  0  0
  -23.0500   -9.1350   21.0520 C   0  0  0  0  0  0  0  0  0  0  0  0
  -22.7720  -10.1200   20.0870 C   0  0  0  0  0  3  0  0  0  0  0  0
  -23.6290  -11.2220   19.9220 C   0  0  0  0  0  3  0  0  0  0  0  0
  -22.1750   -8.0800   21.1250 O   0  0  0  0  0  0  0  0  0  0  0  0
  -21.9510   -7.4080   22.3000 C   0  0  0  0  0  0  0  0  0  0  0  0
  -21.5070   -8.0700   23.4630 C   0  0  0  0  0  3  0  0  0  0  0  0
  -21.2210   -7.3310   24.6280 C   0  0  0  0  0  3  0  0  0  0  0  0
  -21.3680   -5.9310   24.6290 C   0  0  0  0  0  0  0  0  0  0  0  0
  -21.8020   -5.2690   23.4670 C   0  0  0  0  0  3  0  0  0  0  0  0
  -22.0910   -6.0050   22.3060 C   0  0  0  0  0  0  0  0  0  0  0  0
  -22.4900   -5.3590   21.1840 F   0  0  0  0  0  0  0  0  0  0  0  0
  -21.0840   -5.2200   25.7450 F   0  0  0  0  0  0  0  0  0  0  0  0
  -23.9990  -14.5610   20.8230 C   0  0  0  0  0  0  0  0  0  0  0  0
  -23.1910  -13.9660   21.6930 N   0  0  0  0  0  0  0  0  0  0  0  0
  -23.6800  -15.6180   20.2810 O   0  0  0  0  0  0  0  0  0  0  0  0
  -23.4650  -13.1160   22.1640 H   0  0  0  0  0  0  0  0  0  0  0  0
  -22.2900  -14.3740   21.9020 H   0  0  0  0  0  0  0  0  0  0  0  0
  -26.8140  -15.9170   20.0520 N   0  0  0  0  0  0  0  0  0  0  0  0
  -27.7020  -16.2500   19.6990 H   0  0  0  0  0  0  0  0  0  0  0  0
  -26.1090  -16.6440   20.1010 H   0  0  0  0  0  0  0  0  0  0  0  0
  -29.9240  -21.7170   22.3360 C   0  0  0  0  0  2  0  0  0  0  0  0
  -28.8150  -22.7750   22.3430 C   0  0  0  0  0  2  0  0  0  0  0  0
  -28.8140  -23.4220   21.0760 O   0  0  0  0  0  0  0  0  0  0  0  0
  -28.0300  -24.6070   21.0680 C   0  0  0  0  0  2  0  0  0  0  0  0
  -28.3090  -25.3830   19.7740 C   0  0  0  0  0  2  0  0  0  0  0  0
  -28.2610  -26.7850   20.0110 O   0  0  0  0  0  0  0  0  0  0  0  0
  -24.5230  -31.8870   23.2100 C   0  0  0  0  0  0  0  0  0  0  0  0
  -27.0500  -27.4370   20.0600 C   0  0  0  0  0  0  0  0  0  0  0  0
  -23.2550  -30.4880   21.6060 C   0  0  0  0  0  3  0  0  0  0  0  0
  -24.6540  -28.9330   20.1480 C   0  0  0  0  0  0  0  0  0  0  0  0
  -25.7730  -30.8330   21.3340 C   0  0  0  0  0  2  0  0  0  0  0  0
  -25.8300  -29.4610   20.6940 C   0  0  0  0  0  0  0  0  0  0  0  0
  -27.0260  -28.7190   20.6460 C   0  0  0  0  0  3  0  0  0  0  0  0
  -25.8500  -26.9050   19.5310 C   0  0  0  0  0  3  0  0  0  0  0  0
  -24.6580  -27.6520   19.5680 C   0  0  0  0  0  3  0  0  0  0  0  0
  -23.4170  -29.7950   20.2260 C   0  0  0  0  0  2  0  0  0  0  0  0
  -24.5360  -31.0850   22.1070 N   0  0  0  0  0  0  0  0  0  0  0  0
  -23.4600  -32.1740   23.7790 O   0  0  0  0  0  0  0  0  0  0  0  0
  -22.6220  -29.4790   22.5920 C   0  0  0  0  0  0  0  0  0  0  0  0
  -21.2990  -29.2800   22.4760 N   0  0  0  0  0  0  0  0  0  0  0  0
  -23.3180  -28.8750   23.4130 O   0  0  0  0  0  0  0  0  0  0  0  0
  -20.7990  -29.8230   21.7850 H   0  0  0  0  0  0  0  0  0  0  0  0
  -17.9510  -28.0220   22.9730 C   0  0  0  0  0  0  0  0  0  0  0  0
  -20.4970  -28.3470   23.2650 C   0  0  0  0  0  3  0  0  0  0  0  0
  -20.6390  -26.9030   22.7310 C   0  0  0  0  0  2  0  0  0  0  0  0
  -19.5560  -26.5240   21.7160 C   0  0  0  0  0  2  0  0  0  0  0  0
  -18.1660  -26.6570   22.3420 C   0  0  0  0  0  2  0  0  0  0  0  0
  -19.0460  -28.8220   23.3920 C   0  0  0  0  0  0  0  0  0  0  0  0
  -18.7940  -30.0990   23.9410 C   0  0  0  0  0  3  0  0  0  0  0  0
  -17.4760  -30.5750   24.0740 C   0  0  0  0  0  3  0  0  0  0  0  0
  -16.3940  -29.7720   23.6720 C   0  0  0  0  0  3  0  0  0  0  0  0
  -16.6330  -28.4980   23.1290 C   0  0  0  0  0  3  0  0  0  0  0  0
  -25.8350  -32.5030   23.7900 C   0  0  0  0  0  3  0  0  0  0  0  0
  -26.3820  -31.7310   25.0530 C   0  0  1  0  0  0  0  0  0  0  0  0
  -25.3180  -31.5090   26.1520 C   0  0  0  0  0  1  0  0  0  0  0  0
  -26.9400  -30.3460   24.6490 C   0  0  0  0  0  1  0  0  0  0  0  0
  -27.5580  -32.5160   25.6800 C   0  0  0  0  0  1  0  0  0  0  0  0
  -25.5540  -33.9060   24.1200 N   0  0  0  0  0  0  0  0  0  0  0  0
  -25.8820  -34.9490   23.3460 C   0  0  0  0  0  0  0  0  0  0  0  0
  -26.5230  -34.8310   22.2980 O   0  0  0  0  0  0  0  0  0  0  0  0
  -24.9850  -34.0760   24.9360 H   0  0  0  0  0  0  0  0  0  0  0  0
  -24.1630  -36.7560   23.0300 C   0  0  0  0  0  1  0  0  0  0  0  0
  -25.4230  -36.3440   23.8080 C   0  0  0  0  0  3  0  0  0  0  0  0
  -27.5910  -37.2090   24.5690 C   0  0  0  0  0  1  0  0  0  0  0  0
  -26.4640  -37.3850   23.6560 N   0  0  0  0  0  0  0  0  0  0  0  0
  -26.0730  -38.3090   23.8110 H   0  0  0  0  0  0  0  0  0  0  0  0
  1  4  1  0
  1  3  1  0
  1  2  1  0
  4  5  1  0
  5  7  2  0
  6  8  1  0
  6  5  1  0
  9  6  1  0
 10  9  1  0
 11 19  1  0
 12 17  1  0
 13 14  1  0
 13 12  1  0
 15 14  1  0
 15 24  1  0
 15 16  1  0
 17 11  1  0
 17 16  1  0
 18 11  2  0
 19 10  1  0
 19 20  1  0
 21 22  2  0
 22 41  1  0
 23 22  1  0
 23 26  1  0
 24 21  1  0
 24 25  1  0
 25 23  2  0
 26 27  1  0
 27 28  2  0
 29 32  1  0
 29 28  1  0
 30 29  2  0
 31 30  1  0
 31 26  2  0
 32 33  1  0
 33 38  2  0
 33 34  1  0
 34 35  2  0
 35 36  1  0
 36 40  1  0
 37 36  2  0
 38 37  1  0
 39 38  1  0
 41 42  1  0
 42 45  1  0
 42 44  1  0
 43 41  2  0
 46 48  1  0
 46 21  1  0
 47 46  1  0
 49 50  1  0
 49  1  1  0
 51 50  1  0
 52 51  1  0
 53 54  1  0
 53 52  1  0
 54 56  1  0
 55 66  2  0
 56 61  1  0
 57 65  1  0
 57 67  1  0
 58 64  1  0
 58 60  1  0
 59 65  1  0
 60 59  1  0
 61 60  2  0
 62 63  1  0
 62 56  2  0
 63 58  2  0
 64 57  1  0
 65 55  1  0
 67 69  2  0
 68 67  1  0
 70 68  1  0
 71 80  2  0
 71 76  1  0
 72 68  1  0
 72 76  1  0
 73 72  1  0
 74 75  1  0
 74 73  1  0
 75 71  1  0
 76 77  2  0
 77 78  1  0
 79 78  2  0
 80 79  1  0
 81 55  1  0
 81 86  1  0
 81 82  1  0
 82 85  1  1
 82 83  1  0
 84 82  1  0
 86 89  1  0
 87 91  1  0
 87 86  1  0
 88 87  2  0
 91 90  1  0
 93 91  1  0
 93 94  1  0
 93 92  1  0
M  ISO  4  11 100  19 100  53 101  54 101
M  END
>  <TORSDO>  (60) 
F 25

>  <SCORE>  (60) 
-8.508

>  <name>  (60) 
62

>  <ligand_id>  (60) 
62

>  <original_smiles>  (60) 
[H]c1c([H])c([H])c2c(c1[H])C([H])([H])C([H])([H])C([H])([H])C2([H])N([H])C(=O)C1([H])N(C(=O)C([H])(N([H])C(=O)C([H])(N([H])C([H])([H])[H])C([H])([H])[H])C(C([H])([H])[H])(C([H])([H])[H])C([H])([H])[H])C([H])([H])c2c([H])c(OC([H])([H])C([H])([H])OC([H])([H])C([H])([H])[N+]([H])([H])C([H])([H])C(=O)N([H])C([H])([H])C([H])([H])N([H])C(=O)N3C([H])([H])C([H])([H])C([H])([H])C([H])(n4nc(-c5c([H])c([H])c(Oc6c([H])c([H])c(F)c([H])c6F)c([H])c5[H])c(C(=O)N([H])[H])c4N([H])[H])C3([H])[H])c([H])c([H])c2C1([H])[H]

>  <smiles>  (60) 
[H]c1c([H])c([H])c2c(c1[H])C([H])([H])C([H])([H])C([H])([H])C2([H])N([H])C(=O)C1([H])N(C(=O)C([H])(N([H])C(=O)C([H])(N([H])C([H])([H])[H])C([H])([H])[H])C(C([H])([H])[H])(C([H])([H])[H])C([H])([H])[H])C([H])([H])c2c([H])c(OC([H])([H])C([H])([H])OC([H])([H])C([H])([H])[N+]([H])([H])C([H])([H])C(=O)N([H])C([H])([H])C([H])([H])N([H])C(=O)N3C([H])([H])C([H])([H])C([H])([H])C([H])(n4nc(-c5c([H])c([H])c(Oc6c([H])c([H])c(F)c([H])c6F)c([H])c5[H])c(C(=O)N([H])[H])c4N([H])[H])C3([H])[H])c([H])c([H])c2C1([H])[H]

$$$$
63:0:0
     RDKit          3D

 94101  0  0  1  0  0  0  0  0999 V2000
  -28.9040  -22.5470   18.6130 C   0  0  0  0  0  2  0  0  0  0  0  0
  -29.3660  -23.9030   18.0520 C   0  0  0  0  0  2  0  0  0  0  0  0
  -28.2280  -24.8390   17.9310 N   0  0  0  0  0  4  0  0  0  0  0  0
  -27.6890  -24.7930   18.7810 H   0  0  0  0  0  0  0  0  0  0  0  0
  -27.6370  -24.5120   17.1820 H   0  0  0  0  0  0  0  0  0  0  0  0
  -28.5740  -26.2600   17.6800 C   0  0  0  0  0  2  0  0  0  0  0  0
  -29.1250  -26.9790   18.9330 C   0  0  0  0  0  2  0  0  0  0  0  0
  -28.3210  -26.7540   20.0940 O   0  0  0  0  0  0  0  0  0  0  0  0
  -24.5550  -31.9110   23.2690 C   0  0  0  0  0  0  0  0  0  0  0  0
  -27.1640  -27.4870   20.1480 C   0  0  0  0  0  0  0  0  0  0  0  0
  -23.3290  -30.5100   21.6410 C   0  0  0  0  0  3  0  0  0  0  0  0
  -24.7700  -28.9680   20.2100 C   0  0  0  0  0  0  0  0  0  0  0  0
  -25.8540  -30.8680   21.4180 C   0  0  0  0  0  2  0  0  0  0  0  0
  -25.9330  -29.4980   20.7820 C   0  0  0  0  0  0  0  0  0  0  0  0
  -27.1390  -28.7620   20.7550 C   0  0  0  0  0  3  0  0  0  0  0  0
  -25.9770  -26.9490   19.6100 C   0  0  0  0  0  3  0  0  0  0  0  0
  -24.7820  -27.6900   19.6280 C   0  0  0  0  0  3  0  0  0  0  0  0
  -23.5250  -29.8230   20.2630 C   0  0  0  0  0  2  0  0  0  0  0  0
  -24.5980  -31.1110   22.1660 N   0  0  0  0  0  0  0  0  0  0  0  0
  -23.4790  -32.1900   23.8170 O   0  0  0  0  0  0  0  0  0  0  0  0
  -22.6870  -29.4920   22.6080 C   0  0  0  0  0  0  0  0  0  0  0  0
  -21.3650  -29.3020   22.4800 N   0  0  0  0  0  0  0  0  0  0  0  0
  -23.3760  -28.8750   23.4240 O   0  0  0  0  0  0  0  0  0  0  0  0
  -20.8720  -29.8490   21.7880 H   0  0  0  0  0  0  0  0  0  0  0  0
  -17.9960  -28.0980   22.9730 C   0  0  0  0  0  0  0  0  0  0  0  0
  -20.5500  -28.3690   23.2560 C   0  0  0  0  0  3  0  0  0  0  0  0
  -20.6630  -26.9340   22.6920 C   0  0  0  0  0  2  0  0  0  0  0  0
  -19.5680  -26.5970   21.6740 C   0  0  0  0  0  2  0  0  0  0  0  0
  -18.1820  -26.7440   22.3080 C   0  0  0  0  0  2  0  0  0  0  0  0
  -19.1100  -28.8680   23.4020 C   0  0  0  0  0  0  0  0  0  0  0  0
  -18.8830  -30.1380   23.9780 C   0  0  0  0  0  3  0  0  0  0  0  0
  -17.5750  -30.6370   24.1300 C   0  0  0  0  0  3  0  0  0  0  0  0
  -16.4770  -29.8620   23.7190 C   0  0  0  0  0  3  0  0  0  0  0  0
  -16.6870  -28.5960   23.1450 C   0  0  0  0  0  3  0  0  0  0  0  0
  -25.8490  -32.5360   23.8760 C   0  0  0  0  0  3  0  0  0  0  0  0
  -26.3790  -31.7680   25.1520 C   0  0  1  0  0  0  0  0  0  0  0  0
  -25.2910  -31.5410   26.2300 C   0  0  0  0  0  1  0  0  0  0  0  0
  -26.9530  -30.3860   24.7630 C   0  0  0  0  0  1  0  0  0  0  0  0
  -27.5390  -32.5630   25.7980 C   0  0  0  0  0  1  0  0  0  0  0  0
  -25.5540  -33.9390   24.1960 N   0  0  0  0  0  0  0  0  0  0  0  0
  -25.9000  -34.9810   23.4280 C   0  0  0  0  0  0  0  0  0  0  0  0
  -26.5710  -34.8650   22.3990 O   0  0  0  0  0  0  0  0  0  0  0  0
  -24.9490  -34.1050   24.9870 H   0  0  0  0  0  0  0  0  0  0  0  0
  -24.1910  -36.7860   23.0510 C   0  0  0  0  0  1  0  0  0  0  0  0
  -25.4210  -36.3750   23.8740 C   0  0  0  0  0  3  0  0  0  0  0  0
  -27.5580  -37.2420   24.7170 C   0  0  0  0  0  1  0  0  0  0  0  0
  -26.4650  -37.4170   23.7650 N   0  0  0  0  0  0  0  0  0  0  0  0
  -26.0660  -38.3420   23.9060 H   0  0  0  0  0  0  0  0  0  0  0  0
  -30.0550  -21.5370   18.7550 C   0  0  0  0  0  2  0  0  0  0  0  0
  -29.6040  -20.2270   19.4250 C   0  0  0  0  0  2  0  0  0  0  0  0
  -30.7350  -19.3180   19.7120 N   0  0  0  0  0  4  0  0  0  0  0  0
  -31.4020  -19.8130   20.2830 H   0  0  0  0  0  0  0  0  0  0  0  0
  -31.1980  -19.0620   18.8520 H   0  0  0  0  0  0  0  0  0  0  0  0
  -30.3310  -18.0950   20.4350 C   0  0  0  0  0  2  0  0  0  0  0  0
  -31.5360  -17.3360   21.0180 C   0  0  0  0  0  2  0  0  0  0  0  0
  -31.1420  -16.1570   21.9390 C   0  0  0  0  0  2  0  0  0  0  0  0
  -30.7370  -14.3080   20.2960 C   0  0  0  0  0  0  0  0  0  0  0  0
  -30.2780  -12.2760   18.9810 C   0  0  0  0  0  2  0  0  0  0  0  0
  -29.2890  -12.5390   17.8310 C   0  0  0  0  0  2  0  0  0  0  0  0
  -27.8360  -12.4040   18.3200 C   0  0  0  0  0  2  0  0  0  0  0  0
  -27.5670  -13.2090   19.6180 C   0  0  0  0  0  3  0  0  0  0  0  0
  -28.6550  -12.9250   20.6770 C   0  0  0  0  0  2  0  0  0  0  0  0
  -29.9740  -13.2080   20.0770 N   0  0  0  0  0  0  0  0  0  0  0  0
  -31.7510  -14.5660   19.6420 O   0  0  0  0  0  0  0  0  0  0  0  0
  -30.3490  -15.0940   21.3090 N   0  0  0  0  0  0  0  0  0  0  0  0
  -29.5040  -14.8120   21.7850 H   0  0  0  0  0  0  0  0  0  0  0  0
  -25.1930  -13.8330   20.3980 C   0  0  0  0  0  0  0  0  0  0  0  0
  -24.1330  -13.0650   20.8020 C   0  0  0  0  0  0  0  0  0  0  0  0
  -24.5870  -11.7120   20.7610 C   0  0  0  0  0  0  0  0  0  0  0  0
  -26.2260  -12.9460   20.1380 N   0  0  0  0  0  0  0  0  0  0  0  0
  -25.8660  -11.6650   20.4120 N   0  0  0  0  0  0  0  0  0  0  0  0
  -23.8620  -10.4540   20.9800 C   0  0  0  0  0  0  0  0  0  0  0  0
  -24.3170   -9.4900   21.9060 C   0  0  0  0  0  3  0  0  0  0  0  0
  -23.5950   -8.2960   22.1110 C   0  0  0  0  0  3  0  0  0  0  0  0
  -22.4030   -8.0550   21.3880 C   0  0  0  0  0  0  0  0  0  0  0  0
  -21.9640   -9.0070   20.4500 C   0  0  0  0  0  3  0  0  0  0  0  0
  -22.6880  -10.1940   20.2450 C   0  0  0  0  0  3  0  0  0  0  0  0
  -21.6500   -6.9120   21.5010 O   0  0  0  0  0  0  0  0  0  0  0  0
  -21.6350   -6.1700   22.6550 C   0  0  0  0  0  0  0  0  0  0  0  0
  -21.2510   -6.7280   23.8930 C   0  0  0  0  0  3  0  0  0  0  0  0
  -21.1840   -5.9140   25.0410 C   0  0  0  0  0  3  0  0  0  0  0  0
  -21.4920   -4.5430   24.9520 C   0  0  0  0  0  0  0  0  0  0  0  0
  -21.8690   -3.9850   23.7190 C   0  0  0  0  0  3  0  0  0  0  0  0
  -21.9380   -4.7960   22.5730 C   0  0  0  0  0  0  0  0  0  0  0  0
  -22.2820   -4.2490   21.3820 F   0  0  0  0  0  0  0  0  0  0  0  0
  -21.4200   -3.7580   26.0530 F   0  0  0  0  0  0  0  0  0  0  0  0
  -22.7470  -13.5510   21.1170 C   0  0  0  0  0  0  0  0  0  0  0  0
  -22.0430  -12.8580   22.0070 N   0  0  0  0  0  0  0  0  0  0  0  0
  -22.2960  -14.5760   20.6090 O   0  0  0  0  0  0  0  0  0  0  0  0
  -22.4210  -12.0290   22.4420 H   0  0  0  0  0  0  0  0  0  0  0  0
  -21.1120  -13.1630   22.2570 H   0  0  0  0  0  0  0  0  0  0  0  0
  -25.3610  -15.2020   20.2120 N   0  0  0  0  0  0  0  0  0  0  0  0
  -24.6050  -15.8640   20.3500 H   0  0  0  0  0  0  0  0  0  0  0  0
  -26.2090  -15.6320   19.8670 H   0  0  0  0  0  0  0  0  0  0  0  0
  1 49  1  0
  2  1  1  0
  3  2  1  0
  3  4  1  0
  5  3  1  0
  6  3  1  0
  6  7  1  0
  7  8  1  0
  8 10  1  0
  9 20  2  0
 10 15  1  0
 11 19  1  0
 11 21  1  0
 12 18  1  0
 12 14  1  0
 13 19  1  0
 14 13  1  0
 15 14  2  0
 16 17  1  0
 16 10  2  0
 17 12  2  0
 18 11  1  0
 19  9  1  0
 21 23  2  0
 22 21  1  0
 24 22  1  0
 25 34  2  0
 25 30  1  0
 26 22  1  0
 26 30  1  0
 27 26  1  0
 28 29  1  0
 28 27  1  0
 29 25  1  0
 30 31  2  0
 31 32  1  0
 33 32  2  0
 34 33  1  0
 35  9  1  0
 35 40  1  0
 35 36  1  0
 36 39  1  1
 36 37  1  0
 38 36  1  0
 40 43  1  0
 41 45  1  0
 41 40  1  0
 42 41  2  0
 45 44  1  0
 47 45  1  0
 47 48  1  0
 47 46  1  0
 49 50  1  0
 50 51  1  0
 51 52  1  0
 51 54  1  0
 53 51  1  0
 54 55  1  0
 55 56  1  0
 57 65  1  0
 58 63  1  0
 59 60  1  0
 59 58  1  0
 61 60  1  0
 61 70  1  0
 61 62  1  0
 63 57  1  0
 63 62  1  0
 64 57  2  0
 65 66  1  0
 65 56  1  0
 67 68  2  0
 68 87  1  0
 69 68  1  0
 69 72  1  0
 70 67  1  0
 70 71  1  0
 71 69  2  0
 72 73  1  0
 73 74  2  0
 75 78  1  0
 75 74  1  0
 76 75  2  0
 77 76  1  0
 77 72  2  0
 78 79  1  0
 79 80  1  0
 80 81  2  0
 82 81  1  0
 82 86  1  0
 83 82  2  0
 84 79  2  0
 84 83  1  0
 85 84  1  0
 87 88  1  0
 88 91  1  0
 88 90  1  0
 89 87  2  0
 92 93  1  0
 92 67  1  0
 94 92  1  0
M  ISO  4   7 101   8 101  57 100  65 100
M  END
>  <TORSDO>  (61) 
F 26

>  <SCORE>  (61) 
-11.668

>  <name>  (61) 
63

>  <ligand_id>  (61) 
63

>  <original_smiles>  (61) 
[H]c1c([H])c([H])c2c(c1[H])C([H])([H])C([H])([H])C([H])([H])C2([H])N([H])C(=O)C1([H])N(C(=O)C([H])(N([H])C(=O)C([H])(N([H])C([H])([H])[H])C([H])([H])[H])C(C([H])([H])[H])(C([H])([H])[H])C([H])([H])[H])C([H])([H])c2c([H])c(OC([H])([H])C([H])([H])[N+]([H])([H])C([H])([H])C([H])([H])C([H])([H])C([H])([H])[N+]([H])([H])C([H])([H])C([H])([H])C([H])([H])N([H])C(=O)N3C([H])([H])C([H])([H])C([H])([H])C([H])(n4nc(-c5c([H])c([H])c(Oc6c([H])c([H])c(F)c([H])c6F)c([H])c5[H])c(C(=O)N([H])[H])c4N([H])[H])C3([H])[H])c([H])c([H])c2C1([H])[H]

>  <smiles>  (61) 
[H]c1c([H])c([H])c2c(c1[H])C([H])([H])C([H])([H])C([H])([H])C2([H])N([H])C(=O)C1([H])N(C(=O)C([H])(N([H])C(=O)C([H])(N([H])C([H])([H])[H])C([H])([H])[H])C(C([H])([H])[H])(C([H])([H])[H])C([H])([H])[H])C([H])([H])c2c([H])c(OC([H])([H])C([H])([H])[N+]([H])([H])C([H])([H])C([H])([H])C([H])([H])C([H])([H])[N+]([H])([H])C([H])([H])C([H])([H])C([H])([H])N([H])C(=O)N3C([H])([H])C([H])([H])C([H])([H])C([H])(n4nc(-c5c([H])c([H])c(Oc6c([H])c([H])c(F)c([H])c6F)c([H])c5[H])c(C(=O)N([H])[H])c4N([H])[H])C3([H])[H])c([H])c([H])c2C1([H])[H]

$$$$
64:0:0
     RDKit          3D

 94102  0  0  1  0  0  0  0  0999 V2000
  -27.0450  -20.7090   20.1710 C   0  0  0  0  0  2  0  0  0  0  0  0
  -29.3600  -20.8970   20.6970 C   0  0  0  0  0  2  0  0  0  0  0  0
  -27.0580  -22.1390   19.6080 C   0  0  0  0  0  2  0  0  0  0  0  0
  -29.3570  -22.3540   20.1660 C   0  0  0  0  0  2  0  0  0  0  0  0
  -28.3510  -20.0550   20.0250 N   0  0  0  0  0  0  0  0  0  0  0  0
  -28.0350  -22.9830   20.3040 N   0  0  0  0  0  0  0  0  0  0  0  0
  -28.2670  -18.6770   20.5310 C   0  0  0  0  0  2  0  0  0  0  0  0
  -29.4450  -17.7420   20.1950 C   0  0  0  0  0  2  0  0  0  0  0  0
  -30.5530  -17.8700   21.1630 N   0  0  0  0  0  4  0  0  0  0  0  0
  -30.2260  -17.6720   22.0960 H   0  0  0  0  0  0  0  0  0  0  0  0
  -30.8450  -18.8320   21.1440 H   0  0  0  0  0  0  0  0  0  0  0  0
  -31.7520  -17.0490   20.8810 C   0  0  0  0  0  2  0  0  0  0  0  0
  -31.7580  -15.6800   21.5990 C   0  0  0  0  0  2  0  0  0  0  0  0
  -30.9550  -13.9930   19.9540 C   0  0  0  0  0  0  0  0  0  0  0  0
  -30.4450  -11.8270   18.8970 C   0  0  0  0  0  2  0  0  0  0  0  0
  -29.4130  -11.9210   17.7620 C   0  0  0  0  0  2  0  0  0  0  0  0
  -27.9830  -11.8280   18.3210 C   0  0  0  0  0  2  0  0  0  0  0  0
  -27.7440  -12.8120   19.4940 C   0  0  0  0  0  3  0  0  0  0  0  0
  -28.8720  -12.7040   20.5460 C   0  0  0  0  0  2  0  0  0  0  0  0
  -30.1730  -12.8900   19.8730 N   0  0  0  0  0  0  0  0  0  0  0  0
  -31.8450  -14.2650   19.1450 O   0  0  0  0  0  0  0  0  0  0  0  0
  -30.7990  -14.7030   21.0790 N   0  0  0  0  0  0  0  0  0  0  0  0
  -30.0810  -14.3790   21.7100 H   0  0  0  0  0  0  0  0  0  0  0  0
  -25.4590  -13.5460   20.4300 C   0  0  0  0  0  0  0  0  0  0  0  0
  -24.3890  -12.8290   20.8950 C   0  0  0  0  0  0  0  0  0  0  0  0
  -24.7660  -11.4550   20.8090 C   0  0  0  0  0  0  0  0  0  0  0  0
  -26.4270  -12.6100   20.0960 N   0  0  0  0  0  0  0  0  0  0  0  0
  -26.0160  -11.3470   20.3780 N   0  0  0  0  0  0  0  0  0  0  0  0
  -23.9920  -10.2330   21.0570 C   0  0  0  0  0  0  0  0  0  0  0  0
  -24.4120   -9.2720   22.0020 C   0  0  0  0  0  3  0  0  0  0  0  0
  -23.6400   -8.1120   22.2360 C   0  0  0  0  0  3  0  0  0  0  0  0
  -22.4340   -7.9070   21.5240 C   0  0  0  0  0  0  0  0  0  0  0  0
  -22.0320   -8.8570   20.5670 C   0  0  0  0  0  3  0  0  0  0  0  0
  -22.8040  -10.0070   20.3330 C   0  0  0  0  0  3  0  0  0  0  0  0
  -21.6340   -6.8000   21.6670 O   0  0  0  0  0  0  0  0  0  0  0  0
  -21.5610   -6.1120   22.8520 C   0  0  0  0  0  0  0  0  0  0  0  0
  -21.1390   -6.7310   24.0480 C   0  0  0  0  0  3  0  0  0  0  0  0
  -21.0120   -5.9700   25.2270 C   0  0  0  0  0  3  0  0  0  0  0  0
  -21.2960   -4.5910   25.2110 C   0  0  0  0  0  0  0  0  0  0  0  0
  -21.7120   -3.9720   24.0190 C   0  0  0  0  0  3  0  0  0  0  0  0
  -21.8410   -4.7310   22.8420 C   0  0  0  0  0  0  0  0  0  0  0  0
  -22.2210   -4.1240   21.6920 F   0  0  0  0  0  0  0  0  0  0  0  0
  -21.1670   -3.8590   26.3420 F   0  0  0  0  0  0  0  0  0  0  0  0
  -23.0520  -13.3810   21.3030 C   0  0  0  0  0  0  0  0  0  0  0  0
  -22.3720  -12.7150   22.2310 N   0  0  0  0  0  0  0  0  0  0  0  0
  -22.6250  -14.4350   20.8350 O   0  0  0  0  0  0  0  0  0  0  0  0
  -22.7320  -11.8620   22.6310 H   0  0  0  0  0  0  0  0  0  0  0  0
  -21.4790  -13.0660   22.5470 H   0  0  0  0  0  0  0  0  0  0  0  0
  -25.6830  -14.9070   20.2450 N   0  0  0  0  0  0  0  0  0  0  0  0
  -24.9590  -15.5960   20.4100 H   0  0  0  0  0  0  0  0  0  0  0  0
  -26.5030  -15.2900   19.7930 H   0  0  0  0  0  0  0  0  0  0  0  0
  -27.9900  -24.3510   19.7780 C   0  0  0  0  0  2  0  0  0  0  0  0
  -28.4900  -25.4650   20.7310 C   0  0  0  0  0  2  0  0  0  0  0  0
  -28.5100  -26.7780   20.1500 O   0  0  0  0  0  0  0  0  0  0  0  0
  -24.6230  -31.8760   23.2770 C   0  0  0  0  0  0  0  0  0  0  0  0
  -27.3290  -27.4860   20.1800 C   0  0  0  0  0  0  0  0  0  0  0  0
  -23.4420  -30.4770   21.6150 C   0  0  0  0  0  3  0  0  0  0  0  0
  -24.9210  -28.9680   20.1950 C   0  0  0  0  0  0  0  0  0  0  0  0
  -25.9660  -30.8590   21.4440 C   0  0  0  0  0  2  0  0  0  0  0  0
  -26.0690  -29.4920   20.7990 C   0  0  0  0  0  0  0  0  0  0  0  0
  -27.2780  -28.7580   20.7940 C   0  0  0  0  0  3  0  0  0  0  0  0
  -26.1670  -26.9940   19.5460 C   0  0  0  0  0  3  0  0  0  0  0  0
  -24.9630  -27.7150   19.5670 C   0  0  0  0  0  3  0  0  0  0  0  0
  -23.6690  -29.8120   20.2330 C   0  0  0  0  0  2  0  0  0  0  0  0
  -24.6950  -31.0850   22.1700 N   0  0  0  0  0  0  0  0  0  0  0  0
  -23.5360  -32.1360   23.8090 O   0  0  0  0  0  0  0  0  0  0  0  0
  -22.7940  -29.4410   22.5610 C   0  0  0  0  0  0  0  0  0  0  0  0
  -21.4720  -29.2530   22.4250 N   0  0  0  0  0  0  0  0  0  0  0  0
  -23.4790  -28.8100   23.3710 O   0  0  0  0  0  0  0  0  0  0  0  0
  -20.9820  -29.8140   21.7420 H   0  0  0  0  0  0  0  0  0  0  0  0
  -18.0980  -28.0520   22.9020 C   0  0  0  0  0  0  0  0  0  0  0  0
  -20.6540  -28.3040   23.1790 C   0  0  0  0  0  3  0  0  0  0  0  0
  -20.7570  -26.8820   22.5830 C   0  0  0  0  0  2  0  0  0  0  0  0
  -19.6560  -26.5720   21.5640 C   0  0  0  0  0  2  0  0  0  0  0  0
  -18.2720  -26.7110   22.2080 C   0  0  0  0  0  2  0  0  0  0  0  0
  -19.2160  -28.8070   23.3420 C   0  0  0  0  0  0  0  0  0  0  0  0
  -18.9980  -30.0640   23.9470 C   0  0  0  0  0  3  0  0  0  0  0  0
  -17.6950  -30.5650   24.1170 C   0  0  0  0  0  3  0  0  0  0  0  0
  -16.5890  -29.8050   23.6930 C   0  0  0  0  0  3  0  0  0  0  0  0
  -16.7920  -28.5500   23.0920 C   0  0  0  0  0  3  0  0  0  0  0  0
  -25.8980  -32.5150   23.9110 C   0  0  0  0  0  3  0  0  0  0  0  0
  -25.5840  -33.9170   24.2140 N   0  0  0  0  0  0  0  0  0  0  0  0
  -25.9190  -34.9570   23.4370 C   0  0  0  0  0  0  0  0  0  0  0  0
  -26.5950  -34.8350   22.4120 O   0  0  0  0  0  0  0  0  0  0  0  0
  -24.9900  -34.0870   25.0130 H   0  0  0  0  0  0  0  0  0  0  0  0
  -24.1840  -36.7320   23.0440 C   0  0  0  0  0  1  0  0  0  0  0  0
  -25.4240  -36.3500   23.8670 C   0  0  0  0  0  3  0  0  0  0  0  0
  -27.5510  -37.2600   24.6890 C   0  0  0  0  0  1  0  0  0  0  0  0
  -26.4530  -37.4050   23.7380 N   0  0  0  0  0  0  0  0  0  0  0  0
  -26.0410  -38.3270   23.8650 H   0  0  0  0  0  0  0  0  0  0  0  0
  -26.3930  -31.7600   25.2050 C   0  0  1  0  0  0  0  0  0  0  0  0
  -25.2810  -31.5310   26.2560 C   0  0  0  0  0  1  0  0  0  0  0  0
  -26.9910  -30.3830   24.8370 C   0  0  0  0  0  1  0  0  0  0  0  0
  -27.5300  -32.5660   25.8790 C   0  0  0  0  0  1  0  0  0  0  0  0
  3  1  1  0
  3  6  1  0
  4  6  1  0
  4  2  1  0
  5  1  1  0
  5  7  1  0
  5  2  1  0
  8  7  1  0
  8  9  1  0
  9 10  1  0
 11  9  1  0
 12  9  1  0
 12 13  1  0
 14 22  1  0
 15 20  1  0
 16 17  1  0
 16 15  1  0
 18 17  1  0
 18 27  1  0
 18 19  1  0
 20 14  1  0
 20 19  1  0
 21 14  2  0
 22 13  1  0
 22 23  1  0
 24 25  2  0
 25 44  1  0
 26 25  1  0
 26 29  1  0
 27 28  1  0
 27 24  1  0
 28 26  2  0
 29 30  1  0
 30 31  2  0
 32 35  1  0
 32 31  1  0
 33 32  2  0
 34 33  1  0
 34 29  2  0
 35 36  1  0
 36 37  1  0
 37 38  2  0
 39 38  1  0
 39 43  1  0
 40 39  2  0
 41 36  2  0
 41 40  1  0
 42 41  1  0
 44 45  1  0
 45 48  1  0
 45 47  1  0
 46 44  2  0
 49 50  1  0
 49 24  1  0
 51 49  1  0
 52  6  1  0
 52 53  1  0
 54 56  1  0
 54 53  1  0
 55 66  2  0
 56 61  1  0
 57 65  1  0
 57 67  1  0
 58 64  1  0
 58 60  1  0
 59 65  1  0
 60 59  1  0
 61 60  2  0
 62 63  1  0
 62 56  2  0
 63 58  2  0
 64 57  1  0
 65 55  1  0
 67 69  2  0
 68 67  1  0
 70 68  1  0
 71 80  2  0
 71 76  1  0
 72 68  1  0
 72 76  1  0
 73 72  1  0
 74 75  1  0
 74 73  1  0
 75 71  1  0
 76 77  2  0
 77 78  1  0
 79 78  2  0
 80 79  1  0
 81 55  1  0
 81 82  1  0
 81 91  1  0
 82 85  1  0
 83 87  1  0
 83 82  1  0
 84 83  2  0
 87 86  1  0
 89 90  1  0
 89 87  1  0
 89 88  1  0
 91 94  1  1
 91 92  1  0
 93 91  1  0
M  ISO  4  14 100  22 100  53 101  54 101
M  END
>  <TORSDO>  (62) 
F 23

>  <SCORE>  (62) 
-11.415

>  <name>  (62) 
64

>  <ligand_id>  (62) 
64

>  <original_smiles>  (62) 
[H]c1c([H])c([H])c2c(c1[H])C([H])([H])C([H])([H])C([H])([H])C2([H])N([H])C(=O)C1([H])N(C(=O)C([H])(N([H])C(=O)C([H])(N([H])C([H])([H])[H])C([H])([H])[H])C(C([H])([H])[H])(C([H])([H])[H])C([H])([H])[H])C([H])([H])c2c([H])c(OC([H])([H])C([H])([H])N3C([H])([H])C([H])([H])N(C([H])([H])C([H])([H])[N+]([H])([H])C([H])([H])C([H])([H])N([H])C(=O)N4C([H])([H])C([H])([H])C([H])([H])C([H])(n5nc(-c6c([H])c([H])c(Oc7c([H])c([H])c(F)c([H])c7F)c([H])c6[H])c(C(=O)N([H])[H])c5N([H])[H])C4([H])[H])C([H])([H])C3([H])[H])c([H])c([H])c2C1([H])[H]

>  <smiles>  (62) 
[H]c1c([H])c([H])c2c(c1[H])C([H])([H])C([H])([H])C([H])([H])C2([H])N([H])C(=O)C1([H])N(C(=O)C([H])(N([H])C(=O)C([H])(N([H])C([H])([H])[H])C([H])([H])[H])C(C([H])([H])[H])(C([H])([H])[H])C([H])([H])[H])C([H])([H])c2c([H])c(OC([H])([H])C([H])([H])N3C([H])([H])C([H])([H])N(C([H])([H])C([H])([H])[N+]([H])([H])C([H])([H])C([H])([H])N([H])C(=O)N4C([H])([H])C([H])([H])C([H])([H])C([H])(n5nc(-c6c([H])c([H])c(Oc7c([H])c([H])c(F)c([H])c7F)c([H])c6[H])c(C(=O)N([H])[H])c5N([H])[H])C4([H])[H])C([H])([H])C3([H])[H])c([H])c([H])c2C1([H])[H]

$$$$
65:0:0
     RDKit          3D

 97104  0  0  1  0  0  0  0  0999 V2000
  -28.8590  -21.9990   16.4570 C   0  0  0  0  0  2  0  0  0  0  0  0
  -28.4610  -21.3140   17.7750 C   0  0  0  0  0  2  0  0  0  0  0  0
  -29.4460  -20.2860   18.0800 N   0  0  0  0  0  0  0  0  0  0  0  0
  -30.3690  -20.7170   18.0990 H   0  0  0  0  0  0  0  0  0  0  0  0
  -29.1840  -19.6640   19.3750 C   0  0  0  0  0  2  0  0  0  0  0  0
  -30.4950  -19.0810   19.9440 C   0  0  0  0  0  2  0  0  0  0  0  0
  -30.2650  -17.9060   20.8060 N   0  0  0  0  0  4  0  0  0  0  0  0
  -29.6370  -18.1640   21.5500 H   0  0  0  0  0  0  0  0  0  0  0  0
  -29.8280  -17.1880   20.2550 H   0  0  0  0  0  0  0  0  0  0  0  0
  -31.5090  -17.3670   21.3960 C   0  0  0  0  0  2  0  0  0  0  0  0
  -31.2820  -16.0900   22.2340 C   0  0  0  0  0  2  0  0  0  0  0  0
  -30.8260  -14.3850   20.4780 C   0  0  0  0  0  0  0  0  0  0  0  0
  -30.3230  -12.4810   18.9950 C   0  0  0  0  0  2  0  0  0  0  0  0
  -29.3350  -12.8610   17.8770 C   0  0  0  0  0  2  0  0  0  0  0  0
  -27.8820  -12.7170   18.3620 C   0  0  0  0  0  2  0  0  0  0  0  0
  -27.6310  -13.4100   19.7270 C   0  0  0  0  0  3  0  0  0  0  0  0
  -28.7210  -13.0200   20.7500 C   0  0  0  0  0  2  0  0  0  0  0  0
  -30.0420  -13.3210   20.1670 N   0  0  0  0  0  0  0  0  0  0  0  0
  -31.8240  -14.7080   19.8310 O   0  0  0  0  0  0  0  0  0  0  0  0
  -30.4670  -15.0680   21.5710 N   0  0  0  0  0  0  0  0  0  0  0  0
  -29.6470  -14.7340   22.0580 H   0  0  0  0  0  0  0  0  0  0  0  0
  -25.2450  -13.9970   20.4980 C   0  0  0  0  0  0  0  0  0  0  0  0
  -24.1880  -13.2150   20.8760 C   0  0  0  0  0  0  0  0  0  0  0  0
  -24.6510  -11.8650   20.8020 C   0  0  0  0  0  0  0  0  0  0  0  0
  -26.2880  -13.1250   20.2280 N   0  0  0  0  0  0  0  0  0  0  0  0
  -25.9340  -11.8370   20.4650 N   0  0  0  0  0  0  0  0  0  0  0  0
  -23.9310  -10.5970   20.9800 C   0  0  0  0  0  0  0  0  0  0  0  0
  -24.3230   -9.6550   21.9570 C   0  0  0  0  0  3  0  0  0  0  0  0
  -23.6040   -8.4510   22.1190 C   0  0  0  0  0  3  0  0  0  0  0  0
  -22.4790   -8.1800   21.3030 C   0  0  0  0  0  0  0  0  0  0  0  0
  -22.1080   -9.1110   20.3180 C   0  0  0  0  0  3  0  0  0  0  0  0
  -22.8270  -10.3070   20.1540 C   0  0  0  0  0  3  0  0  0  0  0  0
  -21.7370   -7.0260   21.3750 O   0  0  0  0  0  0  0  0  0  0  0  0
  -21.5860   -6.3380   22.5520 C   0  0  0  0  0  0  0  0  0  0  0  0
  -20.9500   -6.9120   23.6740 C   0  0  0  0  0  3  0  0  0  0  0  0
  -20.7540   -6.1450   24.8400 C   0  0  0  0  0  3  0  0  0  0  0  0
  -21.1820   -4.8050   24.8830 C   0  0  0  0  0  0  0  0  0  0  0  0
  -21.8120   -4.2310   23.7650 C   0  0  0  0  0  3  0  0  0  0  0  0
  -22.0090   -4.9940   22.6000 C   0  0  0  0  0  0  0  0  0  0  0  0
  -22.5960   -4.4280   21.5170 F   0  0  0  0  0  0  0  0  0  0  0  0
  -20.9890   -4.0650   25.9990 F   0  0  0  0  0  0  0  0  0  0  0  0
  -22.7970  -13.6820   21.1930 C   0  0  0  0  0  0  0  0  0  0  0  0
  -22.0820  -12.9510   22.0440 N   0  0  0  0  0  0  0  0  0  0  0  0
  -22.3500  -14.7280   20.7240 O   0  0  0  0  0  0  0  0  0  0  0  0
  -22.4560  -12.1040   22.4460 H   0  0  0  0  0  0  0  0  0  0  0  0
  -21.1500  -13.2460   22.2990 H   0  0  0  0  0  0  0  0  0  0  0  0
  -25.3990  -15.3720   20.3380 N   0  0  0  0  0  0  0  0  0  0  0  0
  -24.6180  -16.0100   20.4440 H   0  0  0  0  0  0  0  0  0  0  0  0
  -26.2200  -15.8110   19.9450 H   0  0  0  0  0  0  0  0  0  0  0  0
  -28.3690  -23.4520   16.2890 C   0  0  0  0  0  2  0  0  0  0  0  0
  -29.1740  -24.4190   17.0730 N   0  0  0  0  0  4  0  0  0  0  0  0
  -29.3120  -25.2260   16.4850 H   0  0  0  0  0  0  0  0  0  0  0  0
  -30.0880  -24.0330   17.2480 H   0  0  0  0  0  0  0  0  0  0  0  0
  -28.5630  -24.9090   18.3280 C   0  0  0  0  0  2  0  0  0  0  0  0
  -29.5490  -24.8760   19.5130 C   0  0  0  0  0  2  0  0  0  0  0  0
  -28.9440  -25.3660   20.8440 C   0  0  0  0  0  2  0  0  0  0  0  0
  -28.8530  -26.7890   20.8940 O   0  0  0  0  0  0  0  0  0  0  0  0
  -24.7480  -31.9940   23.4340 C   0  0  0  0  0  0  0  0  0  0  0  0
  -27.6280  -27.4140   20.8080 C   0  0  0  0  0  0  0  0  0  0  0  0
  -23.6570  -30.4720   21.8160 C   0  0  0  0  0  3  0  0  0  0  0  0
  -25.2070  -28.8620   20.5930 C   0  0  0  0  0  0  0  0  0  0  0  0
  -26.1820  -30.8550   21.7430 C   0  0  0  0  0  2  0  0  0  0  0  0
  -26.3210  -29.4470   21.2060 C   0  0  0  0  0  0  0  0  0  0  0  0
  -27.5310  -28.7330   21.3060 C   0  0  0  0  0  3  0  0  0  0  0  0
  -26.4860  -26.8240   20.2180 C   0  0  0  0  0  3  0  0  0  0  0  0
  -25.2810  -27.5480   20.1020 C   0  0  0  0  0  3  0  0  0  0  0  0
  -23.9540  -29.7020   20.5030 C   0  0  0  0  0  2  0  0  0  0  0  0
  -24.8770  -31.1250   22.3920 N   0  0  0  0  0  0  0  0  0  0  0  0
  -23.6340  -32.2930   23.8830 O   0  0  0  0  0  0  0  0  0  0  0  0
  -22.9550  -29.5110   22.8020 C   0  0  0  0  0  0  0  0  0  0  0  0
  -21.6520  -29.2790   22.5840 N   0  0  0  0  0  0  0  0  0  0  0  0
  -23.5850  -28.9700   23.7150 O   0  0  0  0  0  0  0  0  0  0  0  0
  -21.2050  -29.7640   21.8180 H   0  0  0  0  0  0  0  0  0  0  0  0
  -18.2760  -28.0350   22.9120 C   0  0  0  0  0  0  0  0  0  0  0  0
  -20.8000  -28.3760   23.3550 C   0  0  0  0  0  3  0  0  0  0  0  0
  -20.9760  -26.9110   22.8920 C   0  0  0  0  0  2  0  0  0  0  0  0
  -19.9600  -26.4900   21.8240 C   0  0  0  0  0  2  0  0  0  0  0  0
  -18.5300  -26.6460   22.3490 C   0  0  0  0  0  2  0  0  0  0  0  0
  -19.3440  -28.8540   23.3680 C   0  0  0  0  0  0  0  0  0  0  0  0
  -19.0540  -30.1500   23.8470 C   0  0  0  0  0  3  0  0  0  0  0  0
  -17.7320  -30.6300   23.8760 C   0  0  0  0  0  3  0  0  0  0  0  0
  -16.6780  -29.8120   23.4360 C   0  0  0  0  0  3  0  0  0  0  0  0
  -16.9500  -28.5160   22.9610 C   0  0  0  0  0  3  0  0  0  0  0  0
  -25.9890  -32.6770   24.0890 C   0  0  0  0  0  3  0  0  0  0  0  0
  -25.6380  -34.0820   24.3440 N   0  0  0  0  0  0  0  0  0  0  0  0
  -25.9710  -35.1020   23.5430 C   0  0  0  0  0  0  0  0  0  0  0  0
  -26.6710  -34.9640   22.5370 O   0  0  0  0  0  0  0  0  0  0  0  0
  -25.0150  -34.2610   25.1180 H   0  0  0  0  0  0  0  0  0  0  0  0
  -24.2080  -36.8260   23.0520 C   0  0  0  0  0  1  0  0  0  0  0  0
  -25.4380  -36.4990   23.9150 C   0  0  0  0  0  3  0  0  0  0  0  0
  -27.5210  -37.4910   24.7580 C   0  0  0  0  0  1  0  0  0  0  0  0
  -26.4470  -37.5700   23.7710 N   0  0  0  0  0  0  0  0  0  0  0  0
  -26.0140  -38.4860   23.8510 H   0  0  0  0  0  0  0  0  0  0  0  0
  -26.4600  -31.9720   25.4220 C   0  0  1  0  0  0  0  0  0  0  0  0
  -25.3150  -31.7330   26.4340 C   0  0  0  0  0  1  0  0  0  0  0  0
  -27.1110  -30.6030   25.1100 C   0  0  0  0  0  1  0  0  0  0  0  0
  -27.5420  -32.8320   26.1150 C   0  0  0  0  0  1  0  0  0  0  0  0
  1  2  1  0
  2  3  1  0
  3  4  1  0
  3  5  1  0
  5  6  1  0
  6  7  1  0
  7 10  1  0
  7  8  1  0
  9  7  1  0
 10 11  1  0
 12 20  1  0
 13 18  1  0
 14 15  1  0
 14 13  1  0
 16 15  1  0
 16 25  1  0
 16 17  1  0
 18 12  1  0
 18 17  1  0
 19 12  2  0
 20 21  1  0
 20 11  1  0
 22 23  2  0
 23 42  1  0
 24 23  1  0
 24 27  1  0
 25 26  1  0
 25 22  1  0
 26 24  2  0
 27 28  1  0
 28 29  2  0
 30 33  1  0
 30 29  1  0
 31 30  2  0
 32 31  1  0
 32 27  2  0
 33 34  1  0
 34 39  2  0
 34 35  1  0
 35 36  2  0
 36 37  1  0
 37 41  1  0
 38 37  2  0
 39 38  1  0
 40 39  1  0
 42 43  1  0
 43 46  1  0
 43 45  1  0
 44 42  2  0
 47 48  1  0
 47 22  1  0
 49 47  1  0
 50  1  1  0
 50 51  1  0
 51 53  1  0
 51 54  1  0
 52 51  1  0
 54 55  1  0
 55 56  1  0
 56 57  1  0
 58 69  2  0
 59 57  1  0
 59 64  1  0
 60 68  1  0
 60 70  1  0
 61 63  1  0
 62 68  1  0
 63 64  2  0
 63 62  1  0
 65 59  2  0
 66 65  1  0
 66 61  2  0
 67 61  1  0
 67 60  1  0
 68 58  1  0
 70 72  2  0
 71 70  1  0
 73 71  1  0
 74 83  2  0
 74 79  1  0
 75 71  1  0
 75 79  1  0
 76 75  1  0
 77 78  1  0
 77 76  1  0
 78 74  1  0
 79 80  2  0
 80 81  1  0
 82 81  2  0
 83 82  1  0
 84 58  1  0
 84 85  1  0
 84 94  1  0
 85 88  1  0
 86 90  1  0
 86 85  1  0
 87 86  2  0
 90 89  1  0
 92 93  1  0
 92 90  1  0
 92 91  1  0
 94 97  1  1
 94 95  1  0
 96 94  1  0
M  ISO  4  12 100  20 100  56 101  57 101
M  END
>  <TORSDO>  (63) 
F 28

>  <SCORE>  (63) 
-9.898

>  <name>  (63) 
65

>  <ligand_id>  (63) 
65

>  <original_smiles>  (63) 
[H]c1c([H])c([H])c2c(c1[H])C([H])([H])C([H])([H])C([H])([H])C2([H])N([H])C(=O)C1([H])N(C(=O)C([H])(N([H])C(=O)C([H])(N([H])C([H])([H])[H])C([H])([H])[H])C(C([H])([H])[H])(C([H])([H])[H])C([H])([H])[H])C([H])([H])c2c([H])c(OC([H])([H])C([H])([H])C([H])([H])[N+]([H])([H])C([H])([H])C([H])([H])C([H])([H])N([H])C([H])([H])C([H])([H])[N+]([H])([H])C([H])([H])C([H])([H])N([H])C(=O)N3C([H])([H])C([H])([H])C([H])([H])C([H])(n4nc(-c5c([H])c([H])c(Oc6c([H])c([H])c(F)c([H])c6F)c([H])c5[H])c(C(=O)N([H])[H])c4N([H])[H])C3([H])[H])c([H])c([H])c2C1([H])[H]

>  <smiles>  (63) 
[H]c1c([H])c([H])c2c(c1[H])C([H])([H])C([H])([H])C([H])([H])C2([H])N([H])C(=O)C1([H])N(C(=O)C([H])(N([H])C(=O)C([H])(N([H])C([H])([H])[H])C([H])([H])[H])C(C([H])([H])[H])(C([H])([H])[H])C([H])([H])[H])C([H])([H])c2c([H])c(OC([H])([H])C([H])([H])C([H])([H])[N+]([H])([H])C([H])([H])C([H])([H])C([H])([H])N([H])C([H])([H])C([H])([H])[N+]([H])([H])C([H])([H])C([H])([H])N([H])C(=O)N3C([H])([H])C([H])([H])C([H])([H])C([H])(n4nc(-c5c([H])c([H])c(Oc6c([H])c([H])c(F)c([H])c6F)c([H])c5[H])c(C(=O)N([H])[H])c4N([H])[H])C3([H])[H])c([H])c([H])c2C1([H])[H]

$$$$
66:0:0
     RDKit          3D

 95102  0  0  1  0  0  0  0  0999 V2000
  -29.7630  -21.6390   20.5200 C   0  0  0  0  0  2  0  0  0  0  0  0
  -30.6370  -20.5250   21.1300 C   0  0  0  0  0  2  0  0  0  0  0  0
  -30.4050  -18.0270   21.2650 C   0  0  0  0  0  0  0  0  0  0  0  0
  -29.9410  -19.2530   20.9980 N   0  0  0  0  0  0  0  0  0  0  0  0
  -31.4420  -17.8050   21.8910 O   0  0  0  0  0  0  0  0  0  0  0  0
  -29.0500  -19.2860   20.5200 H   0  0  0  0  0  0  0  0  0  0  0  0
  -29.5620  -16.8990   20.6530 C   0  0  0  0  0  0  0  0  0  0  0  0
  -30.5530  -14.6070   21.1720 C   0  0  0  0  0  0  0  0  0  0  0  0
  -30.5020  -12.3620   20.1870 C   0  0  0  0  0  2  0  0  0  0  0  0
  -29.6800  -12.4620   18.8840 C   0  0  0  0  0  2  0  0  0  0  0  0
  -28.1650  -12.3270   19.1630 C   0  0  0  0  0  2  0  0  0  0  0  0
  -27.6730  -13.1860   20.3630 C   0  0  0  0  0  3  0  0  0  0  0  0
  -28.6260  -13.0400   21.5720 C   0  0  0  0  0  2  0  0  0  0  0  0
  -29.9880  -13.3740   21.1160 N   0  0  0  0  0  0  0  0  0  0  0  0
  -31.7310  -14.8280   20.8830 O   0  0  0  0  0  0  0  0  0  0  0  0
  -29.6450  -15.5830   21.3080 N   0  0  0  0  0  4  0  0  0  0  0  0
  -28.7650  -15.2550   21.6680 H   0  0  0  0  0  0  0  0  0  0  0  0
  -25.2120  -13.7400   20.8820 C   0  0  0  0  0  0  0  0  0  0  0  0
  -24.1340  -12.9400   21.1480 C   0  0  0  0  0  0  0  0  0  0  0  0
  -24.6260  -11.6000   21.1310 C   0  0  0  0  0  0  0  0  0  0  0  0
  -26.2910  -12.8820   20.7210 N   0  0  0  0  0  0  0  0  0  0  0  0
  -25.9370  -11.5910   20.9260 N   0  0  0  0  0  0  0  0  0  0  0  0
  -23.9170  -10.3200   21.2410 C   0  0  0  0  0  0  0  0  0  0  0  0
  -24.3310   -9.3240   22.1530 C   0  0  0  0  0  3  0  0  0  0  0  0
  -23.6250   -8.1070   22.2520 C   0  0  0  0  0  3  0  0  0  0  0  0
  -22.4910   -7.8760   21.4380 C   0  0  0  0  0  0  0  0  0  0  0  0
  -22.0970   -8.8610   20.5140 C   0  0  0  0  0  3  0  0  0  0  0  0
  -22.8040  -10.0700   20.4140 C   0  0  0  0  0  3  0  0  0  0  0  0
  -21.7580   -6.7130   21.4480 O   0  0  0  0  0  0  0  0  0  0  0  0
  -21.7090   -5.9050   22.5540 C   0  0  0  0  0  0  0  0  0  0  0  0
  -21.2550   -6.3760   23.8060 C   0  0  0  0  0  3  0  0  0  0  0  0
  -21.1570   -5.4910   24.8980 C   0  0  0  0  0  3  0  0  0  0  0  0
  -21.5000   -4.1350   24.7400 C   0  0  0  0  0  0  0  0  0  0  0  0
  -21.9470   -3.6630   23.4930 C   0  0  0  0  0  3  0  0  0  0  0  0
  -22.0480   -4.5460   22.4040 C   0  0  0  0  0  0  0  0  0  0  0  0
  -22.4590   -4.0810   21.1990 F   0  0  0  0  0  0  0  0  0  0  0  0
  -21.3990   -3.2810   25.7860 F   0  0  0  0  0  0  0  0  0  0  0  0
  -22.7080  -13.3840   21.3130 C   0  0  0  0  0  0  0  0  0  0  0  0
  -21.9320  -12.6580   22.1120 N   0  0  0  0  0  0  0  0  0  0  0  0
  -22.2860  -14.4030   20.7700 O   0  0  0  0  0  0  0  0  0  0  0  0
  -22.2830  -11.8330   22.5740 H   0  0  0  0  0  0  0  0  0  0  0  0
  -20.9710  -12.9310   22.2600 H   0  0  0  0  0  0  0  0  0  0  0  0
  -25.3590  -15.1170   20.7430 N   0  0  0  0  0  0  0  0  0  0  0  0
  -24.5620  -15.7420   20.7890 H   0  0  0  0  0  0  0  0  0  0  0  0
  -26.2110  -15.5800   20.4550 H   0  0  0  0  0  0  0  0  0  0  0  0
  -30.8130  -16.4700   18.3750 C   0  0  0  0  0  1  0  0  0  0  0  0
  -28.2760  -16.2910   18.4600 C   0  0  0  0  0  1  0  0  0  0  0  0
  -29.5280  -16.9250   19.0850 C   0  0  0  0  0  3  0  0  0  0  0  0
  -30.4600  -23.0030   20.3660 C   0  0  0  0  0  2  0  0  0  0  0  0
  -29.4980  -24.0350   19.9160 N   0  0  0  0  0  4  0  0  0  0  0  0
  -28.9270  -24.3090   20.7020 H   0  0  0  0  0  0  0  0  0  0  0  0
  -28.8890  -23.6190   19.2280 H   0  0  0  0  0  0  0  0  0  0  0  0
  -30.1070  -25.2490   19.3280 C   0  0  0  0  0  2  0  0  0  0  0  0
  -29.0380  -26.2940   18.9590 C   0  0  0  0  0  2  0  0  0  0  0  0
  -28.5410  -26.8540   20.1710 O   0  0  0  0  0  0  0  0  0  0  0  0
  -24.6470  -31.9220   23.2370 C   0  0  0  0  0  0  0  0  0  0  0  0
  -27.3510  -27.5430   20.1270 C   0  0  0  0  0  0  0  0  0  0  0  0
  -23.4530  -30.5070   21.5910 C   0  0  0  0  0  3  0  0  0  0  0  0
  -24.9240  -28.9910   20.1590 C   0  0  0  0  0  0  0  0  0  0  0  0
  -25.9690  -30.9000   21.3920 C   0  0  0  0  0  2  0  0  0  0  0  0
  -26.0700  -29.5320   20.7520 C   0  0  0  0  0  0  0  0  0  0  0  0
  -27.2800  -28.8060   20.7500 C   0  0  0  0  0  3  0  0  0  0  0  0
  -26.1860  -27.0000   19.5400 C   0  0  0  0  0  3  0  0  0  0  0  0
  -24.9740  -27.7200   19.5560 C   0  0  0  0  0  3  0  0  0  0  0  0
  -23.6650  -29.8280   20.2110 C   0  0  0  0  0  2  0  0  0  0  0  0
  -24.7070  -31.1240   22.1330 N   0  0  0  0  0  0  0  0  0  0  0  0
  -23.5650  -32.1810   23.7810 O   0  0  0  0  0  0  0  0  0  0  0  0
  -22.8150  -29.4800   22.5540 C   0  0  0  0  0  0  0  0  0  0  0  0
  -21.4920  -29.2890   22.4310 N   0  0  0  0  0  0  0  0  0  0  0  0
  -23.5080  -28.8580   23.3630 O   0  0  0  0  0  0  0  0  0  0  0  0
  -20.9950  -29.8420   21.7460 H   0  0  0  0  0  0  0  0  0  0  0  0
  -18.1280  -28.0740   22.9360 C   0  0  0  0  0  0  0  0  0  0  0  0
  -20.6850  -28.3430   23.2000 C   0  0  0  0  0  3  0  0  0  0  0  0
  -20.7920  -26.9150   22.6170 C   0  0  0  0  0  2  0  0  0  0  0  0
  -19.6890  -26.5930   21.6050 C   0  0  0  0  0  2  0  0  0  0  0  0
  -18.3090  -26.7290   22.2550 C   0  0  0  0  0  2  0  0  0  0  0  0
  -19.2450  -28.8390   23.3660 C   0  0  0  0  0  0  0  0  0  0  0  0
  -19.0220  -30.1010   23.9610 C   0  0  0  0  0  3  0  0  0  0  0  0
  -17.7160  -30.5960   24.1320 C   0  0  0  0  0  3  0  0  0  0  0  0
  -16.6140  -29.8270   23.7210 C   0  0  0  0  0  3  0  0  0  0  0  0
  -16.8210  -28.5690   23.1280 C   0  0  0  0  0  3  0  0  0  0  0  0
  -25.9300  -32.5630   23.8540 C   0  0  0  0  0  3  0  0  0  0  0  0
  -25.6100  -33.9580   24.1860 N   0  0  0  0  0  0  0  0  0  0  0  0
  -25.9390  -35.0130   23.4300 C   0  0  0  0  0  0  0  0  0  0  0  0
  -26.6130  -34.9170   22.4020 O   0  0  0  0  0  0  0  0  0  0  0  0
  -25.0080  -34.1070   24.9830 H   0  0  0  0  0  0  0  0  0  0  0  0
  -24.1970  -36.7930   23.0690 C   0  0  0  0  0  1  0  0  0  0  0  0
  -25.4370  -36.3970   23.8870 C   0  0  0  0  0  3  0  0  0  0  0  0
  -27.5620  -37.2940   24.7290 C   0  0  0  0  0  1  0  0  0  0  0  0
  -26.4610  -37.4590   23.7830 N   0  0  0  0  0  0  0  0  0  0  0  0
  -26.0470  -38.3750   23.9370 H   0  0  0  0  0  0  0  0  0  0  0  0
  -26.4610  -31.7940   25.1250 C   0  0  1  0  0  0  0  0  0  0  0  0
  -25.3750  -31.5420   26.1970 C   0  0  0  0  0  1  0  0  0  0  0  0
  -27.0540  -30.4230   24.7240 C   0  0  0  0  0  1  0  0  0  0  0  0
  -27.6050  -32.5970   25.7860 C   0  0  0  0  0  1  0  0  0  0  0  0
  1  2  1  0
  3  5  2  0
  4  2  1  0
  4  3  1  0
  6  4  1  0
  7  3  1  0
  7 16  2  3
  8 16  1  0
  9 14  1  0
 10 11  1  0
 10  9  1  0
 12 11  1  0
 12 21  1  0
 12 13  1  0
 14  8  1  0
 14 13  1  0
 15  8  2  0
 16 17  1  0
 18 19  2  0
 19 38  1  0
 20 19  1  0
 20 23  1  0
 21 18  1  0
 21 22  1  0
 22 20  2  0
 23 24  1  0
 24 25  2  0
 26 29  1  0
 26 25  1  0
 27 26  2  0
 28 27  1  0
 28 23  2  0
 29 30  1  0
 30 31  1  0
 31 32  2  0
 33 32  1  0
 33 37  1  0
 34 33  2  0
 35 30  2  0
 35 34  1  0
 36 35  1  0
 38 39  1  0
 39 42  1  0
 39 41  1  0
 40 38  2  0
 43 44  1  0
 43 18  1  0
 45 43  1  0
 46 48  1  0
 47 48  1  0
 48  7  1  0
 49  1  1  0
 50 49  1  0
 50 51  1  0
 52 50  1  0
 53 50  1  0
 54 53  1  0
 54 55  1  0
 56 67  2  0
 57 55  1  0
 57 62  1  0
 58 66  1  0
 58 68  1  0
 59 65  1  0
 59 61  1  0
 60 66  1  0
 61 60  1  0
 62 61  2  0
 63 64  1  0
 63 57  2  0
 64 59  2  0
 65 58  1  0
 66 56  1  0
 68 70  2  0
 69 68  1  0
 71 69  1  0
 72 81  2  0
 72 77  1  0
 73 69  1  0
 73 77  1  0
 74 73  1  0
 75 76  1  0
 75 74  1  0
 76 72  1  0
 77 78  2  0
 78 79  1  0
 80 79  2  0
 81 80  1  0
 82 56  1  0
 82 83  1  0
 82 92  1  0
 83 86  1  0
 84 88  1  0
 84 83  1  0
 85 84  2  0
 88 87  1  0
 90 88  1  0
 90 91  1  0
 90 89  1  0
 92 95  1  1
 92 93  1  0
 94 92  1  0
M  ISO  4   8 100  16 100  54 101  55 101
M  END
>  <TORSDO>  (64) 
F 24

>  <SCORE>  (64) 
-11.659

>  <name>  (64) 
66

>  <ligand_id>  (64) 
66

>  <original_smiles>  (64) 
[H]c1c([H])c([H])c2c(c1[H])C([H])([H])C([H])([H])C([H])([H])C2([H])N([H])C(=O)C1([H])N(C(=O)C([H])(N([H])C(=O)C([H])(N([H])C([H])([H])[H])C([H])([H])[H])C(C([H])([H])[H])(C([H])([H])[H])C([H])([H])[H])C([H])([H])c2c([H])c(OC([H])([H])C([H])([H])[N+]([H])([H])C([H])([H])C([H])([H])C([H])([H])N([H])C(=O)C([H])(N([H])C(=O)N3C([H])([H])C([H])([H])C([H])([H])C([H])(n4nc(-c5c([H])c([H])c(Oc6c([H])c([H])c(F)c([H])c6F)c([H])c5[H])c(C(=O)N([H])[H])c4N([H])[H])C3([H])[H])C([H])(C([H])([H])[H])C([H])([H])[H])c([H])c([H])c2C1([H])[H]

>  <smiles>  (64) 
[H]c1c([H])c([H])c2c(c1[H])C([H])([H])C([H])([H])C([H])([H])C2([H])N([H])C(=O)C1([H])N(C(=O)C([H])(N([H])C(=O)C([H])(N([H])C([H])([H])[H])C([H])([H])[H])C(C([H])([H])[H])(C([H])([H])[H])C([H])([H])[H])C([H])([H])c2c([H])c(OC([H])([H])C([H])([H])[N+]([H])([H])C([H])([H])C([H])([H])C([H])([H])N([H])C(=O)C([H])(N([H])C(=O)N3C([H])([H])C([H])([H])C([H])([H])C([H])(n4nc(-c5c([H])c([H])c(Oc6c([H])c([H])c(F)c([H])c6F)c([H])c5[H])c(C(=O)N([H])[H])c4N([H])[H])C3([H])[H])C([H])(C([H])([H])[H])C([H])([H])[H])c([H])c([H])c2C1([H])[H]

$$$$
67:0:0
     RDKit          3D

100107  0  0  1  0  0  0  0  0999 V2000
  -29.6590  -17.2570   23.9500 C   0  0  0  0  0  2  0  0  0  0  0  0
  -30.7340  -18.3260   24.1590 C   0  0  0  0  0  2  0  0  0  0  0  0
  -30.9440  -19.1360   23.0050 O   0  0  0  0  0  0  0  0  0  0  0  0
  -31.4230  -20.4200   23.4000 C   0  0  0  0  0  2  0  0  0  0  0  0
  -31.3810  -21.4770   22.2790 C   0  0  0  0  0  2  0  0  0  0  0  0
  -31.2430  -22.8360   22.8640 N   0  0  0  0  0  4  0  0  0  0  0  0
  -32.1030  -23.0660   23.3420 H   0  0  0  0  0  0  0  0  0  0  0  0
  -30.5200  -22.8060   23.5680 H   0  0  0  0  0  0  0  0  0  0  0  0
  -30.9190  -23.9300   21.9150 C   0  0  0  0  0  2  0  0  0  0  0  0
  -30.7970  -25.2970   22.6290 C   0  0  0  0  0  2  0  0  0  0  0  0
  -30.8290  -26.3700   21.6920 O   0  0  0  0  0  0  0  0  0  0  0  0
  -25.2520  -30.4910   23.3390 C   0  0  0  0  0  0  0  0  0  0  0  0
  -29.6040  -26.8670   21.3420 C   0  0  0  0  0  0  0  0  0  0  0  0
  -24.9990  -29.0600   21.3400 C   0  0  0  0  0  3  0  0  0  0  0  0
  -27.1280  -27.9210   20.5150 C   0  0  0  0  0  0  0  0  0  0  0  0
  -27.3120  -29.8560   22.0870 C   0  0  0  0  0  2  0  0  0  0  0  0
  -27.8690  -28.5770   21.5060 C   0  0  0  0  0  0  0  0  0  0  0  0
  -29.1080  -28.0530   21.9260 C   0  0  0  0  0  3  0  0  0  0  0  0
  -28.8470  -26.2090   20.3510 C   0  0  0  0  0  3  0  0  0  0  0  0
  -27.6080  -26.7320   19.9370 C   0  0  0  0  0  3  0  0  0  0  0  0
  -25.8120  -28.5520   20.1190 C   0  0  0  0  0  2  0  0  0  0  0  0
  -25.8480  -29.8160   22.3170 N   0  0  0  0  0  0  0  0  0  0  0  0
  -24.0190  -30.5320   23.4470 O   0  0  0  0  0  0  0  0  0  0  0  0
  -24.2550  -27.8610   21.9720 C   0  0  0  0  0  0  0  0  0  0  0  0
  -23.1080  -27.4940   21.3770 N   0  0  0  0  0  0  0  0  0  0  0  0
  -24.7210  -27.2690   22.9480 O   0  0  0  0  0  0  0  0  0  0  0  0
  -22.7960  -28.0400   20.5840 H   0  0  0  0  0  0  0  0  0  0  0  0
  -19.9960  -25.8060   20.6420 C   0  0  0  0  0  0  0  0  0  0  0  0
  -22.2560  -26.3700   21.7640 C   0  0  0  0  0  3  0  0  0  0  0  0
  -22.7720  -25.0450   21.1570 C   0  0  0  0  0  2  0  0  0  0  0  0
  -22.1150  -24.6990   19.8150 C   0  0  0  0  0  2  0  0  0  0  0  0
  -20.5970  -24.5800   19.9740 C   0  0  0  0  0  2  0  0  0  0  0  0
  -20.7790  -26.6560   21.4670 C   0  0  0  0  0  0  0  0  0  0  0  0
  -20.1820  -27.8020   22.0380 C   0  0  0  0  0  3  0  0  0  0  0  0
  -18.8280  -28.1020   21.7970 C   0  0  0  0  0  3  0  0  0  0  0  0
  -18.0520  -27.2510   20.9920 C   0  0  0  0  0  3  0  0  0  0  0  0
  -18.6330  -26.1050   20.4220 C   0  0  0  0  0  3  0  0  0  0  0  0
  -26.0920  -31.2630   24.4040 C   0  0  0  0  0  3  0  0  0  0  0  0
  -25.5350  -32.6210   24.5070 N   0  0  0  0  0  0  0  0  0  0  0  0
  -26.0600  -33.7020   23.9210 C   0  0  0  0  0  0  0  0  0  0  0  0
  -27.1200  -33.6750   23.2880 O   0  0  0  0  0  0  0  0  0  0  0  0
  -24.6370  -32.7080   24.9630 H   0  0  0  0  0  0  0  0  0  0  0  0
  -24.4970  -35.2980   22.7640 C   0  0  0  0  0  1  0  0  0  0  0  0
  -25.2870  -35.0290   24.0560 C   0  0  0  0  0  3  0  0  0  0  0  0
  -26.7500  -36.1310   25.6930 C   0  0  0  0  0  1  0  0  0  0  0  0
  -26.1540  -36.1880   24.3600 N   0  0  0  0  0  0  0  0  0  0  0  0
  -25.6330  -37.0570   24.2810 H   0  0  0  0  0  0  0  0  0  0  0  0
  -26.1070  -30.5600   25.8140 C   0  0  1  0  0  0  0  0  0  0  0  0
  -24.6990  -30.1860   26.3380 C   0  0  0  0  0  1  0  0  0  0  0  0
  -26.9550  -29.2660   25.7680 C   0  0  0  0  0  1  0  0  0  0  0  0
  -26.7820  -31.4830   26.8560 C   0  0  0  0  0  1  0  0  0  0  0  0
  -29.6880  -16.2500   25.1180 C   0  0  0  0  0  2  0  0  0  0  0  0
  -28.7340  -15.0570   24.9740 C   0  0  0  0  0  2  0  0  0  0  0  0
  -28.7910  -14.1090   26.1950 C   0  0  0  0  0  2  0  0  0  0  0  0
  -28.4170  -12.6420   25.8880 C   0  0  0  0  0  2  0  0  0  0  0  0
  -29.5160  -11.6210   26.2730 C   0  0  0  0  0  2  0  0  0  0  0  0
  -29.3500  -10.2980   25.6220 N   0  0  0  0  0  4  0  0  0  0  0  0
  -28.3710  -10.0570   25.6640 H   0  0  0  0  0  0  0  0  0  0  0  0
  -29.8290   -9.5900   26.1570 H   0  0  0  0  0  0  0  0  0  0  0  0
  -29.7880  -10.1910   24.2090 C   0  0  0  0  0  2  0  0  0  0  0  0
  -31.3340  -10.2750   24.0130 C   0  0  0  0  0  2  0  0  0  0  0  0
  -31.8570  -11.0490   22.7740 C   0  0  0  0  0  2  0  0  0  0  0  0
  -30.9340  -11.8650   20.5910 C   0  0  0  0  0  0  0  0  0  0  0  0
  -29.9580  -11.5290   18.3560 C   0  0  0  0  0  2  0  0  0  0  0  0
  -29.1740  -12.7280   17.8000 C   0  0  0  0  0  2  0  0  0  0  0  0
  -27.7190  -12.7040   18.3000 C   0  0  0  0  0  2  0  0  0  0  0  0
  -27.6240  -12.5290   19.8380 C   0  0  0  0  0  3  0  0  0  0  0  0
  -28.4870  -11.3380   20.3000 C   0  0  0  0  0  2  0  0  0  0  0  0
  -29.8690  -11.5470   19.8200 N   0  0  0  0  0  0  0  0  0  0  0  0
  -31.9980  -12.3220   20.1570 O   0  0  0  0  0  0  0  0  0  0  0  0
  -30.8010  -11.4310   21.8480 N   0  0  0  0  0  0  0  0  0  0  0  0
  -29.8560  -11.1850   22.1060 H   0  0  0  0  0  0  0  0  0  0  0  0
  -25.2850  -13.3580   20.5130 C   0  0  0  0  0  0  0  0  0  0  0  0
  -24.1380  -12.6880   20.8350 C   0  0  0  0  0  0  0  0  0  0  0  0
  -24.4600  -11.2960   20.7720 C   0  0  0  0  0  0  0  0  0  0  0  0
  -26.2410  -12.3800   20.2750 N   0  0  0  0  0  0  0  0  0  0  0  0
  -25.7470  -11.1350   20.4880 N   0  0  0  0  0  0  0  0  0  0  0  0
  -23.6050  -10.1110   20.9070 C   0  0  0  0  0  0  0  0  0  0  0  0
  -23.8160   -9.1630   21.9340 C   0  0  0  0  0  3  0  0  0  0  0  0
  -22.9710   -8.0390   22.0540 C   0  0  0  0  0  3  0  0  0  0  0  0
  -21.9020   -7.8550   21.1460 C   0  0  0  0  0  0  0  0  0  0  0  0
  -21.7090   -8.7900   20.1120 C   0  0  0  0  0  3  0  0  0  0  0  0
  -22.5540   -9.9060   19.9900 C   0  0  0  0  0  3  0  0  0  0  0  0
  -21.0480   -6.7790   21.1690 O   0  0  0  0  0  0  0  0  0  0  0  0
  -20.7630   -6.1100   22.3320 C   0  0  0  0  0  0  0  0  0  0  0  0
  -20.1030   -6.7380   23.4110 C   0  0  0  0  0  3  0  0  0  0  0  0
  -19.7680   -5.9940   24.5600 C   0  0  0  0  0  3  0  0  0  0  0  0
  -20.0870   -4.6240   24.6320 C   0  0  0  0  0  0  0  0  0  0  0  0
  -20.7430   -3.9980   23.5580 C   0  0  0  0  0  3  0  0  0  0  0  0
  -21.0780   -4.7380   22.4100 C   0  0  0  0  0  0  0  0  0  0  0  0
  -21.6900   -4.1250   21.3690 F   0  0  0  0  0  0  0  0  0  0  0  0
  -19.7610   -3.9070   25.7320 F   0  0  0  0  0  0  0  0  0  0  0  0
  -22.7890  -13.2970   21.0950 C   0  0  0  0  0  0  0  0  0  0  0  0
  -21.9800  -12.6610   21.9320 N   0  0  0  0  0  0  0  0  0  0  0  0
  -22.4610  -14.3700   20.5850 O   0  0  0  0  0  0  0  0  0  0  0  0
  -22.2580  -11.7940   22.3670 H   0  0  0  0  0  0  0  0  0  0  0  0
  -21.0720  -13.0480   22.1470 H   0  0  0  0  0  0  0  0  0  0  0  0
  -25.6010  -14.7060   20.3860 N   0  0  0  0  0  0  0  0  0  0  0  0
  -24.9180  -15.4470   20.5050 H   0  0  0  0  0  0  0  0  0  0  0  0
  -26.5130  -15.0530   20.1110 H   0  0  0  0  0  0  0  0  0  0  0  0
  1  2  1  0
  1 52  1  0
  3  4  1  0
  3  2  1  0
  5  6  1  0
  5  4  1  0
  6  7  1  0
  6  8  1  0
  9 10  1  0
  9  6  1  0
 11 10  1  0
 12 23  2  0
 13 11  1  0
 13 18  1  0
 14 24  1  0
 14 22  1  0
 15 17  1  0
 16 22  1  0
 17 18  2  0
 17 16  1  0
 19 13  2  0
 20 19  1  0
 20 15  2  0
 21 15  1  0
 21 14  1  0
 22 12  1  0
 24 26  2  0
 25 24  1  0
 27 25  1  0
 28 33  1  0
 29 25  1  0
 30 29  1  0
 31 32  1  0
 31 30  1  0
 32 28  1  0
 33 29  1  0
 33 34  2  0
 35 34  1  0
 36 35  2  0
 37 28  2  0
 37 36  1  0
 38 12  1  0
 38 39  1  0
 38 48  1  0
 39 42  1  0
 40 44  1  0
 40 39  1  0
 41 40  2  0
 44 43  1  0
 44 46  1  0
 46 45  1  0
 47 46  1  0
 48 49  1  1
 48 51  1  0
 50 48  1  0
 53 52  1  0
 53 54  1  0
 55 54  1  0
 55 56  1  0
 57 58  1  0
 57 59  1  0
 57 56  1  0
 60 57  1  0
 61 60  1  0
 62 61  1  0
 63 71  1  0
 64 69  1  0
 65 66  1  0
 65 64  1  0
 67 66  1  0
 67 76  1  0
 67 68  1  0
 69 68  1  0
 69 63  1  0
 70 63  2  0
 71 72  1  0
 71 62  1  0
 73 74  2  0
 74 93  1  0
 75 74  1  0
 75 78  1  0
 76 77  1  0
 76 73  1  0
 77 75  2  0
 78 79  1  0
 79 80  2  0
 81 84  1  0
 81 80  1  0
 82 81  2  0
 83 82  1  0
 83 78  2  0
 84 85  1  0
 85 90  2  0
 85 86  1  0
 86 87  2  0
 87 88  1  0
 88 92  1  0
 89 88  2  0
 90 89  1  0
 91 90  1  0
 93 94  1  0
 94 97  1  0
 94 96  1  0
 95 93  2  0
 98 99  1  0
 98 73  1  0
100 98  1  0
M  ISO  4  10 101  11 101  63 100  71 100
M  END
>  <TORSDO>  (65) 
F 32

>  <SCORE>  (65) 
26.847

>  <name>  (65) 
67

>  <ligand_id>  (65) 
67

>  <original_smiles>  (65) 
[H]c1c([H])c([H])c2c(c1[H])C([H])([H])C([H])([H])C([H])([H])C2([H])N([H])C(=O)C1([H])N(C(=O)C([H])(N([H])C(=O)C([H])(N([H])C([H])([H])[H])C([H])([H])[H])C(C([H])([H])[H])(C([H])([H])[H])C([H])([H])[H])C([H])([H])c2c([H])c(OC([H])([H])C([H])([H])[N+]([H])([H])C([H])([H])C([H])([H])OC([H])([H])C([H])([H])C([H])([H])C([H])([H])C([H])([H])C([H])([H])C([H])([H])[N+]([H])([H])C([H])([H])C([H])([H])C([H])([H])N([H])C(=O)N3C([H])([H])C([H])([H])C([H])([H])C([H])(n4nc(-c5c([H])c([H])c(Oc6c([H])c([H])c(F)c([H])c6F)c([H])c5[H])c(C(=O)N([H])[H])c4N([H])[H])C3([H])[H])c([H])c([H])c2C1([H])[H]

>  <smiles>  (65) 
[H]c1c([H])c([H])c2c(c1[H])C([H])([H])C([H])([H])C([H])([H])C2([H])N([H])C(=O)C1([H])N(C(=O)C([H])(N([H])C(=O)C([H])(N([H])C([H])([H])[H])C([H])([H])[H])C(C([H])([H])[H])(C([H])([H])[H])C([H])([H])[H])C([H])([H])c2c([H])c(OC([H])([H])C([H])([H])[N+]([H])([H])C([H])([H])C([H])([H])OC([H])([H])C([H])([H])C([H])([H])C([H])([H])C([H])([H])C([H])([H])C([H])([H])[N+]([H])([H])C([H])([H])C([H])([H])C([H])([H])N([H])C(=O)N3C([H])([H])C([H])([H])C([H])([H])C([H])(n4nc(-c5c([H])c([H])c(Oc6c([H])c([H])c(F)c([H])c6F)c([H])c5[H])c(C(=O)N([H])[H])c4N([H])[H])C3([H])[H])c([H])c([H])c2C1([H])[H]

$$$$
68:0:0
     RDKit          3D

 91 98  0  0  1  0  0  0  0  0999 V2000
  -28.8530  -22.9540   21.0840 N   0  0  0  0  0  4  0  0  0  0  0  0
  -28.4610  -22.9990   22.0130 H   0  0  0  0  0  0  0  0  0  0  0  0
  -28.1220  -22.6370   20.4650 H   0  0  0  0  0  0  0  0  0  0  0  0
  -29.9120  -21.9120   21.0840 C   0  0  0  0  0  2  0  0  0  0  0  0
  -29.3880  -20.4930   21.5030 C   0  0  0  0  0  2  0  0  0  0  0  0
  -30.3050  -19.3820   21.1640 N   0  0  0  0  0  0  0  0  0  0  0  0
  -32.6650  -19.6980   20.6360 C   0  0  0  0  0  1  0  0  0  0  0  0
  -31.6330  -19.5670   21.7630 C   0  0  0  0  0  2  0  0  0  0  0  0
  -29.7380  -18.0470   21.4720 C   0  0  0  0  0  2  0  0  0  0  0  0
  -30.6580  -16.8920   20.9610 C   0  0  0  0  0  2  0  0  0  0  0  0
  -30.7110  -14.5020   20.3450 C   0  0  0  0  0  0  0  0  0  0  0  0
  -30.3700  -12.3610   19.1720 C   0  0  0  0  0  2  0  0  0  0  0  0
  -29.4220  -12.5880   17.9780 C   0  0  0  0  0  2  0  0  0  0  0  0
  -27.9550  -12.4400   18.4220 C   0  0  0  0  0  2  0  0  0  0  0  0
  -27.6320  -13.2700   19.6920 C   0  0  0  0  0  3  0  0  0  0  0  0
  -28.6940  -13.0420   20.7900 C   0  0  0  0  0  2  0  0  0  0  0  0
  -30.0140  -13.3380   20.2140 N   0  0  0  0  0  0  0  0  0  0  0  0
  -31.8110  -14.6730   19.8110 O   0  0  0  0  0  0  0  0  0  0  0  0
  -30.0960  -15.5260   20.9710 N   0  0  0  0  0  0  0  0  0  0  0  0
  -29.2060  -15.3560   21.4120 H   0  0  0  0  0  0  0  0  0  0  0  0
  -25.2370  -13.8720   20.4120 C   0  0  0  0  0  0  0  0  0  0  0  0
  -24.1750  -13.0930   20.7940 C   0  0  0  0  0  0  0  0  0  0  0  0
  -24.6430  -11.7450   20.7670 C   0  0  0  0  0  0  0  0  0  0  0  0
  -26.2840  -12.9940   20.1810 N   0  0  0  0  0  0  0  0  0  0  0  0
  -25.9320  -11.7110   20.4520 N   0  0  0  0  0  0  0  0  0  0  0  0
  -23.9270  -10.4790   20.9720 C   0  0  0  0  0  0  0  0  0  0  0  0
  -24.3670   -9.5190   21.9120 C   0  0  0  0  0  3  0  0  0  0  0  0
  -23.6450   -8.3220   22.1040 C   0  0  0  0  0  3  0  0  0  0  0  0
  -22.4700   -8.0750   21.3530 C   0  0  0  0  0  0  0  0  0  0  0  0
  -22.0490   -9.0240   20.4030 C   0  0  0  0  0  3  0  0  0  0  0  0
  -22.7730  -10.2120   20.2100 C   0  0  0  0  0  3  0  0  0  0  0  0
  -21.7190   -6.9280   21.4530 O   0  0  0  0  0  0  0  0  0  0  0  0
  -21.6690   -6.1980   22.6150 C   0  0  0  0  0  0  0  0  0  0  0  0
  -21.2510   -6.7700   23.8360 C   0  0  0  0  0  3  0  0  0  0  0  0
  -21.1480   -5.9710   24.9900 C   0  0  0  0  0  3  0  0  0  0  0  0
  -21.4530   -4.5990   24.9260 C   0  0  0  0  0  0  0  0  0  0  0  0
  -21.8640   -4.0240   23.7100 C   0  0  0  0  0  3  0  0  0  0  0  0
  -21.9690   -4.8220   22.5580 C   0  0  0  0  0  0  0  0  0  0  0  0
  -22.3460   -4.2600   21.3820 F   0  0  0  0  0  0  0  0  0  0  0  0
  -21.3450   -3.8260   26.0320 F   0  0  0  0  0  0  0  0  0  0  0  0
  -22.7770  -13.5670   21.0730 C   0  0  0  0  0  0  0  0  0  0  0  0
  -22.0630  -12.8750   21.9530 N   0  0  0  0  0  0  0  0  0  0  0  0
  -22.3270  -14.5840   20.5470 O   0  0  0  0  0  0  0  0  0  0  0  0
  -22.4430  -12.0510   22.3950 H   0  0  0  0  0  0  0  0  0  0  0  0
  -21.1250  -13.1700   22.1880 H   0  0  0  0  0  0  0  0  0  0  0  0
  -25.3910  -15.2440   20.2240 N   0  0  0  0  0  0  0  0  0  0  0  0
  -24.6150  -15.8920   20.3020 H   0  0  0  0  0  0  0  0  0  0  0  0
  -26.2400  -15.6780   19.8810 H   0  0  0  0  0  0  0  0  0  0  0  0
  -29.2800  -24.3270   20.6690 C   0  0  0  0  0  2  0  0  0  0  0  0
  -28.0800  -25.3040   20.6380 C   0  0  0  0  0  2  0  0  0  0  0  0
  -28.3470  -26.6470   20.1680 O   0  0  0  0  0  0  0  0  0  0  0  0
  -24.6050  -31.8910   23.2320 C   0  0  0  0  0  0  0  0  0  0  0  0
  -27.2120  -27.4370   20.1230 C   0  0  0  0  0  0  0  0  0  0  0  0
  -23.3860  -30.4940   21.6040 C   0  0  0  0  0  3  0  0  0  0  0  0
  -24.8240  -28.9680   20.1530 C   0  0  0  0  0  0  0  0  0  0  0  0
  -25.9140  -30.8490   21.3820 C   0  0  0  0  0  2  0  0  0  0  0  0
  -25.9920  -29.4800   20.7320 C   0  0  0  0  0  0  0  0  0  0  0  0
  -27.1920  -28.7260   20.7090 C   0  0  0  0  0  3  0  0  0  0  0  0
  -26.0280  -26.9620   19.5090 C   0  0  0  0  0  3  0  0  0  0  0  0
  -24.8400  -27.7100   19.5320 C   0  0  0  0  0  3  0  0  0  0  0  0
  -23.5820  -29.8290   20.2170 C   0  0  0  0  0  2  0  0  0  0  0  0
  -24.6540  -31.0930   22.1280 N   0  0  0  0  0  0  0  0  0  0  0  0
  -23.5280  -32.1610   23.7800 O   0  0  0  0  0  0  0  0  0  0  0  0
  -22.7460  -29.4650   22.5640 C   0  0  0  0  0  0  0  0  0  0  0  0
  -21.4230  -29.2770   22.4450 N   0  0  0  0  0  0  0  0  0  0  0  0
  -23.4370  -28.8410   23.3730 O   0  0  0  0  0  0  0  0  0  0  0  0
  -20.9250  -29.8300   21.7620 H   0  0  0  0  0  0  0  0  0  0  0  0
  -18.0540  -28.0680   22.9610 C   0  0  0  0  0  0  0  0  0  0  0  0
  -20.6130  -28.3390   23.2220 C   0  0  0  0  0  3  0  0  0  0  0  0
  -20.7200  -26.9070   22.6490 C   0  0  0  0  0  2  0  0  0  0  0  0
  -19.6150  -26.5750   21.6410 C   0  0  0  0  0  2  0  0  0  0  0  0
  -18.2340  -26.7170   22.2880 C   0  0  0  0  0  2  0  0  0  0  0  0
  -19.1720  -28.8360   23.3850 C   0  0  0  0  0  0  0  0  0  0  0  0
  -18.9490  -30.1010   23.9740 C   0  0  0  0  0  3  0  0  0  0  0  0
  -17.6420  -30.5960   24.1430 C   0  0  0  0  0  3  0  0  0  0  0  0
  -16.5410  -29.8260   23.7360 C   0  0  0  0  0  3  0  0  0  0  0  0
  -16.7470  -28.5640   23.1500 C   0  0  0  0  0  3  0  0  0  0  0  0
  -25.8930  -32.5270   23.8410 C   0  0  0  0  0  3  0  0  0  0  0  0
  -26.4320  -31.7470   25.1010 C   0  0  1  0  0  0  0  0  0  0  0  0
  -25.3550  -31.4900   26.1840 C   0  0  0  0  0  1  0  0  0  0  0  0
  -27.0150  -30.3770   24.6840 C   0  0  0  0  0  1  0  0  0  0  0  0
  -27.5890  -32.5410   25.7510 C   0  0  0  0  0  1  0  0  0  0  0  0
  -25.5790  -33.9190   24.1840 N   0  0  0  0  0  0  0  0  0  0  0  0
  -25.8940  -34.9790   23.4270 C   0  0  0  0  0  0  0  0  0  0  0  0
  -26.5520  -34.8870   22.3860 O   0  0  0  0  0  0  0  0  0  0  0  0
  -24.9920  -34.0640   24.9920 H   0  0  0  0  0  0  0  0  0  0  0  0
  -24.1470  -36.7590   23.1070 C   0  0  0  0  0  1  0  0  0  0  0  0
  -25.4030  -36.3610   23.8990 C   0  0  0  0  0  3  0  0  0  0  0  0
  -27.5460  -37.2510   24.7010 C   0  0  0  0  0  1  0  0  0  0  0  0
  -26.4260  -37.4230   23.7790 N   0  0  0  0  0  0  0  0  0  0  0  0
  -26.0180  -38.3380   23.9450 H   0  0  0  0  0  0  0  0  0  0  0  0
  1  4  1  0
  1  2  1  0
  3  1  1  0
  4  5  1  0
  6  9  1  0
  6  5  1  0
  6  8  1  0
  7  8  1  0
 10 19  1  0
 10  9  1  0
 11 19  1  0
 12 17  1  0
 13 14  1  0
 13 12  1  0
 15 14  1  0
 15 24  1  0
 15 16  1  0
 17 11  1  0
 17 16  1  0
 18 11  2  0
 19 20  1  0
 21 22  2  0
 22 41  1  0
 23 22  1  0
 23 26  1  0
 24 21  1  0
 24 25  1  0
 25 23  2  0
 26 27  1  0
 27 28  2  0
 29 32  1  0
 29 28  1  0
 30 29  2  0
 31 30  1  0
 31 26  2  0
 32 33  1  0
 33 34  1  0
 34 35  2  0
 36 35  1  0
 36 40  1  0
 37 36  2  0
 38 33  2  0
 38 37  1  0
 39 38  1  0
 41 42  1  0
 42 45  1  0
 42 44  1  0
 43 41  2  0
 46 47  1  0
 46 21  1  0
 48 46  1  0
 49  1  1  0
 50 49  1  0
 51 50  1  0
 52 63  2  0
 53 51  1  0
 53 58  1  0
 54 62  1  0
 54 64  1  0
 55 61  1  0
 55 57  1  0
 56 62  1  0
 57 56  1  0
 58 57  2  0
 59 60  1  0
 59 53  2  0
 60 55  2  0
 61 54  1  0
 62 52  1  0
 64 66  2  0
 65 64  1  0
 67 65  1  0
 68 77  2  0
 68 73  1  0
 69 65  1  0
 69 73  1  0
 70 69  1  0
 71 72  1  0
 71 70  1  0
 72 68  1  0
 73 74  2  0
 74 75  1  0
 76 75  2  0
 77 76  1  0
 78 52  1  0
 78 83  1  0
 78 79  1  0
 79 82  1  1
 79 80  1  0
 81 79  1  0
 83 86  1  0
 84 88  1  0
 84 83  1  0
 85 84  2  0
 88 87  1  0
 90 88  1  0
 90 91  1  0
 90 89  1  0
M  ISO  4  11 100  19 100  50 101  51 101
M  END
>  <TORSDO>  (66) 
F 24

>  <SCORE>  (66) 
-12.149

>  <name>  (66) 
68

>  <ligand_id>  (66) 
68

>  <original_smiles>  (66) 
[H]c1c([H])c([H])c2c(c1[H])C([H])([H])C([H])([H])C([H])([H])C2([H])N([H])C(=O)C1([H])N(C(=O)C([H])(N([H])C(=O)C([H])(N([H])C([H])([H])[H])C([H])([H])[H])C(C([H])([H])[H])(C([H])([H])[H])C([H])([H])[H])C([H])([H])c2c([H])c(OC([H])([H])C([H])([H])[N+]([H])([H])C([H])([H])C([H])([H])N(C([H])([H])C([H])([H])[H])C([H])([H])C([H])([H])N([H])C(=O)N3C([H])([H])C([H])([H])C([H])([H])C([H])(n4nc(-c5c([H])c([H])c(Oc6c([H])c([H])c(F)c([H])c6F)c([H])c5[H])c(C(=O)N([H])[H])c4N([H])[H])C3([H])[H])c([H])c([H])c2C1([H])[H]

>  <smiles>  (66) 
[H]c1c([H])c([H])c2c(c1[H])C([H])([H])C([H])([H])C([H])([H])C2([H])N([H])C(=O)C1([H])N(C(=O)C([H])(N([H])C(=O)C([H])(N([H])C([H])([H])[H])C([H])([H])[H])C(C([H])([H])[H])(C([H])([H])[H])C([H])([H])[H])C([H])([H])c2c([H])c(OC([H])([H])C([H])([H])[N+]([H])([H])C([H])([H])C([H])([H])N(C([H])([H])C([H])([H])[H])C([H])([H])C([H])([H])N([H])C(=O)N3C([H])([H])C([H])([H])C([H])([H])C([H])(n4nc(-c5c([H])c([H])c(Oc6c([H])c([H])c(F)c([H])c6F)c([H])c5[H])c(C(=O)N([H])[H])c4N([H])[H])C3([H])[H])c([H])c([H])c2C1([H])[H]

$$$$
69:0:0
     RDKit          3D

 97104  0  0  1  0  0  0  0  0999 V2000
  -29.5950  -20.7510   20.6820 N   0  0  0  0  0  4  0  0  0  0  0  0
  -29.3410  -20.7200   19.7070 H   0  0  0  0  0  0  0  0  0  0  0  0
  -30.1020  -21.6020   20.8580 H   0  0  0  0  0  0  0  0  0  0  0  0
  -30.4440  -19.5930   21.0220 C   0  0  0  0  0  2  0  0  0  0  0  0
  -31.7970  -19.5380   20.2770 C   0  0  0  0  0  2  0  0  0  0  0  0
  -32.3250  -18.1050   20.4100 C   0  0  0  0  0  2  0  0  0  0  0  0
  -33.7500  -17.7650   19.9330 C   0  0  0  0  0  2  0  0  0  0  0  0
  -34.1400  -16.3810   20.3210 N   0  0  0  0  0  4  0  0  0  0  0  0
  -34.1550  -16.2950   21.3250 H   0  0  0  0  0  0  0  0  0  0  0  0
  -35.0870  -16.2320   20.0090 H   0  0  0  0  0  0  0  0  0  0  0  0
  -33.2960  -15.2970   19.7600 C   0  0  0  0  0  2  0  0  0  0  0  0
  -32.1900  -14.8450   20.7650 C   0  0  0  0  0  2  0  0  0  0  0  0
  -30.7760  -13.5230   19.1310 C   0  0  0  0  0  0  0  0  0  0  0  0
  -30.0630  -11.3970   18.1600 C   0  0  0  0  0  2  0  0  0  0  0  0
  -28.8700  -11.4290   17.1990 C   0  0  0  0  0  2  0  0  0  0  0  0
  -27.5500  -11.3320   17.9750 C   0  0  0  0  0  2  0  0  0  0  0  0
  -27.4560  -12.3830   19.1090 C   0  0  0  0  0  3  0  0  0  0  0  0
  -28.7300  -12.3710   19.9940 C   0  0  0  0  0  2  0  0  0  0  0  0
  -29.9350  -12.4700   19.1480 N   0  0  0  0  0  0  0  0  0  0  0  0
  -31.2730  -13.9970   18.1080 O   0  0  0  0  0  0  0  0  0  0  0  0
  -31.2820  -13.7730   20.3460 N   0  0  0  0  0  0  0  0  0  0  0  0
  -30.9410  -13.1700   21.0790 H   0  0  0  0  0  0  0  0  0  0  0  0
  -25.3630  -13.1200   20.4300 C   0  0  0  0  0  0  0  0  0  0  0  0
  -24.3360  -12.4090   20.9890 C   0  0  0  0  0  0  0  0  0  0  0  0
  -24.6340  -11.0310   20.7480 C   0  0  0  0  0  0  0  0  0  0  0  0
  -26.2350  -12.1830   19.8940 N   0  0  0  0  0  0  0  0  0  0  0  0
  -25.8070  -10.9170   20.1380 N   0  0  0  0  0  0  0  0  0  0  0  0
  -23.8440   -9.8200   21.0160 C   0  0  0  0  0  0  0  0  0  0  0  0
  -24.3000   -8.8260   21.9080 C   0  0  0  0  0  3  0  0  0  0  0  0
  -23.5160   -7.6790   22.1660 C   0  0  0  0  0  3  0  0  0  0  0  0
  -22.2600   -7.5220   21.5350 C   0  0  0  0  0  0  0  0  0  0  0  0
  -21.8200   -8.5040   20.6310 C   0  0  0  0  0  3  0  0  0  0  0  0
  -22.6050   -9.6400   20.3710 C   0  0  0  0  0  3  0  0  0  0  0  0
  -21.4460   -6.4290   21.7020 O   0  0  0  0  0  0  0  0  0  0  0  0
  -21.3810   -5.7560   22.8970 C   0  0  0  0  0  0  0  0  0  0  0  0
  -20.9890   -6.3960   24.0920 C   0  0  0  0  0  3  0  0  0  0  0  0
  -20.8690   -5.6530   25.2820 C   0  0  0  0  0  3  0  0  0  0  0  0
  -21.1310   -4.2690   25.2790 C   0  0  0  0  0  0  0  0  0  0  0  0
  -21.5190   -3.6290   24.0880 C   0  0  0  0  0  3  0  0  0  0  0  0
  -21.6390   -4.3700   22.8990 C   0  0  0  0  0  0  0  0  0  0  0  0
  -21.9900   -3.7460   21.7500 F   0  0  0  0  0  0  0  0  0  0  0  0
  -21.0090   -3.5520   26.4190 F   0  0  0  0  0  0  0  0  0  0  0  0
  -23.0990  -12.9690   21.6330 C   0  0  0  0  0  0  0  0  0  0  0  0
  -22.5420  -12.2640   22.6110 N   0  0  0  0  0  0  0  0  0  0  0  0
  -22.6480  -14.0670   21.3040 O   0  0  0  0  0  0  0  0  0  0  0  0
  -22.9160  -11.3670   22.8890 H   0  0  0  0  0  0  0  0  0  0  0  0
  -21.7230  -12.6190   23.0850 H   0  0  0  0  0  0  0  0  0  0  0  0
  -25.6250  -14.4820   20.3120 N   0  0  0  0  0  0  0  0  0  0  0  0
  -24.9900  -15.1960   20.6490 H   0  0  0  0  0  0  0  0  0  0  0  0
  -26.4260  -14.8630   19.8230 H   0  0  0  0  0  0  0  0  0  0  0  0
  -28.3690  -20.8280   21.5020 C   0  0  0  0  0  2  0  0  0  0  0  0
  -27.5750  -22.1100   21.2140 C   0  0  0  0  0  2  0  0  0  0  0  0
  -28.4300  -23.2860   21.3880 N   0  0  0  0  0  0  0  0  0  0  0  0
  -29.1500  -23.2880   20.6700 H   0  0  0  0  0  0  0  0  0  0  0  0
  -27.6590  -24.4930   21.1260 C   0  0  0  0  0  2  0  0  0  0  0  0
  -28.5260  -25.7520   21.3430 C   0  0  0  0  0  2  0  0  0  0  0  0
  -28.4060  -26.6760   20.2650 O   0  0  0  0  0  0  0  0  0  0  0  0
  -24.5710  -31.8890   23.2060 C   0  0  0  0  0  0  0  0  0  0  0  0
  -27.2380  -27.3900   20.2650 C   0  0  0  0  0  0  0  0  0  0  0  0
  -23.3790  -30.4400   21.5950 C   0  0  0  0  0  3  0  0  0  0  0  0
  -24.8430  -28.8670   20.2260 C   0  0  0  0  0  0  0  0  0  0  0  0
  -25.9020  -30.8000   21.4090 C   0  0  0  0  0  2  0  0  0  0  0  0
  -25.9920  -29.4120   20.8120 C   0  0  0  0  0  0  0  0  0  0  0  0
  -27.1960  -28.6800   20.8320 C   0  0  0  0  0  3  0  0  0  0  0  0
  -26.0790  -26.8530   19.6710 C   0  0  0  0  0  3  0  0  0  0  0  0
  -24.8770  -27.5820   19.6580 C   0  0  0  0  0  3  0  0  0  0  0  0
  -23.6000  -29.7270   20.2350 C   0  0  0  0  0  2  0  0  0  0  0  0
  -24.6340  -31.0600   22.1270 N   0  0  0  0  0  0  0  0  0  0  0  0
  -23.4860  -32.1750   23.7290 O   0  0  0  0  0  0  0  0  0  0  0  0
  -22.7240  -29.4410   22.5750 C   0  0  0  0  0  0  0  0  0  0  0  0
  -21.4060  -29.2370   22.4240 N   0  0  0  0  0  0  0  0  0  0  0  0
  -23.3980  -28.8560   23.4280 O   0  0  0  0  0  0  0  0  0  0  0  0
  -20.9240  -29.7620   21.7060 H   0  0  0  0  0  0  0  0  0  0  0  0
  -18.0380  -28.0080   22.8790 C   0  0  0  0  0  0  0  0  0  0  0  0
  -20.5830  -28.3180   23.2100 C   0  0  0  0  0  3  0  0  0  0  0  0
  -20.7230  -26.8670   22.6940 C   0  0  0  0  0  2  0  0  0  0  0  0
  -19.6530  -26.4870   21.6650 C   0  0  0  0  0  2  0  0  0  0  0  0
  -18.2530  -26.6350   22.2660 C   0  0  0  0  0  2  0  0  0  0  0  0
  -19.1330  -28.8050   23.3080 C   0  0  0  0  0  0  0  0  0  0  0  0
  -18.8800  -30.0890   23.8370 C   0  0  0  0  0  3  0  0  0  0  0  0
  -17.5630  -30.5760   23.9480 C   0  0  0  0  0  3  0  0  0  0  0  0
  -16.4820  -29.7770   23.5350 C   0  0  0  0  0  3  0  0  0  0  0  0
  -16.7200  -28.4960   23.0070 C   0  0  0  0  0  3  0  0  0  0  0  0
  -25.8530  -32.5340   23.8190 C   0  0  0  0  0  3  0  0  0  0  0  0
  -25.5270  -33.9260   24.1570 N   0  0  0  0  0  0  0  0  0  0  0  0
  -25.8400  -34.9850   23.3980 C   0  0  0  0  0  0  0  0  0  0  0  0
  -26.5070  -34.8960   22.3630 O   0  0  0  0  0  0  0  0  0  0  0  0
  -24.9340  -34.0710   24.9600 H   0  0  0  0  0  0  0  0  0  0  0  0
  -24.0830  -36.7500   23.0490 C   0  0  0  0  0  1  0  0  0  0  0  0
  -25.3320  -36.3650   23.8590 C   0  0  0  0  0  3  0  0  0  0  0  0
  -27.4570  -37.2720   24.6880 C   0  0  0  0  0  1  0  0  0  0  0  0
  -26.3470  -37.4350   23.7510 N   0  0  0  0  0  0  0  0  0  0  0  0
  -25.9280  -38.3480   23.9120 H   0  0  0  0  0  0  0  0  0  0  0  0
  -26.3950  -31.7630   25.0850 C   0  0  1  0  0  0  0  0  0  0  0  0
  -25.3160  -31.4930   26.1570 C   0  0  0  0  0  1  0  0  0  0  0  0
  -27.0030  -30.4020   24.6750 C   0  0  0  0  0  1  0  0  0  0  0  0
  -27.5350  -32.5760   25.7440 C   0  0  0  0  0  1  0  0  0  0  0  0
  1  3  1  0
  1  4  1  0
  1 51  1  0
  2  1  1  0
  5  6  1  0
  5  4  1  0
  7  8  1  0
  7  6  1  0
  8  9  1  0
 10  8  1  0
 11  8  1  0
 11 12  1  0
 13 19  1  0
 13 21  1  0
 14 19  1  0
 15 16  1  0
 15 14  1  0
 17 16  1  0
 17 26  1  0
 17 18  1  0
 19 18  1  0
 20 13  2  0
 21 12  1  0
 21 22  1  0
 23 24  2  0
 24 43  1  0
 25 24  1  0
 25 28  1  0
 26 27  1  0
 26 23  1  0
 27 25  2  0
 28 29  1  0
 29 30  2  0
 31 34  1  0
 31 30  1  0
 32 31  2  0
 33 32  1  0
 33 28  2  0
 34 35  1  0
 35 40  2  0
 35 36  1  0
 36 37  2  0
 38 37  1  0
 38 42  1  0
 39 38  2  0
 40 39  1  0
 41 40  1  0
 43 44  1  0
 44 46  1  0
 44 47  1  0
 45 43  2  0
 48 23  1  0
 48 49  1  0
 50 48  1  0
 52 53  1  0
 52 51  1  0
 54 53  1  0
 55 56  1  0
 55 53  1  0
 57 56  1  0
 58 69  2  0
 59 57  1  0
 59 64  1  0
 60 68  1  0
 60 70  1  0
 61 67  1  0
 61 63  1  0
 62 68  1  0
 63 64  2  0
 63 62  1  0
 65 59  2  0
 66 65  1  0
 66 61  2  0
 67 60  1  0
 68 58  1  0
 70 72  2  0
 71 70  1  0
 73 71  1  0
 74 83  2  0
 74 79  1  0
 75 71  1  0
 75 79  1  0
 76 75  1  0
 77 78  1  0
 77 76  1  0
 78 74  1  0
 79 80  2  0
 80 81  1  0
 82 81  2  0
 83 82  1  0
 84 58  1  0
 84 85  1  0
 84 94  1  0
 85 88  1  0
 86 90  1  0
 86 85  1  0
 87 86  2  0
 90 89  1  0
 92 90  1  0
 92 93  1  0
 92 91  1  0
 94 97  1  1
 94 95  1  0
 96 94  1  0
M  ISO  4  13 100  21 100  56 101  57 101
M  END
>  <TORSDO>  (67) 
F 28

>  <SCORE>  (67) 
-7.550

>  <name>  (67) 
69

>  <ligand_id>  (67) 
69

>  <original_smiles>  (67) 
[H]c1c([H])c([H])c2c(c1[H])C([H])([H])C([H])([H])C([H])([H])C2([H])N([H])C(=O)C1([H])N(C(=O)C([H])(N([H])C(=O)C([H])(N([H])C([H])([H])[H])C([H])([H])[H])C(C([H])([H])[H])(C([H])([H])[H])C([H])([H])[H])C([H])([H])c2c([H])c(OC([H])([H])C([H])([H])N([H])C([H])([H])C([H])([H])[N+]([H])([H])C([H])([H])C([H])([H])C([H])([H])C([H])([H])[N+]([H])([H])C([H])([H])C([H])([H])N([H])C(=O)N3C([H])([H])C([H])([H])C([H])([H])C([H])(n4nc(-c5c([H])c([H])c(Oc6c([H])c([H])c(F)c([H])c6F)c([H])c5[H])c(C(=O)N([H])[H])c4N([H])[H])C3([H])[H])c([H])c([H])c2C1([H])[H]

>  <smiles>  (67) 
[H]c1c([H])c([H])c2c(c1[H])C([H])([H])C([H])([H])C([H])([H])C2([H])N([H])C(=O)C1([H])N(C(=O)C([H])(N([H])C(=O)C([H])(N([H])C([H])([H])[H])C([H])([H])[H])C(C([H])([H])[H])(C([H])([H])[H])C([H])([H])[H])C([H])([H])c2c([H])c(OC([H])([H])C([H])([H])N([H])C([H])([H])C([H])([H])[N+]([H])([H])C([H])([H])C([H])([H])C([H])([H])C([H])([H])[N+]([H])([H])C([H])([H])C([H])([H])N([H])C(=O)N3C([H])([H])C([H])([H])C([H])([H])C([H])(n4nc(-c5c([H])c([H])c(Oc6c([H])c([H])c(F)c([H])c6F)c([H])c5[H])c(C(=O)N([H])[H])c4N([H])[H])C3([H])[H])c([H])c([H])c2C1([H])[H]

$$$$
70:0:0
     RDKit          3D

 92 99  0  0  1  0  0  0  0  0999 V2000
  -27.6520  -21.4570   21.9830 C   0  0  0  0  0  2  0  0  0  0  0  0
  -27.4050  -22.9760   21.9110 C   0  0  0  0  0  2  0  0  0  0  0  0
  -28.6920  -23.8020   22.0840 C   0  0  0  0  0  2  0  0  0  0  0  0
  -28.5090  -25.3020   21.7870 C   0  0  0  0  0  2  0  0  0  0  0  0
  -28.7960  -25.6700   20.3150 C   0  0  0  0  0  2  0  0  0  0  0  0
  -28.7650  -27.0850   20.1200 O   0  0  0  0  0  0  0  0  0  0  0  0
  -24.6860  -31.8880   23.3770 C   0  0  0  0  0  0  0  0  0  0  0  0
  -27.5440  -27.7210   20.1380 C   0  0  0  0  0  0  0  0  0  0  0  0
  -23.5830  -30.5400   21.6440 C   0  0  0  0  0  3  0  0  0  0  0  0
  -25.0990  -29.1310   20.1650 C   0  0  0  0  0  0  0  0  0  0  0  0
  -26.0850  -30.9960   21.5150 C   0  0  0  0  0  2  0  0  0  0  0  0
  -26.2250  -29.6690   20.8000 C   0  0  0  0  0  0  0  0  0  0  0  0
  -27.4510  -28.9760   20.7780 C   0  0  0  0  0  3  0  0  0  0  0  0
  -26.4000  -27.1830   19.5050 C   0  0  0  0  0  3  0  0  0  0  0  0
  -25.1810  -27.8880   19.5130 C   0  0  0  0  0  3  0  0  0  0  0  0
  -23.8290  -29.9440   20.2310 C   0  0  0  0  0  2  0  0  0  0  0  0
  -24.8030  -31.1530   22.2370 N   0  0  0  0  0  0  0  0  0  0  0  0
  -23.5820  -32.0950   23.9010 O   0  0  0  0  0  0  0  0  0  0  0  0
  -22.9460  -29.4540   22.5350 C   0  0  0  0  0  0  0  0  0  0  0  0
  -21.6370  -29.3360   22.3480 N   0  0  0  0  0  0  0  0  0  0  0  0
  -23.6060  -28.7520   23.3020 O   0  0  0  0  0  0  0  0  0  0  0  0
  -21.2390  -30.0520   21.7540 H   0  0  0  0  0  0  0  0  0  0  0  0
  -18.2500  -27.7850   22.6070 C   0  0  0  0  0  0  0  0  0  0  0  0
  -20.7110  -28.2770   22.6530 C   0  0  0  0  0  3  0  0  0  0  0  0
  -21.0310  -26.8050   22.3750 C   0  0  0  0  0  2  0  0  0  0  0  0
  -19.9740  -26.2550   21.3920 C   0  0  0  0  0  2  0  0  0  0  0  0
  -18.5330  -26.4470   21.9170 C   0  0  0  0  0  2  0  0  0  0  0  0
  -19.3020  -28.6190   23.0630 C   0  0  0  0  0  0  0  0  0  0  0  0
  -19.0120  -29.8390   23.7070 C   0  0  0  0  0  3  0  0  0  0  0  0
  -17.6760  -30.2550   23.8520 C   0  0  0  0  0  3  0  0  0  0  0  0
  -16.6310  -29.4420   23.3780 C   0  0  0  0  0  3  0  0  0  0  0  0
  -16.9170  -28.2060   22.7690 C   0  0  0  0  0  3  0  0  0  0  0  0
  -25.9320  -32.5240   24.0630 C   0  0  0  0  0  3  0  0  0  0  0  0
  -26.4210  -31.7140   25.3250 C   0  0  1  0  0  0  0  0  0  0  0  0
  -25.2960  -31.4100   26.3400 C   0  0  0  0  0  1  0  0  0  0  0  0
  -27.0510  -30.3670   24.9010 C   0  0  0  0  0  1  0  0  0  0  0  0
  -27.5280  -32.5080   26.0570 C   0  0  0  0  0  1  0  0  0  0  0  0
  -25.5770  -33.9000   24.4290 N   0  0  0  0  0  0  0  0  0  0  0  0
  -25.9120  -34.9850   23.7180 C   0  0  0  0  0  0  0  0  0  0  0  0
  -26.6220  -34.9340   22.7100 O   0  0  0  0  0  0  0  0  0  0  0  0
  -24.9500  -34.0130   25.2120 H   0  0  0  0  0  0  0  0  0  0  0  0
  -24.1590  -36.7510   23.3480 C   0  0  0  0  0  1  0  0  0  0  0  0
  -25.3700  -36.3430   24.2020 C   0  0  0  0  0  3  0  0  0  0  0  0
  -27.4430  -37.2360   25.1680 C   0  0  0  0  0  1  0  0  0  0  0  0
  -26.3840  -37.4200   24.1800 N   0  0  0  0  0  0  0  0  0  0  0  0
  -25.9510  -38.3250   24.3450 H   0  0  0  0  0  0  0  0  0  0  0  0
  -27.5960  -20.8570   20.6930 O   0  0  0  0  0  0  0  0  0  0  0  0
  -28.7880  -20.9220   19.9080 C   0  0  0  0  0  2  0  0  0  0  0  0
  -29.8130  -19.8690   20.3700 C   0  0  0  0  0  2  0  0  0  0  0  0
  -29.1060  -18.6270   20.7540 N   0  0  0  0  0  4  0  0  0  0  0  0
  -28.8310  -18.6700   21.7240 H   0  0  0  0  0  0  0  0  0  0  0  0
  -28.2420  -18.6250   20.2300 H   0  0  0  0  0  0  0  0  0  0  0  0
  -29.7860  -17.3480   20.4740 C   0  0  0  0  0  2  0  0  0  0  0  0
  -30.7940  -16.9070   21.5620 C   0  0  0  0  0  2  0  0  0  0  0  0
  -31.4130  -14.6960   20.5520 C   0  0  0  0  0  0  0  0  0  0  0  0
  -31.0970  -12.5690   19.3340 C   0  0  0  0  0  2  0  0  0  0  0  0
  -30.1740  -12.7520   18.1120 C   0  0  0  0  0  2  0  0  0  0  0  0
  -28.6910  -12.6300   18.5110 C   0  0  0  0  0  2  0  0  0  0  0  0
  -28.3420  -13.5320   19.7200 C   0  0  0  0  0  3  0  0  0  0  0  0
  -29.3490  -13.2990   20.8690 C   0  0  0  0  0  2  0  0  0  0  0  0
  -30.7190  -13.5460   20.3640 N   0  0  0  0  0  0  0  0  0  0  0  0
  -32.3880  -15.0360   19.8720 O   0  0  0  0  0  0  0  0  0  0  0  0
  -30.9200  -15.4500   21.5400 N   0  0  0  0  0  0  0  0  0  0  0  0
  -30.2570  -14.9720   22.1350 H   0  0  0  0  0  0  0  0  0  0  0  0
  -25.9560  -14.2550   20.3860 C   0  0  0  0  0  0  0  0  0  0  0  0
  -24.8500  -13.5320   20.7380 C   0  0  0  0  0  0  0  0  0  0  0  0
  -25.2490  -12.1590   20.7100 C   0  0  0  0  0  0  0  0  0  0  0  0
  -26.9650  -13.3260   20.1660 N   0  0  0  0  0  0  0  0  0  0  0  0
  -26.5390  -12.0610   20.4140 N   0  0  0  0  0  0  0  0  0  0  0  0
  -24.4670  -10.9290   20.8850 C   0  0  0  0  0  0  0  0  0  0  0  0
  -24.8110   -9.9700   21.8620 C   0  0  0  0  0  3  0  0  0  0  0  0
  -24.0370   -8.8010   22.0230 C   0  0  0  0  0  3  0  0  0  0  0  0
  -22.9000   -8.5850   21.2040 C   0  0  0  0  0  0  0  0  0  0  0  0
  -22.5760   -9.5330   20.2190 C   0  0  0  0  0  3  0  0  0  0  0  0
  -23.3510  -10.6940   20.0590 C   0  0  0  0  0  3  0  0  0  0  0  0
  -22.1050   -7.4660   21.2710 O   0  0  0  0  0  0  0  0  0  0  0  0
  -21.9130   -6.7910   22.4490 C   0  0  0  0  0  0  0  0  0  0  0  0
  -21.3840   -7.4250   23.5950 C   0  0  0  0  0  3  0  0  0  0  0  0
  -21.1390   -6.6750   24.7630 C   0  0  0  0  0  3  0  0  0  0  0  0
  -21.4120   -5.2940   24.7850 C   0  0  0  0  0  0  0  0  0  0  0  0
  -21.9340   -4.6620   23.6440 C   0  0  0  0  0  3  0  0  0  0  0  0
  -22.1810   -5.4070   22.4770 C   0  0  0  0  0  0  0  0  0  0  0  0
  -22.6640   -4.7900   21.3730 F   0  0  0  0  0  0  0  0  0  0  0  0
  -21.1680   -4.5720   25.9030 F   0  0  0  0  0  0  0  0  0  0  0  0
  -23.4680  -14.0680   20.9860 C   0  0  0  0  0  0  0  0  0  0  0  0
  -22.7040  -13.4090   21.8450 N   0  0  0  0  0  0  0  0  0  0  0  0
  -23.0810  -15.1050   20.4500 O   0  0  0  0  0  0  0  0  0  0  0  0
  -23.0310  -12.5650   22.2930 H   0  0  0  0  0  0  0  0  0  0  0  0
  -21.7790  -13.7510   22.0610 H   0  0  0  0  0  0  0  0  0  0  0  0
  -26.1830  -15.6170   20.2070 N   0  0  0  0  0  0  0  0  0  0  0  0
  -25.4020  -16.2650   20.2220 H   0  0  0  0  0  0  0  0  0  0  0  0
  -26.9860  -15.9700   19.7070 H   0  0  0  0  0  0  0  0  0  0  0  0
  2  1  1  0
  2  3  1  0
  4  3  1  0
  5  4  1  0
  6  8  1  0
  6  5  1  0
  7 18  2  0
  8 13  1  0
  9 17  1  0
  9 19  1  0
 10 16  1  0
 10 12  1  0
 11 17  1  0
 12 11  1  0
 13 12  2  0
 14 15  1  0
 14  8  2  0
 15 10  2  0
 16  9  1  0
 17  7  1  0
 19 21  2  0
 20 19  1  0
 22 20  1  0
 23 32  2  0
 23 28  1  0
 24 20  1  0
 24 28  1  0
 25 24  1  0
 26 27  1  0
 26 25  1  0
 27 23  1  0
 28 29  2  0
 29 30  1  0
 31 30  2  0
 32 31  1  0
 33  7  1  0
 33 38  1  0
 33 34  1  0
 34 37  1  1
 34 35  1  0
 36 34  1  0
 38 41  1  0
 39 43  1  0
 39 38  1  0
 40 39  2  0
 43 42  1  0
 45 43  1  0
 45 46  1  0
 45 44  1  0
 47  1  1  0
 48 49  1  0
 48 47  1  0
 49 50  1  0
 50 51  1  0
 52 50  1  0
 53 50  1  0
 53 54  1  0
 55 63  1  0
 56 61  1  0
 57 58  1  0
 57 56  1  0
 59 58  1  0
 59 68  1  0
 59 60  1  0
 61 55  1  0
 61 60  1  0
 62 55  2  0
 63 54  1  0
 63 64  1  0
 65 66  2  0
 66 85  1  0
 67 66  1  0
 67 70  1  0
 68 65  1  0
 68 69  1  0
 69 67  2  0
 70 71  1  0
 71 72  2  0
 73 76  1  0
 73 72  1  0
 74 73  2  0
 75 74  1  0
 75 70  2  0
 76 77  1  0
 77 82  2  0
 77 78  1  0
 78 79  2  0
 79 80  1  0
 80 84  1  0
 81 80  2  0
 82 81  1  0
 83 82  1  0
 85 86  1  0
 86 89  1  0
 86 88  1  0
 87 85  2  0
 90 91  1  0
 90 65  1  0
 92 90  1  0
M  ISO  4   5 101   6 101  55 100  63 100
M  END
>  <TORSDO>  (68) 
F 26

>  <SCORE>  (68) 
-10.200

>  <name>  (68) 
70

>  <ligand_id>  (68) 
70

>  <original_smiles>  (68) 
[H]c1c([H])c([H])c2c(c1[H])C([H])([H])C([H])([H])C([H])([H])C2([H])N([H])C(=O)C1([H])N(C(=O)C([H])(N([H])C(=O)C([H])(N([H])C([H])([H])[H])C([H])([H])[H])C(C([H])([H])[H])(C([H])([H])[H])C([H])([H])[H])C([H])([H])c2c([H])c(OC([H])([H])C([H])([H])C([H])([H])C([H])([H])C([H])([H])OC([H])([H])C([H])([H])[N+]([H])([H])C([H])([H])C([H])([H])N([H])C(=O)N3C([H])([H])C([H])([H])C([H])([H])C([H])(n4nc(-c5c([H])c([H])c(Oc6c([H])c([H])c(F)c([H])c6F)c([H])c5[H])c(C(=O)N([H])[H])c4N([H])[H])C3([H])[H])c([H])c([H])c2C1([H])[H]

>  <smiles>  (68) 
[H]c1c([H])c([H])c2c(c1[H])C([H])([H])C([H])([H])C([H])([H])C2([H])N([H])C(=O)C1([H])N(C(=O)C([H])(N([H])C(=O)C([H])(N([H])C([H])([H])[H])C([H])([H])[H])C(C([H])([H])[H])(C([H])([H])[H])C([H])([H])[H])C([H])([H])c2c([H])c(OC([H])([H])C([H])([H])C([H])([H])C([H])([H])C([H])([H])OC([H])([H])C([H])([H])[N+]([H])([H])C([H])([H])C([H])([H])N([H])C(=O)N3C([H])([H])C([H])([H])C([H])([H])C([H])(n4nc(-c5c([H])c([H])c(Oc6c([H])c([H])c(F)c([H])c6F)c([H])c5[H])c(C(=O)N([H])[H])c4N([H])[H])C3([H])[H])c([H])c([H])c2C1([H])[H]

$$$$
71:0:0
     RDKit          3D

 96103  0  0  1  0  0  0  0  0999 V2000
  -29.3150  -22.1790   22.8800 N   0  0  0  0  0  4  0  0  0  0  0  0
  -28.5850  -22.3700   23.5480 H   0  0  0  0  0  0  0  0  0  0  0  0
  -30.1500  -22.6480   23.1960 H   0  0  0  0  0  0  0  0  0  0  0  0
  -29.5600  -20.7210   22.8260 C   0  0  0  0  0  2  0  0  0  0  0  0
  -30.8030  -20.3080   23.6200 C   0  0  0  0  0  2  0  0  0  0  0  0
  -30.7680  -18.8930   23.6970 O   0  0  0  0  0  0  0  0  0  0  0  0
  -32.0290  -18.2970   23.9440 C   0  0  0  0  0  2  0  0  0  0  0  0
  -31.8020  -16.8070   24.2490 C   0  0  0  0  0  2  0  0  0  0  0  0
  -31.7840  -15.8850   23.0140 C   0  0  0  0  0  2  0  0  0  0  0  0
  -30.4440  -15.8520   22.2540 C   0  0  0  0  0  2  0  0  0  0  0  0
  -30.2500  -14.5600   21.4440 C   0  0  0  0  0  2  0  0  0  0  0  0
  -29.9650  -14.0170   19.0580 C   0  0  0  0  0  0  0  0  0  0  0  0
  -29.5010  -11.7830   18.1220 C   0  0  0  0  0  2  0  0  0  0  0  0
  -28.3080  -11.7960   17.1480 C   0  0  0  0  0  2  0  0  0  0  0  0
  -26.9850  -11.5990   17.9110 C   0  0  0  0  0  2  0  0  0  0  0  0
  -26.8490  -12.5610   19.1190 C   0  0  0  0  0  3  0  0  0  0  0  0
  -28.1290  -12.5450   19.9830 C   0  0  0  0  0  2  0  0  0  0  0  0
  -29.3000  -12.8320   19.1300 N   0  0  0  0  0  0  0  0  0  0  0  0
  -30.6790  -14.3370   18.1060 O   0  0  0  0  0  0  0  0  0  0  0  0
  -29.8140  -14.8650   20.0820 N   0  0  0  0  0  0  0  0  0  0  0  0
  -30.0410  -15.8110   19.8120 H   0  0  0  0  0  0  0  0  0  0  0  0
  -24.7800  -13.1160   20.5520 C   0  0  0  0  0  0  0  0  0  0  0  0
  -23.8070  -12.3240   21.1030 C   0  0  0  0  0  0  0  0  0  0  0  0
  -24.1560  -10.9800   20.7640 C   0  0  0  0  0  0  0  0  0  0  0  0
  -25.6620  -12.2540   19.9190 N   0  0  0  0  0  0  0  0  0  0  0  0
  -25.3030  -10.9570   20.0970 N   0  0  0  0  0  0  0  0  0  0  0  0
  -23.4310   -9.7220   20.9830 C   0  0  0  0  0  0  0  0  0  0  0  0
  -23.8190   -8.8150   21.9940 C   0  0  0  0  0  3  0  0  0  0  0  0
  -23.0940   -7.6200   22.1980 C   0  0  0  0  0  3  0  0  0  0  0  0
  -21.9710   -7.3230   21.3900 C   0  0  0  0  0  0  0  0  0  0  0  0
  -21.6060   -8.2190   20.3690 C   0  0  0  0  0  3  0  0  0  0  0  0
  -22.3310   -9.4050   20.1650 C   0  0  0  0  0  3  0  0  0  0  0  0
  -21.2230   -6.1760   21.5000 O   0  0  0  0  0  0  0  0  0  0  0  0
  -20.5730   -5.8490   22.6630 C   0  0  0  0  0  0  0  0  0  0  0  0
  -19.7660   -6.7800   23.3540 C   0  0  0  0  0  3  0  0  0  0  0  0
  -19.0590   -6.3800   24.5040 C   0  0  0  0  0  3  0  0  0  0  0  0
  -19.1500   -5.0520   24.9630 C   0  0  0  0  0  0  0  0  0  0  0  0
  -19.9490   -4.1230   24.2740 C   0  0  0  0  0  3  0  0  0  0  0  0
  -20.6560   -4.5200   23.1250 C   0  0  0  0  0  0  0  0  0  0  0  0
  -21.4070   -3.6150   22.4530 F   0  0  0  0  0  0  0  0  0  0  0  0
  -18.4660   -4.6660   26.0650 F   0  0  0  0  0  0  0  0  0  0  0  0
  -22.5730  -12.7900   21.8200 C   0  0  0  0  0  0  0  0  0  0  0  0
  -22.1460  -12.0630   22.8470 N   0  0  0  0  0  0  0  0  0  0  0  0
  -22.0030  -13.8330   21.5010 O   0  0  0  0  0  0  0  0  0  0  0  0
  -22.6240  -11.2180   23.1260 H   0  0  0  0  0  0  0  0  0  0  0  0
  -21.3300  -12.3570   23.3640 H   0  0  0  0  0  0  0  0  0  0  0  0
  -24.9760  -14.4930   20.5190 N   0  0  0  0  0  0  0  0  0  0  0  0
  -24.3230  -15.1490   20.9340 H   0  0  0  0  0  0  0  0  0  0  0  0
  -25.7440  -14.9470   20.0400 H   0  0  0  0  0  0  0  0  0  0  0  0
  -28.9260  -22.7620   21.5830 C   0  0  0  0  0  2  0  0  0  0  0  0
  -28.9010  -24.2960   21.6560 C   0  0  0  0  0  2  0  0  0  0  0  0
  -28.8310  -24.8650   20.3170 N   0  0  0  0  0  0  0  0  0  0  0  0
  -28.0320  -24.4760   19.8200 H   0  0  0  0  0  0  0  0  0  0  0  0
  -28.6630  -26.3070   20.4150 C   0  0  0  0  0  2  0  0  0  0  0  0
  -28.7470  -26.9570   19.0240 C   0  0  0  0  0  2  0  0  0  0  0  0
  -28.4640  -28.3460   19.1380 O   0  0  0  0  0  0  0  0  0  0  0  0
  -24.4760  -31.9720   23.7490 C   0  0  0  0  0  0  0  0  0  0  0  0
  -27.1870  -28.7500   19.4630 C   0  0  0  0  0  0  0  0  0  0  0  0
  -23.2260  -30.7060   22.0300 C   0  0  0  0  0  3  0  0  0  0  0  0
  -24.6260  -29.7380   20.1340 C   0  0  0  0  0  0  0  0  0  0  0  0
  -25.5940  -31.5460   21.5640 C   0  0  0  0  0  2  0  0  0  0  0  0
  -25.7720  -30.3530   20.6510 C   0  0  0  0  0  0  0  0  0  0  0  0
  -27.0510  -29.8650   20.3150 C   0  0  0  0  0  3  0  0  0  0  0  0
  -26.0190  -28.1270   18.9590 C   0  0  0  0  0  3  0  0  0  0  0  0
  -24.7430  -28.6210   19.2900 C   0  0  0  0  0  3  0  0  0  0  0  0
  -23.2940  -30.3370   20.5240 C   0  0  0  0  0  2  0  0  0  0  0  0
  -24.4580  -31.4140   22.5060 N   0  0  0  0  0  0  0  0  0  0  0  0
  -23.4750  -31.9450   24.4780 O   0  0  0  0  0  0  0  0  0  0  0  0
  -22.9060  -29.4270   22.8340 C   0  0  0  0  0  0  0  0  0  0  0  0
  -21.7350  -28.8280   22.5620 N   0  0  0  0  0  0  0  0  0  0  0  0
  -23.7090  -28.9790   23.6570 O   0  0  0  0  0  0  0  0  0  0  0  0
  -21.1280  -29.2600   21.8790 H   0  0  0  0  0  0  0  0  0  0  0  0
  -19.1300  -26.3350   22.3660 C   0  0  0  0  0  0  0  0  0  0  0  0
  -21.2420  -27.5930   23.1680 C   0  0  0  0  0  3  0  0  0  0  0  0
  -22.0400  -26.3680   22.6640 C   0  0  0  0  0  2  0  0  0  0  0  0
  -21.4000  -25.6910   21.4480 C   0  0  0  0  0  2  0  0  0  0  0  0
  -19.9810  -25.2200   21.7790 C   0  0  0  0  0  2  0  0  0  0  0  0
  -19.7230  -27.4560   23.0040 C   0  0  0  0  0  0  0  0  0  0  0  0
  -18.8910  -28.4820   23.5000 C   0  0  0  0  0  3  0  0  0  0  0  0
  -17.4920  -28.4000   23.3710 C   0  0  0  0  0  3  0  0  0  0  0  0
  -16.9100  -27.2790   22.7520 C   0  0  0  0  0  3  0  0  0  0  0  0
  -17.7270  -26.2490   22.2550 C   0  0  0  0  0  3  0  0  0  0  0  0
  -25.7440  -32.6940   24.3040 C   0  0  0  0  0  3  0  0  0  0  0  0
  -26.2490  -32.0990   25.6760 C   0  0  1  0  0  0  0  0  0  0  0  0
  -25.1330  -31.9580   26.7370 C   0  0  0  0  0  1  0  0  0  0  0  0
  -26.8810  -30.7040   25.4640 C   0  0  0  0  0  1  0  0  0  0  0  0
  -27.3560  -33.0050   26.2660 C   0  0  0  0  0  1  0  0  0  0  0  0
  -25.4160  -34.1190   24.4410 N   0  0  0  0  0  0  0  0  0  0  0  0
  -25.8690  -35.0840   23.6300 C   0  0  0  0  0  0  0  0  0  0  0  0
  -26.6750  -34.8720   22.7190 O   0  0  0  0  0  0  0  0  0  0  0  0
  -24.7180  -34.3600   25.1300 H   0  0  0  0  0  0  0  0  0  0  0  0
  -24.2990  -36.8620   22.7940 C   0  0  0  0  0  1  0  0  0  0  0  0
  -25.3440  -36.5130   23.8650 C   0  0  0  0  0  3  0  0  0  0  0  0
  -27.2980  -37.4380   25.0290 C   0  0  0  0  0  1  0  0  0  0  0  0
  -26.4110  -37.5380   23.8730 N   0  0  0  0  0  0  0  0  0  0  0  0
  -26.0120  -38.4730   23.8600 H   0  0  0  0  0  0  0  0  0  0  0  0
  1  3  1  0
  1  2  1  0
  4  1  1  0
  4  5  1  0
  5  6  1  0
  6  7  1  0
  7  8  1  0
  9  8  1  0
 10  9  1  0
 11 10  1  0
 12 18  1  0
 12 20  1  0
 13 18  1  0
 14 15  1  0
 14 13  1  0
 16 15  1  0
 16 25  1  0
 16 17  1  0
 18 17  1  0
 19 12  2  0
 20 11  1  0
 21 20  1  0
 22 23  2  0
 23 42  1  0
 24 27  1  0
 24 23  1  0
 25 26  1  0
 25 22  1  0
 26 24  2  0
 27 28  1  0
 28 29  2  0
 30 33  1  0
 30 29  1  0
 31 30  2  0
 32 31  1  0
 32 27  2  0
 33 34  1  0
 34 39  2  0
 34 35  1  0
 35 36  2  0
 36 37  1  0
 37 41  1  0
 38 37  2  0
 39 38  1  0
 40 39  1  0
 42 43  1  0
 43 45  1  0
 43 46  1  0
 44 42  2  0
 47 22  1  0
 47 48  1  0
 49 47  1  0
 50 51  1  0
 50  1  1  0
 52 54  1  0
 52 51  1  0
 53 52  1  0
 55 56  1  0
 55 54  1  0
 56 58  1  0
 57 68  2  0
 58 63  1  0
 59 67  1  0
 59 69  1  0
 60 66  1  0
 60 62  1  0
 61 67  1  0
 62 61  1  0
 63 62  2  0
 64 65  1  0
 64 58  2  0
 65 60  2  0
 66 59  1  0
 67 57  1  0
 69 71  2  0
 70 69  1  0
 72 70  1  0
 73 78  1  0
 74 70  1  0
 75 74  1  0
 76 77  1  0
 76 75  1  0
 77 73  1  0
 78 74  1  0
 78 79  2  0
 80 79  1  0
 81 80  2  0
 82 73  2  0
 82 81  1  0
 83 57  1  0
 83 88  1  0
 83 84  1  0
 84 87  1  1
 84 85  1  0
 86 84  1  0
 88 91  1  0
 89 93  1  0
 89 88  1  0
 90 89  2  0
 93 92  1  0
 93 95  1  0
 95 94  1  0
 96 95  1  0
M  ISO  4  12 100  20 100  55 101  56 101
M  END
>  <TORSDO>  (69) 
F 29

>  <SCORE>  (69) 
2.841

>  <name>  (69) 
71

>  <ligand_id>  (69) 
71

>  <original_smiles>  (69) 
[H]c1c([H])c([H])c2c(c1[H])C([H])([H])C([H])([H])C([H])([H])C2([H])N([H])C(=O)C1([H])N(C(=O)C([H])(N([H])C(=O)C([H])(N([H])C([H])([H])[H])C([H])([H])[H])C(C([H])([H])[H])(C([H])([H])[H])C([H])([H])[H])C([H])([H])c2c([H])c(OC([H])([H])C([H])([H])N([H])C([H])([H])C([H])([H])[N+]([H])([H])C([H])([H])C([H])([H])OC([H])([H])C([H])([H])C([H])([H])C([H])([H])C([H])([H])N([H])C(=O)N3C([H])([H])C([H])([H])C([H])([H])C([H])(n4nc(-c5c([H])c([H])c(Oc6c([H])c([H])c(F)c([H])c6F)c([H])c5[H])c(C(=O)N([H])[H])c4N([H])[H])C3([H])[H])c([H])c([H])c2C1([H])[H]

>  <smiles>  (69) 
[H]c1c([H])c([H])c2c(c1[H])C([H])([H])C([H])([H])C([H])([H])C2([H])N([H])C(=O)C1([H])N(C(=O)C([H])(N([H])C(=O)C([H])(N([H])C([H])([H])[H])C([H])([H])[H])C(C([H])([H])[H])(C([H])([H])[H])C([H])([H])[H])C([H])([H])c2c([H])c(OC([H])([H])C([H])([H])N([H])C([H])([H])C([H])([H])[N+]([H])([H])C([H])([H])C([H])([H])OC([H])([H])C([H])([H])C([H])([H])C([H])([H])C([H])([H])N([H])C(=O)N3C([H])([H])C([H])([H])C([H])([H])C([H])(n4nc(-c5c([H])c([H])c(Oc6c([H])c([H])c(F)c([H])c6F)c([H])c5[H])c(C(=O)N([H])[H])c4N([H])[H])C3([H])[H])c([H])c([H])c2C1([H])[H]

$$$$
72:0:0
     RDKit          3D

 98105  0  0  1  0  0  0  0  0999 V2000
  -28.7980  -20.9150   26.0700 C   0  0  0  0  0  2  0  0  0  0  0  0
  -29.3240  -21.2660   24.7410 N   0  0  0  0  0  0  0  0  0  0  0  0
  -28.5910  -21.1120   24.0480 H   0  0  0  0  0  0  0  0  0  0  0  0
  -29.7950  -22.6390   24.6420 C   0  0  0  0  0  2  0  0  0  0  0  0
  -30.1540  -22.9940   23.1890 C   0  0  0  0  0  2  0  0  0  0  0  0
  -30.5560  -24.3940   23.0930 N   0  0  0  0  0  0  0  0  0  0  0  0
  -29.8600  -24.9760   23.5620 H   0  0  0  0  0  0  0  0  0  0  0  0
  -30.6980  -24.8640   21.7150 C   0  0  0  0  0  2  0  0  0  0  0  0
  -30.9960  -26.3700   21.6610 C   0  0  0  0  0  2  0  0  0  0  0  0
  -30.6690  -26.8480   20.3570 O   0  0  0  0  0  0  0  0  0  0  0  0
  -25.4970  -30.7300   23.2590 C   0  0  0  0  0  0  0  0  0  0  0  0
  -29.3790  -27.2990   20.2590 C   0  0  0  0  0  0  0  0  0  0  0  0
  -24.8080  -29.2140   21.4250 C   0  0  0  0  0  3  0  0  0  0  0  0
  -26.7090  -28.1700   20.0800 C   0  0  0  0  0  0  0  0  0  0  0  0
  -27.1730  -30.1750   21.5070 C   0  0  0  0  0  2  0  0  0  0  0  0
  -27.6400  -28.9130   20.8160 C   0  0  0  0  0  0  0  0  0  0  0  0
  -28.9770  -28.4820   20.9110 C   0  0  0  0  0  3  0  0  0  0  0  0
  -28.4440  -26.5620   19.5060 C   0  0  0  0  0  3  0  0  0  0  0  0
  -27.1040  -26.9900   19.4200 C   0  0  0  0  0  3  0  0  0  0  0  0
  -25.2940  -28.7010   20.0410 C   0  0  0  0  0  2  0  0  0  0  0  0
  -25.8350  -30.0510   22.1260 N   0  0  0  0  0  0  0  0  0  0  0  0
  -24.3370  -30.7060   23.6960 O   0  0  0  0  0  0  0  0  0  0  0  0
  -24.3360  -28.0010   22.2590 C   0  0  0  0  0  0  0  0  0  0  0  0
  -23.1310  -27.5030   21.9510 N   0  0  0  0  0  0  0  0  0  0  0  0
  -25.0590  -27.5150   23.1330 O   0  0  0  0  0  0  0  0  0  0  0  0
  -22.6020  -27.9630   21.2230 H   0  0  0  0  0  0  0  0  0  0  0  0
  -20.1400  -25.4800   21.9430 C   0  0  0  0  0  0  0  0  0  0  0  0
  -22.4940  -26.3420   22.5710 C   0  0  0  0  0  3  0  0  0  0  0  0
  -23.0270  -25.0240   21.9620 C   0  0  0  0  0  2  0  0  0  0  0  0
  -22.1760  -24.5100   20.7970 C   0  0  0  0  0  2  0  0  0  0  0  0
  -20.7350  -24.2640   21.2520 C   0  0  0  0  0  2  0  0  0  0  0  0
  -20.9670  -26.4630   22.5470 C   0  0  0  0  0  0  0  0  0  0  0  0
  -20.3650  -27.5940   23.1430 C   0  0  0  0  0  3  0  0  0  0  0  0
  -18.9650  -27.7470   23.1460 C   0  0  0  0  0  3  0  0  0  0  0  0
  -18.1510  -26.7610   22.5630 C   0  0  0  0  0  3  0  0  0  0  0  0
  -18.7370  -25.6300   21.9680 C   0  0  0  0  0  3  0  0  0  0  0  0
  -26.5410  -31.5870   24.0430 C   0  0  0  0  0  3  0  0  0  0  0  0
  -27.0050  -30.9190   25.3940 C   0  0  1  0  0  0  0  0  0  0  0  0
  -25.8310  -30.4690   26.2970 C   0  0  0  0  0  1  0  0  0  0  0  0
  -27.8910  -29.6830   25.1110 C   0  0  0  0  0  1  0  0  0  0  0  0
  -27.8780  -31.9110   26.2000 C   0  0  0  0  0  1  0  0  0  0  0  0
  -25.9370  -32.9010   24.2940 N   0  0  0  0  0  0  0  0  0  0  0  0
  -26.1870  -34.0020   23.5710 C   0  0  0  0  0  0  0  0  0  0  0  0
  -27.0190  -34.0310   22.6600 O   0  0  0  0  0  0  0  0  0  0  0  0
  -25.2080  -32.9400   24.9920 H   0  0  0  0  0  0  0  0  0  0  0  0
  -24.2440  -35.4440   22.9020 C   0  0  0  0  0  1  0  0  0  0  0  0
  -25.3880  -35.2720   23.9150 C   0  0  0  0  0  3  0  0  0  0  0  0
  -27.1540  -36.5230   25.0710 C   0  0  0  0  0  1  0  0  0  0  0  0
  -26.2170  -36.4970   23.9500 N   0  0  0  0  0  0  0  0  0  0  0  0
  -25.6320  -37.3260   24.0090 H   0  0  0  0  0  0  0  0  0  0  0  0
  -28.6770  -19.3900   26.1630 C   0  0  0  0  0  2  0  0  0  0  0  0
  -29.2860  -18.8490   24.9530 N   0  0  0  0  0  0  0  0  0  0  0  0
  -29.0860  -19.6030   24.2810 H   0  0  0  0  0  0  0  0  0  0  0  0
  -30.7390  -18.6190   25.0170 C   0  0  0  0  0  2  0  0  0  0  0  0
  -31.2880  -18.4400   23.5950 C   0  0  0  0  0  2  0  0  0  0  0  0
  -30.3540  -17.5930   22.8260 N   0  0  0  0  0  4  0  0  0  0  0  0
  -30.2560  -16.6950   23.2650 H   0  0  0  0  0  0  0  0  0  0  0  0
  -29.4660  -18.0630   22.9510 H   0  0  0  0  0  0  0  0  0  0  0  0
  -30.6680  -17.4490   21.3900 C   0  0  0  0  0  2  0  0  0  0  0  0
  -31.4380  -16.1460   21.1120 C   0  0  0  0  0  2  0  0  0  0  0  0
  -30.6000  -14.3950   19.5450 C   0  0  0  0  0  0  0  0  0  0  0  0
  -30.2400  -12.1270   18.6470 C   0  0  0  0  0  2  0  0  0  0  0  0
  -29.1490  -12.0360   17.5680 C   0  0  0  0  0  2  0  0  0  0  0  0
  -27.7680  -11.8430   18.2160 C   0  0  0  0  0  2  0  0  0  0  0  0
  -27.4880  -12.9000   19.3110 C   0  0  0  0  0  3  0  0  0  0  0  0
  -28.6640  -12.9900   20.3090 C   0  0  0  0  0  2  0  0  0  0  0  0
  -29.9140  -13.2280   19.5640 N   0  0  0  0  0  0  0  0  0  0  0  0
  -31.3670  -14.7270   18.6350 O   0  0  0  0  0  0  0  0  0  0  0  0
  -30.5540  -15.0520   20.7120 N   0  0  0  0  0  0  0  0  0  0  0  0
  -29.9690  -14.6330   21.4210 H   0  0  0  0  0  0  0  0  0  0  0  0
  -25.2810  -13.5270   20.4840 C   0  0  0  0  0  0  0  0  0  0  0  0
  -24.2540  -12.7600   20.9710 C   0  0  0  0  0  0  0  0  0  0  0  0
  -24.6360  -11.4020   20.7430 C   0  0  0  0  0  0  0  0  0  0  0  0
  -26.2240  -12.6350   19.9960 N   0  0  0  0  0  0  0  0  0  0  0  0
  -25.8480  -11.3470   20.2080 N   0  0  0  0  0  0  0  0  0  0  0  0
  -23.8930  -10.1540   20.9540 C   0  0  0  0  0  0  0  0  0  0  0  0
  -24.3590   -9.1590   21.8430 C   0  0  0  0  0  3  0  0  0  0  0  0
  -23.6180   -7.9730   22.0390 C   0  0  0  0  0  3  0  0  0  0  0  0
  -22.4000   -7.7740   21.3480 C   0  0  0  0  0  0  0  0  0  0  0  0
  -21.9530   -8.7580   20.4480 C   0  0  0  0  0  3  0  0  0  0  0  0
  -22.6930   -9.9350   20.2490 C   0  0  0  0  0  3  0  0  0  0  0  0
  -21.6260   -6.6430   21.4570 O   0  0  0  0  0  0  0  0  0  0  0  0
  -21.5180   -5.9570   22.6400 C   0  0  0  0  0  0  0  0  0  0  0  0
  -21.0400   -6.5720   23.8170 C   0  0  0  0  0  3  0  0  0  0  0  0
  -20.8770   -5.8110   24.9920 C   0  0  0  0  0  3  0  0  0  0  0  0
  -21.1850   -4.4380   24.9910 C   0  0  0  0  0  0  0  0  0  0  0  0
  -21.6550   -3.8220   23.8180 C   0  0  0  0  0  3  0  0  0  0  0  0
  -21.8200   -4.5800   22.6450 C   0  0  0  0  0  0  0  0  0  0  0  0
  -22.2530   -3.9780   21.5120 F   0  0  0  0  0  0  0  0  0  0  0  0
  -21.0210   -3.7060   26.1180 F   0  0  0  0  0  0  0  0  0  0  0  0
  -22.9520  -13.2580   21.5280 C   0  0  0  0  0  0  0  0  0  0  0  0
  -22.3640  -12.5190   22.4640 N   0  0  0  0  0  0  0  0  0  0  0  0
  -22.4740  -14.3330   21.1710 O   0  0  0  0  0  0  0  0  0  0  0  0
  -22.7640  -11.6440   22.7670 H   0  0  0  0  0  0  0  0  0  0  0  0
  -21.5010  -12.8350   22.8820 H   0  0  0  0  0  0  0  0  0  0  0  0
  -25.4800  -14.9000   20.3990 N   0  0  0  0  0  0  0  0  0  0  0  0
  -24.7790  -15.5700   20.6960 H   0  0  0  0  0  0  0  0  0  0  0  0
  -26.2930  -15.3390   19.9840 H   0  0  0  0  0  0  0  0  0  0  0  0
  1 51  1  0
  2  1  1  0
  3  2  1  0
  4  2  1  0
  5  4  1  0
  6  5  1  0
  6  7  1  0
  8  6  1  0
  9  8  1  0
 10  9  1  0
 11 22  2  0
 12 10  1  0
 12 17  1  0
 13 21  1  0
 13 23  1  0
 14 16  1  0
 15 21  1  0
 16 17  2  0
 16 15  1  0
 18 12  2  0
 19 18  1  0
 19 14  2  0
 20 14  1  0
 20 13  1  0
 21 11  1  0
 23 25  2  0
 24 23  1  0
 26 24  1  0
 27 36  2  0
 27 32  1  0
 28 24  1  0
 29 28  1  0
 30 31  1  0
 30 29  1  0
 31 27  1  0
 32 28  1  0
 32 33  2  0
 33 34  1  0
 35 34  2  0
 36 35  1  0
 37 11  1  0
 37 42  1  0
 37 38  1  0
 38 41  1  1
 38 39  1  0
 40 38  1  0
 42 45  1  0
 43 47  1  0
 43 42  1  0
 44 43  2  0
 47 46  1  0
 47 49  1  0
 49 50  1  0
 49 48  1  0
 52 54  1  0
 52 51  1  0
 53 52  1  0
 55 54  1  0
 56 58  1  0
 56 57  1  0
 56 55  1  0
 59 56  1  0
 60 59  1  0
 61 67  1  0
 61 69  1  0
 62 67  1  0
 63 64  1  0
 63 62  1  0
 65 64  1  0
 65 74  1  0
 65 66  1  0
 67 66  1  0
 68 61  2  0
 69 60  1  0
 69 70  1  0
 71 72  2  0
 72 91  1  0
 73 76  1  0
 73 72  1  0
 74 75  1  0
 74 71  1  0
 75 73  2  0
 76 77  1  0
 77 78  2  0
 79 82  1  0
 79 78  1  0
 80 79  2  0
 81 80  1  0
 81 76  2  0
 82 83  1  0
 83 88  2  0
 83 84  1  0
 84 85  2  0
 86 85  1  0
 86 90  1  0
 87 86  2  0
 88 87  1  0
 89 88  1  0
 91 92  1  0
 92 94  1  0
 92 95  1  0
 93 91  2  0
 96 71  1  0
 96 97  1  0
 98 96  1  0
M  ISO  4   9 101  10 101  61 100  69 100
M  END
>  <TORSDO>  (70) 
F 29

>  <SCORE>  (70) 
0.437

>  <name>  (70) 
72

>  <ligand_id>  (70) 
72

>  <original_smiles>  (70) 
[H]c1c([H])c([H])c2c(c1[H])C([H])([H])C([H])([H])C([H])([H])C2([H])N([H])C(=O)C1([H])N(C(=O)C([H])(N([H])C(=O)C([H])(N([H])C([H])([H])[H])C([H])([H])[H])C(C([H])([H])[H])(C([H])([H])[H])C([H])([H])[H])C([H])([H])c2c([H])c(OC([H])([H])C([H])([H])N([H])C([H])([H])C([H])([H])N([H])C([H])([H])C([H])([H])N([H])C([H])([H])C([H])([H])[N+]([H])([H])C([H])([H])C([H])([H])N([H])C(=O)N3C([H])([H])C([H])([H])C([H])([H])C([H])(n4nc(-c5c([H])c([H])c(Oc6c([H])c([H])c(F)c([H])c6F)c([H])c5[H])c(C(=O)N([H])[H])c4N([H])[H])C3([H])[H])c([H])c([H])c2C1([H])[H]

>  <smiles>  (70) 
[H]c1c([H])c([H])c2c(c1[H])C([H])([H])C([H])([H])C([H])([H])C2([H])N([H])C(=O)C1([H])N(C(=O)C([H])(N([H])C(=O)C([H])(N([H])C([H])([H])[H])C([H])([H])[H])C(C([H])([H])[H])(C([H])([H])[H])C([H])([H])[H])C([H])([H])c2c([H])c(OC([H])([H])C([H])([H])N([H])C([H])([H])C([H])([H])N([H])C([H])([H])C([H])([H])N([H])C([H])([H])C([H])([H])[N+]([H])([H])C([H])([H])C([H])([H])N([H])C(=O)N3C([H])([H])C([H])([H])C([H])([H])C([H])(n4nc(-c5c([H])c([H])c(Oc6c([H])c([H])c(F)c([H])c6F)c([H])c5[H])c(C(=O)N([H])[H])c4N([H])[H])C3([H])[H])c([H])c([H])c2C1([H])[H]

$$$$
73:0:0
     RDKit          3D

 91 98  0  0  1  0  0  0  0  0999 V2000
  -29.5630  -24.0240   21.1430 N   0  0  0  0  0  4  0  0  0  0  0  0
  -28.8770  -23.9060   21.8710 H   0  0  0  0  0  0  0  0  0  0  0  0
  -29.0800  -23.8890   20.2680 H   0  0  0  0  0  0  0  0  0  0  0  0
  -30.5530  -22.9230   21.2940 C   0  0  0  0  0  2  0  0  0  0  0  0
  -29.8450  -21.5610   21.1990 C   0  0  0  0  0  0  0  0  0  0  0  0
  -28.6360  -21.4890   20.9370 O   0  0  0  0  0  0  0  0  0  0  0  0
  -30.6840  -20.2910   21.4530 C   0  0  0  0  0  2  0  0  0  0  0  0
  -30.0220  -19.1450   20.9050 O   0  0  0  0  0  0  0  0  0  0  0  0
  -30.5820  -17.8820   21.2650 C   0  0  0  0  0  2  0  0  0  0  0  0
  -29.7570  -16.8060   20.5270 C   0  0  0  0  0  2  0  0  0  0  0  0
  -30.6260  -14.4720   20.5180 C   0  0  0  0  0  0  0  0  0  0  0  0
  -30.3690  -12.3240   19.3420 C   0  0  0  0  0  2  0  0  0  0  0  0
  -29.4250  -12.5520   18.1400 C   0  0  0  0  0  2  0  0  0  0  0  0
  -27.9470  -12.4160   18.5600 C   0  0  0  0  0  2  0  0  0  0  0  0
  -27.6090  -13.2250   19.8420 C   0  0  0  0  0  3  0  0  0  0  0  0
  -28.6600  -12.9540   20.9460 C   0  0  0  0  0  2  0  0  0  0  0  0
  -29.9910  -13.2750   20.3990 N   0  0  0  0  0  0  0  0  0  0  0  0
  -31.7180  -14.7220   20.0040 O   0  0  0  0  0  0  0  0  0  0  0  0
  -29.8660  -15.4400   21.0530 N   0  0  0  0  0  0  0  0  0  0  0  0
  -29.0460  -15.1020   21.5350 H   0  0  0  0  0  0  0  0  0  0  0  0
  -25.2000  -13.8390   20.5200 C   0  0  0  0  0  0  0  0  0  0  0  0
  -24.1280  -13.0690   20.8880 C   0  0  0  0  0  0  0  0  0  0  0  0
  -24.5920  -11.7170   20.8700 C   0  0  0  0  0  0  0  0  0  0  0  0
  -26.2480  -12.9570   20.3060 N   0  0  0  0  0  0  0  0  0  0  0  0
  -25.8840  -11.6760   20.5700 N   0  0  0  0  0  0  0  0  0  0  0  0
  -23.8650  -10.4570   21.0630 C   0  0  0  0  0  0  0  0  0  0  0  0
  -24.3070   -9.4860   21.9910 C   0  0  0  0  0  3  0  0  0  0  0  0
  -23.5840   -8.2890   22.1720 C   0  0  0  0  0  3  0  0  0  0  0  0
  -22.4050   -8.0510   21.4270 C   0  0  0  0  0  0  0  0  0  0  0  0
  -21.9820   -9.0090   20.4890 C   0  0  0  0  0  3  0  0  0  0  0  0
  -22.7070  -10.1990   20.3050 C   0  0  0  0  0  3  0  0  0  0  0  0
  -21.6520   -6.9050   21.5190 O   0  0  0  0  0  0  0  0  0  0  0  0
  -21.6290   -6.1490   22.6640 C   0  0  0  0  0  0  0  0  0  0  0  0
  -21.2390   -6.6940   23.9070 C   0  0  0  0  0  3  0  0  0  0  0  0
  -21.1580   -5.8650   25.0440 C   0  0  0  0  0  3  0  0  0  0  0  0
  -21.4590   -4.4940   24.9390 C   0  0  0  0  0  0  0  0  0  0  0  0
  -21.8430   -3.9490   23.7020 C   0  0  0  0  0  3  0  0  0  0  0  0
  -21.9230   -4.7750   22.5660 C   0  0  0  0  0  0  0  0  0  0  0  0
  -22.2720   -4.2410   21.3700 F   0  0  0  0  0  0  0  0  0  0  0  0
  -21.3750   -3.6950   26.0290 F   0  0  0  0  0  0  0  0  0  0  0  0
  -22.7290  -13.5460   21.1510 C   0  0  0  0  0  0  0  0  0  0  0  0
  -21.9960  -12.8550   22.0180 N   0  0  0  0  0  0  0  0  0  0  0  0
  -22.2910  -14.5660   20.6210 O   0  0  0  0  0  0  0  0  0  0  0  0
  -22.3640  -12.0300   22.4700 H   0  0  0  0  0  0  0  0  0  0  0  0
  -21.0550  -13.1530   22.2310 H   0  0  0  0  0  0  0  0  0  0  0  0
  -25.3640  -15.2080   20.3320 N   0  0  0  0  0  0  0  0  0  0  0  0
  -24.5960  -15.8640   20.4220 H   0  0  0  0  0  0  0  0  0  0  0  0
  -26.2170  -15.6390   19.9980 H   0  0  0  0  0  0  0  0  0  0  0  0
  -30.1530  -25.3910   21.1970 C   0  0  0  0  0  2  0  0  0  0  0  0
  -29.1100  -26.5270   21.3000 C   0  0  0  0  0  2  0  0  0  0  0  0
  -28.3830  -26.6690   20.0790 O   0  0  0  0  0  0  0  0  0  0  0  0
  -24.6130  -31.8830   23.2210 C   0  0  0  0  0  0  0  0  0  0  0  0
  -27.2480  -27.4480   20.1320 C   0  0  0  0  0  0  0  0  0  0  0  0
  -23.3940  -30.4770   21.5870 C   0  0  0  0  0  3  0  0  0  0  0  0
  -24.8430  -28.9380   20.1550 C   0  0  0  0  0  0  0  0  0  0  0  0
  -25.9140  -30.8410   21.3710 C   0  0  0  0  0  2  0  0  0  0  0  0
  -26.0000  -29.4660   20.7420 C   0  0  0  0  0  0  0  0  0  0  0  0
  -27.2030  -28.7260   20.7410 C   0  0  0  0  0  3  0  0  0  0  0  0
  -26.0810  -26.9400   19.5290 C   0  0  0  0  0  3  0  0  0  0  0  0
  -24.8760  -27.6700   19.5490 C   0  0  0  0  0  3  0  0  0  0  0  0
  -23.5960  -29.7940   20.2070 C   0  0  0  0  0  2  0  0  0  0  0  0
  -24.6580  -31.0810   22.1200 N   0  0  0  0  0  0  0  0  0  0  0  0
  -23.5370  -32.1560   23.7690 O   0  0  0  0  0  0  0  0  0  0  0  0
  -22.7500  -29.4580   22.5560 C   0  0  0  0  0  0  0  0  0  0  0  0
  -21.4250  -29.2720   22.4350 N   0  0  0  0  0  0  0  0  0  0  0  0
  -23.4400  -28.8360   23.3680 O   0  0  0  0  0  0  0  0  0  0  0  0
  -20.9310  -29.8270   21.7500 H   0  0  0  0  0  0  0  0  0  0  0  0
  -18.0590  -28.0690   22.9480 C   0  0  0  0  0  0  0  0  0  0  0  0
  -20.6160  -28.3350   23.2120 C   0  0  0  0  0  3  0  0  0  0  0  0
  -20.7220  -26.9030   22.6410 C   0  0  0  0  0  2  0  0  0  0  0  0
  -19.6190  -26.5730   21.6310 C   0  0  0  0  0  2  0  0  0  0  0  0
  -18.2380  -26.7180   22.2780 C   0  0  0  0  0  2  0  0  0  0  0  0
  -19.1770  -28.8360   23.3730 C   0  0  0  0  0  0  0  0  0  0  0  0
  -18.9570  -30.1010   23.9600 C   0  0  0  0  0  3  0  0  0  0  0  0
  -17.6530  -30.6010   24.1250 C   0  0  0  0  0  3  0  0  0  0  0  0
  -16.5490  -29.8320   23.7180 C   0  0  0  0  0  3  0  0  0  0  0  0
  -16.7520  -28.5680   23.1360 C   0  0  0  0  0  3  0  0  0  0  0  0
  -25.9060  -32.5130   23.8280 C   0  0  0  0  0  3  0  0  0  0  0  0
  -25.6010  -33.9100   24.1640 N   0  0  0  0  0  0  0  0  0  0  0  0
  -25.9260  -34.9620   23.4010 C   0  0  0  0  0  0  0  0  0  0  0  0
  -26.5850  -34.8590   22.3630 O   0  0  0  0  0  0  0  0  0  0  0  0
  -25.0170  -34.0650   24.9720 H   0  0  0  0  0  0  0  0  0  0  0  0
  -24.1920  -36.7520   23.0610 C   0  0  0  0  0  1  0  0  0  0  0  0
  -25.4400  -36.3490   23.8630 C   0  0  0  0  0  3  0  0  0  0  0  0
  -27.5840  -37.2310   24.6720 C   0  0  0  0  0  1  0  0  0  0  0  0
  -26.4710  -37.4040   23.7430 N   0  0  0  0  0  0  0  0  0  0  0  0
  -26.0660  -38.3230   23.9030 H   0  0  0  0  0  0  0  0  0  0  0  0
  -26.4400  -31.7370   25.0940 C   0  0  1  0  0  0  0  0  0  0  0  0
  -25.3630  -31.4970   26.1760 C   0  0  0  0  0  1  0  0  0  0  0  0
  -27.0170  -30.3600   24.6870 C   0  0  0  0  0  1  0  0  0  0  0  0
  -27.6010  -32.5280   25.7430 C   0  0  0  0  0  1  0  0  0  0  0  0
  1 49  1  0
  1  4  1  0
  1  2  1  0
  3  1  1  0
  5  4  1  0
  5  7  1  0
  6  5  2  0
  8  9  1  0
  8  7  1  0
 10 19  1  0
 10  9  1  0
 11 19  1  0
 12 17  1  0
 13 14  1  0
 13 12  1  0
 15 14  1  0
 15 24  1  0
 15 16  1  0
 17 11  1  0
 17 16  1  0
 18 11  2  0
 19 20  1  0
 21 22  2  0
 22 41  1  0
 23 22  1  0
 23 26  1  0
 24 21  1  0
 24 25  1  0
 25 23  2  0
 26 27  1  0
 27 28  2  0
 29 32  1  0
 29 28  1  0
 30 29  2  0
 31 30  1  0
 31 26  2  0
 32 33  1  0
 33 34  1  0
 34 35  2  0
 36 35  1  0
 36 40  1  0
 37 36  2  0
 38 33  2  0
 38 37  1  0
 39 38  1  0
 41 42  1  0
 42 45  1  0
 42 44  1  0
 43 41  2  0
 46 47  1  0
 46 21  1  0
 48 46  1  0
 49 50  1  0
 51 53  1  0
 51 50  1  0
 52 63  2  0
 53 58  1  0
 54 62  1  0
 54 64  1  0
 55 61  1  0
 55 57  1  0
 56 62  1  0
 57 56  1  0
 58 57  2  0
 59 60  1  0
 59 53  2  0
 60 55  2  0
 61 54  1  0
 62 52  1  0
 64 66  2  0
 65 64  1  0
 67 65  1  0
 68 77  2  0
 68 73  1  0
 69 65  1  0
 69 73  1  0
 70 69  1  0
 71 72  1  0
 71 70  1  0
 72 68  1  0
 73 74  2  0
 74 75  1  0
 76 75  2  0
 77 76  1  0
 78 52  1  0
 78 79  1  0
 78 88  1  0
 79 82  1  0
 80 84  1  0
 80 79  1  0
 81 80  2  0
 84 83  1  0
 86 84  1  0
 86 87  1  0
 86 85  1  0
 88 91  1  1
 88 89  1  0
 90 88  1  0
M  ISO  4  11 100  19 100  50 101  51 101
M  END
>  <TORSDO>  (71) 
F 24

>  <SCORE>  (71) 
-12.549

>  <name>  (71) 
73

>  <ligand_id>  (71) 
73

>  <original_smiles>  (71) 
[H]c1c([H])c([H])c2c(c1[H])C([H])([H])C([H])([H])C([H])([H])C2([H])N([H])C(=O)C1([H])N(C(=O)C([H])(N([H])C(=O)C([H])(N([H])C([H])([H])[H])C([H])([H])[H])C(C([H])([H])[H])(C([H])([H])[H])C([H])([H])[H])C([H])([H])c2c([H])c(OC([H])([H])C([H])([H])[N+]([H])([H])C([H])([H])C(=O)C([H])([H])OC([H])([H])C([H])([H])N([H])C(=O)N3C([H])([H])C([H])([H])C([H])([H])C([H])(n4nc(-c5c([H])c([H])c(Oc6c([H])c([H])c(F)c([H])c6F)c([H])c5[H])c(C(=O)N([H])[H])c4N([H])[H])C3([H])[H])c([H])c([H])c2C1([H])[H]

>  <smiles>  (71) 
[H]c1c([H])c([H])c2c(c1[H])C([H])([H])C([H])([H])C([H])([H])C2([H])N([H])C(=O)C1([H])N(C(=O)C([H])(N([H])C(=O)C([H])(N([H])C([H])([H])[H])C([H])([H])[H])C(C([H])([H])[H])(C([H])([H])[H])C([H])([H])[H])C([H])([H])c2c([H])c(OC([H])([H])C([H])([H])[N+]([H])([H])C([H])([H])C(=O)C([H])([H])OC([H])([H])C([H])([H])N([H])C(=O)N3C([H])([H])C([H])([H])C([H])([H])C([H])(n4nc(-c5c([H])c([H])c(Oc6c([H])c([H])c(F)c([H])c6F)c([H])c5[H])c(C(=O)N([H])[H])c4N([H])[H])C3([H])[H])c([H])c([H])c2C1([H])[H]

$$$$
74:0:0
     RDKit          3D

 90 97  0  0  1  0  0  0  0  0999 V2000
  -29.4520  -20.7300   20.1690 C   0  0  0  0  0  2  0  0  0  0  0  0
  -30.5630  -19.8380   20.7530 C   0  0  0  0  0  2  0  0  0  0  0  0
  -30.2370  -18.3850   20.7680 N   0  0  0  0  0  4  0  0  0  0  0  0
  -29.4690  -18.2290   21.4010 H   0  0  0  0  0  0  0  0  0  0  0  0
  -29.9450  -18.0790   19.8520 H   0  0  0  0  0  0  0  0  0  0  0  0
  -31.3750  -17.5400   21.1990 C   0  0  0  0  0  2  0  0  0  0  0  0
  -30.9590  -16.3160   22.0490 C   0  0  0  0  0  2  0  0  0  0  0  0
  -30.7180  -14.4220   20.4400 C   0  0  0  0  0  0  0  0  0  0  0  0
  -30.3210  -12.3700   19.1270 C   0  0  0  0  0  2  0  0  0  0  0  0
  -29.3560  -12.6440   17.9590 C   0  0  0  0  0  2  0  0  0  0  0  0
  -27.8910  -12.4990   18.4170 C   0  0  0  0  0  2  0  0  0  0  0  0
  -27.5960  -13.2880   19.7200 C   0  0  0  0  0  3  0  0  0  0  0  0
  -28.6660  -12.9940   20.7930 C   0  0  0  0  0  2  0  0  0  0  0  0
  -29.9870  -13.3000   20.2150 N   0  0  0  0  0  0  0  0  0  0  0  0
  -31.7780  -14.6730   19.8600 O   0  0  0  0  0  0  0  0  0  0  0  0
  -30.2120  -15.2640   21.3530 N   0  0  0  0  0  0  0  0  0  0  0  0
  -29.3260  -14.9900   21.7540 H   0  0  0  0  0  0  0  0  0  0  0  0
  -25.2050  -13.9020   20.4570 C   0  0  0  0  0  0  0  0  0  0  0  0
  -24.1410  -13.1310   20.8420 C   0  0  0  0  0  0  0  0  0  0  0  0
  -24.6000  -11.7790   20.8070 C   0  0  0  0  0  0  0  0  0  0  0  0
  -26.2460  -13.0190   20.2150 N   0  0  0  0  0  0  0  0  0  0  0  0
  -25.8860  -11.7370   20.4820 N   0  0  0  0  0  0  0  0  0  0  0  0
  -23.8760  -10.5180   21.0100 C   0  0  0  0  0  0  0  0  0  0  0  0
  -24.3260   -9.5490   21.9330 C   0  0  0  0  0  3  0  0  0  0  0  0
  -23.6040   -8.3510   22.1220 C   0  0  0  0  0  3  0  0  0  0  0  0
  -22.4180   -8.1140   21.3880 C   0  0  0  0  0  0  0  0  0  0  0  0
  -21.9870   -9.0710   20.4520 C   0  0  0  0  0  3  0  0  0  0  0  0
  -22.7100  -10.2600   20.2610 C   0  0  0  0  0  3  0  0  0  0  0  0
  -21.6640   -6.9690   21.4880 O   0  0  0  0  0  0  0  0  0  0  0  0
  -21.6420   -6.2200   22.6360 C   0  0  0  0  0  0  0  0  0  0  0  0
  -21.2540   -6.7710   23.8770 C   0  0  0  0  0  3  0  0  0  0  0  0
  -21.1790   -5.9480   25.0190 C   0  0  0  0  0  3  0  0  0  0  0  0
  -21.4800   -4.5760   24.9200 C   0  0  0  0  0  0  0  0  0  0  0  0
  -21.8610   -4.0250   23.6840 C   0  0  0  0  0  3  0  0  0  0  0  0
  -21.9380   -4.8450   22.5450 C   0  0  0  0  0  0  0  0  0  0  0  0
  -22.2850   -4.3060   21.3520 F   0  0  0  0  0  0  0  0  0  0  0  0
  -21.4000   -3.7840   26.0150 F   0  0  0  0  0  0  0  0  0  0  0  0
  -22.7470  -13.6100   21.1330 C   0  0  0  0  0  0  0  0  0  0  0  0
  -22.0320  -12.9150   22.0090 N   0  0  0  0  0  0  0  0  0  0  0  0
  -22.3030  -14.6340   20.6170 O   0  0  0  0  0  0  0  0  0  0  0  0
  -22.4040  -12.0870   22.4490 H   0  0  0  0  0  0  0  0  0  0  0  0
  -21.0960  -13.2160   22.2460 H   0  0  0  0  0  0  0  0  0  0  0  0
  -25.3680  -15.2710   20.2740 N   0  0  0  0  0  0  0  0  0  0  0  0
  -24.6030  -15.9260   20.3840 H   0  0  0  0  0  0  0  0  0  0  0  0
  -26.2150  -15.7070   19.9280 H   0  0  0  0  0  0  0  0  0  0  0  0
  -29.7490  -22.0860   20.5070 O   0  0  0  0  0  0  0  0  0  0  0  0
  -29.0160  -23.0350   19.7410 C   0  0  0  0  0  2  0  0  0  0  0  0
  -29.1170  -24.4340   20.3800 C   0  0  0  0  0  2  0  0  0  0  0  0
  -28.6060  -25.5430   19.4420 C   0  0  0  0  0  2  0  0  0  0  0  0
  -28.4290  -26.7780   20.1560 O   0  0  0  0  0  0  0  0  0  0  0  0
  -24.5930  -31.9040   23.2580 C   0  0  0  0  0  0  0  0  0  0  0  0
  -27.2220  -27.4530   20.1530 C   0  0  0  0  0  0  0  0  0  0  0  0
  -23.3810  -30.5070   21.6200 C   0  0  0  0  0  3  0  0  0  0  0  0
  -24.8220  -28.9700   20.1920 C   0  0  0  0  0  0  0  0  0  0  0  0
  -25.9070  -30.8560   21.4170 C   0  0  0  0  0  2  0  0  0  0  0  0
  -25.9850  -29.4850   20.7760 C   0  0  0  0  0  0  0  0  0  0  0  0
  -27.1810  -28.7330   20.7580 C   0  0  0  0  0  3  0  0  0  0  0  0
  -26.0240  -26.9480   19.5850 C   0  0  0  0  0  3  0  0  0  0  0  0
  -24.8370  -27.6980   19.6020 C   0  0  0  0  0  3  0  0  0  0  0  0
  -23.5840  -29.8320   20.2390 C   0  0  0  0  0  2  0  0  0  0  0  0
  -24.6460  -31.1040   22.1560 N   0  0  0  0  0  0  0  0  0  0  0  0
  -23.5130  -32.1780   23.8000 O   0  0  0  0  0  0  0  0  0  0  0  0
  -22.7320  -29.4830   22.5800 C   0  0  0  0  0  0  0  0  0  0  0  0
  -21.4090  -29.2980   22.4520 N   0  0  0  0  0  0  0  0  0  0  0  0
  -23.4160  -28.8580   23.3950 O   0  0  0  0  0  0  0  0  0  0  0  0
  -20.9170  -29.8550   21.7670 H   0  0  0  0  0  0  0  0  0  0  0  0
  -18.0350  -28.1020   22.9470 C   0  0  0  0  0  0  0  0  0  0  0  0
  -20.5920  -28.3610   23.2230 C   0  0  0  0  0  3  0  0  0  0  0  0
  -20.6970  -26.9290   22.6510 C   0  0  0  0  0  2  0  0  0  0  0  0
  -19.5970  -26.6030   21.6350 C   0  0  0  0  0  2  0  0  0  0  0  0
  -18.2130  -26.7500   22.2760 C   0  0  0  0  0  2  0  0  0  0  0  0
  -19.1520  -28.8640   23.3770 C   0  0  0  0  0  0  0  0  0  0  0  0
  -18.9320  -30.1300   23.9620 C   0  0  0  0  0  3  0  0  0  0  0  0
  -17.6270  -30.6320   24.1230 C   0  0  0  0  0  3  0  0  0  0  0  0
  -16.5230  -29.8660   23.7090 C   0  0  0  0  0  3  0  0  0  0  0  0
  -16.7290  -28.6030   23.1250 C   0  0  0  0  0  3  0  0  0  0  0  0
  -25.8830  -32.5330   23.8730 C   0  0  0  0  0  3  0  0  0  0  0  0
  -25.5780  -33.9320   24.1990 N   0  0  0  0  0  0  0  0  0  0  0  0
  -25.9100  -34.9800   23.4330 C   0  0  0  0  0  0  0  0  0  0  0  0
  -26.5770  -34.8720   22.4010 O   0  0  0  0  0  0  0  0  0  0  0  0
  -24.9900  -34.0910   25.0040 H   0  0  0  0  0  0  0  0  0  0  0  0
  -24.1820  -36.7700   23.0750 C   0  0  0  0  0  1  0  0  0  0  0  0
  -25.4250  -36.3710   23.8850 C   0  0  0  0  0  3  0  0  0  0  0  0
  -27.5630  -37.2550   24.7060 C   0  0  0  0  0  1  0  0  0  0  0  0
  -26.4590  -37.4220   23.7650 N   0  0  0  0  0  0  0  0  0  0  0  0
  -26.0540  -38.3430   23.9110 H   0  0  0  0  0  0  0  0  0  0  0  0
  -26.4010  -31.7630   25.1490 C   0  0  1  0  0  0  0  0  0  0  0  0
  -25.3110  -31.5300   26.2210 C   0  0  0  0  0  1  0  0  0  0  0  0
  -26.9810  -30.3850   24.7570 C   0  0  0  0  0  1  0  0  0  0  0  0
  -27.5560  -32.5550   25.8070 C   0  0  0  0  0  1  0  0  0  0  0  0
  1 46  1  0
  1  2  1  0
  2  3  1  0
  3  6  1  0
  3  4  1  0
  5  3  1  0
  6  7  1  0
  8 16  1  0
  9 14  1  0
 10 11  1  0
 10  9  1  0
 12 11  1  0
 12 21  1  0
 12 13  1  0
 14  8  1  0
 14 13  1  0
 15  8  2  0
 16 17  1  0
 16  7  1  0
 18 19  2  0
 19 38  1  0
 20 19  1  0
 20 23  1  0
 21 18  1  0
 21 22  1  0
 22 20  2  0
 23 24  1  0
 24 25  2  0
 26 29  1  0
 26 25  1  0
 27 26  2  0
 28 27  1  0
 28 23  2  0
 29 30  1  0
 30 31  1  0
 31 32  2  0
 33 32  1  0
 33 37  1  0
 34 33  2  0
 35 30  2  0
 35 34  1  0
 36 35  1  0
 38 39  1  0
 39 42  1  0
 39 41  1  0
 40 38  2  0
 43 44  1  0
 43 18  1  0
 45 43  1  0
 47 48  1  0
 47 46  1  0
 49 50  1  0
 49 48  1  0
 51 62  2  0
 52 50  1  0
 52 57  1  0
 53 61  1  0
 53 63  1  0
 54 60  1  0
 54 56  1  0
 55 61  1  0
 56 55  1  0
 57 56  2  0
 58 59  1  0
 58 52  2  0
 59 54  2  0
 60 53  1  0
 61 51  1  0
 63 65  2  0
 64 63  1  0
 66 64  1  0
 67 76  2  0
 67 72  1  0
 68 64  1  0
 68 72  1  0
 69 68  1  0
 70 71  1  0
 70 69  1  0
 71 67  1  0
 72 73  2  0
 73 74  1  0
 75 74  2  0
 76 75  1  0
 77 51  1  0
 77 78  1  0
 77 87  1  0
 78 81  1  0
 79 83  1  0
 79 78  1  0
 80 79  2  0
 83 82  1  0
 85 83  1  0
 85 86  1  0
 85 84  1  0
 87 90  1  1
 87 88  1  0
 89 87  1  0
M  ISO  4   8 100  16 100  49 101  50 101
M  END
>  <TORSDO>  (72) 
F 24

>  <SCORE>  (72) 
-12.419

>  <name>  (72) 
74

>  <ligand_id>  (72) 
74

>  <original_smiles>  (72) 
[H]c1c([H])c([H])c2c(c1[H])C([H])([H])C([H])([H])C([H])([H])C2([H])N([H])C(=O)C1([H])N(C(=O)C([H])(N([H])C(=O)C([H])(N([H])C([H])([H])[H])C([H])([H])[H])C(C([H])([H])[H])(C([H])([H])[H])C([H])([H])[H])C([H])([H])c2c([H])c(OC([H])([H])C([H])([H])C([H])([H])OC([H])([H])C([H])([H])[N+]([H])([H])C([H])([H])C([H])([H])N([H])C(=O)N3C([H])([H])C([H])([H])C([H])([H])C([H])(n4nc(-c5c([H])c([H])c(Oc6c([H])c([H])c(F)c([H])c6F)c([H])c5[H])c(C(=O)N([H])[H])c4N([H])[H])C3([H])[H])c([H])c([H])c2C1([H])[H]

>  <smiles>  (72) 
[H]c1c([H])c([H])c2c(c1[H])C([H])([H])C([H])([H])C([H])([H])C2([H])N([H])C(=O)C1([H])N(C(=O)C([H])(N([H])C(=O)C([H])(N([H])C([H])([H])[H])C([H])([H])[H])C(C([H])([H])[H])(C([H])([H])[H])C([H])([H])[H])C([H])([H])c2c([H])c(OC([H])([H])C([H])([H])C([H])([H])OC([H])([H])C([H])([H])[N+]([H])([H])C([H])([H])C([H])([H])N([H])C(=O)N3C([H])([H])C([H])([H])C([H])([H])C([H])(n4nc(-c5c([H])c([H])c(Oc6c([H])c([H])c(F)c([H])c6F)c([H])c5[H])c(C(=O)N([H])[H])c4N([H])[H])C3([H])[H])c([H])c([H])c2C1([H])[H]

$$$$
75:0:0
     RDKit          3D

 94101  0  0  1  0  0  0  0  0999 V2000
  -29.7500  -22.2490   23.5260 C   0  0  0  0  0  3  0  0  0  0  0  0
  -30.2810  -23.4050   23.0910 C   0  0  0  0  0  3  0  0  0  0  0  0
  -29.5320  -24.6340   23.2010 C   0  0  0  0  0  0  0  0  0  0  0  0
  -29.4280  -25.3160   22.0550 N   0  0  0  0  0  0  0  0  0  0  0  0
  -29.0290  -25.0570   24.2400 O   0  0  0  0  0  0  0  0  0  0  0  0
  -28.9390  -26.2000   22.1020 H   0  0  0  0  0  0  0  0  0  0  0  0
  -29.7830  -24.8850   20.6990 C   0  0  0  0  0  2  0  0  0  0  0  0
  -28.7220  -25.3910   19.7180 C   0  0  0  0  0  2  0  0  0  0  0  0
  -28.6600  -26.8030   19.8780 O   0  0  0  0  0  0  0  0  0  0  0  0
  -24.6690  -31.6780   23.1140 C   0  0  0  0  0  0  0  0  0  0  0  0
  -27.4330  -27.4210   19.9010 C   0  0  0  0  0  0  0  0  0  0  0  0
  -23.4980  -30.2910   21.4330 C   0  0  0  0  0  3  0  0  0  0  0  0
  -24.9890  -28.8290   19.9720 C   0  0  0  0  0  0  0  0  0  0  0  0
  -26.0100  -30.7260   21.2460 C   0  0  0  0  0  2  0  0  0  0  0  0
  -26.1280  -29.3760   20.5700 C   0  0  0  0  0  0  0  0  0  0  0  0
  -27.3520  -28.6790   20.5320 C   0  0  0  0  0  3  0  0  0  0  0  0
  -26.2750  -26.8800   19.2960 C   0  0  0  0  0  3  0  0  0  0  0  0
  -25.0530  -27.5780   19.3360 C   0  0  0  0  0  3  0  0  0  0  0  0
  -23.7240  -29.6500   20.0370 C   0  0  0  0  0  2  0  0  0  0  0  0
  -24.7440  -30.9100   21.9910 N   0  0  0  0  0  0  0  0  0  0  0  0
  -23.5820  -31.9070   23.6620 O   0  0  0  0  0  0  0  0  0  0  0  0
  -22.8750  -29.2280   22.3660 C   0  0  0  0  0  0  0  0  0  0  0  0
  -21.5560  -29.0140   22.2300 N   0  0  0  0  0  0  0  0  0  0  0  0
  -23.5740  -28.5990   23.1650 O   0  0  0  0  0  0  0  0  0  0  0  0
  -21.0500  -29.5770   21.5600 H   0  0  0  0  0  0  0  0  0  0  0  0
  -18.2120  -27.7350   22.6960 C   0  0  0  0  0  0  0  0  0  0  0  0
  -20.7640  -28.0360   22.9750 C   0  0  0  0  0  3  0  0  0  0  0  0
  -20.8950  -26.6260   22.3550 C   0  0  0  0  0  2  0  0  0  0  0  0
  -19.7990  -26.3100   21.3330 C   0  0  0  0  0  2  0  0  0  0  0  0
  -18.4160  -26.4100   21.9830 C   0  0  0  0  0  2  0  0  0  0  0  0
  -19.3160  -28.5060   23.1480 C   0  0  0  0  0  0  0  0  0  0  0  0
  -19.0720  -29.7480   23.7730 C   0  0  0  0  0  3  0  0  0  0  0  0
  -17.7580  -30.2190   23.9530 C   0  0  0  0  0  3  0  0  0  0  0  0
  -16.6700  -29.4420   23.5180 C   0  0  0  0  0  3  0  0  0  0  0  0
  -16.8980  -28.2040   22.8950 C   0  0  0  0  0  3  0  0  0  0  0  0
  -25.9410  -32.3220   23.7490 C   0  0  0  0  0  3  0  0  0  0  0  0
  -25.6040  -33.7070   24.1070 N   0  0  0  0  0  0  0  0  0  0  0  0
  -25.9310  -34.7820   23.3770 C   0  0  0  0  0  0  0  0  0  0  0  0
  -26.6200  -34.7140   22.3560 O   0  0  0  0  0  0  0  0  0  0  0  0
  -24.9930  -33.8340   24.9000 H   0  0  0  0  0  0  0  0  0  0  0  0
  -24.1860  -36.5560   23.0210 C   0  0  0  0  0  1  0  0  0  0  0  0
  -25.4100  -36.1490   23.8560 C   0  0  0  0  0  3  0  0  0  0  0  0
  -27.5050  -37.0450   24.7710 C   0  0  0  0  0  1  0  0  0  0  0  0
  -26.4290  -37.2200   23.8000 N   0  0  0  0  0  0  0  0  0  0  0  0
  -26.0040  -38.1300   23.9570 H   0  0  0  0  0  0  0  0  0  0  0  0
  -26.4770  -31.5350   25.0070 C   0  0  1  0  0  0  0  0  0  0  0  0
  -25.3910  -31.2460   26.0690 C   0  0  0  0  0  1  0  0  0  0  0  0
  -27.0900  -30.1810   24.5790 C   0  0  0  0  0  1  0  0  0  0  0  0
  -27.6080  -32.3390   25.6880 C   0  0  0  0  0  1  0  0  0  0  0  0
  -30.5200  -21.0480   23.3400 C   0  0  0  0  0  0  0  0  0  0  0  0
  -29.9020  -20.2160   22.4970 N   0  0  0  0  0  0  0  0  0  0  0  0
  -31.6480  -20.8510   23.7920 O   0  0  0  0  0  0  0  0  0  0  0  0
  -28.9740  -20.4820   22.1910 H   0  0  0  0  0  0  0  0  0  0  0  0
  -30.5950  -19.2070   21.7060 C   0  0  0  0  0  2  0  0  0  0  0  0
  -30.1360  -17.7700   21.9890 C   0  0  0  0  0  2  0  0  0  0  0  0
  -30.9340  -16.8270   21.0800 C   0  0  0  0  0  2  0  0  0  0  0  0
  -31.0240  -14.5200   20.3070 C   0  0  0  0  0  0  0  0  0  0  0  0
  -30.6150  -12.4640   19.0270 C   0  0  0  0  0  2  0  0  0  0  0  0
  -29.6470  -12.7710   17.8700 C   0  0  0  0  0  2  0  0  0  0  0  0
  -28.1840  -12.6460   18.3370 C   0  0  0  0  0  2  0  0  0  0  0  0
  -27.9050  -13.4130   19.6570 C   0  0  0  0  0  3  0  0  0  0  0  0
  -28.9860  -13.0970   20.7170 C   0  0  0  0  0  2  0  0  0  0  0  0
  -30.3060  -13.3860   20.1290 N   0  0  0  0  0  0  0  0  0  0  0  0
  -32.0790  -14.7580   19.7090 O   0  0  0  0  0  0  0  0  0  0  0  0
  -30.4690  -15.4460   21.0970 N   0  0  0  0  0  0  0  0  0  0  0  0
  -29.6100  -15.2160   21.5760 H   0  0  0  0  0  0  0  0  0  0  0  0
  -25.5200  -14.0170   20.4190 C   0  0  0  0  0  0  0  0  0  0  0  0
  -24.4580  -13.2420   20.8020 C   0  0  0  0  0  0  0  0  0  0  0  0
  -24.9160  -11.8890   20.7410 C   0  0  0  0  0  0  0  0  0  0  0  0
  -26.5600  -13.1370   20.1560 N   0  0  0  0  0  0  0  0  0  0  0  0
  -26.1990  -11.8510   20.4030 N   0  0  0  0  0  0  0  0  0  0  0  0
  -24.1930  -10.6260   20.9310 C   0  0  0  0  0  0  0  0  0  0  0  0
  -24.6050   -9.6770   21.8920 C   0  0  0  0  0  3  0  0  0  0  0  0
  -23.8840   -8.4760   22.0670 C   0  0  0  0  0  3  0  0  0  0  0  0
  -22.7350   -8.2170   21.2840 C   0  0  0  0  0  0  0  0  0  0  0  0
  -22.3410   -9.1550   20.3150 C   0  0  0  0  0  3  0  0  0  0  0  0
  -23.0630  -10.3470   20.1360 C   0  0  0  0  0  3  0  0  0  0  0  0
  -21.9860   -7.0670   21.3680 O   0  0  0  0  0  0  0  0  0  0  0  0
  -21.8470   -6.3830   22.5490 C   0  0  0  0  0  0  0  0  0  0  0  0
  -21.3200   -6.9940   23.7080 C   0  0  0  0  0  3  0  0  0  0  0  0
  -21.1290   -6.2350   24.8790 C   0  0  0  0  0  3  0  0  0  0  0  0
  -21.4570   -4.8660   24.8940 C   0  0  0  0  0  0  0  0  0  0  0  0
  -21.9790   -4.2550   23.7400 C   0  0  0  0  0  3  0  0  0  0  0  0
  -22.1710   -5.0110   22.5710 C   0  0  0  0  0  0  0  0  0  0  0  0
  -22.6520   -4.4120   21.4550 F   0  0  0  0  0  0  0  0  0  0  0  0
  -21.2670   -4.1340   26.0180 F   0  0  0  0  0  0  0  0  0  0  0  0
  -23.0680  -13.7150   21.1150 C   0  0  0  0  0  0  0  0  0  0  0  0
  -22.3640  -13.0140   21.9950 N   0  0  0  0  0  0  0  0  0  0  0  0
  -22.6160  -14.7450   20.6140 O   0  0  0  0  0  0  0  0  0  0  0  0
  -22.7430  -12.1840   22.4270 H   0  0  0  0  0  0  0  0  0  0  0  0
  -21.4300  -13.3110   22.2440 H   0  0  0  0  0  0  0  0  0  0  0  0
  -25.6820  -15.3890   20.2560 N   0  0  0  0  0  0  0  0  0  0  0  0
  -24.9200  -16.0440   20.3890 H   0  0  0  0  0  0  0  0  0  0  0  0
  -26.5310  -15.8310   19.9240 H   0  0  0  0  0  0  0  0  0  0  0  0
  2  3  1  0
  2  1  2  0
  3  5  2  0
  4  6  1  0
  4  3  1  0
  7  4  1  0
  8  9  1  0
  8  7  1  0
  9 11  1  0
 10 21  2  0
 11 16  1  0
 12 20  1  0
 12 22  1  0
 13 19  1  0
 13 15  1  0
 14 20  1  0
 15 14  1  0
 16 15  2  0
 17 18  1  0
 17 11  2  0
 18 13  2  0
 19 12  1  0
 20 10  1  0
 22 24  2  0
 23 22  1  0
 25 23  1  0
 26 35  2  0
 26 31  1  0
 27 23  1  0
 27 31  1  0
 28 27  1  0
 29 30  1  0
 29 28  1  0
 30 26  1  0
 31 32  2  0
 32 33  1  0
 34 33  2  0
 35 34  1  0
 36 10  1  0
 36 37  1  0
 36 46  1  0
 37 40  1  0
 38 42  1  0
 38 37  1  0
 39 38  2  0
 42 41  1  0
 44 42  1  0
 44 45  1  0
 44 43  1  0
 46 49  1  1
 46 47  1  0
 48 46  1  0
 50  1  1  0
 50 52  2  0
 51 50  1  0
 53 51  1  0
 54 55  1  0
 54 51  1  0
 56 65  1  0
 56 55  1  0
 57 65  1  0
 58 63  1  0
 59 60  1  0
 59 58  1  0
 61 60  1  0
 61 70  1  0
 61 62  1  0
 63 57  1  0
 63 62  1  0
 64 57  2  0
 65 66  1  0
 67 68  2  0
 68 87  1  0
 69 68  1  0
 69 72  1  0
 70 71  1  0
 70 67  1  0
 71 69  2  0
 72 73  1  0
 73 74  2  0
 75 78  1  0
 75 74  1  0
 76 75  2  0
 77 76  1  0
 77 72  2  0
 78 79  1  0
 79 84  2  0
 79 80  1  0
 80 81  2  0
 81 82  1  0
 82 86  1  0
 83 82  2  0
 84 83  1  0
 85 84  1  0
 87 88  1  0
 88 91  1  0
 88 90  1  0
 89 87  2  0
 92 93  1  0
 92 67  1  0
 94 92  1  0
M  ISO  4   8 101   9 101  57 100  65 100
M  END
>  <TORSDO>  (73) 
F 23

>  <SCORE>  (73) 
-12.014

>  <name>  (73) 
75

>  <ligand_id>  (73) 
75

>  <original_smiles>  (73) 
[H]C(C(=O)N([H])C([H])([H])C([H])([H])Oc1c([H])c([H])c2c(c1[H])C([H])([H])N(C(=O)C([H])(N([H])C(=O)C([H])(N([H])C([H])([H])[H])C([H])([H])[H])C(C([H])([H])[H])(C([H])([H])[H])C([H])([H])[H])C([H])(C(=O)N([H])C1([H])c3c([H])c([H])c([H])c([H])c3C([H])([H])C([H])([H])C1([H])[H])C2([H])[H])=C([H])C(=O)N([H])C([H])([H])C([H])([H])C([H])([H])N([H])C(=O)N1C([H])([H])C([H])([H])C([H])([H])C([H])(n2nc(-c3c([H])c([H])c(Oc4c([H])c([H])c(F)c([H])c4F)c([H])c3[H])c(C(=O)N([H])[H])c2N([H])[H])C1([H])[H]

>  <smiles>  (73) 
[H]C(C(=O)N([H])C([H])([H])C([H])([H])Oc1c([H])c([H])c2c(c1[H])C([H])([H])N(C(=O)C([H])(N([H])C(=O)C([H])(N([H])C([H])([H])[H])C([H])([H])[H])C(C([H])([H])[H])(C([H])([H])[H])C([H])([H])[H])C([H])(C(=O)N([H])C1([H])c3c([H])c([H])c([H])c([H])c3C([H])([H])C([H])([H])C1([H])[H])C2([H])[H])=C([H])C(=O)N([H])C([H])([H])C([H])([H])C([H])([H])N([H])C(=O)N1C([H])([H])C([H])([H])C([H])([H])C([H])(n2nc(-c3c([H])c([H])c(Oc4c([H])c([H])c(F)c([H])c4F)c([H])c3[H])c(C(=O)N([H])[H])c2N([H])[H])C1([H])[H]

$$$$
76:0:0
     RDKit          3D

 90 97  0  0  1  0  0  0  0  0999 V2000
  -29.5390  -21.8770   20.7790 C   0  0  0  0  0  2  0  0  0  0  0  0
  -28.9860  -22.9380   19.9220 N   0  0  0  0  0  0  0  0  0  0  0  0
  -28.0060  -22.7400   19.7320 H   0  0  0  0  0  0  0  0  0  0  0  0
  -29.0760  -24.2850   20.5160 C   0  0  0  0  0  2  0  0  0  0  0  0
  -28.5320  -25.3730   19.5460 C   0  0  0  0  0  2  0  0  0  0  0  0
  -28.4140  -26.6850   20.1510 O   0  0  0  0  0  0  0  0  0  0  0  0
  -24.6120  -31.8920   23.2330 C   0  0  0  0  0  0  0  0  0  0  0  0
  -27.2220  -27.4040   20.1310 C   0  0  0  0  0  0  0  0  0  0  0  0
  -23.3930  -30.4930   21.6020 C   0  0  0  0  0  3  0  0  0  0  0  0
  -24.8320  -28.9530   20.1700 C   0  0  0  0  0  0  0  0  0  0  0  0
  -25.9250  -30.8310   21.3950 C   0  0  0  0  0  2  0  0  0  0  0  0
  -25.9990  -29.4590   20.7520 C   0  0  0  0  0  0  0  0  0  0  0  0
  -27.1920  -28.6920   20.7320 C   0  0  0  0  0  3  0  0  0  0  0  0
  -26.0220  -26.9270   19.5460 C   0  0  0  0  0  3  0  0  0  0  0  0
  -24.8400  -27.6860   19.5680 C   0  0  0  0  0  3  0  0  0  0  0  0
  -23.5930  -29.8170   20.2220 C   0  0  0  0  0  2  0  0  0  0  0  0
  -24.6620  -31.0870   22.1340 N   0  0  0  0  0  0  0  0  0  0  0  0
  -23.5340  -32.1690   23.7760 O   0  0  0  0  0  0  0  0  0  0  0  0
  -22.7460  -29.4710   22.5660 C   0  0  0  0  0  0  0  0  0  0  0  0
  -21.4210  -29.2910   22.4480 N   0  0  0  0  0  0  0  0  0  0  0  0
  -23.4340  -28.8450   23.3770 O   0  0  0  0  0  0  0  0  0  0  0  0
  -20.9260  -29.8490   21.7650 H   0  0  0  0  0  0  0  0  0  0  0  0
  -18.0480  -28.0970   22.9610 C   0  0  0  0  0  0  0  0  0  0  0  0
  -20.6070  -28.3560   23.2240 C   0  0  0  0  0  3  0  0  0  0  0  0
  -20.7080  -26.9220   22.6550 C   0  0  0  0  0  2  0  0  0  0  0  0
  -19.6030  -26.5950   21.6450 C   0  0  0  0  0  2  0  0  0  0  0  0
  -18.2230  -26.7440   22.2920 C   0  0  0  0  0  2  0  0  0  0  0  0
  -19.1670  -28.8610   23.3840 C   0  0  0  0  0  0  0  0  0  0  0  0
  -18.9500  -30.1280   23.9680 C   0  0  0  0  0  3  0  0  0  0  0  0
  -17.6460  -30.6300   24.1340 C   0  0  0  0  0  3  0  0  0  0  0  0
  -16.5400  -29.8630   23.7270 C   0  0  0  0  0  3  0  0  0  0  0  0
  -16.7420  -28.5980   23.1460 C   0  0  0  0  0  3  0  0  0  0  0  0
  -25.9020  -32.5240   23.8410 C   0  0  0  0  0  3  0  0  0  0  0  0
  -26.4360  -31.7460   25.1070 C   0  0  1  0  0  0  0  0  0  0  0  0
  -25.3560  -31.5000   26.1850 C   0  0  0  0  0  1  0  0  0  0  0  0
  -27.0170  -30.3710   24.7010 C   0  0  0  0  0  1  0  0  0  0  0  0
  -27.5930  -32.5380   25.7590 C   0  0  0  0  0  1  0  0  0  0  0  0
  -25.5920  -33.9190   24.1820 N   0  0  0  0  0  0  0  0  0  0  0  0
  -25.9100  -34.9750   23.4220 C   0  0  0  0  0  0  0  0  0  0  0  0
  -26.5650  -34.8790   22.3810 O   0  0  0  0  0  0  0  0  0  0  0  0
  -25.0060  -34.0660   24.9900 H   0  0  0  0  0  0  0  0  0  0  0  0
  -24.1650  -36.7580   23.1040 C   0  0  0  0  0  1  0  0  0  0  0  0
  -25.4220  -36.3590   23.8920 C   0  0  0  0  0  3  0  0  0  0  0  0
  -27.5690  -37.2520   24.6830 C   0  0  0  0  0  1  0  0  0  0  0  0
  -26.4460  -37.4190   23.7640 N   0  0  0  0  0  0  0  0  0  0  0  0
  -26.0390  -38.3360   23.9250 H   0  0  0  0  0  0  0  0  0  0  0  0
  -29.2780  -20.4450   20.2060 C   0  0  0  0  0  2  0  0  0  0  0  0
  -29.9590  -19.3610   20.9710 N   0  0  0  0  0  4  0  0  0  0  0  0
  -30.9530  -19.4810   20.8660 H   0  0  0  0  0  0  0  0  0  0  0  0
  -29.7380  -19.4840   21.9470 H   0  0  0  0  0  0  0  0  0  0  0  0
  -29.5950  -17.9640   20.5850 C   0  0  0  0  0  2  0  0  0  0  0  0
  -30.3920  -16.8790   21.3710 C   0  0  0  0  0  2  0  0  0  0  0  0
  -30.6370  -14.4980   20.5150 C   0  0  0  0  0  0  0  0  0  0  0  0
  -30.3390  -12.3450   19.3390 C   0  0  0  0  0  2  0  0  0  0  0  0
  -29.3830  -12.5410   18.1440 C   0  0  0  0  0  2  0  0  0  0  0  0
  -27.9140  -12.3960   18.5870 C   0  0  0  0  0  2  0  0  0  0  0  0
  -27.5840  -13.2320   19.8520 C   0  0  0  0  0  3  0  0  0  0  0  0
  -28.6470  -13.0070   20.9500 C   0  0  0  0  0  2  0  0  0  0  0  0
  -29.9660  -13.3220   20.3740 N   0  0  0  0  0  0  0  0  0  0  0  0
  -31.7520  -14.6960   20.0290 O   0  0  0  0  0  0  0  0  0  0  0  0
  -29.9470  -15.4910   21.1130 N   0  0  0  0  0  0  0  0  0  0  0  0
  -29.0300  -15.2400   21.4510 H   0  0  0  0  0  0  0  0  0  0  0  0
  -25.1920  -13.8430   20.5770 C   0  0  0  0  0  0  0  0  0  0  0  0
  -24.1240  -13.0710   20.9510 C   0  0  0  0  0  0  0  0  0  0  0  0
  -24.5820  -11.7190   20.9130 C   0  0  0  0  0  0  0  0  0  0  0  0
  -26.2340  -12.9600   20.3380 N   0  0  0  0  0  0  0  0  0  0  0  0
  -25.8700  -11.6770   20.5970 N   0  0  0  0  0  0  0  0  0  0  0  0
  -23.8550  -10.4580   21.1020 C   0  0  0  0  0  0  0  0  0  0  0  0
  -24.3090   -9.4710   22.0050 C   0  0  0  0  0  3  0  0  0  0  0  0
  -23.5820   -8.2740   22.1830 C   0  0  0  0  0  3  0  0  0  0  0  0
  -22.3870   -8.0560   21.4570 C   0  0  0  0  0  0  0  0  0  0  0  0
  -21.9510   -9.0310   20.5430 C   0  0  0  0  0  3  0  0  0  0  0  0
  -22.6780  -10.2190   20.3630 C   0  0  0  0  0  3  0  0  0  0  0  0
  -21.6280   -6.9130   21.5460 O   0  0  0  0  0  0  0  0  0  0  0  0
  -21.6290   -6.1360   22.6770 C   0  0  0  0  0  0  0  0  0  0  0  0
  -21.2830   -6.6610   23.9410 C   0  0  0  0  0  3  0  0  0  0  0  0
  -21.2290   -5.8110   25.0640 C   0  0  0  0  0  3  0  0  0  0  0  0
  -21.5080   -4.4400   24.9250 C   0  0  0  0  0  0  0  0  0  0  0  0
  -21.8470   -3.9130   23.6660 C   0  0  0  0  0  3  0  0  0  0  0  0
  -21.9040   -4.7600   22.5440 C   0  0  0  0  0  0  0  0  0  0  0  0
  -22.2100   -4.2450   21.3290 F   0  0  0  0  0  0  0  0  0  0  0  0
  -21.4480   -3.6210   26.0020 F   0  0  0  0  0  0  0  0  0  0  0  0
  -22.7290  -13.5510   21.2350 C   0  0  0  0  0  0  0  0  0  0  0  0
  -22.0070  -12.8530   22.1040 N   0  0  0  0  0  0  0  0  0  0  0  0
  -22.2890  -14.5790   20.7200 O   0  0  0  0  0  0  0  0  0  0  0  0
  -22.3760  -12.0210   22.5410 H   0  0  0  0  0  0  0  0  0  0  0  0
  -21.0720  -13.1560   22.3370 H   0  0  0  0  0  0  0  0  0  0  0  0
  -25.3580  -15.2130   20.4010 N   0  0  0  0  0  0  0  0  0  0  0  0
  -24.5890  -15.8670   20.5040 H   0  0  0  0  0  0  0  0  0  0  0  0
  -26.1980  -15.6450   20.0380 H   0  0  0  0  0  0  0  0  0  0  0  0
  2  4  1  0
  2  1  1  0
  3  2  1  0
  5  6  1  0
  5  4  1  0
  7 18  2  0
  8  6  1  0
  8 13  1  0
  9 17  1  0
  9 19  1  0
 10 16  1  0
 10 12  1  0
 11 17  1  0
 12 11  1  0
 13 12  2  0
 14 15  1  0
 14  8  2  0
 15 10  2  0
 16  9  1  0
 17  7  1  0
 19 21  2  0
 20 19  1  0
 22 20  1  0
 23 32  2  0
 23 28  1  0
 24 20  1  0
 24 28  1  0
 25 24  1  0
 26 27  1  0
 26 25  1  0
 27 23  1  0
 28 29  2  0
 29 30  1  0
 31 30  2  0
 32 31  1  0
 33  7  1  0
 33 38  1  0
 33 34  1  0
 34 37  1  1
 34 35  1  0
 36 34  1  0
 38 41  1  0
 39 43  1  0
 39 38  1  0
 40 39  2  0
 43 42  1  0
 45 43  1  0
 45 46  1  0
 45 44  1  0
 47  1  1  0
 47 48  1  0
 48 50  1  0
 49 48  1  0
 51 48  1  0
 51 52  1  0
 53 61  1  0
 54 59  1  0
 55 56  1  0
 55 54  1  0
 57 56  1  0
 57 66  1  0
 57 58  1  0
 59 53  1  0
 59 58  1  0
 60 53  2  0
 61 52  1  0
 61 62  1  0
 63 64  2  0
 64 83  1  0
 65 64  1  0
 65 68  1  0
 66 63  1  0
 66 67  1  0
 67 65  2  0
 68 69  1  0
 69 70  2  0
 71 74  1  0
 71 70  1  0
 72 71  2  0
 73 72  1  0
 73 68  2  0
 74 75  1  0
 75 76  1  0
 76 77  2  0
 78 77  1  0
 78 82  1  0
 79 78  2  0
 80 75  2  0
 80 79  1  0
 81 80  1  0
 83 84  1  0
 84 87  1  0
 84 86  1  0
 85 83  2  0
 88 89  1  0
 88 63  1  0
 90 88  1  0
M  ISO  4   5 101   6 101  53 100  61 100
M  END
>  <TORSDO>  (74) 
F 23

>  <SCORE>  (74) 
-12.740

>  <name>  (74) 
76

>  <ligand_id>  (74) 
76

>  <original_smiles>  (74) 
[H]c1c([H])c([H])c2c(c1[H])C([H])([H])C([H])([H])C([H])([H])C2([H])N([H])C(=O)C1([H])N(C(=O)C([H])(N([H])C(=O)C([H])(N([H])C([H])([H])[H])C([H])([H])[H])C(C([H])([H])[H])(C([H])([H])[H])C([H])([H])[H])C([H])([H])c2c([H])c(OC([H])([H])C([H])([H])N([H])C([H])([H])C([H])([H])[N+]([H])([H])C([H])([H])C([H])([H])N([H])C(=O)N3C([H])([H])C([H])([H])C([H])([H])C([H])(n4nc(-c5c([H])c([H])c(Oc6c([H])c([H])c(F)c([H])c6F)c([H])c5[H])c(C(=O)N([H])[H])c4N([H])[H])C3([H])[H])c([H])c([H])c2C1([H])[H]

>  <smiles>  (74) 
[H]c1c([H])c([H])c2c(c1[H])C([H])([H])C([H])([H])C([H])([H])C2([H])N([H])C(=O)C1([H])N(C(=O)C([H])(N([H])C(=O)C([H])(N([H])C([H])([H])[H])C([H])([H])[H])C(C([H])([H])[H])(C([H])([H])[H])C([H])([H])[H])C([H])([H])c2c([H])c(OC([H])([H])C([H])([H])N([H])C([H])([H])C([H])([H])[N+]([H])([H])C([H])([H])C([H])([H])N([H])C(=O)N3C([H])([H])C([H])([H])C([H])([H])C([H])(n4nc(-c5c([H])c([H])c(Oc6c([H])c([H])c(F)c([H])c6F)c([H])c5[H])c(C(=O)N([H])[H])c4N([H])[H])C3([H])[H])c([H])c([H])c2C1([H])[H]

$$$$
77:0:0
     RDKit          3D

 96103  0  0  1  0  0  0  0  0999 V2000
  -28.9210  -21.4700   16.5860 C   0  0  0  0  0  2  0  0  0  0  0  0
  -30.3420  -21.0550   17.0210 C   0  0  0  0  0  2  0  0  0  0  0  0
  -30.5880  -19.5380   17.1440 C   0  0  0  0  0  2  0  0  0  0  0  0
  -29.6270  -18.8280   18.0160 N   0  0  0  0  0  4  0  0  0  0  0  0
  -29.9330  -17.8740   18.1170 H   0  0  0  0  0  0  0  0  0  0  0  0
  -28.7500  -18.7930   17.5250 H   0  0  0  0  0  0  0  0  0  0  0  0
  -29.3300  -19.3730   19.3640 C   0  0  0  0  0  2  0  0  0  0  0  0
  -29.9700  -18.5670   20.4950 C   0  0  0  0  0  2  0  0  0  0  0  0
  -29.6590  -17.0680   20.4340 C   0  0  0  0  0  2  0  0  0  0  0  0
  -30.4310  -16.2970   21.5130 C   0  0  0  0  0  2  0  0  0  0  0  0
  -30.7580  -14.1190   20.3850 C   0  0  0  0  0  0  0  0  0  0  0  0
  -30.3440  -12.1350   18.9870 C   0  0  0  0  0  2  0  0  0  0  0  0
  -29.3600  -12.5050   17.8600 C   0  0  0  0  0  2  0  0  0  0  0  0
  -27.8910  -12.4200   18.3220 C   0  0  0  0  0  2  0  0  0  0  0  0
  -27.6500  -13.1320   19.6770 C   0  0  0  0  0  3  0  0  0  0  0  0
  -28.7150  -12.6920   20.7030 C   0  0  0  0  0  2  0  0  0  0  0  0
  -30.0510  -12.9900   20.1440 N   0  0  0  0  0  0  0  0  0  0  0  0
  -31.7600  -14.4700   19.7500 O   0  0  0  0  0  0  0  0  0  0  0  0
  -30.2170  -14.8720   21.3430 N   0  0  0  0  0  0  0  0  0  0  0  0
  -29.4480  -14.4470   21.8440 H   0  0  0  0  0  0  0  0  0  0  0  0
  -25.2730  -13.7920   20.4220 C   0  0  0  0  0  0  0  0  0  0  0  0
  -24.2000  -13.0320   20.8170 C   0  0  0  0  0  0  0  0  0  0  0  0
  -24.6420  -11.6750   20.7850 C   0  0  0  0  0  0  0  0  0  0  0  0
  -26.2980  -12.8900   20.1780 N   0  0  0  0  0  0  0  0  0  0  0  0
  -25.9220  -11.6150   20.4460 N   0  0  0  0  0  0  0  0  0  0  0  0
  -23.9070  -10.4220   20.9980 C   0  0  0  0  0  0  0  0  0  0  0  0
  -24.3540   -9.4490   21.9190 C   0  0  0  0  0  3  0  0  0  0  0  0
  -23.6170   -8.2620   22.1180 C   0  0  0  0  0  3  0  0  0  0  0  0
  -22.4210   -8.0380   21.3940 C   0  0  0  0  0  0  0  0  0  0  0  0
  -21.9940   -9.0010   20.4610 C   0  0  0  0  0  3  0  0  0  0  0  0
  -22.7320  -10.1790   20.2600 C   0  0  0  0  0  3  0  0  0  0  0  0
  -21.6530   -6.9040   21.5030 O   0  0  0  0  0  0  0  0  0  0  0  0
  -21.6350   -6.1570   22.6530 C   0  0  0  0  0  0  0  0  0  0  0  0
  -21.2550   -6.7110   23.8960 C   0  0  0  0  0  3  0  0  0  0  0  0
  -21.1810   -5.8900   25.0380 C   0  0  0  0  0  3  0  0  0  0  0  0
  -21.4740   -4.5160   24.9400 C   0  0  0  0  0  0  0  0  0  0  0  0
  -21.8500   -3.9630   23.7040 C   0  0  0  0  0  3  0  0  0  0  0  0
  -21.9260   -4.7800   22.5620 C   0  0  0  0  0  0  0  0  0  0  0  0
  -22.2650   -4.2390   21.3690 F   0  0  0  0  0  0  0  0  0  0  0  0
  -21.3960   -3.7260   26.0360 F   0  0  0  0  0  0  0  0  0  0  0  0
  -22.8170  -13.5320   21.1130 C   0  0  0  0  0  0  0  0  0  0  0  0
  -22.0970  -12.8510   22.0010 N   0  0  0  0  0  0  0  0  0  0  0  0
  -22.3790  -14.5560   20.5940 O   0  0  0  0  0  0  0  0  0  0  0  0
  -22.4640  -12.0230   22.4430 H   0  0  0  0  0  0  0  0  0  0  0  0
  -21.1660  -13.1680   22.2360 H   0  0  0  0  0  0  0  0  0  0  0  0
  -25.4560  -15.1570   20.2340 N   0  0  0  0  0  0  0  0  0  0  0  0
  -24.7180  -15.8380   20.3730 H   0  0  0  0  0  0  0  0  0  0  0  0
  -26.3160  -15.5730   19.8980 H   0  0  0  0  0  0  0  0  0  0  0  0
  -28.7620  -23.0020   16.5740 C   0  0  0  0  0  2  0  0  0  0  0  0
  -28.5640  -23.5860   17.9960 C   0  0  0  0  0  2  0  0  0  0  0  0
  -29.7020  -24.4060   18.4730 N   0  0  0  0  0  4  0  0  0  0  0  0
  -29.7100  -25.2930   17.9900 H   0  0  0  0  0  0  0  0  0  0  0  0
  -30.5550  -23.9300   18.2200 H   0  0  0  0  0  0  0  0  0  0  0  0
  -29.7600  -24.6330   19.9450 C   0  0  0  0  0  2  0  0  0  0  0  0
  -28.4990  -25.2920   20.5510 C   0  0  0  0  0  2  0  0  0  0  0  0
  -28.4890  -26.6810   20.2280 O   0  0  0  0  0  0  0  0  0  0  0  0
  -24.5780  -31.8120   23.2490 C   0  0  0  0  0  0  0  0  0  0  0  0
  -27.2820  -27.3430   20.2650 C   0  0  0  0  0  0  0  0  0  0  0  0
  -23.4050  -30.3980   21.5940 C   0  0  0  0  0  3  0  0  0  0  0  0
  -24.8810  -28.8310   20.2320 C   0  0  0  0  0  0  0  0  0  0  0  0
  -25.9340  -30.7460   21.4480 C   0  0  0  0  0  2  0  0  0  0  0  0
  -26.0280  -29.3690   20.8250 C   0  0  0  0  0  0  0  0  0  0  0  0
  -27.2340  -28.6350   20.8330 C   0  0  0  0  0  3  0  0  0  0  0  0
  -26.1150  -26.8070   19.6820 C   0  0  0  0  0  3  0  0  0  0  0  0
  -24.9150  -27.5440   19.6670 C   0  0  0  0  0  3  0  0  0  0  0  0
  -23.6420  -29.6980   20.2300 C   0  0  0  0  0  2  0  0  0  0  0  0
  -24.6560  -30.9990   22.1570 N   0  0  0  0  0  0  0  0  0  0  0  0
  -23.4870  -32.0920   23.7630 O   0  0  0  0  0  0  0  0  0  0  0  0
  -22.7230  -29.3900   22.5460 C   0  0  0  0  0  0  0  0  0  0  0  0
  -21.4010  -29.2230   22.3970 N   0  0  0  0  0  0  0  0  0  0  0  0
  -23.3860  -28.7610   23.3770 O   0  0  0  0  0  0  0  0  0  0  0  0
  -20.9280  -29.7830   21.7010 H   0  0  0  0  0  0  0  0  0  0  0  0
  -18.0010  -28.0870   22.8510 C   0  0  0  0  0  0  0  0  0  0  0  0
  -20.5590  -28.3000   23.1580 C   0  0  0  0  0  3  0  0  0  0  0  0
  -20.6430  -26.8670   22.5820 C   0  0  0  0  0  2  0  0  0  0  0  0
  -19.5470  -26.5630   21.5550 C   0  0  0  0  0  2  0  0  0  0  0  0
  -18.1610  -26.7350   22.1810 C   0  0  0  0  0  2  0  0  0  0  0  0
  -19.1270  -28.8290   23.2970 C   0  0  0  0  0  0  0  0  0  0  0  0
  -18.9240  -30.0980   23.8820 C   0  0  0  0  0  3  0  0  0  0  0  0
  -17.6280  -30.6250   24.0290 C   0  0  0  0  0  3  0  0  0  0  0  0
  -16.5150  -29.8800   23.6020 C   0  0  0  0  0  3  0  0  0  0  0  0
  -16.7020  -28.6150   23.0180 C   0  0  0  0  0  3  0  0  0  0  0  0
  -25.8530  -32.4400   23.8930 C   0  0  0  0  0  3  0  0  0  0  0  0
  -25.5470  -33.8420   24.2040 N   0  0  0  0  0  0  0  0  0  0  0  0
  -25.8960  -34.8840   23.4370 C   0  0  0  0  0  0  0  0  0  0  0  0
  -26.5840  -34.7670   22.4190 O   0  0  0  0  0  0  0  0  0  0  0  0
  -24.9480  -34.0120   24.9990 H   0  0  0  0  0  0  0  0  0  0  0  0
  -24.1810  -36.6740   23.0230 C   0  0  0  0  0  1  0  0  0  0  0  0
  -25.4040  -36.2790   23.8680 C   0  0  0  0  0  3  0  0  0  0  0  0
  -27.5240  -37.1620   24.7350 C   0  0  0  0  0  1  0  0  0  0  0  0
  -26.4430  -37.3280   23.7660 N   0  0  0  0  0  0  0  0  0  0  0  0
  -26.0390  -38.2510   23.8970 H   0  0  0  0  0  0  0  0  0  0  0  0
  -26.3410  -31.6770   25.1860 C   0  0  1  0  0  0  0  0  0  0  0  0
  -25.2240  -31.4530   26.2300 C   0  0  0  0  0  1  0  0  0  0  0  0
  -26.9250  -30.2940   24.8150 C   0  0  0  0  0  1  0  0  0  0  0  0
  -27.4830  -32.4690   25.8640 C   0  0  0  0  0  1  0  0  0  0  0  0
  1  2  1  0
  2  3  1  0
  3  4  1  0
  4  5  1  0
  4  7  1  0
  6  4  1  0
  7  8  1  0
  9  8  1  0
  9 10  1  0
 11 19  1  0
 12 17  1  0
 13 14  1  0
 13 12  1  0
 15 14  1  0
 15 24  1  0
 15 16  1  0
 17 11  1  0
 17 16  1  0
 18 11  2  0
 19 10  1  0
 19 20  1  0
 21 22  2  0
 22 41  1  0
 23 22  1  0
 23 26  1  0
 24 21  1  0
 24 25  1  0
 25 23  2  0
 26 27  1  0
 27 28  2  0
 29 32  1  0
 29 28  1  0
 30 29  2  0
 31 30  1  0
 31 26  2  0
 32 33  1  0
 33 34  1  0
 34 35  2  0
 36 35  1  0
 36 40  1  0
 37 36  2  0
 38 33  2  0
 38 37  1  0
 39 38  1  0
 41 42  1  0
 42 45  1  0
 42 44  1  0
 43 41  2  0
 46 47  1  0
 46 21  1  0
 48 46  1  0
 49  1  1  0
 49 50  1  0
 50 51  1  0
 51 54  1  0
 52 51  1  0
 53 51  1  0
 54 55  1  0
 56 58  1  0
 56 55  1  0
 57 68  2  0
 58 63  1  0
 59 67  1  0
 59 69  1  0
 60 62  1  0
 61 67  1  0
 62 63  2  0
 62 61  1  0
 64 58  2  0
 65 64  1  0
 65 60  2  0
 66 60  1  0
 66 59  1  0
 67 57  1  0
 69 71  2  0
 70 69  1  0
 72 70  1  0
 73 82  2  0
 73 78  1  0
 74 70  1  0
 74 78  1  0
 75 74  1  0
 76 77  1  0
 76 75  1  0
 77 73  1  0
 78 79  2  0
 79 80  1  0
 81 80  2  0
 82 81  1  0
 83 57  1  0
 83 84  1  0
 83 93  1  0
 84 87  1  0
 85 89  1  0
 85 84  1  0
 86 85  2  0
 89 88  1  0
 91 89  1  0
 91 92  1  0
 91 90  1  0
 93 96  1  1
 93 94  1  0
 95 93  1  0
M  ISO  4  11 100  19 100  55 101  56 101
M  END
>  <TORSDO>  (75) 
F 28

>  <SCORE>  (75) 
-10.895

>  <name>  (75) 
77

>  <ligand_id>  (75) 
77

>  <original_smiles>  (75) 
[H]c1c([H])c([H])c2c(c1[H])C([H])([H])C([H])([H])C([H])([H])C2([H])N([H])C(=O)C1([H])N(C(=O)C([H])(N([H])C(=O)C([H])(N([H])C([H])([H])[H])C([H])([H])[H])C(C([H])([H])[H])(C([H])([H])[H])C([H])([H])[H])C([H])([H])c2c([H])c(OC([H])([H])C([H])([H])[N+]([H])([H])C([H])([H])C([H])([H])C([H])([H])C([H])([H])C([H])([H])[N+]([H])([H])C([H])([H])C([H])([H])C([H])([H])C([H])([H])N([H])C(=O)N3C([H])([H])C([H])([H])C([H])([H])C([H])(n4nc(-c5c([H])c([H])c(Oc6c([H])c([H])c(F)c([H])c6F)c([H])c5[H])c(C(=O)N([H])[H])c4N([H])[H])C3([H])[H])c([H])c([H])c2C1([H])[H]

>  <smiles>  (75) 
[H]c1c([H])c([H])c2c(c1[H])C([H])([H])C([H])([H])C([H])([H])C2([H])N([H])C(=O)C1([H])N(C(=O)C([H])(N([H])C(=O)C([H])(N([H])C([H])([H])[H])C([H])([H])[H])C(C([H])([H])[H])(C([H])([H])[H])C([H])([H])[H])C([H])([H])c2c([H])c(OC([H])([H])C([H])([H])[N+]([H])([H])C([H])([H])C([H])([H])C([H])([H])C([H])([H])C([H])([H])[N+]([H])([H])C([H])([H])C([H])([H])C([H])([H])C([H])([H])N([H])C(=O)N3C([H])([H])C([H])([H])C([H])([H])C([H])(n4nc(-c5c([H])c([H])c(Oc6c([H])c([H])c(F)c([H])c6F)c([H])c5[H])c(C(=O)N([H])[H])c4N([H])[H])C3([H])[H])c([H])c([H])c2C1([H])[H]

$$$$
78:0:0
     RDKit          3D

 93100  0  0  1  0  0  0  0  0999 V2000
  -30.2060  -22.3790   21.2350 C   0  0  0  0  0  2  0  0  0  0  0  0
  -29.5150  -23.1860   20.2200 N   0  0  0  0  0  4  0  0  0  0  0  0
  -29.9730  -23.0180   19.3380 H   0  0  0  0  0  0  0  0  0  0  0  0
  -28.5620  -22.8700   20.1310 H   0  0  0  0  0  0  0  0  0  0  0  0
  -29.5620  -24.6380   20.4590 C   0  0  0  0  0  2  0  0  0  0  0  0
  -28.2850  -25.3140   19.9540 C   0  0  0  0  0  2  0  0  0  0  0  0
  -28.3670  -26.7220   20.1660 O   0  0  0  0  0  0  0  0  0  0  0  0
  -24.5940  -31.8920   23.2320 C   0  0  0  0  0  0  0  0  0  0  0  0
  -27.1850  -27.4280   20.1360 C   0  0  0  0  0  0  0  0  0  0  0  0
  -23.3750  -30.4940   21.6010 C   0  0  0  0  0  3  0  0  0  0  0  0
  -24.8010  -28.9490   20.1550 C   0  0  0  0  0  0  0  0  0  0  0  0
  -25.8980  -30.8320   21.3840 C   0  0  0  0  0  2  0  0  0  0  0  0
  -25.9640  -29.4640   20.7400 C   0  0  0  0  0  0  0  0  0  0  0  0
  -27.1560  -28.7100   20.7250 C   0  0  0  0  0  3  0  0  0  0  0  0
  -25.9990  -26.9220   19.5480 C   0  0  0  0  0  3  0  0  0  0  0  0
  -24.8130  -27.6780   19.5550 C   0  0  0  0  0  3  0  0  0  0  0  0
  -23.5650  -29.8200   20.2140 C   0  0  0  0  0  2  0  0  0  0  0  0
  -24.6460  -31.0870   22.1320 N   0  0  0  0  0  0  0  0  0  0  0  0
  -23.5150  -32.1680   23.7710 O   0  0  0  0  0  0  0  0  0  0  0  0
  -22.7250  -29.4750   22.5630 C   0  0  0  0  0  0  0  0  0  0  0  0
  -21.3980  -29.2950   22.4380 N   0  0  0  0  0  0  0  0  0  0  0  0
  -23.4080  -28.8440   23.3730 O   0  0  0  0  0  0  0  0  0  0  0  0
  -20.9090  -29.8650   21.7600 H   0  0  0  0  0  0  0  0  0  0  0  0
  -18.0290  -28.0980   22.9450 C   0  0  0  0  0  0  0  0  0  0  0  0
  -20.5840  -28.3580   23.2110 C   0  0  0  0  0  3  0  0  0  0  0  0
  -20.6860  -26.9240   22.6420 C   0  0  0  0  0  2  0  0  0  0  0  0
  -19.5830  -26.5960   21.6300 C   0  0  0  0  0  2  0  0  0  0  0  0
  -18.2030  -26.7470   22.2770 C   0  0  0  0  0  2  0  0  0  0  0  0
  -19.1480  -28.8610   23.3710 C   0  0  0  0  0  0  0  0  0  0  0  0
  -18.9310  -30.1280   23.9570 C   0  0  0  0  0  3  0  0  0  0  0  0
  -17.6250  -30.6280   24.1220 C   0  0  0  0  0  3  0  0  0  0  0  0
  -16.5210  -29.8630   23.7100 C   0  0  0  0  0  3  0  0  0  0  0  0
  -16.7240  -28.6000   23.1270 C   0  0  0  0  0  3  0  0  0  0  0  0
  -25.8870  -32.5190   23.8440 C   0  0  0  0  0  3  0  0  0  0  0  0
  -25.5820  -33.9140   24.1790 N   0  0  0  0  0  0  0  0  0  0  0  0
  -25.9010  -34.9710   23.4200 C   0  0  0  0  0  0  0  0  0  0  0  0
  -26.5580  -34.8730   22.3800 O   0  0  0  0  0  0  0  0  0  0  0  0
  -25.0020  -34.0660   24.9870 H   0  0  0  0  0  0  0  0  0  0  0  0
  -24.1670  -36.7650   23.0900 C   0  0  0  0  0  1  0  0  0  0  0  0
  -25.4180  -36.3570   23.8870 C   0  0  0  0  0  3  0  0  0  0  0  0
  -27.5610  -37.2430   24.6940 C   0  0  0  0  0  1  0  0  0  0  0  0
  -26.4480  -37.4120   23.7640 N   0  0  0  0  0  0  0  0  0  0  0  0
  -26.0460  -38.3340   23.9160 H   0  0  0  0  0  0  0  0  0  0  0  0
  -26.4120  -31.7480   25.1140 C   0  0  1  0  0  0  0  0  0  0  0  0
  -25.3290  -31.5080   26.1920 C   0  0  0  0  0  1  0  0  0  0  0  0
  -26.9930  -30.3760   24.7070 C   0  0  0  0  0  1  0  0  0  0  0  0
  -27.5680  -32.5400   25.7670 C   0  0  0  0  0  1  0  0  0  0  0  0
  -30.2510  -20.9130   20.7890 C   0  0  0  0  0  2  0  0  0  0  0  0
  -32.0810  -19.4050   19.9780 C   0  0  0  0  0  0  0  0  0  0  0  0
  -31.6370  -20.5570   20.5010 N   0  0  0  0  0  0  0  0  0  0  0  0
  -33.2740  -19.2170   19.7510 O   0  0  0  0  0  0  0  0  0  0  0  0
  -32.3100  -21.3010   20.6530 H   0  0  0  0  0  0  0  0  0  0  0  0
  -31.0320  -18.4410   19.7520 C   0  0  0  0  0  3  0  0  0  0  0  0
  -30.7840  -17.5370   20.7160 C   0  0  0  0  0  3  0  0  0  0  0  0
  -29.6000  -16.6120   20.7340 C   0  0  0  0  0  2  0  0  0  0  0  0
  -30.6460  -14.3770   20.5210 C   0  0  0  0  0  0  0  0  0  0  0  0
  -30.3870  -12.2810   19.2890 C   0  0  0  0  0  2  0  0  0  0  0  0
  -29.4460  -12.5570   18.1000 C   0  0  0  0  0  2  0  0  0  0  0  0
  -27.9630  -12.4530   18.5110 C   0  0  0  0  0  2  0  0  0  0  0  0
  -27.6320  -13.2370   19.8090 C   0  0  0  0  0  3  0  0  0  0  0  0
  -28.6660  -12.8850   20.9040 C   0  0  0  0  0  2  0  0  0  0  0  0
  -30.0130  -13.1880   20.3740 N   0  0  0  0  0  0  0  0  0  0  0  0
  -31.7170  -14.6720   19.9810 O   0  0  0  0  0  0  0  0  0  0  0  0
  -29.8970  -15.2640   21.1790 N   0  0  0  0  0  0  0  0  0  0  0  0
  -29.1410  -14.8180   21.6780 H   0  0  0  0  0  0  0  0  0  0  0  0
  -25.2140  -13.8820   20.4420 C   0  0  0  0  0  0  0  0  0  0  0  0
  -24.1310  -13.1220   20.8070 C   0  0  0  0  0  0  0  0  0  0  0  0
  -24.5830  -11.7690   20.8100 C   0  0  0  0  0  0  0  0  0  0  0  0
  -26.2600  -12.9860   20.2580 N   0  0  0  0  0  0  0  0  0  0  0  0
  -25.8770  -11.7120   20.5250 N   0  0  0  0  0  0  0  0  0  0  0  0
  -23.8490  -10.5130   21.0140 C   0  0  0  0  0  0  0  0  0  0  0  0
  -24.2730   -9.5490   21.9540 C   0  0  0  0  0  3  0  0  0  0  0  0
  -23.5360   -8.3580   22.1420 C   0  0  0  0  0  3  0  0  0  0  0  0
  -22.3640   -8.1210   21.3820 C   0  0  0  0  0  0  0  0  0  0  0  0
  -21.9620   -9.0720   20.4290 C   0  0  0  0  0  3  0  0  0  0  0  0
  -22.7010  -10.2530   20.2420 C   0  0  0  0  0  3  0  0  0  0  0  0
  -21.6050   -6.9780   21.4740 O   0  0  0  0  0  0  0  0  0  0  0  0
  -21.5590   -6.2370   22.6270 C   0  0  0  0  0  0  0  0  0  0  0  0
  -21.1530   -6.8000   23.8570 C   0  0  0  0  0  3  0  0  0  0  0  0
  -21.0510   -5.9880   25.0030 C   0  0  0  0  0  3  0  0  0  0  0  0
  -21.3430   -4.6130   24.9230 C   0  0  0  0  0  0  0  0  0  0  0  0
  -21.7470   -4.0500   23.6990 C   0  0  0  0  0  3  0  0  0  0  0  0
  -21.8480   -4.8590   22.5530 C   0  0  0  0  0  0  0  0  0  0  0  0
  -22.2130   -4.3090   21.3710 F   0  0  0  0  0  0  0  0  0  0  0  0
  -21.2380   -3.8290   26.0220 F   0  0  0  0  0  0  0  0  0  0  0  0
  -22.7360  -13.6110   21.0470 C   0  0  0  0  0  0  0  0  0  0  0  0
  -21.9860  -12.9340   21.9140 N   0  0  0  0  0  0  0  0  0  0  0  0
  -22.3080  -14.6260   20.5030 O   0  0  0  0  0  0  0  0  0  0  0  0
  -22.3410  -12.1120   22.3760 H   0  0  0  0  0  0  0  0  0  0  0  0
  -21.0480  -13.2480   22.1180 H   0  0  0  0  0  0  0  0  0  0  0  0
  -25.3910  -15.2460   20.2490 N   0  0  0  0  0  0  0  0  0  0  0  0
  -24.6260  -15.9090   20.3280 H   0  0  0  0  0  0  0  0  0  0  0  0
  -26.2490  -15.6690   19.9160 H   0  0  0  0  0  0  0  0  0  0  0  0
  2  5  1  0
  2  1  1  0
  3  2  1  0
  4  2  1  0
  6  7  1  0
  6  5  1  0
  8 19  2  0
  9  7  1  0
  9 14  1  0
 10 18  1  0
 10 20  1  0
 11 17  1  0
 11 13  1  0
 12 18  1  0
 13 12  1  0
 14 13  2  0
 15 16  1  0
 15  9  2  0
 16 11  2  0
 17 10  1  0
 18  8  1  0
 20 22  2  0
 21 20  1  0
 23 21  1  0
 24 33  2  0
 24 29  1  0
 25 21  1  0
 25 29  1  0
 26 25  1  0
 27 28  1  0
 27 26  1  0
 28 24  1  0
 29 30  2  0
 30 31  1  0
 32 31  2  0
 33 32  1  0
 34  8  1  0
 34 35  1  0
 34 44  1  0
 35 38  1  0
 36 40  1  0
 36 35  1  0
 37 36  2  0
 40 39  1  0
 42 40  1  0
 42 43  1  0
 42 41  1  0
 44 47  1  1
 44 45  1  0
 46 44  1  0
 48  1  1  0
 49 50  1  0
 50 52  1  0
 50 48  1  0
 51 49  2  0
 53 49  1  0
 53 54  2  0
 54 55  1  0
 55 64  1  0
 56 64  1  0
 57 62  1  0
 58 59  1  0
 58 57  1  0
 60 59  1  0
 60 69  1  0
 60 61  1  0
 62 56  1  0
 62 61  1  0
 63 56  2  0
 64 65  1  0
 66 67  2  0
 67 68  1  0
 67 86  1  0
 68 71  1  0
 69 66  1  0
 69 70  1  0
 70 68  2  0
 71 72  1  0
 72 73  2  0
 74 77  1  0
 74 73  1  0
 75 74  2  0
 76 75  1  0
 76 71  2  0
 77 78  1  0
 78 79  1  0
 79 80  2  0
 81 80  1  0
 81 85  1  0
 82 81  2  0
 83 78  2  0
 83 82  1  0
 84 83  1  0
 86 87  1  0
 87 90  1  0
 87 89  1  0
 88 86  2  0
 91 92  1  0
 91 66  1  0
 93 91  1  0
M  ISO  4   6 101   7 101  56 100  64 100
M  END
>  <TORSDO>  (76) 
F 23

>  <SCORE>  (76) 
-12.747

>  <name>  (76) 
78

>  <ligand_id>  (76) 
78

>  <original_smiles>  (76) 
[H]C(C(=O)N([H])C([H])([H])C([H])([H])[N+]([H])([H])C([H])([H])C([H])([H])Oc1c([H])c([H])c2c(c1[H])C([H])([H])N(C(=O)C([H])(N([H])C(=O)C([H])(N([H])C([H])([H])[H])C([H])([H])[H])C(C([H])([H])[H])(C([H])([H])[H])C([H])([H])[H])C([H])(C(=O)N([H])C1([H])c3c([H])c([H])c([H])c([H])c3C([H])([H])C([H])([H])C1([H])[H])C2([H])[H])=C([H])C([H])([H])N([H])C(=O)N1C([H])([H])C([H])([H])C([H])([H])C([H])(n2nc(-c3c([H])c([H])c(Oc4c([H])c([H])c(F)c([H])c4F)c([H])c3[H])c(C(=O)N([H])[H])c2N([H])[H])C1([H])[H]

>  <smiles>  (76) 
[H]C(C(=O)N([H])C([H])([H])C([H])([H])[N+]([H])([H])C([H])([H])C([H])([H])Oc1c([H])c([H])c2c(c1[H])C([H])([H])N(C(=O)C([H])(N([H])C(=O)C([H])(N([H])C([H])([H])[H])C([H])([H])[H])C(C([H])([H])[H])(C([H])([H])[H])C([H])([H])[H])C([H])(C(=O)N([H])C1([H])c3c([H])c([H])c([H])c([H])c3C([H])([H])C([H])([H])C1([H])[H])C2([H])[H])=C([H])C([H])([H])N([H])C(=O)N1C([H])([H])C([H])([H])C([H])([H])C([H])(n2nc(-c3c([H])c([H])c(Oc4c([H])c([H])c(F)c([H])c4F)c([H])c3[H])c(C(=O)N([H])[H])c2N([H])[H])C1([H])[H]

$$$$
79:0:0
     RDKit          3D

 93100  0  0  1  0  0  0  0  0999 V2000
  -28.6770  -22.2400   21.1660 C   0  0  0  0  0  0  0  0  0  0  0  0
  -28.2630  -23.2670   20.4170 N   0  0  0  0  0  0  0  0  0  0  0  0
  -29.1090  -22.3760   22.3130 O   0  0  0  0  0  0  0  0  0  0  0  0
  -27.9340  -23.0570   19.4850 H   0  0  0  0  0  0  0  0  0  0  0  0
  -28.5100  -20.9790   20.4710 C   0  0  0  0  0  3  0  0  0  0  0  0
  -28.9000  -19.8190   21.0340 C   0  0  0  0  0  3  0  0  0  0  0  0
  -28.7260  -18.4640   20.3790 C   0  0  0  0  0  2  0  0  0  0  0  0
  -29.9700  -17.6800   20.4860 N   0  0  0  0  0  4  0  0  0  0  0  0
  -30.7500  -18.3170   20.5110 H   0  0  0  0  0  0  0  0  0  0  0  0
  -30.0530  -17.1280   19.6460 H   0  0  0  0  0  0  0  0  0  0  0  0
  -30.0380  -16.7460   21.6330 C   0  0  0  0  0  2  0  0  0  0  0  0
  -31.1740  -15.7080   21.4860 C   0  0  0  0  0  2  0  0  0  0  0  0
  -31.7610  -13.9050   19.9180 C   0  0  0  0  0  0  0  0  0  0  0  0
  -31.2900  -11.5640   19.3330 C   0  0  0  0  0  2  0  0  0  0  0  0
  -30.3420  -11.4990   18.1170 C   0  0  0  0  0  2  0  0  0  0  0  0
  -28.8710  -11.5550   18.5730 C   0  0  0  0  0  2  0  0  0  0  0  0
  -28.5960  -12.7120   19.5710 C   0  0  0  0  0  3  0  0  0  0  0  0
  -29.6540  -12.7390   20.6960 C   0  0  0  0  0  2  0  0  0  0  0  0
  -30.9900  -12.7970   20.0750 N   0  0  0  0  0  0  0  0  0  0  0  0
  -32.8440  -13.9060   19.3360 O   0  0  0  0  0  0  0  0  0  0  0  0
  -31.1840  -15.0840   20.1610 N   0  0  0  0  0  0  0  0  0  0  0  0
  -31.5870  -15.7260   19.4940 H   0  0  0  0  0  0  0  0  0  0  0  0
  -26.3700  -13.6660   20.4490 C   0  0  0  0  0  0  0  0  0  0  0  0
  -25.2030  -13.0610   20.8350 C   0  0  0  0  0  0  0  0  0  0  0  0
  -25.4260  -11.6560   20.7000 C   0  0  0  0  0  0  0  0  0  0  0  0
  -27.2380  -12.6410   20.1080 N   0  0  0  0  0  0  0  0  0  0  0  0
  -26.6740  -11.4230   20.3160 N   0  0  0  0  0  0  0  0  0  0  0  0
  -24.5040  -10.5220   20.8590 C   0  0  0  0  0  0  0  0  0  0  0  0
  -24.8000   -9.4500   21.7290 C   0  0  0  0  0  3  0  0  0  0  0  0
  -23.8930   -8.3790   21.8790 C   0  0  0  0  0  3  0  0  0  0  0  0
  -22.6750   -8.3740   21.1590 C   0  0  0  0  0  0  0  0  0  0  0  0
  -22.3970   -9.4320   20.2760 C   0  0  0  0  0  3  0  0  0  0  0  0
  -23.3030  -10.4960   20.1240 C   0  0  0  0  0  3  0  0  0  0  0  0
  -21.7450   -7.3640   21.2220 O   0  0  0  0  0  0  0  0  0  0  0  0
  -21.5650   -6.6230   22.3620 C   0  0  0  0  0  0  0  0  0  0  0  0
  -21.2300   -7.2240   23.5950 C   0  0  0  0  0  3  0  0  0  0  0  0
  -20.9830   -6.4190   24.7250 C   0  0  0  0  0  3  0  0  0  0  0  0
  -21.0620   -5.0170   24.6230 C   0  0  0  0  0  0  0  0  0  0  0  0
  -21.3920   -4.4180   23.3950 C   0  0  0  0  0  3  0  0  0  0  0  0
  -21.6380   -5.2190   22.2670 C   0  0  0  0  0  0  0  0  0  0  0  0
  -21.9340   -4.6360   21.0800 F   0  0  0  0  0  0  0  0  0  0  0  0
  -20.8170   -4.2430   25.7070 F   0  0  0  0  0  0  0  0  0  0  0  0
  -23.9210  -13.7450   21.2110 C   0  0  0  0  0  0  0  0  0  0  0  0
  -23.1590  -13.1570   22.1270 N   0  0  0  0  0  0  0  0  0  0  0  0
  -23.6100  -14.8320   20.7260 O   0  0  0  0  0  0  0  0  0  0  0  0
  -23.4240  -12.2740   22.5380 H   0  0  0  0  0  0  0  0  0  0  0  0
  -22.2970  -13.5960   22.4190 H   0  0  0  0  0  0  0  0  0  0  0  0
  -26.7560  -14.9990   20.3350 N   0  0  0  0  0  0  0  0  0  0  0  0
  -26.0810  -15.7490   20.4430 H   0  0  0  0  0  0  0  0  0  0  0  0
  -27.5970  -15.2850   19.8520 H   0  0  0  0  0  0  0  0  0  0  0  0
  -28.1190  -24.6500   20.8640 C   0  0  0  0  0  2  0  0  0  0  0  0
  -29.0140  -25.6080   20.0530 C   0  0  0  0  0  2  0  0  0  0  0  0
  -28.8990  -26.9540   20.5210 O   0  0  0  0  0  0  0  0  0  0  0  0
  -24.7110  -31.9530   23.3160 C   0  0  0  0  0  0  0  0  0  0  0  0
  -27.6790  -27.5920   20.4330 C   0  0  0  0  0  0  0  0  0  0  0  0
  -23.6410  -30.4820   21.6370 C   0  0  0  0  0  3  0  0  0  0  0  0
  -25.2220  -28.9850   20.3120 C   0  0  0  0  0  0  0  0  0  0  0  0
  -26.1570  -30.9430   21.5560 C   0  0  0  0  0  2  0  0  0  0  0  0
  -26.3270  -29.5680   20.9420 C   0  0  0  0  0  0  0  0  0  0  0  0
  -27.5560  -28.8790   20.9990 C   0  0  0  0  0  3  0  0  0  0  0  0
  -26.5530  -27.0180   19.7970 C   0  0  0  0  0  3  0  0  0  0  0  0
  -25.3290  -27.7070   19.7380 C   0  0  0  0  0  3  0  0  0  0  0  0
  -23.9450  -29.7910   20.2810 C   0  0  0  0  0  2  0  0  0  0  0  0
  -24.8520  -31.1420   22.2290 N   0  0  0  0  0  0  0  0  0  0  0  0
  -23.5930  -32.1900   23.7970 O   0  0  0  0  0  0  0  0  0  0  0  0
  -22.9860  -29.4480   22.5790 C   0  0  0  0  0  0  0  0  0  0  0  0
  -21.6760  -29.2210   22.3970 N   0  0  0  0  0  0  0  0  0  0  0  0
  -23.6550  -28.8520   23.4290 O   0  0  0  0  0  0  0  0  0  0  0  0
  -21.1980  -29.7570   21.6860 H   0  0  0  0  0  0  0  0  0  0  0  0
  -18.3140  -27.9620   22.7940 C   0  0  0  0  0  0  0  0  0  0  0  0
  -20.8570  -28.2650   23.1410 C   0  0  0  0  0  3  0  0  0  0  0  0
  -21.0030  -26.8390   22.5610 C   0  0  0  0  0  2  0  0  0  0  0  0
  -19.9360  -26.5010   21.5140 C   0  0  0  0  0  2  0  0  0  0  0  0
  -18.5350  -26.6190   22.1200 C   0  0  0  0  0  2  0  0  0  0  0  0
  -19.4060  -28.7420   23.2590 C   0  0  0  0  0  0  0  0  0  0  0  0
  -19.1460  -30.0010   23.8450 C   0  0  0  0  0  3  0  0  0  0  0  0
  -17.8290  -30.4790   23.9740 C   0  0  0  0  0  3  0  0  0  0  0  0
  -16.7520  -29.6950   23.5250 C   0  0  0  0  0  3  0  0  0  0  0  0
  -16.9950  -28.4380   22.9420 C   0  0  0  0  0  3  0  0  0  0  0  0
  -25.9410  -32.6390   23.9890 C   0  0  0  0  0  3  0  0  0  0  0  0
  -25.5710  -34.0340   24.2630 N   0  0  0  0  0  0  0  0  0  0  0  0
  -25.9040  -35.0740   23.4860 C   0  0  0  0  0  0  0  0  0  0  0  0
  -26.6230  -34.9630   22.4890 O   0  0  0  0  0  0  0  0  0  0  0  0
  -24.9370  -34.1900   25.0310 H   0  0  0  0  0  0  0  0  0  0  0  0
  -24.1270  -36.7860   23.0040 C   0  0  0  0  0  1  0  0  0  0  0  0
  -25.3460  -36.4560   23.8790 C   0  0  0  0  0  3  0  0  0  0  0  0
  -27.4130  -37.4430   24.7600 C   0  0  0  0  0  1  0  0  0  0  0  0
  -26.3440  -37.5440   23.7720 N   0  0  0  0  0  0  0  0  0  0  0  0
  -25.8980  -38.4520   23.8770 H   0  0  0  0  0  0  0  0  0  0  0  0
  -26.4130  -31.9160   25.3090 C   0  0  1  0  0  0  0  0  0  0  0  0
  -25.2610  -31.5990   26.2910 C   0  0  0  0  0  1  0  0  0  0  0  0
  -27.1270  -30.5850   24.9740 C   0  0  0  0  0  1  0  0  0  0  0  0
  -27.4440  -32.7990   26.0520 C   0  0  0  0  0  1  0  0  0  0  0  0
  1  3  2  0
  2 51  1  0
  2  1  1  0
  4  2  1  0
  5  6  2  0
  5  1  1  0
  7  8  1  0
  7  6  1  0
  8  9  1  0
  8 11  1  0
 10  8  1  0
 12 11  1  0
 13 19  1  0
 13 21  1  0
 14 19  1  0
 15 16  1  0
 15 14  1  0
 17 16  1  0
 17 26  1  0
 17 18  1  0
 19 18  1  0
 20 13  2  0
 21 12  1  0
 22 21  1  0
 23 24  2  0
 24 43  1  0
 25 24  1  0
 25 28  1  0
 26 27  1  0
 26 23  1  0
 27 25  2  0
 28 29  1  0
 29 30  2  0
 31 34  1  0
 31 30  1  0
 32 31  2  0
 33 32  1  0
 33 28  2  0
 34 35  1  0
 35 36  1  0
 36 37  2  0
 38 37  1  0
 38 42  1  0
 39 38  2  0
 40 35  2  0
 40 39  1  0
 41 40  1  0
 43 44  1  0
 44 47  1  0
 44 46  1  0
 45 43  2  0
 48 49  1  0
 48 23  1  0
 50 48  1  0
 52 53  1  0
 52 51  1  0
 54 65  2  0
 55 53  1  0
 55 60  1  0
 56 64  1  0
 56 66  1  0
 57 59  1  0
 58 64  1  0
 59 60  2  0
 59 58  1  0
 61 55  2  0
 62 61  1  0
 62 57  2  0
 63 57  1  0
 63 56  1  0
 64 54  1  0
 66 68  2  0
 67 66  1  0
 69 67  1  0
 70 79  2  0
 70 75  1  0
 71 67  1  0
 71 75  1  0
 72 71  1  0
 73 74  1  0
 73 72  1  0
 74 70  1  0
 75 76  2  0
 76 77  1  0
 78 77  2  0
 79 78  1  0
 80 54  1  0
 80 81  1  0
 80 90  1  0
 81 84  1  0
 82 86  1  0
 82 81  1  0
 83 82  2  0
 86 85  1  0
 88 89  1  0
 88 86  1  0
 88 87  1  0
 90 93  1  1
 90 91  1  0
 92 90  1  0
M  ISO  4  13 100  21 100  52 101  53 101
M  END
>  <TORSDO>  (77) 
F 23

>  <SCORE>  (77) 
-12.019

>  <name>  (77) 
79

>  <ligand_id>  (77) 
79

>  <original_smiles>  (77) 
[H]C(C(=O)N([H])C([H])([H])C([H])([H])Oc1c([H])c([H])c2c(c1[H])C([H])([H])N(C(=O)C([H])(N([H])C(=O)C([H])(N([H])C([H])([H])[H])C([H])([H])[H])C(C([H])([H])[H])(C([H])([H])[H])C([H])([H])[H])C([H])(C(=O)N([H])C1([H])c3c([H])c([H])c([H])c([H])c3C([H])([H])C([H])([H])C1([H])[H])C2([H])[H])=C([H])C([H])([H])[N+]([H])([H])C([H])([H])C([H])([H])N([H])C(=O)N1C([H])([H])C([H])([H])C([H])([H])C([H])(n2nc(-c3c([H])c([H])c(Oc4c([H])c([H])c(F)c([H])c4F)c([H])c3[H])c(C(=O)N([H])[H])c2N([H])[H])C1([H])[H]

>  <smiles>  (77) 
[H]C(C(=O)N([H])C([H])([H])C([H])([H])Oc1c([H])c([H])c2c(c1[H])C([H])([H])N(C(=O)C([H])(N([H])C(=O)C([H])(N([H])C([H])([H])[H])C([H])([H])[H])C(C([H])([H])[H])(C([H])([H])[H])C([H])([H])[H])C([H])(C(=O)N([H])C1([H])c3c([H])c([H])c([H])c([H])c3C([H])([H])C([H])([H])C1([H])[H])C2([H])[H])=C([H])C([H])([H])[N+]([H])([H])C([H])([H])C([H])([H])N([H])C(=O)N1C([H])([H])C([H])([H])C([H])([H])C([H])(n2nc(-c3c([H])c([H])c(Oc4c([H])c([H])c(F)c([H])c4F)c([H])c3[H])c(C(=O)N([H])[H])c2N([H])[H])C1([H])[H]

$$$$
80:0:0
     RDKit          3D

 88 95  0  0  1  0  0  0  0  0999 V2000
  -29.0430  -22.4530   20.2050 C   0  0  0  0  0  2  0  0  0  0  0  0
  -28.6900  -23.9440   20.7490 C   0  0  0  0  0  3  0  0  0  0  0  0
  -28.4640  -25.1310   19.7090 C   0  0  0  0  0  3  0  0  0  0  0  0
  -28.3800  -26.5250   20.2140 O   0  0  0  0  0  0  0  0  0  0  0  0
  -24.6240  -31.8750   23.2400 C   0  0  0  0  0  0  0  0  0  0  0  0
  -27.2210  -27.3190   20.1600 C   0  0  0  0  0  0  0  0  0  0  0  0
  -23.4080  -30.4790   21.6050 C   0  0  0  0  0  3  0  0  0  0  0  0
  -24.8480  -28.9280   20.1710 C   0  0  0  0  0  0  0  0  0  0  0  0
  -25.9450  -30.7980   21.4060 C   0  0  0  0  0  2  0  0  0  0  0  0
  -26.0190  -29.4190   20.7590 C   0  0  0  0  0  0  0  0  0  0  0  0
  -27.2040  -28.6250   20.7440 C   0  0  0  0  0  3  0  0  0  0  0  0
  -26.0200  -26.8760   19.5610 C   0  0  0  0  0  3  0  0  0  0  0  0
  -24.8510  -27.6620   19.5650 C   0  0  0  0  0  3  0  0  0  0  0  0
  -23.6120  -29.8020   20.2250 C   0  0  0  0  0  2  0  0  0  0  0  0
  -24.6780  -31.0680   22.1390 N   0  0  0  0  0  0  0  0  0  0  0  0
  -23.5440  -32.1520   23.7820 O   0  0  0  0  0  0  0  0  0  0  0  0
  -22.7520  -29.4610   22.5700 C   0  0  0  0  0  0  0  0  0  0  0  0
  -21.4260  -29.2820   22.4480 N   0  0  0  0  0  0  0  0  0  0  0  0
  -23.4360  -28.8360   23.3850 O   0  0  0  0  0  0  0  0  0  0  0  0
  -20.9350  -29.8360   21.7610 H   0  0  0  0  0  0  0  0  0  0  0  0
  -18.0530  -28.0810   22.9610 C   0  0  0  0  0  0  0  0  0  0  0  0
  -20.6110  -28.3440   23.2220 C   0  0  0  0  0  3  0  0  0  0  0  0
  -20.7140  -26.9120   22.6480 C   0  0  0  0  0  2  0  0  0  0  0  0
  -19.6080  -26.5850   21.6390 C   0  0  0  0  0  2  0  0  0  0  0  0
  -18.2290  -26.7290   22.2900 C   0  0  0  0  0  2  0  0  0  0  0  0
  -19.1720  -28.8460   23.3850 C   0  0  0  0  0  0  0  0  0  0  0  0
  -18.9530  -30.1100   23.9750 C   0  0  0  0  0  3  0  0  0  0  0  0
  -17.6480  -30.6090   24.1440 C   0  0  0  0  0  3  0  0  0  0  0  0
  -16.5440  -29.8420   23.7340 C   0  0  0  0  0  3  0  0  0  0  0  0
  -16.7470  -28.5800   23.1480 C   0  0  0  0  0  3  0  0  0  0  0  0
  -25.9100  -32.5070   23.8550 C   0  0  0  0  0  3  0  0  0  0  0  0
  -26.4320  -31.7370   25.1300 C   0  0  1  0  0  0  0  0  0  0  0  0
  -25.3430  -31.5030   26.2030 C   0  0  0  0  0  1  0  0  0  0  0  0
  -27.0100  -30.3570   24.7360 C   0  0  0  0  0  1  0  0  0  0  0  0
  -27.5870  -32.5290   25.7840 C   0  0  0  0  0  1  0  0  0  0  0  0
  -25.6040  -33.9050   24.1860 N   0  0  0  0  0  0  0  0  0  0  0  0
  -25.9340  -34.9590   23.4270 C   0  0  0  0  0  0  0  0  0  0  0  0
  -26.5980  -34.8550   22.3920 O   0  0  0  0  0  0  0  0  0  0  0  0
  -25.0110  -34.0600   24.9890 H   0  0  0  0  0  0  0  0  0  0  0  0
  -24.2070  -36.7560   23.0810 C   0  0  0  0  0  1  0  0  0  0  0  0
  -25.4510  -36.3480   23.8880 C   0  0  0  0  0  3  0  0  0  0  0  0
  -27.5900  -37.2290   24.7110 C   0  0  0  0  0  1  0  0  0  0  0  0
  -26.4840  -37.4000   23.7720 N   0  0  0  0  0  0  0  0  0  0  0  0
  -26.0810  -38.3210   23.9200 H   0  0  0  0  0  0  0  0  0  0  0  0
  -28.5340  -20.9700   20.6210 C   0  0  0  0  0  2  0  0  0  0  0  0
  -29.4930  -19.7910   20.5000 N   0  0  0  0  0  4  0  0  0  0  0  0
  -28.9640  -19.6540   19.6530 H   0  0  0  0  0  0  0  0  0  0  0  0
  -29.2750  -19.7420   21.4830 H   0  0  0  0  0  0  0  0  0  0  0  0
  -29.1080  -18.3240   20.6590 C   0  0  0  0  0  3  0  0  0  0  0  0
  -30.2500  -17.2150   20.5120 C   0  0  0  0  0  3  0  0  0  0  0  0
  -30.6050  -14.6570   20.3620 C   0  0  0  0  0  0  0  0  0  0  0  0
  -30.3570  -12.4250   19.2970 C   0  0  0  0  0  2  0  0  0  0  0  0
  -29.4070  -12.5570   18.0870 C   0  0  0  0  0  2  0  0  0  0  0  0
  -27.9390  -12.3980   18.5320 C   0  0  0  0  0  2  0  0  0  0  0  0
  -27.5920  -13.2610   19.7740 C   0  0  0  0  0  3  0  0  0  0  0  0
  -28.6590  -13.1180   20.8810 C   0  0  0  0  0  2  0  0  0  0  0  0
  -29.9610  -13.4490   20.2850 N   0  0  0  0  0  0  0  0  0  0  0  0
  -31.7710  -14.7820   19.9820 O   0  0  0  0  0  0  0  0  0  0  0  0
  -29.8500  -15.7630   20.6580 N   0  0  0  0  0  0  0  0  0  0  0  0
  -28.8970  -15.5770   20.9360 H   0  0  0  0  0  0  0  0  0  0  0  0
  -25.2050  -13.8560   20.5120 C   0  0  0  0  0  0  0  0  0  0  0  0
  -24.1420  -13.0820   20.8900 C   0  0  0  0  0  0  0  0  0  0  0  0
  -24.6050  -11.7320   20.8570 C   0  0  0  0  0  0  0  0  0  0  0  0
  -26.2470  -12.9770   20.2700 N   0  0  0  0  0  0  0  0  0  0  0  0
  -25.8930  -11.6940   20.5390 N   0  0  0  0  0  0  0  0  0  0  0  0
  -23.8810  -10.4680   21.0510 C   0  0  0  0  0  0  0  0  0  0  0  0
  -24.3250   -9.4970   21.9770 C   0  0  0  0  0  3  0  0  0  0  0  0
  -23.6020   -8.3000   22.1600 C   0  0  0  0  0  3  0  0  0  0  0  0
  -22.4200   -8.0640   21.4180 C   0  0  0  0  0  0  0  0  0  0  0  0
  -21.9940   -9.0230   20.4820 C   0  0  0  0  0  3  0  0  0  0  0  0
  -22.7190  -10.2130   20.2970 C   0  0  0  0  0  3  0  0  0  0  0  0
  -21.6660   -6.9180   21.5120 O   0  0  0  0  0  0  0  0  0  0  0  0
  -21.6380   -6.1670   22.6590 C   0  0  0  0  0  0  0  0  0  0  0  0
  -21.2360   -6.7110   23.8990 C   0  0  0  0  0  3  0  0  0  0  0  0
  -21.1550   -5.8860   25.0370 C   0  0  0  0  0  3  0  0  0  0  0  0
  -21.4670   -4.5170   24.9390 C   0  0  0  0  0  0  0  0  0  0  0  0
  -21.8640   -3.9720   23.7050 C   0  0  0  0  0  3  0  0  0  0  0  0
  -21.9470   -4.7940   22.5680 C   0  0  0  0  0  0  0  0  0  0  0  0
  -22.3080   -4.2600   21.3770 F   0  0  0  0  0  0  0  0  0  0  0  0
  -21.3830   -3.7220   26.0320 F   0  0  0  0  0  0  0  0  0  0  0  0
  -22.7450  -13.5580   21.1710 C   0  0  0  0  0  0  0  0  0  0  0  0
  -22.0230  -12.8600   22.0410 N   0  0  0  0  0  0  0  0  0  0  0  0
  -22.3030  -14.5830   20.6540 O   0  0  0  0  0  0  0  0  0  0  0  0
  -22.3940  -12.0310   22.4800 H   0  0  0  0  0  0  0  0  0  0  0  0
  -21.0860  -13.1600   22.2700 H   0  0  0  0  0  0  0  0  0  0  0  0
  -25.3650  -15.2280   20.3310 N   0  0  0  0  0  0  0  0  0  0  0  0
  -24.5880  -15.8730   20.4270 H   0  0  0  0  0  0  0  0  0  0  0  0
  -26.1910  -15.6590   19.9380 H   0  0  0  0  0  0  0  0  0  0  0  0
  1 45  1  0
  1  2  1  0
  3  4  1  0
  3  2  2  0
  5 16  2  0
  6  4  1  0
  6 11  1  0
  7 15  1  0
  7 17  1  0
  8 14  1  0
  8 10  1  0
  9 15  1  0
 10  9  1  0
 11 10  2  0
 12 13  1  0
 12  6  2  0
 13  8  2  0
 14  7  1  0
 15  5  1  0
 17 19  2  0
 18 17  1  0
 20 18  1  0
 21 30  2  0
 21 26  1  0
 22 18  1  0
 22 26  1  0
 23 22  1  0
 24 25  1  0
 24 23  1  0
 25 21  1  0
 26 27  2  0
 27 28  1  0
 29 28  2  0
 30 29  1  0
 31  5  1  0
 31 36  1  0
 31 32  1  0
 32 35  1  1
 32 33  1  0
 34 32  1  0
 36 39  1  0
 37 41  1  0
 37 36  1  0
 38 37  2  0
 41 40  1  0
 43 41  1  0
 43 44  1  0
 43 42  1  0
 46 45  1  0
 46 49  1  0
 46 48  1  0
 47 46  1  0
 50 59  1  0
 50 49  2  0
 51 59  1  0
 52 57  1  0
 53 54  1  0
 53 52  1  0
 55 54  1  0
 55 64  1  0
 55 56  1  0
 57 51  1  0
 57 56  1  0
 58 51  2  0
 59 60  1  0
 61 62  2  0
 62 81  1  0
 63 62  1  0
 63 66  1  0
 64 61  1  0
 64 65  1  0
 65 63  2  0
 66 67  1  0
 67 68  2  0
 69 72  1  0
 69 68  1  0
 70 69  2  0
 71 70  1  0
 71 66  2  0
 72 73  1  0
 73 74  1  0
 74 75  2  0
 76 75  1  0
 76 80  1  0
 77 76  2  0
 78 73  2  0
 78 77  1  0
 79 78  1  0
 81 82  1  0
 82 85  1  0
 82 84  1  0
 83 81  2  0
 86 87  1  0
 86 61  1  0
 88 86  1  0
M  ISO  4   3 101   4 101  51 100  59 100
M  END
>  <TORSDO>  (78) 
F 22

>  <SCORE>  (78) 
-12.897

>  <name>  (78) 
80

>  <ligand_id>  (78) 
80

>  <original_smiles>  (78) 
[H]c1c([H])c([H])c2c(c1[H])C([H])([H])C([H])([H])C([H])([H])C2([H])N([H])C(=O)C1([H])N(C(=O)C([H])(N([H])C(=O)C([H])(N([H])C([H])([H])[H])C([H])([H])[H])C(C([H])([H])[H])(C([H])([H])[H])C([H])([H])[H])C([H])([H])c2c([H])c(OC([H])([H])C([H])([H])C([H])([H])C([H])([H])[N+]([H])([H])C([H])([H])C([H])([H])N([H])C(=O)N3C([H])([H])C([H])([H])C([H])([H])C([H])(n4nc(-c5c([H])c([H])c(Oc6c([H])c([H])c(F)c([H])c6F)c([H])c5[H])c(C(=O)N([H])[H])c4N([H])[H])C3([H])[H])c([H])c([H])c2C1([H])[H]

>  <smiles>  (78) 
[H]c1c([H])c([H])c2c(c1[H])C([H])([H])C([H])([H])C([H])([H])C2([H])N([H])C(=O)C1([H])N(C(=O)C([H])(N([H])C(=O)C([H])(N([H])C([H])([H])[H])C([H])([H])[H])C(C([H])([H])[H])(C([H])([H])[H])C([H])([H])[H])C([H])([H])c2c([H])c(OC([H])([H])C([H])([H])C([H])([H])C([H])([H])[N+]([H])([H])C([H])([H])C([H])([H])N([H])C(=O)N3C([H])([H])C([H])([H])C([H])([H])C([H])(n4nc(-c5c([H])c([H])c(Oc6c([H])c([H])c(F)c([H])c6F)c([H])c5[H])c(C(=O)N([H])[H])c4N([H])[H])C3([H])[H])c([H])c([H])c2C1([H])[H]

$$$$
81:0:0
     RDKit          3D

 88 95  0  0  1  0  0  0  0  0999 V2000
  -29.0310  -22.4880   20.9650 N   0  0  0  0  0  4  0  0  0  0  0  0
  -29.7290  -22.5230   21.6940 H   0  0  0  0  0  0  0  0  0  0  0  0
  -28.1430  -22.4060   21.4360 H   0  0  0  0  0  0  0  0  0  0  0  0
  -29.2390  -21.1870   20.1850 C   0  0  0  0  0  2  0  0  0  0  0  0
  -29.7550  -19.8870   20.9880 C   0  0  0  0  0  2  0  0  0  0  0  0
  -29.5250  -18.4070   20.3970 C   0  0  0  0  0  3  0  0  0  0  0  0
  -30.2770  -17.1790   21.1070 C   0  0  0  0  0  3  0  0  0  0  0  0
  -30.5940  -14.6720   20.4330 C   0  0  0  0  0  0  0  0  0  0  0  0
  -30.3580  -12.4400   19.3460 C   0  0  0  0  0  2  0  0  0  0  0  0
  -29.4040  -12.5520   18.1390 C   0  0  0  0  0  2  0  0  0  0  0  0
  -27.9330  -12.3960   18.5820 C   0  0  0  0  0  2  0  0  0  0  0  0
  -27.5870  -13.2610   19.8270 C   0  0  0  0  0  3  0  0  0  0  0  0
  -28.6560  -13.1110   20.9290 C   0  0  0  0  0  2  0  0  0  0  0  0
  -29.9510  -13.4640   20.3310 N   0  0  0  0  0  0  0  0  0  0  0  0
  -31.7600  -14.8050   20.0510 O   0  0  0  0  0  0  0  0  0  0  0  0
  -29.8460  -15.7600   20.8100 N   0  0  0  0  0  0  0  0  0  0  0  0
  -28.8940  -15.5390   21.0650 H   0  0  0  0  0  0  0  0  0  0  0  0
  -25.2050  -13.8610   20.5710 C   0  0  0  0  0  0  0  0  0  0  0  0
  -24.1420  -13.0880   20.9500 C   0  0  0  0  0  0  0  0  0  0  0  0
  -24.6010  -11.7370   20.9140 C   0  0  0  0  0  0  0  0  0  0  0  0
  -26.2450  -12.9790   20.3240 N   0  0  0  0  0  0  0  0  0  0  0  0
  -25.8890  -11.6970   20.5910 N   0  0  0  0  0  0  0  0  0  0  0  0
  -23.8760  -10.4740   21.1060 C   0  0  0  0  0  0  0  0  0  0  0  0
  -24.3320   -9.4910   22.0120 C   0  0  0  0  0  3  0  0  0  0  0  0
  -23.6050   -8.2950   22.1970 C   0  0  0  0  0  3  0  0  0  0  0  0
  -22.4050   -8.0750   21.4770 C   0  0  0  0  0  0  0  0  0  0  0  0
  -21.9670   -9.0470   20.5600 C   0  0  0  0  0  3  0  0  0  0  0  0
  -22.6950  -10.2340   20.3730 C   0  0  0  0  0  3  0  0  0  0  0  0
  -21.6460   -6.9340   21.5730 O   0  0  0  0  0  0  0  0  0  0  0  0
  -21.6500   -6.1600   22.7060 C   0  0  0  0  0  0  0  0  0  0  0  0
  -21.3120   -6.6870   23.9710 C   0  0  0  0  0  3  0  0  0  0  0  0
  -21.2650   -5.8420   25.0970 C   0  0  0  0  0  3  0  0  0  0  0  0
  -21.5410   -4.4700   24.9580 C   0  0  0  0  0  0  0  0  0  0  0  0
  -21.8710   -3.9400   23.6980 C   0  0  0  0  0  3  0  0  0  0  0  0
  -21.9220   -4.7840   22.5750 C   0  0  0  0  0  0  0  0  0  0  0  0
  -22.2200   -4.2640   21.3590 F   0  0  0  0  0  0  0  0  0  0  0  0
  -21.4860   -3.6550   26.0360 F   0  0  0  0  0  0  0  0  0  0  0  0
  -22.7470  -13.5680   21.2340 C   0  0  0  0  0  0  0  0  0  0  0  0
  -22.0300  -12.8720   22.1070 N   0  0  0  0  0  0  0  0  0  0  0  0
  -22.3050  -14.5930   20.7160 O   0  0  0  0  0  0  0  0  0  0  0  0
  -22.3990  -12.0390   22.5440 H   0  0  0  0  0  0  0  0  0  0  0  0
  -21.0920  -13.1690   22.3400 H   0  0  0  0  0  0  0  0  0  0  0  0
  -25.3690  -15.2310   20.3900 N   0  0  0  0  0  0  0  0  0  0  0  0
  -24.6070  -15.8910   20.5070 H   0  0  0  0  0  0  0  0  0  0  0  0
  -26.2130  -15.6650   20.0410 H   0  0  0  0  0  0  0  0  0  0  0  0
  -29.0850  -23.8420   20.2350 C   0  0  0  0  0  3  0  0  0  0  0  0
  -28.1300  -25.0380   20.7490 C   0  0  0  0  0  3  0  0  0  0  0  0
  -28.3260  -26.4340   20.2380 O   0  0  0  0  0  0  0  0  0  0  0  0
  -24.6280  -31.8880   23.2210 C   0  0  0  0  0  0  0  0  0  0  0  0
  -27.2160  -27.2980   20.2020 C   0  0  0  0  0  0  0  0  0  0  0  0
  -23.4150  -30.4840   21.5890 C   0  0  0  0  0  3  0  0  0  0  0  0
  -24.8580  -28.9270   20.1590 C   0  0  0  0  0  0  0  0  0  0  0  0
  -25.9510  -30.8010   21.3920 C   0  0  0  0  0  2  0  0  0  0  0  0
  -26.0260  -29.4150   20.7590 C   0  0  0  0  0  0  0  0  0  0  0  0
  -27.2080  -28.6120   20.7680 C   0  0  0  0  0  3  0  0  0  0  0  0
  -26.0350  -26.8730   19.5550 C   0  0  0  0  0  3  0  0  0  0  0  0
  -24.8700  -27.6660   19.5380 C   0  0  0  0  0  3  0  0  0  0  0  0
  -23.6230  -29.8040   20.2090 C   0  0  0  0  0  2  0  0  0  0  0  0
  -24.6840  -31.0750   22.1250 N   0  0  0  0  0  0  0  0  0  0  0  0
  -23.5480  -32.1680   23.7590 O   0  0  0  0  0  0  0  0  0  0  0  0
  -22.7540  -29.4750   22.5620 C   0  0  0  0  0  0  0  0  0  0  0  0
  -21.4260  -29.3020   22.4460 N   0  0  0  0  0  0  0  0  0  0  0  0
  -23.4370  -28.8510   23.3770 O   0  0  0  0  0  0  0  0  0  0  0  0
  -20.9290  -29.8610   21.7670 H   0  0  0  0  0  0  0  0  0  0  0  0
  -18.0550  -28.1050   22.9670 C   0  0  0  0  0  0  0  0  0  0  0  0
  -20.6120  -28.3690   23.2280 C   0  0  0  0  0  3  0  0  0  0  0  0
  -20.7150  -26.9330   22.6610 C   0  0  0  0  0  2  0  0  0  0  0  0
  -19.6110  -26.6030   21.6520 C   0  0  0  0  0  2  0  0  0  0  0  0
  -18.2310  -26.7530   22.2960 C   0  0  0  0  0  2  0  0  0  0  0  0
  -19.1730  -28.8710   23.3900 C   0  0  0  0  0  0  0  0  0  0  0  0
  -18.9540  -30.1370   23.9770 C   0  0  0  0  0  3  0  0  0  0  0  0
  -17.6500  -30.6380   24.1410 C   0  0  0  0  0  3  0  0  0  0  0  0
  -16.5460  -29.8690   23.7340 C   0  0  0  0  0  3  0  0  0  0  0  0
  -16.7490  -28.6040   23.1530 C   0  0  0  0  0  3  0  0  0  0  0  0
  -25.9150  -32.5220   23.8340 C   0  0  0  0  0  3  0  0  0  0  0  0
  -26.4480  -31.7460   25.1000 C   0  0  1  0  0  0  0  0  0  0  0  0
  -25.3680  -31.5030   26.1790 C   0  0  0  0  0  1  0  0  0  0  0  0
  -27.0260  -30.3720   24.6910 C   0  0  0  0  0  1  0  0  0  0  0  0
  -27.6090  -32.5360   25.7490 C   0  0  0  0  0  1  0  0  0  0  0  0
  -25.6030  -33.9200   24.1800 N   0  0  0  0  0  0  0  0  0  0  0  0
  -25.9250  -34.9770   23.4210 C   0  0  0  0  0  0  0  0  0  0  0  0
  -26.5850  -34.8850   22.3830 O   0  0  0  0  0  0  0  0  0  0  0  0
  -25.0140  -34.0700   24.9840 H   0  0  0  0  0  0  0  0  0  0  0  0
  -24.1870  -36.7660   23.1060 C   0  0  0  0  0  1  0  0  0  0  0  0
  -25.4430  -36.3610   23.8950 C   0  0  0  0  0  3  0  0  0  0  0  0
  -27.5900  -37.2470   24.6930 C   0  0  0  0  0  1  0  0  0  0  0  0
  -26.4690  -37.4190   23.7710 N   0  0  0  0  0  0  0  0  0  0  0  0
  -26.0640  -38.3360   23.9360 H   0  0  0  0  0  0  0  0  0  0  0  0
  1  3  1  0
  1  2  1  0
  4  1  1  0
  4  5  1  0
  6  5  1  0
  6  7  2  0
  8 16  1  0
  9 14  1  0
 10 11  1  0
 10  9  1  0
 12 11  1  0
 12 21  1  0
 12 13  1  0
 14  8  1  0
 14 13  1  0
 15  8  2  0
 16 17  1  0
 16  7  1  0
 18 19  2  0
 19 38  1  0
 20 19  1  0
 20 23  1  0
 21 18  1  0
 21 22  1  0
 22 20  2  0
 23 24  1  0
 24 25  2  0
 26 29  1  0
 26 25  1  0
 27 26  2  0
 28 27  1  0
 28 23  2  0
 29 30  1  0
 30 31  1  0
 31 32  2  0
 33 32  1  0
 33 37  1  0
 34 33  2  0
 35 30  2  0
 35 34  1  0
 36 35  1  0
 38 39  1  0
 39 42  1  0
 39 41  1  0
 40 38  2  0
 43 44  1  0
 43 18  1  0
 45 43  1  0
 46 47  2  0
 46  1  1  0
 48 47  1  0
 49 60  2  0
 50 48  1  0
 50 55  1  0
 51 59  1  0
 51 61  1  0
 52 58  1  0
 52 54  1  0
 53 59  1  0
 54 55  2  0
 54 53  1  0
 56 50  2  0
 57 56  1  0
 57 52  2  0
 58 51  1  0
 59 49  1  0
 61 63  2  0
 62 61  1  0
 64 62  1  0
 65 74  2  0
 65 70  1  0
 66 62  1  0
 66 70  1  0
 67 66  1  0
 68 69  1  0
 68 67  1  0
 69 65  1  0
 70 71  2  0
 71 72  1  0
 73 72  2  0
 74 73  1  0
 75 49  1  0
 75 80  1  0
 75 76  1  0
 76 79  1  1
 76 77  1  0
 78 76  1  0
 80 83  1  0
 81 85  1  0
 81 80  1  0
 82 81  2  0
 85 84  1  0
 87 85  1  0
 87 88  1  0
 87 86  1  0
M  ISO  4   8 100  16 100  47 101  48 101
M  END
>  <TORSDO>  (79) 
F 22

>  <SCORE>  (79) 
-12.877

>  <name>  (79) 
81

>  <ligand_id>  (79) 
81

>  <original_smiles>  (79) 
[H]c1c([H])c([H])c2c(c1[H])C([H])([H])C([H])([H])C([H])([H])C2([H])N([H])C(=O)C1([H])N(C(=O)C([H])(N([H])C(=O)C([H])(N([H])C([H])([H])[H])C([H])([H])[H])C(C([H])([H])[H])(C([H])([H])[H])C([H])([H])[H])C([H])([H])c2c([H])c(OC([H])([H])C([H])([H])[N+]([H])([H])C([H])([H])C([H])([H])C([H])([H])C([H])([H])N([H])C(=O)N3C([H])([H])C([H])([H])C([H])([H])C([H])(n4nc(-c5c([H])c([H])c(Oc6c([H])c([H])c(F)c([H])c6F)c([H])c5[H])c(C(=O)N([H])[H])c4N([H])[H])C3([H])[H])c([H])c([H])c2C1([H])[H]

>  <smiles>  (79) 
[H]c1c([H])c([H])c2c(c1[H])C([H])([H])C([H])([H])C([H])([H])C2([H])N([H])C(=O)C1([H])N(C(=O)C([H])(N([H])C(=O)C([H])(N([H])C([H])([H])[H])C([H])([H])[H])C(C([H])([H])[H])(C([H])([H])[H])C([H])([H])[H])C([H])([H])c2c([H])c(OC([H])([H])C([H])([H])[N+]([H])([H])C([H])([H])C([H])([H])C([H])([H])C([H])([H])N([H])C(=O)N3C([H])([H])C([H])([H])C([H])([H])C([H])(n4nc(-c5c([H])c([H])c(Oc6c([H])c([H])c(F)c([H])c6F)c([H])c5[H])c(C(=O)N([H])[H])c4N([H])[H])C3([H])[H])c([H])c([H])c2C1([H])[H]

$$$$
82:0:0
     RDKit          3D

 93100  0  0  1  0  0  0  0  0999 V2000
  -28.9860  -22.2570   20.2360 C   0  0  0  0  0  2  0  0  0  0  0  0
  -29.8250  -23.3420   19.6700 N   0  0  0  0  0  4  0  0  0  0  0  0
  -30.7950  -23.0790   19.7400 H   0  0  0  0  0  0  0  0  0  0  0  0
  -29.6200  -23.4120   18.6840 H   0  0  0  0  0  0  0  0  0  0  0  0
  -29.6450  -24.6890   20.2690 C   0  0  0  0  0  2  0  0  0  0  0  0
  -28.3680  -25.3900   19.7700 C   0  0  0  0  0  2  0  0  0  0  0  0
  -28.3750  -26.7580   20.1800 O   0  0  0  0  0  0  0  0  0  0  0  0
  -24.5630  -31.8840   23.2520 C   0  0  0  0  0  0  0  0  0  0  0  0
  -27.1810  -27.4490   20.1530 C   0  0  0  0  0  0  0  0  0  0  0  0
  -23.3410  -30.4790   21.6240 C   0  0  0  0  0  3  0  0  0  0  0  0
  -24.7810  -28.9450   20.1870 C   0  0  0  0  0  0  0  0  0  0  0  0
  -25.8620  -30.8460   21.3990 C   0  0  0  0  0  2  0  0  0  0  0  0
  -25.9430  -29.4740   20.7610 C   0  0  0  0  0  0  0  0  0  0  0  0
  -27.1430  -28.7330   20.7410 C   0  0  0  0  0  3  0  0  0  0  0  0
  -25.9970  -26.9350   19.5700 C   0  0  0  0  0  3  0  0  0  0  0  0
  -24.8020  -27.6760   19.5890 C   0  0  0  0  0  3  0  0  0  0  0  0
  -23.5350  -29.7990   20.2430 C   0  0  0  0  0  2  0  0  0  0  0  0
  -24.6080  -31.0840   22.1500 N   0  0  0  0  0  0  0  0  0  0  0  0
  -23.4880  -32.1570   23.8020 O   0  0  0  0  0  0  0  0  0  0  0  0
  -22.7040  -29.4560   22.5920 C   0  0  0  0  0  0  0  0  0  0  0  0
  -21.3800  -29.2650   22.4720 N   0  0  0  0  0  0  0  0  0  0  0  0
  -23.3950  -28.8380   23.4070 O   0  0  0  0  0  0  0  0  0  0  0  0
  -20.8860  -29.8130   21.7820 H   0  0  0  0  0  0  0  0  0  0  0  0
  -18.0150  -28.0520   22.9760 C   0  0  0  0  0  0  0  0  0  0  0  0
  -20.5700  -28.3300   23.2510 C   0  0  0  0  0  3  0  0  0  0  0  0
  -20.6850  -26.8940   22.6890 C   0  0  0  0  0  2  0  0  0  0  0  0
  -19.5860  -26.5530   21.6770 C   0  0  0  0  0  2  0  0  0  0  0  0
  -18.2020  -26.6960   22.3160 C   0  0  0  0  0  2  0  0  0  0  0  0
  -19.1270  -28.8250   23.4000 C   0  0  0  0  0  0  0  0  0  0  0  0
  -18.8980  -30.0940   23.9750 C   0  0  0  0  0  3  0  0  0  0  0  0
  -17.5900  -30.5890   24.1310 C   0  0  0  0  0  3  0  0  0  0  0  0
  -16.4920  -29.8110   23.7250 C   0  0  0  0  0  3  0  0  0  0  0  0
  -16.7060  -28.5450   23.1510 C   0  0  0  0  0  3  0  0  0  0  0  0
  -25.8550  -32.5160   23.8570 C   0  0  0  0  0  3  0  0  0  0  0  0
  -25.5500  -33.9150   24.1850 N   0  0  0  0  0  0  0  0  0  0  0  0
  -25.8790  -34.9640   23.4200 C   0  0  0  0  0  0  0  0  0  0  0  0
  -26.5450  -34.8570   22.3860 O   0  0  0  0  0  0  0  0  0  0  0  0
  -24.9600  -34.0730   24.9880 H   0  0  0  0  0  0  0  0  0  0  0  0
  -24.1500  -36.7540   23.0640 C   0  0  0  0  0  1  0  0  0  0  0  0
  -25.3930  -36.3540   23.8760 C   0  0  0  0  0  3  0  0  0  0  0  0
  -27.5320  -37.2350   24.6960 C   0  0  0  0  0  1  0  0  0  0  0  0
  -26.4260  -37.4050   23.7570 N   0  0  0  0  0  0  0  0  0  0  0  0
  -26.0230  -38.3260   23.9070 H   0  0  0  0  0  0  0  0  0  0  0  0
  -26.3910  -31.7460   25.1260 C   0  0  1  0  0  0  0  0  0  0  0  0
  -25.3110  -31.5080   26.2070 C   0  0  0  0  0  1  0  0  0  0  0  0
  -26.9700  -30.3690   24.7240 C   0  0  0  0  0  1  0  0  0  0  0  0
  -27.5490  -32.5420   25.7710 C   0  0  0  0  0  1  0  0  0  0  0  0
  -29.6650  -21.4820   21.3890 C   0  0  0  0  0  2  0  0  0  0  0  0
  -30.8640  -20.5930   20.9830 C   0  0  0  0  0  2  0  0  0  0  0  0
  -30.5640  -19.5120   19.9230 C   0  0  0  0  0  2  0  0  0  0  0  0
  -29.3540  -17.4540   20.7960 C   0  0  0  0  0  0  0  0  0  0  0  0
  -29.4070  -18.6860   20.2690 N   0  0  0  0  0  0  0  0  0  0  0  0
  -28.2620  -16.9010   20.9320 O   0  0  0  0  0  0  0  0  0  0  0  0
  -28.5070  -19.0800   20.0360 H   0  0  0  0  0  0  0  0  0  0  0  0
  -30.6200  -16.7080   21.2450 C   0  0  0  0  0  2  0  0  0  0  0  0
  -30.8600  -14.4000   20.3380 C   0  0  0  0  0  0  0  0  0  0  0  0
  -30.5020  -12.2740   19.1470 C   0  0  0  0  0  2  0  0  0  0  0  0
  -29.5570  -12.4990   17.9520 C   0  0  0  0  0  2  0  0  0  0  0  0
  -28.0830  -12.3740   18.3890 C   0  0  0  0  0  2  0  0  0  0  0  0
  -27.7650  -13.2220   19.6510 C   0  0  0  0  0  3  0  0  0  0  0  0
  -28.8180  -12.9770   20.7530 C   0  0  0  0  0  2  0  0  0  0  0  0
  -30.1550  -13.2490   20.1890 N   0  0  0  0  0  0  0  0  0  0  0  0
  -31.8880  -14.6550   19.7040 O   0  0  0  0  0  0  0  0  0  0  0  0
  -30.3400  -15.2740   21.2040 N   0  0  0  0  0  0  0  0  0  0  0  0
  -29.4910  -14.9920   21.6730 H   0  0  0  0  0  0  0  0  0  0  0  0
  -25.3730  -13.8690   20.3620 C   0  0  0  0  0  0  0  0  0  0  0  0
  -24.2990  -13.1120   20.7440 C   0  0  0  0  0  0  0  0  0  0  0  0
  -24.7450  -11.7550   20.7280 C   0  0  0  0  0  0  0  0  0  0  0  0
  -26.4090  -12.9730   20.1370 N   0  0  0  0  0  0  0  0  0  0  0  0
  -26.0320  -11.6970   20.4100 N   0  0  0  0  0  0  0  0  0  0  0  0
  -24.0070  -10.5040   20.9440 C   0  0  0  0  0  0  0  0  0  0  0  0
  -24.4410   -9.5450   21.8870 C   0  0  0  0  0  3  0  0  0  0  0  0
  -23.7050   -8.3560   22.0880 C   0  0  0  0  0  3  0  0  0  0  0  0
  -22.5240   -8.1200   21.3480 C   0  0  0  0  0  0  0  0  0  0  0  0
  -22.1090   -9.0670   20.3950 C   0  0  0  0  0  3  0  0  0  0  0  0
  -22.8430  -10.2470   20.1920 C   0  0  0  0  0  3  0  0  0  0  0  0
  -21.7590   -6.9830   21.4600 O   0  0  0  0  0  0  0  0  0  0  0  0
  -21.7140   -6.2540   22.6200 C   0  0  0  0  0  0  0  0  0  0  0  0
  -21.3150   -6.8290   23.8460 C   0  0  0  0  0  3  0  0  0  0  0  0
  -21.2170   -6.0280   25.0010 C   0  0  0  0  0  3  0  0  0  0  0  0
  -21.5040   -4.6520   24.9310 C   0  0  0  0  0  0  0  0  0  0  0  0
  -21.8920   -4.0750   23.7090 C   0  0  0  0  0  3  0  0  0  0  0  0
  -21.9940   -4.8730   22.5570 C   0  0  0  0  0  0  0  0  0  0  0  0
  -22.3520   -4.3090   21.3780 F   0  0  0  0  0  0  0  0  0  0  0  0
  -21.4010   -3.8800   26.0380 F   0  0  0  0  0  0  0  0  0  0  0  0
  -22.9090  -13.6080   21.0300 C   0  0  0  0  0  0  0  0  0  0  0  0
  -22.1860  -12.9300   21.9130 N   0  0  0  0  0  0  0  0  0  0  0  0
  -22.4750  -14.6300   20.5020 O   0  0  0  0  0  0  0  0  0  0  0  0
  -22.5520  -12.1060   22.3680 H   0  0  0  0  0  0  0  0  0  0  0  0
  -21.2510  -13.2410   22.1410 H   0  0  0  0  0  0  0  0  0  0  0  0
  -25.5560  -15.2360   20.1810 N   0  0  0  0  0  0  0  0  0  0  0  0
  -24.8160  -15.9050   20.3580 H   0  0  0  0  0  0  0  0  0  0  0  0
  -26.4630  -15.6760   20.0600 H   0  0  0  0  0  0  0  0  0  0  0  0
  1 48  1  0
  2  3  1  0
  2  1  1  0
  2  5  1  0
  4  2  1  0
  6  7  1  0
  6  5  1  0
  8 19  2  0
  9  7  1  0
  9 14  1  0
 10 18  1  0
 10 20  1  0
 11 17  1  0
 11 13  1  0
 12 18  1  0
 13 12  1  0
 14 13  2  0
 15 16  1  0
 15  9  2  0
 16 11  2  0
 17 10  1  0
 18  8  1  0
 20 22  2  0
 21 20  1  0
 23 21  1  0
 24 33  2  0
 24 29  1  0
 25 21  1  0
 25 29  1  0
 26 25  1  0
 27 28  1  0
 27 26  1  0
 28 24  1  0
 29 30  2  0
 30 31  1  0
 32 31  2  0
 33 32  1  0
 34  8  1  0
 34 35  1  0
 34 44  1  0
 35 38  1  0
 36 40  1  0
 36 35  1  0
 37 36  2  0
 40 39  1  0
 42 40  1  0
 42 43  1  0
 42 41  1  0
 44 47  1  1
 44 45  1  0
 46 44  1  0
 49 48  1  0
 50 52  1  0
 50 49  1  0
 51 53  2  0
 51 55  1  0
 52 51  1  0
 54 52  1  0
 56 64  1  0
 57 62  1  0
 58 59  1  0
 58 57  1  0
 60 59  1  0
 60 69  1  0
 60 61  1  0
 62 56  1  0
 62 61  1  0
 63 56  2  0
 64 55  1  0
 64 65  1  0
 66 67  2  0
 67 86  1  0
 68 67  1  0
 68 71  1  0
 69 66  1  0
 69 70  1  0
 70 68  2  0
 71 72  1  0
 72 73  2  0
 74 77  1  0
 74 73  1  0
 75 74  2  0
 76 75  1  0
 76 71  2  0
 77 78  1  0
 78 79  1  0
 79 80  2  0
 81 80  1  0
 81 85  1  0
 82 81  2  0
 83 78  2  0
 83 82  1  0
 84 83  1  0
 86 87  1  0
 87 90  1  0
 87 89  1  0
 88 86  2  0
 91 92  1  0
 91 66  1  0
 93 91  1  0
M  ISO  4   6 101   7 101  56 100  64 100
M  END
>  <TORSDO>  (80) 
F 24

>  <SCORE>  (80) 
-12.495

>  <name>  (80) 
82

>  <ligand_id>  (80) 
82

>  <original_smiles>  (80) 
[H]c1c([H])c([H])c2c(c1[H])C([H])([H])C([H])([H])C([H])([H])C2([H])N([H])C(=O)C1([H])N(C(=O)C([H])(N([H])C(=O)C([H])(N([H])C([H])([H])[H])C([H])([H])[H])C(C([H])([H])[H])(C([H])([H])[H])C([H])([H])[H])C([H])([H])c2c([H])c(OC([H])([H])C([H])([H])[N+]([H])([H])C([H])([H])C([H])([H])C([H])([H])C([H])([H])N([H])C(=O)C([H])([H])N([H])C(=O)N3C([H])([H])C([H])([H])C([H])([H])C([H])(n4nc(-c5c([H])c([H])c(Oc6c([H])c([H])c(F)c([H])c6F)c([H])c5[H])c(C(=O)N([H])[H])c4N([H])[H])C3([H])[H])c([H])c([H])c2C1([H])[H]

>  <smiles>  (80) 
[H]c1c([H])c([H])c2c(c1[H])C([H])([H])C([H])([H])C([H])([H])C2([H])N([H])C(=O)C1([H])N(C(=O)C([H])(N([H])C(=O)C([H])(N([H])C([H])([H])[H])C([H])([H])[H])C(C([H])([H])[H])(C([H])([H])[H])C([H])([H])[H])C([H])([H])c2c([H])c(OC([H])([H])C([H])([H])[N+]([H])([H])C([H])([H])C([H])([H])C([H])([H])C([H])([H])N([H])C(=O)C([H])([H])N([H])C(=O)N3C([H])([H])C([H])([H])C([H])([H])C([H])(n4nc(-c5c([H])c([H])c(Oc6c([H])c([H])c(F)c([H])c6F)c([H])c5[H])c(C(=O)N([H])[H])c4N([H])[H])C3([H])[H])c([H])c([H])c2C1([H])[H]

$$$$
83:0:0
     RDKit          3D

 90 97  0  0  1  0  0  0  0  0999 V2000
  -29.7710  -23.1050   20.4750 N   0  0  0  0  0  4  0  0  0  0  0  0
  -30.7480  -22.8510   20.4510 H   0  0  0  0  0  0  0  0  0  0  0  0
  -29.4670  -22.9100   21.4180 H   0  0  0  0  0  0  0  0  0  0  0  0
  -29.7080  -24.5790   20.2020 C   0  0  0  0  0  2  0  0  0  0  0  0
  -28.3010  -25.2340   20.2550 C   0  0  0  0  0  2  0  0  0  0  0  0
  -28.3870  -26.6750   20.1380 O   0  0  0  0  0  0  0  0  0  0  0  0
  -24.5880  -31.8730   23.2370 C   0  0  0  0  0  0  0  0  0  0  0  0
  -27.2040  -27.4020   20.1440 C   0  0  0  0  0  0  0  0  0  0  0  0
  -23.3670  -30.4710   21.6080 C   0  0  0  0  0  3  0  0  0  0  0  0
  -24.8100  -28.9310   20.1720 C   0  0  0  0  0  0  0  0  0  0  0  0
  -25.8940  -30.8220   21.3920 C   0  0  0  0  0  2  0  0  0  0  0  0
  -25.9760  -29.4510   20.7460 C   0  0  0  0  0  0  0  0  0  0  0  0
  -27.1750  -28.6970   20.7230 C   0  0  0  0  0  3  0  0  0  0  0  0
  -26.0130  -26.9030   19.5640 C   0  0  0  0  0  3  0  0  0  0  0  0
  -24.8260  -27.6600   19.5750 C   0  0  0  0  0  3  0  0  0  0  0  0
  -23.5680  -29.7950   20.2260 C   0  0  0  0  0  2  0  0  0  0  0  0
  -24.6350  -31.0710   22.1370 N   0  0  0  0  0  0  0  0  0  0  0  0
  -23.5120  -32.1490   23.7860 O   0  0  0  0  0  0  0  0  0  0  0  0
  -22.7230  -29.4500   22.5740 C   0  0  0  0  0  0  0  0  0  0  0  0
  -21.3970  -29.2670   22.4570 N   0  0  0  0  0  0  0  0  0  0  0  0
  -23.4130  -28.8260   23.3840 O   0  0  0  0  0  0  0  0  0  0  0  0
  -20.9020  -29.8170   21.7680 H   0  0  0  0  0  0  0  0  0  0  0  0
  -18.0260  -28.0670   22.9720 C   0  0  0  0  0  0  0  0  0  0  0  0
  -20.5850  -28.3320   23.2350 C   0  0  0  0  0  3  0  0  0  0  0  0
  -20.6900  -26.9000   22.6650 C   0  0  0  0  0  2  0  0  0  0  0  0
  -19.5850  -26.5700   21.6560 C   0  0  0  0  0  2  0  0  0  0  0  0
  -18.2050  -26.7160   22.3030 C   0  0  0  0  0  2  0  0  0  0  0  0
  -19.1450  -28.8340   23.3950 C   0  0  0  0  0  0  0  0  0  0  0  0
  -18.9240  -30.1020   23.9780 C   0  0  0  0  0  3  0  0  0  0  0  0
  -17.6190  -30.6000   24.1470 C   0  0  0  0  0  3  0  0  0  0  0  0
  -16.5160  -29.8290   23.7410 C   0  0  0  0  0  3  0  0  0  0  0  0
  -16.7200  -28.5660   23.1570 C   0  0  0  0  0  3  0  0  0  0  0  0
  -25.8780  -32.5040   23.8440 C   0  0  0  0  0  3  0  0  0  0  0  0
  -25.5730  -33.9000   24.1830 N   0  0  0  0  0  0  0  0  0  0  0  0
  -25.8920  -34.9540   23.4210 C   0  0  0  0  0  0  0  0  0  0  0  0
  -26.5490  -34.8560   22.3800 O   0  0  0  0  0  0  0  0  0  0  0  0
  -24.9910  -34.0490   24.9950 H   0  0  0  0  0  0  0  0  0  0  0  0
  -24.1580  -36.7450   23.0920 C   0  0  0  0  0  1  0  0  0  0  0  0
  -25.4090  -36.3400   23.8880 C   0  0  0  0  0  3  0  0  0  0  0  0
  -27.5510  -37.2290   24.6940 C   0  0  0  0  0  1  0  0  0  0  0  0
  -26.4380  -37.3950   23.7630 N   0  0  0  0  0  0  0  0  0  0  0  0
  -26.0330  -38.3150   23.9140 H   0  0  0  0  0  0  0  0  0  0  0  0
  -26.4180  -31.7240   25.1050 C   0  0  1  0  0  0  0  0  0  0  0  0
  -25.3440  -31.4760   26.1890 C   0  0  0  0  0  1  0  0  0  0  0  0
  -26.9970  -30.3490   24.6950 C   0  0  0  0  0  1  0  0  0  0  0  0
  -27.5790  -32.5160   25.7550 C   0  0  0  0  0  1  0  0  0  0  0  0
  -29.0420  -22.2090   19.5300 C   0  0  0  0  0  2  0  0  0  0  0  0
  -29.7460  -20.8550   19.2240 C   0  0  0  0  0  2  0  0  0  0  0  0
  -29.6930  -19.8870   20.2910 O   0  0  0  0  0  0  0  0  0  0  0  0
  -29.8440  -18.5200   19.8540 C   0  0  0  0  0  2  0  0  0  0  0  0
  -31.0140  -17.7630   20.5350 C   0  0  0  0  0  2  0  0  0  0  0  0
  -30.6660  -16.7490   21.6620 C   0  0  0  0  0  2  0  0  0  0  0  0
  -30.6940  -14.4630   20.5940 C   0  0  0  0  0  0  0  0  0  0  0  0
  -30.3530  -12.3310   19.3950 C   0  0  0  0  0  2  0  0  0  0  0  0
  -29.4180  -12.5440   18.1900 C   0  0  0  0  0  2  0  0  0  0  0  0
  -27.9440  -12.4120   18.6180 C   0  0  0  0  0  2  0  0  0  0  0  0
  -27.6060  -13.2490   19.8790 C   0  0  0  0  0  3  0  0  0  0  0  0
  -28.6540  -13.0220   20.9910 C   0  0  0  0  0  2  0  0  0  0  0  0
  -29.9830  -13.3140   20.4270 N   0  0  0  0  0  0  0  0  0  0  0  0
  -31.8170  -14.6290   20.1140 O   0  0  0  0  0  0  0  0  0  0  0  0
  -30.0680  -15.4640   21.2400 N   0  0  0  0  0  0  0  0  0  0  0  0
  -29.1340  -15.2630   21.5670 H   0  0  0  0  0  0  0  0  0  0  0  0
  -25.2010  -13.8740   20.5530 C   0  0  0  0  0  0  0  0  0  0  0  0
  -24.1250  -13.1100   20.9200 C   0  0  0  0  0  0  0  0  0  0  0  0
  -24.5800  -11.7550   20.9040 C   0  0  0  0  0  0  0  0  0  0  0  0
  -26.2470  -12.9850   20.3470 N   0  0  0  0  0  0  0  0  0  0  0  0
  -25.8740  -11.7060   20.6120 N   0  0  0  0  0  0  0  0  0  0  0  0
  -23.8450  -10.4980   21.0980 C   0  0  0  0  0  0  0  0  0  0  0  0
  -24.2810   -9.5220   22.0230 C   0  0  0  0  0  3  0  0  0  0  0  0
  -23.5470   -8.3300   22.2040 C   0  0  0  0  0  3  0  0  0  0  0  0
  -22.3660   -8.1030   21.4590 C   0  0  0  0  0  0  0  0  0  0  0  0
  -21.9500   -9.0680   20.5230 C   0  0  0  0  0  3  0  0  0  0  0  0
  -22.6830  -10.2510   20.3410 C   0  0  0  0  0  3  0  0  0  0  0  0
  -21.6040   -6.9630   21.5490 O   0  0  0  0  0  0  0  0  0  0  0  0
  -21.5820   -6.2020   22.6890 C   0  0  0  0  0  0  0  0  0  0  0  0
  -21.2130   -6.7440   23.9410 C   0  0  0  0  0  3  0  0  0  0  0  0
  -21.1340   -5.9100   25.0740 C   0  0  0  0  0  3  0  0  0  0  0  0
  -21.4180   -4.5360   24.9580 C   0  0  0  0  0  0  0  0  0  0  0  0
  -21.7810   -3.9940   23.7110 C   0  0  0  0  0  3  0  0  0  0  0  0
  -21.8600   -4.8250   22.5800 C   0  0  0  0  0  0  0  0  0  0  0  0
  -22.1890   -4.2950   21.3780 F   0  0  0  0  0  0  0  0  0  0  0  0
  -21.3350   -3.7320   26.0440 F   0  0  0  0  0  0  0  0  0  0  0  0
  -22.7280  -13.5970   21.1730 C   0  0  0  0  0  0  0  0  0  0  0  0
  -21.9880  -12.9130   22.0380 N   0  0  0  0  0  0  0  0  0  0  0  0
  -22.3000  -14.6190   20.6370 O   0  0  0  0  0  0  0  0  0  0  0  0
  -22.3470  -12.0880   22.4950 H   0  0  0  0  0  0  0  0  0  0  0  0
  -21.0510  -13.2210   22.2500 H   0  0  0  0  0  0  0  0  0  0  0  0
  -25.3750  -15.2420   20.3580 N   0  0  0  0  0  0  0  0  0  0  0  0
  -24.6110  -15.9050   20.4270 H   0  0  0  0  0  0  0  0  0  0  0  0
  -26.2300  -15.6580   20.0070 H   0  0  0  0  0  0  0  0  0  0  0  0
  1  3  1  0
  2  1  1  0
  4  5  1  0
  4  1  1  0
  6  8  1  0
  6  5  1  0
  7 18  2  0
  8 13  1  0
  9 17  1  0
  9 19  1  0
 10 16  1  0
 10 12  1  0
 11 17  1  0
 12 11  1  0
 13 12  2  0
 14 15  1  0
 14  8  2  0
 15 10  2  0
 16  9  1  0
 17  7  1  0
 19 21  2  0
 20 19  1  0
 22 20  1  0
 23 32  2  0
 23 28  1  0
 24 20  1  0
 24 28  1  0
 25 24  1  0
 26 27  1  0
 26 25  1  0
 27 23  1  0
 28 29  2  0
 29 30  1  0
 31 30  2  0
 32 31  1  0
 33  7  1  0
 33 34  1  0
 33 43  1  0
 34 37  1  0
 35 39  1  0
 35 34  1  0
 36 35  2  0
 39 38  1  0
 41 39  1  0
 41 42  1  0
 41 40  1  0
 43 46  1  1
 43 44  1  0
 45 43  1  0
 47  1  1  0
 48 47  1  0
 48 49  1  0
 50 49  1  0
 50 51  1  0
 51 52  1  0
 53 61  1  0
 54 59  1  0
 55 56  1  0
 55 54  1  0
 57 56  1  0
 57 66  1  0
 57 58  1  0
 59 53  1  0
 59 58  1  0
 60 53  2  0
 61 62  1  0
 61 52  1  0
 63 64  2  0
 64 83  1  0
 65 64  1  0
 65 68  1  0
 66 63  1  0
 66 67  1  0
 67 65  2  0
 68 69  1  0
 69 70  2  0
 71 74  1  0
 71 70  1  0
 72 71  2  0
 73 72  1  0
 73 68  2  0
 74 75  1  0
 75 76  1  0
 76 77  2  0
 78 77  1  0
 78 82  1  0
 79 78  2  0
 80 75  2  0
 80 79  1  0
 81 80  1  0
 83 84  1  0
 84 87  1  0
 84 86  1  0
 85 83  2  0
 88 89  1  0
 88 63  1  0
 90 88  1  0
M  ISO  4   5 101   6 101  53 100  61 100
M  END
>  <TORSDO>  (81) 
F 24

>  <SCORE>  (81) 
-12.344

>  <name>  (81) 
83

>  <ligand_id>  (81) 
83

>  <original_smiles>  (81) 
[H]c1c([H])c([H])c2c(c1[H])C([H])([H])C([H])([H])C([H])([H])C2([H])N([H])C(=O)C1([H])N(C(=O)C([H])(N([H])C(=O)C([H])(N([H])C([H])([H])[H])C([H])([H])[H])C(C([H])([H])[H])(C([H])([H])[H])C([H])([H])[H])C([H])([H])c2c([H])c(OC([H])([H])C([H])([H])[N+]([H])([H])C([H])([H])C([H])([H])OC([H])([H])C([H])([H])C([H])([H])N([H])C(=O)N3C([H])([H])C([H])([H])C([H])([H])C([H])(n4nc(-c5c([H])c([H])c(Oc6c([H])c([H])c(F)c([H])c6F)c([H])c5[H])c(C(=O)N([H])[H])c4N([H])[H])C3([H])[H])c([H])c([H])c2C1([H])[H]

>  <smiles>  (81) 
[H]c1c([H])c([H])c2c(c1[H])C([H])([H])C([H])([H])C([H])([H])C2([H])N([H])C(=O)C1([H])N(C(=O)C([H])(N([H])C(=O)C([H])(N([H])C([H])([H])[H])C([H])([H])[H])C(C([H])([H])[H])(C([H])([H])[H])C([H])([H])[H])C([H])([H])c2c([H])c(OC([H])([H])C([H])([H])[N+]([H])([H])C([H])([H])C([H])([H])OC([H])([H])C([H])([H])C([H])([H])N([H])C(=O)N3C([H])([H])C([H])([H])C([H])([H])C([H])(n4nc(-c5c([H])c([H])c(Oc6c([H])c([H])c(F)c([H])c6F)c([H])c5[H])c(C(=O)N([H])[H])c4N([H])[H])C3([H])[H])c([H])c([H])c2C1([H])[H]

$$$$
84:0:0
     RDKit          3D

 98105  0  0  1  0  0  0  0  0999 V2000
  -28.6520  -23.3550   18.0530 C   0  0  0  0  0  2  0  0  0  0  0  0
  -28.2150  -24.7510   17.8530 N   0  0  0  0  0  4  0  0  0  0  0  0
  -28.2940  -25.2700   18.7180 H   0  0  0  0  0  0  0  0  0  0  0  0
  -27.2390  -24.7180   17.5980 H   0  0  0  0  0  0  0  0  0  0  0  0
  -28.9240  -25.4810   16.7760 C   0  0  0  0  0  2  0  0  0  0  0  0
  -30.3800  -25.8590   17.1230 C   0  0  0  0  0  2  0  0  0  0  0  0
  -30.3870  -26.9330   18.0590 O   0  0  0  0  0  0  0  0  0  0  0  0
  -30.6610  -26.5870   19.4130 C   0  0  0  0  0  2  0  0  0  0  0  0
  -29.6440  -27.3380   20.2770 C   0  0  0  0  0  2  0  0  0  0  0  0
  -28.3980  -26.6580   20.1390 O   0  0  0  0  0  0  0  0  0  0  0  0
  -24.5590  -31.8300   23.2750 C   0  0  0  0  0  0  0  0  0  0  0  0
  -27.2500  -27.4140   20.2270 C   0  0  0  0  0  0  0  0  0  0  0  0
  -23.3730  -30.4330   21.6090 C   0  0  0  0  0  3  0  0  0  0  0  0
  -24.8420  -28.8850   20.2200 C   0  0  0  0  0  0  0  0  0  0  0  0
  -25.8980  -30.7890   21.4540 C   0  0  0  0  0  2  0  0  0  0  0  0
  -25.9870  -29.4170   20.8260 C   0  0  0  0  0  0  0  0  0  0  0  0
  -27.1910  -28.6870   20.8390 C   0  0  0  0  0  3  0  0  0  0  0  0
  -26.0820  -26.8760   19.6500 C   0  0  0  0  0  3  0  0  0  0  0  0
  -24.8800  -27.6060   19.6360 C   0  0  0  0  0  3  0  0  0  0  0  0
  -23.5950  -29.7360   20.2400 C   0  0  0  0  0  2  0  0  0  0  0  0
  -24.6260  -31.0330   22.1710 N   0  0  0  0  0  0  0  0  0  0  0  0
  -23.4720  -32.1090   23.7980 O   0  0  0  0  0  0  0  0  0  0  0  0
  -22.6990  -29.4220   22.5620 C   0  0  0  0  0  0  0  0  0  0  0  0
  -21.3810  -29.2320   22.3910 N   0  0  0  0  0  0  0  0  0  0  0  0
  -23.3620  -28.8050   23.4000 O   0  0  0  0  0  0  0  0  0  0  0  0
  -20.9110  -29.7760   21.6800 H   0  0  0  0  0  0  0  0  0  0  0  0
  -18.0070  -28.0050   22.7720 C   0  0  0  0  0  0  0  0  0  0  0  0
  -20.5470  -28.2970   23.1420 C   0  0  0  0  0  3  0  0  0  0  0  0
  -20.6920  -26.8610   22.5900 C   0  0  0  0  0  2  0  0  0  0  0  0
  -19.6340  -26.5090   21.5380 C   0  0  0  0  0  2  0  0  0  0  0  0
  -18.2250  -26.6490   22.1230 C   0  0  0  0  0  2  0  0  0  0  0  0
  -19.0980  -28.7860   23.2350 C   0  0  0  0  0  0  0  0  0  0  0  0
  -18.8440  -30.0550   23.7970 C   0  0  0  0  0  3  0  0  0  0  0  0
  -17.5290  -30.5430   23.9060 C   0  0  0  0  0  3  0  0  0  0  0  0
  -16.4500  -29.7600   23.4600 C   0  0  0  0  0  3  0  0  0  0  0  0
  -16.6900  -28.4930   22.9000 C   0  0  0  0  0  3  0  0  0  0  0  0
  -25.8400  -32.4470   23.9220 C   0  0  0  0  0  3  0  0  0  0  0  0
  -25.5370  -33.8480   24.2440 N   0  0  0  0  0  0  0  0  0  0  0  0
  -25.8960  -34.8960   23.4910 C   0  0  0  0  0  0  0  0  0  0  0  0
  -26.5880  -34.7850   22.4760 O   0  0  0  0  0  0  0  0  0  0  0  0
  -24.9240  -34.0100   25.0300 H   0  0  0  0  0  0  0  0  0  0  0  0
  -24.1870  -36.7040   23.0980 C   0  0  0  0  0  1  0  0  0  0  0  0
  -25.4080  -36.2890   23.9350 C   0  0  0  0  0  3  0  0  0  0  0  0
  -27.5370  -37.1540   24.8020 C   0  0  0  0  0  1  0  0  0  0  0  0
  -26.4490  -37.3350   23.8460 N   0  0  0  0  0  0  0  0  0  0  0  0
  -26.0460  -38.2570   23.9960 H   0  0  0  0  0  0  0  0  0  0  0  0
  -26.3310  -31.6710   25.2060 C   0  0  1  0  0  0  0  0  0  0  0  0
  -25.2210  -31.4370   26.2560 C   0  0  0  0  0  1  0  0  0  0  0  0
  -26.9170  -30.2910   24.8280 C   0  0  0  0  0  1  0  0  0  0  0  0
  -27.4720  -32.4630   25.8900 C   0  0  0  0  0  1  0  0  0  0  0  0
  -27.9840  -22.6990   19.2730 C   0  0  0  0  0  2  0  0  0  0  0  0
  -28.3440  -21.2090   19.3570 C   0  0  0  0  0  2  0  0  0  0  0  0
  -27.8170  -20.5310   20.6310 C   0  0  0  0  0  2  0  0  0  0  0  0
  -28.0670  -19.0110   20.6510 C   0  0  0  0  0  2  0  0  0  0  0  0
  -29.5060  -18.6960   20.7820 N   0  0  0  0  0  4  0  0  0  0  0  0
  -29.8970  -19.2670   21.5140 H   0  0  0  0  0  0  0  0  0  0  0  0
  -29.9670  -18.9380   19.9210 H   0  0  0  0  0  0  0  0  0  0  0  0
  -29.8060  -17.2830   21.0830 C   0  0  0  0  0  2  0  0  0  0  0  0
  -31.3180  -17.0050   20.9710 C   0  0  0  0  0  2  0  0  0  0  0  0
  -31.7680  -15.6480   21.5440 C   0  0  0  0  0  2  0  0  0  0  0  0
  -31.2780  -13.7250   20.0010 C   0  0  0  0  0  0  0  0  0  0  0  0
  -30.7440  -11.5590   18.9400 C   0  0  0  0  0  2  0  0  0  0  0  0
  -29.7710  -11.6990   17.7560 C   0  0  0  0  0  2  0  0  0  0  0  0
  -28.3100  -11.6980   18.2420 C   0  0  0  0  0  2  0  0  0  0  0  0
  -28.0710  -12.6940   19.4060 C   0  0  0  0  0  3  0  0  0  0  0  0
  -29.1340  -12.5030   20.5090 C   0  0  0  0  0  2  0  0  0  0  0  0
  -30.4730  -12.6390   19.8990 N   0  0  0  0  0  0  0  0  0  0  0  0
  -32.2530  -13.9300   19.2700 O   0  0  0  0  0  0  0  0  0  0  0  0
  -30.9890  -14.5170   21.0420 N   0  0  0  0  0  0  0  0  0  0  0  0
  -30.2020  -14.2220   21.6030 H   0  0  0  0  0  0  0  0  0  0  0  0
  -25.7820  -13.5680   20.2020 C   0  0  0  0  0  0  0  0  0  0  0  0
  -24.6550  -12.9200   20.6260 C   0  0  0  0  0  0  0  0  0  0  0  0
  -24.9630  -11.5240   20.5890 C   0  0  0  0  0  0  0  0  0  0  0  0
  -26.7160  -12.5760   19.9390 N   0  0  0  0  0  0  0  0  0  0  0  0
  -26.2270  -11.3430   20.2260 N   0  0  0  0  0  0  0  0  0  0  0  0
  -24.1140  -10.3500   20.8240 C   0  0  0  0  0  0  0  0  0  0  0  0
  -24.4720   -9.3550   21.7620 C   0  0  0  0  0  3  0  0  0  0  0  0
  -23.6290   -8.2440   21.9820 C   0  0  0  0  0  3  0  0  0  0  0  0
  -22.4150   -8.1200   21.2670 C   0  0  0  0  0  0  0  0  0  0  0  0
  -22.0750   -9.1020   20.3190 C   0  0  0  0  0  3  0  0  0  0  0  0
  -22.9160  -10.2040   20.0960 C   0  0  0  0  0  3  0  0  0  0  0  0
  -21.5470   -7.0620   21.3960 O   0  0  0  0  0  0  0  0  0  0  0  0
  -21.4610   -6.3430   22.5610 C   0  0  0  0  0  0  0  0  0  0  0  0
  -21.1340   -6.9540   23.7920 C   0  0  0  0  0  3  0  0  0  0  0  0
  -20.9860   -6.1670   24.9520 C   0  0  0  0  0  3  0  0  0  0  0  0
  -21.1510   -4.7700   24.8820 C   0  0  0  0  0  0  0  0  0  0  0  0
  -21.4720   -4.1600   23.6560 C   0  0  0  0  0  3  0  0  0  0  0  0
  -21.6210   -4.9440   22.4990 C   0  0  0  0  0  0  0  0  0  0  0  0
  -21.9080   -4.3480   21.3160 F   0  0  0  0  0  0  0  0  0  0  0  0
  -21.0020   -4.0130   25.9930 F   0  0  0  0  0  0  0  0  0  0  0  0
  -23.3300  -13.5460   20.9540 C   0  0  0  0  0  0  0  0  0  0  0  0
  -22.5790  -12.9490   21.8730 N   0  0  0  0  0  0  0  0  0  0  0  0
  -22.9740  -14.6010   20.4300 O   0  0  0  0  0  0  0  0  0  0  0  0
  -22.8780  -12.0920   22.3160 H   0  0  0  0  0  0  0  0  0  0  0  0
  -21.6920  -13.3540   22.1370 H   0  0  0  0  0  0  0  0  0  0  0  0
  -26.0870  -14.9110   20.0010 N   0  0  0  0  0  0  0  0  0  0  0  0
  -25.3920  -15.6410   20.1120 H   0  0  0  0  0  0  0  0  0  0  0  0
  -26.9540  -15.2440   19.5990 H   0  0  0  0  0  0  0  0  0  0  0  0
  1 51  1  0
  2  1  1  0
  2  3  1  0
  4  2  1  0
  5  6  1  0
  5  2  1  0
  6  7  1  0
  7  8  1  0
  8  9  1  0
 10 12  1  0
 10  9  1  0
 11 22  2  0
 12 17  1  0
 13 21  1  0
 13 23  1  0
 14 20  1  0
 14 16  1  0
 15 21  1  0
 16 17  2  0
 16 15  1  0
 18 12  2  0
 19 18  1  0
 19 14  2  0
 20 13  1  0
 21 11  1  0
 23 25  2  0
 24 23  1  0
 26 24  1  0
 27 36  2  0
 27 32  1  0
 28 24  1  0
 28 32  1  0
 29 28  1  0
 30 31  1  0
 30 29  1  0
 31 27  1  0
 32 33  2  0
 33 34  1  0
 35 34  2  0
 36 35  1  0
 37 11  1  0
 37 38  1  0
 37 47  1  0
 38 41  1  0
 39 43  1  0
 39 38  1  0
 40 39  2  0
 43 42  1  0
 45 43  1  0
 45 46  1  0
 45 44  1  0
 47 50  1  1
 47 48  1  0
 49 47  1  0
 51 52  1  0
 52 53  1  0
 53 54  1  0
 54 55  1  0
 55 58  1  0
 55 56  1  0
 57 55  1  0
 59 58  1  0
 59 60  1  0
 61 69  1  0
 62 67  1  0
 63 64  1  0
 63 62  1  0
 65 64  1  0
 65 74  1  0
 65 66  1  0
 67 61  1  0
 67 66  1  0
 68 61  2  0
 69 60  1  0
 69 70  1  0
 71 72  2  0
 72 91  1  0
 73 72  1  0
 73 76  1  0
 74 71  1  0
 74 75  1  0
 75 73  2  0
 76 77  1  0
 77 78  2  0
 79 82  1  0
 79 78  1  0
 80 79  2  0
 81 80  1  0
 81 76  2  0
 82 83  1  0
 83 84  1  0
 84 85  2  0
 86 85  1  0
 86 90  1  0
 87 86  2  0
 88 83  2  0
 88 87  1  0
 89 88  1  0
 91 92  1  0
 92 95  1  0
 92 94  1  0
 93 91  2  0
 96 97  1  0
 96 71  1  0
 98 96  1  0
M  ISO  4   9 101  10 101  61 100  69 100
M  END
>  <TORSDO>  (82) 
F 30

>  <SCORE>  (82) 
-10.061

>  <name>  (82) 
84

>  <ligand_id>  (82) 
84

>  <original_smiles>  (82) 
[H]c1c([H])c([H])c2c(c1[H])C([H])([H])C([H])([H])C([H])([H])C2([H])N([H])C(=O)C1([H])N(C(=O)C([H])(N([H])C(=O)C([H])(N([H])C([H])([H])[H])C([H])([H])[H])C(C([H])([H])[H])(C([H])([H])[H])C([H])([H])[H])C([H])([H])c2c([H])c(OC([H])([H])C([H])([H])OC([H])([H])C([H])([H])[N+]([H])([H])C([H])([H])C([H])([H])C([H])([H])C([H])([H])C([H])([H])[N+]([H])([H])C([H])([H])C([H])([H])C([H])([H])N([H])C(=O)N3C([H])([H])C([H])([H])C([H])([H])C([H])(n4nc(-c5c([H])c([H])c(Oc6c([H])c([H])c(F)c([H])c6F)c([H])c5[H])c(C(=O)N([H])[H])c4N([H])[H])C3([H])[H])c([H])c([H])c2C1([H])[H]

>  <smiles>  (82) 
[H]c1c([H])c([H])c2c(c1[H])C([H])([H])C([H])([H])C([H])([H])C2([H])N([H])C(=O)C1([H])N(C(=O)C([H])(N([H])C(=O)C([H])(N([H])C([H])([H])[H])C([H])([H])[H])C(C([H])([H])[H])(C([H])([H])[H])C([H])([H])[H])C([H])([H])c2c([H])c(OC([H])([H])C([H])([H])OC([H])([H])C([H])([H])[N+]([H])([H])C([H])([H])C([H])([H])C([H])([H])C([H])([H])C([H])([H])[N+]([H])([H])C([H])([H])C([H])([H])C([H])([H])N([H])C(=O)N3C([H])([H])C([H])([H])C([H])([H])C([H])(n4nc(-c5c([H])c([H])c(Oc6c([H])c([H])c(F)c([H])c6F)c([H])c5[H])c(C(=O)N([H])[H])c4N([H])[H])C3([H])[H])c([H])c([H])c2C1([H])[H]

$$$$
85:0:0
     RDKit          3D

 90 97  0  0  1  0  0  0  0  0999 V2000
  -29.5390  -21.8770   20.7790 C   0  0  0  0  0  2  0  0  0  0  0  0
  -28.9860  -22.9380   19.9220 N   0  0  0  0  0  0  0  0  0  0  0  0
  -28.0060  -22.7400   19.7320 H   0  0  0  0  0  0  0  0  0  0  0  0
  -29.0760  -24.2850   20.5160 C   0  0  0  0  0  2  0  0  0  0  0  0
  -28.5320  -25.3730   19.5460 C   0  0  0  0  0  2  0  0  0  0  0  0
  -28.4140  -26.6850   20.1510 O   0  0  0  0  0  0  0  0  0  0  0  0
  -24.6120  -31.8920   23.2330 C   0  0  0  0  0  0  0  0  0  0  0  0
  -27.2220  -27.4040   20.1310 C   0  0  0  0  0  0  0  0  0  0  0  0
  -23.3930  -30.4930   21.6020 C   0  0  0  0  0  3  0  0  0  0  0  0
  -24.8320  -28.9530   20.1700 C   0  0  0  0  0  0  0  0  0  0  0  0
  -25.9250  -30.8310   21.3950 C   0  0  0  0  0  2  0  0  0  0  0  0
  -25.9990  -29.4590   20.7520 C   0  0  0  0  0  0  0  0  0  0  0  0
  -27.1920  -28.6920   20.7320 C   0  0  0  0  0  3  0  0  0  0  0  0
  -26.0220  -26.9270   19.5460 C   0  0  0  0  0  3  0  0  0  0  0  0
  -24.8400  -27.6860   19.5680 C   0  0  0  0  0  3  0  0  0  0  0  0
  -23.5930  -29.8170   20.2220 C   0  0  0  0  0  2  0  0  0  0  0  0
  -24.6620  -31.0870   22.1340 N   0  0  0  0  0  0  0  0  0  0  0  0
  -23.5340  -32.1690   23.7760 O   0  0  0  0  0  0  0  0  0  0  0  0
  -22.7460  -29.4710   22.5660 C   0  0  0  0  0  0  0  0  0  0  0  0
  -21.4210  -29.2910   22.4480 N   0  0  0  0  0  0  0  0  0  0  0  0
  -23.4340  -28.8450   23.3770 O   0  0  0  0  0  0  0  0  0  0  0  0
  -20.9260  -29.8490   21.7650 H   0  0  0  0  0  0  0  0  0  0  0  0
  -18.0480  -28.0970   22.9610 C   0  0  0  0  0  0  0  0  0  0  0  0
  -20.6070  -28.3560   23.2240 C   0  0  0  0  0  3  0  0  0  0  0  0
  -20.7080  -26.9220   22.6550 C   0  0  0  0  0  2  0  0  0  0  0  0
  -19.6030  -26.5950   21.6450 C   0  0  0  0  0  2  0  0  0  0  0  0
  -18.2230  -26.7440   22.2920 C   0  0  0  0  0  2  0  0  0  0  0  0
  -19.1670  -28.8610   23.3840 C   0  0  0  0  0  0  0  0  0  0  0  0
  -18.9500  -30.1280   23.9680 C   0  0  0  0  0  3  0  0  0  0  0  0
  -17.6460  -30.6300   24.1340 C   0  0  0  0  0  3  0  0  0  0  0  0
  -16.5400  -29.8630   23.7270 C   0  0  0  0  0  3  0  0  0  0  0  0
  -16.7420  -28.5980   23.1460 C   0  0  0  0  0  3  0  0  0  0  0  0
  -25.9020  -32.5240   23.8410 C   0  0  0  0  0  3  0  0  0  0  0  0
  -26.4360  -31.7460   25.1070 C   0  0  1  0  0  0  0  0  0  0  0  0
  -25.3560  -31.5000   26.1850 C   0  0  0  0  0  1  0  0  0  0  0  0
  -27.0170  -30.3710   24.7010 C   0  0  0  0  0  1  0  0  0  0  0  0
  -27.5930  -32.5380   25.7590 C   0  0  0  0  0  1  0  0  0  0  0  0
  -25.5920  -33.9190   24.1820 N   0  0  0  0  0  0  0  0  0  0  0  0
  -25.9100  -34.9750   23.4220 C   0  0  0  0  0  0  0  0  0  0  0  0
  -26.5650  -34.8790   22.3810 O   0  0  0  0  0  0  0  0  0  0  0  0
  -25.0060  -34.0660   24.9900 H   0  0  0  0  0  0  0  0  0  0  0  0
  -24.1650  -36.7580   23.1040 C   0  0  0  0  0  1  0  0  0  0  0  0
  -25.4220  -36.3590   23.8920 C   0  0  0  0  0  3  0  0  0  0  0  0
  -27.5690  -37.2520   24.6830 C   0  0  0  0  0  1  0  0  0  0  0  0
  -26.4460  -37.4190   23.7640 N   0  0  0  0  0  0  0  0  0  0  0  0
  -26.0390  -38.3360   23.9250 H   0  0  0  0  0  0  0  0  0  0  0  0
  -29.2780  -20.4450   20.2060 C   0  0  0  0  0  2  0  0  0  0  0  0
  -29.9590  -19.3610   20.9710 N   0  0  0  0  0  4  0  0  0  0  0  0
  -30.9530  -19.4810   20.8660 H   0  0  0  0  0  0  0  0  0  0  0  0
  -29.7380  -19.4840   21.9470 H   0  0  0  0  0  0  0  0  0  0  0  0
  -29.5950  -17.9640   20.5850 C   0  0  0  0  0  2  0  0  0  0  0  0
  -30.3920  -16.8790   21.3710 C   0  0  0  0  0  2  0  0  0  0  0  0
  -30.6370  -14.4980   20.5150 C   0  0  0  0  0  0  0  0  0  0  0  0
  -30.3390  -12.3450   19.3390 C   0  0  0  0  0  2  0  0  0  0  0  0
  -29.3830  -12.5410   18.1440 C   0  0  0  0  0  2  0  0  0  0  0  0
  -27.9140  -12.3960   18.5870 C   0  0  0  0  0  2  0  0  0  0  0  0
  -27.5840  -13.2320   19.8520 C   0  0  0  0  0  3  0  0  0  0  0  0
  -28.6470  -13.0070   20.9500 C   0  0  0  0  0  2  0  0  0  0  0  0
  -29.9660  -13.3220   20.3740 N   0  0  0  0  0  0  0  0  0  0  0  0
  -31.7520  -14.6960   20.0290 O   0  0  0  0  0  0  0  0  0  0  0  0
  -29.9470  -15.4910   21.1130 N   0  0  0  0  0  0  0  0  0  0  0  0
  -29.0300  -15.2400   21.4510 H   0  0  0  0  0  0  0  0  0  0  0  0
  -25.1920  -13.8430   20.5770 C   0  0  0  0  0  0  0  0  0  0  0  0
  -24.1240  -13.0710   20.9510 C   0  0  0  0  0  0  0  0  0  0  0  0
  -24.5820  -11.7190   20.9130 C   0  0  0  0  0  0  0  0  0  0  0  0
  -26.2340  -12.9600   20.3380 N   0  0  0  0  0  0  0  0  0  0  0  0
  -25.8700  -11.6770   20.5970 N   0  0  0  0  0  0  0  0  0  0  0  0
  -23.8550  -10.4580   21.1020 C   0  0  0  0  0  0  0  0  0  0  0  0
  -24.3090   -9.4710   22.0050 C   0  0  0  0  0  3  0  0  0  0  0  0
  -23.5820   -8.2740   22.1830 C   0  0  0  0  0  3  0  0  0  0  0  0
  -22.3870   -8.0560   21.4570 C   0  0  0  0  0  0  0  0  0  0  0  0
  -21.9510   -9.0310   20.5430 C   0  0  0  0  0  3  0  0  0  0  0  0
  -22.6780  -10.2190   20.3630 C   0  0  0  0  0  3  0  0  0  0  0  0
  -21.6280   -6.9130   21.5460 O   0  0  0  0  0  0  0  0  0  0  0  0
  -21.6290   -6.1360   22.6770 C   0  0  0  0  0  0  0  0  0  0  0  0
  -21.2830   -6.6610   23.9410 C   0  0  0  0  0  3  0  0  0  0  0  0
  -21.2290   -5.8110   25.0640 C   0  0  0  0  0  3  0  0  0  0  0  0
  -21.5080   -4.4400   24.9250 C   0  0  0  0  0  0  0  0  0  0  0  0
  -21.8470   -3.9130   23.6660 C   0  0  0  0  0  3  0  0  0  0  0  0
  -21.9040   -4.7600   22.5440 C   0  0  0  0  0  0  0  0  0  0  0  0
  -22.2100   -4.2450   21.3290 F   0  0  0  0  0  0  0  0  0  0  0  0
  -21.4480   -3.6210   26.0020 F   0  0  0  0  0  0  0  0  0  0  0  0
  -22.7290  -13.5510   21.2350 C   0  0  0  0  0  0  0  0  0  0  0  0
  -22.0070  -12.8530   22.1040 N   0  0  0  0  0  0  0  0  0  0  0  0
  -22.2890  -14.5790   20.7200 O   0  0  0  0  0  0  0  0  0  0  0  0
  -22.3760  -12.0210   22.5410 H   0  0  0  0  0  0  0  0  0  0  0  0
  -21.0720  -13.1560   22.3370 H   0  0  0  0  0  0  0  0  0  0  0  0
  -25.3580  -15.2130   20.4010 N   0  0  0  0  0  0  0  0  0  0  0  0
  -24.5890  -15.8670   20.5040 H   0  0  0  0  0  0  0  0  0  0  0  0
  -26.1980  -15.6450   20.0380 H   0  0  0  0  0  0  0  0  0  0  0  0
  2  4  1  0
  2  1  1  0
  3  2  1  0
  5  6  1  0
  5  4  1  0
  7 18  2  0
  8  6  1  0
  8 13  1  0
  9 17  1  0
  9 19  1  0
 10 16  1  0
 10 12  1  0
 11 17  1  0
 12 11  1  0
 13 12  2  0
 14 15  1  0
 14  8  2  0
 15 10  2  0
 16  9  1  0
 17  7  1  0
 19 21  2  0
 20 19  1  0
 22 20  1  0
 23 32  2  0
 23 28  1  0
 24 20  1  0
 24 28  1  0
 25 24  1  0
 26 27  1  0
 26 25  1  0
 27 23  1  0
 28 29  2  0
 29 30  1  0
 31 30  2  0
 32 31  1  0
 33  7  1  0
 33 38  1  0
 33 34  1  0
 34 37  1  1
 34 35  1  0
 36 34  1  0
 38 41  1  0
 39 43  1  0
 39 38  1  0
 40 39  2  0
 43 42  1  0
 45 43  1  0
 45 46  1  0
 45 44  1  0
 47  1  1  0
 47 48  1  0
 48 50  1  0
 49 48  1  0
 51 48  1  0
 51 52  1  0
 53 61  1  0
 54 59  1  0
 55 56  1  0
 55 54  1  0
 57 56  1  0
 57 66  1  0
 57 58  1  0
 59 53  1  0
 59 58  1  0
 60 53  2  0
 61 52  1  0
 61 62  1  0
 63 64  2  0
 64 83  1  0
 65 64  1  0
 65 68  1  0
 66 63  1  0
 66 67  1  0
 67 65  2  0
 68 69  1  0
 69 70  2  0
 71 74  1  0
 71 70  1  0
 72 71  2  0
 73 72  1  0
 73 68  2  0
 74 75  1  0
 75 76  1  0
 76 77  2  0
 78 77  1  0
 78 82  1  0
 79 78  2  0
 80 75  2  0
 80 79  1  0
 81 80  1  0
 83 84  1  0
 84 87  1  0
 84 86  1  0
 85 83  2  0
 88 89  1  0
 88 63  1  0
 90 88  1  0
M  ISO  4   5 101   6 101  53 100  61 100
M  END
>  <TORSDO>  (83) 
F 23

>  <SCORE>  (83) 
-12.740

>  <name>  (83) 
85

>  <ligand_id>  (83) 
85

>  <original_smiles>  (83) 
[H]c1c([H])c([H])c2c(c1[H])C([H])([H])C([H])([H])C([H])([H])C2([H])N([H])C(=O)C1([H])N(C(=O)C([H])(N([H])C(=O)C([H])(N([H])C([H])([H])[H])C([H])([H])[H])C(C([H])([H])[H])(C([H])([H])[H])C([H])([H])[H])C([H])([H])c2c([H])c(OC([H])([H])C([H])([H])N([H])C([H])([H])C([H])([H])[N+]([H])([H])C([H])([H])C([H])([H])N([H])C(=O)N3C([H])([H])C([H])([H])C([H])([H])C([H])(n4nc(-c5c([H])c([H])c(Oc6c([H])c([H])c(F)c([H])c6F)c([H])c5[H])c(C(=O)N([H])[H])c4N([H])[H])C3([H])[H])c([H])c([H])c2C1([H])[H]

>  <smiles>  (83) 
[H]c1c([H])c([H])c2c(c1[H])C([H])([H])C([H])([H])C([H])([H])C2([H])N([H])C(=O)C1([H])N(C(=O)C([H])(N([H])C(=O)C([H])(N([H])C([H])([H])[H])C([H])([H])[H])C(C([H])([H])[H])(C([H])([H])[H])C([H])([H])[H])C([H])([H])c2c([H])c(OC([H])([H])C([H])([H])N([H])C([H])([H])C([H])([H])[N+]([H])([H])C([H])([H])C([H])([H])N([H])C(=O)N3C([H])([H])C([H])([H])C([H])([H])C([H])(n4nc(-c5c([H])c([H])c(Oc6c([H])c([H])c(F)c([H])c6F)c([H])c5[H])c(C(=O)N([H])[H])c4N([H])[H])C3([H])[H])c([H])c([H])c2C1([H])[H]

$$$$
86:0:0
     RDKit          3D

 94101  0  0  1  0  0  0  0  0999 V2000
  -29.6420  -20.9360   21.3980 C   0  0  0  0  0  2  0  0  0  0  0  0
  -30.6720  -19.9460   21.1280 N   0  0  0  0  0  0  0  0  0  0  0  0
  -31.5750  -20.4220   21.0650 H   0  0  0  0  0  0  0  0  0  0  0  0
  -30.7350  -18.9250   22.1710 C   0  0  0  0  0  2  0  0  0  0  0  0
  -31.8620  -17.9180   21.9090 C   0  0  0  0  0  2  0  0  0  0  0  0
  -31.8940  -16.8860   22.9590 N   0  0  0  0  0  4  0  0  0  0  0  0
  -32.0680  -17.3110   23.8560 H   0  0  0  0  0  0  0  0  0  0  0  0
  -30.9930  -16.4390   22.9960 H   0  0  0  0  0  0  0  0  0  0  0  0
  -32.8850  -15.8220   22.7330 C   0  0  0  0  0  2  0  0  0  0  0  0
  -32.2320  -14.4410   22.8820 C   0  0  0  0  0  2  0  0  0  0  0  0
  -30.8940  -14.1770   20.8090 C   0  0  0  0  0  0  0  0  0  0  0  0
  -30.3960  -12.2840   19.3380 C   0  0  0  0  0  2  0  0  0  0  0  0
  -29.4510  -12.5440   18.1610 C   0  0  0  0  0  2  0  0  0  0  0  0
  -27.9900  -12.3770   18.6060 C   0  0  0  0  0  2  0  0  0  0  0  0
  -27.6620  -13.2040   19.8750 C   0  0  0  0  0  3  0  0  0  0  0  0
  -28.7060  -12.9650   20.9880 C   0  0  0  0  0  2  0  0  0  0  0  0
  -30.0550  -13.1890   20.4400 N   0  0  0  0  0  0  0  0  0  0  0  0
  -31.7480  -14.6780   20.0730 O   0  0  0  0  0  0  0  0  0  0  0  0
  -30.9730  -14.2790   22.1430 N   0  0  0  0  0  0  0  0  0  0  0  0
  -30.2410  -13.7850   22.6350 H   0  0  0  0  0  0  0  0  0  0  0  0
  -25.2580  -13.8170   20.5690 C   0  0  0  0  0  0  0  0  0  0  0  0
  -24.1830  -13.0440   20.9180 C   0  0  0  0  0  0  0  0  0  0  0  0
  -24.6370  -11.6910   20.8720 C   0  0  0  0  0  0  0  0  0  0  0  0
  -26.3030  -12.9340   20.3400 N   0  0  0  0  0  0  0  0  0  0  0  0
  -25.9300  -11.6490   20.5780 N   0  0  0  0  0  0  0  0  0  0  0  0
  -23.9040  -10.4290   21.0390 C   0  0  0  0  0  0  0  0  0  0  0  0
  -24.3590   -9.4210   21.9180 C   0  0  0  0  0  3  0  0  0  0  0  0
  -23.6280   -8.2240   22.0750 C   0  0  0  0  0  3  0  0  0  0  0  0
  -22.4260   -8.0270   21.3540 C   0  0  0  0  0  0  0  0  0  0  0  0
  -21.9890   -9.0250   20.4640 C   0  0  0  0  0  3  0  0  0  0  0  0
  -22.7210  -10.2130   20.3050 C   0  0  0  0  0  3  0  0  0  0  0  0
  -21.6630   -6.8870   21.4240 O   0  0  0  0  0  0  0  0  0  0  0  0
  -21.6850   -6.0730   22.5280 C   0  0  0  0  0  0  0  0  0  0  0  0
  -21.4020   -6.5640   23.8220 C   0  0  0  0  0  3  0  0  0  0  0  0
  -21.3650   -5.6800   24.9180 C   0  0  0  0  0  3  0  0  0  0  0  0
  -21.6040   -4.3050   24.7230 C   0  0  0  0  0  0  0  0  0  0  0  0
  -21.8810   -3.8150   23.4350 C   0  0  0  0  0  3  0  0  0  0  0  0
  -21.9190   -4.6960   22.3410 C   0  0  0  0  0  0  0  0  0  0  0  0
  -22.1660   -4.2140   21.0980 F   0  0  0  0  0  0  0  0  0  0  0  0
  -21.5620   -3.4540   25.7740 F   0  0  0  0  0  0  0  0  0  0  0  0
  -22.7850  -13.5240   21.1850 C   0  0  0  0  0  0  0  0  0  0  0  0
  -22.0490  -12.8230   22.0400 N   0  0  0  0  0  0  0  0  0  0  0  0
  -22.3540  -14.5560   20.6720 O   0  0  0  0  0  0  0  0  0  0  0  0
  -22.4090  -11.9870   22.4770 H   0  0  0  0  0  0  0  0  0  0  0  0
  -21.1110  -13.1270   22.2610 H   0  0  0  0  0  0  0  0  0  0  0  0
  -25.4330  -15.1890   20.4080 N   0  0  0  0  0  0  0  0  0  0  0  0
  -24.6710  -15.8520   20.5120 H   0  0  0  0  0  0  0  0  0  0  0  0
  -26.2970  -15.6230   20.1070 H   0  0  0  0  0  0  0  0  0  0  0  0
  -29.7340  -22.1070   20.4180 C   0  0  0  0  0  2  0  0  0  0  0  0
  -28.9470  -23.2150   20.9310 N   0  0  0  0  0  0  0  0  0  0  0  0
  -29.2550  -23.4240   21.8820 H   0  0  0  0  0  0  0  0  0  0  0  0
  -29.0370  -24.4320   20.1290 C   0  0  0  0  0  2  0  0  0  0  0  0
  -28.3460  -25.5850   20.8610 C   0  0  0  0  0  2  0  0  0  0  0  0
  -28.3980  -26.7620   20.0660 O   0  0  0  0  0  0  0  0  0  0  0  0
  -24.6100  -31.8710   23.2130 C   0  0  0  0  0  0  0  0  0  0  0  0
  -27.2350  -27.4820   20.0830 C   0  0  0  0  0  0  0  0  0  0  0  0
  -23.3960  -30.4940   21.5530 C   0  0  0  0  0  3  0  0  0  0  0  0
  -24.8430  -28.9650   20.1160 C   0  0  0  0  0  0  0  0  0  0  0  0
  -25.9200  -30.8500   21.3590 C   0  0  0  0  0  2  0  0  0  0  0  0
  -26.0000  -29.4880   20.7070 C   0  0  0  0  0  0  0  0  0  0  0  0
  -27.2030  -28.7530   20.6880 C   0  0  0  0  0  3  0  0  0  0  0  0
  -26.0660  -26.9590   19.4930 C   0  0  0  0  0  3  0  0  0  0  0  0
  -24.8670  -27.6960   19.5090 C   0  0  0  0  0  3  0  0  0  0  0  0
  -23.6010  -29.8240   20.1680 C   0  0  0  0  0  2  0  0  0  0  0  0
  -24.6600  -31.0850   22.1010 N   0  0  0  0  0  0  0  0  0  0  0  0
  -23.5310  -32.1440   23.7560 O   0  0  0  0  0  0  0  0  0  0  0  0
  -22.7380  -29.4670   22.5010 C   0  0  0  0  0  0  0  0  0  0  0  0
  -21.4120  -29.3020   22.3750 N   0  0  0  0  0  0  0  0  0  0  0  0
  -23.4170  -28.8220   23.3040 O   0  0  0  0  0  0  0  0  0  0  0  0
  -20.9270  -29.8730   21.6960 H   0  0  0  0  0  0  0  0  0  0  0  0
  -18.0270  -28.1370   22.8500 C   0  0  0  0  0  0  0  0  0  0  0  0
  -20.5850  -28.3650   23.1340 C   0  0  0  0  0  3  0  0  0  0  0  0
  -20.6770  -26.9390   22.5420 C   0  0  0  0  0  2  0  0  0  0  0  0
  -19.5750  -26.6390   21.5210 C   0  0  0  0  0  2  0  0  0  0  0  0
  -18.1920  -26.7920   22.1620 C   0  0  0  0  0  2  0  0  0  0  0  0
  -19.1510  -28.8820   23.2920 C   0  0  0  0  0  0  0  0  0  0  0  0
  -18.9440  -30.1440   23.8920 C   0  0  0  0  0  3  0  0  0  0  0  0
  -17.6440  -30.6580   24.0560 C   0  0  0  0  0  3  0  0  0  0  0  0
  -16.5340  -29.9080   23.6320 C   0  0  0  0  0  3  0  0  0  0  0  0
  -16.7250  -28.6500   23.0340 C   0  0  0  0  0  3  0  0  0  0  0  0
  -25.9020  -32.4840   23.8410 C   0  0  0  0  0  3  0  0  0  0  0  0
  -26.4470  -31.6600   25.0720 C   0  0  1  0  0  0  0  0  0  0  0  0
  -25.3750  -31.3680   26.1480 C   0  0  0  0  0  1  0  0  0  0  0  0
  -27.0280  -30.3050   24.6050 C   0  0  0  0  0  1  0  0  0  0  0  0
  -27.6070  -32.4290   25.7470 C   0  0  0  0  0  1  0  0  0  0  0  0
  -25.5890  -33.8640   24.2350 N   0  0  0  0  0  0  0  0  0  0  0  0
  -25.9030  -34.9490   23.5140 C   0  0  0  0  0  0  0  0  0  0  0  0
  -26.5580  -34.8930   22.4690 O   0  0  0  0  0  0  0  0  0  0  0  0
  -25.0050  -33.9800   25.0510 H   0  0  0  0  0  0  0  0  0  0  0  0
  -24.1490  -36.7320   23.2640 C   0  0  0  0  0  1  0  0  0  0  0  0
  -25.4100  -36.3120   24.0340 C   0  0  0  0  0  3  0  0  0  0  0  0
  -27.5580  -37.1810   24.8460 C   0  0  0  0  0  1  0  0  0  0  0  0
  -26.4290  -37.3800   23.9400 N   0  0  0  0  0  0  0  0  0  0  0  0
  -26.0190  -38.2880   24.1420 H   0  0  0  0  0  0  0  0  0  0  0  0
  2  1  1  0
  2  4  1  0
  3  2  1  0
  5  4  1  0
  5  6  1  0
  6  8  1  0
  6  7  1  0
  9 10  1  0
  9  6  1  0
 11 19  1  0
 12 17  1  0
 13 14  1  0
 13 12  1  0
 15 14  1  0
 15 24  1  0
 15 16  1  0
 17 11  1  0
 17 16  1  0
 18 11  2  0
 19 20  1  0
 19 10  1  0
 21 22  2  0
 22 41  1  0
 23 22  1  0
 23 26  1  0
 24 21  1  0
 24 25  1  0
 25 23  2  0
 26 27  1  0
 27 28  2  0
 29 32  1  0
 29 28  1  0
 30 29  2  0
 31 30  1  0
 31 26  2  0
 32 33  1  0
 33 34  1  0
 34 35  2  0
 36 35  1  0
 36 40  1  0
 37 36  2  0
 38 33  2  0
 38 37  1  0
 39 38  1  0
 41 42  1  0
 42 45  1  0
 42 44  1  0
 43 41  2  0
 46 47  1  0
 46 21  1  0
 48 46  1  0
 49 50  1  0
 49  1  1  0
 50 51  1  0
 52 53  1  0
 52 50  1  0
 54 56  1  0
 54 53  1  0
 55 66  2  0
 56 61  1  0
 57 65  1  0
 57 67  1  0
 58 64  1  0
 58 60  1  0
 59 65  1  0
 60 59  1  0
 61 60  2  0
 62 63  1  0
 62 56  2  0
 63 58  2  0
 64 57  1  0
 65 55  1  0
 67 69  2  0
 68 67  1  0
 70 68  1  0
 71 80  2  0
 71 76  1  0
 72 68  1  0
 72 76  1  0
 73 72  1  0
 74 75  1  0
 74 73  1  0
 75 71  1  0
 76 77  2  0
 77 78  1  0
 79 78  2  0
 80 79  1  0
 81 55  1  0
 81 86  1  0
 81 82  1  0
 82 85  1  1
 82 83  1  0
 84 82  1  0
 86 89  1  0
 87 91  1  0
 87 86  1  0
 88 87  2  0
 91 90  1  0
 93 91  1  0
 93 94  1  0
 93 92  1  0
M  ISO  4  11 100  19 100  53 101  54 101
M  END
>  <TORSDO>  (84) 
F 26

>  <SCORE>  (84) 
-2.703

>  <name>  (84) 
86

>  <ligand_id>  (84) 
86

>  <original_smiles>  (84) 
[H]c1c([H])c([H])c2c(c1[H])C([H])([H])C([H])([H])C([H])([H])C2([H])N([H])C(=O)C1([H])N(C(=O)C([H])(N([H])C(=O)C([H])(N([H])C([H])([H])[H])C([H])([H])[H])C(C([H])([H])[H])(C([H])([H])[H])C([H])([H])[H])C([H])([H])c2c([H])c(OC([H])([H])C([H])([H])N([H])C([H])([H])C([H])([H])N([H])C([H])([H])C([H])([H])[N+]([H])([H])C([H])([H])C([H])([H])N([H])C(=O)N3C([H])([H])C([H])([H])C([H])([H])C([H])(n4nc(-c5c([H])c([H])c(Oc6c([H])c([H])c(F)c([H])c6F)c([H])c5[H])c(C(=O)N([H])[H])c4N([H])[H])C3([H])[H])c([H])c([H])c2C1([H])[H]

>  <smiles>  (84) 
[H]c1c([H])c([H])c2c(c1[H])C([H])([H])C([H])([H])C([H])([H])C2([H])N([H])C(=O)C1([H])N(C(=O)C([H])(N([H])C(=O)C([H])(N([H])C([H])([H])[H])C([H])([H])[H])C(C([H])([H])[H])(C([H])([H])[H])C([H])([H])[H])C([H])([H])c2c([H])c(OC([H])([H])C([H])([H])N([H])C([H])([H])C([H])([H])N([H])C([H])([H])C([H])([H])[N+]([H])([H])C([H])([H])C([H])([H])N([H])C(=O)N3C([H])([H])C([H])([H])C([H])([H])C([H])(n4nc(-c5c([H])c([H])c(Oc6c([H])c([H])c(F)c([H])c6F)c([H])c5[H])c(C(=O)N([H])[H])c4N([H])[H])C3([H])[H])c([H])c([H])c2C1([H])[H]

$$$$
87:0:0
     RDKit          3D

 90 97  0  0  1  0  0  0  0  0999 V2000
  -29.5390  -21.8770   20.7790 C   0  0  0  0  0  2  0  0  0  0  0  0
  -28.9860  -22.9380   19.9220 N   0  0  0  0  0  0  0  0  0  0  0  0
  -28.0060  -22.7400   19.7320 H   0  0  0  0  0  0  0  0  0  0  0  0
  -29.0760  -24.2850   20.5160 C   0  0  0  0  0  2  0  0  0  0  0  0
  -28.5320  -25.3730   19.5460 C   0  0  0  0  0  2  0  0  0  0  0  0
  -28.4140  -26.6850   20.1510 O   0  0  0  0  0  0  0  0  0  0  0  0
  -24.6120  -31.8920   23.2330 C   0  0  0  0  0  0  0  0  0  0  0  0
  -27.2220  -27.4040   20.1310 C   0  0  0  0  0  0  0  0  0  0  0  0
  -23.3930  -30.4930   21.6020 C   0  0  0  0  0  3  0  0  0  0  0  0
  -24.8320  -28.9530   20.1700 C   0  0  0  0  0  0  0  0  0  0  0  0
  -25.9250  -30.8310   21.3950 C   0  0  0  0  0  2  0  0  0  0  0  0
  -25.9990  -29.4590   20.7520 C   0  0  0  0  0  0  0  0  0  0  0  0
  -27.1920  -28.6920   20.7320 C   0  0  0  0  0  3  0  0  0  0  0  0
  -26.0220  -26.9270   19.5460 C   0  0  0  0  0  3  0  0  0  0  0  0
  -24.8400  -27.6860   19.5680 C   0  0  0  0  0  3  0  0  0  0  0  0
  -23.5930  -29.8170   20.2220 C   0  0  0  0  0  2  0  0  0  0  0  0
  -24.6620  -31.0870   22.1340 N   0  0  0  0  0  0  0  0  0  0  0  0
  -23.5340  -32.1690   23.7760 O   0  0  0  0  0  0  0  0  0  0  0  0
  -22.7460  -29.4710   22.5660 C   0  0  0  0  0  0  0  0  0  0  0  0
  -21.4210  -29.2910   22.4480 N   0  0  0  0  0  0  0  0  0  0  0  0
  -23.4340  -28.8450   23.3770 O   0  0  0  0  0  0  0  0  0  0  0  0
  -20.9260  -29.8490   21.7650 H   0  0  0  0  0  0  0  0  0  0  0  0
  -18.0480  -28.0970   22.9610 C   0  0  0  0  0  0  0  0  0  0  0  0
  -20.6070  -28.3560   23.2240 C   0  0  0  0  0  3  0  0  0  0  0  0
  -20.7080  -26.9220   22.6550 C   0  0  0  0  0  2  0  0  0  0  0  0
  -19.6030  -26.5950   21.6450 C   0  0  0  0  0  2  0  0  0  0  0  0
  -18.2230  -26.7440   22.2920 C   0  0  0  0  0  2  0  0  0  0  0  0
  -19.1670  -28.8610   23.3840 C   0  0  0  0  0  0  0  0  0  0  0  0
  -18.9500  -30.1280   23.9680 C   0  0  0  0  0  3  0  0  0  0  0  0
  -17.6460  -30.6300   24.1340 C   0  0  0  0  0  3  0  0  0  0  0  0
  -16.5400  -29.8630   23.7270 C   0  0  0  0  0  3  0  0  0  0  0  0
  -16.7420  -28.5980   23.1460 C   0  0  0  0  0  3  0  0  0  0  0  0
  -25.9020  -32.5240   23.8410 C   0  0  0  0  0  3  0  0  0  0  0  0
  -26.4360  -31.7460   25.1070 C   0  0  1  0  0  0  0  0  0  0  0  0
  -25.3560  -31.5000   26.1850 C   0  0  0  0  0  1  0  0  0  0  0  0
  -27.0170  -30.3710   24.7010 C   0  0  0  0  0  1  0  0  0  0  0  0
  -27.5930  -32.5380   25.7590 C   0  0  0  0  0  1  0  0  0  0  0  0
  -25.5920  -33.9190   24.1820 N   0  0  0  0  0  0  0  0  0  0  0  0
  -25.9100  -34.9750   23.4220 C   0  0  0  0  0  0  0  0  0  0  0  0
  -26.5650  -34.8790   22.3810 O   0  0  0  0  0  0  0  0  0  0  0  0
  -25.0060  -34.0660   24.9900 H   0  0  0  0  0  0  0  0  0  0  0  0
  -24.1650  -36.7580   23.1040 C   0  0  0  0  0  1  0  0  0  0  0  0
  -25.4220  -36.3590   23.8920 C   0  0  0  0  0  3  0  0  0  0  0  0
  -27.5690  -37.2520   24.6830 C   0  0  0  0  0  1  0  0  0  0  0  0
  -26.4460  -37.4190   23.7640 N   0  0  0  0  0  0  0  0  0  0  0  0
  -26.0390  -38.3360   23.9250 H   0  0  0  0  0  0  0  0  0  0  0  0
  -29.2780  -20.4450   20.2060 C   0  0  0  0  0  2  0  0  0  0  0  0
  -29.9590  -19.3610   20.9710 N   0  0  0  0  0  4  0  0  0  0  0  0
  -30.9530  -19.4810   20.8660 H   0  0  0  0  0  0  0  0  0  0  0  0
  -29.7380  -19.4840   21.9470 H   0  0  0  0  0  0  0  0  0  0  0  0
  -29.5950  -17.9640   20.5850 C   0  0  0  0  0  2  0  0  0  0  0  0
  -30.3920  -16.8790   21.3710 C   0  0  0  0  0  2  0  0  0  0  0  0
  -30.6370  -14.4980   20.5150 C   0  0  0  0  0  0  0  0  0  0  0  0
  -30.3390  -12.3450   19.3390 C   0  0  0  0  0  2  0  0  0  0  0  0
  -29.3830  -12.5410   18.1440 C   0  0  0  0  0  2  0  0  0  0  0  0
  -27.9140  -12.3960   18.5870 C   0  0  0  0  0  2  0  0  0  0  0  0
  -27.5840  -13.2320   19.8520 C   0  0  0  0  0  3  0  0  0  0  0  0
  -28.6470  -13.0070   20.9500 C   0  0  0  0  0  2  0  0  0  0  0  0
  -29.9660  -13.3220   20.3740 N   0  0  0  0  0  0  0  0  0  0  0  0
  -31.7520  -14.6960   20.0290 O   0  0  0  0  0  0  0  0  0  0  0  0
  -29.9470  -15.4910   21.1130 N   0  0  0  0  0  0  0  0  0  0  0  0
  -29.0300  -15.2400   21.4510 H   0  0  0  0  0  0  0  0  0  0  0  0
  -25.1920  -13.8430   20.5770 C   0  0  0  0  0  0  0  0  0  0  0  0
  -24.1240  -13.0710   20.9510 C   0  0  0  0  0  0  0  0  0  0  0  0
  -24.5820  -11.7190   20.9130 C   0  0  0  0  0  0  0  0  0  0  0  0
  -26.2340  -12.9600   20.3380 N   0  0  0  0  0  0  0  0  0  0  0  0
  -25.8700  -11.6770   20.5970 N   0  0  0  0  0  0  0  0  0  0  0  0
  -23.8550  -10.4580   21.1020 C   0  0  0  0  0  0  0  0  0  0  0  0
  -24.3090   -9.4710   22.0050 C   0  0  0  0  0  3  0  0  0  0  0  0
  -23.5820   -8.2740   22.1830 C   0  0  0  0  0  3  0  0  0  0  0  0
  -22.3870   -8.0560   21.4570 C   0  0  0  0  0  0  0  0  0  0  0  0
  -21.9510   -9.0310   20.5430 C   0  0  0  0  0  3  0  0  0  0  0  0
  -22.6780  -10.2190   20.3630 C   0  0  0  0  0  3  0  0  0  0  0  0
  -21.6280   -6.9130   21.5460 O   0  0  0  0  0  0  0  0  0  0  0  0
  -21.6290   -6.1360   22.6770 C   0  0  0  0  0  0  0  0  0  0  0  0
  -21.2830   -6.6610   23.9410 C   0  0  0  0  0  3  0  0  0  0  0  0
  -21.2290   -5.8110   25.0640 C   0  0  0  0  0  3  0  0  0  0  0  0
  -21.5080   -4.4400   24.9250 C   0  0  0  0  0  0  0  0  0  0  0  0
  -21.8470   -3.9130   23.6660 C   0  0  0  0  0  3  0  0  0  0  0  0
  -21.9040   -4.7600   22.5440 C   0  0  0  0  0  0  0  0  0  0  0  0
  -22.2100   -4.2450   21.3290 F   0  0  0  0  0  0  0  0  0  0  0  0
  -21.4480   -3.6210   26.0020 F   0  0  0  0  0  0  0  0  0  0  0  0
  -22.7290  -13.5510   21.2350 C   0  0  0  0  0  0  0  0  0  0  0  0
  -22.0070  -12.8530   22.1040 N   0  0  0  0  0  0  0  0  0  0  0  0
  -22.2890  -14.5790   20.7200 O   0  0  0  0  0  0  0  0  0  0  0  0
  -22.3760  -12.0210   22.5410 H   0  0  0  0  0  0  0  0  0  0  0  0
  -21.0720  -13.1560   22.3370 H   0  0  0  0  0  0  0  0  0  0  0  0
  -25.3580  -15.2130   20.4010 N   0  0  0  0  0  0  0  0  0  0  0  0
  -24.5890  -15.8670   20.5040 H   0  0  0  0  0  0  0  0  0  0  0  0
  -26.1980  -15.6450   20.0380 H   0  0  0  0  0  0  0  0  0  0  0  0
  2  4  1  0
  2  1  1  0
  3  2  1  0
  5  6  1  0
  5  4  1  0
  7 18  2  0
  8  6  1  0
  8 13  1  0
  9 17  1  0
  9 19  1  0
 10 16  1  0
 10 12  1  0
 11 17  1  0
 12 11  1  0
 13 12  2  0
 14 15  1  0
 14  8  2  0
 15 10  2  0
 16  9  1  0
 17  7  1  0
 19 21  2  0
 20 19  1  0
 22 20  1  0
 23 32  2  0
 23 28  1  0
 24 20  1  0
 24 28  1  0
 25 24  1  0
 26 27  1  0
 26 25  1  0
 27 23  1  0
 28 29  2  0
 29 30  1  0
 31 30  2  0
 32 31  1  0
 33  7  1  0
 33 38  1  0
 33 34  1  0
 34 37  1  1
 34 35  1  0
 36 34  1  0
 38 41  1  0
 39 43  1  0
 39 38  1  0
 40 39  2  0
 43 42  1  0
 45 43  1  0
 45 46  1  0
 45 44  1  0
 47  1  1  0
 47 48  1  0
 48 50  1  0
 49 48  1  0
 51 48  1  0
 51 52  1  0
 53 61  1  0
 54 59  1  0
 55 56  1  0
 55 54  1  0
 57 56  1  0
 57 66  1  0
 57 58  1  0
 59 53  1  0
 59 58  1  0
 60 53  2  0
 61 52  1  0
 61 62  1  0
 63 64  2  0
 64 83  1  0
 65 64  1  0
 65 68  1  0
 66 63  1  0
 66 67  1  0
 67 65  2  0
 68 69  1  0
 69 70  2  0
 71 74  1  0
 71 70  1  0
 72 71  2  0
 73 72  1  0
 73 68  2  0
 74 75  1  0
 75 76  1  0
 76 77  2  0
 78 77  1  0
 78 82  1  0
 79 78  2  0
 80 75  2  0
 80 79  1  0
 81 80  1  0
 83 84  1  0
 84 87  1  0
 84 86  1  0
 85 83  2  0
 88 89  1  0
 88 63  1  0
 90 88  1  0
M  ISO  4   5 101   6 101  53 100  61 100
M  END
>  <TORSDO>  (85) 
F 23

>  <SCORE>  (85) 
-12.740

>  <name>  (85) 
87

>  <ligand_id>  (85) 
87

>  <original_smiles>  (85) 
[H]c1c([H])c([H])c2c(c1[H])C([H])([H])C([H])([H])C([H])([H])C2([H])N([H])C(=O)C1([H])N(C(=O)C([H])(N([H])C(=O)C([H])(N([H])C([H])([H])[H])C([H])([H])[H])C(C([H])([H])[H])(C([H])([H])[H])C([H])([H])[H])C([H])([H])c2c([H])c(OC([H])([H])C([H])([H])N([H])C([H])([H])C([H])([H])[N+]([H])([H])C([H])([H])C([H])([H])N([H])C(=O)N3C([H])([H])C([H])([H])C([H])([H])C([H])(n4nc(-c5c([H])c([H])c(Oc6c([H])c([H])c(F)c([H])c6F)c([H])c5[H])c(C(=O)N([H])[H])c4N([H])[H])C3([H])[H])c([H])c([H])c2C1([H])[H]

>  <smiles>  (85) 
[H]c1c([H])c([H])c2c(c1[H])C([H])([H])C([H])([H])C([H])([H])C2([H])N([H])C(=O)C1([H])N(C(=O)C([H])(N([H])C(=O)C([H])(N([H])C([H])([H])[H])C([H])([H])[H])C(C([H])([H])[H])(C([H])([H])[H])C([H])([H])[H])C([H])([H])c2c([H])c(OC([H])([H])C([H])([H])N([H])C([H])([H])C([H])([H])[N+]([H])([H])C([H])([H])C([H])([H])N([H])C(=O)N3C([H])([H])C([H])([H])C([H])([H])C([H])(n4nc(-c5c([H])c([H])c(Oc6c([H])c([H])c(F)c([H])c6F)c([H])c5[H])c(C(=O)N([H])[H])c4N([H])[H])C3([H])[H])c([H])c([H])c2C1([H])[H]

$$$$
