0:0:0
     RDKit          3D

 94101  0  0  1  0  0  0  0  0999 V2000
  -26.6810  -22.1530   17.3220 N   0  0  0  0  0  4  0  0  0  0  0  0
  -26.8630  -21.1860   17.0910 H   0  0  0  0  0  0  0  0  0  0  0  0
  -26.3760  -22.5950   16.4700 H   0  0  0  0  0  0  0  0  0  0  0  0
  -25.5510  -22.1880   18.2870 C   0  0  0  0  0  2  0  0  0  0  0  0
  -25.8850  -21.5160   19.6270 C   0  0  0  0  0  2  0  0  0  0  0  0
  -26.4150  -20.2270   19.3290 O   0  0  0  0  0  0  0  0  0  0  0  0
  -27.3650  -19.7820   20.2840 C   0  0  0  0  0  2  0  0  0  0  0  0
  -27.7630  -18.3410   19.9350 C   0  0  0  0  0  2  0  0  0  0  0  0
  -28.9880  -17.8500   20.7240 C   0  0  0  0  0  2  0  0  0  0  0  0
  -29.0930  -16.3180   20.7070 C   0  0  0  0  0  2  0  0  0  0  0  0
  -30.4810  -15.7550   21.0690 C   0  0  0  0  0  2  0  0  0  0  0  0
  -31.6040  -13.8550   19.8810 C   0  0  0  0  0  0  0  0  0  0  0  0
  -31.0490  -11.6320   19.0050 C   0  0  0  0  0  2  0  0  0  0  0  0
  -30.0960  -11.7920   17.8050 C   0  0  0  0  0  2  0  0  0  0  0  0
  -28.6270  -11.8490   18.2740 C   0  0  0  0  0  2  0  0  0  0  0  0
  -28.3990  -12.8440   19.4430 C   0  0  0  0  0  3  0  0  0  0  0  0
  -29.4680  -12.6530   20.5400 C   0  0  0  0  0  2  0  0  0  0  0  0
  -30.7950  -12.7610   19.9130 N   0  0  0  0  0  0  0  0  0  0  0  0
  -32.7350  -13.8400   19.3990 O   0  0  0  0  0  0  0  0  0  0  0  0
  -31.0010  -15.0420   19.9090 N   0  0  0  0  0  0  0  0  0  0  0  0
  -31.4770  -15.6720   19.2800 H   0  0  0  0  0  0  0  0  0  0  0  0
  -26.1170  -13.7500   20.2350 C   0  0  0  0  0  0  0  0  0  0  0  0
  -24.9830  -13.1240   20.6700 C   0  0  0  0  0  0  0  0  0  0  0  0
  -25.2700  -11.7240   20.6270 C   0  0  0  0  0  0  0  0  0  0  0  0
  -27.0410  -12.7460   19.9790 N   0  0  0  0  0  0  0  0  0  0  0  0
  -26.5300  -11.5200   20.2630 N   0  0  0  0  0  0  0  0  0  0  0  0
  -24.3990  -10.5650   20.8540 C   0  0  0  0  0  0  0  0  0  0  0  0
  -24.7400   -9.5480   21.7730 C   0  0  0  0  0  3  0  0  0  0  0  0
  -23.8720   -8.4540   21.9830 C   0  0  0  0  0  3  0  0  0  0  0  0
  -22.6510   -8.3710   21.2740 C   0  0  0  0  0  0  0  0  0  0  0  0
  -22.3300   -9.3740   20.3420 C   0  0  0  0  0  3  0  0  0  0  0  0
  -23.1960  -10.4570   20.1290 C   0  0  0  0  0  3  0  0  0  0  0  0
  -21.7570   -7.3350   21.3950 O   0  0  0  0  0  0  0  0  0  0  0  0
  -21.6540   -6.6100   22.5550 C   0  0  0  0  0  0  0  0  0  0  0  0
  -21.3560   -7.2210   23.7920 C   0  0  0  0  0  3  0  0  0  0  0  0
  -21.1910   -6.4310   24.9470 C   0  0  0  0  0  3  0  0  0  0  0  0
  -21.3110   -5.0310   24.8660 C   0  0  0  0  0  0  0  0  0  0  0  0
  -21.6000   -4.4190   23.6340 C   0  0  0  0  0  3  0  0  0  0  0  0
  -21.7700   -5.2070   22.4800 C   0  0  0  0  0  0  0  0  0  0  0  0
  -22.0300   -4.6120   21.2920 F   0  0  0  0  0  0  0  0  0  0  0  0
  -21.1420   -4.2690   25.9720 F   0  0  0  0  0  0  0  0  0  0  0  0
  -23.6710  -13.7750   21.0030 C   0  0  0  0  0  0  0  0  0  0  0  0
  -22.9080  -13.1910   21.9200 N   0  0  0  0  0  0  0  0  0  0  0  0
  -23.3370  -14.8400   20.4830 O   0  0  0  0  0  0  0  0  0  0  0  0
  -23.1870  -12.3290   22.3630 H   0  0  0  0  0  0  0  0  0  0  0  0
  -22.0320  -13.6140   22.1860 H   0  0  0  0  0  0  0  0  0  0  0  0
  -26.4190  -15.0880   20.0090 N   0  0  0  0  0  0  0  0  0  0  0  0
  -25.7280  -15.8230   20.1110 H   0  0  0  0  0  0  0  0  0  0  0  0
  -27.2970  -15.4170   19.6310 H   0  0  0  0  0  0  0  0  0  0  0  0
  -27.9750  -22.7590   17.7340 C   0  0  0  0  0  2  0  0  0  0  0  0
  -27.8370  -24.2110   18.2290 C   0  0  0  0  0  2  0  0  0  0  0  0
  -29.1590  -24.9780   18.4120 C   0  0  0  0  0  2  0  0  0  0  0  0
  -28.9340  -26.4800   18.6560 C   0  0  0  0  0  2  0  0  0  0  0  0
  -28.4370  -26.7300   19.9730 O   0  0  0  0  0  0  0  0  0  0  0  0
  -24.7330  -31.7440   23.4110 C   0  0  0  0  0  0  0  0  0  0  0  0
  -27.2740  -27.4580   20.0460 C   0  0  0  0  0  0  0  0  0  0  0  0
  -23.4960  -30.4800   21.6810 C   0  0  0  0  0  3  0  0  0  0  0  0
  -24.9130  -28.9970   20.1710 C   0  0  0  0  0  0  0  0  0  0  0  0
  -26.0300  -30.7800   21.5190 C   0  0  0  0  0  2  0  0  0  0  0  0
  -26.0780  -29.4490   20.8050 C   0  0  0  0  0  0  0  0  0  0  0  0
  -27.2580  -28.6780   20.7570 C   0  0  0  0  0  3  0  0  0  0  0  0
  -26.0870  -27.0160   19.4210 C   0  0  0  0  0  3  0  0  0  0  0  0
  -24.9070  -27.7730   19.4880 C   0  0  0  0  0  3  0  0  0  0  0  0
  -23.6880  -29.8740   20.2670 C   0  0  0  0  0  2  0  0  0  0  0  0
  -24.7690  -31.0140   22.2620 N   0  0  0  0  0  0  0  0  0  0  0  0
  -23.6560  -32.0140   23.9620 O   0  0  0  0  0  0  0  0  0  0  0  0
  -22.8130  -29.4200   22.5770 C   0  0  0  0  0  0  0  0  0  0  0  0
  -21.4870  -29.2820   22.4270 N   0  0  0  0  0  0  0  0  0  0  0  0
  -23.4760  -28.7280   23.3540 O   0  0  0  0  0  0  0  0  0  0  0  0
  -21.0190  -29.8870   21.7670 H   0  0  0  0  0  0  0  0  0  0  0  0
  -18.0820  -28.1500   22.8100 C   0  0  0  0  0  0  0  0  0  0  0  0
  -20.6370  -28.3250   23.1360 C   0  0  0  0  0  3  0  0  0  0  0  0
  -20.7140  -26.9250   22.4850 C   0  0  0  0  0  2  0  0  0  0  0  0
  -19.6240  -26.6880   21.4360 C   0  0  0  0  0  2  0  0  0  0  0  0
  -18.2350  -26.8350   22.0650 C   0  0  0  0  0  2  0  0  0  0  0  0
  -19.2100  -28.8590   23.2960 C   0  0  0  0  0  0  0  0  0  0  0  0
  -19.0150  -30.0960   23.9500 C   0  0  0  0  0  3  0  0  0  0  0  0
  -17.7220  -30.6220   24.1230 C   0  0  0  0  0  3  0  0  0  0  0  0
  -16.6050  -29.9080   23.6540 C   0  0  0  0  0  3  0  0  0  0  0  0
  -16.7840  -28.6740   23.0030 C   0  0  0  0  0  3  0  0  0  0  0  0
  -26.0350  -32.2960   24.0720 C   0  0  0  0  0  3  0  0  0  0  0  0
  -26.5330  -31.4290   25.2920 C   0  0  1  0  0  0  0  0  0  0  0  0
  -25.4360  -31.1470   26.3460 C   0  0  0  0  0  1  0  0  0  0  0  0
  -27.0800  -30.0670   24.8050 C   0  0  0  0  0  1  0  0  0  0  0  0
  -27.7080  -32.1450   25.9970 C   0  0  0  0  0  1  0  0  0  0  0  0
  -25.7660  -33.6790   24.4860 N   0  0  0  0  0  0  0  0  0  0  0  0
  -26.1390  -34.7650   23.7960 C   0  0  0  0  0  0  0  0  0  0  0  0
  -26.8150  -34.7050   22.7660 O   0  0  0  0  0  0  0  0  0  0  0  0
  -25.1660  -33.8010   25.2880 H   0  0  0  0  0  0  0  0  0  0  0  0
  -24.4630  -36.6200   23.5390 C   0  0  0  0  0  1  0  0  0  0  0  0
  -25.6870  -36.1360   24.3330 C   0  0  0  0  0  3  0  0  0  0  0  0
  -27.8410  -36.9030   25.2240 C   0  0  0  0  0  1  0  0  0  0  0  0
  -26.7490  -37.1630   24.2900 N   0  0  0  0  0  0  0  0  0  0  0  0
  -26.3700  -38.0830   24.4960 H   0  0  0  0  0  0  0  0  0  0  0  0
  1 50  1  0
  1  4  1  0
  2  1  1  0
  3  1  1  0
  4  5  1  0
  6  5  1  0
  6  7  1  0
  8  7  1  0
  8  9  1  0
 10  9  1  0
 10 11  1  0
 12 20  1  0
 12 18  1  0
 13 18  1  0
 14 15  1  0
 14 13  1  0
 16 15  1  0
 16 25  1  0
 16 17  1  0
 18 17  1  0
 19 12  2  0
 20 11  1  0
 21 20  1  0
 22 23  2  0
 23 42  1  0
 24 23  1  0
 24 27  1  0
 25 22  1  0
 25 26  1  0
 26 24  2  0
 27 28  1  0
 28 29  2  0
 30 33  1  0
 30 29  1  0
 31 30  2  0
 32 31  1  0
 32 27  2  0
 33 34  1  0
 34 35  1  0
 35 36  2  0
 37 36  1  0
 37 41  1  0
 38 37  2  0
 39 34  2  0
 39 38  1  0
 40 39  1  0
 42 43  1  0
 43 46  1  0
 43 45  1  0
 44 42  2  0
 47 48  1  0
 47 22  1  0
 49 47  1  0
 50 51  1  0
 51 52  1  0
 52 53  1  0
 53 54  1  0
 54 56  1  0
 55 66  2  0
 56 61  1  0
 57 65  1  0
 57 67  1  0
 58 64  1  0
 58 60  1  0
 59 65  1  0
 60 59  1  0
 61 60  2  0
 62 63  1  0
 62 56  2  0
 63 58  2  0
 64 57  1  0
 65 55  1  0
 67 69  2  0
 68 67  1  0
 70 68  1  0
 71 80  2  0
 71 76  1  0
 72 68  1  0
 72 76  1  0
 73 72  1  0
 74 75  1  0
 74 73  1  0
 75 71  1  0
 76 77  2  0
 77 78  1  0
 79 78  2  0
 80 79  1  0
 81 55  1  0
 81 86  1  0
 81 82  1  0
 82 85  1  1
 82 83  1  0
 84 82  1  0
 86 89  1  0
 87 91  1  0
 87 86  1  0
 88 87  2  0
 91 90  1  0
 93 91  1  0
 93 94  1  0
 93 92  1  0
M  ISO  4  12 100  20 100  53 101  54 101
M  END
>  <TORSDO>  (1) 
F 28

>  <SCORE>  (1) 
-9.308

>  <name>  (1) 
0

>  <ligand_id>  (1) 
0

>  <original_smiles>  (1) 
[H]c1c([H])c([H])c2c(c1[H])C([H])([H])C([H])([H])C([H])([H])C2([H])N([H])C(=O)C1([H])N(C(=O)C([H])(N([H])C(=O)C([H])(N([H])C([H])([H])[H])C([H])([H])[H])C(C([H])([H])[H])(C([H])([H])[H])C([H])([H])[H])C([H])([H])c2c([H])c(OC([H])([H])C([H])([H])C([H])([H])C([H])([H])[N+]([H])([H])C([H])([H])C([H])([H])OC([H])([H])C([H])([H])C([H])([H])C([H])([H])C([H])([H])N([H])C(=O)N3C([H])([H])C([H])([H])C([H])([H])C([H])(n4nc(-c5c([H])c([H])c(Oc6c([H])c([H])c(F)c([H])c6F)c([H])c5[H])c(C(=O)N([H])[H])c4N([H])[H])C3([H])[H])c([H])c([H])c2C1([H])[H]

>  <smiles>  (1) 
[H]c1c([H])c([H])c2c(c1[H])C([H])([H])C([H])([H])C([H])([H])C2([H])N([H])C(=O)C1([H])N(C(=O)C([H])(N([H])C(=O)C([H])(N([H])C([H])([H])[H])C([H])([H])[H])C(C([H])([H])[H])(C([H])([H])[H])C([H])([H])[H])C([H])([H])c2c([H])c(OC([H])([H])C([H])([H])C([H])([H])C([H])([H])[N+]([H])([H])C([H])([H])C([H])([H])OC([H])([H])C([H])([H])C([H])([H])C([H])([H])C([H])([H])N([H])C(=O)N3C([H])([H])C([H])([H])C([H])([H])C([H])(n4nc(-c5c([H])c([H])c(Oc6c([H])c([H])c(F)c([H])c6F)c([H])c5[H])c(C(=O)N([H])[H])c4N([H])[H])C3([H])[H])c([H])c([H])c2C1([H])[H]

$$$$
1:0:0
     RDKit          3D

 97104  0  0  1  0  0  0  0  0999 V2000
  -30.3120  -22.3500   18.6790 C   0  0  0  0  0  2  0  0  0  0  0  0
  -28.9200  -22.2350   18.0370 C   0  0  0  0  0  2  0  0  0  0  0  0
  -28.5250  -20.7790   17.6880 C   0  0  0  0  0  2  0  0  0  0  0  0
  -27.6930  -20.0470   18.7620 C   0  0  0  0  0  2  0  0  0  0  0  0
  -28.3000  -19.9520   20.1020 N   0  0  0  0  0  0  0  0  0  0  0  0
  -27.5810  -19.7220   20.7870 H   0  0  0  0  0  0  0  0  0  0  0  0
  -29.1150  -17.7300   20.5580 C   0  0  0  0  0  0  0  0  0  0  0  0
  -29.3560  -19.0190   20.2370 N   0  0  0  0  0  0  0  0  0  0  0  0
  -28.0360  -17.1770   20.3080 O   0  0  0  0  0  0  0  0  0  0  0  0
  -30.2780  -19.3920   20.4150 H   0  0  0  0  0  0  0  0  0  0  0  0
  -30.1990  -16.9590   21.3400 C   0  0  0  0  0  2  0  0  0  0  0  0
  -30.6200  -14.5880   20.6180 C   0  0  0  0  0  0  0  0  0  0  0  0
  -30.3750  -12.4640   19.3830 C   0  0  0  0  0  2  0  0  0  0  0  0
  -29.4630  -12.7270   18.1660 C   0  0  0  0  0  2  0  0  0  0  0  0
  -27.9710  -12.6020   18.5410 C   0  0  0  0  0  2  0  0  0  0  0  0
  -27.6130  -13.3470   19.8550 C   0  0  0  0  0  3  0  0  0  0  0  0
  -28.6460  -13.0540   20.9650 C   0  0  0  0  0  2  0  0  0  0  0  0
  -29.9810  -13.3980   20.4480 N   0  0  0  0  0  0  0  0  0  0  0  0
  -31.7040  -14.8520   20.0870 O   0  0  0  0  0  0  0  0  0  0  0  0
  -29.9520  -15.5070   21.3370 N   0  0  0  0  0  0  0  0  0  0  0  0
  -29.0790  -15.2070   21.7420 H   0  0  0  0  0  0  0  0  0  0  0  0
  -25.1800  -13.9030   20.4780 C   0  0  0  0  0  0  0  0  0  0  0  0
  -24.1150  -13.1080   20.8200 C   0  0  0  0  0  0  0  0  0  0  0  0
  -24.6040  -11.7670   20.8060 C   0  0  0  0  0  0  0  0  0  0  0  0
  -26.2510  -13.0430   20.2870 N   0  0  0  0  0  0  0  0  0  0  0  0
  -25.9030  -11.7510   20.5330 N   0  0  0  0  0  0  0  0  0  0  0  0
  -23.8920  -10.4900   20.9900 C   0  0  0  0  0  0  0  0  0  0  0  0
  -24.3210   -9.5370   21.9410 C   0  0  0  0  0  3  0  0  0  0  0  0
  -23.6170   -8.3250   22.1090 C   0  0  0  0  0  3  0  0  0  0  0  0
  -22.4680   -8.0580   21.3270 C   0  0  0  0  0  0  0  0  0  0  0  0
  -22.0580   -8.9990   20.3670 C   0  0  0  0  0  3  0  0  0  0  0  0
  -22.7610  -10.2040   20.1980 C   0  0  0  0  0  3  0  0  0  0  0  0
  -21.7320   -6.9000   21.4020 O   0  0  0  0  0  0  0  0  0  0  0  0
  -21.6750   -6.1580   22.5550 C   0  0  0  0  0  0  0  0  0  0  0  0
  -21.2070   -6.7060   23.7680 C   0  0  0  0  0  3  0  0  0  0  0  0
  -21.0970   -5.8930   24.9120 C   0  0  0  0  0  3  0  0  0  0  0  0
  -21.4460   -4.5310   24.8450 C   0  0  0  0  0  0  0  0  0  0  0  0
  -21.9030   -3.9800   23.6340 C   0  0  0  0  0  3  0  0  0  0  0  0
  -22.0160   -4.7900   22.4920 C   0  0  0  0  0  0  0  0  0  0  0  0
  -22.4400   -4.2540   21.3230 F   0  0  0  0  0  0  0  0  0  0  0  0
  -21.3310   -3.7450   25.9410 F   0  0  0  0  0  0  0  0  0  0  0  0
  -22.6990  -13.5570   21.0510 C   0  0  0  0  0  0  0  0  0  0  0  0
  -21.9620  -12.8520   21.9050 N   0  0  0  0  0  0  0  0  0  0  0  0
  -22.2540  -14.5700   20.5160 O   0  0  0  0  0  0  0  0  0  0  0  0
  -22.3350  -12.0350   22.3680 H   0  0  0  0  0  0  0  0  0  0  0  0
  -21.0140  -13.1330   22.1000 H   0  0  0  0  0  0  0  0  0  0  0  0
  -25.3240  -15.2760   20.3090 N   0  0  0  0  0  0  0  0  0  0  0  0
  -24.5670  -15.9260   20.4800 H   0  0  0  0  0  0  0  0  0  0  0  0
  -26.2010  -15.7440   20.0880 H   0  0  0  0  0  0  0  0  0  0  0  0
  -30.6210  -23.7190   19.3080 C   0  0  0  0  0  2  0  0  0  0  0  0
  -29.9060  -23.8910   20.5970 N   0  0  0  0  0  4  0  0  0  0  0  0
  -29.8430  -22.9760   21.0140 H   0  0  0  0  0  0  0  0  0  0  0  0
  -28.9620  -24.1990   20.4280 H   0  0  0  0  0  0  0  0  0  0  0  0
  -30.5760  -24.7640   21.5910 C   0  0  0  0  0  2  0  0  0  0  0  0
  -29.8190  -26.0740   21.9000 C   0  0  0  0  0  2  0  0  0  0  0  0
  -29.6430  -27.0330   20.7080 C   0  0  0  0  0  2  0  0  0  0  0  0
  -28.4360  -26.7170   20.0070 O   0  0  0  0  0  0  0  0  0  0  0  0
  -24.6220  -31.8860   23.2390 C   0  0  0  0  0  0  0  0  0  0  0  0
  -27.2970  -27.4940   20.1300 C   0  0  0  0  0  0  0  0  0  0  0  0
  -23.4050  -30.4850   21.5940 C   0  0  0  0  0  3  0  0  0  0  0  0
  -24.8640  -28.9540   20.1620 C   0  0  0  0  0  0  0  0  0  0  0  0
  -25.9240  -30.8590   21.3860 C   0  0  0  0  0  2  0  0  0  0  0  0
  -26.0140  -29.4860   20.7540 C   0  0  0  0  0  0  0  0  0  0  0  0
  -27.2220  -28.7640   20.7550 C   0  0  0  0  0  3  0  0  0  0  0  0
  -26.1260  -26.9680   19.5420 C   0  0  0  0  0  3  0  0  0  0  0  0
  -24.9110  -27.6850   19.5620 C   0  0  0  0  0  3  0  0  0  0  0  0
  -23.6130  -29.8030   20.2110 C   0  0  0  0  0  2  0  0  0  0  0  0
  -24.6660  -31.0920   22.1300 N   0  0  0  0  0  0  0  0  0  0  0  0
  -23.5440  -32.1530   23.7910 O   0  0  0  0  0  0  0  0  0  0  0  0
  -22.7630  -29.4620   22.5580 C   0  0  0  0  0  0  0  0  0  0  0  0
  -21.4380  -29.2840   22.4420 N   0  0  0  0  0  0  0  0  0  0  0  0
  -23.4560  -28.8320   23.3600 O   0  0  0  0  0  0  0  0  0  0  0  0
  -20.9410  -29.8460   21.7670 H   0  0  0  0  0  0  0  0  0  0  0  0
  -18.0660  -28.1010   22.9680 C   0  0  0  0  0  0  0  0  0  0  0  0
  -20.6260  -28.3450   23.2160 C   0  0  0  0  0  3  0  0  0  0  0  0
  -20.7180  -26.9170   22.6310 C   0  0  0  0  0  2  0  0  0  0  0  0
  -19.6040  -26.6050   21.6250 C   0  0  0  0  0  2  0  0  0  0  0  0
  -18.2290  -26.7530   22.2850 C   0  0  0  0  0  2  0  0  0  0  0  0
  -19.1910  -28.8540   23.3930 C   0  0  0  0  0  0  0  0  0  0  0  0
  -18.9870  -30.1160   23.9910 C   0  0  0  0  0  3  0  0  0  0  0  0
  -17.6860  -30.6220   24.1730 C   0  0  0  0  0  3  0  0  0  0  0  0
  -16.5750  -29.8650   23.7670 C   0  0  0  0  0  3  0  0  0  0  0  0
  -16.7660  -28.6050   23.1690 C   0  0  0  0  0  3  0  0  0  0  0  0
  -25.9130  -32.5140   23.8500 C   0  0  0  0  0  3  0  0  0  0  0  0
  -25.6110  -33.9090   24.1830 N   0  0  0  0  0  0  0  0  0  0  0  0
  -25.9480  -34.9620   23.4220 C   0  0  0  0  0  0  0  0  0  0  0  0
  -26.6140  -34.8580   22.3890 O   0  0  0  0  0  0  0  0  0  0  0  0
  -25.0180  -34.0670   24.9850 H   0  0  0  0  0  0  0  0  0  0  0  0
  -24.2290  -36.7640   23.0610 C   0  0  0  0  0  1  0  0  0  0  0  0
  -25.4620  -36.3510   23.8800 C   0  0  0  0  0  3  0  0  0  0  0  0
  -27.5980  -37.2230   24.7250 C   0  0  0  0  0  1  0  0  0  0  0  0
  -26.5000  -37.4010   23.7770 N   0  0  0  0  0  0  0  0  0  0  0  0
  -26.0970  -38.3220   23.9290 H   0  0  0  0  0  0  0  0  0  0  0  0
  -26.4470  -31.7370   25.1150 C   0  0  1  0  0  0  0  0  0  0  0  0
  -25.3700  -31.4930   26.1970 C   0  0  0  0  0  1  0  0  0  0  0  0
  -27.0240  -30.3600   24.7070 C   0  0  0  0  0  1  0  0  0  0  0  0
  -27.6060  -32.5290   25.7670 C   0  0  0  0  0  1  0  0  0  0  0  0
  1 50  1  0
  2  1  1  0
  3  2  1  0
  3  4  1  0
  4  5  1  0
  5  8  1  0
  5  6  1  0
  7 11  1  0
  8 10  1  0
  8  7  1  0
  9  7  2  0
 12 20  1  0
 13 18  1  0
 14 15  1  0
 14 13  1  0
 16 15  1  0
 16 25  1  0
 16 17  1  0
 18 12  1  0
 18 17  1  0
 19 12  2  0
 20 11  1  0
 20 21  1  0
 22 23  2  0
 23 42  1  0
 24 23  1  0
 24 27  1  0
 25 22  1  0
 25 26  1  0
 26 24  2  0
 27 28  1  0
 28 29  2  0
 30 33  1  0
 30 29  1  0
 31 30  2  0
 32 31  1  0
 32 27  2  0
 33 34  1  0
 34 35  1  0
 35 36  2  0
 37 36  1  0
 37 41  1  0
 38 37  2  0
 39 34  2  0
 39 38  1  0
 40 39  1  0
 42 43  1  0
 43 46  1  0
 43 45  1  0
 44 42  2  0
 47 22  1  0
 47 48  1  0
 49 47  1  0
 50 51  1  0
 51 52  1  0
 51 54  1  0
 53 51  1  0
 54 55  1  0
 56 55  1  0
 57 59  1  0
 57 56  1  0
 58 69  2  0
 59 64  1  0
 60 68  1  0
 60 70  1  0
 61 67  1  0
 61 63  1  0
 62 68  1  0
 63 64  2  0
 63 62  1  0
 65 66  1  0
 65 59  2  0
 66 61  2  0
 67 60  1  0
 68 58  1  0
 70 72  2  0
 71 70  1  0
 73 71  1  0
 74 83  2  0
 74 79  1  0
 75 71  1  0
 75 79  1  0
 76 75  1  0
 77 78  1  0
 77 76  1  0
 78 74  1  0
 79 80  2  0
 80 81  1  0
 82 81  2  0
 83 82  1  0
 84 58  1  0
 84 85  1  0
 84 94  1  0
 85 88  1  0
 86 90  1  0
 86 85  1  0
 87 86  2  0
 90 89  1  0
 92 90  1  0
 92 93  1  0
 92 91  1  0
 94 97  1  1
 94 95  1  0
 96 94  1  0
M  ISO  4  12 100  20 100  56 101  57 101
M  END
>  <TORSDO>  (2) 
F 27

>  <SCORE>  (2) 
-11.924

>  <name>  (2) 
1

>  <ligand_id>  (2) 
1

>  <original_smiles>  (2) 
[H]c1c([H])c([H])c2c(c1[H])C([H])([H])C([H])([H])C([H])([H])C2([H])N([H])C(=O)C1([H])N(C(=O)C([H])(N([H])C(=O)C([H])(N([H])C([H])([H])[H])C([H])([H])[H])C(C([H])([H])[H])(C([H])([H])[H])C([H])([H])[H])C([H])([H])c2c([H])c(OC([H])([H])C([H])([H])C([H])([H])[N+]([H])([H])C([H])([H])C([H])([H])C([H])([H])C([H])([H])C([H])([H])N([H])N([H])C(=O)C([H])([H])N([H])C(=O)N3C([H])([H])C([H])([H])C([H])([H])C([H])(n4nc(-c5c([H])c([H])c(Oc6c([H])c([H])c(F)c([H])c6F)c([H])c5[H])c(C(=O)N([H])[H])c4N([H])[H])C3([H])[H])c([H])c([H])c2C1([H])[H]

>  <smiles>  (2) 
[H]c1c([H])c([H])c2c(c1[H])C([H])([H])C([H])([H])C([H])([H])C2([H])N([H])C(=O)C1([H])N(C(=O)C([H])(N([H])C(=O)C([H])(N([H])C([H])([H])[H])C([H])([H])[H])C(C([H])([H])[H])(C([H])([H])[H])C([H])([H])[H])C([H])([H])c2c([H])c(OC([H])([H])C([H])([H])C([H])([H])[N+]([H])([H])C([H])([H])C([H])([H])C([H])([H])C([H])([H])C([H])([H])N([H])N([H])C(=O)C([H])([H])N([H])C(=O)N3C([H])([H])C([H])([H])C([H])([H])C([H])(n4nc(-c5c([H])c([H])c(Oc6c([H])c([H])c(F)c([H])c6F)c([H])c5[H])c(C(=O)N([H])[H])c4N([H])[H])C3([H])[H])c([H])c([H])c2C1([H])[H]

$$$$
2:0:0
     RDKit          3D

 97104  0  0  1  0  0  0  0  0999 V2000
  -32.8220  -25.0580   19.1470 C   0  0  0  0  0  2  0  0  0  0  0  0
  -33.2440  -23.7100   18.5470 C   0  0  0  0  0  2  0  0  0  0  0  0
  -32.8820  -22.5320   19.4640 C   0  0  0  0  0  2  0  0  0  0  0  0
  -33.2280  -21.1710   18.8340 C   0  0  0  0  0  2  0  0  0  0  0  0
  -31.8380  -19.4710   20.0340 C   0  0  0  0  0  0  0  0  0  0  0  0
  -33.0100  -20.0500   19.7440 N   0  0  0  0  0  0  0  0  0  0  0  0
  -30.7590  -19.9140   19.6350 O   0  0  0  0  0  0  0  0  0  0  0  0
  -33.8390  -19.6100   20.1220 H   0  0  0  0  0  0  0  0  0  0  0  0
  -32.0200  -18.2710   20.8340 C   0  0  0  0  0  3  0  0  0  0  0  0
  -30.9740  -17.5030   21.2030 C   0  0  0  0  0  3  0  0  0  0  0  0
  -31.1120  -16.2330   22.0290 C   0  0  0  0  0  2  0  0  0  0  0  0
  -30.7090  -14.3720   20.4160 C   0  0  0  0  0  0  0  0  0  0  0  0
  -30.2610  -12.3400   19.0850 C   0  0  0  0  0  2  0  0  0  0  0  0
  -29.2960  -12.6180   17.9220 C   0  0  0  0  0  2  0  0  0  0  0  0
  -27.8290  -12.4910   18.3800 C   0  0  0  0  0  2  0  0  0  0  0  0
  -27.5410  -13.2750   19.6880 C   0  0  0  0  0  3  0  0  0  0  0  0
  -28.6190  -12.9890   20.7590 C   0  0  0  0  0  2  0  0  0  0  0  0
  -29.9480  -13.2710   20.1830 N   0  0  0  0  0  0  0  0  0  0  0  0
  -31.7030  -14.6610   19.7440 O   0  0  0  0  0  0  0  0  0  0  0  0
  -30.3560  -15.1080   21.4780 N   0  0  0  0  0  0  0  0  0  0  0  0
  -29.5510  -14.7890   21.9990 H   0  0  0  0  0  0  0  0  0  0  0  0
  -25.1480  -13.8730   20.4410 C   0  0  0  0  0  0  0  0  0  0  0  0
  -24.0900  -13.0950   20.8290 C   0  0  0  0  0  0  0  0  0  0  0  0
  -24.5560  -11.7460   20.7890 C   0  0  0  0  0  0  0  0  0  0  0  0
  -26.1940  -12.9970   20.1910 N   0  0  0  0  0  0  0  0  0  0  0  0
  -25.8390  -11.7130   20.4570 N   0  0  0  0  0  0  0  0  0  0  0  0
  -23.8350  -10.4830   20.9940 C   0  0  0  0  0  0  0  0  0  0  0  0
  -24.2900   -9.5180   21.9220 C   0  0  0  0  0  3  0  0  0  0  0  0
  -23.5710   -8.3180   22.1150 C   0  0  0  0  0  3  0  0  0  0  0  0
  -22.3840   -8.0760   21.3830 C   0  0  0  0  0  0  0  0  0  0  0  0
  -21.9500   -9.0280   20.4440 C   0  0  0  0  0  3  0  0  0  0  0  0
  -22.6690  -10.2180   20.2500 C   0  0  0  0  0  3  0  0  0  0  0  0
  -21.6340   -6.9280   21.4870 O   0  0  0  0  0  0  0  0  0  0  0  0
  -21.6150   -6.1820   22.6370 C   0  0  0  0  0  0  0  0  0  0  0  0
  -21.2310   -6.7320   23.8790 C   0  0  0  0  0  3  0  0  0  0  0  0
  -21.1620   -5.9110   25.0210 C   0  0  0  0  0  3  0  0  0  0  0  0
  -21.4660   -4.5400   24.9240 C   0  0  0  0  0  0  0  0  0  0  0  0
  -21.8430   -3.9890   23.6880 C   0  0  0  0  0  3  0  0  0  0  0  0
  -21.9160   -4.8080   22.5470 C   0  0  0  0  0  0  0  0  0  0  0  0
  -22.2600   -4.2670   21.3530 F   0  0  0  0  0  0  0  0  0  0  0  0
  -21.3910   -3.7500   26.0200 F   0  0  0  0  0  0  0  0  0  0  0  0
  -22.6950  -13.5670   21.1260 C   0  0  0  0  0  0  0  0  0  0  0  0
  -21.9810  -12.8700   22.0030 N   0  0  0  0  0  0  0  0  0  0  0  0
  -22.2460  -14.5910   20.6120 O   0  0  0  0  0  0  0  0  0  0  0  0
  -22.3490  -12.0420   22.4470 H   0  0  0  0  0  0  0  0  0  0  0  0
  -21.0440  -13.1710   22.2330 H   0  0  0  0  0  0  0  0  0  0  0  0
  -25.2970  -15.2440   20.2630 N   0  0  0  0  0  0  0  0  0  0  0  0
  -24.5200  -15.8840   20.3960 H   0  0  0  0  0  0  0  0  0  0  0  0
  -26.1370  -15.7060   19.9350 H   0  0  0  0  0  0  0  0  0  0  0  0
  -33.2390  -26.2560   18.2750 C   0  0  0  0  0  2  0  0  0  0  0  0
  -32.9800  -27.6430   18.9080 C   0  0  0  0  0  2  0  0  0  0  0  0
  -31.5810  -28.1010   18.7660 N   0  0  0  0  0  4  0  0  0  0  0  0
  -31.2550  -27.8520   17.8460 H   0  0  0  0  0  0  0  0  0  0  0  0
  -31.5840  -29.1100   18.8030 H   0  0  0  0  0  0  0  0  0  0  0  0
  -30.6290  -27.6260   19.7980 C   0  0  0  0  0  2  0  0  0  0  0  0
  -29.3280  -27.1290   19.1530 C   0  0  0  0  0  2  0  0  0  0  0  0
  -28.4100  -26.7390   20.1670 O   0  0  0  0  0  0  0  0  0  0  0  0
  -24.5830  -31.8890   23.2320 C   0  0  0  0  0  0  0  0  0  0  0  0
  -27.2530  -27.4700   20.1870 C   0  0  0  0  0  0  0  0  0  0  0  0
  -23.3840  -30.4690   21.5960 C   0  0  0  0  0  3  0  0  0  0  0  0
  -24.8470  -28.9280   20.1890 C   0  0  0  0  0  0  0  0  0  0  0  0
  -25.9020  -30.8500   21.3950 C   0  0  0  0  0  2  0  0  0  0  0  0
  -25.9980  -29.4740   20.7710 C   0  0  0  0  0  0  0  0  0  0  0  0
  -27.2080  -28.7510   20.7750 C   0  0  0  0  0  3  0  0  0  0  0  0
  -26.0890  -26.9210   19.6150 C   0  0  0  0  0  3  0  0  0  0  0  0
  -24.8840  -27.6470   19.6100 C   0  0  0  0  0  3  0  0  0  0  0  0
  -23.5970  -29.7770   20.2230 C   0  0  0  0  0  2  0  0  0  0  0  0
  -24.6410  -31.0840   22.1340 N   0  0  0  0  0  0  0  0  0  0  0  0
  -23.5010  -32.1590   23.7720 O   0  0  0  0  0  0  0  0  0  0  0  0
  -22.7360  -29.4530   22.5640 C   0  0  0  0  0  0  0  0  0  0  0  0
  -21.4130  -29.2690   22.4380 N   0  0  0  0  0  0  0  0  0  0  0  0
  -23.4220  -28.8330   23.3810 O   0  0  0  0  0  0  0  0  0  0  0  0
  -20.9210  -29.8180   21.7470 H   0  0  0  0  0  0  0  0  0  0  0  0
  -18.0380  -28.0930   22.9590 C   0  0  0  0  0  0  0  0  0  0  0  0
  -20.5990  -28.3350   23.2140 C   0  0  0  0  0  3  0  0  0  0  0  0
  -20.6890  -26.9040   22.6370 C   0  0  0  0  0  2  0  0  0  0  0  0
  -19.5790  -26.5880   21.6300 C   0  0  0  0  0  2  0  0  0  0  0  0
  -18.2010  -26.7420   22.2810 C   0  0  0  0  0  2  0  0  0  0  0  0
  -19.1640  -28.8470   23.3830 C   0  0  0  0  0  0  0  0  0  0  0  0
  -18.9570  -30.1140   23.9750 C   0  0  0  0  0  3  0  0  0  0  0  0
  -17.6550  -30.6230   24.1480 C   0  0  0  0  0  3  0  0  0  0  0  0
  -16.5450  -29.8640   23.7420 C   0  0  0  0  0  3  0  0  0  0  0  0
  -16.7370  -28.6020   23.1520 C   0  0  0  0  0  3  0  0  0  0  0  0
  -25.8680  -32.5280   23.8480 C   0  0  0  0  0  3  0  0  0  0  0  0
  -25.5510  -33.9220   24.1800 N   0  0  0  0  0  0  0  0  0  0  0  0
  -25.8830  -34.9770   23.4230 C   0  0  0  0  0  0  0  0  0  0  0  0
  -26.5580  -34.8790   22.3960 O   0  0  0  0  0  0  0  0  0  0  0  0
  -24.9550  -34.0740   24.9800 H   0  0  0  0  0  0  0  0  0  0  0  0
  -24.1510  -36.7620   23.0490 C   0  0  0  0  0  1  0  0  0  0  0  0
  -25.3820  -36.3630   23.8780 C   0  0  0  0  0  3  0  0  0  0  0  0
  -27.5060  -37.2500   24.7340 C   0  0  0  0  0  1  0  0  0  0  0  0
  -26.4120  -37.4200   23.7820 N   0  0  0  0  0  0  0  0  0  0  0  0
  -26.0010  -38.3380   23.9330 H   0  0  0  0  0  0  0  0  0  0  0  0
  -26.3990  -31.7550   25.1180 C   0  0  1  0  0  0  0  0  0  0  0  0
  -25.3130  -31.4930   26.1870 C   0  0  0  0  0  1  0  0  0  0  0  0
  -26.9990  -30.3880   24.7120 C   0  0  0  0  0  1  0  0  0  0  0  0
  -27.5410  -32.5600   25.7820 C   0  0  0  0  0  1  0  0  0  0  0  0
  2  1  1  0
  2  3  1  0
  4  3  1  0
  4  6  1  0
  5  9  1  0
  6  5  1  0
  6  8  1  0
  7  5  2  0
  9 10  2  0
 10 11  1  0
 12 20  1  0
 13 18  1  0
 14 15  1  0
 14 13  1  0
 16 15  1  0
 16 25  1  0
 16 17  1  0
 18 12  1  0
 18 17  1  0
 19 12  2  0
 20 21  1  0
 20 11  1  0
 22 23  2  0
 23 42  1  0
 24 23  1  0
 24 27  1  0
 25 22  1  0
 25 26  1  0
 26 24  2  0
 27 28  1  0
 28 29  2  0
 30 33  1  0
 30 29  1  0
 31 30  2  0
 32 31  1  0
 32 27  2  0
 33 34  1  0
 34 35  1  0
 35 36  2  0
 37 36  1  0
 37 41  1  0
 38 37  2  0
 39 34  2  0
 39 38  1  0
 40 39  1  0
 42 43  1  0
 43 46  1  0
 43 45  1  0
 44 42  2  0
 47 48  1  0
 47 22  1  0
 49 47  1  0
 50 51  1  0
 50  1  1  0
 52 54  1  0
 52 51  1  0
 52 55  1  0
 53 52  1  0
 56 55  1  0
 56 57  1  0
 57 59  1  0
 58 69  2  0
 59 64  1  0
 60 68  1  0
 60 70  1  0
 61 67  1  0
 61 63  1  0
 62 68  1  0
 63 64  2  0
 63 62  1  0
 65 59  2  0
 66 65  1  0
 66 61  2  0
 67 60  1  0
 68 58  1  0
 70 72  2  0
 71 70  1  0
 73 71  1  0
 74 83  2  0
 74 79  1  0
 75 71  1  0
 75 79  1  0
 76 75  1  0
 77 78  1  0
 77 76  1  0
 78 74  1  0
 79 80  2  0
 80 81  1  0
 82 81  2  0
 83 82  1  0
 84 58  1  0
 84 85  1  0
 84 94  1  0
 85 88  1  0
 86 90  1  0
 86 85  1  0
 87 86  2  0
 90 89  1  0
 92 90  1  0
 92 93  1  0
 92 91  1  0
 94 97  1  1
 94 95  1  0
 96 94  1  0
M  ISO  4  12 100  20 100  56 101  57 101
M  END
>  <TORSDO>  (3) 
F 27

>  <SCORE>  (3) 
-11.567

>  <name>  (3) 
2

>  <ligand_id>  (3) 
2

>  <original_smiles>  (3) 
[H]C(C(=O)N([H])C([H])([H])C([H])([H])C([H])([H])C([H])([H])C([H])([H])C([H])([H])[N+]([H])([H])C([H])([H])C([H])([H])Oc1c([H])c([H])c2c(c1[H])C([H])([H])N(C(=O)C([H])(N([H])C(=O)C([H])(N([H])C([H])([H])[H])C([H])([H])[H])C(C([H])([H])[H])(C([H])([H])[H])C([H])([H])[H])C([H])(C(=O)N([H])C1([H])c3c([H])c([H])c([H])c([H])c3C([H])([H])C([H])([H])C1([H])[H])C2([H])[H])=C([H])C([H])([H])N([H])C(=O)N1C([H])([H])C([H])([H])C([H])([H])C([H])(n2nc(-c3c([H])c([H])c(Oc4c([H])c([H])c(F)c([H])c4F)c([H])c3[H])c(C(=O)N([H])[H])c2N([H])[H])C1([H])[H]

>  <smiles>  (3) 
[H]C(C(=O)N([H])C([H])([H])C([H])([H])C([H])([H])C([H])([H])C([H])([H])C([H])([H])[N+]([H])([H])C([H])([H])C([H])([H])Oc1c([H])c([H])c2c(c1[H])C([H])([H])N(C(=O)C([H])(N([H])C(=O)C([H])(N([H])C([H])([H])[H])C([H])([H])[H])C(C([H])([H])[H])(C([H])([H])[H])C([H])([H])[H])C([H])(C(=O)N([H])C1([H])c3c([H])c([H])c([H])c([H])c3C([H])([H])C([H])([H])C1([H])[H])C2([H])[H])=C([H])C([H])([H])N([H])C(=O)N1C([H])([H])C([H])([H])C([H])([H])C([H])(n2nc(-c3c([H])c([H])c(Oc4c([H])c([H])c(F)c([H])c4F)c([H])c3[H])c(C(=O)N([H])[H])c2N([H])[H])C1([H])[H]

$$$$
3:0:0
     RDKit          3D

 96103  0  0  1  0  0  0  0  0999 V2000
  -26.4220  -21.2430   20.1950 C   0  0  0  0  0  2  0  0  0  0  0  0
  -26.6040  -22.6670   20.5740 N   0  0  0  0  0  4  0  0  0  0  0  0
  -25.6950  -23.0420   20.8030 H   0  0  0  0  0  0  0  0  0  0  0  0
  -27.1710  -22.7300   21.4050 H   0  0  0  0  0  0  0  0  0  0  0  0
  -27.2180  -23.5060   19.5200 C   0  0  0  0  0  2  0  0  0  0  0  0
  -27.5540  -24.9280   20.0140 C   0  0  0  0  0  2  0  0  0  0  0  0
  -28.6550  -25.6050   19.1710 C   0  0  0  0  0  2  0  0  0  0  0  0
  -28.6930  -27.1410   19.2950 C   0  0  0  0  0  2  0  0  0  0  0  0
  -27.8890  -27.7140   18.2730 O   0  0  0  0  0  0  0  0  0  0  0  0
  -24.2500  -31.6370   23.0080 C   0  0  0  0  0  0  0  0  0  0  0  0
  -26.7040  -28.2730   18.6750 C   0  0  0  0  0  0  0  0  0  0  0  0
  -22.9080  -30.4720   21.2880 C   0  0  0  0  0  3  0  0  0  0  0  0
  -24.2310  -29.4330   19.3680 C   0  0  0  0  0  0  0  0  0  0  0  0
  -25.3280  -31.1490   20.8170 C   0  0  0  0  0  2  0  0  0  0  0  0
  -25.4200  -29.9530   19.8960 C   0  0  0  0  0  0  0  0  0  0  0  0
  -26.6630  -29.3740   19.5570 C   0  0  0  0  0  3  0  0  0  0  0  0
  -25.5060  -27.7660   18.1390 C   0  0  0  0  0  3  0  0  0  0  0  0
  -24.2670  -28.3310   18.4930 C   0  0  0  0  0  3  0  0  0  0  0  0
  -22.9430  -30.1130   19.7770 C   0  0  0  0  0  2  0  0  0  0  0  0
  -24.1880  -31.0910   21.7610 N   0  0  0  0  0  0  0  0  0  0  0  0
  -23.2560  -31.6680   23.7440 O   0  0  0  0  0  0  0  0  0  0  0  0
  -22.5110  -29.2070   22.0800 C   0  0  0  0  0  0  0  0  0  0  0  0
  -21.2410  -28.7930   21.9500 N   0  0  0  0  0  0  0  0  0  0  0  0
  -23.3400  -28.6070   22.7700 O   0  0  0  0  0  0  0  0  0  0  0  0
  -20.6230  -29.3470   21.3720 H   0  0  0  0  0  0  0  0  0  0  0  0
  -18.2460  -26.7850   22.1200 C   0  0  0  0  0  0  0  0  0  0  0  0
  -20.6530  -27.6060   22.5700 C   0  0  0  0  0  3  0  0  0  0  0  0
  -21.1160  -26.3140   21.8590 C   0  0  0  0  0  2  0  0  0  0  0  0
  -20.1580  -25.8560   20.7530 C   0  0  0  0  0  2  0  0  0  0  0  0
  -18.7630  -25.5980   21.3250 C   0  0  0  0  0  2  0  0  0  0  0  0
  -19.1320  -27.7360   22.6910 C   0  0  0  0  0  0  0  0  0  0  0  0
  -18.5940  -28.8370   23.3920 C   0  0  0  0  0  3  0  0  0  0  0  0
  -17.2010  -28.9930   23.5270 C   0  0  0  0  0  3  0  0  0  0  0  0
  -16.3300  -28.0390   22.9750 C   0  0  0  0  0  3  0  0  0  0  0  0
  -16.8520  -26.9360   22.2770 C   0  0  0  0  0  3  0  0  0  0  0  0
  -25.5680  -32.2690   23.5580 C   0  0  0  0  0  3  0  0  0  0  0  0
  -25.2470  -33.6230   24.0300 N   0  0  0  0  0  0  0  0  0  0  0  0
  -25.5370  -34.7490   23.3640 C   0  0  0  0  0  0  0  0  0  0  0  0
  -26.1750  -34.7570   22.3080 O   0  0  0  0  0  0  0  0  0  0  0  0
  -24.6770  -33.6860   24.8610 H   0  0  0  0  0  0  0  0  0  0  0  0
  -23.7830  -36.5420   23.2060 C   0  0  0  0  0  1  0  0  0  0  0  0
  -25.0350  -36.0760   23.9650 C   0  0  0  0  0  3  0  0  0  0  0  0
  -27.1690  -36.8920   24.8610 C   0  0  0  0  0  1  0  0  0  0  0  0
  -26.0530  -37.1480   23.9550 N   0  0  0  0  0  0  0  0  0  0  0  0
  -25.6390  -38.0410   24.2050 H   0  0  0  0  0  0  0  0  0  0  0  0
  -26.2340  -31.4180   24.7090 C   0  0  1  0  0  0  0  0  0  0  0  0
  -25.2580  -31.0470   25.8510 C   0  0  0  0  0  1  0  0  0  0  0  0
  -26.8230  -30.1030   24.1440 C   0  0  0  0  0  1  0  0  0  0  0  0
  -27.4180  -32.2040   25.3230 C   0  0  0  0  0  1  0  0  0  0  0  0
  -27.3000  -20.2790   21.0260 C   0  0  0  0  0  2  0  0  0  0  0  0
  -28.8150  -20.3110   20.7030 C   0  0  0  0  0  2  0  0  0  0  0  0
  -29.2010  -19.4570   19.5530 N   0  0  0  0  0  4  0  0  0  0  0  0
  -28.7770  -18.5480   19.6650 H   0  0  0  0  0  0  0  0  0  0  0  0
  -28.8590  -19.8490   18.6910 H   0  0  0  0  0  0  0  0  0  0  0  0
  -30.6620  -19.2440   19.4130 C   0  0  0  0  0  2  0  0  0  0  0  0
  -31.0290  -18.3680   18.1930 C   0  0  0  0  0  2  0  0  0  0  0  0
  -31.0610  -16.8600   18.5100 C   0  0  0  0  0  2  0  0  0  0  0  0
  -32.4650  -16.2210   18.6570 C   0  0  0  0  0  2  0  0  0  0  0  0
  -33.1440  -14.2420   20.1340 C   0  0  0  0  0  0  0  0  0  0  0  0
  -33.0930  -12.2460   21.6050 C   0  0  0  0  0  2  0  0  0  0  0  0
  -32.5550  -10.9860   20.8950 C   0  0  0  0  0  2  0  0  0  0  0  0
  -31.0120  -10.9500   20.8780 C   0  0  0  0  0  2  0  0  0  0  0  0
  -30.3910  -12.2960   20.4200 C   0  0  0  0  0  3  0  0  0  0  0  0
  -31.0200  -13.4500   21.2240 C   0  0  0  0  0  2  0  0  0  0  0  0
  -32.4830  -13.4350   21.0030 N   0  0  0  0  0  0  0  0  0  0  0  0
  -34.3000  -14.0470   19.7410 O   0  0  0  0  0  0  0  0  0  0  0  0
  -32.4000  -15.2970   19.7830 N   0  0  0  0  0  0  0  0  0  0  0  0
  -31.5440  -15.3460   20.3150 H   0  0  0  0  0  0  0  0  0  0  0  0
  -28.0210  -13.3020   20.2720 C   0  0  0  0  0  0  0  0  0  0  0  0
  -26.7840  -12.7540   20.4970 C   0  0  0  0  0  0  0  0  0  0  0  0
  -27.0180  -11.4060   20.9030 C   0  0  0  0  0  0  0  0  0  0  0  0
  -28.9330  -12.2920   20.5460 N   0  0  0  0  0  0  0  0  0  0  0  0
  -28.3170  -11.1630   20.9790 N   0  0  0  0  0  0  0  0  0  0  0  0
  -26.0770  -10.3100   21.1690 C   0  0  0  0  0  0  0  0  0  0  0  0
  -25.9150   -9.7790   22.4660 C   0  0  0  0  0  3  0  0  0  0  0  0
  -24.9930   -8.7370   22.7030 C   0  0  0  0  0  3  0  0  0  0  0  0
  -24.2270   -8.2160   21.6350 C   0  0  0  0  0  0  0  0  0  0  0  0
  -24.4110   -8.7300   20.3380 C   0  0  0  0  0  3  0  0  0  0  0  0
  -25.3330   -9.7640   20.1060 C   0  0  0  0  0  3  0  0  0  0  0  0
  -23.3270   -7.1860   21.7640 O   0  0  0  0  0  0  0  0  0  0  0  0
  -22.5140   -7.0730   22.8620 C   0  0  0  0  0  0  0  0  0  0  0  0
  -21.5870   -8.0780   23.2130 C   0  0  0  0  0  3  0  0  0  0  0  0
  -20.7240   -7.8900   24.3110 C   0  0  0  0  0  3  0  0  0  0  0  0
  -20.7750   -6.6950   25.0540 C   0  0  0  0  0  0  0  0  0  0  0  0
  -21.6930   -5.6930   24.7030 C   0  0  0  0  0  3  0  0  0  0  0  0
  -22.5570   -5.8780   23.6080 C   0  0  0  0  0  0  0  0  0  0  0  0
  -23.4220   -4.8960   23.2640 F   0  0  0  0  0  0  0  0  0  0  0  0
  -19.9410   -6.5110   26.1060 F   0  0  0  0  0  0  0  0  0  0  0  0
  -25.4580  -13.4120   20.2460 C   0  0  0  0  0  0  0  0  0  0  0  0
  -24.4400  -13.0500   21.0190 N   0  0  0  0  0  0  0  0  0  0  0  0
  -25.3310  -14.2820   19.3840 O   0  0  0  0  0  0  0  0  0  0  0  0
  -24.5500  -12.3460   21.7340 H   0  0  0  0  0  0  0  0  0  0  0  0
  -23.5370  -13.4820   20.8900 H   0  0  0  0  0  0  0  0  0  0  0  0
  -28.4390  -14.5600   19.8440 N   0  0  0  0  0  0  0  0  0  0  0  0
  -27.7770  -15.2650   19.5320 H   0  0  0  0  0  0  0  0  0  0  0  0
  -29.4020  -14.7900   19.6270 H   0  0  0  0  0  0  0  0  0  0  0  0
  1  2  1  0
  1 50  1  0
  2  3  1  0
  2  4  1  0
  5  6  1  0
  5  2  1  0
  7  8  1  0
  7  6  1  0
  9 11  1  0
  9  8  1  0
 10 21  2  0
 11 16  1  0
 12 20  1  0
 12 22  1  0
 13 19  1  0
 13 15  1  0
 14 20  1  0
 15 14  1  0
 16 15  2  0
 17 18  1  0
 17 11  2  0
 18 13  2  0
 19 12  1  0
 20 10  1  0
 22 24  2  0
 23 22  1  0
 25 23  1  0
 26 35  2  0
 26 31  1  0
 27 23  1  0
 27 31  1  0
 28 27  1  0
 29 30  1  0
 29 28  1  0
 30 26  1  0
 31 32  2  0
 32 33  1  0
 34 33  2  0
 35 34  1  0
 36 10  1  0
 36 37  1  0
 36 46  1  0
 37 40  1  0
 38 42  1  0
 38 37  1  0
 39 38  2  0
 42 41  1  0
 44 42  1  0
 44 45  1  0
 44 43  1  0
 46 49  1  1
 46 47  1  0
 48 46  1  0
 51 50  1  0
 52 53  1  0
 52 51  1  0
 54 52  1  0
 55 52  1  0
 56 57  1  0
 56 55  1  0
 57 58  1  0
 58 67  1  0
 59 65  1  0
 61 60  1  0
 62 61  1  0
 63 72  1  0
 63 62  1  0
 63 64  1  0
 65 64  1  0
 65 60  1  0
 66 59  2  0
 67 59  1  0
 67 68  1  0
 69 70  2  0
 69 72  1  0
 70 71  1  0
 71 73  2  0
 71 74  1  0
 72 73  1  0
 74 75  1  0
 75 76  2  0
 77 80  1  0
 77 76  1  0
 78 77  2  0
 79 78  1  0
 79 74  2  0
 80 81  1  0
 81 82  2  0
 81 86  1  0
 82 83  1  0
 83 84  2  0
 84 88  1  0
 85 84  1  0
 86 85  2  0
 87 86  1  0
 89 70  1  0
 89 90  1  0
 90 92  1  0
 91 89  2  0
 93 90  1  0
 94 69  1  0
 95 94  1  0
 96 94  1  0
M  ISO  4   8 101   9 101  59 100  67 100
M  END
>  <TORSDO>  (4) 
F 28

>  <SCORE>  (4) 
-4.867

>  <name>  (4) 
3

>  <ligand_id>  (4) 
3

>  <original_smiles>  (4) 
[H]c1c([H])c([H])c2c(c1[H])C([H])([H])C([H])([H])C([H])([H])C2([H])N([H])C(=O)C1([H])N(C(=O)C([H])(N([H])C(=O)C([H])(N([H])C([H])([H])[H])C([H])([H])[H])C(C([H])([H])[H])(C([H])([H])[H])C([H])([H])[H])C([H])([H])c2c([H])c(OC([H])([H])C([H])([H])C([H])([H])C([H])([H])[N+]([H])([H])C([H])([H])C([H])([H])C([H])([H])[N+]([H])([H])C([H])([H])C([H])([H])C([H])([H])C([H])([H])N([H])C(=O)N3C([H])([H])C([H])([H])C([H])([H])C([H])(n4nc(-c5c([H])c([H])c(Oc6c([H])c([H])c(F)c([H])c6F)c([H])c5[H])c(C(=O)N([H])[H])c4N([H])[H])C3([H])[H])c([H])c([H])c2C1([H])[H]

>  <smiles>  (4) 
[H]c1c([H])c([H])c2c(c1[H])C([H])([H])C([H])([H])C([H])([H])C2([H])N([H])C(=O)C1([H])N(C(=O)C([H])(N([H])C(=O)C([H])(N([H])C([H])([H])[H])C([H])([H])[H])C(C([H])([H])[H])(C([H])([H])[H])C([H])([H])[H])C([H])([H])c2c([H])c(OC([H])([H])C([H])([H])C([H])([H])C([H])([H])[N+]([H])([H])C([H])([H])C([H])([H])C([H])([H])[N+]([H])([H])C([H])([H])C([H])([H])C([H])([H])C([H])([H])N([H])C(=O)N3C([H])([H])C([H])([H])C([H])([H])C([H])(n4nc(-c5c([H])c([H])c(Oc6c([H])c([H])c(F)c([H])c6F)c([H])c5[H])c(C(=O)N([H])[H])c4N([H])[H])C3([H])[H])c([H])c([H])c2C1([H])[H]

$$$$
4:0:0
     RDKit          3D

 94101  0  0  1  0  0  0  0  0999 V2000
  -26.3520  -23.6190   23.2910 C   0  0  0  0  0  2  0  0  0  0  0  0
  -28.8240  -23.8130   23.3230 C   0  0  0  0  0  0  0  0  0  0  0  0
  -27.6940  -23.1740   23.6520 N   0  0  0  0  0  0  0  0  0  0  0  0
  -28.8340  -24.9430   22.8310 O   0  0  0  0  0  0  0  0  0  0  0  0
  -27.7680  -22.2670   24.0910 H   0  0  0  0  0  0  0  0  0  0  0  0
  -30.1400  -23.0700   23.5580 C   0  0  0  0  0  2  0  0  0  0  0  0
  -30.8120  -22.6880   22.2210 C   0  0  0  0  0  2  0  0  0  0  0  0
  -32.0650  -21.8010   22.3960 C   0  0  0  0  0  2  0  0  0  0  0  0
  -32.3040  -20.7910   21.2300 C   0  0  0  0  0  2  0  0  0  0  0  0
  -33.5450  -19.9240   20.8400 C   0  0  0  0  0  2  0  0  0  0  0  0
  -33.7810  -17.5250   20.0490 C   0  0  0  0  0  0  0  0  0  0  0  0
  -33.5630  -15.1660   19.3300 C   0  0  0  0  0  2  0  0  0  0  0  0
  -32.7890  -15.0450   18.0000 C   0  0  0  0  0  2  0  0  0  0  0  0
  -31.2690  -15.0110   18.2460 C   0  0  0  0  0  2  0  0  0  0  0  0
  -30.8000  -16.1610   19.1750 C   0  0  0  0  0  3  0  0  0  0  0  0
  -31.6720  -16.2050   20.4480 C   0  0  0  0  0  2  0  0  0  0  0  0
  -33.0840  -16.3590   20.0390 N   0  0  0  0  0  0  0  0  0  0  0  0
  -34.8840  -17.6700   19.5080 O   0  0  0  0  0  0  0  0  0  0  0  0
  -33.1640  -18.5110   20.7130 N   0  0  0  0  0  0  0  0  0  0  0  0
  -32.2830  -18.2470   21.1290 H   0  0  0  0  0  0  0  0  0  0  0  0
  -28.4120  -17.0260   19.6090 C   0  0  0  0  0  0  0  0  0  0  0  0
  -27.2380  -16.3690   19.8720 C   0  0  0  0  0  0  0  0  0  0  0  0
  -27.5620  -14.9790   19.8960 C   0  0  0  0  0  0  0  0  0  0  0  0
  -29.3810  -16.0400   19.5000 N   0  0  0  0  0  0  0  0  0  0  0  0
  -28.8650  -14.8060   19.7260 N   0  0  0  0  0  0  0  0  0  0  0  0
  -26.6970  -13.7970   20.0100 C   0  0  0  0  0  0  0  0  0  0  0  0
  -26.8390  -12.8800   21.0730 C   0  0  0  0  0  3  0  0  0  0  0  0
  -25.9840  -11.7630   21.1740 C   0  0  0  0  0  3  0  0  0  0  0  0
  -24.9700  -11.5540   20.2080 C   0  0  0  0  0  0  0  0  0  0  0  0
  -24.8470  -12.4600   19.1400 C   0  0  0  0  0  3  0  0  0  0  0  0
  -25.7030  -13.5680   19.0380 C   0  0  0  0  0  3  0  0  0  0  0  0
  -24.1120  -10.4820   20.2090 O   0  0  0  0  0  0  0  0  0  0  0  0
  -23.6020   -9.9710   21.3750 C   0  0  0  0  0  0  0  0  0  0  0  0
  -22.8730  -10.7710   22.2830 C   0  0  0  0  0  3  0  0  0  0  0  0
  -22.3060  -10.1910   23.4350 C   0  0  0  0  0  3  0  0  0  0  0  0
  -22.4570   -8.8110   23.6760 C   0  0  0  0  0  0  0  0  0  0  0  0
  -23.1770   -8.0130   22.7700 C   0  0  0  0  0  3  0  0  0  0  0  0
  -23.7450   -8.5920   21.6220 C   0  0  0  0  0  0  0  0  0  0  0  0
  -24.4200   -7.8140   20.7420 F   0  0  0  0  0  0  0  0  0  0  0  0
  -21.9050   -8.2520   24.7780 F   0  0  0  0  0  0  0  0  0  0  0  0
  -25.8760  -16.9890   19.9940 C   0  0  0  0  0  0  0  0  0  0  0  0
  -24.9940  -16.3750   20.7740 N   0  0  0  0  0  0  0  0  0  0  0  0
  -25.6020  -18.0490   19.4350 O   0  0  0  0  0  0  0  0  0  0  0  0
  -25.2300  -15.5180   21.2520 H   0  0  0  0  0  0  0  0  0  0  0  0
  -24.0730  -16.7700   20.9000 H   0  0  0  0  0  0  0  0  0  0  0  0
  -28.7270  -18.3690   19.4330 N   0  0  0  0  0  0  0  0  0  0  0  0
  -28.0050  -19.0810   19.4040 H   0  0  0  0  0  0  0  0  0  0  0  0
  -29.6390  -18.7170   19.1640 H   0  0  0  0  0  0  0  0  0  0  0  0
  -25.9620  -23.1180   21.8890 C   0  0  0  0  0  2  0  0  0  0  0  0
  -27.1350  -22.8860   21.1060 O   0  0  0  0  0  0  0  0  0  0  0  0
  -27.2090  -23.6220   19.8910 C   0  0  0  0  0  2  0  0  0  0  0  0
  -27.9840  -24.9300   20.1050 C   0  0  0  0  0  2  0  0  0  0  0  0
  -28.2130  -25.7140   18.7980 C   0  0  0  0  0  2  0  0  0  0  0  0
  -28.1410  -27.1170   19.0380 O   0  0  0  0  0  0  0  0  0  0  0  0
  -24.3730  -31.6710   22.9570 C   0  0  0  0  0  0  0  0  0  0  0  0
  -26.9060  -27.7030   19.2250 C   0  0  0  0  0  0  0  0  0  0  0  0
  -23.0680  -30.3410   21.3280 C   0  0  0  0  0  3  0  0  0  0  0  0
  -24.4390  -29.0210   19.6360 C   0  0  0  0  0  0  0  0  0  0  0  0
  -25.5330  -30.8760   20.9040 C   0  0  0  0  0  2  0  0  0  0  0  0
  -25.6220  -29.5720   20.1420 C   0  0  0  0  0  0  0  0  0  0  0  0
  -26.8550  -28.9210   19.9360 C   0  0  0  0  0  3  0  0  0  0  0  0
  -25.6970  -27.1490   18.7350 C   0  0  0  0  0  3  0  0  0  0  0  0
  -24.4710  -27.8040   18.9360 C   0  0  0  0  0  3  0  0  0  0  0  0
  -23.1640  -29.7940   19.8810 C   0  0  0  0  0  2  0  0  0  0  0  0
  -24.3480  -30.9730   21.7870 N   0  0  0  0  0  0  0  0  0  0  0  0
  -23.3450  -31.8340   23.6280 O   0  0  0  0  0  0  0  0  0  0  0  0
  -22.5760  -29.2040   22.2510 C   0  0  0  0  0  0  0  0  0  0  0  0
  -21.2800  -28.8700   22.1510 N   0  0  0  0  0  0  0  0  0  0  0  0
  -23.3570  -28.6290   23.0130 O   0  0  0  0  0  0  0  0  0  0  0  0
  -20.7050  -29.3930   21.5040 H   0  0  0  0  0  0  0  0  0  0  0  0
  -18.1140  -27.1990   22.5960 C   0  0  0  0  0  0  0  0  0  0  0  0
  -20.6060  -27.8160   22.9100 C   0  0  0  0  0  3  0  0  0  0  0  0
  -20.9130  -26.4180   22.3310 C   0  0  0  0  0  2  0  0  0  0  0  0
  -19.8940  -25.9760   21.2760 C   0  0  0  0  0  2  0  0  0  0  0  0
  -18.4910  -25.9090   21.8860 C   0  0  0  0  0  2  0  0  0  0  0  0
  -19.1080  -28.1010   23.0590 C   0  0  0  0  0  0  0  0  0  0  0  0
  -18.7050  -29.3080   23.6700 C   0  0  0  0  0  3  0  0  0  0  0  0
  -17.3400  -29.6120   23.8300 C   0  0  0  0  0  3  0  0  0  0  0  0
  -16.3600  -28.7040   23.3870 C   0  0  0  0  0  3  0  0  0  0  0  0
  -16.7490  -27.5010   22.7730 C   0  0  0  0  0  3  0  0  0  0  0  0
  -25.6870  -32.3230   23.4950 C   0  0  0  0  0  3  0  0  0  0  0  0
  -26.3550  -31.5010   24.6650 C   0  0  1  0  0  0  0  0  0  0  0  0
  -25.3820  -31.1600   25.8170 C   0  0  0  0  0  1  0  0  0  0  0  0
  -26.9430  -30.1740   24.1340 C   0  0  0  0  0  1  0  0  0  0  0  0
  -27.5360  -32.3040   25.2600 C   0  0  0  0  0  1  0  0  0  0  0  0
  -25.3590  -33.6850   23.9340 N   0  0  0  0  0  0  0  0  0  0  0  0
  -25.6060  -34.7920   23.2210 C   0  0  0  0  0  0  0  0  0  0  0  0
  -26.2110  -34.7770   22.1460 O   0  0  0  0  0  0  0  0  0  0  0  0
  -24.8160  -33.7670   24.7810 H   0  0  0  0  0  0  0  0  0  0  0  0
  -23.8000  -36.5370   23.0840 C   0  0  0  0  0  1  0  0  0  0  0  0
  -25.1020  -36.1300   23.7930 C   0  0  0  0  0  3  0  0  0  0  0  0
  -27.2580  -37.0340   24.5440 C   0  0  0  0  0  1  0  0  0  0  0  0
  -26.0910  -37.2250   23.6850 N   0  0  0  0  0  0  0  0  0  0  0  0
  -25.6650  -38.1170   23.9230 H   0  0  0  0  0  0  0  0  0  0  0  0
  1  3  1  0
  2  6  1  0
  2  3  1  0
  3  5  1  0
  4  2  2  0
  7  8  1  0
  7  6  1  0
  9  8  1  0
 10  9  1  0
 11 19  1  0
 12 17  1  0
 13 14  1  0
 13 12  1  0
 15 14  1  0
 15 24  1  0
 15 16  1  0
 17 11  1  0
 17 16  1  0
 18 11  2  0
 19 10  1  0
 19 20  1  0
 21 22  2  0
 22 23  1  0
 22 41  1  0
 23 26  1  0
 24 21  1  0
 24 25  1  0
 25 23  2  0
 26 27  1  0
 27 28  2  0
 29 32  1  0
 29 28  1  0
 30 29  2  0
 31 30  1  0
 31 26  2  0
 32 33  1  0
 33 38  2  0
 33 34  1  0
 34 35  2  0
 35 36  1  0
 36 40  1  0
 37 36  2  0
 38 37  1  0
 39 38  1  0
 41 42  1  0
 42 45  1  0
 42 44  1  0
 43 41  2  0
 46 21  1  0
 47 46  1  0
 48 46  1  0
 49  1  1  0
 50 49  1  0
 51 52  1  0
 51 50  1  0
 53 54  1  0
 53 52  1  0
 54 56  1  0
 55 66  2  0
 56 61  1  0
 57 65  1  0
 57 67  1  0
 58 64  1  0
 58 60  1  0
 59 65  1  0
 60 59  1  0
 61 60  2  0
 62 63  1  0
 62 56  2  0
 63 58  2  0
 64 57  1  0
 65 55  1  0
 67 69  2  0
 68 67  1  0
 70 68  1  0
 71 80  2  0
 71 76  1  0
 72 68  1  0
 72 76  1  0
 73 72  1  0
 74 75  1  0
 74 73  1  0
 75 71  1  0
 76 77  2  0
 77 78  1  0
 79 78  2  0
 80 79  1  0
 81 55  1  0
 81 86  1  0
 81 82  1  0
 82 85  1  1
 82 83  1  0
 84 82  1  0
 86 89  1  0
 87 91  1  0
 87 86  1  0
 88 87  2  0
 91 90  1  0
 93 91  1  0
 93 94  1  0
 93 92  1  0
M  ISO  4  11 100  19 100  53 101  54 101
M  END
>  <TORSDO>  (5) 
F 27

>  <SCORE>  (5) 
-0.199

>  <name>  (5) 
4

>  <ligand_id>  (5) 
4

>  <original_smiles>  (5) 
[H]c1c([H])c([H])c2c(c1[H])C([H])([H])C([H])([H])C([H])([H])C2([H])N([H])C(=O)C1([H])N(C(=O)C([H])(N([H])C(=O)C([H])(N([H])C([H])([H])[H])C([H])([H])[H])C(C([H])([H])[H])(C([H])([H])[H])C([H])([H])[H])C([H])([H])c2c([H])c(OC([H])([H])C([H])([H])C([H])([H])OC([H])([H])C([H])([H])N([H])C(=O)C([H])([H])C([H])([H])C([H])([H])C([H])([H])C([H])([H])N([H])C(=O)N3C([H])([H])C([H])([H])C([H])([H])C([H])(n4nc(-c5c([H])c([H])c(Oc6c([H])c([H])c(F)c([H])c6F)c([H])c5[H])c(C(=O)N([H])[H])c4N([H])[H])C3([H])[H])c([H])c([H])c2C1([H])[H]

>  <smiles>  (5) 
[H]c1c([H])c([H])c2c(c1[H])C([H])([H])C([H])([H])C([H])([H])C2([H])N([H])C(=O)C1([H])N(C(=O)C([H])(N([H])C(=O)C([H])(N([H])C([H])([H])[H])C([H])([H])[H])C(C([H])([H])[H])(C([H])([H])[H])C([H])([H])[H])C([H])([H])c2c([H])c(OC([H])([H])C([H])([H])C([H])([H])OC([H])([H])C([H])([H])N([H])C(=O)C([H])([H])C([H])([H])C([H])([H])C([H])([H])C([H])([H])N([H])C(=O)N3C([H])([H])C([H])([H])C([H])([H])C([H])(n4nc(-c5c([H])c([H])c(Oc6c([H])c([H])c(F)c([H])c6F)c([H])c5[H])c(C(=O)N([H])[H])c4N([H])[H])C3([H])[H])c([H])c([H])c2C1([H])[H]

$$$$
5:0:0
     RDKit          3D

 98105  0  0  1  0  0  0  0  0999 V2000
  -33.1470  -23.6130   19.2880 C   0  0  0  0  0  2  0  0  0  0  0  0
  -32.5730  -24.9960   18.9530 C   0  0  0  0  0  2  0  0  0  0  0  0
  -32.7950  -25.4070   17.4860 C   0  0  0  0  0  2  0  0  0  0  0  0
  -32.1970  -26.7760   17.0970 C   0  0  0  0  0  2  0  0  0  0  0  0
  -30.7170  -26.7820   17.1230 N   0  0  0  0  0  4  0  0  0  0  0  0
  -30.3900  -25.8670   16.8570 H   0  0  0  0  0  0  0  0  0  0  0  0
  -30.3960  -27.4200   16.4110 H   0  0  0  0  0  0  0  0  0  0  0  0
  -30.1080  -27.2020   18.4100 C   0  0  0  0  0  2  0  0  0  0  0  0
  -28.8680  -26.3660   18.7610 C   0  0  0  0  0  2  0  0  0  0  0  0
  -28.4130  -26.7770   20.0480 O   0  0  0  0  0  0  0  0  0  0  0  0
  -24.6110  -31.8720   23.2140 C   0  0  0  0  0  0  0  0  0  0  0  0
  -27.2370  -27.4810   20.0720 C   0  0  0  0  0  0  0  0  0  0  0  0
  -23.3950  -30.4950   21.5540 C   0  0  0  0  0  3  0  0  0  0  0  0
  -24.8410  -28.9640   20.1170 C   0  0  0  0  0  0  0  0  0  0  0  0
  -25.9200  -30.8460   21.3630 C   0  0  0  0  0  2  0  0  0  0  0  0
  -25.9970  -29.4820   20.7150 C   0  0  0  0  0  0  0  0  0  0  0  0
  -27.1960  -28.7400   20.7040 C   0  0  0  0  0  3  0  0  0  0  0  0
  -26.0600  -26.9550   19.4950 C   0  0  0  0  0  3  0  0  0  0  0  0
  -24.8630  -27.6950   19.5120 C   0  0  0  0  0  3  0  0  0  0  0  0
  -23.6020  -29.8280   20.1670 C   0  0  0  0  0  2  0  0  0  0  0  0
  -24.6600  -31.0850   22.1020 N   0  0  0  0  0  0  0  0  0  0  0  0
  -23.5310  -32.1470   23.7560 O   0  0  0  0  0  0  0  0  0  0  0  0
  -22.7380  -29.4680   22.5020 C   0  0  0  0  0  0  0  0  0  0  0  0
  -21.4120  -29.3030   22.3750 N   0  0  0  0  0  0  0  0  0  0  0  0
  -23.4170  -28.8230   23.3050 O   0  0  0  0  0  0  0  0  0  0  0  0
  -20.9270  -29.8730   21.6950 H   0  0  0  0  0  0  0  0  0  0  0  0
  -18.0260  -28.1380   22.8500 C   0  0  0  0  0  0  0  0  0  0  0  0
  -20.5850  -28.3660   23.1340 C   0  0  0  0  0  3  0  0  0  0  0  0
  -20.6760  -26.9400   22.5420 C   0  0  0  0  0  2  0  0  0  0  0  0
  -19.5730  -26.6390   21.5220 C   0  0  0  0  0  2  0  0  0  0  0  0
  -18.1910  -26.7930   22.1630 C   0  0  0  0  0  2  0  0  0  0  0  0
  -19.1510  -28.8840   23.2920 C   0  0  0  0  0  0  0  0  0  0  0  0
  -18.9440  -30.1450   23.8920 C   0  0  0  0  0  3  0  0  0  0  0  0
  -17.6440  -30.6590   24.0570 C   0  0  0  0  0  3  0  0  0  0  0  0
  -16.5330  -29.9090   23.6330 C   0  0  0  0  0  3  0  0  0  0  0  0
  -16.7250  -28.6510   23.0350 C   0  0  0  0  0  3  0  0  0  0  0  0
  -25.9020  -32.4840   23.8420 C   0  0  0  0  0  3  0  0  0  0  0  0
  -25.5910  -33.8640   24.2360 N   0  0  0  0  0  0  0  0  0  0  0  0
  -25.9040  -34.9490   23.5140 C   0  0  0  0  0  0  0  0  0  0  0  0
  -26.5580  -34.8930   22.4690 O   0  0  0  0  0  0  0  0  0  0  0  0
  -25.0120  -33.9820   25.0550 H   0  0  0  0  0  0  0  0  0  0  0  0
  -24.1490  -36.7310   23.2640 C   0  0  0  0  0  1  0  0  0  0  0  0
  -25.4110  -36.3120   24.0340 C   0  0  0  0  0  3  0  0  0  0  0  0
  -27.5580  -37.1820   24.8480 C   0  0  0  0  0  1  0  0  0  0  0  0
  -26.4300  -37.3800   23.9410 N   0  0  0  0  0  0  0  0  0  0  0  0
  -26.0200  -38.2890   24.1390 H   0  0  0  0  0  0  0  0  0  0  0  0
  -26.4470  -31.6600   25.0720 C   0  0  1  0  0  0  0  0  0  0  0  0
  -25.3740  -31.3660   26.1450 C   0  0  0  0  0  1  0  0  0  0  0  0
  -27.0330  -30.3070   24.6060 C   0  0  0  0  0  1  0  0  0  0  0  0
  -27.6050  -32.4320   25.7490 C   0  0  0  0  0  1  0  0  0  0  0  0
  -32.7450  -23.1570   20.6990 C   0  0  0  0  0  2  0  0  0  0  0  0
  -33.1150  -21.6930   20.9740 C   0  0  0  0  0  2  0  0  0  0  0  0
  -32.5800  -21.1920   22.3270 C   0  0  0  0  0  2  0  0  0  0  0  0
  -32.8100  -19.7440   22.4930 N   0  0  0  0  0  4  0  0  0  0  0  0
  -33.8020  -19.5650   22.4690 H   0  0  0  0  0  0  0  0  0  0  0  0
  -32.3910  -19.2690   21.7100 H   0  0  0  0  0  0  0  0  0  0  0  0
  -32.2530  -19.1770   23.7380 C   0  0  0  0  0  2  0  0  0  0  0  0
  -32.3860  -17.6450   23.7740 C   0  0  0  0  0  2  0  0  0  0  0  0
  -31.4410  -16.9160   22.7990 C   0  0  0  0  0  2  0  0  0  0  0  0
  -31.6540  -15.3970   22.8450 C   0  0  0  0  0  2  0  0  0  0  0  0
  -30.8350  -14.2670   20.7750 C   0  0  0  0  0  0  0  0  0  0  0  0
  -30.4080  -12.2930   19.3610 C   0  0  0  0  0  2  0  0  0  0  0  0
  -29.4660  -12.5420   18.1740 C   0  0  0  0  0  2  0  0  0  0  0  0
  -27.9990  -12.3800   18.6040 C   0  0  0  0  0  2  0  0  0  0  0  0
  -27.6640  -13.2030   19.8740 C   0  0  0  0  0  3  0  0  0  0  0  0
  -28.7020  -12.9490   20.9880 C   0  0  0  0  0  2  0  0  0  0  0  0
  -30.0520  -13.2100   20.4520 N   0  0  0  0  0  0  0  0  0  0  0  0
  -31.7590  -14.6830   20.0690 O   0  0  0  0  0  0  0  0  0  0  0  0
  -30.6780  -14.6680   22.0420 N   0  0  0  0  0  0  0  0  0  0  0  0
  -29.9160  -14.2330   22.5420 H   0  0  0  0  0  0  0  0  0  0  0  0
  -25.2590  -13.8160   20.5670 C   0  0  0  0  0  0  0  0  0  0  0  0
  -24.1840  -13.0440   20.9170 C   0  0  0  0  0  0  0  0  0  0  0  0
  -24.6390  -11.6910   20.8730 C   0  0  0  0  0  0  0  0  0  0  0  0
  -26.3030  -12.9320   20.3360 N   0  0  0  0  0  0  0  0  0  0  0  0
  -25.9310  -11.6490   20.5750 N   0  0  0  0  0  0  0  0  0  0  0  0
  -23.9050  -10.4290   21.0400 C   0  0  0  0  0  0  0  0  0  0  0  0
  -24.3600   -9.4210   21.9190 C   0  0  0  0  0  3  0  0  0  0  0  0
  -23.6280   -8.2250   22.0760 C   0  0  0  0  0  3  0  0  0  0  0  0
  -22.4270   -8.0280   21.3540 C   0  0  0  0  0  0  0  0  0  0  0  0
  -21.9900   -9.0250   20.4650 C   0  0  0  0  0  3  0  0  0  0  0  0
  -22.7230  -10.2130   20.3050 C   0  0  0  0  0  3  0  0  0  0  0  0
  -21.6630   -6.8880   21.4240 O   0  0  0  0  0  0  0  0  0  0  0  0
  -21.6850   -6.0730   22.5280 C   0  0  0  0  0  0  0  0  0  0  0  0
  -21.4010   -6.5640   23.8220 C   0  0  0  0  0  3  0  0  0  0  0  0
  -21.3660   -5.6790   24.9180 C   0  0  0  0  0  3  0  0  0  0  0  0
  -21.6050   -4.3050   24.7230 C   0  0  0  0  0  0  0  0  0  0  0  0
  -21.8820   -3.8140   23.4350 C   0  0  0  0  0  3  0  0  0  0  0  0
  -21.9190   -4.6960   22.3400 C   0  0  0  0  0  0  0  0  0  0  0  0
  -22.1660   -4.2150   21.0980 F   0  0  0  0  0  0  0  0  0  0  0  0
  -21.5630   -3.4540   25.7740 F   0  0  0  0  0  0  0  0  0  0  0  0
  -22.7860  -13.5240   21.1840 C   0  0  0  0  0  0  0  0  0  0  0  0
  -22.0500  -12.8230   22.0390 N   0  0  0  0  0  0  0  0  0  0  0  0
  -22.3550  -14.5550   20.6690 O   0  0  0  0  0  0  0  0  0  0  0  0
  -22.4110  -11.9870   22.4770 H   0  0  0  0  0  0  0  0  0  0  0  0
  -21.1120  -13.1250   22.2600 H   0  0  0  0  0  0  0  0  0  0  0  0
  -25.4340  -15.1880   20.4090 N   0  0  0  0  0  0  0  0  0  0  0  0
  -24.6760  -15.8510   20.5240 H   0  0  0  0  0  0  0  0  0  0  0  0
  -26.3000  -15.6220   20.1110 H   0  0  0  0  0  0  0  0  0  0  0  0
  1 51  1  0
  2  1  1  0
  3  2  1  0
  4  5  1  0
  4  3  1  0
  5  8  1  0
  6  5  1  0
  7  5  1  0
  8  9  1  0
  9 10  1  0
 10 12  1  0
 11 22  2  0
 12 17  1  0
 13 21  1  0
 13 23  1  0
 14 20  1  0
 14 16  1  0
 15 21  1  0
 16 15  1  0
 17 16  2  0
 18 19  1  0
 18 12  2  0
 19 14  2  0
 20 13  1  0
 21 11  1  0
 23 25  2  0
 24 23  1  0
 26 24  1  0
 27 36  2  0
 27 32  1  0
 28 24  1  0
 28 32  1  0
 29 28  1  0
 30 31  1  0
 30 29  1  0
 31 27  1  0
 32 33  2  0
 33 34  1  0
 35 34  2  0
 36 35  1  0
 37 11  1  0
 37 38  1  0
 37 47  1  0
 38 41  1  0
 39 43  1  0
 39 38  1  0
 40 39  2  0
 43 42  1  0
 45 43  1  0
 45 46  1  0
 45 44  1  0
 47 50  1  1
 47 48  1  0
 49 47  1  0
 51 52  1  0
 52 53  1  0
 53 54  1  0
 54 57  1  0
 55 54  1  0
 56 54  1  0
 57 58  1  0
 59 60  1  0
 59 58  1  0
 61 69  1  0
 62 67  1  0
 63 64  1  0
 63 62  1  0
 65 64  1  0
 65 74  1  0
 65 66  1  0
 67 61  1  0
 67 66  1  0
 68 61  2  0
 69 70  1  0
 69 60  1  0
 71 72  2  0
 72 91  1  0
 73 72  1  0
 73 76  1  0
 74 71  1  0
 74 75  1  0
 75 73  2  0
 76 77  1  0
 77 78  2  0
 79 82  1  0
 79 78  1  0
 80 79  2  0
 81 80  1  0
 81 76  2  0
 82 83  1  0
 83 84  1  0
 84 85  2  0
 86 85  1  0
 86 90  1  0
 87 86  2  0
 88 83  2  0
 88 87  1  0
 89 88  1  0
 91 92  1  0
 92 95  1  0
 92 94  1  0
 93 91  2  0
 96 97  1  0
 96 71  1  0
 98 96  1  0
M  ISO  4   9 101  10 101  61 100  69 100
M  END
>  <TORSDO>  (6) 
F 30

>  <SCORE>  (6) 
-3.569

>  <name>  (6) 
5

>  <ligand_id>  (6) 
5

>  <original_smiles>  (6) 
[H]c1c([H])c([H])c2c(c1[H])C([H])([H])C([H])([H])C([H])([H])C2([H])N([H])C(=O)C1([H])N(C(=O)C([H])(N([H])C(=O)C([H])(N([H])C([H])([H])[H])C([H])([H])[H])C(C([H])([H])[H])(C([H])([H])[H])C([H])([H])[H])C([H])([H])c2c([H])c(OC([H])([H])C([H])([H])[N+]([H])([H])C([H])([H])C([H])([H])C([H])([H])C([H])([H])C([H])([H])C([H])([H])C([H])([H])[N+]([H])([H])C([H])([H])C([H])([H])C([H])([H])C([H])([H])N([H])C(=O)N3C([H])([H])C([H])([H])C([H])([H])C([H])(n4nc(-c5c([H])c([H])c(Oc6c([H])c([H])c(F)c([H])c6F)c([H])c5[H])c(C(=O)N([H])[H])c4N([H])[H])C3([H])[H])c([H])c([H])c2C1([H])[H]

>  <smiles>  (6) 
[H]c1c([H])c([H])c2c(c1[H])C([H])([H])C([H])([H])C([H])([H])C2([H])N([H])C(=O)C1([H])N(C(=O)C([H])(N([H])C(=O)C([H])(N([H])C([H])([H])[H])C([H])([H])[H])C(C([H])([H])[H])(C([H])([H])[H])C([H])([H])[H])C([H])([H])c2c([H])c(OC([H])([H])C([H])([H])[N+]([H])([H])C([H])([H])C([H])([H])C([H])([H])C([H])([H])C([H])([H])C([H])([H])C([H])([H])[N+]([H])([H])C([H])([H])C([H])([H])C([H])([H])C([H])([H])N([H])C(=O)N3C([H])([H])C([H])([H])C([H])([H])C([H])(n4nc(-c5c([H])c([H])c(Oc6c([H])c([H])c(F)c([H])c6F)c([H])c5[H])c(C(=O)N([H])[H])c4N([H])[H])C3([H])[H])c([H])c([H])c2C1([H])[H]

$$$$
6:0:0
     RDKit          3D

 93100  0  0  1  0  0  0  0  0999 V2000
  -27.5050  -20.3910   20.6480 N   0  0  0  0  0  0  0  0  0  0  0  0
  -27.6330  -20.5630   19.6530 H   0  0  0  0  0  0  0  0  0  0  0  0
  -27.9500  -19.0380   20.9690 C   0  0  0  0  0  2  0  0  0  0  0  0
  -29.2670  -18.6730   20.2480 C   0  0  0  0  0  2  0  0  0  0  0  0
  -29.9240  -17.5170   20.8800 N   0  0  0  0  0  4  0  0  0  0  0  0
  -29.9580  -17.6610   21.8760 H   0  0  0  0  0  0  0  0  0  0  0  0
  -29.3700  -16.6960   20.7050 H   0  0  0  0  0  0  0  0  0  0  0  0
  -31.2970  -17.2680   20.3960 C   0  0  0  0  0  2  0  0  0  0  0  0
  -31.8890  -15.9920   21.0190 C   0  0  0  0  0  2  0  0  0  0  0  0
  -31.2580  -14.0190   19.6480 C   0  0  0  0  0  0  0  0  0  0  0  0
  -30.8060  -11.7560   18.7910 C   0  0  0  0  0  2  0  0  0  0  0  0
  -29.8070  -11.7340   17.6240 C   0  0  0  0  0  2  0  0  0  0  0  0
  -28.3610  -11.6800   18.1480 C   0  0  0  0  0  2  0  0  0  0  0  0
  -28.0810  -12.7680   19.2150 C   0  0  0  0  0  3  0  0  0  0  0  0
  -29.1760  -12.7670   20.3050 C   0  0  0  0  0  2  0  0  0  0  0  0
  -30.4980  -12.8980   19.6610 N   0  0  0  0  0  0  0  0  0  0  0  0
  -32.1390  -14.2480   18.8140 O   0  0  0  0  0  0  0  0  0  0  0  0
  -31.0830  -14.8110   20.7120 N   0  0  0  0  0  0  0  0  0  0  0  0
  -30.4380  -14.4790   21.4150 H   0  0  0  0  0  0  0  0  0  0  0  0
  -25.7890  -13.5750   20.0770 C   0  0  0  0  0  0  0  0  0  0  0  0
  -24.6960  -12.8940   20.5430 C   0  0  0  0  0  0  0  0  0  0  0  0
  -25.0500  -11.5110   20.5080 C   0  0  0  0  0  0  0  0  0  0  0  0
  -26.7460  -12.6120   19.7940 N   0  0  0  0  0  0  0  0  0  0  0  0
  -26.3060  -11.3670   20.1070 N   0  0  0  0  0  0  0  0  0  0  0  0
  -24.2470  -10.3110   20.7800 C   0  0  0  0  0  0  0  0  0  0  0  0
  -24.6190   -9.3840   21.7780 C   0  0  0  0  0  3  0  0  0  0  0  0
  -23.8220   -8.2470   22.0330 C   0  0  0  0  0  3  0  0  0  0  0  0
  -22.6380   -8.0310   21.2900 C   0  0  0  0  0  0  0  0  0  0  0  0
  -22.2840   -8.9450   20.2820 C   0  0  0  0  0  3  0  0  0  0  0  0
  -23.0800  -10.0730   20.0260 C   0  0  0  0  0  3  0  0  0  0  0  0
  -21.8160   -6.9410   21.4510 O   0  0  0  0  0  0  0  0  0  0  0  0
  -21.6650   -6.3260   22.6680 C   0  0  0  0  0  0  0  0  0  0  0  0
  -21.1940   -7.0230   23.8010 C   0  0  0  0  0  3  0  0  0  0  0  0
  -20.9890   -6.3360   25.0140 C   0  0  0  0  0  3  0  0  0  0  0  0
  -21.2440   -4.9530   25.0940 C   0  0  0  0  0  0  0  0  0  0  0  0
  -21.7070   -4.2570   23.9640 C   0  0  0  0  0  3  0  0  0  0  0  0
  -21.9140   -4.9410   22.7530 C   0  0  0  0  0  0  0  0  0  0  0  0
  -22.3410   -4.2610   21.6620 F   0  0  0  0  0  0  0  0  0  0  0  0
  -21.0380   -4.2920   26.2560 F   0  0  0  0  0  0  0  0  0  0  0  0
  -23.3630  -13.4810   20.9070 C   0  0  0  0  0  0  0  0  0  0  0  0
  -22.6620  -12.8720   21.8580 N   0  0  0  0  0  0  0  0  0  0  0  0
  -22.9550  -14.5160   20.3810 O   0  0  0  0  0  0  0  0  0  0  0  0
  -23.0070  -12.0340   22.3030 H   0  0  0  0  0  0  0  0  0  0  0  0
  -21.7700  -13.2480   22.1420 H   0  0  0  0  0  0  0  0  0  0  0  0
  -26.0430  -14.9250   19.8530 N   0  0  0  0  0  0  0  0  0  0  0  0
  -25.3240  -15.6310   19.9730 H   0  0  0  0  0  0  0  0  0  0  0  0
  -26.8680  -15.2750   19.3840 H   0  0  0  0  0  0  0  0  0  0  0  0
  -28.2300  -21.3840   21.4300 C   0  0  0  0  0  2  0  0  0  0  0  0
  -27.8850  -22.7840   20.9220 C   0  0  0  0  0  2  0  0  0  0  0  0
  -28.7760  -23.8470   21.5790 C   0  0  0  0  0  2  0  0  0  0  0  0
  -28.4470  -25.2800   21.1450 C   0  0  0  0  0  2  0  0  0  0  0  0
  -28.7550  -25.5720   19.6620 C   0  0  0  0  0  2  0  0  0  0  0  0
  -28.6790  -26.9690   19.3980 O   0  0  0  0  0  0  0  0  0  0  0  0
  -24.5560  -31.5130   22.9450 C   0  0  0  0  0  0  0  0  0  0  0  0
  -27.4370  -27.5520   19.4760 C   0  0  0  0  0  0  0  0  0  0  0  0
  -23.4080  -30.1450   21.2310 C   0  0  0  0  0  3  0  0  0  0  0  0
  -24.9300  -28.8290   19.6670 C   0  0  0  0  0  0  0  0  0  0  0  0
  -25.8890  -30.7180   20.9990 C   0  0  0  0  0  2  0  0  0  0  0  0
  -26.0580  -29.4090   20.2590 C   0  0  0  0  0  0  0  0  0  0  0  0
  -27.3140  -28.7780   20.1590 C   0  0  0  0  0  3  0  0  0  0  0  0
  -26.2910  -26.9710   18.8870 C   0  0  0  0  0  3  0  0  0  0  0  0
  -25.0390  -27.6060   18.9810 C   0  0  0  0  0  3  0  0  0  0  0  0
  -23.6260  -29.5800   19.8020 C   0  0  0  0  0  2  0  0  0  0  0  0
  -24.6370  -30.8020   21.7840 N   0  0  0  0  0  0  0  0  0  0  0  0
  -23.4750  -31.6620   23.5300 O   0  0  0  0  0  0  0  0  0  0  0  0
  -22.8640  -29.0110   22.1290 C   0  0  0  0  0  0  0  0  0  0  0  0
  -21.5530  -28.7400   22.0190 N   0  0  0  0  0  0  0  0  0  0  0  0
  -23.6160  -28.3800   22.8760 O   0  0  0  0  0  0  0  0  0  0  0  0
  -21.0050  -29.3060   21.3870 H   0  0  0  0  0  0  0  0  0  0  0  0
  -18.2930  -27.2630   22.4960 C   0  0  0  0  0  0  0  0  0  0  0  0
  -20.8300  -27.6910   22.7360 C   0  0  0  0  0  3  0  0  0  0  0  0
  -21.0230  -26.3160   22.0550 C   0  0  0  0  0  2  0  0  0  0  0  0
  -19.9220  -25.9850   21.0420 C   0  0  0  0  0  2  0  0  0  0  0  0
  -18.5510  -25.9810   21.7230 C   0  0  0  0  0  2  0  0  0  0  0  0
  -19.3630  -28.0740   22.9580 C   0  0  0  0  0  0  0  0  0  0  0  0
  -19.0680  -29.2740   23.6420 C   0  0  0  0  0  3  0  0  0  0  0  0
  -17.7360  -29.6660   23.8680 C   0  0  0  0  0  3  0  0  0  0  0  0
  -16.6800  -28.8510   23.4220 C   0  0  0  0  0  3  0  0  0  0  0  0
  -16.9590  -27.6520   22.7430 C   0  0  0  0  0  3  0  0  0  0  0  0
  -25.8100  -32.1910   23.5780 C   0  0  0  0  0  3  0  0  0  0  0  0
  -26.4120  -31.3810   24.7910 C   0  0  1  0  0  0  0  0  0  0  0  0
  -25.3670  -31.0040   25.8670 C   0  0  0  0  0  1  0  0  0  0  0  0
  -27.0730  -30.0720   24.2980 C   0  0  0  0  0  1  0  0  0  0  0  0
  -27.5240  -32.2080   25.4760 C   0  0  0  0  0  1  0  0  0  0  0  0
  -25.4160  -33.5420   23.9980 N   0  0  0  0  0  0  0  0  0  0  0  0
  -25.6660  -34.6580   23.3010 C   0  0  0  0  0  0  0  0  0  0  0  0
  -26.3240  -34.6630   22.2560 O   0  0  0  0  0  0  0  0  0  0  0  0
  -24.8270  -33.6070   24.8160 H   0  0  0  0  0  0  0  0  0  0  0  0
  -23.8190  -36.3490   23.0730 C   0  0  0  0  0  1  0  0  0  0  0  0
  -25.0930  -35.9800   23.8470 C   0  0  0  0  0  3  0  0  0  0  0  0
  -27.1730  -36.9540   24.7160 C   0  0  0  0  0  1  0  0  0  0  0  0
  -26.0540  -37.1050   23.7910 N   0  0  0  0  0  0  0  0  0  0  0  0
  -25.5890  -37.9850   23.9950 H   0  0  0  0  0  0  0  0  0  0  0  0
  1  3  1  0
  1 48  1  0
  2  1  1  0
  4  5  1  0
  4  3  1  0
  5  6  1  0
  7  5  1  0
  8  5  1  0
  8  9  1  0
 10 16  1  0
 10 18  1  0
 11 16  1  0
 12 13  1  0
 12 11  1  0
 14 13  1  0
 14 23  1  0
 14 15  1  0
 16 15  1  0
 17 10  2  0
 18  9  1  0
 18 19  1  0
 20 21  2  0
 21 40  1  0
 22 21  1  0
 22 25  1  0
 23 20  1  0
 23 24  1  0
 24 22  2  0
 25 26  1  0
 26 27  2  0
 28 31  1  0
 28 27  1  0
 29 28  2  0
 30 29  1  0
 30 25  2  0
 31 32  1  0
 32 37  2  0
 32 33  1  0
 33 34  2  0
 34 35  1  0
 35 39  1  0
 36 35  2  0
 37 36  1  0
 38 37  1  0
 40 41  1  0
 41 44  1  0
 41 43  1  0
 42 40  2  0
 45 46  1  0
 45 20  1  0
 47 45  1  0
 49 48  1  0
 49 50  1  0
 51 50  1  0
 52 51  1  0
 53 55  1  0
 53 52  1  0
 54 65  2  0
 55 60  1  0
 56 64  1  0
 56 66  1  0
 57 63  1  0
 57 59  1  0
 58 64  1  0
 59 58  1  0
 60 59  2  0
 61 62  1  0
 61 55  2  0
 62 57  2  0
 63 56  1  0
 64 54  1  0
 66 68  2  0
 67 66  1  0
 69 67  1  0
 70 79  2  0
 70 75  1  0
 71 67  1  0
 71 75  1  0
 72 71  1  0
 73 74  1  0
 73 72  1  0
 74 70  1  0
 75 76  2  0
 76 77  1  0
 78 77  2  0
 79 78  1  0
 80 54  1  0
 80 85  1  0
 80 81  1  0
 81 84  1  1
 81 82  1  0
 83 81  1  0
 85 88  1  0
 86 90  1  0
 86 85  1  0
 87 86  2  0
 90 89  1  0
 92 90  1  0
 92 93  1  0
 92 91  1  0
M  ISO  4  10 100  18 100  52 101  53 101
M  END
>  <TORSDO>  (7) 
F 26

>  <SCORE>  (7) 
-9.372

>  <name>  (7) 
6

>  <ligand_id>  (7) 
6

>  <original_smiles>  (7) 
[H]c1c([H])c([H])c2c(c1[H])C([H])([H])C([H])([H])C([H])([H])C2([H])N([H])C(=O)C1([H])N(C(=O)C([H])(N([H])C(=O)C([H])(N([H])C([H])([H])[H])C([H])([H])[H])C(C([H])([H])[H])(C([H])([H])[H])C([H])([H])[H])C([H])([H])c2c([H])c(OC([H])([H])C([H])([H])C([H])([H])C([H])([H])C([H])([H])N([H])C([H])([H])C([H])([H])[N+]([H])([H])C([H])([H])C([H])([H])N([H])C(=O)N3C([H])([H])C([H])([H])C([H])([H])C([H])(n4nc(-c5c([H])c([H])c(Oc6c([H])c([H])c(F)c([H])c6F)c([H])c5[H])c(C(=O)N([H])[H])c4N([H])[H])C3([H])[H])c([H])c([H])c2C1([H])[H]

>  <smiles>  (7) 
[H]c1c([H])c([H])c2c(c1[H])C([H])([H])C([H])([H])C([H])([H])C2([H])N([H])C(=O)C1([H])N(C(=O)C([H])(N([H])C(=O)C([H])(N([H])C([H])([H])[H])C([H])([H])[H])C(C([H])([H])[H])(C([H])([H])[H])C([H])([H])[H])C([H])([H])c2c([H])c(OC([H])([H])C([H])([H])C([H])([H])C([H])([H])C([H])([H])N([H])C([H])([H])C([H])([H])[N+]([H])([H])C([H])([H])C([H])([H])N([H])C(=O)N3C([H])([H])C([H])([H])C([H])([H])C([H])(n4nc(-c5c([H])c([H])c(Oc6c([H])c([H])c(F)c([H])c6F)c([H])c5[H])c(C(=O)N([H])[H])c4N([H])[H])C3([H])[H])c([H])c([H])c2C1([H])[H]

$$$$
7:0:0
     RDKit          3D

 88 95  0  0  1  0  0  0  0  0999 V2000
  -29.1220  -21.1830   20.9520 C   0  0  0  0  0  0  0  0  0  0  0  0
  -29.0000  -22.3570   20.2290 N   0  0  0  0  0  0  0  0  0  0  0  0
  -28.9780  -21.2090   22.1750 O   0  0  0  0  0  0  0  0  0  0  0  0
  -29.0950  -22.2590   19.2270 H   0  0  0  0  0  0  0  0  0  0  0  0
  -29.5040  -19.9250   20.2140 C   0  0  0  0  0  3  0  0  0  0  0  0
  -29.7080  -18.6780   20.7930 C   0  0  0  0  0  3  0  0  0  0  0  0
  -30.2780  -17.3600   20.1080 C   0  0  0  0  0  2  0  0  0  0  0  0
  -30.6170  -14.7850   20.3000 C   0  0  0  0  0  0  0  0  0  0  0  0
  -30.3680  -12.5220   19.2800 C   0  0  0  0  0  2  0  0  0  0  0  0
  -29.4290  -12.6220   18.0590 C   0  0  0  0  0  2  0  0  0  0  0  0
  -27.9570  -12.4700   18.4910 C   0  0  0  0  0  2  0  0  0  0  0  0
  -27.6030  -13.3440   19.7260 C   0  0  0  0  0  3  0  0  0  0  0  0
  -28.6670  -13.2370   20.8390 C   0  0  0  0  0  2  0  0  0  0  0  0
  -29.9640  -13.5740   20.2410 N   0  0  0  0  0  0  0  0  0  0  0  0
  -31.7920  -14.8630   19.9320 O   0  0  0  0  0  0  0  0  0  0  0  0
  -29.8890  -15.9430   20.5380 N   0  0  0  0  0  0  0  0  0  0  0  0
  -28.9320  -15.8060   20.8260 H   0  0  0  0  0  0  0  0  0  0  0  0
  -25.2180  -13.9350   20.4650 C   0  0  0  0  0  0  0  0  0  0  0  0
  -24.1550  -13.1620   20.8450 C   0  0  0  0  0  0  0  0  0  0  0  0
  -24.6180  -11.8100   20.8140 C   0  0  0  0  0  0  0  0  0  0  0  0
  -26.2610  -13.0560   20.2250 N   0  0  0  0  0  0  0  0  0  0  0  0
  -25.9070  -11.7730   20.4980 N   0  0  0  0  0  0  0  0  0  0  0  0
  -23.8920  -10.5490   21.0120 C   0  0  0  0  0  0  0  0  0  0  0  0
  -24.3300   -9.5810   21.9420 C   0  0  0  0  0  3  0  0  0  0  0  0
  -23.6030   -8.3860   22.1290 C   0  0  0  0  0  3  0  0  0  0  0  0
  -22.4220   -8.1500   21.3850 C   0  0  0  0  0  0  0  0  0  0  0  0
  -22.0020   -9.1060   20.4440 C   0  0  0  0  0  3  0  0  0  0  0  0
  -22.7310  -10.2940   20.2560 C   0  0  0  0  0  3  0  0  0  0  0  0
  -21.6660   -7.0060   21.4810 O   0  0  0  0  0  0  0  0  0  0  0  0
  -21.6300   -6.2610   22.6320 C   0  0  0  0  0  0  0  0  0  0  0  0
  -21.2200   -6.8140   23.8650 C   0  0  0  0  0  3  0  0  0  0  0  0
  -21.1310   -5.9930   25.0080 C   0  0  0  0  0  3  0  0  0  0  0  0
  -21.4410   -4.6240   24.9190 C   0  0  0  0  0  0  0  0  0  0  0  0
  -21.8450   -4.0710   23.6920 C   0  0  0  0  0  3  0  0  0  0  0  0
  -21.9350   -4.8880   22.5500 C   0  0  0  0  0  0  0  0  0  0  0  0
  -22.3030   -4.3450   21.3640 F   0  0  0  0  0  0  0  0  0  0  0  0
  -21.3510   -3.8350   26.0160 F   0  0  0  0  0  0  0  0  0  0  0  0
  -22.7590  -13.6410   21.1210 C   0  0  0  0  0  0  0  0  0  0  0  0
  -22.0350  -12.9500   21.9940 N   0  0  0  0  0  0  0  0  0  0  0  0
  -22.3190  -14.6630   20.5970 O   0  0  0  0  0  0  0  0  0  0  0  0
  -22.4040  -12.1250   22.4430 H   0  0  0  0  0  0  0  0  0  0  0  0
  -21.0980  -13.2540   22.2210 H   0  0  0  0  0  0  0  0  0  0  0  0
  -25.3790  -15.3050   20.2830 N   0  0  0  0  0  0  0  0  0  0  0  0
  -24.6090  -15.9570   20.3980 H   0  0  0  0  0  0  0  0  0  0  0  0
  -26.2190  -15.7460   19.9300 H   0  0  0  0  0  0  0  0  0  0  0  0
  -28.9870  -23.8060   20.7370 C   0  0  0  0  0  3  0  0  0  0  0  0
  -28.0570  -24.9270   20.0310 C   0  0  0  0  0  3  0  0  0  0  0  0
  -28.2680  -26.4040   20.2680 O   0  0  0  0  0  0  0  0  0  0  0  0
  -24.6040  -31.9140   23.2220 C   0  0  0  0  0  0  0  0  0  0  0  0
  -27.1810  -27.3060   20.1740 C   0  0  0  0  0  0  0  0  0  0  0  0
  -23.3950  -30.5240   21.5800 C   0  0  0  0  0  3  0  0  0  0  0  0
  -24.8390  -28.9720   20.1450 C   0  0  0  0  0  0  0  0  0  0  0  0
  -25.9380  -30.8230   21.3990 C   0  0  0  0  0  2  0  0  0  0  0  0
  -26.0110  -29.4410   20.7510 C   0  0  0  0  0  0  0  0  0  0  0  0
  -27.1840  -28.6180   20.7580 C   0  0  0  0  0  3  0  0  0  0  0  0
  -25.9910  -26.9150   19.5180 C   0  0  0  0  0  3  0  0  0  0  0  0
  -24.8340  -27.7180   19.5180 C   0  0  0  0  0  3  0  0  0  0  0  0
  -23.6080  -29.8560   20.1970 C   0  0  0  0  0  2  0  0  0  0  0  0
  -24.6650  -31.1060   22.1230 N   0  0  0  0  0  0  0  0  0  0  0  0
  -23.5210  -32.1960   23.7560 O   0  0  0  0  0  0  0  0  0  0  0  0
  -22.7300  -29.5060   22.5390 C   0  0  0  0  0  0  0  0  0  0  0  0
  -21.4020  -29.3320   22.4180 N   0  0  0  0  0  0  0  0  0  0  0  0
  -23.4080  -28.8780   23.3560 O   0  0  0  0  0  0  0  0  0  0  0  0
  -20.9110  -29.8920   21.7350 H   0  0  0  0  0  0  0  0  0  0  0  0
  -18.0240  -28.1470   22.9350 C   0  0  0  0  0  0  0  0  0  0  0  0
  -20.5850  -28.3960   23.1910 C   0  0  0  0  0  3  0  0  0  0  0  0
  -20.6770  -26.9650   22.6100 C   0  0  0  0  0  2  0  0  0  0  0  0
  -19.5670  -26.6500   21.6020 C   0  0  0  0  0  2  0  0  0  0  0  0
  -18.1900  -26.7990   22.2530 C   0  0  0  0  0  2  0  0  0  0  0  0
  -19.1480  -28.9030   23.3610 C   0  0  0  0  0  0  0  0  0  0  0  0
  -18.9370  -30.1640   23.9590 C   0  0  0  0  0  3  0  0  0  0  0  0
  -17.6340  -30.6700   24.1330 C   0  0  0  0  0  3  0  0  0  0  0  0
  -16.5250  -29.9120   23.7210 C   0  0  0  0  0  3  0  0  0  0  0  0
  -16.7210  -28.6510   23.1270 C   0  0  0  0  0  3  0  0  0  0  0  0
  -25.8870  -32.5440   23.8430 C   0  0  0  0  0  3  0  0  0  0  0  0
  -26.3980  -31.7750   25.1240 C   0  0  1  0  0  0  0  0  0  0  0  0
  -25.3030  -31.5510   26.1920 C   0  0  0  0  0  1  0  0  0  0  0  0
  -26.9730  -30.3910   24.7400 C   0  0  0  0  0  1  0  0  0  0  0  0
  -27.5520  -32.5650   25.7850 C   0  0  0  0  0  1  0  0  0  0  0  0
  -25.5820  -33.9440   24.1700 N   0  0  0  0  0  0  0  0  0  0  0  0
  -25.9120  -34.9940   23.4060 C   0  0  0  0  0  0  0  0  0  0  0  0
  -26.5760  -34.8850   22.3710 O   0  0  0  0  0  0  0  0  0  0  0  0
  -24.9920  -34.1010   24.9730 H   0  0  0  0  0  0  0  0  0  0  0  0
  -24.1860  -36.7920   23.0620 C   0  0  0  0  0  1  0  0  0  0  0  0
  -25.4320  -36.3850   23.8640 C   0  0  0  0  0  3  0  0  0  0  0  0
  -27.5750  -37.2700   24.6750 C   0  0  0  0  0  1  0  0  0  0  0  0
  -26.4660  -37.4360   23.7390 N   0  0  0  0  0  0  0  0  0  0  0  0
  -26.0620  -38.3560   23.8870 H   0  0  0  0  0  0  0  0  0  0  0  0
  1  3  2  0
  2 46  1  0
  2  1  1  0
  4  2  1  0
  5  6  2  0
  5  1  1  0
  7 16  1  0
  7  6  1  0
  8 16  1  0
  9 14  1  0
 10 11  1  0
 10  9  1  0
 12 11  1  0
 12 21  1  0
 12 13  1  0
 14  8  1  0
 14 13  1  0
 15  8  2  0
 16 17  1  0
 18 19  2  0
 19 38  1  0
 20 19  1  0
 20 23  1  0
 21 18  1  0
 21 22  1  0
 22 20  2  0
 23 24  1  0
 24 25  2  0
 26 29  1  0
 26 25  1  0
 27 26  2  0
 28 27  1  0
 28 23  2  0
 29 30  1  0
 30 31  1  0
 31 32  2  0
 33 32  1  0
 33 37  1  0
 34 33  2  0
 35 30  2  0
 35 34  1  0
 36 35  1  0
 38 39  1  0
 39 42  1  0
 39 41  1  0
 40 38  2  0
 43 44  1  0
 43 18  1  0
 45 43  1  0
 47 48  1  0
 47 46  2  0
 49 60  2  0
 50 48  1  0
 50 55  1  0
 51 59  1  0
 51 61  1  0
 52 58  1  0
 52 54  1  0
 53 59  1  0
 54 55  2  0
 54 53  1  0
 56 50  2  0
 57 56  1  0
 57 52  2  0
 58 51  1  0
 59 49  1  0
 61 63  2  0
 62 61  1  0
 64 62  1  0
 65 74  2  0
 65 70  1  0
 66 62  1  0
 66 70  1  0
 67 66  1  0
 68 69  1  0
 68 67  1  0
 69 65  1  0
 70 71  2  0
 71 72  1  0
 73 72  2  0
 74 73  1  0
 75 49  1  0
 75 80  1  0
 75 76  1  0
 76 79  1  1
 76 77  1  0
 78 76  1  0
 80 83  1  0
 81 85  1  0
 81 80  1  0
 82 81  2  0
 85 84  1  0
 87 85  1  0
 87 88  1  0
 87 86  1  0
M  ISO  4   8 100  16 100  47 101  48 101
M  END
>  <TORSDO>  (8) 
F 20

>  <SCORE>  (8) 
-13.638

>  <name>  (8) 
7

>  <ligand_id>  (8) 
7

>  <original_smiles>  (8) 
[H]C(C(=O)N([H])C([H])([H])C([H])([H])Oc1c([H])c([H])c2c(c1[H])C([H])([H])N(C(=O)C([H])(N([H])C(=O)C([H])(N([H])C([H])([H])[H])C([H])([H])[H])C(C([H])([H])[H])(C([H])([H])[H])C([H])([H])[H])C([H])(C(=O)N([H])C1([H])c3c([H])c([H])c([H])c([H])c3C([H])([H])C([H])([H])C1([H])[H])C2([H])[H])=C([H])C([H])([H])N([H])C(=O)N1C([H])([H])C([H])([H])C([H])([H])C([H])(n2nc(-c3c([H])c([H])c(Oc4c([H])c([H])c(F)c([H])c4F)c([H])c3[H])c(C(=O)N([H])[H])c2N([H])[H])C1([H])[H]

>  <smiles>  (8) 
[H]C(C(=O)N([H])C([H])([H])C([H])([H])Oc1c([H])c([H])c2c(c1[H])C([H])([H])N(C(=O)C([H])(N([H])C(=O)C([H])(N([H])C([H])([H])[H])C([H])([H])[H])C(C([H])([H])[H])(C([H])([H])[H])C([H])([H])[H])C([H])(C(=O)N([H])C1([H])c3c([H])c([H])c([H])c([H])c3C([H])([H])C([H])([H])C1([H])[H])C2([H])[H])=C([H])C([H])([H])N([H])C(=O)N1C([H])([H])C([H])([H])C([H])([H])C([H])(n2nc(-c3c([H])c([H])c(Oc4c([H])c([H])c(F)c([H])c4F)c([H])c3[H])c(C(=O)N([H])[H])c2N([H])[H])C1([H])[H]

$$$$
8:0:0
     RDKit          3D

 92 99  0  0  1  0  0  0  0  0999 V2000
  -30.5160  -22.6260   21.6980 C   0  0  0  0  0  2  0  0  0  0  0  0
  -29.3160  -23.3070   21.1660 N   0  0  0  0  0  4  0  0  0  0  0  0
  -28.5600  -23.1620   21.8210 H   0  0  0  0  0  0  0  0  0  0  0  0
  -29.0560  -22.8590   20.2990 H   0  0  0  0  0  0  0  0  0  0  0  0
  -29.4710  -24.7650   20.9350 C   0  0  0  0  0  2  0  0  0  0  0  0
  -28.2240  -25.3570   20.2560 C   0  0  0  0  0  2  0  0  0  0  0  0
  -28.3410  -26.7770   20.1450 O   0  0  0  0  0  0  0  0  0  0  0  0
  -24.5670  -31.9330   23.2240 C   0  0  0  0  0  0  0  0  0  0  0  0
  -27.1600  -27.4850   20.1280 C   0  0  0  0  0  0  0  0  0  0  0  0
  -23.3320  -30.5210   21.6130 C   0  0  0  0  0  3  0  0  0  0  0  0
  -24.7600  -28.9770   20.1720 C   0  0  0  0  0  0  0  0  0  0  0  0
  -25.8520  -30.8830   21.3660 C   0  0  0  0  0  2  0  0  0  0  0  0
  -25.9270  -29.5090   20.7340 C   0  0  0  0  0  0  0  0  0  0  0  0
  -27.1300  -28.7720   20.7060 C   0  0  0  0  0  3  0  0  0  0  0  0
  -25.9750  -26.9660   19.5520 C   0  0  0  0  0  3  0  0  0  0  0  0
  -24.7780  -27.7030   19.5800 C   0  0  0  0  0  3  0  0  0  0  0  0
  -23.5170  -29.8330   20.2350 C   0  0  0  0  0  2  0  0  0  0  0  0
  -24.6030  -31.1250   22.1270 N   0  0  0  0  0  0  0  0  0  0  0  0
  -23.4950  -32.2100   23.7800 O   0  0  0  0  0  0  0  0  0  0  0  0
  -22.6960  -29.5050   22.5890 C   0  0  0  0  0  0  0  0  0  0  0  0
  -21.3750  -29.3020   22.4650 N   0  0  0  0  0  0  0  0  0  0  0  0
  -23.3890  -28.9030   23.4140 O   0  0  0  0  0  0  0  0  0  0  0  0
  -20.8780  -29.8400   21.7700 H   0  0  0  0  0  0  0  0  0  0  0  0
  -18.0230  -28.0500   22.9560 C   0  0  0  0  0  0  0  0  0  0  0  0
  -20.5700  -28.3670   23.2500 C   0  0  0  0  0  3  0  0  0  0  0  0
  -20.7090  -26.9250   22.7090 C   0  0  0  0  0  2  0  0  0  0  0  0
  -19.6260  -26.5550   21.6910 C   0  0  0  0  0  2  0  0  0  0  0  0
  -18.2340  -26.6870   22.3180 C   0  0  0  0  0  2  0  0  0  0  0  0
  -19.1210  -28.8450   23.3790 C   0  0  0  0  0  0  0  0  0  0  0  0
  -18.8710  -30.1180   23.9350 C   0  0  0  0  0  3  0  0  0  0  0  0
  -17.5550  -30.5990   24.0710 C   0  0  0  0  0  3  0  0  0  0  0  0
  -16.4710  -29.8010   23.6650 C   0  0  0  0  0  3  0  0  0  0  0  0
  -16.7050  -28.5290   23.1140 C   0  0  0  0  0  3  0  0  0  0  0  0
  -25.8660  -32.5640   23.8190 C   0  0  0  0  0  3  0  0  0  0  0  0
  -26.4220  -31.7820   25.0710 C   0  0  1  0  0  0  0  0  0  0  0  0
  -25.3580  -31.5200   26.1620 C   0  0  0  0  0  1  0  0  0  0  0  0
  -27.0070  -30.4160   24.6420 C   0  0  0  0  0  1  0  0  0  0  0  0
  -27.5810  -32.5780   25.7140 C   0  0  0  0  0  1  0  0  0  0  0  0
  -25.5580  -33.9570   24.1680 N   0  0  0  0  0  0  0  0  0  0  0  0
  -25.8950  -35.0190   23.4240 C   0  0  0  0  0  0  0  0  0  0  0  0
  -26.5680  -34.9290   22.3940 O   0  0  0  0  0  0  0  0  0  0  0  0
  -24.9600  -34.1020   24.9680 H   0  0  0  0  0  0  0  0  0  0  0  0
  -24.1770  -36.8220   23.0760 C   0  0  0  0  0  1  0  0  0  0  0  0
  -25.4070  -36.4010   23.8970 C   0  0  0  0  0  3  0  0  0  0  0  0
  -27.5360  -37.2600   24.7670 C   0  0  0  0  0  1  0  0  0  0  0  0
  -26.4460  -37.4510   23.8150 N   0  0  0  0  0  0  0  0  0  0  0  0
  -26.0430  -38.3700   23.9740 H   0  0  0  0  0  0  0  0  0  0  0  0
  -30.3260  -21.0930   21.7560 C   0  0  0  0  0  2  0  0  0  0  0  0
  -31.6770  -19.1680   22.0810 C   0  0  0  0  0  3  0  0  0  0  0  0
  -31.5620  -20.4390   22.1560 N   0  0  0  0  0  0  0  0  0  0  0  0
  -30.6380  -18.1590   21.5930 C   0  0  0  0  0  2  0  0  0  0  0  0
  -30.5120  -16.9100   22.4970 C   0  0  0  0  0  2  0  0  0  0  0  0
  -31.6760  -15.8880   22.4560 C   0  0  0  0  0  2  0  0  0  0  0  0
  -31.3350  -14.5390   21.7900 C   0  0  0  0  0  2  0  0  0  0  0  0
  -31.3320  -13.7270   19.4690 C   0  0  0  0  0  0  0  0  0  0  0  0
  -30.7300  -11.5210   18.5460 C   0  0  0  0  0  2  0  0  0  0  0  0
  -29.6960  -11.6200   17.4070 C   0  0  0  0  0  2  0  0  0  0  0  0
  -28.2630  -11.6300   17.9710 C   0  0  0  0  0  2  0  0  0  0  0  0
  -28.0890  -12.6640   19.1120 C   0  0  0  0  0  3  0  0  0  0  0  0
  -29.2140  -12.5300   20.1610 C   0  0  0  0  0  2  0  0  0  0  0  0
  -30.5200  -12.6360   19.4820 N   0  0  0  0  0  0  0  0  0  0  0  0
  -32.2450  -13.8800   18.6580 O   0  0  0  0  0  0  0  0  0  0  0  0
  -31.0800  -14.6940   20.3600 N   0  0  0  0  0  0  0  0  0  0  0  0
  -31.4130  -15.5850   20.0230 H   0  0  0  0  0  0  0  0  0  0  0  0
  -25.8740  -13.5600   20.0780 C   0  0  0  0  0  0  0  0  0  0  0  0
  -24.7620  -12.9210   20.5580 C   0  0  0  0  0  0  0  0  0  0  0  0
  -25.0420  -11.5230   20.4720 C   0  0  0  0  0  0  0  0  0  0  0  0
  -26.7680  -12.5580   19.7300 N   0  0  0  0  0  0  0  0  0  0  0  0
  -26.2750  -11.3270   20.0230 N   0  0  0  0  0  0  0  0  0  0  0  0
  -24.1870  -10.3580   20.7350 C   0  0  0  0  0  0  0  0  0  0  0  0
  -24.5680   -9.3550   21.6550 C   0  0  0  0  0  3  0  0  0  0  0  0
  -23.7240   -8.2520   21.9060 C   0  0  0  0  0  3  0  0  0  0  0  0
  -22.4820   -8.1440   21.2380 C   0  0  0  0  0  0  0  0  0  0  0  0
  -22.1150   -9.1320   20.3080 C   0  0  0  0  0  3  0  0  0  0  0  0
  -22.9590  -10.2270   20.0560 C   0  0  0  0  0  3  0  0  0  0  0  0
  -21.6080   -7.0960   21.3990 O   0  0  0  0  0  0  0  0  0  0  0  0
  -21.5390   -6.3910   22.5730 C   0  0  0  0  0  0  0  0  0  0  0  0
  -21.2640   -7.0210   23.8060 C   0  0  0  0  0  3  0  0  0  0  0  0
  -21.1300   -6.2470   24.9770 C   0  0  0  0  0  3  0  0  0  0  0  0
  -21.2630   -4.8470   24.9170 C   0  0  0  0  0  0  0  0  0  0  0  0
  -21.5320   -4.2190   23.6880 C   0  0  0  0  0  3  0  0  0  0  0  0
  -21.6660   -4.9870   22.5200 C   0  0  0  0  0  0  0  0  0  0  0  0
  -21.9030   -4.3740   21.3350 F   0  0  0  0  0  0  0  0  0  0  0  0
  -21.1290   -4.1030   26.0400 F   0  0  0  0  0  0  0  0  0  0  0  0
  -23.4720  -13.5620   20.9840 C   0  0  0  0  0  0  0  0  0  0  0  0
  -22.7770  -12.9650   21.9460 N   0  0  0  0  0  0  0  0  0  0  0  0
  -23.0950  -14.6270   20.4990 O   0  0  0  0  0  0  0  0  0  0  0  0
  -23.0940  -12.1000   22.3600 H   0  0  0  0  0  0  0  0  0  0  0  0
  -21.9150  -13.3770   22.2730 H   0  0  0  0  0  0  0  0  0  0  0  0
  -26.1960  -14.9010   19.8870 N   0  0  0  0  0  0  0  0  0  0  0  0
  -25.5480  -15.6580   20.0770 H   0  0  0  0  0  0  0  0  0  0  0  0
  -27.0770  -15.2200   19.5050 H   0  0  0  0  0  0  0  0  0  0  0  0
  1 48  1  0
  2  1  1  0
  2  3  1  0
  4  2  1  0
  5  2  1  0
  6  5  1  0
  7  6  1  0
  8 19  2  0
  9  7  1  0
  9 14  1  0
 10 18  1  0
 10 20  1  0
 11 17  1  0
 11 13  1  0
 12 18  1  0
 13 12  1  0
 14 13  2  0
 15 16  1  0
 15  9  2  0
 16 11  2  0
 17 10  1  0
 18  8  1  0
 20 22  2  0
 21 20  1  0
 23 21  1  0
 24 33  2  0
 24 29  1  0
 25 21  1  0
 25 29  1  0
 26 25  1  0
 27 28  1  0
 27 26  1  0
 28 24  1  0
 29 30  2  0
 30 31  1  0
 32 31  2  0
 33 32  1  0
 34  8  1  0
 34 39  1  0
 34 35  1  0
 35 38  1  1
 35 36  1  0
 37 35  1  0
 39 42  1  0
 40 44  1  0
 40 39  1  0
 41 40  2  0
 44 43  1  0
 46 44  1  0
 46 47  1  0
 46 45  1  0
 48 50  1  0
 49 50  2  0
 51 49  1  0
 51 52  1  0
 53 52  1  0
 54 53  1  0
 55 61  1  0
 55 63  1  0
 56 61  1  0
 57 58  1  0
 57 56  1  0
 59 58  1  0
 59 68  1  0
 59 60  1  0
 61 60  1  0
 62 55  2  0
 63 54  1  0
 64 63  1  0
 65 66  2  0
 66 85  1  0
 67 66  1  0
 67 70  1  0
 68 69  1  0
 68 65  1  0
 69 67  2  0
 70 71  1  0
 71 72  2  0
 73 76  1  0
 73 72  1  0
 74 73  2  0
 75 74  1  0
 75 70  2  0
 76 77  1  0
 77 78  1  0
 78 79  2  0
 80 79  1  0
 80 84  1  0
 81 80  2  0
 82 77  2  0
 82 81  1  0
 83 82  1  0
 85 86  1  0
 86 89  1  0
 86 88  1  0
 87 85  2  0
 90 91  1  0
 90 65  1  0
 92 90  1  0
M  ISO  4   6 101   7 101  55 100  63 100
M  END
>  <TORSDO>  (9) 
F 25

>  <SCORE>  (9) 
-9.917

>  <name>  (9) 
8

>  <ligand_id>  (9) 
8

>  <original_smiles>  (9) 
[H]C(=NC([H])([H])C([H])([H])[N+]([H])([H])C([H])([H])C([H])([H])Oc1c([H])c([H])c2c(c1[H])C([H])([H])N(C(=O)C([H])(N([H])C(=O)C([H])(N([H])C([H])([H])[H])C([H])([H])[H])C(C([H])([H])[H])(C([H])([H])[H])C([H])([H])[H])C([H])(C(=O)N([H])C1([H])c3c([H])c([H])c([H])c([H])c3C([H])([H])C([H])([H])C1([H])[H])C2([H])[H])C([H])([H])C([H])([H])C([H])([H])C([H])([H])N([H])C(=O)N1C([H])([H])C([H])([H])C([H])([H])C([H])(n2nc(-c3c([H])c([H])c(Oc4c([H])c([H])c(F)c([H])c4F)c([H])c3[H])c(C(=O)N([H])[H])c2N([H])[H])C1([H])[H]

>  <smiles>  (9) 
[H]C(=NC([H])([H])C([H])([H])[N+]([H])([H])C([H])([H])C([H])([H])Oc1c([H])c([H])c2c(c1[H])C([H])([H])N(C(=O)C([H])(N([H])C(=O)C([H])(N([H])C([H])([H])[H])C([H])([H])[H])C(C([H])([H])[H])(C([H])([H])[H])C([H])([H])[H])C([H])(C(=O)N([H])C1([H])c3c([H])c([H])c([H])c([H])c3C([H])([H])C([H])([H])C1([H])[H])C2([H])[H])C([H])([H])C([H])([H])C([H])([H])C([H])([H])N([H])C(=O)N1C([H])([H])C([H])([H])C([H])([H])C([H])(n2nc(-c3c([H])c([H])c(Oc4c([H])c([H])c(F)c([H])c4F)c([H])c3[H])c(C(=O)N([H])[H])c2N([H])[H])C1([H])[H]

$$$$
9:0:0
     RDKit          3D

 94101  0  0  1  0  0  0  0  0999 V2000
  -29.2030  -23.0100   17.1650 C   0  0  0  0  0  2  0  0  0  0  0  0
  -30.5200  -23.6560   17.3600 N   0  0  0  0  0  4  0  0  0  0  0  0
  -31.1080  -23.3700   16.5930 H   0  0  0  0  0  0  0  0  0  0  0  0
  -30.9600  -23.3270   18.2040 H   0  0  0  0  0  0  0  0  0  0  0  0
  -30.5110  -25.1360   17.3670 C   0  0  0  0  0  2  0  0  0  0  0  0
  -30.1540  -25.7620   18.7360 C   0  0  0  0  0  2  0  0  0  0  0  0
  -28.6490  -25.8890   19.0130 C   0  0  0  0  0  2  0  0  0  0  0  0
  -28.4500  -26.8120   20.0760 O   0  0  0  0  0  0  0  0  0  0  0  0
  -24.6080  -31.8800   23.2260 C   0  0  0  0  0  0  0  0  0  0  0  0
  -27.2390  -27.4640   20.1180 C   0  0  0  0  0  0  0  0  0  0  0  0
  -23.3880  -30.4750   21.5940 C   0  0  0  0  0  3  0  0  0  0  0  0
  -24.8290  -28.9340   20.1690 C   0  0  0  0  0  0  0  0  0  0  0  0
  -25.9090  -30.8390   21.3770 C   0  0  0  0  0  2  0  0  0  0  0  0
  -25.9880  -29.4660   20.7480 C   0  0  0  0  0  0  0  0  0  0  0  0
  -27.1920  -28.7320   20.7300 C   0  0  0  0  0  3  0  0  0  0  0  0
  -26.0550  -26.9240   19.5640 C   0  0  0  0  0  3  0  0  0  0  0  0
  -24.8540  -27.6570   19.5830 C   0  0  0  0  0  3  0  0  0  0  0  0
  -23.5870  -29.7910   20.2160 C   0  0  0  0  0  2  0  0  0  0  0  0
  -24.6540  -31.0790   22.1240 N   0  0  0  0  0  0  0  0  0  0  0  0
  -23.5310  -32.1520   23.7740 O   0  0  0  0  0  0  0  0  0  0  0  0
  -22.7460  -29.4540   22.5600 C   0  0  0  0  0  0  0  0  0  0  0  0
  -21.4220  -29.2700   22.4380 N   0  0  0  0  0  0  0  0  0  0  0  0
  -23.4350  -28.8320   23.3730 O   0  0  0  0  0  0  0  0  0  0  0  0
  -20.9290  -29.8240   21.7510 H   0  0  0  0  0  0  0  0  0  0  0  0
  -18.0530  -28.0690   22.9370 C   0  0  0  0  0  0  0  0  0  0  0  0
  -20.6090  -28.3350   23.2120 C   0  0  0  0  0  3  0  0  0  0  0  0
  -20.7160  -26.9010   22.6450 C   0  0  0  0  0  2  0  0  0  0  0  0
  -19.6160  -26.5690   21.6310 C   0  0  0  0  0  2  0  0  0  0  0  0
  -18.2330  -26.7150   22.2720 C   0  0  0  0  0  2  0  0  0  0  0  0
  -19.1690  -28.8360   23.3650 C   0  0  0  0  0  0  0  0  0  0  0  0
  -18.9470  -30.1040   23.9450 C   0  0  0  0  0  3  0  0  0  0  0  0
  -17.6410  -30.6040   24.1040 C   0  0  0  0  0  3  0  0  0  0  0  0
  -16.5390  -29.8340   23.6940 C   0  0  0  0  0  3  0  0  0  0  0  0
  -16.7450  -28.5680   23.1160 C   0  0  0  0  0  3  0  0  0  0  0  0
  -25.9010  -32.5070   23.8370 C   0  0  0  0  0  3  0  0  0  0  0  0
  -26.4350  -31.7270   25.1000 C   0  0  1  0  0  0  0  0  0  0  0  0
  -25.3570  -31.4800   26.1810 C   0  0  0  0  0  1  0  0  0  0  0  0
  -27.0140  -30.3540   24.6850 C   0  0  0  0  0  1  0  0  0  0  0  0
  -27.5950  -32.5170   25.7500 C   0  0  0  0  0  1  0  0  0  0  0  0
  -25.5930  -33.9030   24.1770 N   0  0  0  0  0  0  0  0  0  0  0  0
  -25.9210  -34.9580   23.4190 C   0  0  0  0  0  0  0  0  0  0  0  0
  -26.5850  -34.8600   22.3830 O   0  0  0  0  0  0  0  0  0  0  0  0
  -25.0030  -34.0530   24.9810 H   0  0  0  0  0  0  0  0  0  0  0  0
  -24.1870  -36.7490   23.0830 C   0  0  0  0  0  1  0  0  0  0  0  0
  -25.4350  -36.3440   23.8850 C   0  0  0  0  0  3  0  0  0  0  0  0
  -27.5770  -37.2240   24.7020 C   0  0  0  0  0  1  0  0  0  0  0  0
  -26.4660  -37.3980   23.7690 N   0  0  0  0  0  0  0  0  0  0  0  0
  -26.0610  -38.3170   23.9270 H   0  0  0  0  0  0  0  0  0  0  0  0
  -29.2820  -21.4750   17.2140 C   0  0  0  0  0  2  0  0  0  0  0  0
  -29.6520  -20.9120   18.5990 C   0  0  0  0  0  2  0  0  0  0  0  0
  -29.5480  -19.3790   18.6350 C   0  0  0  0  0  2  0  0  0  0  0  0
  -29.9980  -18.8060   19.9220 N   0  0  0  0  0  4  0  0  0  0  0  0
  -29.4920  -19.2450   20.6740 H   0  0  0  0  0  0  0  0  0  0  0  0
  -30.9780  -19.0040   20.0440 H   0  0  0  0  0  0  0  0  0  0  0  0
  -29.7920  -17.3460   19.9970 C   0  0  0  0  0  2  0  0  0  0  0  0
  -30.3190  -16.7220   21.3070 C   0  0  0  0  0  2  0  0  0  0  0  0
  -30.6860  -14.3730   20.5870 C   0  0  0  0  0  0  0  0  0  0  0  0
  -30.3530  -12.2740   19.3430 C   0  0  0  0  0  2  0  0  0  0  0  0
  -29.4040  -12.5270   18.1540 C   0  0  0  0  0  2  0  0  0  0  0  0
  -27.9310  -12.4030   18.5870 C   0  0  0  0  0  2  0  0  0  0  0  0
  -27.6140  -13.2140   19.8710 C   0  0  0  0  0  3  0  0  0  0  0  0
  -28.6640  -12.9190   20.9660 C   0  0  0  0  0  2  0  0  0  0  0  0
  -30.0020  -13.2140   20.4160 N   0  0  0  0  0  0  0  0  0  0  0  0
  -31.7470  -14.6400   20.0160 O   0  0  0  0  0  0  0  0  0  0  0  0
  -30.0480  -15.2870   21.3280 N   0  0  0  0  0  0  0  0  0  0  0  0
  -29.2020  -14.9790   21.7850 H   0  0  0  0  0  0  0  0  0  0  0  0
  -25.2140  -13.8440   20.5590 C   0  0  0  0  0  0  0  0  0  0  0  0
  -24.1390  -13.0800   20.9260 C   0  0  0  0  0  0  0  0  0  0  0  0
  -24.5930  -11.7250   20.9020 C   0  0  0  0  0  0  0  0  0  0  0  0
  -26.2550  -12.9550   20.3410 N   0  0  0  0  0  0  0  0  0  0  0  0
  -25.8820  -11.6760   20.5990 N   0  0  0  0  0  0  0  0  0  0  0  0
  -23.8590  -10.4680   21.0930 C   0  0  0  0  0  0  0  0  0  0  0  0
  -24.3030   -9.4870   22.0060 C   0  0  0  0  0  3  0  0  0  0  0  0
  -23.5730   -8.2920   22.1860 C   0  0  0  0  0  3  0  0  0  0  0  0
  -22.3820   -8.0720   21.4540 C   0  0  0  0  0  0  0  0  0  0  0  0
  -21.9560   -9.0420   20.5290 C   0  0  0  0  0  3  0  0  0  0  0  0
  -22.6880  -10.2270   20.3470 C   0  0  0  0  0  3  0  0  0  0  0  0
  -21.6210   -6.9320   21.5460 O   0  0  0  0  0  0  0  0  0  0  0  0
  -21.6110   -6.1630   22.6820 C   0  0  0  0  0  0  0  0  0  0  0  0
  -21.2600   -6.6950   23.9410 C   0  0  0  0  0  3  0  0  0  0  0  0
  -21.1970   -5.8540   25.0700 C   0  0  0  0  0  3  0  0  0  0  0  0
  -21.4730   -4.4790   24.9400 C   0  0  0  0  0  0  0  0  0  0  0  0
  -21.8170   -3.9460   23.6850 C   0  0  0  0  0  3  0  0  0  0  0  0
  -21.8830   -4.7850   22.5600 C   0  0  0  0  0  0  0  0  0  0  0  0
  -22.1940   -4.2620   21.3500 F   0  0  0  0  0  0  0  0  0  0  0  0
  -21.4040   -3.6680   26.0210 F   0  0  0  0  0  0  0  0  0  0  0  0
  -22.7430  -13.5640   21.1960 C   0  0  0  0  0  0  0  0  0  0  0  0
  -22.0140  -12.8750   22.0670 N   0  0  0  0  0  0  0  0  0  0  0  0
  -22.3090  -14.5880   20.6700 O   0  0  0  0  0  0  0  0  0  0  0  0
  -22.3780  -12.0460   22.5130 H   0  0  0  0  0  0  0  0  0  0  0  0
  -21.0770  -13.1810   22.2910 H   0  0  0  0  0  0  0  0  0  0  0  0
  -25.3870  -15.2110   20.3710 N   0  0  0  0  0  0  0  0  0  0  0  0
  -24.6220  -15.8720   20.4630 H   0  0  0  0  0  0  0  0  0  0  0  0
  -26.2370  -15.6350   20.0230 H   0  0  0  0  0  0  0  0  0  0  0  0
  1 49  1  0
  1  2  1  0
  2  5  1  0
  2  4  1  0
  3  2  1  0
  5  6  1  0
  6  7  1  0
  7  8  1  0
  8 10  1  0
  9 20  2  0
 10 15  1  0
 11 19  1  0
 11 21  1  0
 12 18  1  0
 12 14  1  0
 13 19  1  0
 14 13  1  0
 15 14  2  0
 16 17  1  0
 16 10  2  0
 17 12  2  0
 18 11  1  0
 19  9  1  0
 21 23  2  0
 22 21  1  0
 24 22  1  0
 25 34  2  0
 25 30  1  0
 26 22  1  0
 26 30  1  0
 27 26  1  0
 28 29  1  0
 28 27  1  0
 29 25  1  0
 30 31  2  0
 31 32  1  0
 33 32  2  0
 34 33  1  0
 35  9  1  0
 35 40  1  0
 35 36  1  0
 36 39  1  1
 36 37  1  0
 38 36  1  0
 40 43  1  0
 41 45  1  0
 41 40  1  0
 42 41  2  0
 45 44  1  0
 47 45  1  0
 47 48  1  0
 47 46  1  0
 49 50  1  0
 50 51  1  0
 51 52  1  0
 52 55  1  0
 52 54  1  0
 52 53  1  0
 55 56  1  0
 56 65  1  0
 57 65  1  0
 58 63  1  0
 59 60  1  0
 59 58  1  0
 61 60  1  0
 61 70  1  0
 61 62  1  0
 63 57  1  0
 63 62  1  0
 64 57  2  0
 65 66  1  0
 67 68  2  0
 68 87  1  0
 69 68  1  0
 69 72  1  0
 70 67  1  0
 70 71  1  0
 71 69  2  0
 72 73  1  0
 73 74  2  0
 75 78  1  0
 75 74  1  0
 76 75  2  0
 77 76  1  0
 77 72  2  0
 78 79  1  0
 79 80  1  0
 80 81  2  0
 82 81  1  0
 82 86  1  0
 83 82  2  0
 84 79  2  0
 84 83  1  0
 85 84  1  0
 87 88  1  0
 88 91  1  0
 88 90  1  0
 89 87  2  0
 92 93  1  0
 92 67  1  0
 94 92  1  0
M  ISO  4   7 101   8 101  57 100  65 100
M  END
>  <TORSDO>  (10) 
F 26

>  <SCORE>  (10) 
-11.711

>  <name>  (10) 
9

>  <ligand_id>  (10) 
9

>  <original_smiles>  (10) 
[H]c1c([H])c([H])c2c(c1[H])C([H])([H])C([H])([H])C([H])([H])C2([H])N([H])C(=O)C1([H])N(C(=O)C([H])(N([H])C(=O)C([H])(N([H])C([H])([H])[H])C([H])([H])[H])C(C([H])([H])[H])(C([H])([H])[H])C([H])([H])[H])C([H])([H])c2c([H])c(OC([H])([H])C([H])([H])C([H])([H])[N+]([H])([H])C([H])([H])C([H])([H])C([H])([H])C([H])([H])[N+]([H])([H])C([H])([H])C([H])([H])N([H])C(=O)N3C([H])([H])C([H])([H])C([H])([H])C([H])(n4nc(-c5c([H])c([H])c(Oc6c([H])c([H])c(F)c([H])c6F)c([H])c5[H])c(C(=O)N([H])[H])c4N([H])[H])C3([H])[H])c([H])c([H])c2C1([H])[H]

>  <smiles>  (10) 
[H]c1c([H])c([H])c2c(c1[H])C([H])([H])C([H])([H])C([H])([H])C2([H])N([H])C(=O)C1([H])N(C(=O)C([H])(N([H])C(=O)C([H])(N([H])C([H])([H])[H])C([H])([H])[H])C(C([H])([H])[H])(C([H])([H])[H])C([H])([H])[H])C([H])([H])c2c([H])c(OC([H])([H])C([H])([H])C([H])([H])[N+]([H])([H])C([H])([H])C([H])([H])C([H])([H])C([H])([H])[N+]([H])([H])C([H])([H])C([H])([H])N([H])C(=O)N3C([H])([H])C([H])([H])C([H])([H])C([H])(n4nc(-c5c([H])c([H])c(Oc6c([H])c([H])c(F)c([H])c6F)c([H])c5[H])c(C(=O)N([H])[H])c4N([H])[H])C3([H])[H])c([H])c([H])c2C1([H])[H]

$$$$
10:0:0
     RDKit          3D

 98 95  0  0  1  0  0  0  0  0999 V2000
  -21.8990  -29.3110   24.3280 C   0  0  0  0  0 15  0  0  0  0  0  0
  -21.2100  -29.8530   22.3860 C   0  0  0  0  0  1  0  0  0  0  0  0
  -21.4750  -28.9880   20.8050 N   0  0  0  0  0  0  0  0  0  0  0  0
  -20.5880  -28.8360   20.3420 H   0  0  0  0  0  0  0  0  0  0  0  0
  -22.7050  -27.7620   20.2200 C   0  0  0  0  0  1  0  0  0  0  0  0
  -24.2940  -26.6410   20.9540 C   0  0  0  0  0 15  0  0  0  0  0  0
  -26.1220  -25.9530   21.5110 N   0  0  0  0  0  2  0  0  0  0  0  0
  -26.4650  -26.5540   22.2510 H   0  0  0  0  0  0  0  0  0  0  0  0
  -26.6080  -26.3120   20.6930 H   0  0  0  0  0  0  0  0  0  0  0  0
  -27.1650  -24.1710   21.5990 C   0  0  0  0  0 15  0  0  0  0  0  0
  -27.6490  -22.0590   20.8980 C   0  0  0  0  0 15  0  0  0  0  0  0
  -28.8730  -20.1420   20.9970 C   0  0  0  0  0 15  0  0  0  0  0  0
  -30.1760  -16.6940   20.3850 C   0  0  0  0  0  0  0  0  0  0  0  0
  -30.7240  -14.0070   19.5520 C   0  0  0  0  0  2  0  0  0  0  0  0
  -30.0210  -13.2080   18.3770 C   0  0  0  0  0  2  0  0  0  0  0  0
  -28.6450  -12.6810   18.7910 C   0  0  0  0  0  2  0  0  0  0  0  0
  -27.9800  -13.7360   19.6900 C   0  0  0  0  0  3  0  0  0  0  0  0
  -28.8550  -14.2970   20.8410 C   0  0  0  0  0  2  0  0  0  0  0  0
  -29.8760  -15.1840   20.2250 N   0  0  0  0  0  0  0  0  0  0  0  0
  -31.4330  -16.6050   20.2210 O   0  0  0  0  0  0  0  0  0  0  0  0
  -29.2990  -18.1910   20.5300 N   0  0  0  0  0  2  0  0  0  0  0  0
  -30.1040  -18.5500   20.0300 H   0  0  0  0  0  0  0  0  0  0  0  0
  -25.6470  -14.2590   20.4180 C   0  0  0  0  0  0  0  0  0  0  0  0
  -24.5790  -13.4910   20.7690 C   0  0  0  0  0  0  0  0  0  0  0  0
  -25.0320  -12.1350   20.7230 C   0  0  0  0  0  0  0  0  0  0  0  0
  -26.6680  -13.3750   20.1630 N   0  0  0  0  0  0  0  0  0  0  0  0
  -26.3240  -12.0860   20.4100 N   0  0  0  0  0  0  0  0  0  0  0  0
  -24.2830  -10.8840   20.8950 C   0  0  0  0  0  0  0  0  0  0  0  0
  -24.6590   -9.9210   21.8570 C   0  0  0  0  0  3  0  0  0  0  0  0
  -23.9020   -8.7400   22.0180 C   0  0  0  0  0  3  0  0  0  0  0  0
  -22.7570   -8.5160   21.2160 C   0  0  0  0  0  0  0  0  0  0  0  0
  -22.4010   -9.4690   20.2440 C   0  0  0  0  0  3  0  0  0  0  0  0
  -23.1590  -10.6410   20.0830 C   0  0  0  0  0  3  0  0  0  0  0  0
  -21.9760   -7.3890   21.2850 O   0  0  0  0  0  0  0  0  0  0  0  0
  -21.8170   -6.6940   22.4580 C   0  0  0  0  0  0  0  0  0  0  0  0
  -21.3230   -7.3100   23.6280 C   0  0  0  0  0  3  0  0  0  0  0  0
  -21.1100   -6.5420   24.7900 C   0  0  0  0  0  3  0  0  0  0  0  0
  -21.3810   -5.1610   24.7820 C   0  0  0  0  0  0  0  0  0  0  0  0
  -21.8680   -4.5460   23.6160 C   0  0  0  0  0  3  0  0  0  0  0  0
  -22.0830   -5.3110   22.4560 C   0  0  0  0  0  0  0  0  0  0  0  0
  -22.5330   -4.7090   21.3290 F   0  0  0  0  0  0  0  0  0  0  0  0
  -21.1690   -4.4210   25.8970 F   0  0  0  0  0  0  0  0  0  0  0  0
  -23.1950  -13.9940   21.0350 C   0  0  0  0  0  0  0  0  0  0  0  0
  -22.4540  -13.3160   21.9040 N   0  0  0  0  0  0  0  0  0  0  0  0
  -22.7820  -15.0260   20.5100 O   0  0  0  0  0  0  0  0  0  0  0  0
  -22.8050  -12.4820   22.3500 H   0  0  0  0  0  0  0  0  0  0  0  0
  -21.5230  -13.6360   22.1270 H   0  0  0  0  0  0  0  0  0  0  0  0
  -25.8340  -15.6310   20.2650 N   0  0  0  0  0  0  0  0  0  0  0  0
  -25.0800  -16.2990   20.3910 H   0  0  0  0  0  0  0  0  0  0  0  0
  -26.6990  -16.0640   19.9660 H   0  0  0  0  0  0  0  0  0  0  0  0
  -22.8950  -27.6470   24.9130 C   0  0  0  0  0 15  0  0  0  0  0  0
  -23.2280  -25.8720   24.0940 C   0  0  0  0  0  1  0  0  0  0  0  0
  -24.1480  -24.9900   22.8850 N   0  0  0  0  0  4  0  0  0  0  0  0
  -24.1550  -24.1210   23.4040 H   0  0  0  0  0  0  0  0  0  0  0  0
  -25.0920  -25.3130   23.0200 H   0  0  0  0  0  0  0  0  0  0  0  0
  -24.1070  -24.2110   21.2420 C   0  0  0  0  0  1  0  0  0  0  0  0
  -24.9340  -24.6860   19.4410 C   0  0  0  0  0  1  0  0  0  0  0  0
  -26.2800  -25.8260   18.9790 O   0  0  0  0  0  0  0  0  0  0  0  0
  -24.7430  -31.8010   23.1190 C   0  0  0  0  0  0  0  0  0  0  0  0
  -26.2730  -27.3000   19.0280 C   0  0  0  0  0  0  0  0  0  0  0  0
  -23.6290  -30.3550   21.5550 C   0  0  0  0  0  3  0  0  0  0  0  0
  -24.7140  -29.5730   19.4380 C   0  0  0  0  0  0  0  0  0  0  0  0
  -26.0350  -30.7350   21.1620 C   0  0  0  0  0  2  0  0  0  0  0  0
  -25.8860  -29.5380   20.1680 C   0  0  0  0  0  0  0  0  0  0  0  0
  -26.7100  -28.3610   19.9750 C   0  0  0  0  0  3  0  0  0  0  0  0
  -25.3560  -27.6680   18.0940 C   0  0  0  0  0  3  0  0  0  0  0  0
  -24.5300  -28.7460   18.3320 C   0  0  0  0  0  3  0  0  0  0  0  0
  -23.6540  -30.4740   19.9700 C   0  0  0  0  0  2  0  0  0  0  0  0
  -24.8210  -31.0310   21.9950 N   0  0  0  0  0  0  0  0  0  0  0  0
  -23.6830  -32.0160   23.7360 O   0  0  0  0  0  0  0  0  0  0  0  0
  -23.5100  -28.8700   22.3870 C   0  0  0  0  0  0  0  0  0  0  0  0
  -22.4730  -27.7340   22.3670 N   0  0  0  0  0  0  0  0  0  0  0  0
  -24.3680  -28.6530   23.1880 O   0  0  0  0  0  0  0  0  0  0  0  0
  -22.9380  -27.0620   22.9430 H   0  0  0  0  0  0  0  0  0  0  0  0
  -18.0790  -27.3210   22.2380 C   0  0  0  0  0  0  0  0  0  0  0  0
  -20.7810  -27.2840   22.4790 C   0  0  0  0  0  3  0  0  0  0  0  0
  -20.6780  -26.0450   21.6760 C   0  0  0  0  0  2  0  0  0  0  0  0
  -19.6010  -26.1280   20.6520 C   0  0  0  0  0  2  0  0  0  0  0  0
  -18.2720  -26.1030   21.3840 C   0  0  0  0  0  2  0  0  0  0  0  0
  -19.2170  -27.9950   22.7680 C   0  0  0  0  0  0  0  0  0  0  0  0
  -18.7600  -29.2140   23.4660 C   0  0  0  0  0  3  0  0  0  0  0  0
  -17.4310  -29.6700   23.6040 C   0  0  0  0  0  3  0  0  0  0  0  0
  -16.3890  -28.9100   23.0890 C   0  0  0  0  0  3  0  0  0  0  0  0
  -16.7300  -27.7320   22.4140 C   0  0  0  0  0  3  0  0  0  0  0  0
  -26.0320  -32.4200   23.6780 C   0  0  0  0  0  3  0  0  0  0  0  0
  -25.7200  -33.7830   24.1390 N   0  0  0  0  0  0  0  0  0  0  0  0
  -25.9320  -34.8940   23.4250 C   0  0  0  0  0  0  0  0  0  0  0  0
  -26.4630  -34.8780   22.3120 O   0  0  0  0  0  0  0  0  0  0  0  0
  -25.2300  -33.8640   25.0170 H   0  0  0  0  0  0  0  0  0  0  0  0
  -24.1740  -36.6960   23.4480 C   0  0  0  0  0  1  0  0  0  0  0  0
  -25.5080  -36.2360   24.0540 C   0  0  0  0  0  3  0  0  0  0  0  0
  -27.7360  -37.0720   24.6670 C   0  0  0  0  0  1  0  0  0  0  0  0
  -26.5180  -37.3050   23.8930 N   0  0  0  0  0  0  0  0  0  0  0  0
  -26.1340  -38.2050   24.1670 H   0  0  0  0  0  0  0  0  0  0  0  0
  -26.6180  -31.5590   24.8590 C   0  0  1  0  0  0  0  0  0  0  0  0
  -25.5890  -31.2270   25.9660 C   0  0  0  0  0  1  0  0  0  0  0  0
  -27.2150  -30.2180   24.3800 C   0  0  0  0  0  1  0  0  0  0  0  0
  -27.7940  -32.3280   25.4920 C   0  0  0  0  0  1  0  0  0  0  0  0
  3  2  1  0
  4  3  1  0
  5  3  1  0
  7  8  1  0
  9  7  1  0
 13 21  1  0
 14 19  1  0
 15 16  1  0
 15 14  1  0
 17 16  1  0
 17 26  1  0
 17 18  1  0
 19 13  1  0
 19 18  1  0
 20 13  2  0
 22 21  1  0
 23 24  2  0
 24 43  1  0
 25 24  1  0
 25 28  1  0
 26 27  1  0
 26 23  1  0
 27 25  2  0
 28 29  1  0
 29 30  2  0
 31 34  1  0
 31 30  1  0
 32 31  2  0
 33 32  1  0
 33 28  2  0
 34 35  1  0
 35 36  1  0
 36 37  2  0
 38 37  1  0
 38 42  1  0
 39 38  2  0
 40 35  2  0
 40 39  1  0
 41 40  1  0
 43 44  1  0
 44 47  1  0
 44 46  1  0
 45 43  2  0
 48 49  1  0
 48 23  1  0
 50 48  1  0
 53 55  1  0
 53 54  1  0
 53 52  1  0
 56 53  1  0
 58 60  1  0
 58 57  1  0
 59 70  2  0
 60 65  1  0
 61 69  1  0
 61 71  1  0
 62 68  1  0
 62 64  1  0
 63 69  1  0
 64 63  1  0
 65 64  2  0
 66 67  1  0
 66 60  2  0
 67 62  2  0
 68 61  1  0
 69 59  1  0
 71 73  2  0
 72 71  1  0
 72 74  1  0
 75 84  2  0
 75 80  1  0
 76 72  1  0
 76 80  1  0
 77 76  1  0
 78 79  1  0
 78 77  1  0
 79 75  1  0
 80 81  2  0
 81 82  1  0
 83 82  2  0
 84 83  1  0
 85 59  1  0
 85 86  1  0
 85 95  1  0
 86 89  1  0
 87 91  1  0
 87 86  1  0
 88 87  2  0
 91 90  1  0
 93 91  1  0
 93 94  1  0
 93 92  1  0
 95 98  1  1
 95 96  1  0
 97 95  1  0
M  ISO  4  13 100  21 100  57 101  58 101
M  END
>  <TORSDO>  (11) 
F 29

>  <SCORE>  (11) 
-15.860

>  <name>  (11) 
10

>  <ligand_id>  (11) 
10

>  <original_smiles>  (11) 
[H]c1c([H])c([H])c2c(c1[H])C([H])([H])C([H])([H])C([H])([H])C2([H])N([H])C(=O)C1([H])N(C(=O)C([H])(N([H])C(=O)C([H])(N([H])C([H])([H])[H])C([H])([H])[H])C(C([H])([H])[H])(C([H])([H])[H])C([H])([H])[H])C([H])([H])c2c([H])c(OC([H])([H])C([H])([H])[N+]([H])([H])C([H])([H])C([H])([H])C([H])([H])C([H])([H])N([H])C([H])([H])C([H])([H])[N+]([H])([H])C([H])([H])C([H])([H])C([H])([H])N([H])C(=O)N3C([H])([H])C([H])([H])C([H])([H])C([H])(n4nc(-c5c([H])c([H])c(Oc6c([H])c([H])c(F)c([H])c6F)c([H])c5[H])c(C(=O)N([H])[H])c4N([H])[H])C3([H])[H])c([H])c([H])c2C1([H])[H]

>  <smiles>  (11) 
[H]c1c([H])c([H])c2c(c1[H])C([H])([H])C([H])([H])C([H])([H])C2([H])N([H])C(=O)C1([H])N(C(=O)C([H])(N([H])C(=O)C([H])(N([H])C([H])([H])[H])C([H])([H])[H])C(C([H])([H])[H])(C([H])([H])[H])C([H])([H])[H])C([H])([H])c2c([H])c(OC([H])([H])C([H])([H])[N+]([H])([H])C([H])([H])C([H])([H])C([H])([H])C([H])([H])N([H])C([H])([H])C([H])([H])[N+]([H])([H])C([H])([H])C([H])([H])C([H])([H])N([H])C(=O)N3C([H])([H])C([H])([H])C([H])([H])C([H])(n4nc(-c5c([H])c([H])c(Oc6c([H])c([H])c(F)c([H])c6F)c([H])c5[H])c(C(=O)N([H])[H])c4N([H])[H])C3([H])[H])c([H])c([H])c2C1([H])[H]

$$$$
11:0:0
     RDKit          3D

 97104  0  0  1  0  0  0  0  0999 V2000
  -23.6490  -21.1290   21.3520 C   0  0  0  0  0  2  0  0  0  0  0  0
  -24.0090  -20.3730   20.1550 N   0  0  0  0  0  0  0  0  0  0  0  0
  -24.7210  -20.9850   19.7440 H   0  0  0  0  0  0  0  0  0  0  0  0
  -24.6520  -19.0860   20.4580 C   0  0  0  0  0  2  0  0  0  0  0  0
  -24.8150  -18.2070   19.2110 C   0  0  0  0  0  2  0  0  0  0  0  0
  -26.0120  -18.5840   18.4350 N   0  0  0  0  0  4  0  0  0  0  0  0
  -25.7240  -18.6860   17.4740 H   0  0  0  0  0  0  0  0  0  0  0  0
  -26.3280  -19.4810   18.7670 H   0  0  0  0  0  0  0  0  0  0  0  0
  -27.1270  -17.6160   18.5360 C   0  0  0  0  0  2  0  0  0  0  0  0
  -28.3230  -17.9840   17.6330 C   0  0  0  0  0  2  0  0  0  0  0  0
  -29.6960  -17.9180   18.3410 C   0  0  0  0  0  2  0  0  0  0  0  0
  -30.7120  -15.9710   19.5620 C   0  0  0  0  0  0  0  0  0  0  0  0
  -31.1600  -13.7060   20.4190 C   0  0  0  0  0  2  0  0  0  0  0  0
  -30.5880  -12.6680   19.4340 C   0  0  0  0  0  2  0  0  0  0  0  0
  -29.0990  -12.3870   19.7230 C   0  0  0  0  0  2  0  0  0  0  0  0
  -28.2660  -13.6900   19.8700 C   0  0  0  0  0  3  0  0  0  0  0  0
  -28.9710  -14.6690   20.8360 C   0  0  0  0  0  2  0  0  0  0  0  0
  -30.3350  -14.9170   20.3300 N   0  0  0  0  0  0  0  0  0  0  0  0
  -31.8240  -16.0790   19.0370 O   0  0  0  0  0  0  0  0  0  0  0  0
  -29.7320  -16.8570   19.3480 N   0  0  0  0  0  0  0  0  0  0  0  0
  -28.9020  -16.7100   19.8990 H   0  0  0  0  0  0  0  0  0  0  0  0
  -25.8300  -14.2730   20.4720 C   0  0  0  0  0  0  0  0  0  0  0  0
  -24.7610  -13.4870   20.8140 C   0  0  0  0  0  0  0  0  0  0  0  0
  -25.2420  -12.1440   20.8100 C   0  0  0  0  0  0  0  0  0  0  0  0
  -26.8970  -13.4040   20.2940 N   0  0  0  0  0  0  0  0  0  0  0  0
  -26.5420  -12.1190   20.5480 N   0  0  0  0  0  0  0  0  0  0  0  0
  -24.5310  -10.8690   20.9790 C   0  0  0  0  0  0  0  0  0  0  0  0
  -24.6840  -10.0910   22.1460 C   0  0  0  0  0  3  0  0  0  0  0  0
  -23.9730   -8.8800   22.2970 C   0  0  0  0  0  3  0  0  0  0  0  0
  -23.0990   -8.4400   21.2760 C   0  0  0  0  0  0  0  0  0  0  0  0
  -22.9680   -9.2090   20.1050 C   0  0  0  0  0  3  0  0  0  0  0  0
  -23.6810  -10.4090   19.9540 C   0  0  0  0  0  3  0  0  0  0  0  0
  -22.3880   -7.2650   21.3210 O   0  0  0  0  0  0  0  0  0  0  0  0
  -21.7210   -6.8730   22.4530 C   0  0  0  0  0  0  0  0  0  0  0  0
  -20.7150   -7.6720   23.0380 C   0  0  0  0  0  3  0  0  0  0  0  0
  -20.0050   -7.2010   24.1600 C   0  0  0  0  0  3  0  0  0  0  0  0
  -20.2920   -5.9290   24.6930 C   0  0  0  0  0  0  0  0  0  0  0  0
  -21.2880   -5.1290   24.1080 C   0  0  0  0  0  3  0  0  0  0  0  0
  -21.9990   -5.5980   22.9890 C   0  0  0  0  0  0  0  0  0  0  0  0
  -22.9460   -4.8160   22.4180 F   0  0  0  0  0  0  0  0  0  0  0  0
  -19.6030   -5.4730   25.7650 F   0  0  0  0  0  0  0  0  0  0  0  0
  -23.3470  -13.9460   21.0330 C   0  0  0  0  0  0  0  0  0  0  0  0
  -22.6080  -13.2640   21.9040 N   0  0  0  0  0  0  0  0  0  0  0  0
  -22.9060  -14.9420   20.4640 O   0  0  0  0  0  0  0  0  0  0  0  0
  -22.9800  -12.4610   22.3880 H   0  0  0  0  0  0  0  0  0  0  0  0
  -21.6570  -13.5480   22.0900 H   0  0  0  0  0  0  0  0  0  0  0  0
  -25.9770  -15.6420   20.2710 N   0  0  0  0  0  0  0  0  0  0  0  0
  -25.1310  -16.1860   20.1370 H   0  0  0  0  0  0  0  0  0  0  0  0
  -26.7370  -15.9660   19.6870 H   0  0  0  0  0  0  0  0  0  0  0  0
  -24.7890  -22.1050   21.6650 C   0  0  0  0  0  2  0  0  0  0  0  0
  -25.1060  -22.8670   20.4530 N   0  0  0  0  0  0  0  0  0  0  0  0
  -24.3230  -23.4930   20.2550 H   0  0  0  0  0  0  0  0  0  0  0  0
  -26.3200  -23.6610   20.5770 C   0  0  0  0  0  2  0  0  0  0  0  0
  -26.5670  -24.4440   19.2880 C   0  0  0  0  0  2  0  0  0  0  0  0
  -27.6010  -25.5560   19.4850 C   0  0  0  0  0  2  0  0  0  0  0  0
  -27.7950  -26.3940   18.2060 C   0  0  0  0  0  2  0  0  0  0  0  0
  -27.7280  -27.7910   18.4780 O   0  0  0  0  0  0  0  0  0  0  0  0
  -24.2630  -31.8350   23.1480 C   0  0  0  0  0  0  0  0  0  0  0  0
  -26.5060  -28.3370   18.8140 C   0  0  0  0  0  0  0  0  0  0  0  0
  -22.8370  -30.6520   21.5080 C   0  0  0  0  0  3  0  0  0  0  0  0
  -24.0670  -29.5530   19.5650 C   0  0  0  0  0  0  0  0  0  0  0  0
  -25.2430  -31.2910   20.9230 C   0  0  0  0  0  2  0  0  0  0  0  0
  -25.2810  -30.0780   20.0190 C   0  0  0  0  0  0  0  0  0  0  0  0
  -26.5000  -29.4800   19.6400 C   0  0  0  0  0  3  0  0  0  0  0  0
  -25.2680  -27.8130   18.3670 C   0  0  0  0  0  3  0  0  0  0  0  0
  -24.0530  -28.4160   18.7390 C   0  0  0  0  0  3  0  0  0  0  0  0
  -22.8070  -30.2590   20.0060 C   0  0  0  0  0  2  0  0  0  0  0  0
  -24.1440  -31.2630   21.9170 N   0  0  0  0  0  0  0  0  0  0  0  0
  -23.2980  -31.9000   23.9210 O   0  0  0  0  0  0  0  0  0  0  0  0
  -22.4480  -29.4140   22.3460 C   0  0  0  0  0  0  0  0  0  0  0  0
  -21.1600  -29.0440   22.3020 N   0  0  0  0  0  0  0  0  0  0  0  0
  -23.2990  -28.7940   22.9910 O   0  0  0  0  0  0  0  0  0  0  0  0
  -20.5260  -29.6020   21.7480 H   0  0  0  0  0  0  0  0  0  0  0  0
  -18.1020  -27.1750   22.7480 C   0  0  0  0  0  0  0  0  0  0  0  0
  -20.5720  -27.8940   22.9880 C   0  0  0  0  0  3  0  0  0  0  0  0
  -20.9170  -26.5730   22.2620 C   0  0  0  0  0  2  0  0  0  0  0  0
  -19.8590  -26.1530   21.2380 C   0  0  0  0  0  2  0  0  0  0  0  0
  -18.5020  -25.9640   21.9240 C   0  0  0  0  0  2  0  0  0  0  0  0
  -19.0730  -28.0930   23.2330 C   0  0  0  0  0  0  0  0  0  0  0  0
  -18.6420  -29.2230   23.9620 C   0  0  0  0  0  3  0  0  0  0  0  0
  -17.2740  -29.4390   24.2130 C   0  0  0  0  0  3  0  0  0  0  0  0
  -16.3200  -28.5180   23.7460 C   0  0  0  0  0  3  0  0  0  0  0  0
  -16.7350  -27.3890   23.0180 C   0  0  0  0  0  3  0  0  0  0  0  0
  -25.6090  -32.4580   23.6330 C   0  0  0  0  0  3  0  0  0  0  0  0
  -26.2840  -31.6450   24.8060 C   0  0  1  0  0  0  0  0  0  0  0  0
  -25.3340  -31.3600   25.9910 C   0  0  0  0  0  1  0  0  0  0  0  0
  -26.8190  -30.2870   24.2910 C   0  0  0  0  0  1  0  0  0  0  0  0
  -27.5040  -32.4240   25.3500 C   0  0  0  0  0  1  0  0  0  0  0  0
  -25.3330  -33.8400   24.0500 N   0  0  0  0  0  0  0  0  0  0  0  0
  -25.6140  -34.9240   23.3140 C   0  0  0  0  0  0  0  0  0  0  0  0
  -26.2080  -34.8660   22.2330 O   0  0  0  0  0  0  0  0  0  0  0  0
  -24.7990  -33.9620   24.8970 H   0  0  0  0  0  0  0  0  0  0  0  0
  -23.8910  -36.7490   23.1370 C   0  0  0  0  0  1  0  0  0  0  0  0
  -25.1650  -36.2910   23.8660 C   0  0  0  0  0  3  0  0  0  0  0  0
  -27.3450  -37.1140   24.6410 C   0  0  0  0  0  1  0  0  0  0  0  0
  -26.2040  -37.3380   23.7570 N   0  0  0  0  0  0  0  0  0  0  0  0
  -25.8150  -38.2520   23.9680 H   0  0  0  0  0  0  0  0  0  0  0  0
  1 50  1  0
  2  4  1  0
  2  1  1  0
  3  2  1  0
  5  4  1  0
  6  9  1  0
  6  8  1  0
  6  5  1  0
  7  6  1  0
 10 11  1  0
 10  9  1  0
 11 20  1  0
 12 18  1  0
 14 15  1  0
 14 13  1  0
 16 15  1  0
 16 25  1  0
 16 17  1  0
 18 13  1  0
 18 17  1  0
 19 12  2  0
 20 12  1  0
 20 21  1  0
 22 23  2  0
 23 42  1  0
 24 23  1  0
 24 27  1  0
 25 22  1  0
 25 26  1  0
 26 24  2  0
 27 28  1  0
 28 29  2  0
 30 33  1  0
 30 29  1  0
 31 30  2  0
 32 31  1  0
 32 27  2  0
 33 34  1  0
 34 39  2  0
 34 35  1  0
 35 36  2  0
 36 37  1  0
 37 41  1  0
 38 37  2  0
 39 38  1  0
 40 39  1  0
 42 43  1  0
 43 46  1  0
 43 45  1  0
 44 42  2  0
 47 22  1  0
 48 47  1  0
 49 47  1  0
 51 53  1  0
 51 50  1  0
 52 51  1  0
 54 55  1  0
 54 53  1  0
 56 57  1  0
 56 55  1  0
 57 59  1  0
 58 69  2  0
 59 64  1  0
 60 68  1  0
 60 70  1  0
 61 67  1  0
 61 63  1  0
 62 68  1  0
 63 62  1  0
 64 63  2  0
 65 66  1  0
 65 59  2  0
 66 61  2  0
 67 60  1  0
 68 58  1  0
 70 72  2  0
 71 70  1  0
 73 71  1  0
 74 83  2  0
 74 79  1  0
 75 71  1  0
 75 79  1  0
 76 75  1  0
 77 78  1  0
 77 76  1  0
 78 74  1  0
 79 80  2  0
 80 81  1  0
 82 81  2  0
 83 82  1  0
 84 58  1  0
 84 89  1  0
 84 85  1  0
 85 88  1  1
 85 86  1  0
 87 85  1  0
 89 92  1  0
 90 94  1  0
 90 89  1  0
 91 90  2  0
 94 93  1  0
 96 94  1  0
 96 97  1  0
 96 95  1  0
M  ISO  4  12 100  20 100  56 101  57 101
M  END
>  <TORSDO>  (12) 
F 29

>  <SCORE>  (12) 
6.957

>  <name>  (12) 
11

>  <ligand_id>  (12) 
11

>  <original_smiles>  (12) 
[H]c1c([H])c([H])c2c(c1[H])C([H])([H])C([H])([H])C([H])([H])C2([H])N([H])C(=O)C1([H])N(C(=O)C([H])(N([H])C(=O)C([H])(N([H])C([H])([H])[H])C([H])([H])[H])C(C([H])([H])[H])(C([H])([H])[H])C([H])([H])[H])C([H])([H])c2c([H])c(OC([H])([H])C([H])([H])C([H])([H])C([H])([H])N([H])C([H])([H])C([H])([H])N([H])C([H])([H])C([H])([H])[N+]([H])([H])C([H])([H])C([H])([H])C([H])([H])N([H])C(=O)N3C([H])([H])C([H])([H])C([H])([H])C([H])(n4nc(-c5c([H])c([H])c(Oc6c([H])c([H])c(F)c([H])c6F)c([H])c5[H])c(C(=O)N([H])[H])c4N([H])[H])C3([H])[H])c([H])c([H])c2C1([H])[H]

>  <smiles>  (12) 
[H]c1c([H])c([H])c2c(c1[H])C([H])([H])C([H])([H])C([H])([H])C2([H])N([H])C(=O)C1([H])N(C(=O)C([H])(N([H])C(=O)C([H])(N([H])C([H])([H])[H])C([H])([H])[H])C(C([H])([H])[H])(C([H])([H])[H])C([H])([H])[H])C([H])([H])c2c([H])c(OC([H])([H])C([H])([H])C([H])([H])C([H])([H])N([H])C([H])([H])C([H])([H])N([H])C([H])([H])C([H])([H])[N+]([H])([H])C([H])([H])C([H])([H])C([H])([H])N([H])C(=O)N3C([H])([H])C([H])([H])C([H])([H])C([H])(n4nc(-c5c([H])c([H])c(Oc6c([H])c([H])c(F)c([H])c6F)c([H])c5[H])c(C(=O)N([H])[H])c4N([H])[H])C3([H])[H])c([H])c([H])c2C1([H])[H]

$$$$
12:0:0
     RDKit          3D

 95102  0  0  1  0  0  0  0  0999 V2000
  -27.5070  -22.7240   22.1040 C   0  0  0  0  0  2  0  0  0  0  0  0
  -26.9140  -22.9700   23.4400 N   0  0  0  0  0  4  0  0  0  0  0  0
  -27.1420  -22.2040   24.0530 H   0  0  0  0  0  0  0  0  0  0  0  0
  -25.9130  -22.9690   23.3190 H   0  0  0  0  0  0  0  0  0  0  0  0
  -27.2330  -24.2620   24.0910 C   0  0  0  0  0  2  0  0  0  0  0  0
  -28.7240  -24.4490   24.4420 C   0  0  0  0  0  2  0  0  0  0  0  0
  -29.0580  -25.8240   25.0570 C   0  0  0  0  0  2  0  0  0  0  0  0
  -28.8610  -26.8850   24.1090 O   0  0  0  0  0  0  0  0  0  0  0  0
  -23.5100  -29.0420   28.2890 C   0  0  0  0  0  0  0  0  0  0  0  0
  -27.7890  -27.7250   24.3050 C   0  0  0  0  0  0  0  0  0  0  0  0
  -23.4300  -29.8350   25.9390 C   0  0  0  0  0  3  0  0  0  0  0  0
  -25.5580  -29.4460   24.5780 C   0  0  0  0  0  0  0  0  0  0  0  0
  -25.6580  -29.3220   27.0740 C   0  0  0  0  0  2  0  0  0  0  0  0
  -26.1950  -28.9370   25.7120 C   0  0  0  0  0  0  0  0  0  0  0  0
  -27.3080  -28.0840   25.5850 C   0  0  0  0  0  3  0  0  0  0  0  0
  -27.1490  -28.2580   23.1670 C   0  0  0  0  0  3  0  0  0  0  0  0
  -26.0330  -29.1120   23.2960 C   0  0  0  0  0  3  0  0  0  0  0  0
  -24.3700  -30.3530   24.8120 C   0  0  0  0  0  2  0  0  0  0  0  0
  -24.1820  -29.3610   27.1460 N   0  0  0  0  0  0  0  0  0  0  0  0
  -22.2840  -29.1790   28.3680 O   0  0  0  0  0  0  0  0  0  0  0  0
  -22.4990  -28.7570   25.3420 C   0  0  0  0  0  0  0  0  0  0  0  0
  -21.4610  -29.2030   24.6160 N   0  0  0  0  0  0  0  0  0  0  0  0
  -22.7330  -27.5570   25.5050 O   0  0  0  0  0  0  0  0  0  0  0  0
  -21.3360  -30.2050   24.5360 H   0  0  0  0  0  0  0  0  0  0  0  0
  -18.5160  -29.3100   22.5240 C   0  0  0  0  0  0  0  0  0  0  0  0
  -20.4750  -28.3700   23.9270 C   0  0  0  0  0  3  0  0  0  0  0  0
  -21.0360  -27.8330   22.5920 C   0  0  0  0  0  2  0  0  0  0  0  0
  -20.7020  -28.7250   21.3930 C   0  0  0  0  0  2  0  0  0  0  0  0
  -19.1850  -28.8660   21.2360 C   0  0  0  0  0  2  0  0  0  0  0  0
  -19.1290  -29.0920   23.7880 C   0  0  0  0  0  0  0  0  0  0  0  0
  -18.4810  -29.5570   24.9530 C   0  0  0  0  0  3  0  0  0  0  0  0
  -17.2450  -30.2280   24.8720 C   0  0  0  0  0  3  0  0  0  0  0  0
  -16.6370  -30.4280   23.6210 C   0  0  0  0  0  3  0  0  0  0  0  0
  -17.2690  -29.9630   22.4550 C   0  0  0  0  0  3  0  0  0  0  0  0
  -24.2540  -28.5120   29.5570 C   0  0  0  0  0  3  0  0  0  0  0  0
  -24.2950  -26.9360   29.6440 C   0  0  1  0  0  0  0  0  0  0  0  0
  -22.9110  -26.2700   29.4780 C   0  0  0  0  0  1  0  0  0  0  0  0
  -25.2340  -26.3540   28.5630 C   0  0  0  0  0  1  0  0  0  0  0  0
  -24.8690  -26.5020   31.0150 C   0  0  0  0  0  1  0  0  0  0  0  0
  -23.5820  -29.0780   30.7320 N   0  0  0  0  0  0  0  0  0  0  0  0
  -24.0220  -30.1400   31.4230 C   0  0  0  0  0  0  0  0  0  0  0  0
  -25.0950  -30.7000   31.1790 O   0  0  0  0  0  0  0  0  0  0  0  0
  -22.6730  -28.7010   30.9540 H   0  0  0  0  0  0  0  0  0  0  0  0
  -22.3520  -31.8940   32.0920 C   0  0  0  0  0  1  0  0  0  0  0  0
  -23.1290  -30.6560   32.5660 C   0  0  0  0  0  3  0  0  0  0  0  0
  -24.4430  -29.8150   34.4610 C   0  0  0  0  0  1  0  0  0  0  0  0
  -23.8810  -30.9860   33.7960 N   0  0  0  0  0  0  0  0  0  0  0  0
  -23.2850  -31.4690   34.4630 H   0  0  0  0  0  0  0  0  0  0  0  0
  -26.9470  -21.4130   21.5140 C   0  0  0  0  0  2  0  0  0  0  0  0
  -27.4950  -20.9910   20.1350 C   0  0  0  0  0  2  0  0  0  0  0  0
  -29.0420  -21.0370   20.0410 C   0  0  0  0  0  2  0  0  0  0  0  0
  -29.6460  -20.0430   19.0210 C   0  0  0  0  0  2  0  0  0  0  0  0
  -31.6010  -19.8730   17.5100 C   0  0  0  0  0  0  0  0  0  0  0  0
  -30.7260  -20.6140   18.2150 N   0  0  0  0  0  0  0  0  0  0  0  0
  -31.5910  -18.6430   17.5420 O   0  0  0  0  0  0  0  0  0  0  0  0
  -30.7820  -21.6210   18.1600 H   0  0  0  0  0  0  0  0  0  0  0  0
  -32.6030  -20.5830   16.5950 C   0  0  0  0  0  2  0  0  0  0  0  0
  -32.5130  -22.3000   14.7900 C   0  0  0  0  0  0  0  0  0  0  0  0
  -33.7510  -22.5580   12.6700 C   0  0  0  0  0  2  0  0  0  0  0  0
  -32.8030  -22.4540   11.4600 C   0  0  0  0  0  2  0  0  0  0  0  0
  -32.6450  -20.9910   11.0150 C   0  0  0  0  0  2  0  0  0  0  0  0
  -32.3050  -20.0500   12.2000 C   0  0  0  0  0  3  0  0  0  0  0  0
  -33.2430  -20.2990   13.4000 C   0  0  0  0  0  2  0  0  0  0  0  0
  -33.2030  -21.7310   13.7610 N   0  0  0  0  0  0  0  0  0  0  0  0
  -32.3200  -23.5140   14.8770 O   0  0  0  0  0  0  0  0  0  0  0  0
  -31.9210  -21.5100   15.6910 N   0  0  0  0  0  0  0  0  0  0  0  0
  -31.1800  -22.0060   16.1620 H   0  0  0  0  0  0  0  0  0  0  0  0
  -31.3090  -17.7020   11.8540 C   0  0  0  0  0  0  0  0  0  0  0  0
  -31.8160  -16.5670   11.2750 C   0  0  0  0  0  0  0  0  0  0  0  0
  -33.1470  -16.8930   10.8690 C   0  0  0  0  0  0  0  0  0  0  0  0
  -32.3210  -18.6480   11.7850 N   0  0  0  0  0  0  0  0  0  0  0  0
  -33.4500  -18.1340   11.2320 N   0  0  0  0  0  0  0  0  0  0  0  0
  -34.1300  -16.1200   10.1010 C   0  0  0  0  0  0  0  0  0  0  0  0
  -35.4710  -15.9960   10.5270 C   0  0  0  0  0  3  0  0  0  0  0  0
  -36.3930  -15.2320    9.7800 C   0  0  0  0  0  3  0  0  0  0  0  0
  -35.9800  -14.5780    8.5950 C   0  0  0  0  0  0  0  0  0  0  0  0
  -34.6510  -14.7260    8.1630 C   0  0  0  0  0  3  0  0  0  0  0  0
  -33.7350  -15.4920    8.9050 C   0  0  0  0  0  3  0  0  0  0  0  0
  -36.8130  -13.8360    7.7920 O   0  0  0  0  0  0  0  0  0  0  0  0
  -37.9480  -13.2420    8.2860 C   0  0  0  0  0  0  0  0  0  0  0  0
  -37.9000  -12.3170    9.3490 C   0  0  0  0  0  3  0  0  0  0  0  0
  -39.0790  -11.6690    9.7730 C   0  0  0  0  0  3  0  0  0  0  0  0
  -40.3020  -11.9440    9.1290 C   0  0  0  0  0  0  0  0  0  0  0  0
  -40.3480  -12.8600    8.0640 C   0  0  0  0  0  3  0  0  0  0  0  0
  -39.1720  -13.5060    7.6390 C   0  0  0  0  0  0  0  0  0  0  0  0
  -39.2180  -14.3760    6.6010 F   0  0  0  0  0  0  0  0  0  0  0  0
  -41.4350  -11.3240    9.5310 F   0  0  0  0  0  0  0  0  0  0  0  0
  -31.0760  -15.2840   11.0250 C   0  0  0  0  0  0  0  0  0  0  0  0
  -31.7900  -14.1620   11.0100 N   0  0  0  0  0  0  0  0  0  0  0  0
  -29.8530  -15.2600   10.8800 O   0  0  0  0  0  0  0  0  0  0  0  0
  -32.7910  -14.1740   11.1380 H   0  0  0  0  0  0  0  0  0  0  0  0
  -31.3270  -13.2790   10.8360 H   0  0  0  0  0  0  0  0  0  0  0  0
  -30.0780  -18.0120   12.4190 N   0  0  0  0  0  0  0  0  0  0  0  0
  -29.2950  -17.3720   12.4410 H   0  0  0  0  0  0  0  0  0  0  0  0
  -29.8600  -18.9230   12.8030 H   0  0  0  0  0  0  0  0  0  0  0  0
  1  2  1  0
  2  3  1  0
  2  5  1  0
  4  2  1  0
  5  6  1  0
  6  7  1  0
  8 10  1  0
  8  7  1  0
  9 20  2  0
 10 15  1  0
 11 21  1  0
 11 19  1  0
 12 18  1  0
 12 14  1  0
 13 19  1  0
 14 13  1  0
 15 14  2  0
 16 17  1  0
 16 10  2  0
 17 12  2  0
 18 11  1  0
 19  9  1  0
 21 23  2  0
 22 21  1  0
 24 22  1  0
 25 30  1  0
 26 22  1  0
 27 26  1  0
 28 27  1  0
 29 28  1  0
 29 25  1  0
 30 26  1  0
 30 31  2  0
 32 31  1  0
 33 32  2  0
 34 25  2  0
 34 33  1  0
 35  9  1  0
 35 36  1  0
 35 40  1  0
 36 39  1  1
 37 36  1  0
 38 36  1  0
 40 43  1  0
 40 41  1  0
 41 45  1  0
 42 41  2  0
 45 44  1  0
 45 47  1  0
 47 46  1  0
 47 48  1  0
 49  1  1  0
 50 49  1  0
 51 50  1  0
 52 51  1  0
 53 55  2  0
 53 54  1  0
 54 52  1  0
 56 54  1  0
 57 53  1  0
 58 65  2  0
 58 66  1  0
 59 64  1  0
 60 59  1  0
 61 60  1  0
 62 61  1  0
 62 63  1  0
 63 64  1  0
 64 58  1  0
 66 67  1  0
 66 57  1  0
 68 93  1  0
 69 68  2  0
 70 72  2  0
 70 69  1  0
 71 68  1  0
 71 62  1  0
 72 71  1  0
 73 74  1  0
 73 70  1  0
 75 74  2  0
 76 75  1  0
 77 76  2  0
 77 78  1  0
 78 73  2  0
 79 80  1  0
 79 76  1  0
 80 81  1  0
 81 82  2  0
 83 87  1  0
 83 82  1  0
 84 83  2  0
 85 84  1  0
 85 80  2  0
 86 85  1  0
 88 69  1  0
 89 88  1  0
 89 91  1  0
 90 88  2  0
 92 89  1  0
 93 94  1  0
 93 95  1  0
M  ISO  4   7 101   8 101  58 100  66 100
M  END
>  <TORSDO>  (13) 
F 26

>  <SCORE>  (13) 
14.291

>  <name>  (13) 
12

>  <ligand_id>  (13) 
12

>  <original_smiles>  (13) 
[H]c1c([H])c([H])c2c(c1[H])C([H])([H])C([H])([H])C([H])([H])C2([H])N([H])C(=O)C1([H])N(C(=O)C([H])(N([H])C(=O)C([H])(N([H])C([H])([H])[H])C([H])([H])[H])C(C([H])([H])[H])(C([H])([H])[H])C([H])([H])[H])C([H])([H])c2c([H])c(OC([H])([H])C([H])([H])C([H])([H])[N+]([H])([H])C([H])([H])C([H])([H])C([H])([H])C([H])([H])C([H])([H])N([H])C(=O)C([H])([H])N([H])C(=O)N3C([H])([H])C([H])([H])C([H])([H])C([H])(n4nc(-c5c([H])c([H])c(Oc6c([H])c([H])c(F)c([H])c6F)c([H])c5[H])c(C(=O)N([H])[H])c4N([H])[H])C3([H])[H])c([H])c([H])c2C1([H])[H]

>  <smiles>  (13) 
[H]c1c([H])c([H])c2c(c1[H])C([H])([H])C([H])([H])C([H])([H])C2([H])N([H])C(=O)C1([H])N(C(=O)C([H])(N([H])C(=O)C([H])(N([H])C([H])([H])[H])C([H])([H])[H])C(C([H])([H])[H])(C([H])([H])[H])C([H])([H])[H])C([H])([H])c2c([H])c(OC([H])([H])C([H])([H])C([H])([H])[N+]([H])([H])C([H])([H])C([H])([H])C([H])([H])C([H])([H])C([H])([H])N([H])C(=O)C([H])([H])N([H])C(=O)N3C([H])([H])C([H])([H])C([H])([H])C([H])(n4nc(-c5c([H])c([H])c(Oc6c([H])c([H])c(F)c([H])c6F)c([H])c5[H])c(C(=O)N([H])[H])c4N([H])[H])C3([H])[H])c([H])c([H])c2C1([H])[H]

$$$$
13:0:0
     RDKit          3D

 95102  0  0  1  0  0  0  0  0999 V2000
  -31.5490  -24.4860   17.7160 C   0  0  0  0  0  2  0  0  0  0  0  0
  -31.5330  -25.3070   19.0110 C   0  0  0  0  0  0  0  0  0  0  0  0
  -31.0260  -26.5460   18.9460 N   0  0  0  0  0  0  0  0  0  0  0  0
  -31.9280  -24.8140   20.0690 O   0  0  0  0  0  0  0  0  0  0  0  0
  -30.7570  -26.9030   18.0360 H   0  0  0  0  0  0  0  0  0  0  0  0
  -30.7400  -27.4000   20.1050 C   0  0  0  0  0  2  0  0  0  0  0  0
  -29.5380  -26.8790   20.9180 C   0  0  0  0  0  2  0  0  0  0  0  0
  -28.4250  -26.6760   20.0520 O   0  0  0  0  0  0  0  0  0  0  0  0
  -24.6220  -31.8750   23.2240 C   0  0  0  0  0  0  0  0  0  0  0  0
  -27.3000  -27.4640   20.1460 C   0  0  0  0  0  0  0  0  0  0  0  0
  -23.4200  -30.4630   21.5840 C   0  0  0  0  0  3  0  0  0  0  0  0
  -24.8830  -28.9290   20.1650 C   0  0  0  0  0  0  0  0  0  0  0  0
  -25.9410  -30.8400   21.3850 C   0  0  0  0  0  2  0  0  0  0  0  0
  -26.0350  -29.4670   20.7530 C   0  0  0  0  0  0  0  0  0  0  0  0
  -27.2460  -28.7440   20.7490 C   0  0  0  0  0  3  0  0  0  0  0  0
  -26.1330  -26.9360   19.5630 C   0  0  0  0  0  3  0  0  0  0  0  0
  -24.9230  -27.6560   19.5710 C   0  0  0  0  0  3  0  0  0  0  0  0
  -23.6320  -29.7780   20.2070 C   0  0  0  0  0  2  0  0  0  0  0  0
  -24.6780  -31.0760   22.1210 N   0  0  0  0  0  0  0  0  0  0  0  0
  -23.5420  -32.1470   23.7650 O   0  0  0  0  0  0  0  0  0  0  0  0
  -22.7760  -29.4420   22.5500 C   0  0  0  0  0  0  0  0  0  0  0  0
  -21.4500  -29.2650   22.4270 N   0  0  0  0  0  0  0  0  0  0  0  0
  -23.4600  -28.8130   23.3600 O   0  0  0  0  0  0  0  0  0  0  0  0
  -20.9600  -29.8300   21.7480 H   0  0  0  0  0  0  0  0  0  0  0  0
  -18.0750  -28.0870   22.9520 C   0  0  0  0  0  0  0  0  0  0  0  0
  -20.6360  -28.3300   23.2020 C   0  0  0  0  0  3  0  0  0  0  0  0
  -20.7240  -26.9010   22.6210 C   0  0  0  0  0  2  0  0  0  0  0  0
  -19.6120  -26.5850   21.6140 C   0  0  0  0  0  2  0  0  0  0  0  0
  -18.2370  -26.7370   22.2700 C   0  0  0  0  0  2  0  0  0  0  0  0
  -19.2010  -28.8410   23.3730 C   0  0  0  0  0  0  0  0  0  0  0  0
  -18.9940  -30.1040   23.9710 C   0  0  0  0  0  3  0  0  0  0  0  0
  -17.6950  -30.6120   24.1490 C   0  0  0  0  0  3  0  0  0  0  0  0
  -16.5810  -29.8560   23.7430 C   0  0  0  0  0  3  0  0  0  0  0  0
  -16.7730  -28.5950   23.1490 C   0  0  0  0  0  3  0  0  0  0  0  0
  -25.9130  -32.5050   23.8390 C   0  0  0  0  0  3  0  0  0  0  0  0
  -26.4410  -31.7270   25.1070 C   0  0  1  0  0  0  0  0  0  0  0  0
  -25.3600  -31.4840   26.1840 C   0  0  0  0  0  1  0  0  0  0  0  0
  -27.0210  -30.3500   24.7010 C   0  0  0  0  0  1  0  0  0  0  0  0
  -27.5970  -32.5210   25.7580 C   0  0  0  0  0  1  0  0  0  0  0  0
  -25.6050  -33.9000   24.1730 N   0  0  0  0  0  0  0  0  0  0  0  0
  -25.9320  -34.9560   23.4140 C   0  0  0  0  0  0  0  0  0  0  0  0
  -26.5970  -34.8550   22.3770 O   0  0  0  0  0  0  0  0  0  0  0  0
  -25.0160  -34.0520   24.9790 H   0  0  0  0  0  0  0  0  0  0  0  0
  -24.2000  -36.7490   23.0620 C   0  0  0  0  0  1  0  0  0  0  0  0
  -25.4400  -36.3410   23.8750 C   0  0  0  0  0  3  0  0  0  0  0  0
  -27.5710  -37.2250   24.7140 C   0  0  0  0  0  1  0  0  0  0  0  0
  -26.4700  -37.3960   23.7700 N   0  0  0  0  0  0  0  0  0  0  0  0
  -26.0600  -38.3130   23.9260 H   0  0  0  0  0  0  0  0  0  0  0  0
  -32.0680  -23.0340   17.8820 C   0  0  0  0  0  2  0  0  0  0  0  0
  -31.1190  -22.1620   18.6190 N   0  0  0  0  0  4  0  0  0  0  0  0
  -30.2410  -22.1470   18.1230 H   0  0  0  0  0  0  0  0  0  0  0  0
  -30.9630  -22.5770   19.5250 H   0  0  0  0  0  0  0  0  0  0  0  0
  -31.5660  -20.7660   18.8290 C   0  0  0  0  0  2  0  0  0  0  0  0
  -30.5070  -19.9440   19.5940 C   0  0  0  0  0  2  0  0  0  0  0  0
  -31.0640  -18.6820   20.2720 C   0  0  0  0  0  2  0  0  0  0  0  0
  -29.9660  -17.6880   20.6880 C   0  0  0  0  0  2  0  0  0  0  0  0
  -30.4500  -16.6660   21.7360 C   0  0  0  0  0  2  0  0  0  0  0  0
  -30.6650  -14.4420   20.6270 C   0  0  0  0  0  0  0  0  0  0  0  0
  -30.3880  -12.3620   19.3380 C   0  0  0  0  0  2  0  0  0  0  0  0
  -29.4360  -12.6040   18.1480 C   0  0  0  0  0  2  0  0  0  0  0  0
  -27.9650  -12.4330   18.5760 C   0  0  0  0  0  2  0  0  0  0  0  0
  -27.6250  -13.2430   19.8540 C   0  0  0  0  0  3  0  0  0  0  0  0
  -28.6650  -12.9460   20.9530 C   0  0  0  0  0  2  0  0  0  0  0  0
  -29.9980  -13.2790   20.4170 N   0  0  0  0  0  0  0  0  0  0  0  0
  -31.7430  -14.7160   20.0920 O   0  0  0  0  0  0  0  0  0  0  0  0
  -30.0200  -15.3110   21.4180 N   0  0  0  0  0  0  0  0  0  0  0  0
  -29.1390  -15.0020   21.7980 H   0  0  0  0  0  0  0  0  0  0  0  0
  -25.2090  -13.8530   20.5150 C   0  0  0  0  0  0  0  0  0  0  0  0
  -24.1380  -13.0790   20.8790 C   0  0  0  0  0  0  0  0  0  0  0  0
  -24.6090  -11.7290   20.8670 C   0  0  0  0  0  0  0  0  0  0  0  0
  -26.2640  -12.9760   20.3110 N   0  0  0  0  0  0  0  0  0  0  0  0
  -25.9030  -11.6950   20.5740 N   0  0  0  0  0  0  0  0  0  0  0  0
  -23.8900  -10.4640   21.0610 C   0  0  0  0  0  0  0  0  0  0  0  0
  -24.3290   -9.4990   21.9940 C   0  0  0  0  0  3  0  0  0  0  0  0
  -23.6080   -8.2990   22.1740 C   0  0  0  0  0  3  0  0  0  0  0  0
  -22.4380   -8.0540   21.4190 C   0  0  0  0  0  0  0  0  0  0  0  0
  -22.0190   -9.0080   20.4750 C   0  0  0  0  0  3  0  0  0  0  0  0
  -22.7390  -10.2000   20.2930 C   0  0  0  0  0  3  0  0  0  0  0  0
  -21.6940   -6.9020   21.5040 O   0  0  0  0  0  0  0  0  0  0  0  0
  -21.6640   -6.1490   22.6510 C   0  0  0  0  0  0  0  0  0  0  0  0
  -21.2520   -6.6920   23.8870 C   0  0  0  0  0  3  0  0  0  0  0  0
  -21.1650   -5.8660   25.0260 C   0  0  0  0  0  3  0  0  0  0  0  0
  -21.4850   -4.4990   24.9290 C   0  0  0  0  0  0  0  0  0  0  0  0
  -21.8910   -3.9550   23.6980 C   0  0  0  0  0  3  0  0  0  0  0  0
  -21.9760   -4.7770   22.5610 C   0  0  0  0  0  0  0  0  0  0  0  0
  -22.3470   -4.2430   21.3720 F   0  0  0  0  0  0  0  0  0  0  0  0
  -21.3960   -3.7040   26.0200 F   0  0  0  0  0  0  0  0  0  0  0  0
  -22.7350  -13.5520   21.1310 C   0  0  0  0  0  0  0  0  0  0  0  0
  -21.9990  -12.8600   21.9950 N   0  0  0  0  0  0  0  0  0  0  0  0
  -22.2960  -14.5700   20.5970 O   0  0  0  0  0  0  0  0  0  0  0  0
  -22.3680  -12.0400   22.4520 H   0  0  0  0  0  0  0  0  0  0  0  0
  -21.0580  -13.1620   22.2070 H   0  0  0  0  0  0  0  0  0  0  0  0
  -25.3730  -15.2240   20.3300 N   0  0  0  0  0  0  0  0  0  0  0  0
  -24.6080  -15.8810   20.4330 H   0  0  0  0  0  0  0  0  0  0  0  0
  -26.2360  -15.6590   20.0300 H   0  0  0  0  0  0  0  0  0  0  0  0
  1 49  1  0
  1  2  1  0
  2  4  2  0
  3  2  1  0
  3  6  1  0
  5  3  1  0
  6  7  1  0
  8 10  1  0
  8  7  1  0
  9 20  2  0
 10 15  1  0
 11 19  1  0
 11 21  1  0
 12 18  1  0
 12 14  1  0
 13 19  1  0
 14 13  1  0
 15 14  2  0
 16 17  1  0
 16 10  2  0
 17 12  2  0
 18 11  1  0
 19  9  1  0
 21 23  2  0
 22 21  1  0
 24 22  1  0
 25 34  2  0
 25 30  1  0
 26 22  1  0
 26 30  1  0
 27 26  1  0
 28 29  1  0
 28 27  1  0
 29 25  1  0
 30 31  2  0
 31 32  1  0
 33 32  2  0
 34 33  1  0
 35  9  1  0
 35 40  1  0
 35 36  1  0
 36 39  1  1
 36 37  1  0
 38 36  1  0
 40 43  1  0
 41 45  1  0
 41 40  1  0
 42 41  2  0
 45 44  1  0
 47 45  1  0
 47 48  1  0
 47 46  1  0
 49 50  1  0
 50 53  1  0
 50 52  1  0
 51 50  1  0
 53 54  1  0
 54 55  1  0
 55 56  1  0
 56 57  1  0
 58 66  1  0
 59 64  1  0
 60 61  1  0
 60 59  1  0
 62 61  1  0
 62 71  1  0
 62 63  1  0
 64 58  1  0
 64 63  1  0
 65 58  2  0
 66 57  1  0
 66 67  1  0
 68 69  2  0
 69 88  1  0
 70 69  1  0
 70 73  1  0
 71 68  1  0
 71 72  1  0
 72 70  2  0
 73 74  1  0
 74 75  2  0
 76 79  1  0
 76 75  1  0
 77 76  2  0
 78 77  1  0
 78 73  2  0
 79 80  1  0
 80 81  1  0
 81 82  2  0
 83 82  1  0
 83 87  1  0
 84 83  2  0
 85 80  2  0
 85 84  1  0
 86 85  1  0
 88 89  1  0
 89 92  1  0
 89 91  1  0
 90 88  2  0
 93 94  1  0
 93 68  1  0
 95 93  1  0
M  ISO  4   7 101   8 101  58 100  66 100
M  END
>  <TORSDO>  (14) 
F 26

>  <SCORE>  (14) 
-11.825

>  <name>  (14) 
13

>  <ligand_id>  (14) 
13

>  <original_smiles>  (14) 
[H]c1c([H])c([H])c2c(c1[H])C([H])([H])C([H])([H])C([H])([H])C2([H])N([H])C(=O)C1([H])N(C(=O)C([H])(N([H])C(=O)C([H])(N([H])C([H])([H])[H])C([H])([H])[H])C(C([H])([H])[H])(C([H])([H])[H])C([H])([H])[H])C([H])([H])c2c([H])c(OC([H])([H])C([H])([H])N([H])C(=O)C([H])([H])C([H])([H])[N+]([H])([H])C([H])([H])C([H])([H])C([H])([H])C([H])([H])C([H])([H])N([H])C(=O)N3C([H])([H])C([H])([H])C([H])([H])C([H])(n4nc(-c5c([H])c([H])c(Oc6c([H])c([H])c(F)c([H])c6F)c([H])c5[H])c(C(=O)N([H])[H])c4N([H])[H])C3([H])[H])c([H])c([H])c2C1([H])[H]

>  <smiles>  (14) 
[H]c1c([H])c([H])c2c(c1[H])C([H])([H])C([H])([H])C([H])([H])C2([H])N([H])C(=O)C1([H])N(C(=O)C([H])(N([H])C(=O)C([H])(N([H])C([H])([H])[H])C([H])([H])[H])C(C([H])([H])[H])(C([H])([H])[H])C([H])([H])[H])C([H])([H])c2c([H])c(OC([H])([H])C([H])([H])N([H])C(=O)C([H])([H])C([H])([H])[N+]([H])([H])C([H])([H])C([H])([H])C([H])([H])C([H])([H])C([H])([H])N([H])C(=O)N3C([H])([H])C([H])([H])C([H])([H])C([H])(n4nc(-c5c([H])c([H])c(Oc6c([H])c([H])c(F)c([H])c6F)c([H])c5[H])c(C(=O)N([H])[H])c4N([H])[H])C3([H])[H])c([H])c([H])c2C1([H])[H]

$$$$
14:0:0
     RDKit          3D

101108  0  0  1  0  0  0  0  0999 V2000
  -22.5510  -20.8710   24.7630 C   0  0  0  0  0  2  0  0  0  0  0  0
  -21.6450  -19.7370   24.4790 N   0  0  0  0  0  4  0  0  0  0  0  0
  -21.7200  -19.4910   23.5050 H   0  0  0  0  0  0  0  0  0  0  0  0
  -20.6980  -20.0360   24.6450 H   0  0  0  0  0  0  0  0  0  0  0  0
  -21.9090  -18.5280   25.2910 C   0  0  0  0  0  2  0  0  0  0  0  0
  -22.3000  -17.3210   24.4270 C   0  0  0  0  0  2  0  0  0  0  0  0
  -23.5730  -17.5200   23.8110 O   0  0  0  0  0  0  0  0  0  0  0  0
  -23.9520  -16.3750   23.0560 C   0  0  0  0  0  2  0  0  0  0  0  0
  -25.4490  -16.3810   22.7270 C   0  0  0  0  0  2  0  0  0  0  0  0
  -25.7890  -16.9780   21.3490 C   0  0  0  0  0  2  0  0  0  0  0  0
  -27.3070  -17.0140   21.0920 C   0  0  0  0  0  2  0  0  0  0  0  0
  -27.6880  -17.3970   19.6460 C   0  0  0  0  0  2  0  0  0  0  0  0
  -29.0960  -16.9140   19.2330 C   0  0  0  0  0  2  0  0  0  0  0  0
  -30.0310  -14.5700   19.0650 C   0  0  0  0  0  0  0  0  0  0  0  0
  -30.2470  -12.1220   18.8160 C   0  0  0  0  0  2  0  0  0  0  0  0
  -29.1840  -11.5890   17.8320 C   0  0  0  0  0  2  0  0  0  0  0  0
  -27.8360  -11.3310   18.5350 C   0  0  0  0  0  2  0  0  0  0  0  0
  -27.3880  -12.5320   19.4110 C   0  0  0  0  0  3  0  0  0  0  0  0
  -28.5470  -12.9750   20.3280 C   0  0  0  0  0  2  0  0  0  0  0  0
  -29.7040  -13.3180   19.4740 N   0  0  0  0  0  0  0  0  0  0  0  0
  -30.9060  -14.8210   18.2300 O   0  0  0  0  0  0  0  0  0  0  0  0
  -29.2570  -15.5170   19.6140 N   0  0  0  0  0  0  0  0  0  0  0  0
  -28.6020  -15.1730   20.3000 H   0  0  0  0  0  0  0  0  0  0  0  0
  -25.2960  -13.0650   20.8160 C   0  0  0  0  0  0  0  0  0  0  0  0
  -24.3150  -12.2620   21.3350 C   0  0  0  0  0  0  0  0  0  0  0  0
  -24.6640  -10.9270   20.9670 C   0  0  0  0  0  0  0  0  0  0  0  0
  -26.1880  -12.2150   20.1820 N   0  0  0  0  0  0  0  0  0  0  0  0
  -25.8230  -10.9160   20.3230 N   0  0  0  0  0  0  0  0  0  0  0  0
  -23.9380   -9.6630   21.1420 C   0  0  0  0  0  0  0  0  0  0  0  0
  -24.4400   -8.6290   21.9630 C   0  0  0  0  0  3  0  0  0  0  0  0
  -23.7140   -7.4320   22.1310 C   0  0  0  0  0  3  0  0  0  0  0  0
  -22.4680   -7.2590   21.4820 C   0  0  0  0  0  0  0  0  0  0  0  0
  -21.9850   -8.2820   20.6460 C   0  0  0  0  0  3  0  0  0  0  0  0
  -22.7140   -9.4710   20.4750 C   0  0  0  0  0  3  0  0  0  0  0  0
  -21.7050   -6.1200   21.5680 O   0  0  0  0  0  0  0  0  0  0  0  0
  -21.6320   -5.3860   22.7250 C   0  0  0  0  0  0  0  0  0  0  0  0
  -21.1150   -5.9330   23.9220 C   0  0  0  0  0  3  0  0  0  0  0  0
  -20.9930   -5.1250   25.0690 C   0  0  0  0  0  3  0  0  0  0  0  0
  -21.3770   -3.7700   25.0230 C   0  0  0  0  0  0  0  0  0  0  0  0
  -21.8880   -3.2240   23.8320 C   0  0  0  0  0  3  0  0  0  0  0  0
  -22.0120   -4.0300   22.6870 C   0  0  0  0  0  0  0  0  0  0  0  0
  -22.4860   -3.4910   21.5360 F   0  0  0  0  0  0  0  0  0  0  0  0
  -21.2560   -2.9940   26.1240 F   0  0  0  0  0  0  0  0  0  0  0  0
  -23.0750  -12.7110   22.0550 C   0  0  0  0  0  0  0  0  0  0  0  0
  -22.5490  -11.8720   22.9400 N   0  0  0  0  0  0  0  0  0  0  0  0
  -22.6020  -13.8320   21.8780 O   0  0  0  0  0  0  0  0  0  0  0  0
  -22.9480  -10.9560   23.0850 H   0  0  0  0  0  0  0  0  0  0  0  0
  -21.7350  -12.1490   23.4690 H   0  0  0  0  0  0  0  0  0  0  0  0
  -25.4940  -14.4420   20.8130 N   0  0  0  0  0  0  0  0  0  0  0  0
  -24.8220  -15.0940   21.1990 H   0  0  0  0  0  0  0  0  0  0  0  0
  -26.2660  -14.9010   20.3490 H   0  0  0  0  0  0  0  0  0  0  0  0
  -22.4880  -21.9440   23.6640 C   0  0  0  0  0  2  0  0  0  0  0  0
  -23.5680  -23.0310   23.8210 C   0  0  0  0  0  2  0  0  0  0  0  0
  -23.9190  -23.6760   22.4690 C   0  0  0  0  0  2  0  0  0  0  0  0
  -25.2660  -24.2810   22.4610 N   0  0  0  0  0  4  0  0  0  0  0  0
  -25.8950  -23.6780   22.9650 H   0  0  0  0  0  0  0  0  0  0  0  0
  -25.2260  -25.1680   22.9410 H   0  0  0  0  0  0  0  0  0  0  0  0
  -25.7920  -24.4790   21.0940 C   0  0  0  0  0  2  0  0  0  0  0  0
  -27.1470  -25.2030   21.0740 C   0  0  0  0  0  2  0  0  0  0  0  0
  -27.5720  -25.6280   19.6490 C   0  0  0  0  0  2  0  0  0  0  0  0
  -27.6670  -27.0470   19.5440 O   0  0  0  0  0  0  0  0  0  0  0  0
  -24.5140  -32.0960   23.3910 C   0  0  0  0  0  0  0  0  0  0  0  0
  -26.5200  -27.7910   19.7140 C   0  0  0  0  0  0  0  0  0  0  0  0
  -23.0470  -30.9030   21.7960 C   0  0  0  0  0  3  0  0  0  0  0  0
  -24.2330  -29.4010   20.1150 C   0  0  0  0  0  0  0  0  0  0  0  0
  -25.5550  -31.1300   21.3460 C   0  0  0  0  0  2  0  0  0  0  0  0
  -25.4760  -29.8130   20.6070 C   0  0  0  0  0  0  0  0  0  0  0  0
  -26.6220  -29.0140   20.4090 C   0  0  0  0  0  3  0  0  0  0  0  0
  -25.2580  -27.3940   19.2120 C   0  0  0  0  0  3  0  0  0  0  0  0
  -24.1170  -28.1860   19.4210 C   0  0  0  0  0  3  0  0  0  0  0  0
  -23.0600  -30.3220   20.3570 C   0  0  0  0  0  2  0  0  0  0  0  0
  -24.3970  -31.3860   22.2340 N   0  0  0  0  0  0  0  0  0  0  0  0
  -23.5160  -32.3870   24.0660 O   0  0  0  0  0  0  0  0  0  0  0  0
  -22.4330  -29.8500   22.7450 C   0  0  0  0  0  0  0  0  0  0  0  0
  -21.1250  -29.5950   22.5890 N   0  0  0  0  0  0  0  0  0  0  0  0
  -23.1350  -29.2620   23.5730 O   0  0  0  0  0  0  0  0  0  0  0  0
  -20.6210  -30.1220   21.8900 H   0  0  0  0  0  0  0  0  0  0  0  0
  -17.8640  -28.0670   22.8650 C   0  0  0  0  0  0  0  0  0  0  0  0
  -20.3430  -28.6180   23.3440 C   0  0  0  0  0  3  0  0  0  0  0  0
  -20.6500  -27.1790   22.8730 C   0  0  0  0  0  2  0  0  0  0  0  0
  -19.6880  -26.6830   21.7890 C   0  0  0  0  0  2  0  0  0  0  0  0
  -18.2460  -26.7090   22.3000 C   0  0  0  0  0  2  0  0  0  0  0  0
  -18.8510  -28.9700   23.3410 C   0  0  0  0  0  0  0  0  0  0  0  0
  -18.4480  -30.2340   23.8250 C   0  0  0  0  0  3  0  0  0  0  0  0
  -17.0880  -30.5970   23.8410 C   0  0  0  0  0  3  0  0  0  0  0  0
  -16.1140  -29.6930   23.3840 C   0  0  0  0  0  3  0  0  0  0  0  0
  -16.5020  -28.4300   22.9020 C   0  0  0  0  0  3  0  0  0  0  0  0
  -25.9010  -32.5940   23.9070 C   0  0  0  0  0  3  0  0  0  0  0  0
  -25.7450  -33.9980   24.3030 N   0  0  0  0  0  0  0  0  0  0  0  0
  -26.1140  -35.0460   23.5510 C   0  0  0  0  0  0  0  0  0  0  0  0
  -26.6980  -34.9210   22.4700 O   0  0  0  0  0  0  0  0  0  0  0  0
  -25.2350  -34.1770   25.1540 H   0  0  0  0  0  0  0  0  0  0  0  0
  -24.5360  -36.9940   23.3660 C   0  0  0  0  0  1  0  0  0  0  0  0
  -25.7830  -36.4530   24.0820 C   0  0  0  0  0  3  0  0  0  0  0  0
  -28.0410  -37.1100   24.7930 C   0  0  0  0  0  1  0  0  0  0  0  0
  -26.8990  -37.4140   23.9350 N   0  0  0  0  0  0  0  0  0  0  0  0
  -26.5880  -38.3600   24.1410 H   0  0  0  0  0  0  0  0  0  0  0  0
  -26.4660  -31.7360   25.1050 C   0  0  1  0  0  0  0  0  0  0  0  0
  -25.4530  -31.5280   26.2540 C   0  0  0  0  0  1  0  0  0  0  0  0
  -26.9170  -30.3410   24.6110 C   0  0  0  0  0  1  0  0  0  0  0  0
  -27.7230  -32.4190   25.6930 C   0  0  0  0  0  1  0  0  0  0  0  0
  2  4  1  0
  2  1  1  0
  2  5  1  0
  3  2  1  0
  6  5  1  0
  7  6  1  0
  8  7  1  0
  9  8  1  0
 10  9  1  0
 11 10  1  0
 12 11  1  0
 13 22  1  0
 13 12  1  0
 14 20  1  0
 14 22  1  0
 15 20  1  0
 16 17  1  0
 16 15  1  0
 18 17  1  0
 18 27  1  0
 18 19  1  0
 20 19  1  0
 21 14  2  0
 22 23  1  0
 24 25  2  0
 25 44  1  0
 26 29  1  0
 26 25  1  0
 27 28  1  0
 27 24  1  0
 28 26  2  0
 29 30  1  0
 30 31  2  0
 32 35  1  0
 32 31  1  0
 33 32  2  0
 34 33  1  0
 34 29  2  0
 35 36  1  0
 36 37  1  0
 37 38  2  0
 39 38  1  0
 39 43  1  0
 40 39  2  0
 41 36  2  0
 41 40  1  0
 42 41  1  0
 44 45  1  0
 45 47  1  0
 45 48  1  0
 46 44  2  0
 49 24  1  0
 49 50  1  0
 51 49  1  0
 52 53  1  0
 52  1  1  0
 54 53  1  0
 55 54  1  0
 55 57  1  0
 55 56  1  0
 58 55  1  0
 59 58  1  0
 60 59  1  0
 61 60  1  0
 61 63  1  0
 62 73  2  0
 63 68  1  0
 64 72  1  0
 64 74  1  0
 65 71  1  0
 65 67  1  0
 66 72  1  0
 67 66  1  0
 68 67  2  0
 69 70  1  0
 69 63  2  0
 70 65  2  0
 71 64  1  0
 72 62  1  0
 74 76  2  0
 75 74  1  0
 77 75  1  0
 78 87  2  0
 78 83  1  0
 79 75  1  0
 80 79  1  0
 81 82  1  0
 81 80  1  0
 82 78  1  0
 83 79  1  0
 83 84  2  0
 84 85  1  0
 86 85  2  0
 87 86  1  0
 88 62  1  0
 88 89  1  0
 88 98  1  0
 89 92  1  0
 90 94  1  0
 90 89  1  0
 91 90  2  0
 94 93  1  0
 96 94  1  0
 96 97  1  0
 96 95  1  0
 98101  1  1
 98 99  1  0
100 98  1  0
M  ISO  4  14 100  22 100  60 101  61 101
M  END
>  <TORSDO>  (15) 
F 33

>  <SCORE>  (15) 
28.989

>  <name>  (15) 
14

>  <ligand_id>  (15) 
14

>  <original_smiles>  (15) 
[H]c1c([H])c([H])c2c(c1[H])C([H])([H])C([H])([H])C([H])([H])C2([H])N([H])C(=O)C1([H])N(C(=O)C([H])(N([H])C(=O)C([H])(N([H])C([H])([H])[H])C([H])([H])[H])C(C([H])([H])[H])(C([H])([H])[H])C([H])([H])[H])C([H])([H])c2c([H])c(OC([H])([H])C([H])([H])C([H])([H])[N+]([H])([H])C([H])([H])C([H])([H])C([H])([H])C([H])([H])[N+]([H])([H])C([H])([H])C([H])([H])OC([H])([H])C([H])([H])C([H])([H])C([H])([H])C([H])([H])C([H])([H])N([H])C(=O)N3C([H])([H])C([H])([H])C([H])([H])C([H])(n4nc(-c5c([H])c([H])c(Oc6c([H])c([H])c(F)c([H])c6F)c([H])c5[H])c(C(=O)N([H])[H])c4N([H])[H])C3([H])[H])c([H])c([H])c2C1([H])[H]

>  <smiles>  (15) 
[H]c1c([H])c([H])c2c(c1[H])C([H])([H])C([H])([H])C([H])([H])C2([H])N([H])C(=O)C1([H])N(C(=O)C([H])(N([H])C(=O)C([H])(N([H])C([H])([H])[H])C([H])([H])[H])C(C([H])([H])[H])(C([H])([H])[H])C([H])([H])[H])C([H])([H])c2c([H])c(OC([H])([H])C([H])([H])C([H])([H])[N+]([H])([H])C([H])([H])C([H])([H])C([H])([H])C([H])([H])[N+]([H])([H])C([H])([H])C([H])([H])OC([H])([H])C([H])([H])C([H])([H])C([H])([H])C([H])([H])C([H])([H])N([H])C(=O)N3C([H])([H])C([H])([H])C([H])([H])C([H])(n4nc(-c5c([H])c([H])c(Oc6c([H])c([H])c(F)c([H])c6F)c([H])c5[H])c(C(=O)N([H])[H])c4N([H])[H])C3([H])[H])c([H])c([H])c2C1([H])[H]

$$$$
15:0:0
     RDKit          3D

 95102  0  0  1  0  0  0  0  0999 V2000
  -29.9210  -21.9370   19.1360 N   0  0  0  0  0  4  0  0  0  0  0  0
  -30.0460  -21.4350   18.2720 H   0  0  0  0  0  0  0  0  0  0  0  0
  -30.7950  -22.3790   19.3680 H   0  0  0  0  0  0  0  0  0  0  0  0
  -28.9080  -22.9860   18.9270 C   0  0  0  0  0  2  0  0  0  0  0  0
  -29.4710  -24.1580   18.1020 C   0  0  0  0  0  2  0  0  0  0  0  0
  -28.4250  -25.1530   17.9030 N   0  0  0  0  0  0  0  0  0  0  0  0
  -27.8990  -25.2330   18.7720 H   0  0  0  0  0  0  0  0  0  0  0  0
  -28.9600  -26.4970   17.7000 C   0  0  0  0  0  2  0  0  0  0  0  0
  -29.3330  -27.1230   19.0620 C   0  0  0  0  0  2  0  0  0  0  0  0
  -28.3860  -26.7360   20.0580 O   0  0  0  0  0  0  0  0  0  0  0  0
  -24.6100  -31.8720   23.2150 C   0  0  0  0  0  0  0  0  0  0  0  0
  -27.2360  -27.4790   20.0820 C   0  0  0  0  0  0  0  0  0  0  0  0
  -23.3960  -30.4950   21.5550 C   0  0  0  0  0  3  0  0  0  0  0  0
  -24.8420  -28.9640   20.1180 C   0  0  0  0  0  0  0  0  0  0  0  0
  -25.9190  -30.8490   21.3600 C   0  0  0  0  0  2  0  0  0  0  0  0
  -26.0020  -29.4860   20.7080 C   0  0  0  0  0  0  0  0  0  0  0  0
  -27.2050  -28.7500   20.6930 C   0  0  0  0  0  3  0  0  0  0  0  0
  -26.0580  -26.9490   19.5160 C   0  0  0  0  0  3  0  0  0  0  0  0
  -24.8620  -27.6910   19.5240 C   0  0  0  0  0  3  0  0  0  0  0  0
  -23.6010  -29.8280   20.1680 C   0  0  0  0  0  2  0  0  0  0  0  0
  -24.6590  -31.0850   22.1030 N   0  0  0  0  0  0  0  0  0  0  0  0
  -23.5300  -32.1470   23.7570 O   0  0  0  0  0  0  0  0  0  0  0  0
  -22.7400  -29.4670   22.5040 C   0  0  0  0  0  0  0  0  0  0  0  0
  -21.4140  -29.3020   22.3780 N   0  0  0  0  0  0  0  0  0  0  0  0
  -23.4210  -28.8230   23.3070 O   0  0  0  0  0  0  0  0  0  0  0  0
  -20.9330  -29.8770   21.7010 H   0  0  0  0  0  0  0  0  0  0  0  0
  -18.0260  -28.1350   22.8490 C   0  0  0  0  0  0  0  0  0  0  0  0
  -20.5850  -28.3630   23.1340 C   0  0  0  0  0  3  0  0  0  0  0  0
  -20.6750  -26.9380   22.5420 C   0  0  0  0  0  2  0  0  0  0  0  0
  -19.5730  -26.6370   21.5210 C   0  0  0  0  0  2  0  0  0  0  0  0
  -18.1910  -26.7900   22.1610 C   0  0  0  0  0  2  0  0  0  0  0  0
  -19.1510  -28.8810   23.2900 C   0  0  0  0  0  0  0  0  0  0  0  0
  -18.9440  -30.1420   23.8900 C   0  0  0  0  0  3  0  0  0  0  0  0
  -17.6440  -30.6560   24.0550 C   0  0  0  0  0  3  0  0  0  0  0  0
  -16.5340  -29.9060   23.6310 C   0  0  0  0  0  3  0  0  0  0  0  0
  -16.7240  -28.6480   23.0330 C   0  0  0  0  0  3  0  0  0  0  0  0
  -25.9020  -32.4830   23.8420 C   0  0  0  0  0  3  0  0  0  0  0  0
  -26.4460  -31.6600   25.0730 C   0  0  1  0  0  0  0  0  0  0  0  0
  -25.3770  -31.3670   26.1520 C   0  0  0  0  0  1  0  0  0  0  0  0
  -27.0300  -30.3060   24.6060 C   0  0  0  0  0  1  0  0  0  0  0  0
  -27.6050  -32.4320   25.7470 C   0  0  0  0  0  1  0  0  0  0  0  0
  -25.5900  -33.8630   24.2360 N   0  0  0  0  0  0  0  0  0  0  0  0
  -25.9030  -34.9490   23.5150 C   0  0  0  0  0  0  0  0  0  0  0  0
  -26.5590  -34.8940   22.4710 O   0  0  0  0  0  0  0  0  0  0  0  0
  -25.0030  -33.9800   25.0490 H   0  0  0  0  0  0  0  0  0  0  0  0
  -24.1490  -36.7330   23.2640 C   0  0  0  0  0  1  0  0  0  0  0  0
  -25.4100  -36.3120   24.0360 C   0  0  0  0  0  3  0  0  0  0  0  0
  -27.5590  -37.1800   24.8460 C   0  0  0  0  0  1  0  0  0  0  0  0
  -26.4280  -37.3820   23.9440 N   0  0  0  0  0  0  0  0  0  0  0  0
  -26.0170  -38.2900   24.1430 H   0  0  0  0  0  0  0  0  0  0  0  0
  -29.5850  -20.9920   20.2180 C   0  0  0  0  0  2  0  0  0  0  0  0
  -30.6330  -19.8760   20.3400 C   0  0  0  0  0  2  0  0  0  0  0  0
  -30.4690  -19.0550   21.6250 C   0  0  0  0  0  2  0  0  0  0  0  0
  -31.5260  -17.9510   21.7260 C   0  0  0  0  0  2  0  0  0  0  0  0
  -31.4380  -17.1590   23.0380 C   0  0  0  0  0  2  0  0  0  0  0  0
  -32.5010  -16.0480   23.0900 C   0  0  0  0  0  2  0  0  0  0  0  0
  -31.9720  -14.6050   23.0390 C   0  0  0  0  0  2  0  0  0  0  0  0
  -30.8810  -14.1980   20.8200 C   0  0  0  0  0  0  0  0  0  0  0  0
  -30.4030  -12.2980   19.3340 C   0  0  0  0  0  2  0  0  0  0  0  0
  -29.4530  -12.5480   18.1570 C   0  0  0  0  0  2  0  0  0  0  0  0
  -27.9910  -12.3750   18.5980 C   0  0  0  0  0  2  0  0  0  0  0  0
  -27.6600  -13.2020   19.8640 C   0  0  0  0  0  3  0  0  0  0  0  0
  -28.7010  -12.9590   20.9760 C   0  0  0  0  0  2  0  0  0  0  0  0
  -30.0500  -13.2050   20.4330 N   0  0  0  0  0  0  0  0  0  0  0  0
  -31.7850  -14.6590   20.1160 O   0  0  0  0  0  0  0  0  0  0  0  0
  -30.8380  -14.3700   22.1460 N   0  0  0  0  0  0  0  0  0  0  0  0
  -30.0440  -13.9220   22.5810 H   0  0  0  0  0  0  0  0  0  0  0  0
  -25.2600  -13.8160   20.5670 C   0  0  0  0  0  0  0  0  0  0  0  0
  -24.1840  -13.0430   20.9170 C   0  0  0  0  0  0  0  0  0  0  0  0
  -24.6380  -11.6900   20.8710 C   0  0  0  0  0  0  0  0  0  0  0  0
  -26.3020  -12.9320   20.3330 N   0  0  0  0  0  0  0  0  0  0  0  0
  -25.9310  -11.6480   20.5730 N   0  0  0  0  0  0  0  0  0  0  0  0
  -23.9030  -10.4300   21.0390 C   0  0  0  0  0  0  0  0  0  0  0  0
  -24.3600   -9.4220   21.9170 C   0  0  0  0  0  3  0  0  0  0  0  0
  -23.6280   -8.2250   22.0740 C   0  0  0  0  0  3  0  0  0  0  0  0
  -22.4270   -8.0280   21.3530 C   0  0  0  0  0  0  0  0  0  0  0  0
  -21.9890   -9.0240   20.4640 C   0  0  0  0  0  3  0  0  0  0  0  0
  -22.7200  -10.2130   20.3040 C   0  0  0  0  0  3  0  0  0  0  0  0
  -21.6630   -6.8870   21.4240 O   0  0  0  0  0  0  0  0  0  0  0  0
  -21.6850   -6.0730   22.5280 C   0  0  0  0  0  0  0  0  0  0  0  0
  -21.4010   -6.5630   23.8210 C   0  0  0  0  0  3  0  0  0  0  0  0
  -21.3660   -5.6790   24.9170 C   0  0  0  0  0  3  0  0  0  0  0  0
  -21.6040   -4.3050   24.7230 C   0  0  0  0  0  0  0  0  0  0  0  0
  -21.8820   -3.8130   23.4350 C   0  0  0  0  0  3  0  0  0  0  0  0
  -21.9190   -4.6950   22.3400 C   0  0  0  0  0  0  0  0  0  0  0  0
  -22.1660   -4.2140   21.0980 F   0  0  0  0  0  0  0  0  0  0  0  0
  -21.5630   -3.4540   25.7740 F   0  0  0  0  0  0  0  0  0  0  0  0
  -22.7870  -13.5240   21.1840 C   0  0  0  0  0  0  0  0  0  0  0  0
  -22.0510  -12.8220   22.0400 N   0  0  0  0  0  0  0  0  0  0  0  0
  -22.3550  -14.5550   20.6710 O   0  0  0  0  0  0  0  0  0  0  0  0
  -22.4130  -11.9880   22.4760 H   0  0  0  0  0  0  0  0  0  0  0  0
  -21.1130  -13.1240   22.2620 H   0  0  0  0  0  0  0  0  0  0  0  0
  -25.4340  -15.1860   20.4090 N   0  0  0  0  0  0  0  0  0  0  0  0
  -24.6740  -15.8490   20.5220 H   0  0  0  0  0  0  0  0  0  0  0  0
  -26.3020  -15.6220   20.1200 H   0  0  0  0  0  0  0  0  0  0  0  0
  1  3  1  0
  1 51  1  0
  2  1  1  0
  4  1  1  0
  5  4  1  0
  6  5  1  0
  6  7  1  0
  8  6  1  0
  8  9  1  0
  9 10  1  0
 10 12  1  0
 11 22  2  0
 12 17  1  0
 13 21  1  0
 13 23  1  0
 14 20  1  0
 14 16  1  0
 15 21  1  0
 16 15  1  0
 17 16  2  0
 18 19  1  0
 18 12  2  0
 19 14  2  0
 20 13  1  0
 21 11  1  0
 23 25  2  0
 24 23  1  0
 26 24  1  0
 27 36  2  0
 27 32  1  0
 28 24  1  0
 28 32  1  0
 29 28  1  0
 30 31  1  0
 30 29  1  0
 31 27  1  0
 32 33  2  0
 33 34  1  0
 35 34  2  0
 36 35  1  0
 37 11  1  0
 37 42  1  0
 37 38  1  0
 38 41  1  1
 38 39  1  0
 40 38  1  0
 42 45  1  0
 43 47  1  0
 43 42  1  0
 44 43  2  0
 47 46  1  0
 49 47  1  0
 49 50  1  0
 49 48  1  0
 51 52  1  0
 52 53  1  0
 53 54  1  0
 54 55  1  0
 55 56  1  0
 57 56  1  0
 58 66  1  0
 59 64  1  0
 60 61  1  0
 60 59  1  0
 62 61  1  0
 62 71  1  0
 62 63  1  0
 64 58  1  0
 64 63  1  0
 65 58  2  0
 66 67  1  0
 66 57  1  0
 68 69  2  0
 69 88  1  0
 70 69  1  0
 70 73  1  0
 71 68  1  0
 71 72  1  0
 72 70  2  0
 73 74  1  0
 74 75  2  0
 76 79  1  0
 76 75  1  0
 77 76  2  0
 78 77  1  0
 78 73  2  0
 79 80  1  0
 80 81  1  0
 81 82  2  0
 83 82  1  0
 83 87  1  0
 84 83  2  0
 85 80  2  0
 85 84  1  0
 86 85  1  0
 88 89  1  0
 89 92  1  0
 89 91  1  0
 90 88  2  0
 93 94  1  0
 93 68  1  0
 95 93  1  0
M  ISO  4   9 101  10 101  58 100  66 100
M  END
>  <TORSDO>  (16) 
F 28

>  <SCORE>  (16) 
-3.997

>  <name>  (16) 
15

>  <ligand_id>  (16) 
15

>  <original_smiles>  (16) 
[H]c1c([H])c([H])c2c(c1[H])C([H])([H])C([H])([H])C([H])([H])C2([H])N([H])C(=O)C1([H])N(C(=O)C([H])(N([H])C(=O)C([H])(N([H])C([H])([H])[H])C([H])([H])[H])C(C([H])([H])[H])(C([H])([H])[H])C([H])([H])[H])C([H])([H])c2c([H])c(OC([H])([H])C([H])([H])N([H])C([H])([H])C([H])([H])[N+]([H])([H])C([H])([H])C([H])([H])C([H])([H])C([H])([H])C([H])([H])C([H])([H])C([H])([H])N([H])C(=O)N3C([H])([H])C([H])([H])C([H])([H])C([H])(n4nc(-c5c([H])c([H])c(Oc6c([H])c([H])c(F)c([H])c6F)c([H])c5[H])c(C(=O)N([H])[H])c4N([H])[H])C3([H])[H])c([H])c([H])c2C1([H])[H]

>  <smiles>  (16) 
[H]c1c([H])c([H])c2c(c1[H])C([H])([H])C([H])([H])C([H])([H])C2([H])N([H])C(=O)C1([H])N(C(=O)C([H])(N([H])C(=O)C([H])(N([H])C([H])([H])[H])C([H])([H])[H])C(C([H])([H])[H])(C([H])([H])[H])C([H])([H])[H])C([H])([H])c2c([H])c(OC([H])([H])C([H])([H])N([H])C([H])([H])C([H])([H])[N+]([H])([H])C([H])([H])C([H])([H])C([H])([H])C([H])([H])C([H])([H])C([H])([H])C([H])([H])N([H])C(=O)N3C([H])([H])C([H])([H])C([H])([H])C([H])(n4nc(-c5c([H])c([H])c(Oc6c([H])c([H])c(F)c([H])c6F)c([H])c5[H])c(C(=O)N([H])[H])c4N([H])[H])C3([H])[H])c([H])c([H])c2C1([H])[H]

$$$$
16:0:0
     RDKit          3D

 95102  0  0  1  0  0  0  0  0999 V2000
  -27.6450  -22.6510   21.7800 C   0  0  0  0  0  2  0  0  0  0  0  0
  -28.6950  -21.6760   22.1540 N   0  0  0  0  0  4  0  0  0  0  0  0
  -29.4830  -22.1770   22.5280 H   0  0  0  0  0  0  0  0  0  0  0  0
  -28.3080  -21.0970   22.8820 H   0  0  0  0  0  0  0  0  0  0  0  0
  -29.1290  -20.7990   21.0470 C   0  0  0  0  0  2  0  0  0  0  0  0
  -29.9820  -19.6020   21.4850 C   0  0  0  0  0  2  0  0  0  0  0  0
  -30.4320  -18.8140   20.2470 C   0  0  0  0  0  2  0  0  0  0  0  0
  -31.3430  -17.6380   20.5850 C   0  0  0  0  0  2  0  0  0  0  0  0
  -31.8520  -16.9310   19.3190 C   0  0  0  0  0  2  0  0  0  0  0  0
  -32.6810  -15.6830   19.6440 C   0  0  0  0  0  2  0  0  0  0  0  0
  -31.8720  -13.3630   19.2610 C   0  0  0  0  0  0  0  0  0  0  0  0
  -31.7020  -10.9960   19.8860 C   0  0  0  0  0  2  0  0  0  0  0  0
  -30.7840  -10.1500   18.9950 C   0  0  0  0  0  2  0  0  0  0  0  0
  -29.3390  -10.2200   19.5070 C   0  0  0  0  0  2  0  0  0  0  0  0
  -28.8550  -11.6790   19.7050 C   0  0  0  0  0  3  0  0  0  0  0  0
  -29.8750  -12.5090   20.5190 C   0  0  0  0  0  2  0  0  0  0  0  0
  -31.2120  -12.3780   19.9100 N   0  0  0  0  0  0  0  0  0  0  0  0
  -32.6730  -13.1720   18.3420 O   0  0  0  0  0  0  0  0  0  0  0  0
  -31.8190  -14.5310   19.9050 N   0  0  0  0  0  0  0  0  0  0  0  0
  -31.2110  -14.5780   20.7100 H   0  0  0  0  0  0  0  0  0  0  0  0
  -26.7810  -12.7990   20.7490 C   0  0  0  0  0  0  0  0  0  0  0  0
  -25.5750  -12.2910   21.1550 C   0  0  0  0  0  0  0  0  0  0  0  0
  -25.6410  -10.8840   20.9270 C   0  0  0  0  0  0  0  0  0  0  0  0
  -27.5220  -11.7120   20.3100 N   0  0  0  0  0  0  0  0  0  0  0  0
  -26.8400  -10.5470   20.4680 N   0  0  0  0  0  0  0  0  0  0  0  0
  -24.6130   -9.8430   21.0650 C   0  0  0  0  0  0  0  0  0  0  0  0
  -24.6830   -8.8680   22.0850 C   0  0  0  0  0  3  0  0  0  0  0  0
  -23.6740   -7.8890   22.2100 C   0  0  0  0  0  3  0  0  0  0  0  0
  -22.5790   -7.8780   21.3130 C   0  0  0  0  0  0  0  0  0  0  0  0
  -22.5260   -8.8380   20.2860 C   0  0  0  0  0  3  0  0  0  0  0  0
  -23.5350   -9.8090   20.1600 C   0  0  0  0  0  3  0  0  0  0  0  0
  -21.5670   -6.9500   21.3400 O   0  0  0  0  0  0  0  0  0  0  0  0
  -21.0330   -6.5020   22.5230 C   0  0  0  0  0  0  0  0  0  0  0  0
  -20.4130   -7.3800   23.4380 C   0  0  0  0  0  3  0  0  0  0  0  0
  -19.8160   -6.8700   24.6080 C   0  0  0  0  0  3  0  0  0  0  0  0
  -19.8300   -5.4840   24.8600 C   0  0  0  0  0  0  0  0  0  0  0  0
  -20.4410   -4.6080   23.9450 C   0  0  0  0  0  3  0  0  0  0  0  0
  -21.0390   -5.1170   22.7780 C   0  0  0  0  0  0  0  0  0  0  0  0
  -21.6090   -4.2660   21.8910 F   0  0  0  0  0  0  0  0  0  0  0  0
  -19.2490   -4.9910   25.9790 F   0  0  0  0  0  0  0  0  0  0  0  0
  -24.3910  -13.0790   21.6370 C   0  0  0  0  0  0  0  0  0  0  0  0
  -23.6110  -12.5110   22.5520 N   0  0  0  0  0  0  0  0  0  0  0  0
  -24.1790  -14.2240   21.2410 O   0  0  0  0  0  0  0  0  0  0  0  0
  -23.7980  -11.5810   22.8930 H   0  0  0  0  0  0  0  0  0  0  0  0
  -22.8140  -13.0160   22.9150 H   0  0  0  0  0  0  0  0  0  0  0  0
  -27.3010  -14.0880   20.6990 N   0  0  0  0  0  0  0  0  0  0  0  0
  -26.7580  -14.9030   20.9580 H   0  0  0  0  0  0  0  0  0  0  0  0
  -28.2190  -14.3200   20.3400 H   0  0  0  0  0  0  0  0  0  0  0  0
  -28.1950  -23.9600   21.1690 C   0  0  0  0  0  2  0  0  0  0  0  0
  -29.1370  -23.7060   20.0790 N   0  0  0  0  0  0  0  0  0  0  0  0
  -28.7250  -23.0860   19.3870 H   0  0  0  0  0  0  0  0  0  0  0  0
  -29.5540  -24.9210   19.3900 C   0  0  0  0  0  2  0  0  0  0  0  0
  -28.4650  -25.3180   18.3800 C   0  0  0  0  0  2  0  0  0  0  0  0
  -28.9360  -26.2650   17.2700 C   0  0  0  0  0  2  0  0  0  0  0  0
  -27.7850  -26.6820   16.5400 O   0  0  0  0  0  0  0  0  0  0  0  0
  -25.4920  -28.9970   22.8720 C   0  0  0  0  0  0  0  0  0  0  0  0
  -26.7840  -27.2470   17.2880 C   0  0  0  0  0  0  0  0  0  0  0  0
  -23.7880  -28.8800   21.0750 C   0  0  0  0  0  3  0  0  0  0  0  0
  -24.6870  -28.4590   18.7270 C   0  0  0  0  0  0  0  0  0  0  0  0
  -26.2520  -29.2460   20.5140 C   0  0  0  0  0  2  0  0  0  0  0  0
  -25.9970  -28.5100   19.2180 C   0  0  0  0  0  0  0  0  0  0  0  0
  -27.0480  -27.8980   18.5100 C   0  0  0  0  0  3  0  0  0  0  0  0
  -25.4650  -27.2040   16.7920 C   0  0  0  0  0  3  0  0  0  0  0  0
  -24.4110  -27.7960   17.5160 C   0  0  0  0  0  3  0  0  0  0  0  0
  -23.6250  -29.1470   19.5530 C   0  0  0  0  0  2  0  0  0  0  0  0
  -25.2070  -29.0180   21.5390 N   0  0  0  0  0  0  0  0  0  0  0  0
  -24.5910  -28.9160   23.7190 O   0  0  0  0  0  0  0  0  0  0  0  0
  -23.1690  -27.5030   21.4040 C   0  0  0  0  0  0  0  0  0  0  0  0
  -21.8310  -27.4160   21.3210 N   0  0  0  0  0  0  0  0  0  0  0  0
  -23.8850  -26.5420   21.6950 O   0  0  0  0  0  0  0  0  0  0  0  0
  -21.3150  -28.2480   21.0700 H   0  0  0  0  0  0  0  0  0  0  0  0
  -18.4790  -26.0870   21.1850 C   0  0  0  0  0  0  0  0  0  0  0  0
  -21.0360  -26.2120   21.5500 C   0  0  0  0  0  3  0  0  0  0  0  0
  -21.1550  -25.2380   20.3550 C   0  0  0  0  0  2  0  0  0  0  0  0
  -20.0520  -25.4340   19.3110 C   0  0  0  0  0  2  0  0  0  0  0  0
  -18.6660  -25.2410   19.9370 C   0  0  0  0  0  2  0  0  0  0  0  0
  -19.5930  -26.5570   21.9310 C   0  0  0  0  0  0  0  0  0  0  0  0
  -19.3680  -27.3740   23.0590 C   0  0  0  0  0  3  0  0  0  0  0  0
  -18.0600  -27.7170   23.4480 C   0  0  0  0  0  3  0  0  0  0  0  0
  -16.9600  -27.2350   22.7190 C   0  0  0  0  0  3  0  0  0  0  0  0
  -17.1690  -26.4190   21.5920 C   0  0  0  0  0  3  0  0  0  0  0  0
  -26.9610  -29.1010   23.3940 C   0  0  0  0  0  3  0  0  0  0  0  0
  -27.5420  -27.7230   23.8950 C   0  0  1  0  0  0  0  0  0  0  0  0
  -26.6190  -26.9910   24.8950 C   0  0  0  0  0  1  0  0  0  0  0  0
  -27.7990  -26.7720   22.7010 C   0  0  0  0  0  1  0  0  0  0  0  0
  -28.9100  -27.9480   24.5810 C   0  0  0  0  0  1  0  0  0  0  0  0
  -26.9790  -30.1010   24.4710 N   0  0  0  0  0  0  0  0  0  0  0  0
  -27.4860  -31.3340   24.3510 C   0  0  0  0  0  0  0  0  0  0  0  0
  -28.0650  -31.7260   23.3350 O   0  0  0  0  0  0  0  0  0  0  0  0
  -26.4840  -29.8630   25.3190 H   0  0  0  0  0  0  0  0  0  0  0  0
  -26.2060  -33.2970   25.2580 C   0  0  0  0  0  1  0  0  0  0  0  0
  -27.3270  -32.2870   25.5510 C   0  0  0  0  0  3  0  0  0  0  0  0
  -29.6100  -32.1380   26.4420 C   0  0  0  0  0  1  0  0  0  0  0  0
  -28.5700  -33.0080   25.9000 N   0  0  0  0  0  0  0  0  0  0  0  0
  -28.3820  -33.7390   26.5800 H   0  0  0  0  0  0  0  0  0  0  0  0
  1  2  1  0
  2  3  1  0
  2  4  1  0
  5  6  1  0
  5  2  1  0
  7  8  1  0
  7  6  1  0
  9 10  1  0
  9  8  1  0
 10 19  1  0
 11 19  1  0
 11 17  1  0
 12 17  1  0
 13 14  1  0
 13 12  1  0
 15 14  1  0
 15 24  1  0
 15 16  1  0
 17 16  1  0
 18 11  2  0
 19 20  1  0
 21 22  2  0
 22 41  1  0
 23 26  1  0
 23 22  1  0
 24 25  1  0
 24 21  1  0
 25 23  2  0
 26 27  1  0
 27 28  2  0
 29 32  1  0
 29 28  1  0
 30 29  2  0
 31 30  1  0
 31 26  2  0
 32 33  1  0
 33 38  2  0
 33 34  1  0
 34 35  2  0
 35 36  1  0
 36 40  1  0
 37 36  2  0
 38 37  1  0
 39 38  1  0
 41 42  1  0
 42 44  1  0
 42 45  1  0
 43 41  2  0
 46 21  1  0
 46 47  1  0
 48 46  1  0
 49  1  1  0
 50 49  1  0
 51 50  1  0
 52 50  1  0
 53 52  1  0
 54 53  1  0
 55 54  1  0
 55 57  1  0
 56 67  2  0
 57 62  1  0
 58 68  1  0
 58 66  1  0
 59 61  1  0
 59 65  1  0
 60 66  1  0
 61 60  1  0
 62 61  2  0
 63 57  2  0
 63 64  1  0
 64 59  2  0
 65 58  1  0
 66 56  1  0
 68 70  2  0
 69 68  1  0
 71 69  1  0
 72 81  2  0
 72 77  1  0
 73 69  1  0
 73 77  1  0
 74 73  1  0
 75 76  1  0
 75 74  1  0
 76 72  1  0
 77 78  2  0
 78 79  1  0
 80 79  2  0
 81 80  1  0
 82 56  1  0
 82 83  1  0
 82 87  1  0
 83 86  1  1
 83 84  1  0
 85 83  1  0
 87 90  1  0
 88 87  1  0
 88 92  1  0
 89 88  2  0
 92 91  1  0
 92 94  1  0
 94 93  1  0
 94 95  1  0
M  ISO  4  11 100  19 100  54 101  55 101
M  END
>  <TORSDO>  (17) 
F 28

>  <SCORE>  (17) 
-6.424

>  <name>  (17) 
16

>  <ligand_id>  (17) 
16

>  <original_smiles>  (17) 
[H]c1c([H])c([H])c2c(c1[H])C([H])([H])C([H])([H])C([H])([H])C2([H])N([H])C(=O)C1([H])N(C(=O)C([H])(N([H])C(=O)C([H])(N([H])C([H])([H])[H])C([H])([H])[H])C(C([H])([H])[H])(C([H])([H])[H])C([H])([H])[H])C([H])([H])c2c([H])c(OC([H])([H])C([H])([H])C([H])([H])N([H])C([H])([H])C([H])([H])[N+]([H])([H])C([H])([H])C([H])([H])C([H])([H])C([H])([H])C([H])([H])C([H])([H])N([H])C(=O)N3C([H])([H])C([H])([H])C([H])([H])C([H])(n4nc(-c5c([H])c([H])c(Oc6c([H])c([H])c(F)c([H])c6F)c([H])c5[H])c(C(=O)N([H])[H])c4N([H])[H])C3([H])[H])c([H])c([H])c2C1([H])[H]

>  <smiles>  (17) 
[H]c1c([H])c([H])c2c(c1[H])C([H])([H])C([H])([H])C([H])([H])C2([H])N([H])C(=O)C1([H])N(C(=O)C([H])(N([H])C(=O)C([H])(N([H])C([H])([H])[H])C([H])([H])[H])C(C([H])([H])[H])(C([H])([H])[H])C([H])([H])[H])C([H])([H])c2c([H])c(OC([H])([H])C([H])([H])C([H])([H])N([H])C([H])([H])C([H])([H])[N+]([H])([H])C([H])([H])C([H])([H])C([H])([H])C([H])([H])C([H])([H])C([H])([H])N([H])C(=O)N3C([H])([H])C([H])([H])C([H])([H])C([H])(n4nc(-c5c([H])c([H])c(Oc6c([H])c([H])c(F)c([H])c6F)c([H])c5[H])c(C(=O)N([H])[H])c4N([H])[H])C3([H])[H])c([H])c([H])c2C1([H])[H]

$$$$
17:0:0
     RDKit          3D

 95102  0  0  1  0  0  0  0  0999 V2000
  -25.7010  -21.7660   20.5810 C   0  0  0  0  0  0  0  0  0  0  0  0
  -25.5050  -22.6410   19.5850 N   0  0  0  0  0  0  0  0  0  0  0  0
  -25.7110  -22.1010   21.7680 O   0  0  0  0  0  0  0  0  0  0  0  0
  -25.4980  -22.2620   18.6440 H   0  0  0  0  0  0  0  0  0  0  0  0
  -25.3840  -24.0870   19.7410 C   0  0  0  0  0  2  0  0  0  0  0  0
  -26.7490  -24.7870   19.5870 C   0  0  0  0  0  2  0  0  0  0  0  0
  -27.2090  -24.6010   18.2550 O   0  0  0  0  0  0  0  0  0  0  0  0
  -28.2680  -25.4770   17.8690 C   0  0  0  0  0  2  0  0  0  0  0  0
  -27.8530  -26.2510   16.5950 C   0  0  0  0  0  2  0  0  0  0  0  0
  -27.5560  -27.6290   16.8270 O   0  0  0  0  0  0  0  0  0  0  0  0
  -24.6090  -30.1240   22.7570 C   0  0  0  0  0  0  0  0  0  0  0  0
  -26.3680  -27.9620   17.4390 C   0  0  0  0  0  0  0  0  0  0  0  0
  -23.0270  -29.1820   21.1010 C   0  0  0  0  0  3  0  0  0  0  0  0
  -23.9980  -28.6980   18.7910 C   0  0  0  0  0  0  0  0  0  0  0  0
  -25.2420  -30.2100   20.3480 C   0  0  0  0  0  2  0  0  0  0  0  0
  -25.2280  -29.2400   19.1860 C   0  0  0  0  0  0  0  0  0  0  0  0
  -26.4100  -28.8810   18.5070 C   0  0  0  0  0  3  0  0  0  0  0  0
  -25.1190  -27.4320   17.0390 C   0  0  0  0  0  3  0  0  0  0  0  0
  -23.9370  -27.8010   17.7100 C   0  0  0  0  0  3  0  0  0  0  0  0
  -22.7780  -29.1290   19.5690 C   0  0  0  0  0  2  0  0  0  0  0  0
  -24.3310  -29.8340   21.4540 N   0  0  0  0  0  0  0  0  0  0  0  0
  -23.7870  -29.8960   23.6560 O   0  0  0  0  0  0  0  0  0  0  0  0
  -22.8860  -27.7510   21.6690 C   0  0  0  0  0  0  0  0  0  0  0  0
  -21.7050  -27.1430   21.4750 N   0  0  0  0  0  0  0  0  0  0  0  0
  -23.8310  -27.2020   22.2410 O   0  0  0  0  0  0  0  0  0  0  0  0
  -20.9750  -27.6600   21.0060 H   0  0  0  0  0  0  0  0  0  0  0  0
  -19.2210  -24.5420   21.1420 C   0  0  0  0  0  0  0  0  0  0  0  0
  -21.3630  -25.7810   21.8870 C   0  0  0  0  0  3  0  0  0  0  0  0
  -22.1350  -24.7360   21.0480 C   0  0  0  0  0  2  0  0  0  0  0  0
  -21.3570  -24.2570   19.8190 C   0  0  0  0  0  2  0  0  0  0  0  0
  -20.0260  -23.6250   20.2380 C   0  0  0  0  0  2  0  0  0  0  0  0
  -19.8450  -25.5640   21.9030 C   0  0  0  0  0  0  0  0  0  0  0  0
  -19.0440  -26.4130   22.6980 C   0  0  0  0  0  3  0  0  0  0  0  0
  -17.6450  -26.2510   22.7420 C   0  0  0  0  0  3  0  0  0  0  0  0
  -17.0340  -25.2300   21.9960 C   0  0  0  0  0  3  0  0  0  0  0  0
  -17.8200  -24.3730   21.2050 C   0  0  0  0  0  3  0  0  0  0  0  0
  -25.9610  -30.7770   23.1800 C   0  0  0  0  0  3  0  0  0  0  0  0
  -26.8310  -29.8500   24.1170 C   0  0  1  0  0  0  0  0  0  0  0  0
  -26.0630  -29.3060   25.3420 C   0  0  0  0  0  1  0  0  0  0  0  0
  -27.3740  -28.6350   23.3280 C   0  0  0  0  0  1  0  0  0  0  0  0
  -28.0550  -30.6380   24.6360 C   0  0  0  0  0  1  0  0  0  0  0  0
  -25.6530  -32.0490   23.8490 N   0  0  0  0  0  0  0  0  0  0  0  0
  -25.8250  -33.2570   23.2950 C   0  0  0  0  0  0  0  0  0  0  0  0
  -26.3330  -33.4170   22.1830 O   0  0  0  0  0  0  0  0  0  0  0  0
  -25.1840  -31.9900   24.7400 H   0  0  0  0  0  0  0  0  0  0  0  0
  -24.0280  -35.0040   23.5320 C   0  0  0  0  0  1  0  0  0  0  0  0
  -25.3550  -34.4820   24.1040 C   0  0  0  0  0  3  0  0  0  0  0  0
  -27.5440  -35.2540   24.9060 C   0  0  0  0  0  1  0  0  0  0  0  0
  -26.3450  -35.5800   24.1390 N   0  0  0  0  0  0  0  0  0  0  0  0
  -25.9350  -36.4230   24.5350 H   0  0  0  0  0  0  0  0  0  0  0  0
  -25.9230  -20.2940   20.1910 C   0  0  0  0  0  2  0  0  0  0  0  0
  -25.2380  -19.9650   18.9810 O   0  0  0  0  0  0  0  0  0  0  0  0
  -25.7520  -20.6120   17.8240 C   0  0  0  0  0  2  0  0  0  0  0  0
  -26.5840  -19.5950   17.0250 C   0  0  0  0  0  2  0  0  0  0  0  0
  -27.7870  -19.0030   17.7880 C   0  0  0  0  0  2  0  0  0  0  0  0
  -28.9700  -18.7290   16.8390 C   0  0  0  0  0  2  0  0  0  0  0  0
  -30.2720  -18.3130   17.5470 C   0  0  0  0  0  2  0  0  0  0  0  0
  -30.9640  -16.0300   18.2840 C   0  0  0  0  0  0  0  0  0  0  0  0
  -31.6210  -13.9220   19.3860 C   0  0  0  0  0  2  0  0  0  0  0  0
  -30.9690  -12.7200   18.6820 C   0  0  0  0  0  2  0  0  0  0  0  0
  -29.5870  -12.4430   19.3020 C   0  0  0  0  0  2  0  0  0  0  0  0
  -28.7010  -13.7150   19.3490 C   0  0  0  0  0  3  0  0  0  0  0  0
  -29.4700  -14.9010   19.9700 C   0  0  0  0  0  2  0  0  0  0  0  0
  -30.7320  -15.0840   19.2280 N   0  0  0  0  0  0  0  0  0  0  0  0
  -31.9010  -15.9760   17.4850 O   0  0  0  0  0  0  0  0  0  0  0  0
  -30.1440  -17.0900   18.3400 N   0  0  0  0  0  0  0  0  0  0  0  0
  -29.4450  -17.0760   19.0680 H   0  0  0  0  0  0  0  0  0  0  0  0
  -26.5830  -14.3690   20.6620 C   0  0  0  0  0  0  0  0  0  0  0  0
  -25.5280  -13.6300   21.1210 C   0  0  0  0  0  0  0  0  0  0  0  0
  -25.8040  -12.2770   20.7570 C   0  0  0  0  0  0  0  0  0  0  0  0
  -27.4450  -13.4670   20.0580 N   0  0  0  0  0  0  0  0  0  0  0  0
  -26.9890  -12.1930   20.1670 N   0  0  0  0  0  0  0  0  0  0  0  0
  -24.9860  -11.0660   20.8880 C   0  0  0  0  0  0  0  0  0  0  0  0
  -25.3180  -10.0440   21.8050 C   0  0  0  0  0  3  0  0  0  0  0  0
  -24.5040   -8.8980   21.9250 C   0  0  0  0  0  3  0  0  0  0  0  0
  -23.3440   -8.7620   21.1250 C   0  0  0  0  0  0  0  0  0  0  0  0
  -23.0310   -9.7710   20.1970 C   0  0  0  0  0  3  0  0  0  0  0  0
  -23.8460  -10.9090   20.0740 C   0  0  0  0  0  3  0  0  0  0  0  0
  -22.5070   -7.6730   21.1520 O   0  0  0  0  0  0  0  0  0  0  0  0
  -22.1260   -7.0910   22.3330 C   0  0  0  0  0  0  0  0  0  0  0  0
  -21.3950   -7.7980   23.3130 C   0  0  0  0  0  3  0  0  0  0  0  0
  -20.9650   -7.1400   24.4810 C   0  0  0  0  0  3  0  0  0  0  0  0
  -21.2510   -5.7740   24.6680 C   0  0  0  0  0  0  0  0  0  0  0  0
  -21.9760   -5.0670   23.6910 C   0  0  0  0  0  3  0  0  0  0  0  0
  -22.4090   -5.7230   22.5270 C   0  0  0  0  0  0  0  0  0  0  0  0
  -23.0850   -5.0330   21.5780 F   0  0  0  0  0  0  0  0  0  0  0  0
  -20.8320   -5.1380   25.7860 F   0  0  0  0  0  0  0  0  0  0  0  0
  -24.2880  -14.1560   21.7810 C   0  0  0  0  0  0  0  0  0  0  0  0
  -23.6820  -13.3690   22.6630 N   0  0  0  0  0  0  0  0  0  0  0  0
  -23.8770  -15.2920   21.5520 O   0  0  0  0  0  0  0  0  0  0  0  0
  -24.0320  -12.4440   22.8640 H   0  0  0  0  0  0  0  0  0  0  0  0
  -22.8540  -13.6970   23.1430 H   0  0  0  0  0  0  0  0  0  0  0  0
  -26.8680  -15.7330   20.6910 N   0  0  0  0  0  0  0  0  0  0  0  0
  -26.2170  -16.4080   21.0790 H   0  0  0  0  0  0  0  0  0  0  0  0
  -27.6920  -16.1640   20.2930 H   0  0  0  0  0  0  0  0  0  0  0  0
  1  3  2  0
  2  5  1  0
  2  1  1  0
  4  2  1  0
  6  5  1  0
  7  6  1  0
  8  7  1  0
  9 10  1  0
  9  8  1  0
 10 12  1  0
 11 22  2  0
 12 17  1  0
 13 21  1  0
 13 23  1  0
 14 16  1  0
 14 20  1  0
 15 21  1  0
 16 15  1  0
 17 16  2  0
 18 12  2  0
 18 19  1  0
 19 14  2  0
 20 13  1  0
 21 11  1  0
 23 25  2  0
 24 23  1  0
 26 24  1  0
 27 36  2  0
 27 32  1  0
 28 24  1  0
 28 32  1  0
 29 28  1  0
 30 31  1  0
 30 29  1  0
 31 27  1  0
 32 33  2  0
 33 34  1  0
 35 34  2  0
 36 35  1  0
 37 11  1  0
 37 42  1  0
 37 38  1  0
 38 41  1  1
 38 39  1  0
 40 38  1  0
 42 45  1  0
 43 42  1  0
 43 47  1  0
 44 43  2  0
 47 46  1  0
 47 49  1  0
 49 50  1  0
 49 48  1  0
 51  1  1  0
 52 51  1  0
 53 52  1  0
 54 55  1  0
 54 53  1  0
 56 57  1  0
 56 55  1  0
 57 66  1  0
 58 66  1  0
 58 64  1  0
 60 61  1  0
 60 59  1  0
 62 61  1  0
 62 63  1  0
 62 71  1  0
 64 59  1  0
 64 63  1  0
 65 58  2  0
 66 67  1  0
 68 93  1  0
 68 69  2  0
 69 88  1  0
 70 73  1  0
 70 69  1  0
 71 72  1  0
 71 68  1  0
 72 70  2  0
 73 74  1  0
 74 75  2  0
 76 79  1  0
 76 75  1  0
 77 76  2  0
 78 77  1  0
 78 73  2  0
 79 80  1  0
 80 85  2  0
 80 81  1  0
 81 82  2  0
 82 83  1  0
 83 87  1  0
 84 83  2  0
 85 84  1  0
 86 85  1  0
 88 89  1  0
 89 91  1  0
 89 92  1  0
 90 88  2  0
 93 94  1  0
 95 93  1  0
M  ISO  4   9 101  10 101  58 100  66 100
M  END
>  <TORSDO>  (18) 
F 28

>  <SCORE>  (18) 
-1.457

>  <name>  (18) 
17

>  <ligand_id>  (18) 
17

>  <original_smiles>  (18) 
[H]c1c([H])c([H])c2c(c1[H])C([H])([H])C([H])([H])C([H])([H])C2([H])N([H])C(=O)C1([H])N(C(=O)C([H])(N([H])C(=O)C([H])(N([H])C([H])([H])[H])C([H])([H])[H])C(C([H])([H])[H])(C([H])([H])[H])C([H])([H])[H])C([H])([H])c2c([H])c(OC([H])([H])C([H])([H])OC([H])([H])C([H])([H])N([H])C(=O)C([H])([H])OC([H])([H])C([H])([H])C([H])([H])C([H])([H])C([H])([H])N([H])C(=O)N3C([H])([H])C([H])([H])C([H])([H])C([H])(n4nc(-c5c([H])c([H])c(Oc6c([H])c([H])c(F)c([H])c6F)c([H])c5[H])c(C(=O)N([H])[H])c4N([H])[H])C3([H])[H])c([H])c([H])c2C1([H])[H]

>  <smiles>  (18) 
[H]c1c([H])c([H])c2c(c1[H])C([H])([H])C([H])([H])C([H])([H])C2([H])N([H])C(=O)C1([H])N(C(=O)C([H])(N([H])C(=O)C([H])(N([H])C([H])([H])[H])C([H])([H])[H])C(C([H])([H])[H])(C([H])([H])[H])C([H])([H])[H])C([H])([H])c2c([H])c(OC([H])([H])C([H])([H])OC([H])([H])C([H])([H])N([H])C(=O)C([H])([H])OC([H])([H])C([H])([H])C([H])([H])C([H])([H])C([H])([H])N([H])C(=O)N3C([H])([H])C([H])([H])C([H])([H])C([H])(n4nc(-c5c([H])c([H])c(Oc6c([H])c([H])c(F)c([H])c6F)c([H])c5[H])c(C(=O)N([H])[H])c4N([H])[H])C3([H])[H])c([H])c([H])c2C1([H])[H]

$$$$
18:0:0
     RDKit          3D

 94101  0  0  1  0  0  0  0  0999 V2000
  -26.3320  -23.7500   18.7940 C   0  0  0  0  0  0  0  0  0  0  0  0
  -26.0350  -24.3660   19.9550 N   0  0  0  0  0  0  0  0  0  0  0  0
  -25.7900  -22.6880   18.5020 O   0  0  0  0  0  0  0  0  0  0  0  0
  -25.3320  -23.8790   20.4940 H   0  0  0  0  0  0  0  0  0  0  0  0
  -27.3070  -24.3830   17.7980 C   0  0  0  0  0  2  0  0  0  0  0  0
  -26.5380  -24.8850   16.7100 O   0  0  0  0  0  0  0  0  0  0  0  0
  -26.2480  -26.2580   16.8390 C   0  0  0  0  0  2  0  0  0  0  0  0
  -24.7490  -26.4880   16.6560 C   0  0  0  0  0  2  0  0  0  0  0  0
  -24.1620  -27.2400   17.8530 C   0  0  0  0  0  2  0  0  0  0  0  0
  -22.6450  -27.1060   17.9130 C   0  0  0  0  0  2  0  0  0  0  0  0
  -21.9810  -27.8100   19.1150 C   0  0  0  0  0  2  0  0  0  0  0  0
  -19.6300  -27.1440   19.6690 C   0  0  0  0  0  0  0  0  0  0  0  0
  -17.4160  -26.0240   19.5090 C   0  0  0  0  0  2  0  0  0  0  0  0
  -17.5820  -24.4990   19.3490 C   0  0  0  0  0  2  0  0  0  0  0  0
  -17.7440  -24.1600   17.8530 C   0  0  0  0  0  2  0  0  0  0  0  0
  -18.8570  -25.0060   17.1710 C   0  0  0  0  0  3  0  0  0  0  0  0
  -18.6250  -26.4990   17.4640 C   0  0  0  0  0  2  0  0  0  0  0  0
  -18.5910  -26.6860   18.9310 N   0  0  0  0  0  0  0  0  0  0  0  0
  -19.7240  -27.0500   20.8990 O   0  0  0  0  0  0  0  0  0  0  0  0
  -20.5480  -27.7290   18.8960 N   0  0  0  0  0  0  0  0  0  0  0  0
  -20.2540  -27.7670   17.9290 H   0  0  0  0  0  0  0  0  0  0  0  0
  -19.9350  -24.2290   14.9680 C   0  0  0  0  0  0  0  0  0  0  0  0
  -19.4470  -24.1750   13.6880 C   0  0  0  0  0  0  0  0  0  0  0  0
  -18.1230  -24.6970   13.7490 C   0  0  0  0  0  0  0  0  0  0  0  0
  -18.9150  -24.7690   15.7320 N   0  0  0  0  0  0  0  0  0  0  0  0
  -17.8360  -25.1000   14.9780 N   0  0  0  0  0  0  0  0  0  0  0  0
  -17.0850  -24.7890   12.7120 C   0  0  0  0  0  0  0  0  0  0  0  0
  -16.9350  -25.9430   11.9130 C   0  0  0  0  0  3  0  0  0  0  0  0
  -15.9350  -25.9940   10.9160 C   0  0  0  0  0  3  0  0  0  0  0  0
  -15.0860  -24.8820   10.7040 C   0  0  0  0  0  0  0  0  0  0  0  0
  -15.2290  -23.7460   11.5190 C   0  0  0  0  0  3  0  0  0  0  0  0
  -16.2190  -23.7000   12.5120 C   0  0  0  0  0  3  0  0  0  0  0  0
  -14.0750  -24.8510    9.7740 O   0  0  0  0  0  0  0  0  0  0  0  0
  -14.0520  -25.7200    8.7120 C   0  0  0  0  0  0  0  0  0  0  0  0
  -14.9080  -25.5650    7.5990 C   0  0  0  0  0  3  0  0  0  0  0  0
  -14.7990  -26.4430    6.5010 C   0  0  0  0  0  3  0  0  0  0  0  0
  -13.8320  -27.4650    6.5100 C   0  0  0  0  0  0  0  0  0  0  0  0
  -12.9740  -27.6140    7.6130 C   0  0  0  0  0  3  0  0  0  0  0  0
  -13.0830  -26.7440    8.7100 C   0  0  0  0  0  0  0  0  0  0  0  0
  -12.2430  -26.8800    9.7660 F   0  0  0  0  0  0  0  0  0  0  0  0
  -13.7180  -28.3000    5.4520 F   0  0  0  0  0  0  0  0  0  0  0  0
  -20.1430  -23.5760   12.5030 C   0  0  0  0  0  0  0  0  0  0  0  0
  -20.1450  -24.2880   11.3780 N   0  0  0  0  0  0  0  0  0  0  0  0
  -20.7290  -22.4980   12.5750 O   0  0  0  0  0  0  0  0  0  0  0  0
  -19.6950  -25.1910   11.3300 H   0  0  0  0  0  0  0  0  0  0  0  0
  -20.6020  -23.9270   10.5550 H   0  0  0  0  0  0  0  0  0  0  0  0
  -21.1460  -23.8460   15.5290 N   0  0  0  0  0  0  0  0  0  0  0  0
  -21.8530  -23.4020   14.9480 H   0  0  0  0  0  0  0  0  0  0  0  0
  -21.4030  -23.9310   16.5050 H   0  0  0  0  0  0  0  0  0  0  0  0
  -26.5390  -25.6250   20.5280 C   0  0  0  0  0  2  0  0  0  0  0  0
  -27.0120  -25.4540   22.0010 C   0  0  0  0  0  2  0  0  0  0  0  0
  -28.4880  -25.0060   22.2320 C   0  0  0  0  0  2  0  0  0  0  0  0
  -28.7690  -23.5800   21.7490 C   0  0  0  0  0  2  0  0  0  0  0  0
  -30.0490  -23.0710   22.1110 O   0  0  0  0  0  0  0  0  0  0  0  0
  -35.5200  -18.9480   20.0960 C   0  0  0  0  0  0  0  0  0  0  0  0
  -30.4590  -21.9100   21.4790 C   0  0  0  0  0  0  0  0  0  0  0  0
  -33.2980  -18.2480   19.2840 C   0  0  0  0  0  3  0  0  0  0  0  0
  -31.3190  -19.4660   20.3190 C   0  0  0  0  0  0  0  0  0  0  0  0
  -33.5410  -19.5930   21.4540 C   0  0  0  0  0  2  0  0  0  0  0  0
  -32.1650  -20.1700   21.1850 C   0  0  0  0  0  0  0  0  0  0  0  0
  -31.7370  -21.3820   21.7740 C   0  0  0  0  0  3  0  0  0  0  0  0
  -29.6400  -21.2040   20.5630 C   0  0  0  0  0  3  0  0  0  0  0  0
  -30.0550  -19.9850   19.9990 C   0  0  0  0  0  3  0  0  0  0  0  0
  -31.8270  -18.1570   19.7620 C   0  0  0  0  0  2  0  0  0  0  0  0
  -34.1710  -18.9600   20.2690 N   0  0  0  0  0  0  0  0  0  0  0  0
  -36.0400  -18.3190   19.1620 O   0  0  0  0  0  0  0  0  0  0  0  0
  -33.3160  -18.8840   17.8750 C   0  0  0  0  0  0  0  0  0  0  0  0
  -33.0040  -18.0750   16.8500 N   0  0  0  0  0  0  0  0  0  0  0  0
  -33.5810  -20.0790   17.7260 O   0  0  0  0  0  0  0  0  0  0  0  0
  -32.8180  -17.1040   17.0500 H   0  0  0  0  0  0  0  0  0  0  0  0
  -32.2790  -16.7960   13.5650 C   0  0  0  0  0  0  0  0  0  0  0  0
  -32.9200  -18.4550   15.4400 C   0  0  0  0  0  3  0  0  0  0  0  0
  -31.5690  -19.1470   15.1350 C   0  0  0  0  0  2  0  0  0  0  0  0
  -30.4930  -18.1380   14.7260 C   0  0  0  0  0  2  0  0  0  0  0  0
  -30.9150  -17.4550   13.4210 C   0  0  0  0  0  2  0  0  0  0  0  0
  -33.2080  -17.2470   14.5360 C   0  0  0  0  0  0  0  0  0  0  0  0
  -34.4280  -16.5500   14.6900 C   0  0  0  0  0  3  0  0  0  0  0  0
  -34.7150  -15.4210   13.9020 C   0  0  0  0  0  3  0  0  0  0  0  0
  -33.8040  -15.0030   12.9170 C   0  0  0  0  0  3  0  0  0  0  0  0
  -32.5970  -15.6990   12.7350 C   0  0  0  0  0  3  0  0  0  0  0  0
  -36.4710  -19.7070   21.0700 C   0  0  0  0  0  3  0  0  0  0  0  0
  -36.9510  -21.1030   20.5070 C   0  0  1  0  0  0  0  0  0  0  0  0
  -38.0370  -20.9750   19.4120 C   0  0  0  0  0  1  0  0  0  0  0  0
  -35.7660  -21.8980   19.9080 C   0  0  0  0  0  1  0  0  0  0  0  0
  -37.5220  -21.9650   21.6580 C   0  0  0  0  0  1  0  0  0  0  0  0
  -37.6200  -18.8300   21.3310 N   0  0  0  0  0  0  0  0  0  0  0  0
  -37.7700  -18.0900   22.4380 C   0  0  0  0  0  0  0  0  0  0  0  0
  -36.9780  -18.1300   23.3840 O   0  0  0  0  0  0  0  0  0  0  0  0
  -38.2790  -18.7000   20.5750 H   0  0  0  0  0  0  0  0  0  0  0  0
  -38.5510  -15.7140   22.2010 C   0  0  0  0  0  1  0  0  0  0  0  0
  -38.9890  -17.1550   22.5030 C   0  0  0  0  0  3  0  0  0  0  0  0
  -40.4720  -18.4260   23.9930 C   0  0  0  0  0  1  0  0  0  0  0  0
  -39.6960  -17.2020   23.8010 N   0  0  0  0  0  0  0  0  0  0  0  0
  -40.3250  -16.4100   23.8970 H   0  0  0  0  0  0  0  0  0  0  0  0
  1  2  1  0
  2  4  1  0
  2 50  1  0
  3  1  2  0
  5  1  1  0
  6  7  1  0
  6  5  1  0
  8  7  1  0
  8  9  1  0
  9 10  1  0
 10 11  1  0
 12 19  2  0
 14 13  1  0
 15 14  1  0
 16 25  1  0
 16 17  1  0
 16 15  1  0
 17 18  1  0
 18 13  1  0
 18 12  1  0
 20 11  1  0
 20 12  1  0
 21 20  1  0
 22 47  1  0
 22 25  1  0
 23 24  1  0
 23 22  2  0
 24 26  2  0
 26 25  1  0
 27 24  1  0
 28 27  2  0
 29 28  1  0
 30 29  2  0
 30 31  1  0
 31 32  2  0
 32 27  1  0
 33 30  1  0
 34 33  1  0
 35 34  2  0
 36 37  2  0
 36 35  1  0
 37 38  1  0
 38 39  2  0
 39 34  1  0
 39 40  1  0
 41 37  1  0
 42 44  2  0
 42 23  1  0
 43 42  1  0
 45 43  1  0
 46 43  1  0
 47 49  1  0
 48 47  1  0
 50 51  1  0
 51 52  1  0
 53 54  1  0
 53 52  1  0
 55 65  1  0
 56 61  1  0
 56 54  1  0
 57 67  1  0
 57 64  1  0
 57 65  1  0
 58 60  1  0
 60 59  1  0
 60 61  2  0
 62 56  2  0
 63 58  2  0
 63 62  1  0
 64 58  1  0
 65 59  1  0
 66 55  2  0
 68 70  1  0
 68 67  1  0
 69 67  2  0
 71 76  1  0
 72 68  1  0
 73 72  1  0
 74 73  1  0
 75 71  1  0
 75 74  1  0
 76 77  2  0
 76 72  1  0
 78 77  1  0
 79 78  2  0
 80 79  1  0
 80 71  2  0
 81 55  1  0
 81 86  1  0
 82 81  1  0
 82 85  1  1
 83 82  1  0
 84 82  1  0
 86 87  1  0
 87 91  1  0
 87 88  2  0
 89 86  1  0
 91 90  1  0
 91 93  1  0
 93 94  1  0
 93 92  1  0
M  ISO  4  12 100  20 100  53 101  54 101
M  END
>  <TORSDO>  (19) 
F 27

>  <SCORE>  (19) 
-5.838

>  <name>  (19) 
18

>  <ligand_id>  (19) 
18

>  <original_smiles>  (19) 
[H]c1c([H])c([H])c2c(c1[H])C([H])([H])C([H])([H])C([H])([H])C2([H])N([H])C(=O)C1([H])N(C(=O)C([H])(N([H])C(=O)C([H])(N([H])C([H])([H])[H])C([H])([H])[H])C(C([H])([H])[H])(C([H])([H])[H])C([H])([H])[H])C([H])([H])c2c([H])c(OC([H])([H])C([H])([H])C([H])([H])C([H])([H])N([H])C(=O)C([H])([H])OC([H])([H])C([H])([H])C([H])([H])C([H])([H])C([H])([H])N([H])C(=O)N3C([H])([H])C([H])([H])C([H])([H])C([H])(n4nc(-c5c([H])c([H])c(Oc6c([H])c([H])c(F)c([H])c6F)c([H])c5[H])c(C(=O)N([H])[H])c4N([H])[H])C3([H])[H])c([H])c([H])c2C1([H])[H]

>  <smiles>  (19) 
[H]c1c([H])c([H])c2c(c1[H])C([H])([H])C([H])([H])C([H])([H])C2([H])N([H])C(=O)C1([H])N(C(=O)C([H])(N([H])C(=O)C([H])(N([H])C([H])([H])[H])C([H])([H])[H])C(C([H])([H])[H])(C([H])([H])[H])C([H])([H])[H])C([H])([H])c2c([H])c(OC([H])([H])C([H])([H])C([H])([H])C([H])([H])N([H])C(=O)C([H])([H])OC([H])([H])C([H])([H])C([H])([H])C([H])([H])C([H])([H])N([H])C(=O)N3C([H])([H])C([H])([H])C([H])([H])C([H])(n4nc(-c5c([H])c([H])c(Oc6c([H])c([H])c(F)c([H])c6F)c([H])c5[H])c(C(=O)N([H])[H])c4N([H])[H])C3([H])[H])c([H])c([H])c2C1([H])[H]

$$$$
19:0:0
     RDKit          3D

 95 99  0  0  1  0  0  0  0  0999 V2000
  -22.4960  -28.3050   24.9820 C   0  0  0  0  0 15  0  0  0  0  0  0
  -23.5980  -26.6650   24.8470 C   0  0  0  0  0  1  0  0  0  0  0  0
  -23.9770  -25.0650   23.8630 C   0  0  0  0  0  2  0  0  0  0  0  0
  -25.3340  -23.7100   23.7080 C   0  0  0  0  0  3  0  0  0  0  0  0
  -25.5970  -21.9330   23.0300 C   0  0  0  0  0  3  0  0  0  0  0  0
  -26.9600  -20.9120   22.6230 N   0  0  0  0  0  4  0  0  0  0  0  0
  -27.3750  -21.3780   21.8320 H   0  0  0  0  0  0  0  0  0  0  0  0
  -27.5960  -21.0750   23.3840 H   0  0  0  0  0  0  0  0  0  0  0  0
  -27.2000  -19.2150   22.2640 C   0  0  0  0  0  3  0  0  0  0  0  0
  -28.6490  -18.1170   21.6410 C   0  0  0  0  0  3  0  0  0  0  0  0
  -29.9790  -15.3760   20.7830 C   0  0  0  0  0  0  0  0  0  0  0  0
  -30.3850  -12.9770   19.6400 C   0  0  0  0  0  2  0  0  0  0  0  0
  -29.5450  -12.6810   18.3550 C   0  0  0  0  0  2  0  0  0  0  0  0
  -28.0900  -12.3290   18.7100 C   0  0  0  0  0  2  0  0  0  0  0  0
  -27.5690  -13.2510   19.8370 C   0  0  0  0  0  3  0  0  0  0  0  0
  -28.5090  -13.3170   21.0430 C   0  0  0  0  0  2  0  0  0  0  0  0
  -29.6880  -13.9930   20.5580 N   0  0  0  0  0  0  0  0  0  0  0  0
  -31.1640  -15.5920   20.4220 O   0  0  0  0  0  0  0  0  0  0  0  0
  -28.9530  -16.4190   21.2900 N   0  0  0  0  0  0  0  0  0  0  0  0
  -28.1130  -15.9110   21.5330 H   0  0  0  0  0  0  0  0  0  0  0  0
  -25.2150  -13.8190   20.5600 C   0  0  0  0  0  0  0  0  0  0  0  0
  -24.1550  -13.0380   20.9230 C   0  0  0  0  0  0  0  0  0  0  0  0
  -24.6190  -11.6860   20.8700 C   0  0  0  0  0  0  0  0  0  0  0  0
  -26.2380  -12.9340   20.2860 N   0  0  0  0  0  0  0  0  0  0  0  0
  -25.9030  -11.6480   20.5440 N   0  0  0  0  0  0  0  0  0  0  0  0
  -23.8960  -10.4240   21.0400 C   0  0  0  0  0  0  0  0  0  0  0  0
  -24.3570   -9.4180   21.9180 C   0  0  0  0  0  3  0  0  0  0  0  0
  -23.6270   -8.2220   22.0760 C   0  0  0  0  0  3  0  0  0  0  0  0
  -22.4250   -8.0240   21.3550 C   0  0  0  0  0  0  0  0  0  0  0  0
  -21.9850   -9.0200   20.4650 C   0  0  0  0  0  3  0  0  0  0  0  0
  -22.7150  -10.2080   20.3060 C   0  0  0  0  0  3  0  0  0  0  0  0
  -21.6630   -6.8830   21.4240 O   0  0  0  0  0  0  0  0  0  0  0  0
  -21.6840   -6.0710   22.5290 C   0  0  0  0  0  0  0  0  0  0  0  0
  -21.4000   -6.5630   23.8220 C   0  0  0  0  0  3  0  0  0  0  0  0
  -21.3660   -5.6780   24.9180 C   0  0  0  0  0  3  0  0  0  0  0  0
  -21.6030   -4.3050   24.7230 C   0  0  0  0  0  0  0  0  0  0  0  0
  -21.8830   -3.8130   23.4360 C   0  0  0  0  0  3  0  0  0  0  0  0
  -21.9190   -4.6940   22.3410 C   0  0  0  0  0  0  0  0  0  0  0  0
  -22.1660   -4.2130   21.0990 F   0  0  0  0  0  0  0  0  0  0  0  0
  -21.5630   -3.4530   25.7750 F   0  0  0  0  0  0  0  0  0  0  0  0
  -22.7630  -13.5170   21.1960 C   0  0  0  0  0  0  0  0  0  0  0  0
  -22.0300  -12.8150   22.0520 N   0  0  0  0  0  0  0  0  0  0  0  0
  -22.3360  -14.5500   20.6820 O   0  0  0  0  0  0  0  0  0  0  0  0
  -22.3900  -11.9780   22.4860 H   0  0  0  0  0  0  0  0  0  0  0  0
  -21.0940  -13.1190   22.2750 H   0  0  0  0  0  0  0  0  0  0  0  0
  -25.3870  -15.1940   20.4110 N   0  0  0  0  0  0  0  0  0  0  0  0
  -24.6010  -15.8230   20.5260 H   0  0  0  0  0  0  0  0  0  0  0  0
  -26.1560  -15.6180   19.9080 H   0  0  0  0  0  0  0  0  0  0  0  0
  -21.7970  -29.7680   23.8000 C   0  0  0  0  0  1  0  0  0  0  0  0
  -21.3200  -29.7780   22.0050 N   0  0  0  0  0  4  0  0  0  0  0  0
  -21.4710  -30.7360   21.7210 H   0  0  0  0  0  0  0  0  0  0  0  0
  -20.3120  -29.6820   22.0290 H   0  0  0  0  0  0  0  0  0  0  0  0
  -21.8570  -28.7830   20.5550 C   0  0  0  0  0  1  0  0  0  0  0  0
  -23.3690  -27.4930   20.1880 C   0  0  0  0  0  1  0  0  0  0  0  0
  -25.0540  -27.0840   20.6850 O   0  0  0  0  0  0  0  0  0  0  0  0
  -24.7790  -31.9030   23.2190 C   0  0  0  0  0  0  0  0  0  0  0  0
  -26.3820  -27.3010   20.2000 C   0  0  0  0  0  3  0  0  0  0  0  0
  -23.8290  -30.2270   21.6470 C   0  0  0  0  0  3  0  0  0  0  0  0
  -25.2100  -29.5100   19.6800 C   0  0  0  0  0  3  0  0  0  0  0  0
  -26.2340  -30.7890   21.5420 C   0  0  0  0  0  2  0  0  0  0  0  0
  -26.2190  -29.5870   20.6280 C   0  0  0  0  0  3  0  0  0  0  0  0
  -26.9990  -28.4420   20.7920 C   0  0  0  0  0  2  0  0  0  0  0  0
  -26.1050  -27.4020   18.8730 C   0  0  0  0  0  2  0  0  0  0  0  0
  -25.2750  -28.5180   18.6600 C   0  0  0  0  0  2  0  0  0  0  0  0
  -24.0330  -30.3240   20.0610 C   0  0  0  0  0  2  0  0  0  0  0  0
  -24.9410  -30.9960   22.2180 N   0  0  0  0  0  0  0  0  0  0  0  0
  -23.6740  -32.2790   23.6430 O   0  0  0  0  0  0  0  0  0  0  0  0
  -23.6690  -28.7230   22.4710 C   0  0  0  0  0  0  0  0  0  0  0  0
  -22.4980  -27.7260   22.6340 N   0  0  0  0  0  0  0  0  0  0  0  0
  -24.5720  -28.5340   23.2200 O   0  0  0  0  0  0  0  0  0  0  0  0
  -22.9480  -26.9460   23.1000 H   0  0  0  0  0  0  0  0  0  0  0  0
  -18.0970  -27.9780   22.7480 C   0  0  0  0  0  0  0  0  0  0  0  0
  -20.8050  -27.5230   23.0120 C   0  0  0  0  0  3  0  0  0  0  0  0
  -20.4900  -26.2840   22.2540 C   0  0  0  0  0  2  0  0  0  0  0  0
  -19.3170  -26.3820   21.3040 C   0  0  0  0  0  2  0  0  0  0  0  0
  -18.0500  -26.6460   22.0690 C   0  0  0  0  0  2  0  0  0  0  0  0
  -19.3500  -28.4730   23.2450 C   0  0  0  0  0  0  0  0  0  0  0  0
  -19.0580  -29.6590   24.0500 C   0  0  0  0  0  3  0  0  0  0  0  0
  -17.8410  -30.3920   24.1050 C   0  0  0  0  0  3  0  0  0  0  0  0
  -16.6940  -29.8540   23.5300 C   0  0  0  0  0  3  0  0  0  0  0  0
  -16.8310  -28.6160   22.8950 C   0  0  0  0  0  3  0  0  0  0  0  0
  -26.0210  -32.5200   23.8840 C   0  0  0  0  0  3  0  0  0  0  0  0
  -25.6620  -33.8910   24.2630 N   0  0  0  0  0  0  0  0  0  0  0  0
  -25.9190  -34.9680   23.5140 C   0  0  0  0  0  0  0  0  0  0  0  0
  -26.5590  -34.9060   22.4610 O   0  0  0  0  0  0  0  0  0  0  0  0
  -25.0580  -33.9960   25.0660 H   0  0  0  0  0  0  0  0  0  0  0  0
  -24.1500  -36.7360   23.2570 C   0  0  0  0  0  1  0  0  0  0  0  0
  -25.4120  -36.3250   24.0300 C   0  0  0  0  0  3  0  0  0  0  0  0
  -27.5580  -37.1940   24.8470 C   0  0  0  0  0  1  0  0  0  0  0  0
  -26.4250  -37.3970   23.9460 N   0  0  0  0  0  0  0  0  0  0  0  0
  -26.0100  -38.3020   24.1530 H   0  0  0  0  0  0  0  0  0  0  0  0
  -26.5000  -31.6880   25.1320 C   0  0  1  0  0  0  0  0  0  0  0  0
  -25.3800  -31.3980   26.1600 C   0  0  0  0  0  1  0  0  0  0  0  0
  -27.1250  -30.3340   24.7210 C   0  0  0  0  0  1  0  0  0  0  0  0
  -27.6270  -32.4700   25.8400 C   0  0  0  0  0  1  0  0  0  0  0  0
  3  2  1  0
  4  3  1  0
  5  4  2  0
  6  5  1  0
  6  8  1  0
  7  6  1  0
  9  6  1  0
 10  9  2  0
 11 19  1  0
 12 17  1  0
 13 14  1  0
 13 12  1  0
 15 14  1  0
 15 24  1  0
 15 16  1  0
 17 11  1  0
 17 16  1  0
 18 11  2  0
 19 20  1  0
 19 10  1  0
 21 22  2  0
 22 41  1  0
 23 22  1  0
 23 26  1  0
 24 25  1  0
 24 21  1  0
 25 23  2  0
 26 27  1  0
 27 28  2  0
 29 32  1  0
 29 28  1  0
 30 29  2  0
 31 30  1  0
 31 26  2  0
 32 33  1  0
 33 34  1  0
 34 35  2  0
 36 35  1  0
 36 40  1  0
 37 36  2  0
 38 33  2  0
 38 37  1  0
 39 38  1  0
 41 42  1  0
 42 45  1  0
 42 44  1  0
 43 41  2  0
 46 47  1  0
 46 21  1  0
 48 46  1  0
 50 52  1  0
 50 49  1  0
 51 50  1  0
 53 50  1  0
 54 55  1  0
 56 67  2  0
 57 55  1  0
 57 62  1  0
 58 66  1  0
 58 68  1  0
 59 64  1  0
 59 65  1  0
 59 61  1  0
 60 66  1  0
 61 62  1  0
 61 60  1  0
 63 57  1  0
 64 63  1  0
 65 58  1  0
 66 56  1  0
 68 69  1  0
 68 70  2  0
 69 71  1  0
 72 81  2  0
 72 77  1  0
 73 69  1  0
 73 77  1  0
 74 73  1  0
 75 76  1  0
 75 74  1  0
 76 72  1  0
 77 78  2  0
 78 79  1  0
 80 79  2  0
 81 80  1  0
 82 56  1  0
 82 83  1  0
 82 92  1  0
 83 86  1  0
 84 88  1  0
 84 83  1  0
 85 84  2  0
 88 87  1  0
 90 88  1  0
 90 91  1  0
 90 89  1  0
 92 95  1  1
 92 93  1  0
 94 92  1  0
M  ISO  4  11 100  19 100  54 101  55 101
M  END
>  <TORSDO>  (20) 
F 27

>  <SCORE>  (20) 
7.880

>  <name>  (20) 
19

>  <ligand_id>  (20) 
19

>  <original_smiles>  (20) 
[H]c1c([H])c([H])c2c(c1[H])C([H])([H])C([H])([H])C([H])([H])C2([H])N([H])C(=O)C1([H])N(C(=O)C([H])(N([H])C(=O)C([H])(N([H])C([H])([H])[H])C([H])([H])[H])C(C([H])([H])[H])(C([H])([H])[H])C([H])([H])[H])C([H])([H])c2c([H])c(OC([H])([H])C([H])([H])[N+]([H])([H])C([H])([H])C([H])([H])C([H])([H])C([H])([H])C([H])([H])C([H])([H])[N+]([H])([H])C([H])([H])C([H])([H])N([H])C(=O)N3C([H])([H])C([H])([H])C([H])([H])C([H])(n4nc(-c5c([H])c([H])c(Oc6c([H])c([H])c(F)c([H])c6F)c([H])c5[H])c(C(=O)N([H])[H])c4N([H])[H])C3([H])[H])c([H])c([H])c2C1([H])[H]

>  <smiles>  (20) 
[H]c1c([H])c([H])c2c(c1[H])C([H])([H])C([H])([H])C([H])([H])C2([H])N([H])C(=O)C1([H])N(C(=O)C([H])(N([H])C(=O)C([H])(N([H])C([H])([H])[H])C([H])([H])[H])C(C([H])([H])[H])(C([H])([H])[H])C([H])([H])[H])C([H])([H])c2c([H])c(OC([H])([H])C([H])([H])[N+]([H])([H])C([H])([H])C([H])([H])C([H])([H])C([H])([H])C([H])([H])C([H])([H])[N+]([H])([H])C([H])([H])C([H])([H])N([H])C(=O)N3C([H])([H])C([H])([H])C([H])([H])C([H])(n4nc(-c5c([H])c([H])c(Oc6c([H])c([H])c(F)c([H])c6F)c([H])c5[H])c(C(=O)N([H])[H])c4N([H])[H])C3([H])[H])c([H])c([H])c2C1([H])[H]

$$$$
20:0:0
     RDKit          3D

 96103  0  0  1  0  0  0  0  0999 V2000
  -31.5110  -18.6870   18.5480 C   0  0  0  0  0  2  0  0  0  0  0  0
  -31.5930  -20.2050   18.2630 C   0  0  0  0  0  2  0  0  0  0  0  0
  -30.4440  -20.8990   18.7620 O   0  0  0  0  0  0  0  0  0  0  0  0
  -30.4750  -22.3070   18.5000 C   0  0  0  0  0  2  0  0  0  0  0  0
  -29.3710  -23.0420   19.2940 C   0  0  0  0  0  2  0  0  0  0  0  0
  -29.3500  -24.5850   19.1200 C   0  0  0  0  0  2  0  0  0  0  0  0
  -28.4040  -25.2910   20.1230 C   0  0  0  0  0  2  0  0  0  0  0  0
  -28.4360  -26.7280   20.0230 O   0  0  0  0  0  0  0  0  0  0  0  0
  -24.6160  -31.8680   23.2090 C   0  0  0  0  0  0  0  0  0  0  0  0
  -27.2470  -27.4330   20.0750 C   0  0  0  0  0  0  0  0  0  0  0  0
  -23.4050  -30.4920   21.5440 C   0  0  0  0  0  3  0  0  0  0  0  0
  -24.8540  -28.9520   20.1210 C   0  0  0  0  0  0  0  0  0  0  0  0
  -25.9350  -30.8290   21.3670 C   0  0  0  0  0  2  0  0  0  0  0  0
  -26.0140  -29.4590   20.7180 C   0  0  0  0  0  0  0  0  0  0  0  0
  -27.2120  -28.7040   20.6980 C   0  0  0  0  0  3  0  0  0  0  0  0
  -26.0650  -26.9470   19.4700 C   0  0  0  0  0  3  0  0  0  0  0  0
  -24.8710  -27.6890   19.5090 C   0  0  0  0  0  3  0  0  0  0  0  0
  -23.6210  -29.8250   20.1620 C   0  0  0  0  0  2  0  0  0  0  0  0
  -24.6690  -31.0770   22.0990 N   0  0  0  0  0  0  0  0  0  0  0  0
  -23.5350  -32.1420   23.7470 O   0  0  0  0  0  0  0  0  0  0  0  0
  -22.7410  -29.4670   22.4920 C   0  0  0  0  0  0  0  0  0  0  0  0
  -21.4130  -29.3060   22.3680 N   0  0  0  0  0  0  0  0  0  0  0  0
  -23.4170  -28.8210   23.2960 O   0  0  0  0  0  0  0  0  0  0  0  0
  -20.9280  -29.8810   21.6930 H   0  0  0  0  0  0  0  0  0  0  0  0
  -18.0280  -28.1390   22.8490 C   0  0  0  0  0  0  0  0  0  0  0  0
  -20.5870  -28.3680   23.1280 C   0  0  0  0  0  3  0  0  0  0  0  0
  -20.6760  -26.9410   22.5410 C   0  0  0  0  0  2  0  0  0  0  0  0
  -19.5750  -26.6390   21.5200 C   0  0  0  0  0  2  0  0  0  0  0  0
  -18.1930  -26.7940   22.1620 C   0  0  0  0  0  2  0  0  0  0  0  0
  -19.1530  -28.8850   23.2890 C   0  0  0  0  0  0  0  0  0  0  0  0
  -18.9470  -30.1440   23.8920 C   0  0  0  0  0  3  0  0  0  0  0  0
  -17.6480  -30.6590   24.0580 C   0  0  0  0  0  3  0  0  0  0  0  0
  -16.5370  -29.9100   23.6320 C   0  0  0  0  0  3  0  0  0  0  0  0
  -16.7270  -28.6520   23.0340 C   0  0  0  0  0  3  0  0  0  0  0  0
  -25.9060  -32.4830   23.8390 C   0  0  0  0  0  3  0  0  0  0  0  0
  -25.5890  -33.8620   24.2310 N   0  0  0  0  0  0  0  0  0  0  0  0
  -25.9040  -34.9460   23.5120 C   0  0  0  0  0  0  0  0  0  0  0  0
  -26.5590  -34.8920   22.4680 O   0  0  0  0  0  0  0  0  0  0  0  0
  -25.0040  -33.9770   25.0450 H   0  0  0  0  0  0  0  0  0  0  0  0
  -24.1480  -36.7310   23.2640 C   0  0  0  0  0  1  0  0  0  0  0  0
  -25.4100  -36.3090   24.0330 C   0  0  0  0  0  3  0  0  0  0  0  0
  -27.5570  -37.1810   24.8470 C   0  0  0  0  0  1  0  0  0  0  0  0
  -26.4280  -37.3780   23.9410 N   0  0  0  0  0  0  0  0  0  0  0  0
  -26.0150  -38.2850   24.1410 H   0  0  0  0  0  0  0  0  0  0  0  0
  -26.4480  -31.6600   25.0720 C   0  0  1  0  0  0  0  0  0  0  0  0
  -25.3730  -31.3760   26.1460 C   0  0  0  0  0  1  0  0  0  0  0  0
  -27.0310  -30.3030   24.6130 C   0  0  0  0  0  1  0  0  0  0  0  0
  -27.6050  -32.4300   25.7500 C   0  0  0  0  0  1  0  0  0  0  0  0
  -32.7300  -17.8630   18.0560 C   0  0  0  0  0  2  0  0  0  0  0  0
  -32.4370  -16.4090   18.0200 N   0  0  0  0  0  4  0  0  0  0  0  0
  -32.1600  -16.0410   18.9320 H   0  0  0  0  0  0  0  0  0  0  0  0
  -31.6340  -16.2850   17.4250 H   0  0  0  0  0  0  0  0  0  0  0  0
  -33.4810  -15.4990   17.4920 C   0  0  0  0  0  2  0  0  0  0  0  0
  -34.7190  -15.3020   18.4040 C   0  0  0  0  0  2  0  0  0  0  0  0
  -34.5080  -14.6000   19.7670 C   0  0  0  0  0  2  0  0  0  0  0  0
  -34.0630  -15.5570   20.9040 C   0  0  0  0  0  2  0  0  0  0  0  0
  -33.6000  -14.8430   22.1930 C   0  0  0  0  0  2  0  0  0  0  0  0
  -32.1620  -15.1700   22.6730 C   0  0  0  0  0  2  0  0  0  0  0  0
  -30.8480  -14.2080   20.7660 C   0  0  0  0  0  0  0  0  0  0  0  0
  -30.3970  -12.2720   19.3550 C   0  0  0  0  0  2  0  0  0  0  0  0
  -29.4550  -12.5750   18.1800 C   0  0  0  0  0  2  0  0  0  0  0  0
  -27.9930  -12.4050   18.6160 C   0  0  0  0  0  2  0  0  0  0  0  0
  -27.6680  -13.2160   19.8940 C   0  0  0  0  0  3  0  0  0  0  0  0
  -28.7090  -12.9710   21.0150 C   0  0  0  0  0  2  0  0  0  0  0  0
  -30.0690  -13.1470   20.4870 N   0  0  0  0  0  0  0  0  0  0  0  0
  -31.4920  -14.8040   19.9130 O   0  0  0  0  0  0  0  0  0  0  0  0
  -31.1030  -14.3490   22.0700 N   0  0  0  0  0  0  0  0  0  0  0  0
  -30.5810  -13.7390   22.6860 H   0  0  0  0  0  0  0  0  0  0  0  0
  -25.2530  -13.8190   20.5690 C   0  0  0  0  0  0  0  0  0  0  0  0
  -24.1770  -13.0420   20.9140 C   0  0  0  0  0  0  0  0  0  0  0  0
  -24.6390  -11.6900   20.8780 C   0  0  0  0  0  0  0  0  0  0  0  0
  -26.3040  -12.9400   20.3530 N   0  0  0  0  0  0  0  0  0  0  0  0
  -25.9340  -11.6550   20.5880 N   0  0  0  0  0  0  0  0  0  0  0  0
  -23.9100  -10.4250   21.0410 C   0  0  0  0  0  0  0  0  0  0  0  0
  -24.3640   -9.4150   21.9190 C   0  0  0  0  0  3  0  0  0  0  0  0
  -23.6280   -8.2210   22.0750 C   0  0  0  0  0  3  0  0  0  0  0  0
  -22.4270   -8.0250   21.3520 C   0  0  0  0  0  0  0  0  0  0  0  0
  -21.9920   -9.0270   20.4670 C   0  0  0  0  0  3  0  0  0  0  0  0
  -22.7290  -10.2120   20.3060 C   0  0  0  0  0  3  0  0  0  0  0  0
  -21.6600   -6.8860   21.4200 O   0  0  0  0  0  0  0  0  0  0  0  0
  -21.6830   -6.0720   22.5230 C   0  0  0  0  0  0  0  0  0  0  0  0
  -21.4000   -6.5620   23.8190 C   0  0  0  0  0  3  0  0  0  0  0  0
  -21.3640   -5.6780   24.9150 C   0  0  0  0  0  3  0  0  0  0  0  0
  -21.6050   -4.3050   24.7200 C   0  0  0  0  0  0  0  0  0  0  0  0
  -21.8820   -3.8130   23.4330 C   0  0  0  0  0  3  0  0  0  0  0  0
  -21.9190   -4.6940   22.3370 C   0  0  0  0  0  0  0  0  0  0  0  0
  -22.1650   -4.2150   21.0950 F   0  0  0  0  0  0  0  0  0  0  0  0
  -21.5640   -3.4520   25.7720 F   0  0  0  0  0  0  0  0  0  0  0  0
  -22.7820  -13.5230   21.1760 C   0  0  0  0  0  0  0  0  0  0  0  0
  -22.0470  -12.8210   22.0340 N   0  0  0  0  0  0  0  0  0  0  0  0
  -22.3530  -14.5550   20.6630 O   0  0  0  0  0  0  0  0  0  0  0  0
  -22.4120  -11.9910   22.4770 H   0  0  0  0  0  0  0  0  0  0  0  0
  -21.1150  -13.1310   22.2610 H   0  0  0  0  0  0  0  0  0  0  0  0
  -25.4150  -15.1910   20.4130 N   0  0  0  0  0  0  0  0  0  0  0  0
  -24.6330  -15.8360   20.4740 H   0  0  0  0  0  0  0  0  0  0  0  0
  -26.2850  -15.6520   20.1730 H   0  0  0  0  0  0  0  0  0  0  0  0
  2  1  1  0
  2  3  1  0
  4  3  1  0
  4  5  1  0
  6  5  1  0
  6  7  1  0
  8 10  1  0
  8  7  1  0
  9 20  2  0
 10 15  1  0
 11 19  1  0
 11 21  1  0
 12 18  1  0
 12 14  1  0
 13 19  1  0
 14 13  1  0
 15 14  2  0
 16 17  1  0
 16 10  2  0
 17 12  2  0
 18 11  1  0
 19  9  1  0
 21 23  2  0
 22 21  1  0
 24 22  1  0
 25 34  2  0
 25 30  1  0
 26 22  1  0
 26 30  1  0
 27 26  1  0
 28 29  1  0
 28 27  1  0
 29 25  1  0
 30 31  2  0
 31 32  1  0
 33 32  2  0
 34 33  1  0
 35  9  1  0
 35 36  1  0
 35 45  1  0
 36 39  1  0
 37 41  1  0
 37 36  1  0
 38 37  2  0
 41 40  1  0
 43 41  1  0
 43 44  1  0
 43 42  1  0
 45 48  1  1
 45 46  1  0
 47 45  1  0
 49  1  1  0
 50 49  1  0
 50 51  1  0
 52 50  1  0
 53 50  1  0
 53 54  1  0
 54 55  1  0
 55 56  1  0
 56 57  1  0
 57 58  1  0
 59 67  1  0
 60 65  1  0
 61 62  1  0
 61 60  1  0
 63 62  1  0
 63 72  1  0
 63 64  1  0
 65 59  1  0
 65 64  1  0
 66 59  2  0
 67 58  1  0
 67 68  1  0
 69 70  2  0
 70 89  1  0
 71 70  1  0
 71 74  1  0
 72 69  1  0
 72 73  1  0
 73 71  2  0
 74 75  1  0
 75 76  2  0
 77 80  1  0
 77 76  1  0
 78 77  2  0
 79 78  1  0
 79 74  2  0
 80 81  1  0
 81 82  1  0
 82 83  2  0
 84 83  1  0
 84 88  1  0
 85 84  2  0
 86 81  2  0
 86 85  1  0
 87 86  1  0
 89 90  1  0
 90 93  1  0
 90 92  1  0
 91 89  2  0
 94 95  1  0
 94 69  1  0
 96 94  1  0
M  ISO  4   7 101   8 101  59 100  67 100
M  END
>  <TORSDO>  (21) 
F 30

>  <SCORE>  (21) 
-2.982

>  <name>  (21) 
20

>  <ligand_id>  (21) 
20

>  <original_smiles>  (21) 
[H]c1c([H])c([H])c2c(c1[H])C([H])([H])C([H])([H])C([H])([H])C2([H])N([H])C(=O)C1([H])N(C(=O)C([H])(N([H])C(=O)C([H])(N([H])C([H])([H])[H])C([H])([H])[H])C(C([H])([H])[H])(C([H])([H])[H])C([H])([H])[H])C([H])([H])c2c([H])c(OC([H])([H])C([H])([H])C([H])([H])C([H])([H])OC([H])([H])C([H])([H])C([H])([H])[N+]([H])([H])C([H])([H])C([H])([H])C([H])([H])C([H])([H])C([H])([H])C([H])([H])N([H])C(=O)N3C([H])([H])C([H])([H])C([H])([H])C([H])(n4nc(-c5c([H])c([H])c(Oc6c([H])c([H])c(F)c([H])c6F)c([H])c5[H])c(C(=O)N([H])[H])c4N([H])[H])C3([H])[H])c([H])c([H])c2C1([H])[H]

>  <smiles>  (21) 
[H]c1c([H])c([H])c2c(c1[H])C([H])([H])C([H])([H])C([H])([H])C2([H])N([H])C(=O)C1([H])N(C(=O)C([H])(N([H])C(=O)C([H])(N([H])C([H])([H])[H])C([H])([H])[H])C(C([H])([H])[H])(C([H])([H])[H])C([H])([H])[H])C([H])([H])c2c([H])c(OC([H])([H])C([H])([H])C([H])([H])C([H])([H])OC([H])([H])C([H])([H])C([H])([H])[N+]([H])([H])C([H])([H])C([H])([H])C([H])([H])C([H])([H])C([H])([H])C([H])([H])N([H])C(=O)N3C([H])([H])C([H])([H])C([H])([H])C([H])(n4nc(-c5c([H])c([H])c(Oc6c([H])c([H])c(F)c([H])c6F)c([H])c5[H])c(C(=O)N([H])[H])c4N([H])[H])C3([H])[H])c([H])c([H])c2C1([H])[H]

$$$$
21:0:0
     RDKit          3D

 97104  0  0  1  0  0  0  0  0999 V2000
  -29.6690  -22.9210   24.4090 C   0  0  0  0  0  2  0  0  0  0  0  0
  -29.6630  -24.4340   24.1200 C   0  0  0  0  0  2  0  0  0  0  0  0
  -28.6860  -24.8100   23.0780 N   0  0  0  0  0  4  0  0  0  0  0  0
  -27.7990  -25.0090   23.5180 H   0  0  0  0  0  0  0  0  0  0  0  0
  -28.5530  -24.0250   22.4630 H   0  0  0  0  0  0  0  0  0  0  0  0
  -29.1220  -25.9800   22.2840 C   0  0  0  0  0  2  0  0  0  0  0  0
  -28.0150  -26.5480   21.3900 C   0  0  0  0  0  2  0  0  0  0  0  0
  -27.6130  -25.6200   20.2260 C   0  0  0  0  0  2  0  0  0  0  0  0
  -27.1060  -26.3640   19.1310 O   0  0  0  0  0  0  0  0  0  0  0  0
  -24.6850  -31.3880   23.5350 C   0  0  0  0  0  0  0  0  0  0  0  0
  -26.0930  -27.2280   19.4460 C   0  0  0  0  0  0  0  0  0  0  0  0
  -23.0630  -30.5370   21.8700 C   0  0  0  0  0  3  0  0  0  0  0  0
  -24.0330  -29.0500   20.0410 C   0  0  0  0  0  0  0  0  0  0  0  0
  -25.5730  -30.4930   21.3880 C   0  0  0  0  0  2  0  0  0  0  0  0
  -25.3240  -29.2680   20.5370 C   0  0  0  0  0  0  0  0  0  0  0  0
  -26.3610  -28.3670   20.2330 C   0  0  0  0  0  3  0  0  0  0  0  0
  -24.7900  -27.0040   18.9570 C   0  0  0  0  0  3  0  0  0  0  0  0
  -23.7580  -27.9160   19.2520 C   0  0  0  0  0  3  0  0  0  0  0  0
  -22.9880  -30.0850   20.3880 C   0  0  0  0  0  2  0  0  0  0  0  0
  -24.4690  -30.8040   22.3240 N   0  0  0  0  0  0  0  0  0  0  0  0
  -23.7400  -31.7450   24.2530 O   0  0  0  0  0  0  0  0  0  0  0  0
  -22.3290  -29.4900   22.7360 C   0  0  0  0  0  0  0  0  0  0  0  0
  -20.9920  -29.4510   22.6170 N   0  0  0  0  0  0  0  0  0  0  0  0
  -22.9570  -28.7200   23.4680 O   0  0  0  0  0  0  0  0  0  0  0  0
  -20.5510  -30.1180   22.0000 H   0  0  0  0  0  0  0  0  0  0  0  0
  -17.5440  -28.4300   22.9080 C   0  0  0  0  0  0  0  0  0  0  0  0
  -20.0970  -28.5220   23.3050 C   0  0  0  0  0  3  0  0  0  0  0  0
  -20.1470  -27.1200   22.6570 C   0  0  0  0  0  2  0  0  0  0  0  0
  -19.0750  -26.9140   21.5820 C   0  0  0  0  0  2  0  0  0  0  0  0
  -17.6760  -27.1080   22.1740 C   0  0  0  0  0  2  0  0  0  0  0  0
  -18.6830  -29.1010   23.4270 C   0  0  0  0  0  0  0  0  0  0  0  0
  -18.5100  -30.3460   24.0710 C   0  0  0  0  0  3  0  0  0  0  0  0
  -17.2300  -30.9150   24.2030 C   0  0  0  0  0  3  0  0  0  0  0  0
  -16.1030  -30.2380   23.7050 C   0  0  0  0  0  3  0  0  0  0  0  0
  -16.2630  -28.9980   23.0610 C   0  0  0  0  0  3  0  0  0  0  0  0
  -26.1270  -31.6590   24.0680 C   0  0  0  0  0  3  0  0  0  0  0  0
  -26.1010  -32.9370   24.7880 N   0  0  0  0  0  0  0  0  0  0  0  0
  -26.5980  -34.0870   24.3150 C   0  0  0  0  0  0  0  0  0  0  0  0
  -27.2010  -34.1640   23.2400 O   0  0  0  0  0  0  0  0  0  0  0  0
  -25.5600  -32.9640   25.6400 H   0  0  0  0  0  0  0  0  0  0  0  0
  -25.2500  -36.1930   24.5810 C   0  0  0  0  0  1  0  0  0  0  0  0
  -26.3940  -35.3530   25.1680 C   0  0  0  0  0  3  0  0  0  0  0  0
  -28.6650  -35.5550   26.0780 C   0  0  0  0  0  1  0  0  0  0  0  0
  -27.6110  -36.1840   25.2860 N   0  0  0  0  0  0  0  0  0  0  0  0
  -27.3950  -37.0850   25.7040 H   0  0  0  0  0  0  0  0  0  0  0  0
  -26.6730  -30.5030   24.9920 C   0  0  1  0  0  0  0  0  0  0  0  0
  -25.6980  -30.1070   26.1260 C   0  0  0  0  0  1  0  0  0  0  0  0
  -26.9740  -29.2340   24.1600 C   0  0  0  0  0  1  0  0  0  0  0  0
  -28.0100  -30.9320   25.6410 C   0  0  0  0  0  1  0  0  0  0  0  0
  -31.0940  -22.3870   24.6520 C   0  0  0  0  0  2  0  0  0  0  0  0
  -31.1850  -20.8550   24.5280 C   0  0  0  0  0  2  0  0  0  0  0  0
  -32.3770  -20.4190   23.7640 N   0  0  0  0  0  4  0  0  0  0  0  0
  -32.5310  -21.0270   22.9770 H   0  0  0  0  0  0  0  0  0  0  0  0
  -33.1790  -20.5160   24.3650 H   0  0  0  0  0  0  0  0  0  0  0  0
  -32.3330  -19.0210   23.2780 C   0  0  0  0  0  2  0  0  0  0  0  0
  -31.3360  -18.8450   22.1120 C   0  0  0  0  0  2  0  0  0  0  0  0
  -31.3110  -17.4270   21.5160 C   0  0  0  0  0  2  0  0  0  0  0  0
  -30.5060  -17.3880   20.2030 C   0  0  0  0  0  2  0  0  0  0  0  0
  -30.9240  -16.2830   19.2180 C   0  0  0  0  0  2  0  0  0  0  0  0
  -30.2900  -13.9250   18.6780 C   0  0  0  0  0  0  0  0  0  0  0  0
  -30.4130  -11.5200   19.1700 C   0  0  0  0  0  2  0  0  0  0  0  0
  -29.5040  -10.6180   18.3220 C   0  0  0  0  0  2  0  0  0  0  0  0
  -28.1030  -10.5220   18.9450 C   0  0  0  0  0  2  0  0  0  0  0  0
  -27.5050  -11.9150   19.2610 C   0  0  0  0  0  3  0  0  0  0  0  0
  -28.5060  -12.7990   20.0390 C   0  0  0  0  0  2  0  0  0  0  0  0
  -29.7890  -12.8420   19.3130 N   0  0  0  0  0  0  0  0  0  0  0  0
  -31.0480  -13.8620   17.7040 O   0  0  0  0  0  0  0  0  0  0  0  0
  -30.1380  -15.0590   19.3820 N   0  0  0  0  0  0  0  0  0  0  0  0
  -29.5770  -14.9850   20.2180 H   0  0  0  0  0  0  0  0  0  0  0  0
  -25.3680  -12.7810   20.4090 C   0  0  0  0  0  0  0  0  0  0  0  0
  -24.2850  -12.1310   20.9390 C   0  0  0  0  0  0  0  0  0  0  0  0
  -24.5460  -10.7360   20.7780 C   0  0  0  0  0  0  0  0  0  0  0  0
  -26.2300  -11.7890   19.9670 N   0  0  0  0  0  0  0  0  0  0  0  0
  -25.7450  -10.5500   20.2410 N   0  0  0  0  0  0  0  0  0  0  0  0
  -23.7000   -9.5670   21.0560 C   0  0  0  0  0  0  0  0  0  0  0  0
  -23.8800   -8.7850   22.2180 C   0  0  0  0  0  3  0  0  0  0  0  0
  -23.0440   -7.6770   22.4730 C   0  0  0  0  0  3  0  0  0  0  0  0
  -22.0120   -7.3430   21.5640 C   0  0  0  0  0  0  0  0  0  0  0  0
  -21.8500   -8.1120   20.3990 C   0  0  0  0  0  3  0  0  0  0  0  0
  -22.6860   -9.2120   20.1430 C   0  0  0  0  0  3  0  0  0  0  0  0
  -21.1690   -6.2690   21.7150 O   0  0  0  0  0  0  0  0  0  0  0  0
  -20.5100   -6.0310   22.8950 C   0  0  0  0  0  0  0  0  0  0  0  0
  -19.6380   -6.9820   23.4660 C   0  0  0  0  0  3  0  0  0  0  0  0
  -18.9290   -6.6690   24.6440 C   0  0  0  0  0  3  0  0  0  0  0  0
  -19.0830   -5.4060   25.2430 C   0  0  0  0  0  0  0  0  0  0  0  0
  -19.9490   -4.4560   24.6740 C   0  0  0  0  0  3  0  0  0  0  0  0
  -20.6590   -4.7680   23.5010 C   0  0  0  0  0  0  0  0  0  0  0  0
  -21.4740   -3.8400   22.9430 F   0  0  0  0  0  0  0  0  0  0  0  0
  -18.3970   -5.1010   26.3710 F   0  0  0  0  0  0  0  0  0  0  0  0
  -23.0360  -12.7660   21.4770 C   0  0  0  0  0  0  0  0  0  0  0  0
  -22.4210  -12.1540   22.4850 N   0  0  0  0  0  0  0  0  0  0  0  0
  -22.6230  -13.8370   21.0380 O   0  0  0  0  0  0  0  0  0  0  0  0
  -22.7680  -11.2840   22.8600 H   0  0  0  0  0  0  0  0  0  0  0  0
  -21.5910  -12.5640   22.8880 H   0  0  0  0  0  0  0  0  0  0  0  0
  -25.6790  -14.1280   20.2500 N   0  0  0  0  0  0  0  0  0  0  0  0
  -25.0390  -14.8660   20.5180 H   0  0  0  0  0  0  0  0  0  0  0  0
  -26.5180  -14.4740   19.7990 H   0  0  0  0  0  0  0  0  0  0  0  0
  1 50  1  0
  2  1  1  0
  3  4  1  0
  3  2  1  0
  5  3  1  0
  6  3  1  0
  7  6  1  0
  8  7  1  0
  9 11  1  0
  9  8  1  0
 10 21  2  0
 11 16  1  0
 12 20  1  0
 12 22  1  0
 13 19  1  0
 13 15  1  0
 14 20  1  0
 15 14  1  0
 16 15  2  0
 17 18  1  0
 17 11  2  0
 18 13  2  0
 19 12  1  0
 20 10  1  0
 22 24  2  0
 23 22  1  0
 25 23  1  0
 26 35  2  0
 26 31  1  0
 27 23  1  0
 27 31  1  0
 28 27  1  0
 29 30  1  0
 29 28  1  0
 30 26  1  0
 31 32  2  0
 32 33  1  0
 34 33  2  0
 35 34  1  0
 36 10  1  0
 36 37  1  0
 36 46  1  0
 37 40  1  0
 38 37  1  0
 38 42  1  0
 39 38  2  0
 42 41  1  0
 42 44  1  0
 44 45  1  0
 44 43  1  0
 46 49  1  1
 46 47  1  0
 48 46  1  0
 51 50  1  0
 52 54  1  0
 52 51  1  0
 53 52  1  0
 55 52  1  0
 56 55  1  0
 57 56  1  0
 58 57  1  0
 59 68  1  0
 59 58  1  0
 60 66  1  0
 60 68  1  0
 61 66  1  0
 62 63  1  0
 62 61  1  0
 64 63  1  0
 64 73  1  0
 64 65  1  0
 66 65  1  0
 67 60  2  0
 68 69  1  0
 70 71  2  0
 71 90  1  0
 72 71  1  0
 72 75  1  0
 73 74  1  0
 73 70  1  0
 74 72  2  0
 75 76  1  0
 76 77  2  0
 78 81  1  0
 78 77  1  0
 79 78  2  0
 80 79  1  0
 80 75  2  0
 81 82  1  0
 82 83  2  0
 82 87  1  0
 83 84  1  0
 84 85  2  0
 85 89  1  0
 86 85  1  0
 87 86  2  0
 88 87  1  0
 90 91  1  0
 91 93  1  0
 91 94  1  0
 92 90  2  0
 95 70  1  0
 95 96  1  0
 97 95  1  0
M  ISO  4   8 101   9 101  60 100  68 100
M  END
>  <TORSDO>  (22) 
F 29

>  <SCORE>  (22) 
-6.052

>  <name>  (22) 
21

>  <ligand_id>  (22) 
21

>  <original_smiles>  (22) 
[H]c1c([H])c([H])c2c(c1[H])C([H])([H])C([H])([H])C([H])([H])C2([H])N([H])C(=O)C1([H])N(C(=O)C([H])(N([H])C(=O)C([H])(N([H])C([H])([H])[H])C([H])([H])[H])C(C([H])([H])[H])(C([H])([H])[H])C([H])([H])[H])C([H])([H])c2c([H])c(OC([H])([H])C([H])([H])C([H])([H])[N+]([H])([H])C([H])([H])C([H])([H])C([H])([H])C([H])([H])[N+]([H])([H])C([H])([H])C([H])([H])C([H])([H])C([H])([H])C([H])([H])N([H])C(=O)N3C([H])([H])C([H])([H])C([H])([H])C([H])(n4nc(-c5c([H])c([H])c(Oc6c([H])c([H])c(F)c([H])c6F)c([H])c5[H])c(C(=O)N([H])[H])c4N([H])[H])C3([H])[H])c([H])c([H])c2C1([H])[H]

>  <smiles>  (22) 
[H]c1c([H])c([H])c2c(c1[H])C([H])([H])C([H])([H])C([H])([H])C2([H])N([H])C(=O)C1([H])N(C(=O)C([H])(N([H])C(=O)C([H])(N([H])C([H])([H])[H])C([H])([H])[H])C(C([H])([H])[H])(C([H])([H])[H])C([H])([H])[H])C([H])([H])c2c([H])c(OC([H])([H])C([H])([H])C([H])([H])[N+]([H])([H])C([H])([H])C([H])([H])C([H])([H])C([H])([H])[N+]([H])([H])C([H])([H])C([H])([H])C([H])([H])C([H])([H])C([H])([H])N([H])C(=O)N3C([H])([H])C([H])([H])C([H])([H])C([H])(n4nc(-c5c([H])c([H])c(Oc6c([H])c([H])c(F)c([H])c6F)c([H])c5[H])c(C(=O)N([H])[H])c4N([H])[H])C3([H])[H])c([H])c([H])c2C1([H])[H]

$$$$
22:0:0
     RDKit          3D

101110  0  0  1  0  0  0  0  0999 V2000
  -25.3550  -28.0330   19.0740 N   0  0  0  0  0  4  0  0  0  0  0  0
  -24.6610  -27.3460   19.3240 H   0  0  0  0  0  0  0  0  0  0  0  0
  -25.1200  -28.8810   19.5640 H   0  0  0  0  0  0  0  0  0  0  0  0
  -25.3060  -28.2940   17.6200 C   0  0  0  0  0  2  0  0  0  0  0  0
  -26.6930  -28.2370   16.9500 C   0  0  0  0  0  2  0  0  0  0  0  0
  -26.6790  -27.3960   15.6540 C   0  0  0  0  0  2  0  0  0  0  0  0
  -27.6990  -27.9450   14.6270 C   0  0  0  0  0  2  0  0  0  0  0  0
  -29.1900  -27.8300   15.0260 C   0  0  0  0  0  2  0  0  0  0  0  0
  -29.7850  -26.5600   14.5390 N   0  0  0  0  0  4  0  0  0  0  0  0
  -29.7690  -25.9040   15.3040 H   0  0  0  0  0  0  0  0  0  0  0  0
  -30.7480  -26.7390   14.3010 H   0  0  0  0  0  0  0  0  0  0  0  0
  -29.1260  -25.9380   13.3580 C   0  0  0  0  0  2  0  0  0  0  0  0
  -29.9910  -24.8230   12.7030 C   0  0  0  0  0  2  0  0  0  0  0  0
  -31.4370  -24.7110   13.2600 C   0  0  0  0  0  2  0  0  0  0  0  0
  -32.3180  -23.3150   11.2630 C   0  0  0  0  0  0  0  0  0  0  0  0
  -31.4470  -23.0070    8.9760 C   0  0  0  0  0  2  0  0  0  0  0  0
  -31.5550  -24.3440    8.2120 C   0  0  0  0  0  2  0  0  0  0  0  0
  -30.3400  -25.2560    8.4980 C   0  0  0  0  0  2  0  0  0  0  0  0
  -29.9910  -25.3470   10.0090 C   0  0  0  0  0  3  0  0  0  0  0  0
  -29.9410  -23.9240   10.6100 C   0  0  0  0  0  2  0  0  0  0  0  0
  -31.2620  -23.3280   10.4000 N   0  0  0  0  0  0  0  0  0  0  0  0
  -33.3620  -22.7120   11.0010 O   0  0  0  0  0  0  0  0  0  0  0  0
  -32.3860  -24.2670   12.2200 N   0  0  0  0  0  0  0  0  0  0  0  0
  -33.3500  -24.4130   12.4840 H   0  0  0  0  0  0  0  0  0  0  0  0
  -28.5590  -27.3900   10.6470 C   0  0  0  0  0  0  0  0  0  0  0  0
  -27.2040  -27.5950   10.6320 C   0  0  0  0  0  0  0  0  0  0  0  0
  -26.6260  -26.3700   10.1810 C   0  0  0  0  0  0  0  0  0  0  0  0
  -28.7470  -26.0790   10.2310 N   0  0  0  0  0  0  0  0  0  0  0  0
  -27.5680  -25.4550    9.9910 N   0  0  0  0  0  0  0  0  0  0  0  0
  -25.2340  -26.0340    9.8540 C   0  0  0  0  0  0  0  0  0  0  0  0
  -24.3770  -25.4410   10.8070 C   0  0  0  0  0  3  0  0  0  0  0  0
  -23.0390  -25.1430   10.4760 C   0  0  0  0  0  3  0  0  0  0  0  0
  -22.5430  -25.4390    9.1830 C   0  0  0  0  0  0  0  0  0  0  0  0
  -23.4060  -26.0100    8.2340 C   0  0  0  0  0  3  0  0  0  0  0  0
  -24.7420  -26.3010    8.5610 C   0  0  0  0  0  3  0  0  0  0  0  0
  -21.2610  -25.1650    8.7680 O   0  0  0  0  0  0  0  0  0  0  0  0
  -20.1710  -25.7490    9.3620 C   0  0  0  0  0  0  0  0  0  0  0  0
  -19.9640  -27.1460    9.3280 C   0  0  0  0  0  3  0  0  0  0  0  0
  -18.7950  -27.6990    9.8870 C   0  0  0  0  0  3  0  0  0  0  0  0
  -17.8280  -26.8610   10.4730 C   0  0  0  0  0  0  0  0  0  0  0  0
  -18.0290  -25.4690   10.5030 C   0  0  0  0  0  3  0  0  0  0  0  0
  -19.1970  -24.9150    9.9490 C   0  0  0  0  0  0  0  0  0  0  0  0
  -19.3740  -23.5720    9.9620 F   0  0  0  0  0  0  0  0  0  0  0  0
  -16.7030  -27.3920   11.0040 F   0  0  0  0  0  0  0  0  0  0  0  0
  -26.4940  -28.8850   10.9300 C   0  0  0  0  0  0  0  0  0  0  0  0
  -25.2720  -28.8020   11.4500 N   0  0  0  0  0  0  0  0  0  0  0  0
  -27.0350  -29.9710   10.7430 O   0  0  0  0  0  0  0  0  0  0  0  0
  -24.8330  -27.9120   11.6270 H   0  0  0  0  0  0  0  0  0  0  0  0
  -24.7660  -29.6460   11.6760 H   0  0  0  0  0  0  0  0  0  0  0  0
  -29.6400  -28.2070   10.9600 N   0  0  0  0  0  0  0  0  0  0  0  0
  -29.5260  -29.1940   11.1620 H   0  0  0  0  0  0  0  0  0  0  0  0
  -30.6050  -27.9450   10.7970 H   0  0  0  0  0  0  0  0  0  0  0  0
  -26.6920  -27.6020   19.5460 C   0  0  0  0  0  2  0  0  0  0  0  0
  -26.9700  -28.1250   20.9660 C   0  0  0  0  0  2  0  0  0  0  0  0
  -28.0570  -27.3360   21.7300 C   0  0  1  0  0  0  0  0  0  0  0  0
  -27.9570  -27.5260   23.1950 N   0  0  0  0  0  4  0  0  0  0  0  0
  -28.7070  -28.1150   23.5200 H   0  0  0  0  0  0  0  0  0  0  0  0
  -28.0930  -26.6260   23.6350 H   0  0  0  0  0  0  0  0  0  0  0  0
  -26.6490  -28.0610   23.6460 C   0  0  0  0  0  2  0  0  0  0  0  0
  -26.6880  -29.5750   23.9840 C   0  0  0  0  0  2  0  0  0  0  0  0
  -27.9920  -30.1890   23.9360 O   0  0  0  0  0  0  0  0  0  0  0  0
  -31.1920  -24.6900   20.7310 C   0  0  0  0  0  0  0  0  0  0  0  0
  -28.9250  -29.7400   23.0190 C   0  0  0  0  0  0  0  0  0  0  0  0
  -32.2870  -26.8930   20.4220 C   0  0  0  0  0  3  0  0  0  0  0  0
  -30.9290  -28.9100   21.1930 C   0  0  0  0  0  0  0  0  0  0  0  0
  -29.7670  -26.7300   20.7970 C   0  0  0  0  0  2  0  0  0  0  0  0
  -29.8420  -28.0770   21.4740 C   0  0  2  0  0  0  0  0  0  0  0  0
  -28.8370  -28.4890   22.3640 C   0  0  0  0  0  3  0  0  0  0  0  0
  -30.0350  -30.5680   22.7390 C   0  0  0  0  0  3  0  0  0  0  0  0
  -31.0340  -30.1640   21.8260 C   0  0  0  0  0  3  0  0  0  0  0  0
  -31.9400  -28.3920   20.1970 C   0  0  0  0  0  2  0  0  0  0  0  0
  -31.0750  -26.0480   20.6830 N   0  0  0  0  0  0  0  0  0  0  0  0
  -32.2760  -24.1320   20.5100 O   0  0  0  0  0  0  0  0  0  0  0  0
  -33.3460  -26.8070   21.5410 C   0  0  0  0  0  0  0  0  0  0  0  0
  -34.6170  -27.0340   21.1750 N   0  0  0  0  0  0  0  0  0  0  0  0
  -33.0160  -26.5810   22.7100 O   0  0  0  0  0  0  0  0  0  0  0  0
  -34.8020  -27.2050   20.1970 H   0  0  0  0  0  0  0  0  0  0  0  0
  -38.2250  -27.2270   21.2470 C   0  0  0  0  0  0  0  0  0  0  0  0
  -35.7780  -27.0550   22.0610 C   0  0  0  0  0  3  0  0  0  0  0  0
  -35.9880  -28.4580   22.6750 C   0  0  0  0  0  2  0  0  0  0  0  0
  -36.9650  -29.3320   21.8820 C   0  0  0  0  0  2  0  0  0  0  0  0
  -38.3310  -28.6470   21.7780 C   0  0  0  0  0  2  0  0  0  0  0  0
  -37.0210  -26.4840   21.3710 C   0  0  0  0  0  0  0  0  0  0  0  0
  -36.9650  -25.1760   20.8400 C   0  0  0  0  0  3  0  0  0  0  0  0
  -38.0850  -24.6100   20.2000 C   0  0  0  0  0  3  0  0  0  0  0  0
  -39.2770  -25.3460   20.0940 C   0  0  0  0  0  3  0  0  0  0  0  0
  -39.3490  -26.6470   20.6220 C   0  0  0  0  0  3  0  0  0  0  0  0
  -29.9680  -23.7710   21.0370 C   0  0  0  0  0  3  0  0  0  0  0  0
  -29.7710  -22.8920   19.8750 N   0  0  0  0  0  0  0  0  0  0  0  0
  -28.8720  -23.1070   18.9070 C   0  0  0  0  0  0  0  0  0  0  0  0
  -28.0650  -24.0410   18.9360 O   0  0  0  0  0  0  0  0  0  0  0  0
  -30.4340  -22.1390   19.7590 H   0  0  0  0  0  0  0  0  0  0  0  0
  -29.6000  -22.7780   16.5230 C   0  0  0  0  0  1  0  0  0  0  0  0
  -28.8680  -22.1350   17.7130 C   0  0  0  0  0  3  0  0  0  0  0  0
  -26.8580  -20.8360   18.2620 C   0  0  0  0  0  1  0  0  0  0  0  0
  -27.5100  -21.7190   17.2990 N   0  0  0  0  0  0  0  0  0  0  0  0
  -27.5350  -21.2460   16.4000 H   0  0  0  0  0  0  0  0  0  0  0  0
  -30.1370  -22.9230   22.3570 C   0  0  1  0  0  0  0  0  0  0  0  0
  -31.4710  -22.1420   22.4300 C   0  0  0  0  0  1  0  0  0  0  0  0
  -30.0510  -23.8400   23.6000 C   0  0  0  0  0  1  0  0  0  0  0  0
  -28.9810  -21.9030   22.4790 C   0  0  0  0  0  1  0  0  0  0  0  0
  1  2  1  0
  1 53  1  0
  1  3  1  0
  4  1  1  0
  5  4  1  0
  6  5  1  0
  7  8  1  0
  7  6  1  0
  9  8  1  0
  9 10  1  0
 11  9  1  0
 12  9  1  0
 13 14  1  0
 13 12  1  0
 15 23  1  0
 16 21  1  0
 17 18  1  0
 17 16  1  0
 19 18  1  0
 19 28  1  0
 19 20  1  0
 21 20  1  0
 21 15  1  0
 22 15  2  0
 23 24  1  0
 23 14  1  0
 25 50  1  0
 26 25  2  0
 26 45  1  0
 27 26  1  0
 28 25  1  0
 29 27  2  0
 29 28  1  0
 30 27  1  0
 30 31  1  0
 32 31  2  0
 33 32  1  0
 34 35  1  0
 34 33  2  0
 35 30  2  0
 36 33  1  0
 36 37  1  0
 37 42  1  0
 38 37  2  0
 38 39  1  0
 39 40  2  0
 40 41  1  0
 40 44  1  0
 42 43  1  0
 42 41  2  0
 45 46  1  0
 46 48  1  0
 46 49  1  0
 47 45  2  0
 50 51  1  0
 52 50  1  0
 53 54  1  0
 55 54  1  6
 55 68  1  0
 55 56  1  0
 56 57  1  0
 56 58  1  0
 56 59  1  0
 59 60  1  0
 61 60  1  0
 63 61  1  0
 64 72  1  0
 64 74  1  0
 65 67  1  0
 65 70  2  0
 67 66  1  1
 67 55  1  0
 67 68  1  0
 68 63  1  0
 69 63  2  0
 70 69  1  0
 71 64  1  0
 71 65  1  0
 72 62  1  0
 72 66  1  0
 73 62  2  0
 74 76  2  0
 75 74  1  0
 77 75  1  0
 78 83  1  0
 78 82  1  0
 79 75  1  0
 79 80  1  0
 81 80  1  0
 82 81  1  0
 83 79  1  0
 84 83  2  0
 85 84  1  0
 86 85  2  0
 86 87  1  0
 87 78  2  0
 88 62  1  0
 88 98  1  0
 89 88  1  0
 90 91  2  0
 90 89  1  0
 92 89  1  0
 94 93  1  0
 94 90  1  0
 96 94  1  0
 96 95  1  0
 97 96  1  0
 98 99  1  6
 98101  1  0
 98100  1  0
M  ISO  4  15 100  23 100  60 101  61 101
M  END
>  <TORSDO>  (23) 
F 31

>  <SCORE>  (23) 
-1.869

>  <name>  (23) 
22

>  <ligand_id>  (23) 
22

>  <original_smiles>  (23) 
[H]c1c([H])c([H])c2c(c1[H])C([H])([H])C([H])([H])C([H])([H])C2([H])N([H])C(=O)C1([H])N(C(=O)C([H])(N([H])C(=O)C([H])(N([H])C([H])([H])[H])C([H])([H])[H])C(C([H])([H])[H])(C([H])([H])[H])C([H])([H])[H])C([H])([H])c2c([H])c(OC([H])([H])C([H])([H])[N+]([H])([H])C([H])([H])C([H])([H])C([H])([H])[N+]([H])([H])C([H])([H])C([H])([H])C([H])([H])C([H])([H])C([H])([H])[N+]([H])([H])C([H])([H])C([H])([H])C([H])([H])N([H])C(=O)N3C([H])([H])C([H])([H])C([H])([H])C([H])(n4nc(-c5c([H])c([H])c(Oc6c([H])c([H])c(F)c([H])c6F)c([H])c5[H])c(C(=O)N([H])[H])c4N([H])[H])C3([H])[H])c([H])c([H])c2C1([H])[H]

>  <smiles>  (23) 
[H]c1c([H])c([H])c2c(c1[H])C([H])([H])C([H])([H])C([H])([H])C2([H])N([H])C(=O)C1([H])N(C(=O)C([H])(N([H])C(=O)C([H])(N([H])C([H])([H])[H])C([H])([H])[H])C(C([H])([H])[H])(C([H])([H])[H])C([H])([H])[H])C([H])([H])c2c([H])c(OC([H])([H])C([H])([H])[N+]([H])([H])C([H])([H])C([H])([H])C([H])([H])[N+]([H])([H])C([H])([H])C([H])([H])C([H])([H])C([H])([H])C([H])([H])[N+]([H])([H])C([H])([H])C([H])([H])C([H])([H])N([H])C(=O)N3C([H])([H])C([H])([H])C([H])([H])C([H])(n4nc(-c5c([H])c([H])c(Oc6c([H])c([H])c(F)c([H])c6F)c([H])c5[H])c(C(=O)N([H])[H])c4N([H])[H])C3([H])[H])c([H])c([H])c2C1([H])[H]

$$$$
23:0:0
     RDKit          3D

 97104  0  0  1  0  0  0  0  0999 V2000
  -27.2100  -20.9810   20.0680 C   0  0  0  0  0  0  0  0  0  0  0  0
  -26.2300  -21.8160   20.4360 N   0  0  0  0  0  0  0  0  0  0  0  0
  -27.2300  -20.4540   18.9550 O   0  0  0  0  0  0  0  0  0  0  0  0
  -26.1900  -22.1180   21.4030 H   0  0  0  0  0  0  0  0  0  0  0  0
  -25.1670  -22.2890   19.5390 C   0  0  0  0  0  2  0  0  0  0  0  0
  -25.6770  -23.3310   18.5180 C   0  0  0  0  0  2  0  0  0  0  0  0
  -26.5840  -24.3120   19.1490 N   0  0  0  0  0  4  0  0  0  0  0  0
  -27.1410  -23.8050   19.8180 H   0  0  0  0  0  0  0  0  0  0  0  0
  -26.0290  -24.9750   19.6700 H   0  0  0  0  0  0  0  0  0  0  0  0
  -27.4820  -25.0240   18.2050 C   0  0  0  0  0  2  0  0  0  0  0  0
  -28.2920  -26.1340   18.9040 C   0  0  0  0  0  2  0  0  0  0  0  0
  -28.0050  -27.4350   18.3860 O   0  0  0  0  0  0  0  0  0  0  0  0
  -24.4220  -31.5170   22.9550 C   0  0  0  0  0  0  0  0  0  0  0  0
  -26.7940  -27.9850   18.7270 C   0  0  0  0  0  0  0  0  0  0  0  0
  -23.0480  -30.3250   21.2780 C   0  0  0  0  0  3  0  0  0  0  0  0
  -24.3350  -29.2070   19.3870 C   0  0  0  0  0  0  0  0  0  0  0  0
  -25.4710  -30.9510   20.7710 C   0  0  0  0  0  2  0  0  0  0  0  0
  -25.5360  -29.7250   19.8900 C   0  0  0  0  0  0  0  0  0  0  0  0
  -26.7650  -29.1220   19.5630 C   0  0  0  0  0  3  0  0  0  0  0  0
  -25.5770  -27.4930   18.2050 C   0  0  0  0  0  3  0  0  0  0  0  0
  -24.3490  -28.0870   18.5400 C   0  0  0  0  0  3  0  0  0  0  0  0
  -23.0640  -29.9220   19.7800 C   0  0  0  0  0  2  0  0  0  0  0  0
  -24.3400  -30.9360   21.7260 N   0  0  0  0  0  0  0  0  0  0  0  0
  -23.4320  -31.5880   23.6950 O   0  0  0  0  0  0  0  0  0  0  0  0
  -22.6320  -29.0930   22.1150 C   0  0  0  0  0  0  0  0  0  0  0  0
  -21.3400  -28.7330   22.0470 N   0  0  0  0  0  0  0  0  0  0  0  0
  -23.4640  -28.4710   22.7810 O   0  0  0  0  0  0  0  0  0  0  0  0
  -20.7190  -29.3060   21.4940 H   0  0  0  0  0  0  0  0  0  0  0  0
  -18.2590  -26.8800   22.4230 C   0  0  0  0  0  0  0  0  0  0  0  0
  -20.7290  -27.5830   22.7140 C   0  0  0  0  0  3  0  0  0  0  0  0
  -21.0840  -26.2640   21.9920 C   0  0  0  0  0  2  0  0  0  0  0  0
  -20.0390  -25.8420   20.9540 C   0  0  0  0  0  2  0  0  0  0  0  0
  -18.6700  -25.6600   21.6120 C   0  0  0  0  0  2  0  0  0  0  0  0
  -19.2270  -27.7890   22.9270 C   0  0  0  0  0  0  0  0  0  0  0  0
  -18.7910  -28.9240   23.6440 C   0  0  0  0  0  3  0  0  0  0  0  0
  -17.4210  -29.1550   23.8640 C   0  0  0  0  0  3  0  0  0  0  0  0
  -16.4680  -28.2430   23.3760 C   0  0  0  0  0  3  0  0  0  0  0  0
  -16.8880  -27.1070   22.6610 C   0  0  0  0  0  3  0  0  0  0  0  0
  -25.7540  -32.1420   23.4780 C   0  0  0  0  0  3  0  0  0  0  0  0
  -26.4730  -31.2490   24.5630 C   0  0  1  0  0  0  0  0  0  0  0  0
  -25.5520  -30.8220   25.7290 C   0  0  0  0  0  1  0  0  0  0  0  0
  -27.0460  -29.9620   23.9220 C   0  0  0  0  0  1  0  0  0  0  0  0
  -27.6710  -32.0200   25.1640 C   0  0  0  0  0  1  0  0  0  0  0  0
  -25.4360  -33.4700   24.0220 N   0  0  0  0  0  0  0  0  0  0  0  0
  -25.6290  -34.6250   23.3710 C   0  0  0  0  0  0  0  0  0  0  0  0
  -26.1740  -34.6870   22.2660 O   0  0  0  0  0  0  0  0  0  0  0  0
  -24.9470  -33.4940   24.9040 H   0  0  0  0  0  0  0  0  0  0  0  0
  -23.8060  -36.3560   23.4400 C   0  0  0  0  0  1  0  0  0  0  0  0
  -25.1430  -35.9160   24.0560 C   0  0  0  0  0  3  0  0  0  0  0  0
  -27.3230  -36.7970   24.7620 C   0  0  0  0  0  1  0  0  0  0  0  0
  -26.1150  -37.0270   23.9740 N   0  0  0  0  0  0  0  0  0  0  0  0
  -25.6940  -37.8980   24.2840 H   0  0  0  0  0  0  0  0  0  0  0  0
  -28.3650  -20.7490   21.0520 C   0  0  0  0  0  2  0  0  0  0  0  0
  -29.5930  -20.0510   20.4100 C   0  0  0  0  0  2  0  0  0  0  0  0
  -29.3610  -18.6170   20.1040 N   0  0  0  0  0  4  0  0  0  0  0  0
  -28.7280  -18.5680   19.3190 H   0  0  0  0  0  0  0  0  0  0  0  0
  -28.9140  -18.1880   20.9000 H   0  0  0  0  0  0  0  0  0  0  0  0
  -30.5810  -17.8420   19.7770 C   0  0  0  0  0  2  0  0  0  0  0  0
  -30.3430  -16.3260   19.9520 C   0  0  0  0  0  2  0  0  0  0  0  0
  -31.9160  -14.4570   19.4390 C   0  0  0  0  0  0  0  0  0  0  0  0
  -31.4870  -12.0690   18.9680 C   0  0  0  0  0  2  0  0  0  0  0  0
  -30.4900  -11.9020   17.8060 C   0  0  0  0  0  2  0  0  0  0  0  0
  -29.0330  -11.9550   18.3050 C   0  0  0  0  0  2  0  0  0  0  0  0
  -28.7720  -13.1650   19.2370 C   0  0  0  0  0  3  0  0  0  0  0  0
  -29.8690  -13.2420   20.3280 C   0  0  0  0  0  2  0  0  0  0  0  0
  -31.1760  -13.3330   19.6560 N   0  0  0  0  0  0  0  0  0  0  0  0
  -32.9400  -14.4600   18.7550 O   0  0  0  0  0  0  0  0  0  0  0  0
  -31.5870  -15.5650   20.1260 N   0  0  0  0  0  0  0  0  0  0  0  0
  -32.3900  -16.1650   20.2480 H   0  0  0  0  0  0  0  0  0  0  0  0
  -26.5790  -14.1760   20.1320 C   0  0  0  0  0  0  0  0  0  0  0  0
  -25.4170  -13.5970   20.5650 C   0  0  0  0  0  0  0  0  0  0  0  0
  -25.6220  -12.1850   20.4710 C   0  0  0  0  0  0  0  0  0  0  0  0
  -27.4300  -13.1280   19.8100 N   0  0  0  0  0  0  0  0  0  0  0  0
  -26.8560  -11.9240   20.0620 N   0  0  0  0  0  0  0  0  0  0  0  0
  -24.6970  -11.0700   20.6910 C   0  0  0  0  0  0  0  0  0  0  0  0
  -24.9790  -10.0570   21.6340 C   0  0  0  0  0  3  0  0  0  0  0  0
  -24.0690   -8.9960   21.8410 C   0  0  0  0  0  3  0  0  0  0  0  0
  -22.8610   -8.9450   21.1060 C   0  0  0  0  0  0  0  0  0  0  0  0
  -22.5960   -9.9440   20.1520 C   0  0  0  0  0  3  0  0  0  0  0  0
  -23.5050  -10.9950   19.9430 C   0  0  0  0  0  3  0  0  0  0  0  0
  -21.9280   -7.9430   21.2220 O   0  0  0  0  0  0  0  0  0  0  0  0
  -21.7140   -7.2930   22.4110 C   0  0  0  0  0  0  0  0  0  0  0  0
  -21.3250   -7.9840   23.5780 C   0  0  0  0  0  3  0  0  0  0  0  0
  -21.0470   -7.2690   24.7600 C   0  0  0  0  0  3  0  0  0  0  0  0
  -21.1510   -5.8640   24.7740 C   0  0  0  0  0  0  0  0  0  0  0  0
  -21.5340   -5.1730   23.6110 C   0  0  0  0  0  3  0  0  0  0  0  0
  -21.8130   -5.8870   22.4320 C   0  0  0  0  0  0  0  0  0  0  0  0
  -22.1580   -5.2150   21.3070 F   0  0  0  0  0  0  0  0  0  0  0  0
  -20.8760   -5.1760   25.9070 F   0  0  0  0  0  0  0  0  0  0  0  0
  -24.1510  -14.3060   20.9510 C   0  0  0  0  0  0  0  0  0  0  0  0
  -23.3880  -13.7380   21.8780 N   0  0  0  0  0  0  0  0  0  0  0  0
  -23.8570  -15.3980   20.4680 O   0  0  0  0  0  0  0  0  0  0  0  0
  -23.6340  -12.8520   22.2950 H   0  0  0  0  0  0  0  0  0  0  0  0
  -22.5360  -14.1940   22.1740 H   0  0  0  0  0  0  0  0  0  0  0  0
  -26.9790  -15.5000   19.9660 N   0  0  0  0  0  0  0  0  0  0  0  0
  -26.3050  -16.2530   20.0490 H   0  0  0  0  0  0  0  0  0  0  0  0
  -27.7900  -15.7580   19.4210 H   0  0  0  0  0  0  0  0  0  0  0  0
  1  2  1  0
  1 53  1  0
  2  4  1  0
  3  1  2  0
  5  2  1  0
  6  7  1  0
  6  5  1  0
  7  9  1  0
  7  8  1  0
 10 11  1  0
 10  7  1  0
 12 14  1  0
 12 11  1  0
 13 24  2  0
 14 19  1  0
 15 23  1  0
 15 25  1  0
 16 22  1  0
 16 18  1  0
 17 23  1  0
 18 17  1  0
 19 18  2  0
 20 21  1  0
 20 14  2  0
 21 16  2  0
 22 15  1  0
 23 13  1  0
 25 27  2  0
 26 25  1  0
 28 26  1  0
 29 38  2  0
 29 34  1  0
 30 26  1  0
 30 34  1  0
 31 30  1  0
 32 33  1  0
 32 31  1  0
 33 29  1  0
 34 35  2  0
 35 36  1  0
 37 36  2  0
 38 37  1  0
 39 13  1  0
 39 44  1  0
 39 40  1  0
 40 43  1  1
 40 41  1  0
 42 40  1  0
 44 47  1  0
 45 44  1  0
 45 49  1  0
 46 45  2  0
 49 48  1  0
 51 49  1  0
 51 52  1  0
 51 50  1  0
 54 53  1  0
 55 54  1  0
 55 57  1  0
 56 55  1  0
 58 59  1  0
 58 55  1  0
 59 68  1  0
 60 66  1  0
 60 68  1  0
 61 66  1  0
 62 63  1  0
 62 61  1  0
 64 63  1  0
 64 73  1  0
 64 65  1  0
 66 65  1  0
 67 60  2  0
 68 69  1  0
 70 71  2  0
 71 90  1  0
 72 71  1  0
 72 75  1  0
 73 74  1  0
 73 70  1  0
 74 72  2  0
 75 76  1  0
 76 77  2  0
 78 81  1  0
 78 77  1  0
 79 78  2  0
 80 79  1  0
 80 75  2  0
 81 82  1  0
 82 87  2  0
 82 83  1  0
 83 84  2  0
 84 85  1  0
 85 89  1  0
 86 85  2  0
 87 86  1  0
 88 87  1  0
 90 91  1  0
 91 94  1  0
 91 93  1  0
 92 90  2  0
 95 96  1  0
 95 70  1  0
 97 95  1  0
M  ISO  4  11 101  12 101  60 100  68 100
M  END
>  <TORSDO>  (24) 
F 26

>  <SCORE>  (24) 
-7.891

>  <name>  (24) 
23

>  <ligand_id>  (24) 
23

>  <original_smiles>  (24) 
[H]c1c([H])c([H])c2c(c1[H])C([H])([H])C([H])([H])C([H])([H])C2([H])N([H])C(=O)C1([H])N(C(=O)C([H])(N([H])C(=O)C([H])(N([H])C([H])([H])[H])C([H])([H])[H])C(C([H])([H])[H])(C([H])([H])[H])C([H])([H])[H])C([H])([H])c2c([H])c(OC([H])([H])C([H])([H])[N+]([H])([H])C([H])([H])C([H])([H])N([H])C(=O)C([H])([H])C([H])([H])[N+]([H])([H])C([H])([H])C([H])([H])N([H])C(=O)N3C([H])([H])C([H])([H])C([H])([H])C([H])(n4nc(-c5c([H])c([H])c(Oc6c([H])c([H])c(F)c([H])c6F)c([H])c5[H])c(C(=O)N([H])[H])c4N([H])[H])C3([H])[H])c([H])c([H])c2C1([H])[H]

>  <smiles>  (24) 
[H]c1c([H])c([H])c2c(c1[H])C([H])([H])C([H])([H])C([H])([H])C2([H])N([H])C(=O)C1([H])N(C(=O)C([H])(N([H])C(=O)C([H])(N([H])C([H])([H])[H])C([H])([H])[H])C(C([H])([H])[H])(C([H])([H])[H])C([H])([H])[H])C([H])([H])c2c([H])c(OC([H])([H])C([H])([H])[N+]([H])([H])C([H])([H])C([H])([H])N([H])C(=O)C([H])([H])C([H])([H])[N+]([H])([H])C([H])([H])C([H])([H])N([H])C(=O)N3C([H])([H])C([H])([H])C([H])([H])C([H])(n4nc(-c5c([H])c([H])c(Oc6c([H])c([H])c(F)c([H])c6F)c([H])c5[H])c(C(=O)N([H])[H])c4N([H])[H])C3([H])[H])c([H])c([H])c2C1([H])[H]

$$$$
24:0:0
     RDKit          3D

 97104  0  0  1  0  0  0  0  0999 V2000
  -24.4150  -23.1910   19.8270 C   0  0  0  0  0  2  0  0  0  0  0  0
  -25.1860  -23.2670   21.1600 C   0  0  0  0  0  2  0  0  0  0  0  0
  -26.7110  -23.1230   21.0300 C   0  0  0  0  0  2  0  0  0  0  0  0
  -28.3520  -24.6930   20.0150 C   0  0  0  0  0  0  0  0  0  0  0  0
  -27.2160  -23.9860   19.9680 N   0  0  0  0  0  0  0  0  0  0  0  0
  -29.1670  -24.5860   20.9360 O   0  0  0  0  0  0  0  0  0  0  0  0
  -26.6220  -24.1220   19.1620 H   0  0  0  0  0  0  0  0  0  0  0  0
  -28.5900  -25.7020   18.8820 C   0  0  0  0  0  2  0  0  0  0  0  0
  -28.5270  -27.0370   19.3910 O   0  0  0  0  0  0  0  0  0  0  0  0
  -24.6970  -31.6410   23.1810 C   0  0  0  0  0  0  0  0  0  0  0  0
  -27.3100  -27.6780   19.4980 C   0  0  0  0  0  0  0  0  0  0  0  0
  -23.4610  -30.4480   21.4000 C   0  0  0  0  0  3  0  0  0  0  0  0
  -24.8920  -29.1170   19.7640 C   0  0  0  0  0  0  0  0  0  0  0  0
  -25.9760  -30.8610   21.1920 C   0  0  0  0  0  2  0  0  0  0  0  0
  -26.0550  -29.5830   20.3850 C   0  0  0  0  0  0  0  0  0  0  0  0
  -27.2650  -28.8710   20.2490 C   0  0  0  0  0  3  0  0  0  0  0  0
  -26.1230  -27.2150   18.8800 C   0  0  0  0  0  3  0  0  0  0  0  0
  -24.9190  -27.9290   19.0150 C   0  0  0  0  0  3  0  0  0  0  0  0
  -23.6420  -29.9480   19.9420 C   0  0  0  0  0  2  0  0  0  0  0  0
  -24.7300  -30.9900   21.9840 N   0  0  0  0  0  0  0  0  0  0  0  0
  -23.6270  -31.8340   23.7740 O   0  0  0  0  0  0  0  0  0  0  0  0
  -22.8390  -29.3080   22.2360 C   0  0  0  0  0  0  0  0  0  0  0  0
  -21.5140  -29.1350   22.1160 N   0  0  0  0  0  0  0  0  0  0  0  0
  -23.5450  -28.5890   22.9480 O   0  0  0  0  0  0  0  0  0  0  0  0
  -21.0050  -29.7640   21.5110 H   0  0  0  0  0  0  0  0  0  0  0  0
  -18.1540  -27.8850   22.5490 C   0  0  0  0  0  0  0  0  0  0  0  0
  -20.7190  -28.1030   22.7800 C   0  0  0  0  0  3  0  0  0  0  0  0
  -20.8010  -26.7640   22.0150 C   0  0  0  0  0  2  0  0  0  0  0  0
  -19.6690  -26.5790   20.9970 C   0  0  0  0  0  2  0  0  0  0  0  0
  -18.3070  -26.6370   21.6940 C   0  0  0  0  0  2  0  0  0  0  0  0
  -19.2880  -28.5820   23.0450 C   0  0  0  0  0  0  0  0  0  0  0  0
  -19.0940  -29.7530   23.8070 C   0  0  0  0  0  3  0  0  0  0  0  0
  -17.8000  -30.2310   24.0780 C   0  0  0  0  0  3  0  0  0  0  0  0
  -16.6780  -29.5300   23.5990 C   0  0  0  0  0  3  0  0  0  0  0  0
  -16.8570  -28.3570   22.8430 C   0  0  0  0  0  3  0  0  0  0  0  0
  -25.9950  -32.1940   23.8490 C   0  0  0  0  0  3  0  0  0  0  0  0
  -25.6920  -33.5400   24.3510 N   0  0  0  0  0  0  0  0  0  0  0  0
  -25.9860  -34.6760   23.7040 C   0  0  0  0  0  0  0  0  0  0  0  0
  -26.6170  -34.6990   22.6430 O   0  0  0  0  0  0  0  0  0  0  0  0
  -25.1270  -33.5950   25.1870 H   0  0  0  0  0  0  0  0  0  0  0  0
  -24.2200  -36.4660   23.6390 C   0  0  0  0  0  1  0  0  0  0  0  0
  -25.5070  -35.9970   24.3360 C   0  0  0  0  0  3  0  0  0  0  0  0
  -27.6610  -36.8320   25.1630 C   0  0  0  0  0  1  0  0  0  0  0  0
  -26.5170  -37.0750   24.2890 N   0  0  0  0  0  0  0  0  0  0  0  0
  -26.1030  -37.9680   24.5430 H   0  0  0  0  0  0  0  0  0  0  0  0
  -26.5410  -31.2730   25.0100 C   0  0  1  0  0  0  0  0  0  0  0  0
  -25.4730  -30.9040   26.0640 C   0  0  0  0  0  1  0  0  0  0  0  0
  -27.1160  -29.9560   24.4360 C   0  0  0  0  0  1  0  0  0  0  0  0
  -27.7050  -31.9850   25.7410 C   0  0  0  0  0  1  0  0  0  0  0  0
  -24.3620  -21.7820   19.2220 C   0  0  0  0  0  2  0  0  0  0  0  0
  -25.5940  -21.4470   18.5940 O   0  0  0  0  0  0  0  0  0  0  0  0
  -25.5900  -20.1100   18.1010 C   0  0  0  0  0  2  0  0  0  0  0  0
  -26.9550  -19.7870   17.4850 C   0  0  0  0  0  2  0  0  0  0  0  0
  -28.0060  -19.5300   18.4950 N   0  0  0  0  0  4  0  0  0  0  0  0
  -28.4940  -20.3930   18.6790 H   0  0  0  0  0  0  0  0  0  0  0  0
  -27.5710  -19.2320   19.3550 H   0  0  0  0  0  0  0  0  0  0  0  0
  -28.9810  -18.5050   18.0580 C   0  0  0  0  0  2  0  0  0  0  0  0
  -30.1470  -18.3150   19.0490 C   0  0  0  0  0  2  0  0  0  0  0  0
  -31.1490  -17.2150   18.6350 C   0  0  0  0  0  2  0  0  0  0  0  0
  -31.5350  -14.7820   18.9730 C   0  0  0  0  0  0  0  0  0  0  0  0
  -31.3010  -12.3320   18.8580 C   0  0  0  0  0  2  0  0  0  0  0  0
  -30.2830  -11.9620   17.7600 C   0  0  0  0  0  2  0  0  0  0  0  0
  -28.8440  -11.9820   18.3120 C   0  0  0  0  0  2  0  0  0  0  0  0
  -28.5270  -13.2810   19.1010 C   0  0  0  0  0  3  0  0  0  0  0  0
  -29.6440  -13.5790   20.1260 C   0  0  0  0  0  2  0  0  0  0  0  0
  -30.9270  -13.6460   19.4010 N   0  0  0  0  0  0  0  0  0  0  0  0
  -32.5620  -14.7890   18.2860 O   0  0  0  0  0  0  0  0  0  0  0  0
  -30.8740  -15.9160   19.2520 N   0  0  0  0  0  0  0  0  0  0  0  0
  -30.0660  -15.8240   19.8510 H   0  0  0  0  0  0  0  0  0  0  0  0
  -26.4110  -14.2360   20.2130 C   0  0  0  0  0  0  0  0  0  0  0  0
  -25.2650  -13.6410   20.6630 C   0  0  0  0  0  0  0  0  0  0  0  0
  -25.4250  -12.2430   20.4140 C   0  0  0  0  0  0  0  0  0  0  0  0
  -27.2150  -13.2110   19.7390 N   0  0  0  0  0  0  0  0  0  0  0  0
  -26.6290  -12.0000   19.9090 N   0  0  0  0  0  0  0  0  0  0  0  0
  -24.4810  -11.1310   20.5670 C   0  0  0  0  0  0  0  0  0  0  0  0
  -24.8630   -9.9210   21.1900 C   0  0  0  0  0  3  0  0  0  0  0  0
  -23.9330   -8.8710   21.3410 C   0  0  0  0  0  3  0  0  0  0  0  0
  -22.6070   -9.0240   20.8720 C   0  0  0  0  0  0  0  0  0  0  0  0
  -22.2390  -10.2220   20.2340 C   0  0  0  0  0  3  0  0  0  0  0  0
  -23.1670  -11.2640   20.0790 C   0  0  0  0  0  3  0  0  0  0  0  0
  -21.6430   -8.0480   20.9540 O   0  0  0  0  0  0  0  0  0  0  0  0
  -21.5910   -7.1740   22.0100 C   0  0  0  0  0  0  0  0  0  0  0  0
  -21.4690   -7.6230   23.3430 C   0  0  0  0  0  3  0  0  0  0  0  0
  -21.3490   -6.6900   24.3920 C   0  0  0  0  0  3  0  0  0  0  0  0
  -21.3430   -5.3110   24.1100 C   0  0  0  0  0  0  0  0  0  0  0  0
  -21.4590   -4.8610   22.7830 C   0  0  0  0  0  3  0  0  0  0  0  0
  -21.5800   -5.7920   21.7350 C   0  0  0  0  0  0  0  0  0  0  0  0
  -21.6700   -5.3540   20.4560 F   0  0  0  0  0  0  0  0  0  0  0  0
  -21.2210   -4.4140   25.1160 F   0  0  0  0  0  0  0  0  0  0  0  0
  -24.0450  -14.3350   21.1960 C   0  0  0  0  0  0  0  0  0  0  0  0
  -23.2600  -13.6490   22.0190 N   0  0  0  0  0  0  0  0  0  0  0  0
  -23.8090  -15.5110   20.9240 O   0  0  0  0  0  0  0  0  0  0  0  0
  -23.4630  -12.6900   22.2600 H   0  0  0  0  0  0  0  0  0  0  0  0
  -22.4410  -14.0910   22.4150 H   0  0  0  0  0  0  0  0  0  0  0  0
  -26.8260  -15.5610   20.1370 N   0  0  0  0  0  0  0  0  0  0  0  0
  -26.1160  -16.2770   20.2420 H   0  0  0  0  0  0  0  0  0  0  0  0
  -27.5520  -15.8220   19.4850 H   0  0  0  0  0  0  0  0  0  0  0  0
  1  2  1  0
  3  2  1  0
  4  6  2  0
  5  4  1  0
  5  3  1  0
  7  5  1  0
  8  9  1  0
  8  4  1  0
  9 11  1  0
 10 21  2  0
 11 16  1  0
 12 20  1  0
 12 22  1  0
 13 19  1  0
 13 15  1  0
 14 20  1  0
 15 14  1  0
 16 15  2  0
 17 18  1  0
 17 11  2  0
 18 13  2  0
 19 12  1  0
 20 10  1  0
 22 24  2  0
 23 22  1  0
 25 23  1  0
 26 35  2  0
 26 31  1  0
 27 23  1  0
 27 31  1  0
 28 27  1  0
 29 30  1  0
 29 28  1  0
 30 26  1  0
 31 32  2  0
 32 33  1  0
 34 33  2  0
 35 34  1  0
 36 10  1  0
 36 37  1  0
 36 46  1  0
 37 40  1  0
 38 42  1  0
 38 37  1  0
 39 38  2  0
 42 41  1  0
 44 42  1  0
 44 45  1  0
 44 43  1  0
 46 49  1  1
 46 47  1  0
 48 46  1  0
 50  1  1  0
 51 50  1  0
 52 51  1  0
 53 52  1  0
 53 54  1  0
 54 55  1  0
 54 56  1  0
 57 54  1  0
 57 58  1  0
 59 58  1  0
 59 68  1  0
 60 68  1  0
 60 66  1  0
 61 66  1  0
 62 63  1  0
 62 61  1  0
 64 63  1  0
 64 73  1  0
 64 65  1  0
 66 65  1  0
 67 60  2  0
 68 69  1  0
 70 71  2  0
 71 90  1  0
 72 75  1  0
 72 71  1  0
 73 74  1  0
 73 70  1  0
 74 72  2  0
 75 76  1  0
 76 77  2  0
 78 81  1  0
 78 77  1  0
 79 78  2  0
 80 79  1  0
 80 75  2  0
 81 82  1  0
 82 83  1  0
 83 84  2  0
 85 84  1  0
 85 89  1  0
 86 85  2  0
 87 82  2  0
 87 86  1  0
 88 87  1  0
 90 91  1  0
 91 93  1  0
 91 94  1  0
 92 90  2  0
 95 70  1  0
 95 96  1  0
 97 95  1  0
M  ISO  4   8 101   9 101  60 100  68 100
M  END
>  <TORSDO>  (25) 
F 28

>  <SCORE>  (25) 
-9.130

>  <name>  (25) 
24

>  <ligand_id>  (25) 
24

>  <original_smiles>  (25) 
[H]c1c([H])c([H])c2c(c1[H])C([H])([H])C([H])([H])C([H])([H])C2([H])N([H])C(=O)C1([H])N(C(=O)C([H])(N([H])C(=O)C([H])(N([H])C([H])([H])[H])C([H])([H])[H])C(C([H])([H])[H])(C([H])([H])[H])C([H])([H])[H])C([H])([H])c2c([H])c(OC([H])([H])C(=O)N([H])C([H])([H])C([H])([H])C([H])([H])C([H])([H])OC([H])([H])C([H])([H])[N+]([H])([H])C([H])([H])C([H])([H])C([H])([H])N([H])C(=O)N3C([H])([H])C([H])([H])C([H])([H])C([H])(n4nc(-c5c([H])c([H])c(Oc6c([H])c([H])c(F)c([H])c6F)c([H])c5[H])c(C(=O)N([H])[H])c4N([H])[H])C3([H])[H])c([H])c([H])c2C1([H])[H]

>  <smiles>  (25) 
[H]c1c([H])c([H])c2c(c1[H])C([H])([H])C([H])([H])C([H])([H])C2([H])N([H])C(=O)C1([H])N(C(=O)C([H])(N([H])C(=O)C([H])(N([H])C([H])([H])[H])C([H])([H])[H])C(C([H])([H])[H])(C([H])([H])[H])C([H])([H])[H])C([H])([H])c2c([H])c(OC([H])([H])C(=O)N([H])C([H])([H])C([H])([H])C([H])([H])C([H])([H])OC([H])([H])C([H])([H])[N+]([H])([H])C([H])([H])C([H])([H])C([H])([H])N([H])C(=O)N3C([H])([H])C([H])([H])C([H])([H])C([H])(n4nc(-c5c([H])c([H])c(Oc6c([H])c([H])c(F)c([H])c6F)c([H])c5[H])c(C(=O)N([H])[H])c4N([H])[H])C3([H])[H])c([H])c([H])c2C1([H])[H]

$$$$
25:0:0
     RDKit          3D

 94101  0  0  1  0  0  0  0  0999 V2000
  -31.3810  -23.3280   22.3340 C   0  0  0  0  0  2  0  0  0  0  0  0
  -30.6650  -21.3020   21.0680 C   0  0  0  0  0  0  0  0  0  0  0  0
  -30.5940  -22.1090   22.1330 N   0  0  0  0  0  0  0  0  0  0  0  0
  -31.2400  -21.6390   20.0320 O   0  0  0  0  0  0  0  0  0  0  0  0
  -30.0890  -21.7610   22.9370 H   0  0  0  0  0  0  0  0  0  0  0  0
  -30.0250  -20.0180   21.3120 C   0  0  0  0  0  3  0  0  0  0  0  0
  -30.2280  -18.9840   20.4720 C   0  0  0  0  0  3  0  0  0  0  0  0
  -29.6450  -17.5880   20.6290 C   0  0  0  0  0  2  0  0  0  0  0  0
  -30.7530  -16.5190   20.6770 C   0  0  0  0  0  2  0  0  0  0  0  0
  -30.7410  -14.1580   19.9050 C   0  0  0  0  0  0  0  0  0  0  0  0
  -30.3570  -11.9270   18.9330 C   0  0  0  0  0  2  0  0  0  0  0  0
  -29.3320  -12.0170   17.7870 C   0  0  0  0  0  2  0  0  0  0  0  0
  -27.8960  -11.9000   18.3330 C   0  0  0  0  0  2  0  0  0  0  0  0
  -27.6340  -12.8450   19.5360 C   0  0  0  0  0  3  0  0  0  0  0  0
  -28.7650  -12.7380   20.5830 C   0  0  0  0  0  2  0  0  0  0  0  0
  -30.0490  -12.9900   19.9030 N   0  0  0  0  0  0  0  0  0  0  0  0
  -31.7620  -14.3320   19.2320 O   0  0  0  0  0  0  0  0  0  0  0  0
  -30.2210  -15.1530   20.6380 N   0  0  0  0  0  0  0  0  0  0  0  0
  -29.3900  -14.9480   21.1730 H   0  0  0  0  0  0  0  0  0  0  0  0
  -25.3270  -13.5020   20.4750 C   0  0  0  0  0  0  0  0  0  0  0  0
  -24.2750  -12.7490   20.9260 C   0  0  0  0  0  0  0  0  0  0  0  0
  -24.6920  -11.3870   20.8240 C   0  0  0  0  0  0  0  0  0  0  0  0
  -26.3210  -12.5980   20.1310 N   0  0  0  0  0  0  0  0  0  0  0  0
  -25.9460  -11.3200   20.3960 N   0  0  0  0  0  0  0  0  0  0  0  0
  -23.9510  -10.1410   21.0550 C   0  0  0  0  0  0  0  0  0  0  0  0
  -24.3690   -9.2030   22.0260 C   0  0  0  0  0  3  0  0  0  0  0  0
  -23.6290   -8.0200   22.2420 C   0  0  0  0  0  3  0  0  0  0  0  0
  -22.4580   -7.7680   21.4910 C   0  0  0  0  0  0  0  0  0  0  0  0
  -22.0580   -8.6940   20.5110 C   0  0  0  0  0  3  0  0  0  0  0  0
  -22.7980   -9.8680   20.2920 C   0  0  0  0  0  3  0  0  0  0  0  0
  -21.6920   -6.6340   21.6150 O   0  0  0  0  0  0  0  0  0  0  0  0
  -21.5420   -5.9950   22.8190 C   0  0  0  0  0  0  0  0  0  0  0  0
  -20.9430   -6.6280   23.9290 C   0  0  0  0  0  3  0  0  0  0  0  0
  -20.7450   -5.9120   25.1260 C   0  0  0  0  0  3  0  0  0  0  0  0
  -21.1350   -4.5620   25.2130 C   0  0  0  0  0  0  0  0  0  0  0  0
  -21.7260   -3.9280   24.1060 C   0  0  0  0  0  3  0  0  0  0  0  0
  -21.9260   -4.6420   22.9120 C   0  0  0  0  0  0  0  0  0  0  0  0
  -22.4770   -4.0190   21.8420 F   0  0  0  0  0  0  0  0  0  0  0  0
  -20.9380   -3.8700   26.3600 F   0  0  0  0  0  0  0  0  0  0  0  0
  -22.9250  -13.2580   21.3400 C   0  0  0  0  0  0  0  0  0  0  0  0
  -22.2570  -12.5560   22.2500 N   0  0  0  0  0  0  0  0  0  0  0  0
  -22.4730  -14.3110   20.8920 O   0  0  0  0  0  0  0  0  0  0  0  0
  -22.6380  -11.7050   22.6340 H   0  0  0  0  0  0  0  0  0  0  0  0
  -21.3520  -12.8770   22.5660 H   0  0  0  0  0  0  0  0  0  0  0  0
  -25.5150  -14.8710   20.3110 N   0  0  0  0  0  0  0  0  0  0  0  0
  -24.7830  -15.5440   20.5070 H   0  0  0  0  0  0  0  0  0  0  0  0
  -26.3510  -15.2940   19.9270 H   0  0  0  0  0  0  0  0  0  0  0  0
  -30.5830  -24.6320   22.1450 C   0  0  0  0  0  2  0  0  0  0  0  0
  -30.0620  -24.8070   20.7730 N   0  0  0  0  0  4  0  0  0  0  0  0
  -30.5820  -24.2110   20.1460 H   0  0  0  0  0  0  0  0  0  0  0  0
  -30.2480  -25.7610   20.5040 H   0  0  0  0  0  0  0  0  0  0  0  0
  -28.6080  -24.5790   20.6150 C   0  0  0  0  0  2  0  0  0  0  0  0
  -28.0790  -25.2070   19.3190 C   0  0  0  0  0  2  0  0  0  0  0  0
  -28.1680  -26.6360   19.4290 O   0  0  0  0  0  0  0  0  0  0  0  0
  -24.6170  -31.5730   23.1140 C   0  0  0  0  0  0  0  0  0  0  0  0
  -27.0010  -27.3670   19.5340 C   0  0  0  0  0  0  0  0  0  0  0  0
  -23.3100  -30.3750   21.3900 C   0  0  0  0  0  3  0  0  0  0  0  0
  -24.6590  -28.9370   19.7780 C   0  0  0  0  0  0  0  0  0  0  0  0
  -25.8380  -30.6690   21.1390 C   0  0  0  0  0  2  0  0  0  0  0  0
  -25.8540  -29.3630   20.3720 C   0  0  0  0  0  0  0  0  0  0  0  0
  -27.0250  -28.5850   20.2500 C   0  0  0  0  0  3  0  0  0  0  0  0
  -25.7900  -26.9670   18.9190 C   0  0  0  0  0  3  0  0  0  0  0  0
  -24.6220  -27.7360   19.0510 C   0  0  0  0  0  3  0  0  0  0  0  0
  -23.4490  -29.8250   19.9460 C   0  0  0  0  0  2  0  0  0  0  0  0
  -24.6090  -30.8800   21.9400 N   0  0  0  0  0  0  0  0  0  0  0  0
  -23.5630  -31.8260   23.7140 O   0  0  0  0  0  0  0  0  0  0  0  0
  -22.6550  -29.2860   22.2700 C   0  0  0  0  0  0  0  0  0  0  0  0
  -21.3210  -29.1590   22.1720 N   0  0  0  0  0  0  0  0  0  0  0  0
  -23.3420  -28.5630   22.9970 O   0  0  0  0  0  0  0  0  0  0  0  0
  -20.8300  -29.7940   21.5590 H   0  0  0  0  0  0  0  0  0  0  0  0
  -17.9210  -28.0600   22.6970 C   0  0  0  0  0  0  0  0  0  0  0  0
  -20.4970  -28.1780   22.8760 C   0  0  0  0  0  3  0  0  0  0  0  0
  -20.5080  -26.8140   22.1480 C   0  0  0  0  0  2  0  0  0  0  0  0
  -19.3510  -26.6480   21.1590 C   0  0  0  0  0  2  0  0  0  0  0  0
  -18.0060  -26.7830   21.8780 C   0  0  0  0  0  2  0  0  0  0  0  0
  -19.0910  -28.7220   23.1530 C   0  0  0  0  0  0  0  0  0  0  0  0
  -18.9580  -29.9250   23.8810 C   0  0  0  0  0  3  0  0  0  0  0  0
  -17.6870  -30.4630   24.1560 C   0  0  0  0  0  3  0  0  0  0  0  0
  -16.5320  -29.7940   23.7170 C   0  0  0  0  0  3  0  0  0  0  0  0
  -16.6490  -28.5940   22.9930 C   0  0  0  0  0  3  0  0  0  0  0  0
  -25.9440  -32.0980   23.7440 C   0  0  0  0  0  3  0  0  0  0  0  0
  -25.7140  -33.4870   24.1610 N   0  0  0  0  0  0  0  0  0  0  0  0
  -26.1130  -34.5640   23.4700 C   0  0  0  0  0  0  0  0  0  0  0  0
  -26.7850  -34.4840   22.4370 O   0  0  0  0  0  0  0  0  0  0  0  0
  -25.1200  -33.6270   24.9650 H   0  0  0  0  0  0  0  0  0  0  0  0
  -24.5090  -36.4810   23.2010 C   0  0  0  0  0  1  0  0  0  0  0  0
  -25.7020  -35.9460   24.0090 C   0  0  0  0  0  3  0  0  0  0  0  0
  -27.8580  -36.6470   24.9550 C   0  0  0  0  0  1  0  0  0  0  0  0
  -26.8010  -36.9360   23.9890 N   0  0  0  0  0  0  0  0  0  0  0  0
  -26.4480  -37.8720   24.1750 H   0  0  0  0  0  0  0  0  0  0  0  0
  -26.4430  -31.2250   24.9600 C   0  0  1  0  0  0  0  0  0  0  0  0
  -25.3570  -30.9770   26.0330 C   0  0  0  0  0  1  0  0  0  0  0  0
  -26.9510  -29.8480   24.4720 C   0  0  0  0  0  1  0  0  0  0  0  0
  -27.6430  -31.9190   25.6450 C   0  0  0  0  0  1  0  0  0  0  0  0
  2  6  1  0
  2  3  1  0
  3  1  1  0
  3  5  1  0
  4  2  2  0
  7  8  1  0
  7  6  2  0
  8  9  1  0
 10 18  1  0
 11 16  1  0
 12 13  1  0
 12 11  1  0
 14 13  1  0
 14 23  1  0
 14 15  1  0
 16 10  1  0
 16 15  1  0
 17 10  2  0
 18  9  1  0
 18 19  1  0
 20 21  2  0
 21 40  1  0
 22 21  1  0
 22 25  1  0
 23 24  1  0
 23 20  1  0
 24 22  2  0
 25 26  1  0
 26 27  2  0
 28 31  1  0
 28 27  1  0
 29 28  2  0
 30 29  1  0
 30 25  2  0
 31 32  1  0
 32 37  2  0
 32 33  1  0
 33 34  2  0
 34 35  1  0
 35 39  1  0
 36 35  2  0
 37 36  1  0
 38 37  1  0
 40 41  1  0
 41 44  1  0
 41 43  1  0
 42 40  2  0
 45 20  1  0
 45 46  1  0
 47 45  1  0
 48  1  1  0
 49 48  1  0
 50 49  1  0
 51 49  1  0
 52 49  1  0
 53 54  1  0
 53 52  1  0
 54 56  1  0
 55 66  2  0
 56 61  1  0
 57 65  1  0
 57 67  1  0
 58 64  1  0
 58 60  1  0
 59 65  1  0
 60 59  1  0
 61 60  2  0
 62 63  1  0
 62 56  2  0
 63 58  2  0
 64 57  1  0
 65 55  1  0
 67 69  2  0
 68 67  1  0
 70 68  1  0
 71 80  2  0
 71 76  1  0
 72 68  1  0
 72 76  1  0
 73 72  1  0
 74 75  1  0
 74 73  1  0
 75 71  1  0
 76 77  2  0
 77 78  1  0
 79 78  2  0
 80 79  1  0
 81 55  1  0
 81 82  1  0
 81 91  1  0
 82 85  1  0
 83 87  1  0
 83 82  1  0
 84 83  2  0
 87 86  1  0
 89 87  1  0
 89 90  1  0
 89 88  1  0
 91 94  1  1
 91 92  1  0
 93 91  1  0
M  ISO  4  10 100  18 100  53 101  54 101
M  END
>  <TORSDO>  (26) 
F 24

>  <SCORE>  (26) 
-9.957

>  <name>  (26) 
25

>  <ligand_id>  (26) 
25

>  <original_smiles>  (26) 
[H]C(C(=O)N([H])C([H])([H])C([H])([H])[N+]([H])([H])C([H])([H])C([H])([H])Oc1c([H])c([H])c2c(c1[H])C([H])([H])N(C(=O)C([H])(N([H])C(=O)C([H])(N([H])C([H])([H])[H])C([H])([H])[H])C(C([H])([H])[H])(C([H])([H])[H])C([H])([H])[H])C([H])(C(=O)N([H])C1([H])c3c([H])c([H])c([H])c([H])c3C([H])([H])C([H])([H])C1([H])[H])C2([H])[H])=C([H])C([H])([H])C([H])([H])N([H])C(=O)N1C([H])([H])C([H])([H])C([H])([H])C([H])(n2nc(-c3c([H])c([H])c(Oc4c([H])c([H])c(F)c([H])c4F)c([H])c3[H])c(C(=O)N([H])[H])c2N([H])[H])C1([H])[H]

>  <smiles>  (26) 
[H]C(C(=O)N([H])C([H])([H])C([H])([H])[N+]([H])([H])C([H])([H])C([H])([H])Oc1c([H])c([H])c2c(c1[H])C([H])([H])N(C(=O)C([H])(N([H])C(=O)C([H])(N([H])C([H])([H])[H])C([H])([H])[H])C(C([H])([H])[H])(C([H])([H])[H])C([H])([H])[H])C([H])(C(=O)N([H])C1([H])c3c([H])c([H])c([H])c([H])c3C([H])([H])C([H])([H])C1([H])[H])C2([H])[H])=C([H])C([H])([H])C([H])([H])N([H])C(=O)N1C([H])([H])C([H])([H])C([H])([H])C([H])(n2nc(-c3c([H])c([H])c(Oc4c([H])c([H])c(F)c([H])c4F)c([H])c3[H])c(C(=O)N([H])[H])c2N([H])[H])C1([H])[H]

$$$$
26:0:0
     RDKit          3D

 89 96  0  0  1  0  0  0  0  0999 V2000
  -29.3040  -21.7940   20.7680 C   0  0  0  0  0  2  0  0  0  0  0  0
  -29.2340  -20.4210   20.1920 N   0  0  0  0  0  4  0  0  0  0  0  0
  -29.6640  -20.4280   19.2820 H   0  0  0  0  0  0  0  0  0  0  0  0
  -28.2640  -20.1820   20.0710 H   0  0  0  0  0  0  0  0  0  0  0  0
  -29.8940  -19.3700   21.0170 C   0  0  0  0  0  2  0  0  0  0  0  0
  -29.6000  -17.9110   20.5590 C   0  0  0  0  0  2  0  0  0  0  0  0
  -30.3930  -16.8460   21.3670 C   0  0  0  0  0  2  0  0  0  0  0  0
  -30.6750  -14.4820   20.4980 C   0  0  0  0  0  0  0  0  0  0  0  0
  -30.3900  -12.3340   19.3100 C   0  0  0  0  0  2  0  0  0  0  0  0
  -29.4420  -12.5410   18.1100 C   0  0  0  0  0  2  0  0  0  0  0  0
  -27.9680  -12.4030   18.5400 C   0  0  0  0  0  2  0  0  0  0  0  0
  -27.6340  -13.2330   19.8080 C   0  0  0  0  0  3  0  0  0  0  0  0
  -28.6860  -12.9880   20.9130 C   0  0  0  0  0  2  0  0  0  0  0  0
  -30.0110  -13.3040   20.3490 N   0  0  0  0  0  0  0  0  0  0  0  0
  -31.7930  -14.6900   20.0170 O   0  0  0  0  0  0  0  0  0  0  0  0
  -29.9730  -15.4590   21.1030 N   0  0  0  0  0  0  0  0  0  0  0  0
  -29.0630  -15.1870   21.4450 H   0  0  0  0  0  0  0  0  0  0  0  0
  -25.2320  -13.8500   20.4980 C   0  0  0  0  0  0  0  0  0  0  0  0
  -24.1610  -13.0810   20.8670 C   0  0  0  0  0  0  0  0  0  0  0  0
  -24.6220  -11.7290   20.8500 C   0  0  0  0  0  0  0  0  0  0  0  0
  -26.2780  -12.9660   20.2800 N   0  0  0  0  0  0  0  0  0  0  0  0
  -25.9130  -11.6860   20.5490 N   0  0  0  0  0  0  0  0  0  0  0  0
  -23.8940  -10.4680   21.0450 C   0  0  0  0  0  0  0  0  0  0  0  0
  -24.3350   -9.4990   21.9730 C   0  0  0  0  0  3  0  0  0  0  0  0
  -23.6090   -8.3020   22.1560 C   0  0  0  0  0  3  0  0  0  0  0  0
  -22.4290   -8.0670   21.4120 C   0  0  0  0  0  0  0  0  0  0  0  0
  -22.0070   -9.0260   20.4730 C   0  0  0  0  0  3  0  0  0  0  0  0
  -22.7340  -10.2140   20.2880 C   0  0  0  0  0  3  0  0  0  0  0  0
  -21.6740   -6.9230   21.5040 O   0  0  0  0  0  0  0  0  0  0  0  0
  -21.6450   -6.1710   22.6510 C   0  0  0  0  0  0  0  0  0  0  0  0
  -21.2550   -6.7180   23.8920 C   0  0  0  0  0  3  0  0  0  0  0  0
  -21.1730   -5.8930   25.0320 C   0  0  0  0  0  3  0  0  0  0  0  0
  -21.4710   -4.5210   24.9300 C   0  0  0  0  0  0  0  0  0  0  0  0
  -21.8550   -3.9730   23.6940 C   0  0  0  0  0  3  0  0  0  0  0  0
  -21.9390   -4.7960   22.5560 C   0  0  0  0  0  0  0  0  0  0  0  0
  -22.2890   -4.2580   21.3630 F   0  0  0  0  0  0  0  0  0  0  0  0
  -21.3860   -3.7250   26.0230 F   0  0  0  0  0  0  0  0  0  0  0  0
  -22.7630  -13.5610   21.1310 C   0  0  0  0  0  0  0  0  0  0  0  0
  -22.0320  -12.8710   21.9980 N   0  0  0  0  0  0  0  0  0  0  0  0
  -22.3270  -14.5830   20.6020 O   0  0  0  0  0  0  0  0  0  0  0  0
  -22.3970  -12.0440   22.4470 H   0  0  0  0  0  0  0  0  0  0  0  0
  -21.0930  -13.1750   22.2190 H   0  0  0  0  0  0  0  0  0  0  0  0
  -25.3990  -15.2190   20.3110 N   0  0  0  0  0  0  0  0  0  0  0  0
  -24.6330  -15.8760   20.4080 H   0  0  0  0  0  0  0  0  0  0  0  0
  -26.2510  -15.6510   19.9720 H   0  0  0  0  0  0  0  0  0  0  0  0
  -28.8280  -22.9140   19.8000 C   0  0  0  0  0  2  0  0  0  0  0  0
  -28.7280  -24.3180   20.4610 C   0  0  0  0  0  2  0  0  0  0  0  0
  -28.6050  -25.4930   19.4610 C   0  0  0  0  0  2  0  0  0  0  0  0
  -28.4420  -26.7560   20.1310 O   0  0  0  0  0  0  0  0  0  0  0  0
  -24.5920  -31.8930   23.2270 C   0  0  0  0  0  0  0  0  0  0  0  0
  -27.2340  -27.4350   20.1360 C   0  0  0  0  0  0  0  0  0  0  0  0
  -23.3830  -30.4910   21.5910 C   0  0  0  0  0  3  0  0  0  0  0  0
  -24.8310  -28.9490   20.1680 C   0  0  0  0  0  0  0  0  0  0  0  0
  -25.9110  -30.8420   21.3900 C   0  0  0  0  0  2  0  0  0  0  0  0
  -25.9920  -29.4710   20.7500 C   0  0  0  0  0  0  0  0  0  0  0  0
  -27.1920  -28.7200   20.7300 C   0  0  0  0  0  3  0  0  0  0  0  0
  -26.0390  -26.9190   19.5780 C   0  0  0  0  0  3  0  0  0  0  0  0
  -24.8490  -27.6720   19.5860 C   0  0  0  0  0  3  0  0  0  0  0  0
  -23.5900  -29.8110   20.2130 C   0  0  0  0  0  2  0  0  0  0  0  0
  -24.6470  -31.0910   22.1270 N   0  0  0  0  0  0  0  0  0  0  0  0
  -23.5110  -32.1670   23.7680 O   0  0  0  0  0  0  0  0  0  0  0  0
  -22.7340  -29.4680   22.5520 C   0  0  0  0  0  0  0  0  0  0  0  0
  -21.4080  -29.2870   22.4280 N   0  0  0  0  0  0  0  0  0  0  0  0
  -23.4190  -28.8420   23.3650 O   0  0  0  0  0  0  0  0  0  0  0  0
  -20.9170  -29.8430   21.7430 H   0  0  0  0  0  0  0  0  0  0  0  0
  -18.0330  -28.1050   22.9370 C   0  0  0  0  0  0  0  0  0  0  0  0
  -20.5920  -28.3520   23.2010 C   0  0  0  0  0  3  0  0  0  0  0  0
  -20.6880  -26.9220   22.6220 C   0  0  0  0  0  2  0  0  0  0  0  0
  -19.5810  -26.6050   21.6120 C   0  0  0  0  0  2  0  0  0  0  0  0
  -18.2010  -26.7560   22.2600 C   0  0  0  0  0  2  0  0  0  0  0  0
  -19.1560  -28.8620   23.3640 C   0  0  0  0  0  0  0  0  0  0  0  0
  -18.9450  -30.1270   23.9560 C   0  0  0  0  0  3  0  0  0  0  0  0
  -17.6420  -30.6340   24.1250 C   0  0  0  0  0  3  0  0  0  0  0  0
  -16.5340  -29.8730   23.7150 C   0  0  0  0  0  3  0  0  0  0  0  0
  -16.7290  -28.6100   23.1260 C   0  0  0  0  0  3  0  0  0  0  0  0
  -25.8790  -32.5250   23.8440 C   0  0  0  0  0  3  0  0  0  0  0  0
  -26.4040  -31.7510   25.1150 C   0  0  1  0  0  0  0  0  0  0  0  0
  -25.3170  -31.5050   26.1870 C   0  0  0  0  0  1  0  0  0  0  0  0
  -26.9900  -30.3760   24.7150 C   0  0  0  0  0  1  0  0  0  0  0  0
  -27.5570  -32.5460   25.7730 C   0  0  0  0  0  1  0  0  0  0  0  0
  -25.5680  -33.9200   24.1780 N   0  0  0  0  0  0  0  0  0  0  0  0
  -25.8980  -34.9750   23.4210 C   0  0  0  0  0  0  0  0  0  0  0  0
  -26.5680  -34.8750   22.3890 O   0  0  0  0  0  0  0  0  0  0  0  0
  -24.9690  -34.0710   24.9780 H   0  0  0  0  0  0  0  0  0  0  0  0
  -24.1660  -36.7650   23.0700 C   0  0  0  0  0  1  0  0  0  0  0  0
  -25.4080  -36.3620   23.8810 C   0  0  0  0  0  3  0  0  0  0  0  0
  -27.5420  -37.2450   24.7130 C   0  0  0  0  0  1  0  0  0  0  0  0
  -26.4390  -37.4170   23.7720 N   0  0  0  0  0  0  0  0  0  0  0  0
  -26.0320  -38.3360   23.9250 H   0  0  0  0  0  0  0  0  0  0  0  0
  2  1  1  0
  2  5  1  0
  3  2  1  0
  4  2  1  0
  6  5  1  0
  6  7  1  0
  8 16  1  0
  9 14  1  0
 10 11  1  0
 10  9  1  0
 12 11  1  0
 12 21  1  0
 12 13  1  0
 14  8  1  0
 14 13  1  0
 15  8  2  0
 16  7  1  0
 16 17  1  0
 18 19  2  0
 19 38  1  0
 20 19  1  0
 20 23  1  0
 21 18  1  0
 21 22  1  0
 22 20  2  0
 23 24  1  0
 24 25  2  0
 26 29  1  0
 26 25  1  0
 27 26  2  0
 28 27  1  0
 28 23  2  0
 29 30  1  0
 30 31  1  0
 31 32  2  0
 33 32  1  0
 33 37  1  0
 34 33  2  0
 35 30  2  0
 35 34  1  0
 36 35  1  0
 38 39  1  0
 39 42  1  0
 39 41  1  0
 40 38  2  0
 43 44  1  0
 43 18  1  0
 45 43  1  0
 46 47  1  0
 46  1  1  0
 48 49  1  0
 48 47  1  0
 49 51  1  0
 50 61  2  0
 51 56  1  0
 52 60  1  0
 52 62  1  0
 53 59  1  0
 53 55  1  0
 54 60  1  0
 55 54  1  0
 56 55  2  0
 57 58  1  0
 57 51  2  0
 58 53  2  0
 59 52  1  0
 60 50  1  0
 62 64  2  0
 63 62  1  0
 65 63  1  0
 66 75  2  0
 66 71  1  0
 67 63  1  0
 67 71  1  0
 68 67  1  0
 69 70  1  0
 69 68  1  0
 70 66  1  0
 71 72  2  0
 72 73  1  0
 74 73  2  0
 75 74  1  0
 76 50  1  0
 76 81  1  0
 76 77  1  0
 77 80  1  1
 77 78  1  0
 79 77  1  0
 81 84  1  0
 82 86  1  0
 82 81  1  0
 83 82  2  0
 86 85  1  0
 88 86  1  0
 88 89  1  0
 88 87  1  0
M  ISO  4   8 100  16 100  48 101  49 101
M  END
>  <TORSDO>  (27) 
F 23

>  <SCORE>  (27) 
-12.653

>  <name>  (27) 
26

>  <ligand_id>  (27) 
26

>  <original_smiles>  (27) 
[H]c1c([H])c([H])c2c(c1[H])C([H])([H])C([H])([H])C([H])([H])C2([H])N([H])C(=O)C1([H])N(C(=O)C([H])(N([H])C(=O)C([H])(N([H])C([H])([H])[H])C([H])([H])[H])C(C([H])([H])[H])(C([H])([H])[H])C([H])([H])[H])C([H])([H])c2c([H])c(OC([H])([H])C([H])([H])C([H])([H])C([H])([H])[N+]([H])([H])C([H])([H])C([H])([H])C([H])([H])N([H])C(=O)N3C([H])([H])C([H])([H])C([H])([H])C([H])(n4nc(-c5c([H])c([H])c(Oc6c([H])c([H])c(F)c([H])c6F)c([H])c5[H])c(C(=O)N([H])[H])c4N([H])[H])C3([H])[H])c([H])c([H])c2C1([H])[H]

>  <smiles>  (27) 
[H]c1c([H])c([H])c2c(c1[H])C([H])([H])C([H])([H])C([H])([H])C2([H])N([H])C(=O)C1([H])N(C(=O)C([H])(N([H])C(=O)C([H])(N([H])C([H])([H])[H])C([H])([H])[H])C(C([H])([H])[H])(C([H])([H])[H])C([H])([H])[H])C([H])([H])c2c([H])c(OC([H])([H])C([H])([H])C([H])([H])C([H])([H])[N+]([H])([H])C([H])([H])C([H])([H])C([H])([H])N([H])C(=O)N3C([H])([H])C([H])([H])C([H])([H])C([H])(n4nc(-c5c([H])c([H])c(Oc6c([H])c([H])c(F)c([H])c6F)c([H])c5[H])c(C(=O)N([H])[H])c4N([H])[H])C3([H])[H])c([H])c([H])c2C1([H])[H]

$$$$
27:0:0
     RDKit          3D

 95102  0  0  1  0  0  0  0  0999 V2000
  -24.1870  -23.1460   19.8780 C   0  0  0  0  0  1  0  0  0  0  0  0
  -25.3470  -22.5310   19.0680 C   0  0  0  0  0  3  0  0  0  0  0  0
  -26.1390  -23.6400   18.3390 C   0  0  0  0  0  0  0  0  0  0  0  0
  -27.1970  -24.1700   18.9700 N   0  0  0  0  0  0  0  0  0  0  0  0
  -25.8190  -23.9820   17.2010 O   0  0  0  0  0  0  0  0  0  0  0  0
  -27.3510  -23.9020   19.9290 H   0  0  0  0  0  0  0  0  0  0  0  0
  -28.1240  -25.1710   18.4500 C   0  0  0  0  0  2  0  0  0  0  0  0
  -28.6320  -26.0490   19.6230 C   0  0  0  0  0  2  0  0  0  0  0  0
  -28.5280  -27.4560   19.4300 O   0  0  0  0  0  0  0  0  0  0  0  0
  -24.6110  -31.8650   23.4260 C   0  0  0  0  0  0  0  0  0  0  0  0
  -27.2980  -28.0480   19.6260 C   0  0  0  0  0  0  0  0  0  0  0  0
  -23.3850  -30.6560   21.6520 C   0  0  0  0  0  3  0  0  0  0  0  0
  -24.8310  -29.3930   19.9810 C   0  0  0  0  0  0  0  0  0  0  0  0
  -25.8840  -31.1590   21.4070 C   0  0  0  0  0  2  0  0  0  0  0  0
  -25.9950  -29.8960   20.5760 C   0  0  0  0  0  0  0  0  0  0  0  0
  -27.2250  -29.2310   20.3970 C   0  0  0  0  0  3  0  0  0  0  0  0
  -26.1090  -27.5580   19.0300 C   0  0  0  0  0  3  0  0  0  0  0  0
  -24.8840  -28.2210   19.2120 C   0  0  0  0  0  3  0  0  0  0  0  0
  -23.5590  -30.1830   20.1860 C   0  0  0  0  0  2  0  0  0  0  0  0
  -24.6480  -31.2340   22.2190 N   0  0  0  0  0  0  0  0  0  0  0  0
  -23.5450  -32.0050   24.0420 O   0  0  0  0  0  0  0  0  0  0  0  0
  -22.8210  -29.4820   22.4790 C   0  0  0  0  0  0  0  0  0  0  0  0
  -21.5140  -29.2120   22.3200 N   0  0  0  0  0  0  0  0  0  0  0  0
  -23.5530  -28.8200   23.2210 O   0  0  0  0  0  0  0  0  0  0  0  0
  -20.9740  -29.8070   21.7070 H   0  0  0  0  0  0  0  0  0  0  0  0
  -18.2790  -27.6370   22.5430 C   0  0  0  0  0  0  0  0  0  0  0  0
  -20.7800  -28.1280   22.9720 C   0  0  0  0  0  3  0  0  0  0  0  0
  -21.0540  -26.7680   22.2890 C   0  0  0  0  0  2  0  0  0  0  0  0
  -20.0470  -26.4400   21.1830 C   0  0  0  0  0  2  0  0  0  0  0  0
  -18.6260  -26.3870   21.7540 C   0  0  0  0  0  2  0  0  0  0  0  0
  -19.2910  -28.4640   23.0980 C   0  0  0  0  0  0  0  0  0  0  0  0
  -18.9200  -29.6390   23.7860 C   0  0  0  0  0  3  0  0  0  0  0  0
  -17.5660  -29.9860   23.9330 C   0  0  0  0  0  3  0  0  0  0  0  0
  -16.5640  -29.1560   23.3980 C   0  0  0  0  0  3  0  0  0  0  0  0
  -16.9210  -27.9850   22.7050 C   0  0  0  0  0  3  0  0  0  0  0  0
  -25.8960  -32.4620   24.0790 C   0  0  0  0  0  3  0  0  0  0  0  0
  -26.3630  -31.6710   25.3620 C   0  0  1  0  0  0  0  0  0  0  0  0
  -25.2430  -31.4630   26.4080 C   0  0  0  0  0  1  0  0  0  0  0  0
  -26.9150  -30.2760   24.9750 C   0  0  0  0  0  1  0  0  0  0  0  0
  -27.5240  -32.4260   26.0530 C   0  0  0  0  0  1  0  0  0  0  0  0
  -25.6120  -33.8660   24.4070 N   0  0  0  0  0  0  0  0  0  0  0  0
  -26.0090  -34.9110   23.6700 C   0  0  0  0  0  0  0  0  0  0  0  0
  -26.7220  -34.7930   22.6710 O   0  0  0  0  0  0  0  0  0  0  0  0
  -24.9790  -34.0320   25.1750 H   0  0  0  0  0  0  0  0  0  0  0  0
  -24.3630  -36.7650   23.2350 C   0  0  0  0  0  1  0  0  0  0  0  0
  -25.5390  -36.3100   24.1130 C   0  0  0  0  0  3  0  0  0  0  0  0
  -27.6480  -37.1170   25.0770 C   0  0  0  0  0  1  0  0  0  0  0  0
  -26.6100  -37.3280   24.0730 N   0  0  0  0  0  0  0  0  0  0  0  0
  -26.2260  -38.2610   24.2010 H   0  0  0  0  0  0  0  0  0  0  0  0
  -26.2000  -21.6710   19.9400 N   0  0  0  0  0  4  0  0  0  0  0  0
  -26.7460  -22.2440   20.5620 H   0  0  0  0  0  0  0  0  0  0  0  0
  -25.5760  -21.1210   20.5090 H   0  0  0  0  0  0  0  0  0  0  0  0
  -27.1020  -20.7390   19.2180 C   0  0  0  0  0  2  0  0  0  0  0  0
  -27.7290  -19.6790   20.1480 C   0  0  0  0  0  2  0  0  0  0  0  0
  -28.7100  -18.7580   19.3950 C   0  0  0  0  0  2  0  0  0  0  0  0
  -29.3020  -17.6370   20.2660 C   0  0  0  0  0  2  0  0  0  0  0  0
  -30.3590  -16.7920   19.5250 C   0  0  0  0  0  2  0  0  0  0  0  0
  -31.0980  -14.4220   19.5790 C   0  0  0  0  0  0  0  0  0  0  0  0
  -30.8730  -12.0460   18.9650 C   0  0  0  0  0  2  0  0  0  0  0  0
  -29.8370  -11.9360   17.8270 C   0  0  0  0  0  2  0  0  0  0  0  0
  -28.4060  -11.8400   18.3950 C   0  0  0  0  0  2  0  0  0  0  0  0
  -28.1070  -12.9380   19.4530 C   0  0  0  0  0  3  0  0  0  0  0  0
  -29.2440  -12.9910   20.5000 C   0  0  0  0  0  2  0  0  0  0  0  0
  -30.5180  -13.2120   19.7880 N   0  0  0  0  0  0  0  0  0  0  0  0
  -32.0970  -14.5930   18.8720 O   0  0  0  0  0  0  0  0  0  0  0  0
  -30.4080  -15.4480   20.0900 N   0  0  0  0  0  0  0  0  0  0  0  0
  -29.6610  -15.1880   20.7160 H   0  0  0  0  0  0  0  0  0  0  0  0
  -25.8930  -13.6760   20.5490 C   0  0  0  0  0  0  0  0  0  0  0  0
  -24.8090  -12.9660   20.9860 C   0  0  0  0  0  0  0  0  0  0  0  0
  -25.1170  -11.5910   20.7490 C   0  0  0  0  0  0  0  0  0  0  0  0
  -26.8020  -12.7380   20.0820 N   0  0  0  0  0  0  0  0  0  0  0  0
  -26.3440  -11.4730   20.2550 N   0  0  0  0  0  0  0  0  0  0  0  0
  -24.2970  -10.3860   20.9090 C   0  0  0  0  0  0  0  0  0  0  0  0
  -24.6390   -9.3760   21.8360 C   0  0  0  0  0  3  0  0  0  0  0  0
  -23.8220   -8.2330   21.9820 C   0  0  0  0  0  3  0  0  0  0  0  0
  -22.6500   -8.0930   21.2010 C   0  0  0  0  0  0  0  0  0  0  0  0
  -22.3290   -9.0900   20.2640 C   0  0  0  0  0  3  0  0  0  0  0  0
  -23.1440  -10.2230   20.1150 C   0  0  0  0  0  3  0  0  0  0  0  0
  -21.8130   -7.0060   21.2570 O   0  0  0  0  0  0  0  0  0  0  0  0
  -21.5640   -6.3470   22.4340 C   0  0  0  0  0  0  0  0  0  0  0  0
  -20.9770   -6.9980   23.5410 C   0  0  0  0  0  3  0  0  0  0  0  0
  -20.6750   -6.2670   24.7090 C   0  0  0  0  0  3  0  0  0  0  0  0
  -20.9490   -4.8870   24.7670 C   0  0  0  0  0  0  0  0  0  0  0  0
  -21.5270   -4.2370   23.6610 C   0  0  0  0  0  3  0  0  0  0  0  0
  -21.8300   -4.9640   22.4990 C   0  0  0  0  0  0  0  0  0  0  0  0
  -22.3680   -4.3280   21.4300 F   0  0  0  0  0  0  0  0  0  0  0  0
  -20.6510   -4.1830   25.8830 F   0  0  0  0  0  0  0  0  0  0  0  0
  -23.5180  -13.5300   21.5090 C   0  0  0  0  0  0  0  0  0  0  0  0
  -22.8450  -12.8070   22.3960 N   0  0  0  0  0  0  0  0  0  0  0  0
  -23.1240  -14.6440   21.1680 O   0  0  0  0  0  0  0  0  0  0  0  0
  -23.1820  -11.9040   22.6960 H   0  0  0  0  0  0  0  0  0  0  0  0
  -21.9830  -13.1650   22.7820 H   0  0  0  0  0  0  0  0  0  0  0  0
  -26.1730  -15.0390   20.4920 N   0  0  0  0  0  0  0  0  0  0  0  0
  -25.4950  -15.7340   20.7820 H   0  0  0  0  0  0  0  0  0  0  0  0
  -27.0020  -15.4360   20.0730 H   0  0  0  0  0  0  0  0  0  0  0  0
  2  1  1  0
  2 50  1  0
  3  4  1  0
  3  2  1  0
  4  6  1  0
  5  3  2  0
  7  4  1  0
  7  8  1  0
  9  8  1  0
  9 11  1  0
 10 21  2  0
 11 16  1  0
 12 20  1  0
 12 22  1  0
 13 19  1  0
 13 15  1  0
 14 20  1  0
 15 14  1  0
 16 15  2  0
 17 18  1  0
 17 11  2  0
 18 13  2  0
 19 12  1  0
 20 10  1  0
 22 24  2  0
 23 22  1  0
 25 23  1  0
 26 35  2  0
 26 31  1  0
 27 23  1  0
 27 31  1  0
 28 27  1  0
 29 30  1  0
 29 28  1  0
 30 26  1  0
 31 32  2  0
 32 33  1  0
 34 33  2  0
 35 34  1  0
 36 10  1  0
 36 41  1  0
 36 37  1  0
 37 40  1  1
 37 38  1  0
 39 37  1  0
 41 44  1  0
 42 46  1  0
 42 41  1  0
 43 42  2  0
 46 45  1  0
 48 46  1  0
 48 49  1  0
 48 47  1  0
 50 52  1  0
 50 51  1  0
 53 50  1  0
 53 54  1  0
 55 54  1  0
 55 56  1  0
 57 66  1  0
 57 56  1  0
 58 64  1  0
 58 66  1  0
 59 64  1  0
 60 61  1  0
 60 59  1  0
 62 61  1  0
 62 71  1  0
 62 63  1  0
 64 63  1  0
 65 58  2  0
 66 67  1  0
 68 69  2  0
 69 88  1  0
 70 73  1  0
 70 69  1  0
 71 72  1  0
 71 68  1  0
 72 70  2  0
 73 74  1  0
 74 75  2  0
 76 79  1  0
 76 75  1  0
 77 76  2  0
 78 77  1  0
 78 73  2  0
 79 80  1  0
 80 85  2  0
 80 81  1  0
 81 82  2  0
 82 83  1  0
 83 87  1  0
 84 83  2  0
 85 84  1  0
 86 85  1  0
 88 89  1  0
 89 91  1  0
 89 92  1  0
 90 88  2  0
 93 68  1  0
 93 94  1  0
 95 93  1  0
M  ISO  4   8 101   9 101  58 100  66 100
M  END
>  <TORSDO>  (28) 
F 25

>  <SCORE>  (28) 
-10.202

>  <name>  (28) 
27

>  <ligand_id>  (28) 
27

>  <original_smiles>  (28) 
[H]c1c([H])c([H])c2c(c1[H])C([H])([H])C([H])([H])C([H])([H])C2([H])N([H])C(=O)C1([H])N(C(=O)C([H])(N([H])C(=O)C([H])(N([H])C([H])([H])[H])C([H])([H])[H])C(C([H])([H])[H])(C([H])([H])[H])C([H])([H])[H])C([H])([H])c2c([H])c(OC([H])([H])C([H])([H])N([H])C(=O)C([H])(C([H])([H])[H])[N+]([H])([H])C([H])([H])C([H])([H])C([H])([H])C([H])([H])C([H])([H])N([H])C(=O)N3C([H])([H])C([H])([H])C([H])([H])C([H])(n4nc(-c5c([H])c([H])c(Oc6c([H])c([H])c(F)c([H])c6F)c([H])c5[H])c(C(=O)N([H])[H])c4N([H])[H])C3([H])[H])c([H])c([H])c2C1([H])[H]

>  <smiles>  (28) 
[H]c1c([H])c([H])c2c(c1[H])C([H])([H])C([H])([H])C([H])([H])C2([H])N([H])C(=O)C1([H])N(C(=O)C([H])(N([H])C(=O)C([H])(N([H])C([H])([H])[H])C([H])([H])[H])C(C([H])([H])[H])(C([H])([H])[H])C([H])([H])[H])C([H])([H])c2c([H])c(OC([H])([H])C([H])([H])N([H])C(=O)C([H])(C([H])([H])[H])[N+]([H])([H])C([H])([H])C([H])([H])C([H])([H])C([H])([H])C([H])([H])N([H])C(=O)N3C([H])([H])C([H])([H])C([H])([H])C([H])(n4nc(-c5c([H])c([H])c(Oc6c([H])c([H])c(F)c([H])c6F)c([H])c5[H])c(C(=O)N([H])[H])c4N([H])[H])C3([H])[H])c([H])c([H])c2C1([H])[H]

$$$$
28:0:0
     RDKit          3D

 98105  0  0  1  0  0  0  0  0999 V2000
  -26.2180  -20.7160   25.1500 C   0  0  0  0  0  2  0  0  0  0  0  0
  -26.6720  -19.4380   25.8560 C   0  0  0  0  0  2  0  0  0  0  0  0
  -25.4980  -18.5130   26.2060 C   0  0  0  0  0  2  0  0  0  0  0  0
  -25.9130  -17.2360   26.9640 C   0  0  0  0  0  2  0  0  0  0  0  0
  -27.1100  -16.0010   25.1460 C   0  0  0  0  0  0  0  0  0  0  0  0
  -27.0570  -16.5460   26.3670 N   0  0  0  0  0  0  0  0  0  0  0  0
  -26.1340  -15.9360   24.3980 O   0  0  0  0  0  0  0  0  0  0  0  0
  -27.9070  -16.5260   26.9130 H   0  0  0  0  0  0  0  0  0  0  0  0
  -28.4480  -15.5400   24.8290 C   0  0  0  0  0  3  0  0  0  0  0  0
  -28.7840  -15.2760   23.5550 C   0  0  0  0  0  3  0  0  0  0  0  0
  -30.1420  -14.7770   23.0990 C   0  0  0  0  0  2  0  0  0  0  0  0
  -30.7810  -14.3350   20.7210 C   0  0  0  0  0  0  0  0  0  0  0  0
  -30.4140  -12.2830   19.3960 C   0  0  0  0  0  2  0  0  0  0  0  0
  -29.4880  -12.5550   18.1940 C   0  0  0  0  0  2  0  0  0  0  0  0
  -28.0060  -12.4060   18.5920 C   0  0  0  0  0  2  0  0  0  0  0  0
  -27.6680  -13.1980   19.8780 C   0  0  0  0  0  3  0  0  0  0  0  0
  -28.6990  -12.8910   20.9820 C   0  0  0  0  0  2  0  0  0  0  0  0
  -30.0530  -13.2070   20.4840 N   0  0  0  0  0  0  0  0  0  0  0  0
  -31.7470  -14.6650   20.0290 O   0  0  0  0  0  0  0  0  0  0  0  0
  -30.3830  -15.1530   21.7080 N   0  0  0  0  0  0  0  0  0  0  0  0
  -30.7870  -16.0740   21.6190 H   0  0  0  0  0  0  0  0  0  0  0  0
  -25.2610  -13.8140   20.5640 C   0  0  0  0  0  0  0  0  0  0  0  0
  -24.1840  -13.0430   20.9130 C   0  0  0  0  0  0  0  0  0  0  0  0
  -24.6380  -11.6900   20.8690 C   0  0  0  0  0  0  0  0  0  0  0  0
  -26.3040  -12.9300   20.3320 N   0  0  0  0  0  0  0  0  0  0  0  0
  -25.9290  -11.6460   20.5700 N   0  0  0  0  0  0  0  0  0  0  0  0
  -23.9010  -10.4300   21.0410 C   0  0  0  0  0  0  0  0  0  0  0  0
  -24.3580   -9.4220   21.9200 C   0  0  0  0  0  3  0  0  0  0  0  0
  -23.6280   -8.2240   22.0760 C   0  0  0  0  0  3  0  0  0  0  0  0
  -22.4260   -8.0280   21.3550 C   0  0  0  0  0  0  0  0  0  0  0  0
  -21.9870   -9.0230   20.4630 C   0  0  0  0  0  3  0  0  0  0  0  0
  -22.7180  -10.2130   20.3060 C   0  0  0  0  0  3  0  0  0  0  0  0
  -21.6650   -6.8870   21.4240 O   0  0  0  0  0  0  0  0  0  0  0  0
  -21.6850   -6.0730   22.5280 C   0  0  0  0  0  0  0  0  0  0  0  0
  -21.4020   -6.5640   23.8210 C   0  0  0  0  0  3  0  0  0  0  0  0
  -21.3660   -5.6790   24.9170 C   0  0  0  0  0  3  0  0  0  0  0  0
  -21.6060   -4.3050   24.7230 C   0  0  0  0  0  0  0  0  0  0  0  0
  -21.8810   -3.8140   23.4350 C   0  0  0  0  0  3  0  0  0  0  0  0
  -21.9190   -4.6950   22.3410 C   0  0  0  0  0  0  0  0  0  0  0  0
  -22.1660   -4.2150   21.0980 F   0  0  0  0  0  0  0  0  0  0  0  0
  -21.5630   -3.4530   25.7730 F   0  0  0  0  0  0  0  0  0  0  0  0
  -22.7860  -13.5240   21.1810 C   0  0  0  0  0  0  0  0  0  0  0  0
  -22.0510  -12.8230   22.0360 N   0  0  0  0  0  0  0  0  0  0  0  0
  -22.3550  -14.5560   20.6670 O   0  0  0  0  0  0  0  0  0  0  0  0
  -22.4100  -11.9860   22.4710 H   0  0  0  0  0  0  0  0  0  0  0  0
  -21.1130  -13.1250   22.2570 H   0  0  0  0  0  0  0  0  0  0  0  0
  -25.4390  -15.1850   20.4060 N   0  0  0  0  0  0  0  0  0  0  0  0
  -24.6890  -15.8520   20.5510 H   0  0  0  0  0  0  0  0  0  0  0  0
  -26.3090  -15.6150   20.1180 H   0  0  0  0  0  0  0  0  0  0  0  0
  -27.4010  -21.6160   24.7650 C   0  0  0  0  0  2  0  0  0  0  0  0
  -26.9840  -22.6660   23.7320 C   0  0  0  0  0  2  0  0  0  0  0  0
  -28.1530  -23.5380   23.2630 C   0  0  0  0  0  2  0  0  0  0  0  0
  -27.7980  -24.2470   22.0230 N   0  0  0  0  0  4  0  0  0  0  0  0
  -27.0010  -24.8410   22.1950 H   0  0  0  0  0  0  0  0  0  0  0  0
  -27.5280  -23.5520   21.3440 H   0  0  0  0  0  0  0  0  0  0  0  0
  -28.8950  -25.0570   21.4620 C   0  0  0  0  0  2  0  0  0  0  0  0
  -28.5920  -25.4700   20.0140 C   0  0  0  0  0  2  0  0  0  0  0  0
  -28.4790  -26.8830   19.9820 O   0  0  0  0  0  0  0  0  0  0  0  0
  -24.6080  -31.8710   23.2140 C   0  0  0  0  0  0  0  0  0  0  0  0
  -27.2490  -27.4880   20.0690 C   0  0  0  0  0  0  0  0  0  0  0  0
  -23.3940  -30.4950   21.5540 C   0  0  0  0  0  3  0  0  0  0  0  0
  -24.8390  -28.9590   20.1260 C   0  0  0  0  0  0  0  0  0  0  0  0
  -25.9150  -30.8520   21.3550 C   0  0  0  0  0  2  0  0  0  0  0  0
  -25.9950  -29.4830   20.7150 C   0  0  0  0  0  0  0  0  0  0  0  0
  -27.1980  -28.7540   20.6870 C   0  0  0  0  0  3  0  0  0  0  0  0
  -26.0710  -26.9610   19.4870 C   0  0  0  0  0  3  0  0  0  0  0  0
  -24.8700  -27.6930   19.5140 C   0  0  0  0  0  3  0  0  0  0  0  0
  -23.6000  -29.8230   20.1710 C   0  0  0  0  0  2  0  0  0  0  0  0
  -24.6580  -31.0850   22.1010 N   0  0  0  0  0  0  0  0  0  0  0  0
  -23.5290  -32.1420   23.7570 O   0  0  0  0  0  0  0  0  0  0  0  0
  -22.7380  -29.4670   22.5010 C   0  0  0  0  0  0  0  0  0  0  0  0
  -21.4110  -29.3040   22.3750 N   0  0  0  0  0  0  0  0  0  0  0  0
  -23.4170  -28.8190   23.3020 O   0  0  0  0  0  0  0  0  0  0  0  0
  -20.9220  -29.8810   21.7060 H   0  0  0  0  0  0  0  0  0  0  0  0
  -18.0280  -28.1400   22.8510 C   0  0  0  0  0  0  0  0  0  0  0  0
  -20.5860  -28.3660   23.1340 C   0  0  0  0  0  3  0  0  0  0  0  0
  -20.6750  -26.9400   22.5420 C   0  0  0  0  0  2  0  0  0  0  0  0
  -19.5730  -26.6400   21.5210 C   0  0  0  0  0  2  0  0  0  0  0  0
  -18.1920  -26.7950   22.1630 C   0  0  0  0  0  2  0  0  0  0  0  0
  -19.1520  -28.8850   23.2930 C   0  0  0  0  0  0  0  0  0  0  0  0
  -18.9440  -30.1460   23.8940 C   0  0  0  0  0  3  0  0  0  0  0  0
  -17.6440  -30.6590   24.0590 C   0  0  0  0  0  3  0  0  0  0  0  0
  -16.5340  -29.9100   23.6330 C   0  0  0  0  0  3  0  0  0  0  0  0
  -16.7270  -28.6520   23.0340 C   0  0  0  0  0  3  0  0  0  0  0  0
  -25.9000  -32.4850   23.8430 C   0  0  0  0  0  3  0  0  0  0  0  0
  -25.5860  -33.8640   24.2380 N   0  0  0  0  0  0  0  0  0  0  0  0
  -25.9030  -34.9490   23.5180 C   0  0  0  0  0  0  0  0  0  0  0  0
  -26.5560  -34.8920   22.4730 O   0  0  0  0  0  0  0  0  0  0  0  0
  -25.0060  -33.9800   25.0550 H   0  0  0  0  0  0  0  0  0  0  0  0
  -24.1480  -36.7320   23.2650 C   0  0  0  0  0  1  0  0  0  0  0  0
  -25.4100  -36.3130   24.0370 C   0  0  0  0  0  3  0  0  0  0  0  0
  -27.5600  -37.1820   24.8470 C   0  0  0  0  0  1  0  0  0  0  0  0
  -26.4290  -37.3800   23.9430 N   0  0  0  0  0  0  0  0  0  0  0  0
  -26.0180  -38.2880   24.1410 H   0  0  0  0  0  0  0  0  0  0  0  0
  -26.4450  -31.6590   25.0710 C   0  0  1  0  0  0  0  0  0  0  0  0
  -25.3750  -31.3640   26.1480 C   0  0  0  0  0  1  0  0  0  0  0  0
  -27.0290  -30.3080   24.5980 C   0  0  0  0  0  1  0  0  0  0  0  0
  -27.6070  -32.4260   25.7440 C   0  0  0  0  0  1  0  0  0  0  0  0
  1  2  1  0
  2  3  1  0
  3  4  1  0
  5  6  1  0
  6  8  1  0
  6  4  1  0
  7  5  2  0
  9  5  1  0
 10  9  2  0
 11 10  1  0
 12 20  1  0
 13 18  1  0
 14 15  1  0
 14 13  1  0
 16 15  1  0
 16 25  1  0
 16 17  1  0
 18 12  1  0
 18 17  1  0
 19 12  2  0
 20 11  1  0
 21 20  1  0
 22 23  2  0
 23 42  1  0
 24 23  1  0
 24 27  1  0
 25 22  1  0
 25 26  1  0
 26 24  2  0
 27 28  1  0
 28 29  2  0
 30 33  1  0
 30 29  1  0
 31 30  2  0
 32 31  1  0
 32 27  2  0
 33 34  1  0
 34 35  1  0
 35 36  2  0
 37 36  1  0
 37 41  1  0
 38 37  2  0
 39 34  2  0
 39 38  1  0
 40 39  1  0
 42 43  1  0
 43 46  1  0
 43 45  1  0
 44 42  2  0
 47 48  1  0
 47 22  1  0
 49 47  1  0
 50  1  1  0
 51 50  1  0
 52 51  1  0
 53 54  1  0
 53 52  1  0
 55 53  1  0
 56 53  1  0
 57 56  1  0
 58 57  1  0
 58 60  1  0
 59 70  2  0
 60 65  1  0
 61 69  1  0
 61 71  1  0
 62 68  1  0
 62 64  1  0
 63 69  1  0
 64 63  1  0
 65 64  2  0
 66 67  1  0
 66 60  2  0
 67 62  2  0
 68 61  1  0
 69 59  1  0
 71 73  2  0
 72 71  1  0
 74 72  1  0
 75 84  2  0
 75 80  1  0
 76 72  1  0
 76 80  1  0
 77 76  1  0
 78 79  1  0
 78 77  1  0
 79 75  1  0
 80 81  2  0
 81 82  1  0
 83 82  2  0
 84 83  1  0
 85 59  1  0
 85 86  1  0
 85 95  1  0
 86 89  1  0
 87 91  1  0
 87 86  1  0
 88 87  2  0
 91 90  1  0
 93 91  1  0
 93 94  1  0
 93 92  1  0
 95 98  1  1
 95 96  1  0
 97 95  1  0
M  ISO  4  12 100  20 100  57 101  58 101
M  END
>  <TORSDO>  (29) 
F 28

>  <SCORE>  (29) 
64.505

>  <name>  (29) 
28

>  <ligand_id>  (29) 
28

>  <original_smiles>  (29) 
[H]C(C(=O)N([H])C([H])([H])C([H])([H])C([H])([H])C([H])([H])C([H])([H])C([H])([H])C([H])([H])[N+]([H])([H])C([H])([H])C([H])([H])Oc1c([H])c([H])c2c(c1[H])C([H])([H])N(C(=O)C([H])(N([H])C(=O)C([H])(N([H])C([H])([H])[H])C([H])([H])[H])C(C([H])([H])[H])(C([H])([H])[H])C([H])([H])[H])C([H])(C(=O)N([H])C1([H])c3c([H])c([H])c([H])c([H])c3C([H])([H])C([H])([H])C1([H])[H])C2([H])[H])=C([H])C([H])([H])N([H])C(=O)N1C([H])([H])C([H])([H])C([H])([H])C([H])(n2nc(-c3c([H])c([H])c(Oc4c([H])c([H])c(F)c([H])c4F)c([H])c3[H])c(C(=O)N([H])[H])c2N([H])[H])C1([H])[H]

>  <smiles>  (29) 
[H]C(C(=O)N([H])C([H])([H])C([H])([H])C([H])([H])C([H])([H])C([H])([H])C([H])([H])C([H])([H])[N+]([H])([H])C([H])([H])C([H])([H])Oc1c([H])c([H])c2c(c1[H])C([H])([H])N(C(=O)C([H])(N([H])C(=O)C([H])(N([H])C([H])([H])[H])C([H])([H])[H])C(C([H])([H])[H])(C([H])([H])[H])C([H])([H])[H])C([H])(C(=O)N([H])C1([H])c3c([H])c([H])c([H])c([H])c3C([H])([H])C([H])([H])C1([H])[H])C2([H])[H])=C([H])C([H])([H])N([H])C(=O)N1C([H])([H])C([H])([H])C([H])([H])C([H])(n2nc(-c3c([H])c([H])c(Oc4c([H])c([H])c(F)c([H])c4F)c([H])c3[H])c(C(=O)N([H])[H])c2N([H])[H])C1([H])[H]

$$$$
29:0:0
     RDKit          3D

100107  0  0  1  0  0  0  0  0999 V2000
  -25.4570  -23.7820   16.7840 C   0  0  0  0  0  2  0  0  0  0  0  0
  -24.2250  -24.5370   16.2560 C   0  0  0  0  0  2  0  0  0  0  0  0
  -24.5840  -25.6710   15.3630 N   0  0  0  0  0  4  0  0  0  0  0  0
  -23.7120  -26.0390   15.0130 H   0  0  0  0  0  0  0  0  0  0  0  0
  -25.0950  -25.3390   14.5590 H   0  0  0  0  0  0  0  0  0  0  0  0
  -25.2990  -26.8110   16.0000 C   0  0  0  0  0  2  0  0  0  0  0  0
  -26.8360  -26.6770   15.9780 C   0  0  0  0  0  2  0  0  0  0  0  0
  -27.3550  -27.2310   17.1840 O   0  0  0  0  0  0  0  0  0  0  0  0
  -28.6090  -26.6840   17.5870 C   0  0  0  0  0  2  0  0  0  0  0  0
  -29.0420  -27.1860   18.9830 C   0  0  0  0  0  2  0  0  0  0  0  0
  -28.2320  -26.6710   20.0440 O   0  0  0  0  0  0  0  0  0  0  0  0
  -24.5050  -31.8270   23.2760 C   0  0  0  0  0  0  0  0  0  0  0  0
  -27.0700  -27.3760   20.1890 C   0  0  0  0  0  0  0  0  0  0  0  0
  -23.2750  -30.4400   21.6430 C   0  0  0  0  0  3  0  0  0  0  0  0
  -24.6910  -28.8760   20.2310 C   0  0  0  0  0  0  0  0  0  0  0  0
  -25.8000  -30.7760   21.4250 C   0  0  0  0  0  2  0  0  0  0  0  0
  -25.8610  -29.4030   20.7970 C   0  0  0  0  0  0  0  0  0  0  0  0
  -27.0610  -28.6630   20.7650 C   0  0  0  0  0  3  0  0  0  0  0  0
  -25.8740  -26.8220   19.6950 C   0  0  0  0  0  3  0  0  0  0  0  0
  -24.6880  -27.5790   19.6880 C   0  0  0  0  0  3  0  0  0  0  0  0
  -23.4670  -29.7580   20.2640 C   0  0  0  0  0  2  0  0  0  0  0  0
  -24.5480  -31.0270   22.1750 N   0  0  0  0  0  0  0  0  0  0  0  0
  -23.4300  -32.1110   23.8210 O   0  0  0  0  0  0  0  0  0  0  0  0
  -22.6140  -29.4260   22.6060 C   0  0  0  0  0  0  0  0  0  0  0  0
  -21.2880  -29.2520   22.4720 N   0  0  0  0  0  0  0  0  0  0  0  0
  -23.2870  -28.8020   23.4300 O   0  0  0  0  0  0  0  0  0  0  0  0
  -20.8060  -29.8020   21.7750 H   0  0  0  0  0  0  0  0  0  0  0  0
  -17.9140  -28.0450   22.9140 C   0  0  0  0  0  0  0  0  0  0  0  0
  -20.4610  -28.3250   23.2420 C   0  0  0  0  0  3  0  0  0  0  0  0
  -20.5860  -26.8840   22.6960 C   0  0  0  0  0  2  0  0  0  0  0  0
  -19.5130  -26.5330   21.6630 C   0  0  0  0  0  2  0  0  0  0  0  0
  -18.1160  -26.6830   22.2690 C   0  0  0  0  0  2  0  0  0  0  0  0
  -19.0170  -28.8220   23.3560 C   0  0  0  0  0  0  0  0  0  0  0  0
  -18.7740  -30.1000   23.9070 C   0  0  0  0  0  3  0  0  0  0  0  0
  -17.4640  -30.6000   24.0250 C   0  0  0  0  0  3  0  0  0  0  0  0
  -16.3760  -29.8180   23.6010 C   0  0  0  0  0  3  0  0  0  0  0  0
  -16.6010  -28.5450   23.0500 C   0  0  0  0  0  3  0  0  0  0  0  0
  -25.8030  -32.4430   23.8890 C   0  0  0  0  0  3  0  0  0  0  0  0
  -25.5180  -33.8480   24.2070 N   0  0  0  0  0  0  0  0  0  0  0  0
  -25.8750  -34.8870   23.4410 C   0  0  0  0  0  0  0  0  0  0  0  0
  -26.5550  -34.7640   22.4160 O   0  0  0  0  0  0  0  0  0  0  0  0
  -24.9160  -34.0210   24.9990 H   0  0  0  0  0  0  0  0  0  0  0  0
  -24.1880  -36.7110   23.0510 C   0  0  0  0  0  1  0  0  0  0  0  0
  -25.4110  -36.2880   23.8820 C   0  0  0  0  0  3  0  0  0  0  0  0
  -27.5610  -37.1350   24.7180 C   0  0  0  0  0  1  0  0  0  0  0  0
  -26.4640  -37.3200   23.7700 N   0  0  0  0  0  0  0  0  0  0  0  0
  -26.0770  -38.2510   23.9020 H   0  0  0  0  0  0  0  0  0  0  0  0
  -26.3050  -31.6760   25.1730 C   0  0  1  0  0  0  0  0  0  0  0  0
  -25.2110  -31.4660   26.2450 C   0  0  0  0  0  1  0  0  0  0  0  0
  -26.8600  -30.2850   24.7910 C   0  0  0  0  0  1  0  0  0  0  0  0
  -27.4720  -32.4510   25.8300 C   0  0  0  0  0  1  0  0  0  0  0  0
  -25.1850  -22.5400   17.6570 C   0  0  0  0  0  2  0  0  0  0  0  0
  -26.5310  -22.0180   18.1930 C   0  0  0  0  0  2  0  0  0  0  0  0
  -26.4800  -20.7460   18.9480 N   0  0  0  0  0  4  0  0  0  0  0  0
  -25.8250  -20.8210   19.7110 H   0  0  0  0  0  0  0  0  0  0  0  0
  -26.1630  -20.0140   18.3300 H   0  0  0  0  0  0  0  0  0  0  0  0
  -27.8230  -20.4010   19.4690 C   0  0  0  0  0  2  0  0  0  0  0  0
  -27.9460  -19.0120   20.1250 C   0  0  0  0  0  2  0  0  0  0  0  0
  -29.4320  -18.7210   20.4010 C   0  0  0  0  0  2  0  0  0  0  0  0
  -29.7360  -17.3420   21.0000 C   0  0  0  0  0  2  0  0  0  0  0  0
  -31.2480  -17.0520   20.9550 C   0  0  0  0  0  2  0  0  0  0  0  0
  -31.6750  -15.7470   21.6450 C   0  0  0  0  0  2  0  0  0  0  0  0
  -31.2030  -13.8560   20.0700 C   0  0  0  0  0  0  0  0  0  0  0  0
  -30.6740  -11.7240   18.9420 C   0  0  0  0  0  2  0  0  0  0  0  0
  -29.6880  -11.8830   17.7710 C   0  0  0  0  0  2  0  0  0  0  0  0
  -28.2320  -11.8490   18.2710 C   0  0  0  0  0  2  0  0  0  0  0  0
  -27.9940  -12.8120   19.4620 C   0  0  0  0  0  3  0  0  0  0  0  0
  -29.0690  -12.6060   20.5490 C   0  0  0  0  0  2  0  0  0  0  0  0
  -30.4020  -12.7710   19.9350 N   0  0  0  0  0  0  0  0  0  0  0  0
  -32.1610  -14.1000   19.3300 O   0  0  0  0  0  0  0  0  0  0  0  0
  -30.9350  -14.5910   21.1560 N   0  0  0  0  0  0  0  0  0  0  0  0
  -30.1560  -14.2770   21.7170 H   0  0  0  0  0  0  0  0  0  0  0  0
  -25.6960  -13.6380   20.2840 C   0  0  0  0  0  0  0  0  0  0  0  0
  -24.5820  -12.9640   20.7100 C   0  0  0  0  0  0  0  0  0  0  0  0
  -24.9180  -11.5760   20.6600 C   0  0  0  0  0  0  0  0  0  0  0  0
  -26.6450  -12.6650   20.0070 N   0  0  0  0  0  0  0  0  0  0  0  0
  -26.1810  -11.4210   20.2860 N   0  0  0  0  0  0  0  0  0  0  0  0
  -24.0920  -10.3850   20.8910 C   0  0  0  0  0  0  0  0  0  0  0  0
  -24.4830   -9.3860   21.8120 C   0  0  0  0  0  3  0  0  0  0  0  0
  -23.6650   -8.2560   22.0320 C   0  0  0  0  0  3  0  0  0  0  0  0
  -22.4440   -8.1190   21.3310 C   0  0  0  0  0  0  0  0  0  0  0  0
  -22.0710   -9.1040   20.4000 C   0  0  0  0  0  3  0  0  0  0  0  0
  -22.8880  -10.2250   20.1790 C   0  0  0  0  0  3  0  0  0  0  0  0
  -21.5980   -7.0420   21.4600 O   0  0  0  0  0  0  0  0  0  0  0  0
  -21.5410   -6.3060   22.6150 C   0  0  0  0  0  0  0  0  0  0  0  0
  -21.2270   -6.8930   23.8600 C   0  0  0  0  0  3  0  0  0  0  0  0
  -21.1130   -6.0880   25.0100 C   0  0  0  0  0  3  0  0  0  0  0  0
  -21.3000   -4.6960   24.9180 C   0  0  0  0  0  0  0  0  0  0  0  0
  -21.6090   -4.1080   23.6780 C   0  0  0  0  0  3  0  0  0  0  0  0
  -21.7250   -4.9100   22.5300 C   0  0  0  0  0  0  0  0  0  0  0  0
  -22.0010   -4.3360   21.3340 F   0  0  0  0  0  0  0  0  0  0  0  0
  -21.1830   -3.9210   26.0210 F   0  0  0  0  0  0  0  0  0  0  0  0
  -23.2490  -13.5640   21.0520 C   0  0  0  0  0  0  0  0  0  0  0  0
  -22.5130  -12.9400   21.9660 N   0  0  0  0  0  0  0  0  0  0  0  0
  -22.8740  -14.6200   20.5460 O   0  0  0  0  0  0  0  0  0  0  0  0
  -22.8310  -12.0850   22.3970 H   0  0  0  0  0  0  0  0  0  0  0  0
  -21.6200  -13.3240   22.2390 H   0  0  0  0  0  0  0  0  0  0  0  0
  -25.9760  -14.9870   20.0930 N   0  0  0  0  0  0  0  0  0  0  0  0
  -25.2860  -15.7140   20.2480 H   0  0  0  0  0  0  0  0  0  0  0  0
  -26.8590  -15.3420   19.7440 H   0  0  0  0  0  0  0  0  0  0  0  0
  1 52  1  0
  2  1  1  0
  3  6  1  0
  3  2  1  0
  4  3  1  0
  5  3  1  0
  7  6  1  0
  7  8  1  0
  8  9  1  0
  9 10  1  0
 10 11  1  0
 11 13  1  0
 12 23  2  0
 13 18  1  0
 14 22  1  0
 14 24  1  0
 15 21  1  0
 15 17  1  0
 16 22  1  0
 17 16  1  0
 18 17  2  0
 19 13  2  0
 20 19  1  0
 20 15  2  0
 21 14  1  0
 22 12  1  0
 24 26  2  0
 25 24  1  0
 27 25  1  0
 28 37  2  0
 28 33  1  0
 29 25  1  0
 29 33  1  0
 30 29  1  0
 31 32  1  0
 31 30  1  0
 32 28  1  0
 33 34  2  0
 34 35  1  0
 36 35  2  0
 37 36  1  0
 38 12  1  0
 38 39  1  0
 38 48  1  0
 39 42  1  0
 40 44  1  0
 40 39  1  0
 41 40  2  0
 44 43  1  0
 46 44  1  0
 46 47  1  0
 46 45  1  0
 48 51  1  1
 48 49  1  0
 50 48  1  0
 52 53  1  0
 53 54  1  0
 54 57  1  0
 54 55  1  0
 56 54  1  0
 57 58  1  0
 58 59  1  0
 59 60  1  0
 61 60  1  0
 61 62  1  0
 63 71  1  0
 64 69  1  0
 65 66  1  0
 65 64  1  0
 67 66  1  0
 67 76  1  0
 67 68  1  0
 69 63  1  0
 69 68  1  0
 70 63  2  0
 71 62  1  0
 71 72  1  0
 73 74  2  0
 74 93  1  0
 75 74  1  0
 75 78  1  0
 76 73  1  0
 76 77  1  0
 77 75  2  0
 78 79  1  0
 79 80  2  0
 81 84  1  0
 81 80  1  0
 82 81  2  0
 83 82  1  0
 83 78  2  0
 84 85  1  0
 85 86  1  0
 86 87  2  0
 88 87  1  0
 88 92  1  0
 89 88  2  0
 90 85  2  0
 90 89  1  0
 91 90  1  0
 93 94  1  0
 94 97  1  0
 94 96  1  0
 95 93  2  0
 98 99  1  0
 98 73  1  0
100 98  1  0
M  ISO  4  10 101  11 101  63 100  71 100
M  END
>  <TORSDO>  (30) 
F 32

>  <SCORE>  (30) 
-10.088

>  <name>  (30) 
29

>  <ligand_id>  (30) 
29

>  <original_smiles>  (30) 
[H]c1c([H])c([H])c2c(c1[H])C([H])([H])C([H])([H])C([H])([H])C2([H])N([H])C(=O)C1([H])N(C(=O)C([H])(N([H])C(=O)C([H])(N([H])C([H])([H])[H])C([H])([H])[H])C(C([H])([H])[H])(C([H])([H])[H])C([H])([H])[H])C([H])([H])c2c([H])c(OC([H])([H])C([H])([H])OC([H])([H])C([H])([H])[N+]([H])([H])C([H])([H])C([H])([H])C([H])([H])C([H])([H])[N+]([H])([H])C([H])([H])C([H])([H])C([H])([H])C([H])([H])C([H])([H])C([H])([H])N([H])C(=O)N3C([H])([H])C([H])([H])C([H])([H])C([H])(n4nc(-c5c([H])c([H])c(Oc6c([H])c([H])c(F)c([H])c6F)c([H])c5[H])c(C(=O)N([H])[H])c4N([H])[H])C3([H])[H])c([H])c([H])c2C1([H])[H]

>  <smiles>  (30) 
[H]c1c([H])c([H])c2c(c1[H])C([H])([H])C([H])([H])C([H])([H])C2([H])N([H])C(=O)C1([H])N(C(=O)C([H])(N([H])C(=O)C([H])(N([H])C([H])([H])[H])C([H])([H])[H])C(C([H])([H])[H])(C([H])([H])[H])C([H])([H])[H])C([H])([H])c2c([H])c(OC([H])([H])C([H])([H])OC([H])([H])C([H])([H])[N+]([H])([H])C([H])([H])C([H])([H])C([H])([H])C([H])([H])[N+]([H])([H])C([H])([H])C([H])([H])C([H])([H])C([H])([H])C([H])([H])C([H])([H])N([H])C(=O)N3C([H])([H])C([H])([H])C([H])([H])C([H])(n4nc(-c5c([H])c([H])c(Oc6c([H])c([H])c(F)c([H])c6F)c([H])c5[H])c(C(=O)N([H])[H])c4N([H])[H])C3([H])[H])c([H])c([H])c2C1([H])[H]

$$$$
30:0:0
     RDKit          3D

 93100  0  0  1  0  0  0  0  0999 V2000
  -27.7590  -22.4330   21.4070 N   0  0  0  0  0  4  0  0  0  0  0  0
  -26.8120  -22.4180   21.7500 H   0  0  0  0  0  0  0  0  0  0  0  0
  -28.3610  -22.6880   22.1740 H   0  0  0  0  0  0  0  0  0  0  0  0
  -27.9140  -23.4260   20.3230 C   0  0  0  0  0  2  0  0  0  0  0  0
  -27.9470  -24.8810   20.7940 C   0  0  0  0  0  2  0  0  0  0  0  0
  -28.4330  -25.7780   19.6380 C   0  0  0  0  0  2  0  0  0  0  0  0
  -28.4310  -27.1490   20.0100 O   0  0  0  0  0  0  0  0  0  0  0  0
  -24.6230  -32.0350   23.4270 C   0  0  0  0  0  0  0  0  0  0  0  0
  -27.2250  -27.8110   20.0570 C   0  0  0  0  0  0  0  0  0  0  0  0
  -23.3880  -30.7230   21.7330 C   0  0  0  0  0  3  0  0  0  0  0  0
  -24.8180  -29.2790   20.2050 C   0  0  0  0  0  0  0  0  0  0  0  0
  -25.9050  -31.1140   21.5070 C   0  0  0  0  0  2  0  0  0  0  0  0
  -25.9820  -29.7840   20.7920 C   0  0  0  0  0  0  0  0  0  0  0  0
  -27.1890  -29.0590   20.7120 C   0  0  0  0  0  3  0  0  0  0  0  0
  -26.0340  -27.3100   19.4750 C   0  0  0  0  0  3  0  0  0  0  0  0
  -24.8330  -28.0360   19.5510 C   0  0  0  0  0  3  0  0  0  0  0  0
  -23.5730  -30.1270   20.3130 C   0  0  0  0  0  2  0  0  0  0  0  0
  -24.6570  -31.3010   22.2820 N   0  0  0  0  0  0  0  0  0  0  0  0
  -23.5510  -32.2740   24.0020 O   0  0  0  0  0  0  0  0  0  0  0  0
  -22.7620  -29.6440   22.6430 C   0  0  0  0  0  0  0  0  0  0  0  0
  -21.4520  -29.4080   22.4730 N   0  0  0  0  0  0  0  0  0  0  0  0
  -23.4520  -29.0260   23.4600 O   0  0  0  0  0  0  0  0  0  0  0  0
  -20.9580  -29.9630   21.7870 H   0  0  0  0  0  0  0  0  0  0  0  0
  -18.1390  -28.0030   22.7710 C   0  0  0  0  0  0  0  0  0  0  0  0
  -20.6530  -28.4170   23.1930 C   0  0  0  0  0  3  0  0  0  0  0  0
  -20.8810  -27.0000   22.6210 C   0  0  0  0  0  2  0  0  0  0  0  0
  -19.8630  -26.6150   21.5440 C   0  0  0  0  0  2  0  0  0  0  0  0
  -18.4380  -26.6700   22.1050 C   0  0  0  0  0  2  0  0  0  0  0  0
  -19.1800  -28.8290   23.2670 C   0  0  0  0  0  0  0  0  0  0  0  0
  -18.8530  -30.0760   23.8450 C   0  0  0  0  0  3  0  0  0  0  0  0
  -17.5120  -30.4950   23.9360 C   0  0  0  0  0  3  0  0  0  0  0  0
  -16.4820  -29.6660   23.4570 C   0  0  0  0  0  3  0  0  0  0  0  0
  -16.7970  -28.4220   22.8790 C   0  0  0  0  0  3  0  0  0  0  0  0
  -25.9230  -32.6300   24.0560 C   0  0  0  0  0  3  0  0  0  0  0  0
  -25.6390  -34.0250   24.4150 N   0  0  0  0  0  0  0  0  0  0  0  0
  -25.9880  -35.0850   23.6740 C   0  0  0  0  0  0  0  0  0  0  0  0
  -26.6610  -34.9900   22.6440 O   0  0  0  0  0  0  0  0  0  0  0  0
  -25.0470  -34.1770   25.2190 H   0  0  0  0  0  0  0  0  0  0  0  0
  -24.2900  -36.9080   23.3410 C   0  0  0  0  0  1  0  0  0  0  0  0
  -25.5190  -36.4730   24.1540 C   0  0  0  0  0  3  0  0  0  0  0  0
  -27.6630  -37.3030   25.0130 C   0  0  0  0  0  1  0  0  0  0  0  0
  -26.5670  -37.5110   24.0690 N   0  0  0  0  0  0  0  0  0  0  0  0
  -26.1730  -38.4320   24.2410 H   0  0  0  0  0  0  0  0  0  0  0  0
  -26.4330  -31.8180   25.3090 C   0  0  1  0  0  0  0  0  0  0  0  0
  -25.3360  -31.5430   26.3610 C   0  0  0  0  0  1  0  0  0  0  0  0
  -27.0230  -30.4540   24.8760 C   0  0  0  0  0  1  0  0  0  0  0  0
  -27.5770  -32.5930   26.0030 C   0  0  0  0  0  1  0  0  0  0  0  0
  -28.1270  -21.0820   20.9420 C   0  0  0  0  0  2  0  0  0  0  0  0
  -29.0850  -20.3540   21.8990 C   0  0  0  0  0  2  0  0  0  0  0  0
  -30.4910  -18.9110   20.4890 C   0  0  0  0  0  0  0  0  0  0  0  0
  -29.4660  -19.0660   21.3350 N   0  0  0  0  0  0  0  0  0  0  0  0
  -31.1870  -19.8510   20.1000 O   0  0  0  0  0  0  0  0  0  0  0  0
  -28.9230  -18.2520   21.5950 H   0  0  0  0  0  0  0  0  0  0  0  0
  -30.7900  -17.5050   20.0120 C   0  0  0  0  0  2  0  0  0  0  0  0
  -32.0410  -16.9540   20.7140 C   0  0  0  0  0  2  0  0  0  0  0  0
  -32.2400  -14.6830   19.8460 C   0  0  0  0  0  0  0  0  0  0  0  0
  -31.7130  -12.4780   18.8920 C   0  0  0  0  0  2  0  0  0  0  0  0
  -30.7540  -12.6000   17.6960 C   0  0  0  0  0  2  0  0  0  0  0  0
  -29.2840  -12.6740   18.1530 C   0  0  0  0  0  2  0  0  0  0  0  0
  -29.0580  -13.7070   19.2890 C   0  0  0  0  0  3  0  0  0  0  0  0
  -30.1020  -13.4920   20.4060 C   0  0  0  0  0  2  0  0  0  0  0  0
  -31.4560  -13.5840   19.8170 N   0  0  0  0  0  0  0  0  0  0  0  0
  -33.1850  -14.9000   19.0780 O   0  0  0  0  0  0  0  0  0  0  0  0
  -31.9010  -15.5200   20.8170 N   0  0  0  0  0  0  0  0  0  0  0  0
  -31.1890  -15.1750   21.4490 H   0  0  0  0  0  0  0  0  0  0  0  0
  -26.7810  -14.6430   20.0680 C   0  0  0  0  0  0  0  0  0  0  0  0
  -25.6300  -14.0230   20.4750 C   0  0  0  0  0  0  0  0  0  0  0  0
  -25.8970  -12.6220   20.4230 C   0  0  0  0  0  0  0  0  0  0  0  0
  -27.6910  -13.6280   19.8060 N   0  0  0  0  0  0  0  0  0  0  0  0
  -27.1580  -12.4080   20.0670 N   0  0  0  0  0  0  0  0  0  0  0  0
  -25.0120  -11.4710   20.6350 C   0  0  0  0  0  0  0  0  0  0  0  0
  -25.3000  -10.4870   21.6050 C   0  0  0  0  0  3  0  0  0  0  0  0
  -24.4270   -9.3970   21.8020 C   0  0  0  0  0  3  0  0  0  0  0  0
  -23.2480   -9.2860   21.0290 C   0  0  0  0  0  0  0  0  0  0  0  0
  -22.9780  -10.2530   20.0460 C   0  0  0  0  0  3  0  0  0  0  0  0
  -23.8500  -11.3340   19.8470 C   0  0  0  0  0  3  0  0  0  0  0  0
  -22.3530   -8.2490   21.1310 O   0  0  0  0  0  0  0  0  0  0  0  0
  -22.1310   -7.6060   22.3220 C   0  0  0  0  0  0  0  0  0  0  0  0
  -21.6920   -8.2990   23.4730 C   0  0  0  0  0  3  0  0  0  0  0  0
  -21.4070   -7.5880   24.6560 C   0  0  0  0  0  3  0  0  0  0  0  0
  -21.5540   -6.1880   24.6890 C   0  0  0  0  0  0  0  0  0  0  0  0
  -21.9910   -5.4970   23.5440 C   0  0  0  0  0  3  0  0  0  0  0  0
  -22.2740   -6.2050   22.3630 C   0  0  0  0  0  0  0  0  0  0  0  0
  -22.6720   -5.5340   21.2570 F   0  0  0  0  0  0  0  0  0  0  0  0
  -21.2730   -5.5040   25.8220 F   0  0  0  0  0  0  0  0  0  0  0  0
  -24.3220  -14.6860   20.7980 C   0  0  0  0  0  0  0  0  0  0  0  0
  -23.5410  -14.1000   21.7000 N   0  0  0  0  0  0  0  0  0  0  0  0
  -24.0040  -15.7600   20.2880 O   0  0  0  0  0  0  0  0  0  0  0  0
  -23.8050  -13.2280   22.1320 H   0  0  0  0  0  0  0  0  0  0  0  0
  -22.6630  -14.5270   21.9550 H   0  0  0  0  0  0  0  0  0  0  0  0
  -27.1200  -15.9810   19.8840 N   0  0  0  0  0  0  0  0  0  0  0  0
  -26.4250  -16.7130   19.9910 H   0  0  0  0  0  0  0  0  0  0  0  0
  -27.9720  -16.3010   19.4430 H   0  0  0  0  0  0  0  0  0  0  0  0
  1  2  1  0
  1  3  1  0
  4  5  1  0
  4  1  1  0
  6  7  1  0
  6  5  1  0
  7  9  1  0
  8 19  2  0
  9 14  1  0
 10 18  1  0
 10 20  1  0
 11 17  1  0
 11 13  1  0
 12 18  1  0
 13 12  1  0
 14 13  2  0
 15 16  1  0
 15  9  2  0
 16 11  2  0
 17 10  1  0
 18  8  1  0
 20 22  2  0
 21 20  1  0
 23 21  1  0
 24 33  2  0
 24 29  1  0
 25 21  1  0
 25 29  1  0
 26 25  1  0
 27 28  1  0
 27 26  1  0
 28 24  1  0
 29 30  2  0
 30 31  1  0
 32 31  2  0
 33 32  1  0
 34  8  1  0
 34 35  1  0
 34 44  1  0
 35 38  1  0
 36 40  1  0
 36 35  1  0
 37 36  2  0
 40 39  1  0
 42 40  1  0
 42 43  1  0
 42 41  1  0
 44 47  1  1
 44 45  1  0
 46 44  1  0
 48  1  1  0
 48 49  1  0
 50 51  1  0
 51 53  1  0
 51 49  1  0
 52 50  2  0
 54 50  1  0
 54 55  1  0
 55 64  1  0
 56 64  1  0
 57 62  1  0
 58 59  1  0
 58 57  1  0
 60 59  1  0
 60 69  1  0
 60 61  1  0
 62 56  1  0
 62 61  1  0
 63 56  2  0
 64 65  1  0
 66 67  2  0
 67 86  1  0
 68 67  1  0
 68 71  1  0
 69 70  1  0
 69 66  1  0
 70 68  2  0
 71 72  1  0
 72 73  2  0
 74 77  1  0
 74 73  1  0
 75 74  2  0
 76 75  1  0
 76 71  2  0
 77 78  1  0
 78 83  2  0
 78 79  1  0
 79 80  2  0
 80 81  1  0
 81 85  1  0
 82 81  2  0
 83 82  1  0
 84 83  1  0
 86 87  1  0
 87 90  1  0
 87 89  1  0
 88 86  2  0
 91 92  1  0
 91 66  1  0
 93 91  1  0
M  ISO  4   6 101   7 101  56 100  64 100
M  END
>  <TORSDO>  (31) 
F 24

>  <SCORE>  (31) 
-9.806

>  <name>  (31) 
30

>  <ligand_id>  (31) 
30

>  <original_smiles>  (31) 
[H]c1c([H])c([H])c2c(c1[H])C([H])([H])C([H])([H])C([H])([H])C2([H])N([H])C(=O)C1([H])N(C(=O)C([H])(N([H])C(=O)C([H])(N([H])C([H])([H])[H])C([H])([H])[H])C(C([H])([H])[H])(C([H])([H])[H])C([H])([H])[H])C([H])([H])c2c([H])c(OC([H])([H])C([H])([H])C([H])([H])[N+]([H])([H])C([H])([H])C([H])([H])N([H])C(=O)C([H])([H])C([H])([H])N([H])C(=O)N3C([H])([H])C([H])([H])C([H])([H])C([H])(n4nc(-c5c([H])c([H])c(Oc6c([H])c([H])c(F)c([H])c6F)c([H])c5[H])c(C(=O)N([H])[H])c4N([H])[H])C3([H])[H])c([H])c([H])c2C1([H])[H]

>  <smiles>  (31) 
[H]c1c([H])c([H])c2c(c1[H])C([H])([H])C([H])([H])C([H])([H])C2([H])N([H])C(=O)C1([H])N(C(=O)C([H])(N([H])C(=O)C([H])(N([H])C([H])([H])[H])C([H])([H])[H])C(C([H])([H])[H])(C([H])([H])[H])C([H])([H])[H])C([H])([H])c2c([H])c(OC([H])([H])C([H])([H])C([H])([H])[N+]([H])([H])C([H])([H])C([H])([H])N([H])C(=O)C([H])([H])C([H])([H])N([H])C(=O)N3C([H])([H])C([H])([H])C([H])([H])C([H])(n4nc(-c5c([H])c([H])c(Oc6c([H])c([H])c(F)c([H])c6F)c([H])c5[H])c(C(=O)N([H])[H])c4N([H])[H])C3([H])[H])c([H])c([H])c2C1([H])[H]

$$$$
31:0:0
     RDKit          3D

 99106  0  0  1  0  0  0  0  0999 V2000
  -32.2130  -22.5660   17.1050 N   0  0  0  0  0  4  0  0  0  0  0  0
  -33.1490  -22.5060   16.7290 H   0  0  0  0  0  0  0  0  0  0  0  0
  -32.1360  -21.8700   17.8230 H   0  0  0  0  0  0  0  0  0  0  0  0
  -31.2700  -22.2550   16.0090 C   0  0  0  0  0  2  0  0  0  0  0  0
  -29.8760  -21.8200   16.5080 C   0  0  0  0  0  2  0  0  0  0  0  0
  -29.7610  -20.3330   16.8830 C   0  0  0  0  0  2  0  0  0  0  0  0
  -30.3430  -19.9440   18.2540 C   0  0  0  0  0  2  0  0  0  0  0  0
  -30.0950  -17.8890   19.6670 C   0  0  0  0  0  0  0  0  0  0  0  0
  -30.0060  -18.5550   18.5130 N   0  0  0  0  0  0  0  0  0  0  0  0
  -30.6110  -18.3410   20.6930 O   0  0  0  0  0  0  0  0  0  0  0  0
  -29.5860  -18.0510   17.7400 H   0  0  0  0  0  0  0  0  0  0  0  0
  -29.4270  -16.5200   19.6230 C   0  0  0  0  0  2  0  0  0  0  0  0
  -30.5560  -14.6260   20.6130 C   0  0  0  0  0  0  0  0  0  0  0  0
  -30.3800  -12.4410   19.5410 C   0  0  0  0  0  2  0  0  0  0  0  0
  -29.4710  -12.6280   18.3060 C   0  0  0  0  0  2  0  0  0  0  0  0
  -27.9800  -12.4740   18.6800 C   0  0  0  0  0  2  0  0  0  0  0  0
  -27.5830  -13.3010   19.9330 C   0  0  0  0  0  3  0  0  0  0  0  0
  -28.6090  -13.1030   21.0770 C   0  0  0  0  0  2  0  0  0  0  0  0
  -29.9530  -13.4120   20.5560 N   0  0  0  0  0  0  0  0  0  0  0  0
  -31.7050  -14.8480   20.2250 O   0  0  0  0  0  0  0  0  0  0  0  0
  -29.6770  -15.6230   20.7530 N   0  0  0  0  0  0  0  0  0  0  0  0
  -28.8430  -15.3670   21.2560 H   0  0  0  0  0  0  0  0  0  0  0  0
  -25.1550  -13.8750   20.5740 C   0  0  0  0  0  0  0  0  0  0  0  0
  -24.0890  -13.0880   20.9190 C   0  0  0  0  0  0  0  0  0  0  0  0
  -24.5760  -11.7440   20.9080 C   0  0  0  0  0  0  0  0  0  0  0  0
  -26.2200  -13.0110   20.3720 N   0  0  0  0  0  0  0  0  0  0  0  0
  -25.8720  -11.7250   20.6290 N   0  0  0  0  0  0  0  0  0  0  0  0
  -23.8700  -10.4700   21.0880 C   0  0  0  0  0  0  0  0  0  0  0  0
  -24.3010   -9.5130   22.0340 C   0  0  0  0  0  3  0  0  0  0  0  0
  -23.5950   -8.3020   22.2000 C   0  0  0  0  0  3  0  0  0  0  0  0
  -22.4450   -8.0380   21.4170 C   0  0  0  0  0  0  0  0  0  0  0  0
  -22.0340   -8.9830   20.4620 C   0  0  0  0  0  3  0  0  0  0  0  0
  -22.7420  -10.1860   20.2950 C   0  0  0  0  0  3  0  0  0  0  0  0
  -21.7170   -6.8740   21.4860 O   0  0  0  0  0  0  0  0  0  0  0  0
  -21.6600   -6.1300   22.6370 C   0  0  0  0  0  0  0  0  0  0  0  0
  -21.1820   -6.6700   23.8510 C   0  0  0  0  0  3  0  0  0  0  0  0
  -21.0710   -5.8520   24.9910 C   0  0  0  0  0  3  0  0  0  0  0  0
  -21.4300   -4.4920   24.9230 C   0  0  0  0  0  0  0  0  0  0  0  0
  -21.9030   -3.9510   23.7160 C   0  0  0  0  0  3  0  0  0  0  0  0
  -22.0140   -4.7670   22.5760 C   0  0  0  0  0  0  0  0  0  0  0  0
  -22.4500   -4.2340   21.4080 F   0  0  0  0  0  0  0  0  0  0  0  0
  -21.3180   -3.7040   26.0180 F   0  0  0  0  0  0  0  0  0  0  0  0
  -22.6770  -13.5440   21.1510 C   0  0  0  0  0  0  0  0  0  0  0  0
  -21.9330  -12.8390   21.9940 N   0  0  0  0  0  0  0  0  0  0  0  0
  -22.2380  -14.5620   20.6200 O   0  0  0  0  0  0  0  0  0  0  0  0
  -22.3000  -12.0200   22.4540 H   0  0  0  0  0  0  0  0  0  0  0  0
  -20.9840  -13.1280   22.1860 H   0  0  0  0  0  0  0  0  0  0  0  0
  -25.3060  -15.2500   20.3980 N   0  0  0  0  0  0  0  0  0  0  0  0
  -24.5340  -15.8990   20.4750 H   0  0  0  0  0  0  0  0  0  0  0  0
  -26.1620  -15.6860   20.0840 H   0  0  0  0  0  0  0  0  0  0  0  0
  -32.0360  -23.9280   17.6570 C   0  0  0  0  0  2  0  0  0  0  0  0
  -32.9100  -24.2250   18.8970 C   0  0  0  0  0  2  0  0  0  0  0  0
  -32.1170  -24.4040   20.2120 C   0  0  0  0  0  2  0  0  0  0  0  0
  -31.2030  -25.5700   20.1750 N   0  0  0  0  0  4  0  0  0  0  0  0
  -30.6780  -25.5760   19.3160 H   0  0  0  0  0  0  0  0  0  0  0  0
  -31.7530  -26.4150   20.1950 H   0  0  0  0  0  0  0  0  0  0  0  0
  -30.2180  -25.6020   21.2810 C   0  0  0  0  0  2  0  0  0  0  0  0
  -29.3180  -26.8430   21.2080 C   0  0  0  0  0  2  0  0  0  0  0  0
  -28.4060  -26.6800   20.1230 O   0  0  0  0  0  0  0  0  0  0  0  0
  -24.6200  -31.8530   23.2510 C   0  0  0  0  0  0  0  0  0  0  0  0
  -27.2650  -27.4490   20.1590 C   0  0  0  0  0  0  0  0  0  0  0  0
  -23.4020  -30.4580   21.6040 C   0  0  0  0  0  3  0  0  0  0  0  0
  -24.8520  -28.9220   20.1740 C   0  0  0  0  0  0  0  0  0  0  0  0
  -25.9210  -30.8260   21.3970 C   0  0  0  0  0  2  0  0  0  0  0  0
  -26.0040  -29.4550   20.7610 C   0  0  0  0  0  0  0  0  0  0  0  0
  -27.2080  -28.7260   20.7610 C   0  0  0  0  0  3  0  0  0  0  0  0
  -26.1000  -26.9270   19.5560 C   0  0  0  0  0  3  0  0  0  0  0  0
  -24.8920  -27.6520   19.5690 C   0  0  0  0  0  3  0  0  0  0  0  0
  -23.6060  -29.7760   20.2240 C   0  0  0  0  0  2  0  0  0  0  0  0
  -24.6650  -31.0600   22.1430 N   0  0  0  0  0  0  0  0  0  0  0  0
  -23.5410  -32.1270   23.7950 O   0  0  0  0  0  0  0  0  0  0  0  0
  -22.7550  -29.4360   22.5640 C   0  0  0  0  0  0  0  0  0  0  0  0
  -21.4300  -29.2570   22.4360 N   0  0  0  0  0  0  0  0  0  0  0  0
  -23.4390  -28.8060   23.3750 O   0  0  0  0  0  0  0  0  0  0  0  0
  -20.9400  -29.8140   21.7490 H   0  0  0  0  0  0  0  0  0  0  0  0
  -18.0530  -28.0870   22.9380 C   0  0  0  0  0  0  0  0  0  0  0  0
  -20.6110  -28.3210   23.2060 C   0  0  0  0  0  3  0  0  0  0  0  0
  -20.7020  -26.8930   22.6200 C   0  0  0  0  0  2  0  0  0  0  0  0
  -19.5940  -26.5860   21.6070 C   0  0  0  0  0  2  0  0  0  0  0  0
  -18.2150  -26.7400   22.2560 C   0  0  0  0  0  2  0  0  0  0  0  0
  -19.1780  -28.8370   23.3690 C   0  0  0  0  0  0  0  0  0  0  0  0
  -18.9710  -30.1020   23.9640 C   0  0  0  0  0  3  0  0  0  0  0  0
  -17.6710  -30.6110   24.1360 C   0  0  0  0  0  3  0  0  0  0  0  0
  -16.5590  -29.8570   23.7220 C   0  0  0  0  0  3  0  0  0  0  0  0
  -16.7510  -28.5970   23.1270 C   0  0  0  0  0  3  0  0  0  0  0  0
  -25.9130  -32.4740   23.8680 C   0  0  0  0  0  3  0  0  0  0  0  0
  -25.6180  -33.8750   24.1920 N   0  0  0  0  0  0  0  0  0  0  0  0
  -25.9660  -34.9190   23.4260 C   0  0  0  0  0  0  0  0  0  0  0  0
  -26.6390  -34.8020   22.3980 O   0  0  0  0  0  0  0  0  0  0  0  0
  -25.0230  -34.0420   24.9900 H   0  0  0  0  0  0  0  0  0  0  0  0
  -24.2640  -36.7280   23.0400 C   0  0  0  0  0  1  0  0  0  0  0  0
  -25.4890  -36.3140   23.8710 C   0  0  0  0  0  3  0  0  0  0  0  0
  -27.6210  -37.1730   24.7310 C   0  0  0  0  0  1  0  0  0  0  0  0
  -26.5370  -37.3530   23.7700 N   0  0  0  0  0  0  0  0  0  0  0  0
  -26.1400  -38.2790   23.9080 H   0  0  0  0  0  0  0  0  0  0  0  0
  -26.4250  -31.7020   25.1450 C   0  0  1  0  0  0  0  0  0  0  0  0
  -25.3330  -31.4760   26.2150 C   0  0  0  0  0  1  0  0  0  0  0  0
  -26.9970  -30.3190   24.7510 C   0  0  0  0  0  1  0  0  0  0  0  0
  -27.5870  -32.4870   25.8020 C   0  0  0  0  0  1  0  0  0  0  0  0
  1 51  1  0
  1  3  1  0
  2  1  1  0
  4  5  1  0
  4  1  1  0
  5  6  1  0
  6  7  1  0
  7  9  1  0
  8 10  2  0
  9  8  1  0
 11  9  1  0
 12  8  1  0
 12 21  1  0
 13 21  1  0
 14 19  1  0
 15 16  1  0
 15 14  1  0
 17 16  1  0
 17 26  1  0
 17 18  1  0
 19 13  1  0
 19 18  1  0
 20 13  2  0
 21 22  1  0
 23 24  2  0
 24 43  1  0
 25 24  1  0
 25 28  1  0
 26 23  1  0
 26 27  1  0
 27 25  2  0
 28 29  1  0
 29 30  2  0
 31 34  1  0
 31 30  1  0
 32 31  2  0
 33 32  1  0
 33 28  2  0
 34 35  1  0
 35 36  1  0
 36 37  2  0
 38 37  1  0
 38 42  1  0
 39 38  2  0
 40 35  2  0
 40 39  1  0
 41 40  1  0
 43 44  1  0
 44 47  1  0
 44 46  1  0
 45 43  2  0
 48 49  1  0
 48 23  1  0
 50 48  1  0
 51 52  1  0
 52 53  1  0
 54 56  1  0
 54 53  1  0
 54 57  1  0
 55 54  1  0
 58 57  1  0
 59 61  1  0
 59 58  1  0
 60 71  2  0
 61 66  1  0
 62 70  1  0
 62 72  1  0
 63 69  1  0
 63 65  1  0
 64 70  1  0
 65 66  2  0
 65 64  1  0
 67 68  1  0
 67 61  2  0
 68 63  2  0
 69 62  1  0
 70 60  1  0
 72 74  2  0
 73 72  1  0
 75 73  1  0
 76 85  2  0
 76 81  1  0
 77 73  1  0
 77 81  1  0
 78 77  1  0
 79 80  1  0
 79 78  1  0
 80 76  1  0
 81 82  2  0
 82 83  1  0
 84 83  2  0
 85 84  1  0
 86 60  1  0
 86 87  1  0
 86 96  1  0
 87 90  1  0
 88 92  1  0
 88 87  1  0
 89 88  2  0
 92 91  1  0
 94 92  1  0
 94 95  1  0
 94 93  1  0
 96 99  1  1
 96 97  1  0
 98 96  1  0
M  ISO  4  13 100  21 100  58 101  59 101
M  END
>  <TORSDO>  (32) 
F 28

>  <SCORE>  (32) 
-11.257

>  <name>  (32) 
31

>  <ligand_id>  (32) 
31

>  <original_smiles>  (32) 
[H]c1c([H])c([H])c2c(c1[H])C([H])([H])C([H])([H])C([H])([H])C2([H])N([H])C(=O)C1([H])N(C(=O)C([H])(N([H])C(=O)C([H])(N([H])C([H])([H])[H])C([H])([H])[H])C(C([H])([H])[H])(C([H])([H])[H])C([H])([H])[H])C([H])([H])c2c([H])c(OC([H])([H])C([H])([H])[N+]([H])([H])C([H])([H])C([H])([H])C([H])([H])[N+]([H])([H])C([H])([H])C([H])([H])C([H])([H])C([H])([H])N([H])C(=O)C([H])([H])N([H])C(=O)N3C([H])([H])C([H])([H])C([H])([H])C([H])(n4nc(-c5c([H])c([H])c(Oc6c([H])c([H])c(F)c([H])c6F)c([H])c5[H])c(C(=O)N([H])[H])c4N([H])[H])C3([H])[H])c([H])c([H])c2C1([H])[H]

>  <smiles>  (32) 
[H]c1c([H])c([H])c2c(c1[H])C([H])([H])C([H])([H])C([H])([H])C2([H])N([H])C(=O)C1([H])N(C(=O)C([H])(N([H])C(=O)C([H])(N([H])C([H])([H])[H])C([H])([H])[H])C(C([H])([H])[H])(C([H])([H])[H])C([H])([H])[H])C([H])([H])c2c([H])c(OC([H])([H])C([H])([H])[N+]([H])([H])C([H])([H])C([H])([H])C([H])([H])[N+]([H])([H])C([H])([H])C([H])([H])C([H])([H])C([H])([H])N([H])C(=O)C([H])([H])N([H])C(=O)N3C([H])([H])C([H])([H])C([H])([H])C([H])(n4nc(-c5c([H])c([H])c(Oc6c([H])c([H])c(F)c([H])c6F)c([H])c5[H])c(C(=O)N([H])[H])c4N([H])[H])C3([H])[H])c([H])c([H])c2C1([H])[H]

$$$$
32:0:0
     RDKit          3D

 91 98  0  0  1  0  0  0  0  0999 V2000
  -28.4960  -21.8070   20.2590 C   0  0  0  0  0  0  0  0  0  0  0  0
  -28.5380  -22.9880   20.9140 N   0  0  0  0  0  0  0  0  0  0  0  0
  -28.1330  -21.7180   19.0830 O   0  0  0  0  0  0  0  0  0  0  0  0
  -28.9290  -22.9440   21.8470 H   0  0  0  0  0  0  0  0  0  0  0  0
  -28.8320  -20.5240   21.0750 C   0  0  0  0  0  2  0  0  0  0  0  0
  -29.2490  -18.0670   20.6440 C   0  0  0  0  0  0  0  0  0  0  0  0
  -29.4360  -19.3760   20.3520 N   0  0  0  0  0  0  0  0  0  0  0  0
  -28.4070  -17.6930   21.4640 O   0  0  0  0  0  0  0  0  0  0  0  0
  -30.1100  -19.6100   19.6370 H   0  0  0  0  0  0  0  0  0  0  0  0
  -30.1410  -17.0080   19.9510 C   0  0  0  0  0  2  0  0  0  0  0  0
  -30.6560  -14.5430   20.0410 C   0  0  0  0  0  0  0  0  0  0  0  0
  -30.3410  -12.3650   18.9340 C   0  0  0  0  0  2  0  0  0  0  0  0
  -29.3500  -12.5980   17.7740 C   0  0  0  0  0  2  0  0  0  0  0  0
  -27.8950  -12.4590   18.2670 C   0  0  0  0  0  2  0  0  0  0  0  0
  -27.6190  -13.2600   19.5680 C   0  0  0  0  0  3  0  0  0  0  0  0
  -28.7280  -13.0200   20.6180 C   0  0  0  0  0  2  0  0  0  0  0  0
  -30.0150  -13.3420   19.9860 N   0  0  0  0  0  0  0  0  0  0  0  0
  -31.7900  -14.7070   19.5830 O   0  0  0  0  0  0  0  0  0  0  0  0
  -29.8890  -15.6060   20.3700 N   0  0  0  0  0  0  0  0  0  0  0  0
  -28.9790  -15.4270   20.7710 H   0  0  0  0  0  0  0  0  0  0  0  0
  -25.2580  -13.8510   20.3980 C   0  0  0  0  0  0  0  0  0  0  0  0
  -24.2070  -13.0750   20.8070 C   0  0  0  0  0  0  0  0  0  0  0  0
  -24.6660  -11.7240   20.7350 C   0  0  0  0  0  0  0  0  0  0  0  0
  -26.2900  -12.9740   20.1060 N   0  0  0  0  0  0  0  0  0  0  0  0
  -25.9400  -11.6880   20.3650 N   0  0  0  0  0  0  0  0  0  0  0  0
  -23.9480  -10.4590   20.9420 C   0  0  0  0  0  0  0  0  0  0  0  0
  -24.3990   -9.4970   21.8720 C   0  0  0  0  0  3  0  0  0  0  0  0
  -23.6810   -8.2970   22.0670 C   0  0  0  0  0  3  0  0  0  0  0  0
  -22.4980   -8.0490   21.3290 C   0  0  0  0  0  0  0  0  0  0  0  0
  -22.0670   -9.0000   20.3880 C   0  0  0  0  0  3  0  0  0  0  0  0
  -22.7860  -10.1910   20.1930 C   0  0  0  0  0  3  0  0  0  0  0  0
  -21.7520   -6.9000   21.4320 O   0  0  0  0  0  0  0  0  0  0  0  0
  -21.6910   -6.1840   22.6000 C   0  0  0  0  0  0  0  0  0  0  0  0
  -21.2530   -6.7670   23.8090 C   0  0  0  0  0  3  0  0  0  0  0  0
  -21.1400   -5.9740   24.9700 C   0  0  0  0  0  3  0  0  0  0  0  0
  -21.4540   -4.6040   24.9240 C   0  0  0  0  0  0  0  0  0  0  0  0
  -21.8870   -4.0230   23.7190 C   0  0  0  0  0  3  0  0  0  0  0  0
  -22.0020   -4.8110   22.5610 C   0  0  0  0  0  0  0  0  0  0  0  0
  -22.3980   -4.2410   21.3970 F   0  0  0  0  0  0  0  0  0  0  0  0
  -21.3380   -3.8420   26.0360 F   0  0  0  0  0  0  0  0  0  0  0  0
  -22.8260  -13.5510   21.1500 C   0  0  0  0  0  0  0  0  0  0  0  0
  -22.1380  -12.8460   22.0430 N   0  0  0  0  0  0  0  0  0  0  0  0
  -22.3640  -14.5830   20.6640 O   0  0  0  0  0  0  0  0  0  0  0  0
  -22.5230  -12.0130   22.4610 H   0  0  0  0  0  0  0  0  0  0  0  0
  -21.2130  -13.1480   22.3150 H   0  0  0  0  0  0  0  0  0  0  0  0
  -25.4140  -15.2240   20.2320 N   0  0  0  0  0  0  0  0  0  0  0  0
  -24.6560  -15.8770   20.3890 H   0  0  0  0  0  0  0  0  0  0  0  0
  -26.2530  -15.6700   19.8860 H   0  0  0  0  0  0  0  0  0  0  0  0
  -27.8310  -24.2590   20.6120 C   0  0  0  0  0  2  0  0  0  0  0  0
  -28.5580  -25.3200   19.7270 C   0  0  0  0  0  2  0  0  0  0  0  0
  -28.4480  -26.6950   20.1850 O   0  0  0  0  0  0  0  0  0  0  0  0
  -24.6030  -31.8790   23.2260 C   0  0  0  0  0  0  0  0  0  0  0  0
  -27.2540  -27.4030   20.1490 C   0  0  0  0  0  0  0  0  0  0  0  0
  -23.3970  -30.4710   21.5870 C   0  0  0  0  0  3  0  0  0  0  0  0
  -24.8510  -28.9220   20.1670 C   0  0  0  0  0  0  0  0  0  0  0  0
  -25.9240  -30.8230   21.3880 C   0  0  0  0  0  2  0  0  0  0  0  0
  -26.0090  -29.4460   20.7540 C   0  0  0  0  0  0  0  0  0  0  0  0
  -27.2080  -28.6930   20.7410 C   0  0  0  0  0  3  0  0  0  0  0  0
  -26.0770  -26.9040   19.5490 C   0  0  0  0  0  3  0  0  0  0  0  0
  -24.8810  -27.6510   19.5650 C   0  0  0  0  0  3  0  0  0  0  0  0
  -23.6060  -29.7810   20.2110 C   0  0  0  0  0  2  0  0  0  0  0  0
  -24.6600  -31.0740   22.1250 N   0  0  0  0  0  0  0  0  0  0  0  0
  -23.5190  -32.1530   23.7650 O   0  0  0  0  0  0  0  0  0  0  0  0
  -22.7440  -29.4580   22.5530 C   0  0  0  0  0  0  0  0  0  0  0  0
  -21.4220  -29.2630   22.4170 N   0  0  0  0  0  0  0  0  0  0  0  0
  -23.4250  -28.8460   23.3800 O   0  0  0  0  0  0  0  0  0  0  0  0
  -20.9340  -29.8020   21.7150 H   0  0  0  0  0  0  0  0  0  0  0  0
  -18.0620  -28.0210   22.8780 C   0  0  0  0  0  0  0  0  0  0  0  0
  -20.6090  -28.3250   23.1890 C   0  0  0  0  0  3  0  0  0  0  0  0
  -20.7450  -26.8880   22.6360 C   0  0  0  0  0  2  0  0  0  0  0  0
  -19.6680  -26.5310   21.6080 C   0  0  0  0  0  2  0  0  0  0  0  0
  -18.2720  -26.6650   22.2250 C   0  0  0  0  0  2  0  0  0  0  0  0
  -19.1610  -28.8070   23.3160 C   0  0  0  0  0  0  0  0  0  0  0  0
  -18.9130  -30.0750   23.8850 C   0  0  0  0  0  3  0  0  0  0  0  0
  -17.5990  -30.5580   24.0230 C   0  0  0  0  0  3  0  0  0  0  0  0
  -16.5130  -29.7700   23.6020 C   0  0  0  0  0  3  0  0  0  0  0  0
  -16.7460  -28.5030   23.0350 C   0  0  0  0  0  3  0  0  0  0  0  0
  -25.8870  -32.5140   23.8440 C   0  0  0  0  0  3  0  0  0  0  0  0
  -25.5770  -33.9120   24.1720 N   0  0  0  0  0  0  0  0  0  0  0  0
  -25.9100  -34.9650   23.4130 C   0  0  0  0  0  0  0  0  0  0  0  0
  -26.5820  -34.8610   22.3830 O   0  0  0  0  0  0  0  0  0  0  0  0
  -24.9820  -34.0670   24.9730 H   0  0  0  0  0  0  0  0  0  0  0  0
  -24.1820  -36.7560   23.0520 C   0  0  0  0  0  1  0  0  0  0  0  0
  -25.4200  -36.3530   23.8680 C   0  0  0  0  0  3  0  0  0  0  0  0
  -27.5520  -37.2400   24.7040 C   0  0  0  0  0  1  0  0  0  0  0  0
  -26.4520  -37.4070   23.7570 N   0  0  0  0  0  0  0  0  0  0  0  0
  -26.0440  -38.3260   23.9030 H   0  0  0  0  0  0  0  0  0  0  0  0
  -26.4090  -31.7450   25.1190 C   0  0  1  0  0  0  0  0  0  0  0  0
  -25.3220  -31.5040   26.1930 C   0  0  0  0  0  1  0  0  0  0  0  0
  -26.9940  -30.3690   24.7240 C   0  0  0  0  0  1  0  0  0  0  0  0
  -27.5580  -32.5440   25.7780 C   0  0  0  0  0  1  0  0  0  0  0  0
  1  2  1  0
  1  5  1  0
  2  4  1  0
  3  1  2  0
  6  8  2  0
  7  6  1  0
  7  5  1  0
  9  7  1  0
 10 19  1  0
 10  6  1  0
 11 19  1  0
 12 17  1  0
 13 14  1  0
 13 12  1  0
 15 14  1  0
 15 24  1  0
 15 16  1  0
 17 11  1  0
 17 16  1  0
 18 11  2  0
 19 20  1  0
 21 22  2  0
 22 41  1  0
 23 22  1  0
 23 26  1  0
 24 25  1  0
 24 21  1  0
 25 23  2  0
 26 27  1  0
 27 28  2  0
 29 32  1  0
 29 28  1  0
 30 29  2  0
 31 30  1  0
 31 26  2  0
 32 33  1  0
 33 34  1  0
 34 35  2  0
 36 35  1  0
 36 40  1  0
 37 36  2  0
 38 33  2  0
 38 37  1  0
 39 38  1  0
 41 42  1  0
 42 45  1  0
 42 44  1  0
 43 41  2  0
 46 47  1  0
 46 21  1  0
 48 46  1  0
 49  2  1  0
 50 51  1  0
 50 49  1  0
 52 63  2  0
 53 51  1  0
 53 58  1  0
 54 62  1  0
 54 64  1  0
 55 61  1  0
 55 57  1  0
 56 62  1  0
 57 56  1  0
 58 57  2  0
 59 60  1  0
 59 53  2  0
 60 55  2  0
 61 54  1  0
 62 52  1  0
 64 66  2  0
 65 64  1  0
 67 65  1  0
 68 77  2  0
 68 73  1  0
 69 65  1  0
 69 73  1  0
 70 69  1  0
 71 72  1  0
 71 70  1  0
 72 68  1  0
 73 74  2  0
 74 75  1  0
 76 75  2  0
 77 76  1  0
 78 52  1  0
 78 79  1  0
 78 88  1  0
 79 82  1  0
 80 84  1  0
 80 79  1  0
 81 80  2  0
 84 83  1  0
 86 84  1  0
 86 87  1  0
 86 85  1  0
 88 91  1  1
 88 89  1  0
 90 88  1  0
M  ISO  4  11 100  19 100  50 101  51 101
M  END
>  <TORSDO>  (33) 
F 21

>  <SCORE>  (33) 
-12.796

>  <name>  (33) 
32

>  <ligand_id>  (33) 
32

>  <original_smiles>  (33) 
[H]c1c([H])c([H])c2c(c1[H])C([H])([H])C([H])([H])C([H])([H])C2([H])N([H])C(=O)C1([H])N(C(=O)C([H])(N([H])C(=O)C([H])(N([H])C([H])([H])[H])C([H])([H])[H])C(C([H])([H])[H])(C([H])([H])[H])C([H])([H])[H])C([H])([H])c2c([H])c(OC([H])([H])C([H])([H])N([H])C(=O)C([H])([H])N([H])C(=O)C([H])([H])N([H])C(=O)N3C([H])([H])C([H])([H])C([H])([H])C([H])(n4nc(-c5c([H])c([H])c(Oc6c([H])c([H])c(F)c([H])c6F)c([H])c5[H])c(C(=O)N([H])[H])c4N([H])[H])C3([H])[H])c([H])c([H])c2C1([H])[H]

>  <smiles>  (33) 
[H]c1c([H])c([H])c2c(c1[H])C([H])([H])C([H])([H])C([H])([H])C2([H])N([H])C(=O)C1([H])N(C(=O)C([H])(N([H])C(=O)C([H])(N([H])C([H])([H])[H])C([H])([H])[H])C(C([H])([H])[H])(C([H])([H])[H])C([H])([H])[H])C([H])([H])c2c([H])c(OC([H])([H])C([H])([H])N([H])C(=O)C([H])([H])N([H])C(=O)C([H])([H])N([H])C(=O)N3C([H])([H])C([H])([H])C([H])([H])C([H])(n4nc(-c5c([H])c([H])c(Oc6c([H])c([H])c(F)c([H])c6F)c([H])c5[H])c(C(=O)N([H])[H])c4N([H])[H])C3([H])[H])c([H])c([H])c2C1([H])[H]

$$$$
33:0:0
     RDKit          3D

106113  0  0  1  0  0  0  0  0999 V2000
  -24.9330  -18.7100   18.1860 C   0  0  0  0  0  3  0  0  0  0  0  0
  -23.7600  -17.7570   18.4370 C   0  0  0  0  0  0  0  0  0  0  0  0
  -23.9980  -16.6250   19.1100 N   0  0  0  0  0  0  0  0  0  0  0  0
  -22.6540  -18.0250   17.9590 O   0  0  0  0  0  0  0  0  0  0  0  0
  -24.9230  -16.4880   19.4990 H   0  0  0  0  0  0  0  0  0  0  0  0
  -23.0540  -15.5170   19.2350 C   0  0  0  0  0  2  0  0  0  0  0  0
  -22.7680  -15.1560   20.7000 C   0  0  0  0  0  2  0  0  0  0  0  0
  -21.9490  -13.2640   22.2270 C   0  0  0  0  0  1  0  0  0  0  0  0
  -22.0180  -13.8180   20.8020 C   0  0  0  0  0  2  0  0  0  0  0  0
  -24.3770  -20.0260   17.8000 N   0  0  0  0  0  4  0  0  0  0  0  0
  -23.7330  -19.7820   17.0570 H   0  0  0  0  0  0  0  0  0  0  0  0
  -23.8170  -20.4120   18.5410 H   0  0  0  0  0  0  0  0  0  0  0  0
  -25.3650  -21.0060   17.2890 C   0  0  0  0  0  2  0  0  0  0  0  0
  -26.0600  -21.7850   18.4260 C   0  0  0  0  0  2  0  0  0  0  0  0
  -27.4290  -22.3430   18.0400 C   0  0  0  0  0  2  0  0  0  0  0  0
  -27.9570  -22.9710   19.1970 O   0  0  0  0  0  0  0  0  0  0  0  0
  -29.0670  -23.8100   18.9280 C   0  0  0  0  0  2  0  0  0  0  0  0
  -29.3070  -24.6590   20.1840 C   0  0  0  0  0  2  0  0  0  0  0  0
  -29.7370  -26.0950   19.8530 C   0  0  0  0  0  2  0  0  0  0  0  0
  -29.2990  -26.9950   20.8630 O   0  0  0  0  0  0  0  0  0  0  0  0
  -24.7850  -31.8010   23.4700 C   0  0  0  0  0  0  0  0  0  0  0  0
  -28.0490  -27.5630   20.7350 C   0  0  0  0  0  0  0  0  0  0  0  0
  -23.8510  -30.2950   21.7450 C   0  0  0  0  0  3  0  0  0  0  0  0
  -25.5440  -28.8500   20.5010 C   0  0  0  0  0  0  0  0  0  0  0  0
  -26.3480  -30.8380   21.7920 C   0  0  0  0  0  2  0  0  0  0  0  0
  -26.5900  -29.4670   21.1990 C   0  0  0  0  0  0  0  0  0  0  0  0
  -27.8350  -28.8210   21.3340 C   0  0  0  0  0  3  0  0  0  0  0  0
  -26.9840  -26.9560   20.0280 C   0  0  0  0  0  3  0  0  0  0  0  0
  -25.7320  -27.5860   19.9200 C   0  0  0  0  0  3  0  0  0  0  0  0
  -24.2430  -29.6090   20.4100 C   0  0  0  0  0  2  0  0  0  0  0  0
  -25.0060  -30.9920   22.3960 N   0  0  0  0  0  0  0  0  0  0  0  0
  -23.6390  -32.0050   23.8910 O   0  0  0  0  0  0  0  0  0  0  0  0
  -23.1780  -29.2450   22.6580 C   0  0  0  0  0  0  0  0  0  0  0  0
  -21.8810  -28.9920   22.4210 N   0  0  0  0  0  0  0  0  0  0  0  0
  -23.8250  -28.6610   23.5310 O   0  0  0  0  0  0  0  0  0  0  0  0
  -21.4170  -29.5190   21.6950 H   0  0  0  0  0  0  0  0  0  0  0  0
  -18.5270  -27.6720   22.6900 C   0  0  0  0  0  0  0  0  0  0  0  0
  -21.0510  -28.0130   23.1220 C   0  0  0  0  0  3  0  0  0  0  0  0
  -21.2400  -26.5940   22.5330 C   0  0  0  0  0  2  0  0  0  0  0  0
  -20.2150  -26.2530   21.4470 C   0  0  0  0  0  2  0  0  0  0  0  0
  -18.7920  -26.3400   22.0080 C   0  0  0  0  0  2  0  0  0  0  0  0
  -19.5890  -28.4640   23.2000 C   0  0  0  0  0  0  0  0  0  0  0  0
  -19.2930  -29.7090   23.7950 C   0  0  0  0  0  3  0  0  0  0  0  0
  -17.9650  -30.1650   23.8830 C   0  0  0  0  0  3  0  0  0  0  0  0
  -16.9140  -29.3690   23.3950 C   0  0  0  0  0  3  0  0  0  0  0  0
  -17.1960  -28.1240   22.8050 C   0  0  0  0  0  3  0  0  0  0  0  0
  -25.9560  -32.5280   24.2010 C   0  0  0  0  0  3  0  0  0  0  0  0
  -26.3520  -31.8490   25.5700 C   0  0  1  0  0  0  0  0  0  0  0  0
  -25.1490  -31.5640   26.4980 C   0  0  0  0  0  1  0  0  0  0  0  0
  -27.0850  -30.5100   25.3190 C   0  0  0  0  0  1  0  0  0  0  0  0
  -27.3410  -32.7540   26.3390 C   0  0  0  0  0  1  0  0  0  0  0  0
  -25.5470  -33.9240   24.4140 N   0  0  0  0  0  0  0  0  0  0  0  0
  -25.9320  -34.9520   23.6450 C   0  0  0  0  0  0  0  0  0  0  0  0
  -26.7350  -34.8290   22.7150 O   0  0  0  0  0  0  0  0  0  0  0  0
  -24.8570  -34.0910   25.1310 H   0  0  0  0  0  0  0  0  0  0  0  0
  -24.1920  -36.6280   22.9650 C   0  0  0  0  0  1  0  0  0  0  0  0
  -25.3300  -36.3340   23.9550 C   0  0  0  0  0  3  0  0  0  0  0  0
  -27.3020  -37.3620   24.9930 C   0  0  0  0  0  1  0  0  0  0  0  0
  -26.3210  -37.4310   23.9150 N   0  0  0  0  0  0  0  0  0  0  0  0
  -25.8600  -38.3350   23.9600 H   0  0  0  0  0  0  0  0  0  0  0  0
  -25.9160  -18.8080   19.3960 C   0  0  0  0  0  2  0  0  0  0  0  0
  -27.3440  -18.3140   19.0960 C   0  0  0  0  0  0  0  0  0  0  0  0
  -28.1950  -18.2660   20.1330 N   0  0  0  0  0  0  0  0  0  0  0  0
  -27.6720  -17.9710   17.9590 O   0  0  0  0  0  0  0  0  0  0  0  0
  -27.8400  -18.5540   21.0370 H   0  0  0  0  0  0  0  0  0  0  0  0
  -29.5790  -17.7900   20.0880 C   0  0  0  0  0  2  0  0  0  0  0  0
  -29.8380  -16.6370   21.0870 C   0  0  0  0  0  2  0  0  0  0  0  0
  -31.2730  -16.0730   21.0450 C   0  0  0  0  0  2  0  0  0  0  0  0
  -32.1880  -14.2880   19.5310 C   0  0  0  0  0  0  0  0  0  0  0  0
  -31.7300  -11.9640   18.8690 C   0  0  0  0  0  2  0  0  0  0  0  0
  -30.5970  -11.9450   17.8230 C   0  0  0  0  0  2  0  0  0  0  0  0
  -29.2170  -11.9020   18.5050 C   0  0  0  0  0  2  0  0  0  0  0  0
  -29.0700  -12.9680   19.6250 C   0  0  0  0  0  3  0  0  0  0  0  0
  -30.2980  -12.9480   20.5620 C   0  0  0  0  0  2  0  0  0  0  0  0
  -31.5060  -13.1290   19.7410 N   0  0  0  0  0  0  0  0  0  0  0  0
  -33.1950  -14.3550   18.8280 O   0  0  0  0  0  0  0  0  0  0  0  0
  -31.5270  -15.4270   19.7590 N   0  0  0  0  0  0  0  0  0  0  0  0
  -31.8300  -16.1120   19.0820 H   0  0  0  0  0  0  0  0  0  0  0  0
  -27.1470  -13.7050   21.1670 C   0  0  0  0  0  0  0  0  0  0  0  0
  -25.9950  -13.0890   21.5640 C   0  0  0  0  0  0  0  0  0  0  0  0
  -26.0200  -11.8010   20.9570 C   0  0  0  0  0  0  0  0  0  0  0  0
  -27.8190  -12.8010   20.3640 N   0  0  0  0  0  0  0  0  0  0  0  0
  -27.1460  -11.6270   20.2780 N   0  0  0  0  0  0  0  0  0  0  0  0
  -25.0000  -10.7470   20.9290 C   0  0  0  0  0  0  0  0  0  0  0  0
  -25.2150   -9.4980   21.5520 C   0  0  0  0  0  3  0  0  0  0  0  0
  -24.2170   -8.5030   21.5230 C   0  0  0  0  0  3  0  0  0  0  0  0
  -22.9880   -8.7530   20.8670 C   0  0  0  0  0  0  0  0  0  0  0  0
  -22.7890   -9.9880   20.2280 C   0  0  0  0  0  3  0  0  0  0  0  0
  -23.7820  -10.9790   20.2610 C   0  0  0  0  0  3  0  0  0  0  0  0
  -21.9700   -7.8410   20.7610 O   0  0  0  0  0  0  0  0  0  0  0  0
  -21.5730   -7.0860   21.8330 C   0  0  0  0  0  0  0  0  0  0  0  0
  -21.0630   -7.6730   23.0130 C   0  0  0  0  0  3  0  0  0  0  0  0
  -20.5990   -6.8540   24.0630 C   0  0  0  0  0  3  0  0  0  0  0  0
  -20.6380   -5.4530   23.9350 C   0  0  0  0  0  0  0  0  0  0  0  0
  -21.1450   -4.8670   22.7610 C   0  0  0  0  0  3  0  0  0  0  0  0
  -21.6070   -5.6810   21.7130 C   0  0  0  0  0  0  0  0  0  0  0  0
  -22.0730   -5.1120   20.5740 F   0  0  0  0  0  0  0  0  0  0  0  0
  -20.1830   -4.6690   24.9380 F   0  0  0  0  0  0  0  0  0  0  0  0
  -24.9000  -13.7040   22.3870 C   0  0  0  0  0  0  0  0  0  0  0  0
  -24.1460  -12.8880   23.1140 N   0  0  0  0  0  0  0  0  0  0  0  0
  -24.7430  -14.9210   22.4400 O   0  0  0  0  0  0  0  0  0  0  0  0
  -24.2840  -11.8900   23.1040 H   0  0  0  0  0  0  0  0  0  0  0  0
  -23.4190  -13.2780   23.6970 H   0  0  0  0  0  0  0  0  0  0  0  0
  -27.6530  -14.9630   21.4140 N   0  0  0  0  0  0  0  0  0  0  0  0
  -27.1830  -15.5750   22.0670 H   0  0  0  0  0  0  0  0  0  0  0  0
  -28.5890  -15.2570   21.1640 H   0  0  0  0  0  0  0  0  0  0  0  0
  1  2  1  0
  1 61  1  0
  2  3  1  0
  3  6  1  0
  3  5  1  0
  4  2  2  0
  6  7  1  0
  7  9  1  0
  9  8  1  0
 10  1  1  0
 10 12  1  0
 11 10  1  0
 13 10  1  0
 13 14  1  0
 15 14  1  0
 15 16  1  0
 17 16  1  0
 17 18  1  0
 19 18  1  0
 19 20  1  0
 21 32  2  0
 22 20  1  0
 22 27  1  0
 23 31  1  0
 23 33  1  0
 24 26  1  0
 25 31  1  0
 26 27  2  0
 26 25  1  0
 28 22  2  0
 29 28  1  0
 29 24  2  0
 30 24  1  0
 30 23  1  0
 31 21  1  0
 33 35  2  0
 34 33  1  0
 36 34  1  0
 37 46  2  0
 37 42  1  0
 38 34  1  0
 38 42  1  0
 39 38  1  0
 40 41  1  0
 40 39  1  0
 41 37  1  0
 42 43  2  0
 43 44  1  0
 45 44  2  0
 46 45  1  0
 47 21  1  0
 47 52  1  0
 47 48  1  0
 48 51  1  1
 48 49  1  0
 50 48  1  0
 52 55  1  0
 53 57  1  0
 53 52  1  0
 54 53  2  0
 57 56  1  0
 59 57  1  0
 59 60  1  0
 59 58  1  0
 62 61  1  0
 62 63  1  0
 63 65  1  0
 64 62  2  0
 66 63  1  0
 66 67  1  0
 68 67  1  0
 69 75  1  0
 69 77  1  0
 70 75  1  0
 71 72  1  0
 71 70  1  0
 73 72  1  0
 73 82  1  0
 73 74  1  0
 75 74  1  0
 76 69  2  0
 77 68  1  0
 78 77  1  0
 79104  1  0
 79 80  2  0
 80 99  1  0
 81 80  1  0
 82 79  1  0
 83 82  1  0
 83 81  2  0
 84 81  1  0
 84 85  1  0
 86 85  2  0
 87 86  1  0
 88 89  1  0
 88 87  2  0
 89 84  2  0
 90 87  1  0
 90 91  1  0
 91 92  1  0
 92 93  2  0
 94 93  1  0
 94 98  1  0
 95 94  2  0
 96 91  2  0
 96 95  1  0
 97 96  1  0
 99101  2  0
 99100  1  0
100103  1  0
102100  1  0
104105  1  0
106104  1  0
M  ISO  4  19 101  20 101  69 100  77 100
M  END
>  <TORSDO>  (34) 
F 33

>  <SCORE>  (34) 
2.249

>  <name>  (34) 
33

>  <ligand_id>  (34) 
33

>  <original_smiles>  (34) 
[H]c1c([H])c([H])c2c(c1[H])C([H])([H])C([H])([H])C([H])([H])C2([H])N([H])C(=O)C1([H])N(C(=O)C([H])(N([H])C(=O)C([H])(N([H])C([H])([H])[H])C([H])([H])[H])C(C([H])([H])[H])(C([H])([H])[H])C([H])([H])[H])C([H])([H])c2c([H])c(OC([H])([H])C([H])([H])C([H])([H])OC([H])([H])C([H])([H])C([H])([H])[N+]([H])([H])C([H])(C(=O)N([H])C([H])([H])C([H])([H])C([H])([H])C([H])([H])[H])C([H])([H])C(=O)N([H])C([H])([H])C([H])([H])C([H])([H])N([H])C(=O)N3C([H])([H])C([H])([H])C([H])([H])C([H])(n4nc(-c5c([H])c([H])c(Oc6c([H])c([H])c(F)c([H])c6F)c([H])c5[H])c(C(=O)N([H])[H])c4N([H])[H])C3([H])[H])c([H])c([H])c2C1([H])[H]

>  <smiles>  (34) 
[H]c1c([H])c([H])c2c(c1[H])C([H])([H])C([H])([H])C([H])([H])C2([H])N([H])C(=O)C1([H])N(C(=O)C([H])(N([H])C(=O)C([H])(N([H])C([H])([H])[H])C([H])([H])[H])C(C([H])([H])[H])(C([H])([H])[H])C([H])([H])[H])C([H])([H])c2c([H])c(OC([H])([H])C([H])([H])C([H])([H])OC([H])([H])C([H])([H])C([H])([H])[N+]([H])([H])C([H])(C(=O)N([H])C([H])([H])C([H])([H])C([H])([H])C([H])([H])[H])C([H])([H])C(=O)N([H])C([H])([H])C([H])([H])C([H])([H])N([H])C(=O)N3C([H])([H])C([H])([H])C([H])([H])C([H])(n4nc(-c5c([H])c([H])c(Oc6c([H])c([H])c(F)c([H])c6F)c([H])c5[H])c(C(=O)N([H])[H])c4N([H])[H])C3([H])[H])c([H])c([H])c2C1([H])[H]

$$$$
34:0:0
     RDKit          3D

100107  0  0  1  0  0  0  0  0999 V2000
  -26.1020  -23.4550   16.4880 N   0  0  0  0  0  4  0  0  0  0  0  0
  -25.7280  -24.0180   17.2340 H   0  0  0  0  0  0  0  0  0  0  0  0
  -25.3960  -22.7820   16.2350 H   0  0  0  0  0  0  0  0  0  0  0  0
  -26.3200  -24.3270   15.3110 C   0  0  0  0  0  2  0  0  0  0  0  0
  -27.1250  -25.6040   15.6460 C   0  0  0  0  0  2  0  0  0  0  0  0
  -28.5570  -25.3140   15.7050 N   0  0  0  0  0  0  0  0  0  0  0  0
  -28.7640  -24.6800   16.4650 H   0  0  0  0  0  0  0  0  0  0  0  0
  -29.3630  -26.5180   15.8680 C   0  0  0  0  0  2  0  0  0  0  0  0
  -29.9440  -26.6500   17.2840 C   0  0  0  0  0  2  0  0  0  0  0  0
  -28.9050  -26.5370   18.4080 C   0  0  0  0  0  2  0  0  0  0  0  0
  -29.4980  -26.8960   19.7840 C   0  0  0  0  0  2  0  0  0  0  0  0
  -28.5890  -26.5920   20.8360 O   0  0  0  0  0  0  0  0  0  0  0  0
  -24.7510  -31.9070   23.5620 C   0  0  0  0  0  0  0  0  0  0  0  0
  -27.4360  -27.3250   20.8020 C   0  0  0  0  0  0  0  0  0  0  0  0
  -23.5820  -30.4400   21.9470 C   0  0  0  0  0  3  0  0  0  0  0  0
  -25.0630  -28.8190   20.6580 C   0  0  0  0  0  0  0  0  0  0  0  0
  -26.1140  -30.7700   21.8170 C   0  0  0  0  0  2  0  0  0  0  0  0
  -26.2030  -29.3710   21.2560 C   0  0  0  0  0  0  0  0  0  0  0  0
  -27.3940  -28.6260   21.3370 C   0  0  0  0  0  3  0  0  0  0  0  0
  -26.2860  -26.7640   20.2210 C   0  0  0  0  0  3  0  0  0  0  0  0
  -25.0950  -27.5110   20.1420 C   0  0  0  0  0  3  0  0  0  0  0  0
  -23.8280  -29.6850   20.6140 C   0  0  0  0  0  2  0  0  0  0  0  0
  -24.8310  -31.0570   22.5000 N   0  0  0  0  0  0  0  0  0  0  0  0
  -23.6540  -32.2200   24.0470 O   0  0  0  0  0  0  0  0  0  0  0  0
  -22.8810  -29.4780   22.9310 C   0  0  0  0  0  0  0  0  0  0  0  0
  -21.5830  -29.2310   22.6940 N   0  0  0  0  0  0  0  0  0  0  0  0
  -23.5050  -28.9500   23.8560 O   0  0  0  0  0  0  0  0  0  0  0  0
  -21.1400  -29.7090   21.9210 H   0  0  0  0  0  0  0  0  0  0  0  0
  -18.2460  -27.8600   22.9090 C   0  0  0  0  0  0  0  0  0  0  0  0
  -20.7270  -28.3290   23.4660 C   0  0  0  0  0  3  0  0  0  0  0  0
  -20.9870  -26.8540   23.0840 C   0  0  0  0  0  2  0  0  0  0  0  0
  -20.0500  -26.3400   21.9870 C   0  0  0  0  0  2  0  0  0  0  0  0
  -18.5870  -26.4570   22.4310 C   0  0  0  0  0  2  0  0  0  0  0  0
  -19.2530  -28.7430   23.3800 C   0  0  0  0  0  0  0  0  0  0  0  0
  -18.8890  -30.0460   23.7830 C   0  0  0  0  0  3  0  0  0  0  0  0
  -17.5480  -30.4710   23.7240 C   0  0  0  0  0  3  0  0  0  0  0  0
  -16.5510  -29.5880   23.2750 C   0  0  0  0  0  3  0  0  0  0  0  0
  -16.9000  -28.2850   22.8740 C   0  0  0  0  0  3  0  0  0  0  0  0
  -26.0250  -32.5480   24.1980 C   0  0  0  0  0  3  0  0  0  0  0  0
  -25.7410  -33.9710   24.4220 N   0  0  0  0  0  0  0  0  0  0  0  0
  -26.1280  -34.9610   23.6050 C   0  0  0  0  0  0  0  0  0  0  0  0
  -26.8310  -34.7710   22.6090 O   0  0  0  0  0  0  0  0  0  0  0  0
  -25.1340  -34.1980   25.1940 H   0  0  0  0  0  0  0  0  0  0  0  0
  -24.4550  -36.7540   23.0710 C   0  0  0  0  0  1  0  0  0  0  0  0
  -25.6610  -36.3860   23.9480 C   0  0  0  0  0  3  0  0  0  0  0  0
  -27.7850  -37.2890   24.7860 C   0  0  0  0  0  1  0  0  0  0  0  0
  -26.7220  -37.4050   23.7920 N   0  0  0  0  0  0  0  0  0  0  0  0
  -26.3310  -38.3410   23.8560 H   0  0  0  0  0  0  0  0  0  0  0  0
  -26.4710  -31.8500   25.5430 C   0  0  1  0  0  0  0  0  0  0  0  0
  -25.3240  -31.6830   26.5660 C   0  0  0  0  0  1  0  0  0  0  0  0
  -27.0660  -30.4530   25.2610 C   0  0  0  0  0  1  0  0  0  0  0  0
  -27.5950  -32.6750   26.2140 C   0  0  0  0  0  1  0  0  0  0  0  0
  -27.2990  -22.7150   16.9440 C   0  0  0  0  0  2  0  0  0  0  0  0
  -27.0430  -21.8390   18.1850 C   0  0  0  0  0  2  0  0  0  0  0  0
  -28.3590  -21.2070   18.6600 C   0  0  0  0  0  2  0  0  0  0  0  0
  -28.2310  -20.1960   19.8140 C   0  0  0  0  0  2  0  0  0  0  0  0
  -29.5650  -19.6360   20.1370 N   0  0  0  0  0  4  0  0  0  0  0  0
  -30.0960  -20.3330   20.6350 H   0  0  0  0  0  0  0  0  0  0  0  0
  -30.0350  -19.4570   19.2660 H   0  0  0  0  0  0  0  0  0  0  0  0
  -29.5670  -18.3790   20.9150 C   0  0  0  0  0  2  0  0  0  0  0  0
  -30.9890  -17.7890   21.0200 C   0  0  0  0  0  2  0  0  0  0  0  0
  -31.0970  -16.5470   21.9260 C   0  0  0  0  0  2  0  0  0  0  0  0
  -31.0400  -14.4910   20.4790 C   0  0  0  0  0  0  0  0  0  0  0  0
  -30.6950  -12.3870   19.2330 C   0  0  0  0  0  2  0  0  0  0  0  0
  -29.7350  -12.5980   18.0480 C   0  0  0  0  0  2  0  0  0  0  0  0
  -28.2660  -12.4650   18.4940 C   0  0  0  0  0  2  0  0  0  0  0  0
  -27.9500  -13.3060   19.7580 C   0  0  0  0  0  3  0  0  0  0  0  0
  -29.0060  -13.0500   20.8550 C   0  0  0  0  0  2  0  0  0  0  0  0
  -30.3340  -13.3460   20.2850 N   0  0  0  0  0  0  0  0  0  0  0  0
  -32.1020  -14.7430   19.8980 O   0  0  0  0  0  0  0  0  0  0  0  0
  -30.4880  -15.3440   21.3550 N   0  0  0  0  0  0  0  0  0  0  0  0
  -29.6000  -15.0580   21.7420 H   0  0  0  0  0  0  0  0  0  0  0  0
  -25.5720  -13.9570   20.5010 C   0  0  0  0  0  0  0  0  0  0  0  0
  -24.4950  -13.2040   20.8800 C   0  0  0  0  0  0  0  0  0  0  0  0
  -24.9280  -11.8420   20.8290 C   0  0  0  0  0  0  0  0  0  0  0  0
  -26.5960  -13.0570   20.2470 N   0  0  0  0  0  0  0  0  0  0  0  0
  -26.2110  -11.7790   20.5000 N   0  0  0  0  0  0  0  0  0  0  0  0
  -24.1820  -10.5930   21.0190 C   0  0  0  0  0  0  0  0  0  0  0  0
  -24.5710   -9.6380   21.9850 C   0  0  0  0  0  3  0  0  0  0  0  0
  -23.8250   -8.4530   22.1620 C   0  0  0  0  0  3  0  0  0  0  0  0
  -22.6760   -8.2140   21.3720 C   0  0  0  0  0  0  0  0  0  0  0  0
  -22.3050   -9.1570   20.3960 C   0  0  0  0  0  3  0  0  0  0  0  0
  -23.0510  -10.3340   20.2190 C   0  0  0  0  0  3  0  0  0  0  0  0
  -21.9060   -7.0780   21.4550 O   0  0  0  0  0  0  0  0  0  0  0  0
  -21.7670   -6.3870   22.6320 C   0  0  0  0  0  0  0  0  0  0  0  0
  -21.2260   -6.9880   23.7900 C   0  0  0  0  0  3  0  0  0  0  0  0
  -21.0390   -6.2220   24.9580 C   0  0  0  0  0  3  0  0  0  0  0  0
  -21.3790   -4.8550   24.9670 C   0  0  0  0  0  0  0  0  0  0  0  0
  -21.9140   -4.2550   23.8140 C   0  0  0  0  0  3  0  0  0  0  0  0
  -22.1040   -5.0190   22.6480 C   0  0  0  0  0  0  0  0  0  0  0  0
  -22.5990   -4.4290   21.5330 F   0  0  0  0  0  0  0  0  0  0  0  0
  -21.1910   -4.1180   26.0870 F   0  0  0  0  0  0  0  0  0  0  0  0
  -23.1110  -13.7040   21.1790 C   0  0  0  0  0  0  0  0  0  0  0  0
  -22.3850  -13.0170   22.0520 N   0  0  0  0  0  0  0  0  0  0  0  0
  -22.6830  -14.7420   20.6740 O   0  0  0  0  0  0  0  0  0  0  0  0
  -22.7430  -12.1780   22.4850 H   0  0  0  0  0  0  0  0  0  0  0  0
  -21.4560  -13.3330   22.2950 H   0  0  0  0  0  0  0  0  0  0  0  0
  -25.7600  -15.3260   20.3340 N   0  0  0  0  0  0  0  0  0  0  0  0
  -25.0010  -15.9900   20.4480 H   0  0  0  0  0  0  0  0  0  0  0  0
  -26.6120  -15.7500   19.9910 H   0  0  0  0  0  0  0  0  0  0  0  0
  1 53  1  0
  1  2  1  0
  3  1  1  0
  4  5  1  0
  4  1  1  0
  5  6  1  0
  6  8  1  0
  6  7  1  0
  8  9  1  0
  9 10  1  0
 10 11  1  0
 11 12  1  0
 13 24  2  0
 14 12  1  0
 14 19  1  0
 15 23  1  0
 15 25  1  0
 16 18  1  0
 17 23  1  0
 18 19  2  0
 18 17  1  0
 20 14  2  0
 21 20  1  0
 21 16  2  0
 22 16  1  0
 22 15  1  0
 23 13  1  0
 25 27  2  0
 26 25  1  0
 28 26  1  0
 29 34  1  0
 30 26  1  0
 31 30  1  0
 32 33  1  0
 32 31  1  0
 33 29  1  0
 34 30  1  0
 34 35  2  0
 36 35  1  0
 37 36  2  0
 38 29  2  0
 38 37  1  0
 39 13  1  0
 39 40  1  0
 39 49  1  0
 40 43  1  0
 41 45  1  0
 41 40  1  0
 42 41  2  0
 45 44  1  0
 47 48  1  0
 47 45  1  0
 47 46  1  0
 49 52  1  1
 49 50  1  0
 51 49  1  0
 53 54  1  0
 54 55  1  0
 55 56  1  0
 56 57  1  0
 57 58  1  0
 57 60  1  0
 59 57  1  0
 60 61  1  0
 61 62  1  0
 63 71  1  0
 64 69  1  0
 65 66  1  0
 65 64  1  0
 67 66  1  0
 67 76  1  0
 67 68  1  0
 69 63  1  0
 69 68  1  0
 70 63  2  0
 71 72  1  0
 71 62  1  0
 73 74  2  0
 74 93  1  0
 75 74  1  0
 75 78  1  0
 76 77  1  0
 76 73  1  0
 77 75  2  0
 78 79  1  0
 79 80  2  0
 81 84  1  0
 81 80  1  0
 82 81  2  0
 83 82  1  0
 83 78  2  0
 84 85  1  0
 85 90  2  0
 85 86  1  0
 86 87  2  0
 87 88  1  0
 88 92  1  0
 89 88  2  0
 90 89  1  0
 91 90  1  0
 93 94  1  0
 94 97  1  0
 94 96  1  0
 95 93  2  0
 98 99  1  0
 98 73  1  0
100 98  1  0
M  ISO  4  11 101  12 101  63 100  71 100
M  END
>  <TORSDO>  (35) 
F 31

>  <SCORE>  (35) 
-8.187

>  <name>  (35) 
34

>  <ligand_id>  (35) 
34

>  <original_smiles>  (35) 
[H]c1c([H])c([H])c2c(c1[H])C([H])([H])C([H])([H])C([H])([H])C2([H])N([H])C(=O)C1([H])N(C(=O)C([H])(N([H])C(=O)C([H])(N([H])C([H])([H])[H])C([H])([H])[H])C(C([H])([H])[H])(C([H])([H])[H])C([H])([H])[H])C([H])([H])c2c([H])c(OC([H])([H])C([H])([H])C([H])([H])C([H])([H])N([H])C([H])([H])C([H])([H])[N+]([H])([H])C([H])([H])C([H])([H])C([H])([H])C([H])([H])[N+]([H])([H])C([H])([H])C([H])([H])C([H])([H])N([H])C(=O)N3C([H])([H])C([H])([H])C([H])([H])C([H])(n4nc(-c5c([H])c([H])c(Oc6c([H])c([H])c(F)c([H])c6F)c([H])c5[H])c(C(=O)N([H])[H])c4N([H])[H])C3([H])[H])c([H])c([H])c2C1([H])[H]

>  <smiles>  (35) 
[H]c1c([H])c([H])c2c(c1[H])C([H])([H])C([H])([H])C([H])([H])C2([H])N([H])C(=O)C1([H])N(C(=O)C([H])(N([H])C(=O)C([H])(N([H])C([H])([H])[H])C([H])([H])[H])C(C([H])([H])[H])(C([H])([H])[H])C([H])([H])[H])C([H])([H])c2c([H])c(OC([H])([H])C([H])([H])C([H])([H])C([H])([H])N([H])C([H])([H])C([H])([H])[N+]([H])([H])C([H])([H])C([H])([H])C([H])([H])C([H])([H])[N+]([H])([H])C([H])([H])C([H])([H])C([H])([H])N([H])C(=O)N3C([H])([H])C([H])([H])C([H])([H])C([H])(n4nc(-c5c([H])c([H])c(Oc6c([H])c([H])c(F)c([H])c6F)c([H])c5[H])c(C(=O)N([H])[H])c4N([H])[H])C3([H])[H])c([H])c([H])c2C1([H])[H]

$$$$
35:0:0
     RDKit          3D

 95102  0  0  1  0  0  0  0  0999 V2000
  -29.2740  -21.9740   23.5940 C   0  0  0  0  0  2  0  0  0  0  0  0
  -28.5000  -23.1640   23.1690 N   0  0  0  0  0  4  0  0  0  0  0  0
  -28.7580  -23.9420   23.7540 H   0  0  0  0  0  0  0  0  0  0  0  0
  -27.5260  -22.9710   23.3450 H   0  0  0  0  0  0  0  0  0  0  0  0
  -28.6410  -23.5280   21.7420 C   0  0  0  0  0  2  0  0  0  0  0  0
  -28.1190  -24.9460   21.4390 C   0  0  0  0  0  2  0  0  0  0  0  0
  -28.2730  -25.3220   19.9530 C   0  0  0  0  0  2  0  0  0  0  0  0
  -28.2570  -26.7380   19.7830 O   0  0  0  0  0  0  0  0  0  0  0  0
  -24.6140  -31.8080   23.1480 C   0  0  0  0  0  0  0  0  0  0  0  0
  -27.0610  -27.4110   19.8690 C   0  0  0  0  0  0  0  0  0  0  0  0
  -23.3170  -30.4640   21.5240 C   0  0  0  0  0  3  0  0  0  0  0  0
  -24.6840  -28.9300   20.0160 C   0  0  0  0  0  0  0  0  0  0  0  0
  -25.8360  -30.7890   21.2330 C   0  0  0  0  0  2  0  0  0  0  0  0
  -25.8710  -29.4320   20.5620 C   0  0  0  0  0  0  0  0  0  0  0  0
  -27.0600  -28.6810   20.4840 C   0  0  0  0  0  3  0  0  0  0  0  0
  -25.8550  -26.9110   19.3250 C   0  0  0  0  0  3  0  0  0  0  0  0
  -24.6690  -27.6680   19.3980 C   0  0  0  0  0  3  0  0  0  0  0  0
  -23.4580  -29.8080   20.1240 C   0  0  0  0  0  2  0  0  0  0  0  0
  -24.6090  -31.0340   22.0250 N   0  0  0  0  0  0  0  0  0  0  0  0
  -23.5610  -32.0870   23.7380 O   0  0  0  0  0  0  0  0  0  0  0  0
  -22.6880  -29.4330   22.4870 C   0  0  0  0  0  0  0  0  0  0  0  0
  -21.3610  -29.2590   22.3920 N   0  0  0  0  0  0  0  0  0  0  0  0
  -23.3900  -28.7920   23.2740 O   0  0  0  0  0  0  0  0  0  0  0  0
  -20.8560  -29.8270   21.7250 H   0  0  0  0  0  0  0  0  0  0  0  0
  -17.9980  -28.0620   22.9340 C   0  0  0  0  0  0  0  0  0  0  0  0
  -20.5580  -28.3150   23.1680 C   0  0  0  0  0  3  0  0  0  0  0  0
  -20.6530  -26.8890   22.5780 C   0  0  0  0  0  2  0  0  0  0  0  0
  -19.5340  -26.5750   21.5790 C   0  0  0  0  0  2  0  0  0  0  0  0
  -18.1630  -26.7170   22.2470 C   0  0  0  0  0  2  0  0  0  0  0  0
  -19.1230  -28.8200   23.3520 C   0  0  0  0  0  0  0  0  0  0  0  0
  -18.9160  -30.0800   23.9530 C   0  0  0  0  0  3  0  0  0  0  0  0
  -17.6140  -30.5820   24.1440 C   0  0  0  0  0  3  0  0  0  0  0  0
  -16.5020  -29.8200   23.7420 C   0  0  0  0  0  3  0  0  0  0  0  0
  -16.6950  -28.5620   23.1430 C   0  0  0  0  0  3  0  0  0  0  0  0
  -25.9360  -32.4000   23.7290 C   0  0  0  0  0  3  0  0  0  0  0  0
  -26.4960  -31.5830   24.9590 C   0  0  1  0  0  0  0  0  0  0  0  0
  -25.4480  -31.3320   26.0670 C   0  0  0  0  0  1  0  0  0  0  0  0
  -27.0360  -30.2090   24.4980 C   0  0  0  0  0  1  0  0  0  0  0  0
  -27.6890  -32.3390   25.5900 C   0  0  0  0  0  1  0  0  0  0  0  0
  -25.6670  -33.7930   24.1080 N   0  0  0  0  0  0  0  0  0  0  0  0
  -26.0000  -34.8590   23.3690 C   0  0  0  0  0  0  0  0  0  0  0  0
  -26.6370  -34.7720   22.3160 O   0  0  0  0  0  0  0  0  0  0  0  0
  -25.1020  -33.9370   24.9320 H   0  0  0  0  0  0  0  0  0  0  0  0
  -24.2960  -36.6900   23.1160 C   0  0  0  0  0  1  0  0  0  0  0  0
  -25.5530  -36.2420   23.8790 C   0  0  0  0  0  3  0  0  0  0  0  0
  -27.7290  -37.0630   24.6680 C   0  0  0  0  0  1  0  0  0  0  0  0
  -26.6030  -37.2780   23.7630 N   0  0  0  0  0  0  0  0  0  0  0  0
  -26.2190  -38.2010   23.9480 H   0  0  0  0  0  0  0  0  0  0  0  0
  -30.7630  -22.2980   23.8570 C   0  0  0  0  0  2  0  0  0  0  0  0
  -31.6130  -21.0870   24.2980 C   0  0  0  0  0  2  0  0  0  0  0  0
  -32.3810  -20.3740   23.1680 C   0  0  0  0  0  2  0  0  0  0  0  0
  -30.9330  -18.5000   22.4000 C   0  0  0  0  0  0  0  0  0  0  0  0
  -31.5060  -19.6960   22.2190 N   0  0  0  0  0  0  0  0  0  0  0  0
  -31.0210  -17.8640   23.4520 O   0  0  0  0  0  0  0  0  0  0  0  0
  -31.4040  -20.1270   21.3080 H   0  0  0  0  0  0  0  0  0  0  0  0
  -30.1370  -17.9450   21.2190 C   0  0  0  0  0  2  0  0  0  0  0  0
  -30.9470  -16.9410   20.3690 C   0  0  0  0  0  2  0  0  0  0  0  0
  -31.2700  -14.5060   20.1030 C   0  0  0  0  0  0  0  0  0  0  0  0
  -30.8890  -12.2960   19.0970 C   0  0  0  0  0  2  0  0  0  0  0  0
  -29.9490  -12.4660   17.8850 C   0  0  0  0  0  2  0  0  0  0  0  0
  -28.4720  -12.4190   18.3220 C   0  0  0  0  0  2  0  0  0  0  0  0
  -28.1760  -13.3490   19.5310 C   0  0  0  0  0  3  0  0  0  0  0  0
  -29.2230  -13.1420   20.6490 C   0  0  0  0  0  2  0  0  0  0  0  0
  -30.5610  -13.3490   20.0660 N   0  0  0  0  0  0  0  0  0  0  0  0
  -32.3630  -14.6560   19.5490 O   0  0  0  0  0  0  0  0  0  0  0  0
  -30.6210  -15.5420   20.6500 N   0  0  0  0  0  0  0  0  0  0  0  0
  -29.7350  -15.3380   21.0880 H   0  0  0  0  0  0  0  0  0  0  0  0
  -25.8240  -14.1080   20.2600 C   0  0  0  0  0  0  0  0  0  0  0  0
  -24.7190  -13.4030   20.6530 C   0  0  0  0  0  0  0  0  0  0  0  0
  -25.0990  -12.0260   20.6310 C   0  0  0  0  0  0  0  0  0  0  0  0
  -26.8130  -13.1640   20.0260 N   0  0  0  0  0  0  0  0  0  0  0  0
  -26.3790  -11.9070   20.3030 N   0  0  0  0  0  0  0  0  0  0  0  0
  -24.3050  -10.8110   20.8460 C   0  0  0  0  0  0  0  0  0  0  0  0
  -24.6820   -9.8430   21.8040 C   0  0  0  0  0  3  0  0  0  0  0  0
  -23.8930   -8.6900   22.0050 C   0  0  0  0  0  3  0  0  0  0  0  0
  -22.7130   -8.4960   21.2470 C   0  0  0  0  0  0  0  0  0  0  0  0
  -22.3560   -9.4500   20.2780 C   0  0  0  0  0  3  0  0  0  0  0  0
  -23.1450  -10.5950   20.0750 C   0  0  0  0  0  3  0  0  0  0  0  0
  -21.8980   -7.3960   21.3570 O   0  0  0  0  0  0  0  0  0  0  0  0
  -21.7760   -6.7040   22.5360 C   0  0  0  0  0  0  0  0  0  0  0  0
  -21.3570   -7.3330   23.7290 C   0  0  0  0  0  3  0  0  0  0  0  0
  -21.1780   -6.5710   24.9010 C   0  0  0  0  0  3  0  0  0  0  0  0
  -21.4080   -5.1830   24.8800 C   0  0  0  0  0  0  0  0  0  0  0  0
  -21.8190   -4.5540   23.6920 C   0  0  0  0  0  3  0  0  0  0  0  0
  -22.0000   -5.3130   22.5220 C   0  0  0  0  0  0  0  0  0  0  0  0
  -22.3760   -4.6980   21.3750 F   0  0  0  0  0  0  0  0  0  0  0  0
  -21.2280   -4.4500   26.0030 F   0  0  0  0  0  0  0  0  0  0  0  0
  -23.3550  -13.9620   20.9410 C   0  0  0  0  0  0  0  0  0  0  0  0
  -22.6060  -13.3240   21.8350 N   0  0  0  0  0  0  0  0  0  0  0  0
  -22.9650  -15.0000   20.4100 O   0  0  0  0  0  0  0  0  0  0  0  0
  -22.9340  -12.4840   22.2870 H   0  0  0  0  0  0  0  0  0  0  0  0
  -21.6910  -13.6820   22.0690 H   0  0  0  0  0  0  0  0  0  0  0  0
  -26.0660  -15.4650   20.0640 N   0  0  0  0  0  0  0  0  0  0  0  0
  -25.3410  -16.1640   20.1740 H   0  0  0  0  0  0  0  0  0  0  0  0
  -26.9360  -15.8470   19.7140 H   0  0  0  0  0  0  0  0  0  0  0  0
  1 49  1  0
  2  4  1  0
  2  1  1  0
  2  3  1  0
  5  2  1  0
  6  5  1  0
  7  6  1  0
  8 10  1  0
  8  7  1  0
  9 20  2  0
 10 15  1  0
 11 19  1  0
 11 21  1  0
 12 18  1  0
 12 14  1  0
 13 19  1  0
 14 13  1  0
 15 14  2  0
 16 17  1  0
 16 10  2  0
 17 12  2  0
 18 11  1  0
 19  9  1  0
 21 23  2  0
 22 21  1  0
 24 22  1  0
 25 34  2  0
 25 30  1  0
 26 22  1  0
 26 30  1  0
 27 26  1  0
 28 29  1  0
 28 27  1  0
 29 25  1  0
 30 31  2  0
 31 32  1  0
 33 32  2  0
 34 33  1  0
 35  9  1  0
 35 40  1  0
 35 36  1  0
 36 39  1  1
 36 37  1  0
 38 36  1  0
 40 43  1  0
 41 45  1  0
 41 40  1  0
 42 41  2  0
 45 44  1  0
 47 45  1  0
 47 48  1  0
 47 46  1  0
 49 50  1  0
 51 50  1  0
 52 54  2  0
 53 52  1  0
 53 51  1  0
 55 53  1  0
 56 52  1  0
 57 66  1  0
 57 56  1  0
 58 66  1  0
 59 64  1  0
 60 61  1  0
 60 59  1  0
 62 61  1  0
 62 71  1  0
 62 63  1  0
 64 58  1  0
 64 63  1  0
 65 58  2  0
 66 67  1  0
 68 69  2  0
 69 88  1  0
 70 69  1  0
 70 73  1  0
 71 68  1  0
 71 72  1  0
 72 70  2  0
 73 74  1  0
 74 75  2  0
 76 79  1  0
 76 75  1  0
 77 76  2  0
 78 77  1  0
 78 73  2  0
 79 80  1  0
 80 81  1  0
 81 82  2  0
 83 82  1  0
 83 87  1  0
 84 83  2  0
 85 80  2  0
 85 84  1  0
 86 85  1  0
 88 89  1  0
 89 92  1  0
 89 91  1  0
 90 88  2  0
 93 94  1  0
 93 68  1  0
 95 93  1  0
M  ISO  4   7 101   8 101  58 100  66 100
M  END
>  <TORSDO>  (36) 
F 26

>  <SCORE>  (36) 
-10.768

>  <name>  (36) 
35

>  <ligand_id>  (36) 
35

>  <original_smiles>  (36) 
[H]c1c([H])c([H])c2c(c1[H])C([H])([H])C([H])([H])C([H])([H])C2([H])N([H])C(=O)C1([H])N(C(=O)C([H])(N([H])C(=O)C([H])(N([H])C([H])([H])[H])C([H])([H])[H])C(C([H])([H])[H])(C([H])([H])[H])C([H])([H])[H])C([H])([H])c2c([H])c(OC([H])([H])C([H])([H])C([H])([H])[N+]([H])([H])C([H])([H])C([H])([H])C([H])([H])C([H])([H])N([H])C(=O)C([H])([H])C([H])([H])N([H])C(=O)N3C([H])([H])C([H])([H])C([H])([H])C([H])(n4nc(-c5c([H])c([H])c(Oc6c([H])c([H])c(F)c([H])c6F)c([H])c5[H])c(C(=O)N([H])[H])c4N([H])[H])C3([H])[H])c([H])c([H])c2C1([H])[H]

>  <smiles>  (36) 
[H]c1c([H])c([H])c2c(c1[H])C([H])([H])C([H])([H])C([H])([H])C2([H])N([H])C(=O)C1([H])N(C(=O)C([H])(N([H])C(=O)C([H])(N([H])C([H])([H])[H])C([H])([H])[H])C(C([H])([H])[H])(C([H])([H])[H])C([H])([H])[H])C([H])([H])c2c([H])c(OC([H])([H])C([H])([H])C([H])([H])[N+]([H])([H])C([H])([H])C([H])([H])C([H])([H])C([H])([H])N([H])C(=O)C([H])([H])C([H])([H])N([H])C(=O)N3C([H])([H])C([H])([H])C([H])([H])C([H])(n4nc(-c5c([H])c([H])c(Oc6c([H])c([H])c(F)c([H])c6F)c([H])c5[H])c(C(=O)N([H])[H])c4N([H])[H])C3([H])[H])c([H])c([H])c2C1([H])[H]

$$$$
36:0:0
     RDKit          3D

 96103  0  0  1  0  0  0  0  0999 V2000
  -27.6330  -20.8420   19.4350 C   0  0  0  0  0  3  0  0  0  0  0  0
  -26.7370  -21.8200   19.2030 C   0  0  0  0  0  3  0  0  0  0  0  0
  -27.0930  -23.1810   18.8470 C   0  0  0  0  0  0  0  0  0  0  0  0
  -28.3760  -23.5040   19.0720 N   0  0  0  0  0  0  0  0  0  0  0  0
  -26.2780  -24.0010   18.4300 O   0  0  0  0  0  0  0  0  0  0  0  0
  -29.0000  -22.7750   19.3830 H   0  0  0  0  0  0  0  0  0  0  0  0
  -28.8790  -24.8810   19.1390 C   0  0  0  0  0  2  0  0  0  0  0  0
  -28.4430  -25.5470   20.4600 C   0  0  0  0  0  2  0  0  0  0  0  0
  -28.5860  -26.9690   20.4370 O   0  0  0  0  0  0  0  0  0  0  0  0
  -24.5110  -31.8860   23.5370 C   0  0  0  0  0  0  0  0  0  0  0  0
  -27.3900  -27.6450   20.4130 C   0  0  0  0  0  0  0  0  0  0  0  0
  -23.3760  -30.4200   21.9000 C   0  0  0  0  0  3  0  0  0  0  0  0
  -24.9080  -28.9890   20.4470 C   0  0  0  0  0  0  0  0  0  0  0  0
  -25.8680  -30.9450   21.6730 C   0  0  0  0  0  2  0  0  0  0  0  0
  -26.0340  -29.5860   21.0240 C   0  0  0  0  0  0  0  0  0  0  0  0
  -27.2830  -28.9240   21.0000 C   0  0  0  0  0  3  0  0  0  0  0  0
  -26.2480  -27.0590   19.8200 C   0  0  0  0  0  3  0  0  0  0  0  0
  -25.0090  -27.7240   19.8410 C   0  0  0  0  0  3  0  0  0  0  0  0
  -23.6100  -29.7620   20.5120 C   0  0  0  0  0  2  0  0  0  0  0  0
  -24.6030  -31.0980   22.4290 N   0  0  0  0  0  0  0  0  0  0  0  0
  -23.4210  -32.0880   24.0910 O   0  0  0  0  0  0  0  0  0  0  0  0
  -22.8060  -29.3530   22.8590 C   0  0  0  0  0  0  0  0  0  0  0  0
  -21.5740  -28.8970   22.5750 N   0  0  0  0  0  0  0  0  0  0  0  0
  -23.4710  -28.9340   23.8100 O   0  0  0  0  0  0  0  0  0  0  0  0
  -21.1010  -29.2900   21.7730 H   0  0  0  0  0  0  0  0  0  0  0  0
  -18.5140  -26.9770   22.6340 C   0  0  0  0  0  0  0  0  0  0  0  0
  -20.8420  -27.8730   23.3170 C   0  0  0  0  0  3  0  0  0  0  0  0
  -21.3700  -26.4560   22.9860 C   0  0  0  0  0  2  0  0  0  0  0  0
  -20.5980  -25.7750   21.8500 C   0  0  0  0  0  2  0  0  0  0  0  0
  -19.1140  -25.6490   22.2030 C   0  0  0  0  0  2  0  0  0  0  0  0
  -19.3270  -28.0250   23.1430 C   0  0  0  0  0  0  0  0  0  0  0  0
  -18.7220  -29.2480   23.4970 C   0  0  0  0  0  3  0  0  0  0  0  0
  -17.3330  -29.4340   23.3540 C   0  0  0  0  0  3  0  0  0  0  0  0
  -16.5330  -28.3880   22.8600 C   0  0  0  0  0  3  0  0  0  0  0  0
  -17.1220  -27.1610   22.5050 C   0  0  0  0  0  3  0  0  0  0  0  0
  -25.7620  -32.5930   24.1440 C   0  0  0  0  0  3  0  0  0  0  0  0
  -26.1830  -32.0040   25.5450 C   0  0  1  0  0  0  0  0  0  0  0  0
  -25.0080  -31.8500   26.5390 C   0  0  0  0  0  1  0  0  0  0  0  0
  -26.8430  -30.6170   25.3780 C   0  0  0  0  0  1  0  0  0  0  0  0
  -27.2410  -32.9230   26.2020 C   0  0  0  0  0  1  0  0  0  0  0  0
  -25.4530  -34.0240   24.2500 N   0  0  0  0  0  0  0  0  0  0  0  0
  -25.8510  -34.9540   23.3710 C   0  0  0  0  0  0  0  0  0  0  0  0
  -26.5870  -34.6980   22.4130 O   0  0  0  0  0  0  0  0  0  0  0  0
  -24.8030  -34.2940   24.9750 H   0  0  0  0  0  0  0  0  0  0  0  0
  -24.1700  -36.6790   22.6510 C   0  0  0  0  0  1  0  0  0  0  0  0
  -25.3540  -36.3950   23.5890 C   0  0  0  0  0  3  0  0  0  0  0  0
  -27.4450  -37.3870   24.4090 C   0  0  0  0  0  1  0  0  0  0  0  0
  -26.4060  -37.4170   23.3830 N   0  0  0  0  0  0  0  0  0  0  0  0
  -26.0040  -38.3520   23.3630 H   0  0  0  0  0  0  0  0  0  0  0  0
  -27.1730  -19.5190   19.8000 C   0  0  0  0  0  0  0  0  0  0  0  0
  -27.6410  -18.6100   18.9420 N   0  0  0  0  0  0  0  0  0  0  0  0
  -26.4950  -19.2370   20.7870 O   0  0  0  0  0  0  0  0  0  0  0  0
  -28.1110  -18.9690   18.1220 H   0  0  0  0  0  0  0  0  0  0  0  0
  -27.7770  -17.1760   19.1550 C   0  0  0  0  0  2  0  0  0  0  0  0
  -29.1710  -16.9030   19.7580 C   0  0  0  0  0  2  0  0  0  0  0  0
  -30.3310  -16.9440   18.7330 C   0  0  0  0  0  2  0  0  0  0  0  0
  -31.6810  -17.3470   19.3680 C   0  0  0  0  0  2  0  0  0  0  0  0
  -32.8440  -16.3710   19.0680 C   0  0  0  0  0  2  0  0  0  0  0  0
  -33.3250  -14.0430   19.9910 C   0  0  0  0  0  0  0  0  0  0  0  0
  -33.2360  -11.8040   21.0530 C   0  0  0  0  0  2  0  0  0  0  0  0
  -32.5720  -10.7710   20.1190 C   0  0  0  0  0  2  0  0  0  0  0  0
  -31.0360  -10.8110   20.2460 C   0  0  0  0  0  2  0  0  0  0  0  0
  -30.4700  -12.2520   20.1440 C   0  0  0  0  0  3  0  0  0  0  0  0
  -31.2350  -13.1890   21.0970 C   0  0  0  0  0  2  0  0  0  0  0  0
  -32.6710  -13.1240   20.7420 N   0  0  0  0  0  0  0  0  0  0  0  0
  -34.5080  -13.9370   19.6390 O   0  0  0  0  0  0  0  0  0  0  0  0
  -32.5430  -15.0770   19.6560 N   0  0  0  0  0  0  0  0  0  0  0  0
  -31.5760  -14.9440   19.9130 H   0  0  0  0  0  0  0  0  0  0  0  0
  -28.1480  -13.3500   20.2980 C   0  0  0  0  0  0  0  0  0  0  0  0
  -26.9120  -12.8370   20.5810 C   0  0  0  0  0  0  0  0  0  0  0  0
  -27.1120  -11.4440   20.8330 C   0  0  0  0  0  0  0  0  0  0  0  0
  -29.0330  -12.2890   20.3980 N   0  0  0  0  0  0  0  0  0  0  0  0
  -28.4030  -11.1470   20.7730 N   0  0  0  0  0  0  0  0  0  0  0  0
  -26.1440  -10.3650   21.0700 C   0  0  0  0  0  0  0  0  0  0  0  0
  -26.0390   -9.7290   22.3270 C   0  0  0  0  0  3  0  0  0  0  0  0
  -25.0890   -8.7060   22.5330 C   0  0  0  0  0  3  0  0  0  0  0  0
  -24.2300   -8.3120   21.4810 C   0  0  0  0  0  0  0  0  0  0  0  0
  -24.3540   -8.9330   20.2250 C   0  0  0  0  0  3  0  0  0  0  0  0
  -25.3030   -9.9480   20.0190 C   0  0  0  0  0  3  0  0  0  0  0  0
  -23.2960   -7.3110   21.5830 O   0  0  0  0  0  0  0  0  0  0  0  0
  -22.5460   -7.1410   22.7170 C   0  0  0  0  0  0  0  0  0  0  0  0
  -21.6920   -8.1560   23.2030 C   0  0  0  0  0  3  0  0  0  0  0  0
  -20.8840   -7.9140   24.3330 C   0  0  0  0  0  3  0  0  0  0  0  0
  -20.9190   -6.6580   24.9700 C   0  0  0  0  0  0  0  0  0  0  0  0
  -21.7630   -5.6450   24.4820 C   0  0  0  0  0  3  0  0  0  0  0  0
  -22.5690   -5.8850   23.3550 C   0  0  0  0  0  0  0  0  0  0  0  0
  -23.3650   -4.8990   22.8780 F   0  0  0  0  0  0  0  0  0  0  0  0
  -20.1360   -6.4230   26.0490 F   0  0  0  0  0  0  0  0  0  0  0  0
  -25.6030  -13.5690   20.5260 C   0  0  0  0  0  0  0  0  0  0  0  0
  -24.6360  -13.1610   21.3390 N   0  0  0  0  0  0  0  0  0  0  0  0
  -25.4430  -14.5400   19.7860 O   0  0  0  0  0  0  0  0  0  0  0  0
  -24.7740  -12.3740   21.9570 H   0  0  0  0  0  0  0  0  0  0  0  0
  -23.7470  -13.6410   21.3480 H   0  0  0  0  0  0  0  0  0  0  0  0
  -28.5890  -14.6230   19.9450 N   0  0  0  0  0  0  0  0  0  0  0  0
  -27.9380  -15.3740   19.7510 H   0  0  0  0  0  0  0  0  0  0  0  0
  -29.5400  -14.8440   19.6840 H   0  0  0  0  0  0  0  0  0  0  0  0
  1 50  1  0
  2  1  2  0
  3  4  1  0
  3  2  1  0
  4  7  1  0
  4  6  1  0
  5  3  2  0
  7  8  1  0
  9  8  1  0
 10 21  2  0
 11  9  1  0
 11 16  1  0
 12 20  1  0
 12 22  1  0
 13 19  1  0
 13 15  1  0
 14 20  1  0
 15 14  1  0
 16 15  2  0
 17 18  1  0
 17 11  2  0
 18 13  2  0
 19 12  1  0
 20 10  1  0
 22 24  2  0
 23 22  1  0
 25 23  1  0
 26 31  1  0
 27 23  1  0
 28 27  1  0
 29 30  1  0
 29 28  1  0
 30 26  1  0
 31 27  1  0
 31 32  2  0
 33 32  1  0
 34 33  2  0
 35 26  2  0
 35 34  1  0
 36 10  1  0
 36 41  1  0
 36 37  1  0
 37 40  1  1
 37 38  1  0
 39 37  1  0
 41 44  1  0
 42 46  1  0
 42 41  1  0
 43 42  2  0
 46 45  1  0
 48 46  1  0
 48 47  1  0
 49 48  1  0
 50 52  2  0
 51 54  1  0
 51 50  1  0
 53 51  1  0
 54 55  1  0
 56 57  1  0
 56 55  1  0
 58 57  1  0
 58 67  1  0
 59 65  1  0
 61 62  1  0
 61 60  1  0
 63 62  1  0
 63 72  1  0
 63 64  1  0
 65 60  1  0
 65 64  1  0
 66 59  2  0
 67 68  1  0
 67 59  1  0
 69 72  1  0
 69 70  2  0
 70 71  1  0
 71 74  1  0
 72 73  1  0
 73 71  2  0
 74 75  1  0
 75 76  2  0
 77 80  1  0
 77 76  1  0
 78 77  2  0
 79 78  1  0
 79 74  2  0
 80 81  1  0
 81 82  2  0
 81 86  1  0
 82 83  1  0
 83 84  2  0
 84 88  1  0
 85 84  1  0
 86 85  2  0
 87 86  1  0
 89 70  1  0
 89 90  1  0
 90 93  1  0
 90 92  1  0
 91 89  2  0
 94 69  1  0
 95 94  1  0
 96 94  1  0
M  ISO  4   8 101   9 101  59 100  67 100
M  END
>  <TORSDO>  (37) 
F 25

>  <SCORE>  (37) 
-7.215

>  <name>  (37) 
36

>  <ligand_id>  (37) 
36

>  <original_smiles>  (37) 
[H]C(C(=O)N([H])C([H])([H])C([H])([H])Oc1c([H])c([H])c2c(c1[H])C([H])([H])N(C(=O)C([H])(N([H])C(=O)C([H])(N([H])C([H])([H])[H])C([H])([H])[H])C(C([H])([H])[H])(C([H])([H])[H])C([H])([H])[H])C([H])(C(=O)N([H])C1([H])c3c([H])c([H])c([H])c([H])c3C([H])([H])C([H])([H])C1([H])[H])C2([H])[H])=C([H])C(=O)N([H])C([H])([H])C([H])([H])C([H])([H])C([H])([H])C([H])([H])N([H])C(=O)N1C([H])([H])C([H])([H])C([H])([H])C([H])(n2nc(-c3c([H])c([H])c(Oc4c([H])c([H])c(F)c([H])c4F)c([H])c3[H])c(C(=O)N([H])[H])c2N([H])[H])C1([H])[H]

>  <smiles>  (37) 
[H]C(C(=O)N([H])C([H])([H])C([H])([H])Oc1c([H])c([H])c2c(c1[H])C([H])([H])N(C(=O)C([H])(N([H])C(=O)C([H])(N([H])C([H])([H])[H])C([H])([H])[H])C(C([H])([H])[H])(C([H])([H])[H])C([H])([H])[H])C([H])(C(=O)N([H])C1([H])c3c([H])c([H])c([H])c([H])c3C([H])([H])C([H])([H])C1([H])[H])C2([H])[H])=C([H])C(=O)N([H])C([H])([H])C([H])([H])C([H])([H])C([H])([H])C([H])([H])N([H])C(=O)N1C([H])([H])C([H])([H])C([H])([H])C([H])(n2nc(-c3c([H])c([H])c(Oc4c([H])c([H])c(F)c([H])c4F)c([H])c3[H])c(C(=O)N([H])[H])c2N([H])[H])C1([H])[H]

$$$$
37:0:0
     RDKit          3D

 96103  0  0  1  0  0  0  0  0999 V2000
  -26.0710  -22.5840   17.0340 C   0  0  0  0  0  2  0  0  0  0  0  0
  -27.3990  -23.0380   16.3710 C   0  0  0  0  0  2  0  0  0  0  0  0
  -27.8510  -24.4550   16.7670 C   0  0  0  0  0  2  0  0  0  0  0  0
  -28.8300  -25.3110   18.9020 C   0  0  0  0  0  0  0  0  0  0  0  0
  -27.9600  -24.5650   18.2140 N   0  0  0  0  0  0  0  0  0  0  0  0
  -29.7280  -25.9600   18.3600 O   0  0  0  0  0  0  0  0  0  0  0  0
  -27.2440  -24.1110   18.7600 H   0  0  0  0  0  0  0  0  0  0  0  0
  -28.6390  -25.3450   20.4260 C   0  0  0  0  0  2  0  0  0  0  0  0
  -28.5310  -26.6980   20.8840 O   0  0  0  0  0  0  0  0  0  0  0  0
  -24.5790  -31.9860   23.4940 C   0  0  0  0  0  0  0  0  0  0  0  0
  -27.3290  -27.3730   20.7900 C   0  0  0  0  0  0  0  0  0  0  0  0
  -23.4330  -30.5030   21.8810 C   0  0  0  0  0  3  0  0  0  0  0  0
  -24.9300  -28.8710   20.6250 C   0  0  0  0  0  0  0  0  0  0  0  0
  -25.9650  -30.8360   21.7720 C   0  0  0  0  0  2  0  0  0  0  0  0
  -26.0650  -29.4280   21.2290 C   0  0  0  0  0  0  0  0  0  0  0  0
  -27.2610  -28.6840   21.3120 C   0  0  0  0  0  3  0  0  0  0  0  0
  -26.1690  -26.8250   20.1910 C   0  0  0  0  0  3  0  0  0  0  0  0
  -24.9760  -27.5640   20.1080 C   0  0  0  0  0  3  0  0  0  0  0  0
  -23.6950  -29.7350   20.5550 C   0  0  0  0  0  2  0  0  0  0  0  0
  -24.6760  -31.1260   22.4430 N   0  0  0  0  0  0  0  0  0  0  0  0
  -23.4770  -32.2900   23.9730 O   0  0  0  0  0  0  0  0  0  0  0  0
  -22.7310  -29.5430   22.8700 C   0  0  0  0  0  0  0  0  0  0  0  0
  -21.4330  -29.2890   22.6390 N   0  0  0  0  0  0  0  0  0  0  0  0
  -23.3620  -29.0220   23.7950 O   0  0  0  0  0  0  0  0  0  0  0  0
  -20.9860  -29.7570   21.8630 H   0  0  0  0  0  0  0  0  0  0  0  0
  -18.0860  -27.9500   22.9040 C   0  0  0  0  0  0  0  0  0  0  0  0
  -20.5830  -28.3870   23.4170 C   0  0  0  0  0  3  0  0  0  0  0  0
  -20.8180  -26.9150   23.0150 C   0  0  0  0  0  2  0  0  0  0  0  0
  -19.8540  -26.4240   21.9310 C   0  0  0  0  0  2  0  0  0  0  0  0
  -18.4030  -26.5530   22.4010 C   0  0  0  0  0  2  0  0  0  0  0  0
  -19.1120  -28.8170   23.3680 C   0  0  0  0  0  0  0  0  0  0  0  0
  -18.7670  -30.1200   23.7900 C   0  0  0  0  0  3  0  0  0  0  0  0
  -17.4280  -30.5580   23.7580 C   0  0  0  0  0  3  0  0  0  0  0  0
  -16.4160  -29.6890   23.3100 C   0  0  0  0  0  3  0  0  0  0  0  0
  -16.7460  -28.3890   22.8880 C   0  0  0  0  0  3  0  0  0  0  0  0
  -25.8440  -32.6400   24.1310 C   0  0  0  0  0  3  0  0  0  0  0  0
  -25.5380  -34.0560   24.3640 N   0  0  0  0  0  0  0  0  0  0  0  0
  -25.8960  -35.0560   23.5470 C   0  0  0  0  0  0  0  0  0  0  0  0
  -26.5920  -34.8870   22.5440 O   0  0  0  0  0  0  0  0  0  0  0  0
  -24.9260  -34.2630   25.1400 H   0  0  0  0  0  0  0  0  0  0  0  0
  -24.1830  -36.8220   23.0350 C   0  0  0  0  0  1  0  0  0  0  0  0
  -25.4040  -36.4720   23.8990 C   0  0  0  0  0  3  0  0  0  0  0  0
  -27.5180  -37.4110   24.7260 C   0  0  0  0  0  1  0  0  0  0  0  0
  -26.4430  -37.5130   23.7420 N   0  0  0  0  0  0  0  0  0  0  0  0
  -26.0330  -38.4410   23.8080 H   0  0  0  0  0  0  0  0  0  0  0  0
  -26.3010  -31.9380   25.4690 C   0  0  1  0  0  0  0  0  0  0  0  0
  -25.1490  -31.7340   26.4790 C   0  0  0  0  0  1  0  0  0  0  0  0
  -26.9280  -30.5570   25.1750 C   0  0  0  0  0  1  0  0  0  0  0  0
  -27.4010  -32.7850   26.1520 C   0  0  0  0  0  1  0  0  0  0  0  0
  -26.1640  -21.2430   17.7920 C   0  0  0  0  0  2  0  0  0  0  0  0
  -27.1430  -21.2000   18.9880 C   0  0  0  0  0  2  0  0  0  0  0  0
  -27.3830  -19.8000   19.3870 N   0  0  0  0  0  4  0  0  0  0  0  0
  -27.7900  -19.3340   18.5910 H   0  0  0  0  0  0  0  0  0  0  0  0
  -26.4960  -19.3610   19.5800 H   0  0  0  0  0  0  0  0  0  0  0  0
  -28.2820  -19.5900   20.5430 C   0  0  0  0  0  2  0  0  0  0  0  0
  -28.9730  -18.2120   20.4540 C   0  0  0  0  0  2  0  0  0  0  0  0
  -29.9570  -17.9570   21.6130 C   0  0  0  0  0  2  0  0  0  0  0  0
  -30.9880  -16.8580   21.3140 C   0  0  0  0  0  2  0  0  0  0  0  0
  -31.0100  -14.5240   20.5520 C   0  0  0  0  0  0  0  0  0  0  0  0
  -30.6310  -12.4320   19.3300 C   0  0  0  0  0  2  0  0  0  0  0  0
  -29.6990  -12.7170   18.1380 C   0  0  0  0  0  2  0  0  0  0  0  0
  -28.2220  -12.6040   18.5580 C   0  0  0  0  0  2  0  0  0  0  0  0
  -27.9050  -13.3900   19.8580 C   0  0  0  0  0  3  0  0  0  0  0  0
  -28.9560  -13.1170   20.9570 C   0  0  0  0  0  2  0  0  0  0  0  0
  -30.2860  -13.3890   20.3900 N   0  0  0  0  0  0  0  0  0  0  0  0
  -32.1280  -14.6860   20.0590 O   0  0  0  0  0  0  0  0  0  0  0  0
  -30.3900  -15.5310   21.1750 N   0  0  0  0  0  0  0  0  0  0  0  0
  -29.4640  -15.3670   21.5420 H   0  0  0  0  0  0  0  0  0  0  0  0
  -25.5000  -13.9950   20.5430 C   0  0  0  0  0  0  0  0  0  0  0  0
  -24.4270  -13.2240   20.8960 C   0  0  0  0  0  0  0  0  0  0  0  0
  -24.8870  -11.8700   20.8630 C   0  0  0  0  0  0  0  0  0  0  0  0
  -26.5480  -13.1170   20.3230 N   0  0  0  0  0  0  0  0  0  0  0  0
  -26.1800  -11.8320   20.5730 N   0  0  0  0  0  0  0  0  0  0  0  0
  -24.1560  -10.6110   21.0380 C   0  0  0  0  0  0  0  0  0  0  0  0
  -24.5450   -9.6630   22.0110 C   0  0  0  0  0  3  0  0  0  0  0  0
  -23.8170   -8.4660   22.1730 C   0  0  0  0  0  3  0  0  0  0  0  0
  -22.6840   -8.2090   21.3630 C   0  0  0  0  0  0  0  0  0  0  0  0
  -22.3200   -9.1430   20.3760 C   0  0  0  0  0  3  0  0  0  0  0  0
  -23.0500  -10.3310   20.2110 C   0  0  0  0  0  3  0  0  0  0  0  0
  -21.9310   -7.0610   21.4330 O   0  0  0  0  0  0  0  0  0  0  0  0
  -21.7910   -6.3630   22.6050 C   0  0  0  0  0  0  0  0  0  0  0  0
  -21.2280   -6.9490   23.7590 C   0  0  0  0  0  3  0  0  0  0  0  0
  -21.0400   -6.1750   24.9230 C   0  0  0  0  0  3  0  0  0  0  0  0
  -21.4010   -4.8130   24.9290 C   0  0  0  0  0  0  0  0  0  0  0  0
  -21.9570   -4.2270   23.7790 C   0  0  0  0  0  3  0  0  0  0  0  0
  -22.1480   -4.9990   22.6180 C   0  0  0  0  0  0  0  0  0  0  0  0
  -22.6630   -4.4240   21.5060 F   0  0  0  0  0  0  0  0  0  0  0  0
  -21.2110   -4.0650   26.0420 F   0  0  0  0  0  0  0  0  0  0  0  0
  -23.0280  -13.7000   21.1570 C   0  0  0  0  0  0  0  0  0  0  0  0
  -22.2950  -13.0010   22.0150 N   0  0  0  0  0  0  0  0  0  0  0  0
  -22.5950  -14.7310   20.6440 O   0  0  0  0  0  0  0  0  0  0  0  0
  -22.6630  -12.1700   22.4530 H   0  0  0  0  0  0  0  0  0  0  0  0
  -21.3540  -13.2920   22.2330 H   0  0  0  0  0  0  0  0  0  0  0  0
  -25.6720  -15.3700   20.3770 N   0  0  0  0  0  0  0  0  0  0  0  0
  -24.9130  -16.0290   20.5070 H   0  0  0  0  0  0  0  0  0  0  0  0
  -26.5440  -15.8050   20.1100 H   0  0  0  0  0  0  0  0  0  0  0  0
  1 50  1  0
  2  3  1  0
  2  1  1  0
  3  5  1  0
  4  8  1  0
  5  7  1  0
  5  4  1  0
  6  4  2  0
  8  9  1  0
 10 21  2  0
 11  9  1  0
 11 16  1  0
 12 20  1  0
 12 22  1  0
 13 15  1  0
 14 20  1  0
 15 16  2  0
 15 14  1  0
 17 11  2  0
 18 17  1  0
 18 13  2  0
 19 13  1  0
 19 12  1  0
 20 10  1  0
 22 24  2  0
 23 22  1  0
 25 23  1  0
 26 31  1  0
 27 23  1  0
 28 27  1  0
 29 30  1  0
 29 28  1  0
 30 26  1  0
 31 27  1  0
 31 32  2  0
 33 32  1  0
 34 33  2  0
 35 26  2  0
 35 34  1  0
 36 10  1  0
 36 37  1  0
 36 46  1  0
 37 40  1  0
 38 42  1  0
 38 37  1  0
 39 38  2  0
 42 41  1  0
 44 45  1  0
 44 42  1  0
 44 43  1  0
 46 49  1  1
 46 47  1  0
 48 46  1  0
 50 51  1  0
 51 52  1  0
 52 54  1  0
 52 55  1  0
 53 52  1  0
 56 55  1  0
 56 57  1  0
 58 57  1  0
 59 67  1  0
 60 65  1  0
 61 62  1  0
 61 60  1  0
 63 62  1  0
 63 72  1  0
 63 64  1  0
 65 59  1  0
 65 64  1  0
 66 59  2  0
 67 58  1  0
 67 68  1  0
 69 70  2  0
 70 89  1  0
 71 70  1  0
 71 74  1  0
 72 69  1  0
 72 73  1  0
 73 71  2  0
 74 75  1  0
 75 76  2  0
 77 80  1  0
 77 76  1  0
 78 77  2  0
 79 78  1  0
 79 74  2  0
 80 81  1  0
 81 86  2  0
 81 82  1  0
 82 83  2  0
 83 84  1  0
 84 88  1  0
 85 84  2  0
 86 85  1  0
 87 86  1  0
 89 90  1  0
 90 93  1  0
 90 92  1  0
 91 89  2  0
 94 95  1  0
 94 69  1  0
 96 94  1  0
M  ISO  4   8 101   9 101  59 100  67 100
M  END
>  <TORSDO>  (38) 
F 27

>  <SCORE>  (38) 
-9.455

>  <name>  (38) 
37

>  <ligand_id>  (38) 
37

>  <original_smiles>  (38) 
[H]c1c([H])c([H])c2c(c1[H])C([H])([H])C([H])([H])C([H])([H])C2([H])N([H])C(=O)C1([H])N(C(=O)C([H])(N([H])C(=O)C([H])(N([H])C([H])([H])[H])C([H])([H])[H])C(C([H])([H])[H])(C([H])([H])[H])C([H])([H])[H])C([H])([H])c2c([H])c(OC([H])([H])C(=O)N([H])C([H])([H])C([H])([H])C([H])([H])C([H])([H])C([H])([H])[N+]([H])([H])C([H])([H])C([H])([H])C([H])([H])C([H])([H])N([H])C(=O)N3C([H])([H])C([H])([H])C([H])([H])C([H])(n4nc(-c5c([H])c([H])c(Oc6c([H])c([H])c(F)c([H])c6F)c([H])c5[H])c(C(=O)N([H])[H])c4N([H])[H])C3([H])[H])c([H])c([H])c2C1([H])[H]

>  <smiles>  (38) 
[H]c1c([H])c([H])c2c(c1[H])C([H])([H])C([H])([H])C([H])([H])C2([H])N([H])C(=O)C1([H])N(C(=O)C([H])(N([H])C(=O)C([H])(N([H])C([H])([H])[H])C([H])([H])[H])C(C([H])([H])[H])(C([H])([H])[H])C([H])([H])[H])C([H])([H])c2c([H])c(OC([H])([H])C(=O)N([H])C([H])([H])C([H])([H])C([H])([H])C([H])([H])C([H])([H])[N+]([H])([H])C([H])([H])C([H])([H])C([H])([H])C([H])([H])N([H])C(=O)N3C([H])([H])C([H])([H])C([H])([H])C([H])(n4nc(-c5c([H])c([H])c(Oc6c([H])c([H])c(F)c([H])c6F)c([H])c5[H])c(C(=O)N([H])[H])c4N([H])[H])C3([H])[H])c([H])c([H])c2C1([H])[H]

$$$$
38:0:0
     RDKit          3D

101108  0  0  1  0  0  0  0  0999 V2000
  -31.0180  -22.0870   21.3240 C   0  0  0  0  0  3  0  0  0  0  0  0
  -31.1980  -22.8550   19.9930 C   0  0  0  0  0  0  0  0  0  0  0  0
  -30.5310  -23.9930   19.7550 N   0  0  0  0  0  0  0  0  0  0  0  0
  -31.9620  -22.4110   19.1350 O   0  0  0  0  0  0  0  0  0  0  0  0
  -30.6660  -24.3920   18.8380 H   0  0  0  0  0  0  0  0  0  0  0  0
  -29.6770  -24.7640   20.6640 C   0  0  0  0  0  2  0  0  0  0  0  0
  -28.5690  -25.5150   19.9020 C   0  0  0  0  0  2  0  0  0  0  0  0
  -28.6320  -26.9210   20.1590 O   0  0  0  0  0  0  0  0  0  0  0  0
  -24.6240  -31.8870   23.2330 C   0  0  0  0  0  0  0  0  0  0  0  0
  -27.4390  -27.6070   20.1100 C   0  0  0  0  0  0  0  0  0  0  0  0
  -23.4830  -30.5000   21.5330 C   0  0  0  0  0  3  0  0  0  0  0  0
  -25.0020  -29.0440   20.1010 C   0  0  0  0  0  0  0  0  0  0  0  0
  -25.9990  -30.9300   21.3950 C   0  0  0  0  0  2  0  0  0  0  0  0
  -26.1320  -29.5800   20.7310 C   0  0  0  0  0  0  0  0  0  0  0  0
  -27.3520  -28.8690   20.7380 C   0  0  0  0  0  3  0  0  0  0  0  0
  -26.2940  -27.0900   19.4580 C   0  0  0  0  0  3  0  0  0  0  0  0
  -25.0800  -27.7950   19.4640 C   0  0  0  0  0  3  0  0  0  0  0  0
  -23.7310  -29.8630   20.1410 C   0  0  0  0  0  2  0  0  0  0  0  0
  -24.7170  -31.1260   22.1070 N   0  0  0  0  0  0  0  0  0  0  0  0
  -23.5260  -32.1140   23.7600 O   0  0  0  0  0  0  0  0  0  0  0  0
  -22.8450  -29.4340   22.4520 C   0  0  0  0  0  0  0  0  0  0  0  0
  -21.5250  -29.2350   22.3050 N   0  0  0  0  0  0  0  0  0  0  0  0
  -23.5380  -28.7890   23.2450 O   0  0  0  0  0  0  0  0  0  0  0  0
  -21.0380  -29.8060   21.6270 H   0  0  0  0  0  0  0  0  0  0  0  0
  -18.1560  -28.0230   22.7730 C   0  0  0  0  0  0  0  0  0  0  0  0
  -20.7150  -28.2640   23.0370 C   0  0  0  0  0  3  0  0  0  0  0  0
  -20.8110  -26.8630   22.3890 C   0  0  0  0  0  2  0  0  0  0  0  0
  -19.6980  -26.5940   21.3710 C   0  0  0  0  0  2  0  0  0  0  0  0
  -18.3230  -26.7070   22.0320 C   0  0  0  0  0  2  0  0  0  0  0  0
  -19.2790  -28.7630   23.2300 C   0  0  0  0  0  0  0  0  0  0  0  0
  -19.0650  -29.9980   23.8790 C   0  0  0  0  0  3  0  0  0  0  0  0
  -17.7610  -30.4940   24.0730 C   0  0  0  0  0  3  0  0  0  0  0  0
  -16.6530  -29.7500   23.6290 C   0  0  0  0  0  3  0  0  0  0  0  0
  -16.8530  -28.5150   22.9890 C   0  0  0  0  0  3  0  0  0  0  0  0
  -25.8840  -32.5250   23.8960 C   0  0  0  0  0  3  0  0  0  0  0  0
  -26.3710  -31.7580   25.1850 C   0  0  1  0  0  0  0  0  0  0  0  0
  -25.2410  -31.5060   26.2110 C   0  0  0  0  0  1  0  0  0  0  0  0
  -26.9830  -30.3870   24.8100 C   0  0  0  0  0  1  0  0  0  0  0  0
  -27.4930  -32.5620   25.8820 C   0  0  0  0  0  1  0  0  0  0  0  0
  -25.5540  -33.9200   24.2110 N   0  0  0  0  0  0  0  0  0  0  0  0
  -25.9010  -34.9710   23.4570 C   0  0  0  0  0  0  0  0  0  0  0  0
  -26.6050  -34.8700   22.4490 O   0  0  0  0  0  0  0  0  0  0  0  0
  -24.9340  -34.0710   24.9920 H   0  0  0  0  0  0  0  0  0  0  0  0
  -24.1670  -36.7410   23.0290 C   0  0  0  0  0  1  0  0  0  0  0  0
  -25.3810  -36.3550   23.8900 C   0  0  0  0  0  3  0  0  0  0  0  0
  -27.4740  -37.2650   24.7970 C   0  0  0  0  0  1  0  0  0  0  0  0
  -26.4060  -37.4190   23.8130 N   0  0  0  0  0  0  0  0  0  0  0  0
  -25.9850  -38.3360   23.9340 H   0  0  0  0  0  0  0  0  0  0  0  0
  -28.9780  -20.6050   20.5940 C   0  0  0  0  0  0  0  0  0  0  0  0
  -29.8990  -21.1360   21.4160 N   0  0  0  0  0  0  0  0  0  0  0  0
  -27.8730  -20.3710   21.0770 O   0  0  0  0  0  0  0  0  0  0  0  0
  -29.5230  -21.1370   22.3500 H   0  0  0  0  0  0  0  0  0  0  0  0
  -28.9500  -19.0610   18.6650 C   0  0  0  0  0  3  0  0  0  0  0  0
  -29.3630  -20.2170   19.2370 C   0  0  0  0  0  3  0  0  0  0  0  0
  -28.1990  -17.9970   19.3180 C   0  0  0  0  0  3  0  0  0  0  0  0
  -28.7620  -17.0310   20.0650 C   0  0  0  0  0  3  0  0  0  0  0  0
  -30.2520  -16.8020   20.2690 C   0  0  0  0  0  2  0  0  0  0  0  0
  -31.0830  -14.4610   20.0120 C   0  0  0  0  0  0  0  0  0  0  0  0
  -30.7850  -12.1850   19.1270 C   0  0  0  0  0  2  0  0  0  0  0  0
  -29.8470  -12.2410   17.9050 C   0  0  0  0  0  2  0  0  0  0  0  0
  -28.3640  -12.2120   18.3380 C   0  0  0  0  0  2  0  0  0  0  0  0
  -28.0430  -13.2110   19.4850 C   0  0  0  0  0  3  0  0  0  0  0  0
  -29.0800  -13.0590   20.6160 C   0  0  0  0  0  2  0  0  0  0  0  0
  -30.4240  -13.2750   20.0380 N   0  0  0  0  0  0  0  0  0  0  0  0
  -32.1110  -14.6780   19.3570 O   0  0  0  0  0  0  0  0  0  0  0  0
  -30.4490  -15.4200   20.6890 N   0  0  0  0  0  0  0  0  0  0  0  0
  -29.7570  -15.0700   21.3340 H   0  0  0  0  0  0  0  0  0  0  0  0
  -25.7080  -13.9860   20.2660 C   0  0  0  0  0  0  0  0  0  0  0  0
  -24.6040  -13.2770   20.6650 C   0  0  0  0  0  0  0  0  0  0  0  0
  -24.9720  -11.9000   20.6050 C   0  0  0  0  0  0  0  0  0  0  0  0
  -26.6810  -13.0360   19.9890 N   0  0  0  0  0  0  0  0  0  0  0  0
  -26.2420  -11.7780   20.2460 N   0  0  0  0  0  0  0  0  0  0  0  0
  -24.1700  -10.6820   20.7970 C   0  0  0  0  0  0  0  0  0  0  0  0
  -24.5440   -9.6910   21.7290 C   0  0  0  0  0  3  0  0  0  0  0  0
  -23.7450   -8.5420   21.9110 C   0  0  0  0  0  3  0  0  0  0  0  0
  -22.5570   -8.3800   21.1570 C   0  0  0  0  0  0  0  0  0  0  0  0
  -22.1990   -9.3630   20.2180 C   0  0  0  0  0  3  0  0  0  0  0  0
  -23.0000  -10.5030   20.0350 C   0  0  0  0  0  3  0  0  0  0  0  0
  -21.7330   -7.2850   21.2500 O   0  0  0  0  0  0  0  0  0  0  0  0
  -21.6240   -6.5610   22.4120 C   0  0  0  0  0  0  0  0  0  0  0  0
  -21.2020   -7.1520   23.6230 C   0  0  0  0  0  3  0  0  0  0  0  0
  -21.0340   -6.3590   24.7740 C   0  0  0  0  0  3  0  0  0  0  0  0
  -21.2740   -4.9730   24.7140 C   0  0  0  0  0  0  0  0  0  0  0  0
  -21.6870   -4.3790   23.5080 C   0  0  0  0  0  3  0  0  0  0  0  0
  -21.8580   -5.1710   22.3590 C   0  0  0  0  0  0  0  0  0  0  0  0
  -22.2360   -4.5910   21.1930 F   0  0  0  0  0  0  0  0  0  0  0  0
  -21.1070   -4.2070   25.8160 F   0  0  0  0  0  0  0  0  0  0  0  0
  -23.2520  -13.8460   20.9960 C   0  0  0  0  0  0  0  0  0  0  0  0
  -22.5240  -13.2070   21.9070 N   0  0  0  0  0  0  0  0  0  0  0  0
  -22.8520  -14.8900   20.4880 O   0  0  0  0  0  0  0  0  0  0  0  0
  -22.8700  -12.3710   22.3490 H   0  0  0  0  0  0  0  0  0  0  0  0
  -21.6180  -13.5760   22.1650 H   0  0  0  0  0  0  0  0  0  0  0  0
  -25.9500  -15.3460   20.1030 N   0  0  0  0  0  0  0  0  0  0  0  0
  -25.2180  -16.0330   20.2480 H   0  0  0  0  0  0  0  0  0  0  0  0
  -26.8260  -15.7630   19.8120 H   0  0  0  0  0  0  0  0  0  0  0  0
  -32.3060  -21.3770   21.8270 C   0  0  0  0  0  2  0  0  0  0  0  0
  -32.3000  -21.0280   23.3390 C   0  0  0  0  0  2  0  0  0  0  0  0
  -33.5240  -20.3350   23.7760 N   0  0  0  0  0  4  0  0  0  0  0  0
  -34.3620  -20.7770   23.4410 H   0  0  0  0  0  0  0  0  0  0  0  0
  -33.5350  -19.3760   23.4720 H   0  0  0  0  0  0  0  0  0  0  0  0
  -33.5530  -20.3410   24.7820 H   0  0  0  0  0  0  0  0  0  0  0  0
  1 50  1  0
  1 96  1  0
  2  1  1  0
  3  2  1  0
  3  6  1  0
  4  2  2  0
  5  3  1  0
  7  8  1  0
  7  6  1  0
  9 20  2  0
 10  8  1  0
 10 15  1  0
 11 19  1  0
 11 21  1  0
 12 18  1  0
 12 14  1  0
 13 19  1  0
 14 15  2  0
 14 13  1  0
 16 17  1  0
 16 10  2  0
 17 12  2  0
 18 11  1  0
 19  9  1  0
 21 23  2  0
 22 21  1  0
 24 22  1  0
 25 34  2  0
 25 30  1  0
 26 22  1  0
 26 30  1  0
 27 26  1  0
 28 29  1  0
 28 27  1  0
 29 25  1  0
 30 31  2  0
 31 32  1  0
 33 32  2  0
 34 33  1  0
 35  9  1  0
 35 40  1  0
 35 36  1  0
 36 39  1  1
 36 37  1  0
 38 36  1  0
 40 43  1  0
 41 45  1  0
 41 40  1  0
 42 41  2  0
 45 44  1  0
 47 45  1  0
 47 48  1  0
 47 46  1  0
 49 51  2  0
 49 50  1  0
 50 52  1  0
 53 54  2  0
 53 55  1  0
 54 49  1  0
 55 56  2  0
 56 57  1  0
 57 66  1  0
 58 64  1  0
 58 66  1  0
 59 64  1  0
 60 61  1  0
 60 59  1  0
 62 61  1  0
 62 71  1  0
 62 63  1  0
 64 63  1  0
 65 58  2  0
 66 67  1  0
 68 69  2  0
 69 88  1  0
 70 69  1  0
 70 73  1  0
 71 72  1  0
 71 68  1  0
 72 70  2  0
 73 74  1  0
 74 75  2  0
 76 79  1  0
 76 75  1  0
 77 76  2  0
 78 77  1  0
 78 73  2  0
 79 80  1  0
 80 81  1  0
 81 82  2  0
 83 82  1  0
 83 87  1  0
 84 83  2  0
 85 80  2  0
 85 84  1  0
 86 85  1  0
 88 89  1  0
 89 92  1  0
 89 91  1  0
 90 88  2  0
 93 94  1  0
 93 68  1  0
 95 93  1  0
 96 97  1  0
 97 98  1  0
 98101  1  0
 99 98  1  0
100 98  1  0
M  ISO  4   7 101   8 101  58 100  66 100
M  END
>  <TORSDO>  (39) 
F 26

>  <SCORE>  (39) 
-11.725

>  <name>  (39) 
38

>  <ligand_id>  (39) 
38

>  <original_smiles>  (39) 
[H]C(C(=O)N([H])C([H])(C(=O)N([H])C([H])([H])C([H])([H])Oc1c([H])c([H])c2c(c1[H])C([H])([H])N(C(=O)C([H])(N([H])C(=O)C([H])(N([H])C([H])([H])[H])C([H])([H])[H])C(C([H])([H])[H])(C([H])([H])[H])C([H])([H])[H])C([H])(C(=O)N([H])C1([H])c3c([H])c([H])c([H])c([H])c3C([H])([H])C([H])([H])C1([H])[H])C2([H])[H])C([H])([H])C([H])([H])[N+]([H])([H])[H])=C([H])C([H])=C([H])C([H])([H])N([H])C(=O)N1C([H])([H])C([H])([H])C([H])([H])C([H])(n2nc(-c3c([H])c([H])c(Oc4c([H])c([H])c(F)c([H])c4F)c([H])c3[H])c(C(=O)N([H])[H])c2N([H])[H])C1([H])[H]

>  <smiles>  (39) 
[H]C(C(=O)N([H])C([H])(C(=O)N([H])C([H])([H])C([H])([H])Oc1c([H])c([H])c2c(c1[H])C([H])([H])N(C(=O)C([H])(N([H])C(=O)C([H])(N([H])C([H])([H])[H])C([H])([H])[H])C(C([H])([H])[H])(C([H])([H])[H])C([H])([H])[H])C([H])(C(=O)N([H])C1([H])c3c([H])c([H])c([H])c([H])c3C([H])([H])C([H])([H])C1([H])[H])C2([H])[H])C([H])([H])C([H])([H])[N+]([H])([H])[H])=C([H])C([H])=C([H])C([H])([H])N([H])C(=O)N1C([H])([H])C([H])([H])C([H])([H])C([H])(n2nc(-c3c([H])c([H])c(Oc4c([H])c([H])c(F)c([H])c4F)c([H])c3[H])c(C(=O)N([H])[H])c2N([H])[H])C1([H])[H]

$$$$
39:0:0
     RDKit          3D

 94101  0  0  1  0  0  0  0  0999 V2000
  -30.0710  -22.0990   23.7850 C   0  0  0  0  0  2  0  0  0  0  0  0
  -30.6390  -20.8040   23.1670 C   0  0  0  0  0  2  0  0  0  0  0  0
  -30.5780  -19.6170   24.1540 C   0  0  0  0  0  2  0  0  0  0  0  0
  -31.3280  -18.3470   23.7000 C   0  0  0  0  0  2  0  0  0  0  0  0
  -30.8920  -17.7220   21.3280 C   0  0  0  0  0  0  0  0  0  0  0  0
  -30.6300  -17.6320   22.6360 N   0  0  0  0  0  0  0  0  0  0  0  0
  -31.7960  -18.4230   20.8740 O   0  0  0  0  0  0  0  0  0  0  0  0
  -29.8830  -17.0060   22.9100 H   0  0  0  0  0  0  0  0  0  0  0  0
  -30.0110  -16.9060   20.3860 C   0  0  0  0  0  2  0  0  0  0  0  0
  -30.5930  -14.5060   20.4020 C   0  0  0  0  0  0  0  0  0  0  0  0
  -30.3150  -12.3510   19.2600 C   0  0  0  0  0  2  0  0  0  0  0  0
  -29.3540  -12.5660   18.0710 C   0  0  0  0  0  2  0  0  0  0  0  0
  -27.8860  -12.4130   18.5180 C   0  0  0  0  0  2  0  0  0  0  0  0
  -27.5590  -13.2390   19.7910 C   0  0  0  0  0  3  0  0  0  0  0  0
  -28.6290  -13.0070   20.8840 C   0  0  0  0  0  2  0  0  0  0  0  0
  -29.9480  -13.3160   20.3060 N   0  0  0  0  0  0  0  0  0  0  0  0
  -31.7140  -14.7150   19.9320 O   0  0  0  0  0  0  0  0  0  0  0  0
  -29.8150  -15.5180   20.8100 N   0  0  0  0  0  0  0  0  0  0  0  0
  -28.9110  -15.2700   21.1810 H   0  0  0  0  0  0  0  0  0  0  0  0
  -25.1610  -13.8270   20.5270 C   0  0  0  0  0  0  0  0  0  0  0  0
  -24.1030  -13.0430   20.9060 C   0  0  0  0  0  0  0  0  0  0  0  0
  -24.5760  -11.6970   20.8630 C   0  0  0  0  0  0  0  0  0  0  0  0
  -26.2120  -12.9560   20.2810 N   0  0  0  0  0  0  0  0  0  0  0  0
  -25.8630  -11.6700   20.5400 N   0  0  0  0  0  0  0  0  0  0  0  0
  -23.8650  -10.4270   21.0560 C   0  0  0  0  0  0  0  0  0  0  0  0
  -24.3180   -9.4600   21.9810 C   0  0  0  0  0  3  0  0  0  0  0  0
  -23.6080   -8.2540   22.1610 C   0  0  0  0  0  3  0  0  0  0  0  0
  -22.4310   -8.0060   21.4160 C   0  0  0  0  0  0  0  0  0  0  0  0
  -21.9960   -8.9610   20.4810 C   0  0  0  0  0  3  0  0  0  0  0  0
  -22.7080  -10.1590   20.2980 C   0  0  0  0  0  3  0  0  0  0  0  0
  -21.6910   -6.8520   21.5050 O   0  0  0  0  0  0  0  0  0  0  0  0
  -21.6630   -6.1020   22.6550 C   0  0  0  0  0  0  0  0  0  0  0  0
  -21.2610   -6.6500   23.8920 C   0  0  0  0  0  3  0  0  0  0  0  0
  -21.1810   -5.8270   25.0330 C   0  0  0  0  0  3  0  0  0  0  0  0
  -21.4910   -4.4580   24.9370 C   0  0  0  0  0  0  0  0  0  0  0  0
  -21.8870   -3.9090   23.7040 C   0  0  0  0  0  3  0  0  0  0  0  0
  -21.9690   -4.7290   22.5660 C   0  0  0  0  0  0  0  0  0  0  0  0
  -22.3300   -4.1920   21.3760 F   0  0  0  0  0  0  0  0  0  0  0  0
  -21.4060   -3.6640   26.0300 F   0  0  0  0  0  0  0  0  0  0  0  0
  -22.7050  -13.5070   21.1970 C   0  0  0  0  0  0  0  0  0  0  0  0
  -21.9940  -12.7990   22.0670 N   0  0  0  0  0  0  0  0  0  0  0  0
  -22.2520  -14.5320   20.6900 O   0  0  0  0  0  0  0  0  0  0  0  0
  -22.3700  -11.9670   22.4980 H   0  0  0  0  0  0  0  0  0  0  0  0
  -21.0570  -13.0930   22.3070 H   0  0  0  0  0  0  0  0  0  0  0  0
  -25.3110  -15.2000   20.3530 N   0  0  0  0  0  0  0  0  0  0  0  0
  -24.5350  -15.8440   20.4610 H   0  0  0  0  0  0  0  0  0  0  0  0
  -26.1460  -15.6470   19.9950 H   0  0  0  0  0  0  0  0  0  0  0  0
  -30.3150  -23.3890   22.9690 C   0  0  0  0  0  2  0  0  0  0  0  0
  -29.2830  -23.6550   21.9400 N   0  0  0  0  0  4  0  0  0  0  0  0
  -28.3770  -23.5520   22.3720 H   0  0  0  0  0  0  0  0  0  0  0  0
  -29.3540  -22.9600   21.2120 H   0  0  0  0  0  0  0  0  0  0  0  0
  -29.3730  -25.0180   21.3530 C   0  0  0  0  0  2  0  0  0  0  0  0
  -28.2030  -25.3640   20.4150 C   0  0  0  0  0  2  0  0  0  0  0  0
  -28.2800  -26.7600   20.1040 O   0  0  0  0  0  0  0  0  0  0  0  0
  -24.5000  -31.8970   23.2140 C   0  0  0  0  0  0  0  0  0  0  0  0
  -27.0960  -27.4610   20.1100 C   0  0  0  0  0  0  0  0  0  0  0  0
  -23.2650  -30.4890   21.5970 C   0  0  0  0  0  3  0  0  0  0  0  0
  -24.6950  -28.9480   20.1540 C   0  0  0  0  0  0  0  0  0  0  0  0
  -25.7840  -30.8550   21.3520 C   0  0  0  0  0  2  0  0  0  0  0  0
  -25.8600  -29.4830   20.7160 C   0  0  0  0  0  0  0  0  0  0  0  0
  -27.0650  -28.7480   20.6860 C   0  0  0  0  0  3  0  0  0  0  0  0
  -25.9150  -26.9340   19.5410 C   0  0  0  0  0  3  0  0  0  0  0  0
  -24.7160  -27.6710   19.5640 C   0  0  0  0  0  3  0  0  0  0  0  0
  -23.4500  -29.8030   20.2160 C   0  0  0  0  0  2  0  0  0  0  0  0
  -24.5360  -31.0950   22.1130 N   0  0  0  0  0  0  0  0  0  0  0  0
  -23.4290  -32.1710   23.7730 O   0  0  0  0  0  0  0  0  0  0  0  0
  -22.6310  -29.4720   22.5710 C   0  0  0  0  0  0  0  0  0  0  0  0
  -21.3070  -29.2810   22.4590 N   0  0  0  0  0  0  0  0  0  0  0  0
  -23.3280  -28.8550   23.3830 O   0  0  0  0  0  0  0  0  0  0  0  0
  -20.8080  -29.8310   21.7740 H   0  0  0  0  0  0  0  0  0  0  0  0
  -17.9490  -28.0560   22.9740 C   0  0  0  0  0  0  0  0  0  0  0  0
  -20.5040  -28.3450   23.2430 C   0  0  0  0  0  3  0  0  0  0  0  0
  -20.6220  -26.9080   22.6850 C   0  0  0  0  0  2  0  0  0  0  0  0
  -19.5230  -26.5590   21.6760 C   0  0  0  0  0  2  0  0  0  0  0  0
  -18.1400  -26.6990   22.3190 C   0  0  0  0  0  2  0  0  0  0  0  0
  -19.0590  -28.8360   23.3940 C   0  0  0  0  0  0  0  0  0  0  0  0
  -18.8280  -30.1070   23.9640 C   0  0  0  0  0  3  0  0  0  0  0  0
  -17.5180  -30.5970   24.1220 C   0  0  0  0  0  3  0  0  0  0  0  0
  -16.4220  -29.8140   23.7220 C   0  0  0  0  0  3  0  0  0  0  0  0
  -16.6380  -28.5460   23.1530 C   0  0  0  0  0  3  0  0  0  0  0  0
  -25.7980  -32.5280   23.8100 C   0  0  0  0  0  3  0  0  0  0  0  0
  -26.3490  -31.7480   25.0660 C   0  0  1  0  0  0  0  0  0  0  0  0
  -25.2840  -31.4980   26.1580 C   0  0  0  0  0  1  0  0  0  0  0  0
  -26.9270  -30.3770   24.6440 C   0  0  0  0  0  1  0  0  0  0  0  0
  -27.5130  -32.5410   25.7060 C   0  0  0  0  0  1  0  0  0  0  0  0
  -25.4930  -33.9230   24.1550 N   0  0  0  0  0  0  0  0  0  0  0  0
  -25.8130  -34.9800   23.3990 C   0  0  0  0  0  0  0  0  0  0  0  0
  -26.4690  -34.8860   22.3580 O   0  0  0  0  0  0  0  0  0  0  0  0
  -24.9100  -34.0710   24.9670 H   0  0  0  0  0  0  0  0  0  0  0  0
  -24.0810  -36.7730   23.0760 C   0  0  0  0  0  1  0  0  0  0  0  0
  -25.3300  -36.3640   23.8720 C   0  0  0  0  0  3  0  0  0  0  0  0
  -27.4730  -37.2400   24.6860 C   0  0  0  0  0  1  0  0  0  0  0  0
  -26.3600  -37.4190   23.7590 N   0  0  0  0  0  0  0  0  0  0  0  0
  -25.9560  -38.3370   23.9220 H   0  0  0  0  0  0  0  0  0  0  0  0
  2  1  1  0
  2  3  1  0
  4  3  1  0
  5  6  1  0
  6  8  1  0
  6  4  1  0
  7  5  2  0
  9 18  1  0
  9  5  1  0
 10 18  1  0
 11 16  1  0
 12 13  1  0
 12 11  1  0
 14 13  1  0
 14 23  1  0
 14 15  1  0
 16 10  1  0
 16 15  1  0
 17 10  2  0
 18 19  1  0
 20 21  2  0
 21 40  1  0
 22 21  1  0
 22 25  1  0
 23 20  1  0
 23 24  1  0
 24 22  2  0
 25 26  1  0
 26 27  2  0
 28 31  1  0
 28 27  1  0
 29 28  2  0
 30 29  1  0
 30 25  2  0
 31 32  1  0
 32 33  1  0
 33 34  2  0
 35 34  1  0
 35 39  1  0
 36 35  2  0
 37 32  2  0
 37 36  1  0
 38 37  1  0
 40 41  1  0
 41 44  1  0
 41 43  1  0
 42 40  2  0
 45 46  1  0
 45 20  1  0
 47 45  1  0
 48  1  1  0
 49 50  1  0
 49 48  1  0
 51 49  1  0
 52 49  1  0
 53 52  1  0
 54 56  1  0
 54 53  1  0
 55 66  2  0
 56 61  1  0
 57 65  1  0
 57 67  1  0
 58 64  1  0
 58 60  1  0
 59 65  1  0
 60 59  1  0
 61 60  2  0
 62 63  1  0
 62 56  2  0
 63 58  2  0
 64 57  1  0
 65 55  1  0
 67 69  2  0
 68 67  1  0
 70 68  1  0
 71 80  2  0
 71 76  1  0
 72 68  1  0
 72 76  1  0
 73 72  1  0
 74 75  1  0
 74 73  1  0
 75 71  1  0
 76 77  2  0
 77 78  1  0
 79 78  2  0
 80 79  1  0
 81 55  1  0
 81 86  1  0
 81 82  1  0
 82 85  1  1
 82 83  1  0
 84 82  1  0
 86 89  1  0
 87 91  1  0
 87 86  1  0
 88 87  2  0
 91 90  1  0
 93 91  1  0
 93 94  1  0
 93 92  1  0
M  ISO  4  10 100  18 100  53 101  54 101
M  END
>  <TORSDO>  (40) 
F 25

>  <SCORE>  (40) 
-11.458

>  <name>  (40) 
39

>  <ligand_id>  (40) 
39

>  <original_smiles>  (40) 
[H]c1c([H])c([H])c2c(c1[H])C([H])([H])C([H])([H])C([H])([H])C2([H])N([H])C(=O)C1([H])N(C(=O)C([H])(N([H])C(=O)C([H])(N([H])C([H])([H])[H])C([H])([H])[H])C(C([H])([H])[H])(C([H])([H])[H])C([H])([H])[H])C([H])([H])c2c([H])c(OC([H])([H])C([H])([H])[N+]([H])([H])C([H])([H])C([H])([H])C([H])([H])C([H])([H])C([H])([H])N([H])C(=O)C([H])([H])N([H])C(=O)N3C([H])([H])C([H])([H])C([H])([H])C([H])(n4nc(-c5c([H])c([H])c(Oc6c([H])c([H])c(F)c([H])c6F)c([H])c5[H])c(C(=O)N([H])[H])c4N([H])[H])C3([H])[H])c([H])c([H])c2C1([H])[H]

>  <smiles>  (40) 
[H]c1c([H])c([H])c2c(c1[H])C([H])([H])C([H])([H])C([H])([H])C2([H])N([H])C(=O)C1([H])N(C(=O)C([H])(N([H])C(=O)C([H])(N([H])C([H])([H])[H])C([H])([H])[H])C(C([H])([H])[H])(C([H])([H])[H])C([H])([H])[H])C([H])([H])c2c([H])c(OC([H])([H])C([H])([H])[N+]([H])([H])C([H])([H])C([H])([H])C([H])([H])C([H])([H])C([H])([H])N([H])C(=O)C([H])([H])N([H])C(=O)N3C([H])([H])C([H])([H])C([H])([H])C([H])(n4nc(-c5c([H])c([H])c(Oc6c([H])c([H])c(F)c([H])c6F)c([H])c5[H])c(C(=O)N([H])[H])c4N([H])[H])C3([H])[H])c([H])c([H])c2C1([H])[H]

$$$$
40:0:0
     RDKit          3D

 94101  0  0  1  0  0  0  0  0999 V2000
  -31.9600  -22.5910   20.8240 C   0  0  0  0  0  2  0  0  0  0  0  0
  -32.0950  -22.1570   19.3470 C   0  0  0  0  0  2  0  0  0  0  0  0
  -31.3430  -20.8890   18.8920 C   0  0  0  0  0  2  0  0  0  0  0  0
  -30.4200  -19.1230   20.3700 C   0  0  0  0  0  0  0  0  0  0  0  0
  -31.4600  -19.7550   19.8120 N   0  0  0  0  0  0  0  0  0  0  0  0
  -29.2780  -19.5880   20.3430 O   0  0  0  0  0  0  0  0  0  0  0  0
  -32.3730  -19.3250   19.9030 H   0  0  0  0  0  0  0  0  0  0  0  0
  -30.6710  -17.7620   21.0240 C   0  0  0  0  0  2  0  0  0  0  0  0
  -29.6550  -16.7280   20.5040 C   0  0  0  0  0  2  0  0  0  0  0  0
  -30.5920  -14.4440   20.5110 C   0  0  0  0  0  0  0  0  0  0  0  0
  -30.3300  -12.3260   19.2990 C   0  0  0  0  0  2  0  0  0  0  0  0
  -29.3670  -12.5920   18.1200 C   0  0  0  0  0  2  0  0  0  0  0  0
  -27.8930  -12.4580   18.5550 C   0  0  0  0  0  2  0  0  0  0  0  0
  -27.5790  -13.2370   19.8610 C   0  0  0  0  0  3  0  0  0  0  0  0
  -28.6410  -12.9180   20.9400 C   0  0  0  0  0  2  0  0  0  0  0  0
  -29.9700  -13.2450   20.3860 N   0  0  0  0  0  0  0  0  0  0  0  0
  -31.6760  -14.7170   19.9890 O   0  0  0  0  0  0  0  0  0  0  0  0
  -29.8120  -15.3840   21.0540 N   0  0  0  0  0  0  0  0  0  0  0  0
  -29.0020  -15.0200   21.5370 H   0  0  0  0  0  0  0  0  0  0  0  0
  -25.1760  -13.8440   20.5710 C   0  0  0  0  0  0  0  0  0  0  0  0
  -24.1130  -13.0690   20.9470 C   0  0  0  0  0  0  0  0  0  0  0  0
  -24.5760  -11.7190   20.9090 C   0  0  0  0  0  0  0  0  0  0  0  0
  -26.2250  -12.9650   20.3380 N   0  0  0  0  0  0  0  0  0  0  0  0
  -25.8640  -11.6830   20.5940 N   0  0  0  0  0  0  0  0  0  0  0  0
  -23.8560  -10.4540   21.1010 C   0  0  0  0  0  0  0  0  0  0  0  0
  -24.3170   -9.4750   22.0090 C   0  0  0  0  0  3  0  0  0  0  0  0
  -23.5980   -8.2740   22.1900 C   0  0  0  0  0  3  0  0  0  0  0  0
  -22.4070   -8.0440   21.4640 C   0  0  0  0  0  0  0  0  0  0  0  0
  -21.9650   -9.0110   20.5460 C   0  0  0  0  0  3  0  0  0  0  0  0
  -22.6820  -10.2050   20.3630 C   0  0  0  0  0  3  0  0  0  0  0  0
  -21.6560   -6.8960   21.5560 O   0  0  0  0  0  0  0  0  0  0  0  0
  -21.6600   -6.1200   22.6880 C   0  0  0  0  0  0  0  0  0  0  0  0
  -21.3060   -6.6440   23.9490 C   0  0  0  0  0  3  0  0  0  0  0  0
  -21.2570   -5.7970   25.0750 C   0  0  0  0  0  3  0  0  0  0  0  0
  -21.5530   -4.4280   24.9390 C   0  0  0  0  0  0  0  0  0  0  0  0
  -21.9020   -3.9040   23.6810 C   0  0  0  0  0  3  0  0  0  0  0  0
  -21.9530   -4.7490   22.5590 C   0  0  0  0  0  0  0  0  0  0  0  0
  -22.2690   -4.2340   21.3460 F   0  0  0  0  0  0  0  0  0  0  0  0
  -21.4990   -3.6110   26.0190 F   0  0  0  0  0  0  0  0  0  0  0  0
  -22.7150  -13.5420   21.2300 C   0  0  0  0  0  0  0  0  0  0  0  0
  -21.9950  -12.8430   22.1010 N   0  0  0  0  0  0  0  0  0  0  0  0
  -22.2690  -14.5650   20.7140 O   0  0  0  0  0  0  0  0  0  0  0  0
  -22.3680  -12.0140   22.5430 H   0  0  0  0  0  0  0  0  0  0  0  0
  -21.0590  -13.1430   22.3320 H   0  0  0  0  0  0  0  0  0  0  0  0
  -25.3350  -15.2160   20.3950 N   0  0  0  0  0  0  0  0  0  0  0  0
  -24.5610  -15.8630   20.4930 H   0  0  0  0  0  0  0  0  0  0  0  0
  -26.1790  -15.6590   20.0550 H   0  0  0  0  0  0  0  0  0  0  0  0
  -30.5470  -22.5920   21.4460 C   0  0  0  0  0  2  0  0  0  0  0  0
  -29.5140  -23.2730   20.6340 N   0  0  0  0  0  4  0  0  0  0  0  0
  -28.6280  -23.0380   21.0590 H   0  0  0  0  0  0  0  0  0  0  0  0
  -29.4980  -22.8920   19.7020 H   0  0  0  0  0  0  0  0  0  0  0  0
  -29.6140  -24.7490   20.5920 C   0  0  0  0  0  2  0  0  0  0  0  0
  -28.3210  -25.3630   20.0420 C   0  0  0  0  0  2  0  0  0  0  0  0
  -28.3820  -26.7790   20.1720 O   0  0  0  0  0  0  0  0  0  0  0  0
  -24.5670  -31.8920   23.2600 C   0  0  0  0  0  0  0  0  0  0  0  0
  -27.1860  -27.4610   20.1690 C   0  0  0  0  0  0  0  0  0  0  0  0
  -23.3450  -30.4890   21.6270 C   0  0  0  0  0  3  0  0  0  0  0  0
  -24.7860  -28.9480   20.2010 C   0  0  0  0  0  0  0  0  0  0  0  0
  -25.8670  -30.8510   21.4080 C   0  0  0  0  0  2  0  0  0  0  0  0
  -25.9460  -29.4790   20.7750 C   0  0  0  0  0  0  0  0  0  0  0  0
  -27.1480  -28.7420   20.7550 C   0  0  0  0  0  3  0  0  0  0  0  0
  -26.0040  -26.9350   19.5930 C   0  0  0  0  0  3  0  0  0  0  0  0
  -24.8070  -27.6720   19.6130 C   0  0  0  0  0  3  0  0  0  0  0  0
  -23.5440  -29.8070   20.2480 C   0  0  0  0  0  2  0  0  0  0  0  0
  -24.6120  -31.0920   22.1570 N   0  0  0  0  0  0  0  0  0  0  0  0
  -23.4910  -32.1660   23.8070 O   0  0  0  0  0  0  0  0  0  0  0  0
  -22.7020  -29.4710   22.5940 C   0  0  0  0  0  0  0  0  0  0  0  0
  -21.3790  -29.2840   22.4700 N   0  0  0  0  0  0  0  0  0  0  0  0
  -23.3890  -28.8480   23.4080 O   0  0  0  0  0  0  0  0  0  0  0  0
  -20.8850  -29.8390   21.7840 H   0  0  0  0  0  0  0  0  0  0  0  0
  -18.0080  -28.0800   22.9630 C   0  0  0  0  0  0  0  0  0  0  0  0
  -20.5640  -28.3490   23.2450 C   0  0  0  0  0  3  0  0  0  0  0  0
  -20.6740  -26.9140   22.6810 C   0  0  0  0  0  2  0  0  0  0  0  0
  -19.5780  -26.5790   21.6660 C   0  0  0  0  0  2  0  0  0  0  0  0
  -18.1930  -26.7250   22.3020 C   0  0  0  0  0  2  0  0  0  0  0  0
  -19.1220  -28.8500   23.3920 C   0  0  0  0  0  0  0  0  0  0  0  0
  -18.8970  -30.1180   23.9680 C   0  0  0  0  0  3  0  0  0  0  0  0
  -17.5910  -30.6180   24.1220 C   0  0  0  0  0  3  0  0  0  0  0  0
  -16.4910  -29.8450   23.7110 C   0  0  0  0  0  3  0  0  0  0  0  0
  -16.7000  -28.5790   23.1370 C   0  0  0  0  0  3  0  0  0  0  0  0
  -25.8590  -32.5200   23.8690 C   0  0  0  0  0  3  0  0  0  0  0  0
  -26.3880  -31.7480   25.1390 C   0  0  1  0  0  0  0  0  0  0  0  0
  -25.3070  -31.5130   26.2180 C   0  0  0  0  0  1  0  0  0  0  0  0
  -26.9630  -30.3700   24.7360 C   0  0  0  0  0  1  0  0  0  0  0  0
  -27.5450  -32.5390   25.7920 C   0  0  0  0  0  1  0  0  0  0  0  0
  -25.5590  -33.9190   24.1980 N   0  0  0  0  0  0  0  0  0  0  0  0
  -25.8870  -34.9680   23.4330 C   0  0  0  0  0  0  0  0  0  0  0  0
  -26.5480  -34.8600   22.3960 O   0  0  0  0  0  0  0  0  0  0  0  0
  -24.9730  -34.0770   25.0060 H   0  0  0  0  0  0  0  0  0  0  0  0
  -24.1560  -36.7590   23.0850 C   0  0  0  0  0  1  0  0  0  0  0  0
  -25.4030  -36.3570   23.8890 C   0  0  0  0  0  3  0  0  0  0  0  0
  -27.5460  -37.2400   24.6990 C   0  0  0  0  0  1  0  0  0  0  0  0
  -26.4350  -37.4100   23.7660 N   0  0  0  0  0  0  0  0  0  0  0  0
  -26.0310  -38.3290   23.9190 H   0  0  0  0  0  0  0  0  0  0  0  0
  1 48  1  0
  2  1  1  0
  3  2  1  0
  3  5  1  0
  4  8  1  0
  5  7  1  0
  5  4  1  0
  6  4  2  0
  9  8  1  0
  9 18  1  0
 10 18  1  0
 11 16  1  0
 12 13  1  0
 12 11  1  0
 14 13  1  0
 14 23  1  0
 14 15  1  0
 16 10  1  0
 16 15  1  0
 17 10  2  0
 18 19  1  0
 20 21  2  0
 21 40  1  0
 22 21  1  0
 22 25  1  0
 23 20  1  0
 23 24  1  0
 24 22  2  0
 25 26  1  0
 26 27  2  0
 28 31  1  0
 28 27  1  0
 29 28  2  0
 30 29  1  0
 30 25  2  0
 31 32  1  0
 32 33  1  0
 33 34  2  0
 35 34  1  0
 35 39  1  0
 36 35  2  0
 37 32  2  0
 37 36  1  0
 38 37  1  0
 40 41  1  0
 41 44  1  0
 41 43  1  0
 42 40  2  0
 45 46  1  0
 45 20  1  0
 47 45  1  0
 49 50  1  0
 49 48  1  0
 51 49  1  0
 52 49  1  0
 53 54  1  0
 53 52  1  0
 55 66  2  0
 56 54  1  0
 56 61  1  0
 57 65  1  0
 57 67  1  0
 58 64  1  0
 58 60  1  0
 59 65  1  0
 60 59  1  0
 61 60  2  0
 62 63  1  0
 62 56  2  0
 63 58  2  0
 64 57  1  0
 65 55  1  0
 67 69  2  0
 68 67  1  0
 70 68  1  0
 71 80  2  0
 71 76  1  0
 72 68  1  0
 72 76  1  0
 73 72  1  0
 74 75  1  0
 74 73  1  0
 75 71  1  0
 76 77  2  0
 77 78  1  0
 79 78  2  0
 80 79  1  0
 81 55  1  0
 81 86  1  0
 81 82  1  0
 82 85  1  1
 82 83  1  0
 84 82  1  0
 86 89  1  0
 87 91  1  0
 87 86  1  0
 88 87  2  0
 91 90  1  0
 93 91  1  0
 93 94  1  0
 93 92  1  0
M  ISO  4  10 100  18 100  53 101  54 101
M  END
>  <TORSDO>  (41) 
F 25

>  <SCORE>  (41) 
-12.128

>  <name>  (41) 
40

>  <ligand_id>  (41) 
40

>  <original_smiles>  (41) 
[H]c1c([H])c([H])c2c(c1[H])C([H])([H])C([H])([H])C([H])([H])C2([H])N([H])C(=O)C1([H])N(C(=O)C([H])(N([H])C(=O)C([H])(N([H])C([H])([H])[H])C([H])([H])[H])C(C([H])([H])[H])(C([H])([H])[H])C([H])([H])[H])C([H])([H])c2c([H])c(OC([H])([H])C([H])([H])[N+]([H])([H])C([H])([H])C([H])([H])C([H])([H])C([H])([H])N([H])C(=O)C([H])([H])C([H])([H])N([H])C(=O)N3C([H])([H])C([H])([H])C([H])([H])C([H])(n4nc(-c5c([H])c([H])c(Oc6c([H])c([H])c(F)c([H])c6F)c([H])c5[H])c(C(=O)N([H])[H])c4N([H])[H])C3([H])[H])c([H])c([H])c2C1([H])[H]

>  <smiles>  (41) 
[H]c1c([H])c([H])c2c(c1[H])C([H])([H])C([H])([H])C([H])([H])C2([H])N([H])C(=O)C1([H])N(C(=O)C([H])(N([H])C(=O)C([H])(N([H])C([H])([H])[H])C([H])([H])[H])C(C([H])([H])[H])(C([H])([H])[H])C([H])([H])[H])C([H])([H])c2c([H])c(OC([H])([H])C([H])([H])[N+]([H])([H])C([H])([H])C([H])([H])C([H])([H])C([H])([H])N([H])C(=O)C([H])([H])C([H])([H])N([H])C(=O)N3C([H])([H])C([H])([H])C([H])([H])C([H])(n4nc(-c5c([H])c([H])c(Oc6c([H])c([H])c(F)c([H])c6F)c([H])c5[H])c(C(=O)N([H])[H])c4N([H])[H])C3([H])[H])c([H])c([H])c2C1([H])[H]

$$$$
41:0:0
     RDKit          3D

 94101  0  0  1  0  0  0  0  0999 V2000
  -32.0770  -23.9810   21.0600 C   0  0  0  0  0  2  0  0  0  0  0  0
  -31.2250  -22.9650   21.7250 N   0  0  0  0  0  4  0  0  0  0  0  0
  -31.4210  -22.9620   22.7150 H   0  0  0  0  0  0  0  0  0  0  0  0
  -30.2520  -23.2010   21.6030 H   0  0  0  0  0  0  0  0  0  0  0  0
  -31.4540  -21.6100   21.1820 C   0  0  0  0  0  2  0  0  0  0  0  0
  -30.6110  -20.5050   21.8530 C   0  0  0  0  0  2  0  0  0  0  0  0
  -30.9910  -19.1550   21.2300 C   0  0  0  0  0  2  0  0  0  0  0  0
  -30.1690  -17.9110   21.6210 C   0  0  0  0  0  2  0  0  0  0  0  0
  -30.9050  -16.7150   20.9980 C   0  0  0  0  0  2  0  0  0  0  0  0
  -30.7440  -14.4450   20.1930 C   0  0  0  0  0  0  0  0  0  0  0  0
  -30.3390  -12.3680   18.9530 C   0  0  0  0  0  2  0  0  0  0  0  0
  -29.3600  -12.6330   17.7960 C   0  0  0  0  0  2  0  0  0  0  0  0
  -27.9050  -12.4790   18.2790 C   0  0  0  0  0  2  0  0  0  0  0  0
  -27.6230  -13.2630   19.5900 C   0  0  0  0  0  3  0  0  0  0  0  0
  -28.7180  -13.0030   20.6470 C   0  0  0  0  0  2  0  0  0  0  0  0
  -30.0210  -13.3100   20.0380 N   0  0  0  0  0  0  0  0  0  0  0  0
  -31.8120  -14.6340   19.6020 O   0  0  0  0  0  0  0  0  0  0  0  0
  -30.2150  -15.4240   20.9460 N   0  0  0  0  0  0  0  0  0  0  0  0
  -29.3230  -15.2930   21.4010 H   0  0  0  0  0  0  0  0  0  0  0  0
  -25.2250  -13.8200   20.3400 C   0  0  0  0  0  0  0  0  0  0  0  0
  -24.1900  -13.0280   20.7560 C   0  0  0  0  0  0  0  0  0  0  0  0
  -24.6900  -11.6900   20.7500 C   0  0  0  0  0  0  0  0  0  0  0  0
  -26.2900  -12.9630   20.1080 N   0  0  0  0  0  0  0  0  0  0  0  0
  -25.9720  -11.6790   20.4100 N   0  0  0  0  0  0  0  0  0  0  0  0
  -24.0090  -10.4140   20.9960 C   0  0  0  0  0  0  0  0  0  0  0  0
  -24.4540   -9.5230   21.9970 C   0  0  0  0  0  3  0  0  0  0  0  0
  -23.7750   -8.3070   22.2270 C   0  0  0  0  0  3  0  0  0  0  0  0
  -22.6370   -7.9730   21.4540 C   0  0  0  0  0  0  0  0  0  0  0  0
  -22.2130   -8.8520   20.4420 C   0  0  0  0  0  3  0  0  0  0  0  0
  -22.8920  -10.0590   20.2120 C   0  0  0  0  0  3  0  0  0  0  0  0
  -21.9310   -6.8020   21.5880 O   0  0  0  0  0  0  0  0  0  0  0  0
  -21.8350   -6.1510   22.7900 C   0  0  0  0  0  0  0  0  0  0  0  0
  -21.2720   -6.7710   23.9280 C   0  0  0  0  0  3  0  0  0  0  0  0
  -21.1320   -6.0420   25.1270 C   0  0  0  0  0  3  0  0  0  0  0  0
  -21.5410   -4.6960   25.1870 C   0  0  0  0  0  0  0  0  0  0  0  0
  -22.0910   -4.0770   24.0510 C   0  0  0  0  0  3  0  0  0  0  0  0
  -22.2350   -4.8020   22.8550 C   0  0  0  0  0  0  0  0  0  0  0  0
  -22.7510   -4.1950   21.7590 F   0  0  0  0  0  0  0  0  0  0  0  0
  -21.3960   -3.9940   26.3340 F   0  0  0  0  0  0  0  0  0  0  0  0
  -22.7870  -13.4700   21.0540 C   0  0  0  0  0  0  0  0  0  0  0  0
  -22.1040  -12.7750   21.9570 N   0  0  0  0  0  0  0  0  0  0  0  0
  -22.3030  -14.4690   20.5200 O   0  0  0  0  0  0  0  0  0  0  0  0
  -22.5110  -11.9710   22.4120 H   0  0  0  0  0  0  0  0  0  0  0  0
  -21.1620  -13.0500   22.1950 H   0  0  0  0  0  0  0  0  0  0  0  0
  -25.3510  -15.1890   20.1200 N   0  0  0  0  0  0  0  0  0  0  0  0
  -24.5770  -15.8350   20.2280 H   0  0  0  0  0  0  0  0  0  0  0  0
  -26.1880  -15.6320   19.7600 H   0  0  0  0  0  0  0  0  0  0  0  0
  -31.7330  -25.4280   21.4390 C   0  0  0  0  0  2  0  0  0  0  0  0
  -32.4610  -26.2550   20.5380 O   0  0  0  0  0  0  0  0  0  0  0  0
  -32.1620  -27.6460   20.5870 C   0  0  0  0  0  2  0  0  0  0  0  0
  -30.7150  -27.9380   20.1360 C   0  0  0  0  0  2  0  0  0  0  0  0
  -30.3170  -27.1150   18.8910 C   0  0  0  0  0  2  0  0  0  0  0  0
  -28.8490  -27.2730   18.4840 C   0  0  0  0  0  2  0  0  0  0  0  0
  -27.9900  -26.6670   19.4510 O   0  0  0  0  0  0  0  0  0  0  0  0
  -24.3700  -31.6480   23.0220 C   0  0  0  0  0  0  0  0  0  0  0  0
  -26.8210  -27.3620   19.6180 C   0  0  0  0  0  0  0  0  0  0  0  0
  -23.0710  -30.3440   21.3650 C   0  0  0  0  0  3  0  0  0  0  0  0
  -24.4400  -28.8540   19.8140 C   0  0  0  0  0  0  0  0  0  0  0  0
  -25.5870  -30.6860   21.0740 C   0  0  0  0  0  2  0  0  0  0  0  0
  -25.6230  -29.3410   20.3840 C   0  0  0  0  0  0  0  0  0  0  0  0
  -26.8140  -28.5980   20.2960 C   0  0  0  0  0  3  0  0  0  0  0  0
  -25.6230  -26.8580   19.0750 C   0  0  0  0  0  3  0  0  0  0  0  0
  -24.4310  -27.6080   19.1580 C   0  0  0  0  0  3  0  0  0  0  0  0
  -23.2140  -29.7270   19.9460 C   0  0  0  0  0  2  0  0  0  0  0  0
  -24.3640  -30.9030   21.8810 N   0  0  0  0  0  0  0  0  0  0  0  0
  -23.3160  -31.9100   23.6200 O   0  0  0  0  0  0  0  0  0  0  0  0
  -22.4430  -29.2910   22.3040 C   0  0  0  0  0  0  0  0  0  0  0  0
  -21.1090  -29.1510   22.2330 N   0  0  0  0  0  0  0  0  0  0  0  0
  -23.1480  -28.6070   23.0510 O   0  0  0  0  0  0  0  0  0  0  0  0
  -20.6040  -29.7450   21.5900 H   0  0  0  0  0  0  0  0  0  0  0  0
  -17.7240  -28.0530   22.8490 C   0  0  0  0  0  0  0  0  0  0  0  0
  -20.3010  -28.2010   22.9950 C   0  0  0  0  0  3  0  0  0  0  0  0
  -20.3190  -26.8060   22.3300 C   0  0  0  0  0  2  0  0  0  0  0  0
  -19.1520  -26.5880   21.3630 C   0  0  0  0  0  2  0  0  0  0  0  0
  -17.8120  -26.7420   22.0900 C   0  0  0  0  0  2  0  0  0  0  0  0
  -18.8940  -28.7470   23.2600 C   0  0  0  0  0  0  0  0  0  0  0  0
  -18.7560  -29.9820   23.9330 C   0  0  0  0  0  3  0  0  0  0  0  0
  -17.4830  -30.5160   24.2030 C   0  0  0  0  0  3  0  0  0  0  0  0
  -16.3290  -29.8180   23.8070 C   0  0  0  0  0  3  0  0  0  0  0  0
  -16.4510  -28.5900   23.1330 C   0  0  0  0  0  3  0  0  0  0  0  0
  -25.6920  -32.2260   23.6140 C   0  0  0  0  0  3  0  0  0  0  0  0
  -26.2390  -31.3930   24.8380 C   0  0  1  0  0  0  0  0  0  0  0  0
  -25.1810  -31.1410   25.9350 C   0  0  0  0  0  1  0  0  0  0  0  0
  -26.7660  -30.0160   24.3650 C   0  0  0  0  0  1  0  0  0  0  0  0
  -27.4310  -32.1320   25.4840 C   0  0  0  0  0  1  0  0  0  0  0  0
  -25.4300  -33.6180   24.0000 N   0  0  0  0  0  0  0  0  0  0  0  0
  -25.7990  -34.6860   23.2800 C   0  0  0  0  0  0  0  0  0  0  0  0
  -26.4620  -34.6010   22.2420 O   0  0  0  0  0  0  0  0  0  0  0  0
  -24.8220  -33.7620   24.7930 H   0  0  0  0  0  0  0  0  0  0  0  0
  -24.1430  -36.5570   22.9970 C   0  0  0  0  0  1  0  0  0  0  0  0
  -25.3630  -36.0700   23.7950 C   0  0  0  0  0  3  0  0  0  0  0  0
  -27.5220  -36.8330   24.6810 C   0  0  0  0  0  1  0  0  0  0  0  0
  -26.4350  -37.0870   23.7380 N   0  0  0  0  0  0  0  0  0  0  0  0
  -26.0640  -38.0140   23.9270 H   0  0  0  0  0  0  0  0  0  0  0  0
  1 48  1  0
  1  2  1  0
  2  3  1  0
  4  2  1  0
  5  2  1  0
  5  6  1  0
  7  8  1  0
  7  6  1  0
  9  8  1  0
 10 18  1  0
 11 16  1  0
 12 13  1  0
 12 11  1  0
 14 13  1  0
 14 23  1  0
 14 15  1  0
 16 10  1  0
 16 15  1  0
 17 10  2  0
 18  9  1  0
 18 19  1  0
 20 21  2  0
 21 40  1  0
 22 21  1  0
 22 25  1  0
 23 20  1  0
 23 24  1  0
 24 22  2  0
 25 26  1  0
 26 27  2  0
 28 31  1  0
 28 27  1  0
 29 28  2  0
 30 29  1  0
 30 25  2  0
 31 32  1  0
 32 37  2  0
 32 33  1  0
 33 34  2  0
 34 35  1  0
 35 39  1  0
 36 35  2  0
 37 36  1  0
 38 37  1  0
 40 41  1  0
 41 44  1  0
 41 43  1  0
 42 40  2  0
 45 46  1  0
 45 20  1  0
 47 45  1  0
 49 50  1  0
 49 48  1  0
 51 50  1  0
 52 51  1  0
 53 52  1  0
 53 54  1  0
 54 56  1  0
 55 66  2  0
 56 61  1  0
 57 65  1  0
 57 67  1  0
 58 64  1  0
 58 60  1  0
 59 65  1  0
 60 59  1  0
 61 60  2  0
 62 63  1  0
 62 56  2  0
 63 58  2  0
 64 57  1  0
 65 55  1  0
 67 69  2  0
 68 67  1  0
 70 68  1  0
 71 80  2  0
 71 76  1  0
 72 68  1  0
 72 76  1  0
 73 72  1  0
 74 75  1  0
 74 73  1  0
 75 71  1  0
 76 77  2  0
 77 78  1  0
 79 78  2  0
 80 79  1  0
 81 55  1  0
 81 86  1  0
 81 82  1  0
 82 85  1  1
 82 83  1  0
 84 82  1  0
 86 89  1  0
 87 91  1  0
 87 86  1  0
 88 87  2  0
 91 90  1  0
 93 91  1  0
 93 94  1  0
 93 92  1  0
M  ISO  4  10 100  18 100  53 101  54 101
M  END
>  <TORSDO>  (42) 
F 28

>  <SCORE>  (42) 
-10.012

>  <name>  (42) 
41

>  <ligand_id>  (42) 
41

>  <original_smiles>  (42) 
[H]c1c([H])c([H])c2c(c1[H])C([H])([H])C([H])([H])C([H])([H])C2([H])N([H])C(=O)C1([H])N(C(=O)C([H])(N([H])C(=O)C([H])(N([H])C([H])([H])[H])C([H])([H])[H])C(C([H])([H])[H])(C([H])([H])[H])C([H])([H])[H])C([H])([H])c2c([H])c(OC([H])([H])C([H])([H])C([H])([H])C([H])([H])OC([H])([H])C([H])([H])[N+]([H])([H])C([H])([H])C([H])([H])C([H])([H])C([H])([H])C([H])([H])N([H])C(=O)N3C([H])([H])C([H])([H])C([H])([H])C([H])(n4nc(-c5c([H])c([H])c(Oc6c([H])c([H])c(F)c([H])c6F)c([H])c5[H])c(C(=O)N([H])[H])c4N([H])[H])C3([H])[H])c([H])c([H])c2C1([H])[H]

>  <smiles>  (42) 
[H]c1c([H])c([H])c2c(c1[H])C([H])([H])C([H])([H])C([H])([H])C2([H])N([H])C(=O)C1([H])N(C(=O)C([H])(N([H])C(=O)C([H])(N([H])C([H])([H])[H])C([H])([H])[H])C(C([H])([H])[H])(C([H])([H])[H])C([H])([H])[H])C([H])([H])c2c([H])c(OC([H])([H])C([H])([H])C([H])([H])C([H])([H])OC([H])([H])C([H])([H])[N+]([H])([H])C([H])([H])C([H])([H])C([H])([H])C([H])([H])C([H])([H])N([H])C(=O)N3C([H])([H])C([H])([H])C([H])([H])C([H])(n4nc(-c5c([H])c([H])c(Oc6c([H])c([H])c(F)c([H])c6F)c([H])c5[H])c(C(=O)N([H])[H])c4N([H])[H])C3([H])[H])c([H])c([H])c2C1([H])[H]

$$$$
42:0:0
     RDKit          3D

 95102  0  0  1  0  0  0  0  0999 V2000
  -29.7800  -21.2200   22.3170 C   0  0  0  0  0  2  0  0  0  0  0  0
  -29.9890  -20.1090   21.2730 C   0  0  0  0  0  2  0  0  0  0  0  0
  -31.2250  -19.2360   21.5550 C   0  0  0  0  0  2  0  0  0  0  0  0
  -31.5710  -18.3920   20.3920 N   0  0  0  0  0  4  0  0  0  0  0  0
  -31.0400  -17.5380   20.4710 H   0  0  0  0  0  0  0  0  0  0  0  0
  -31.2910  -18.8420   19.5380 H   0  0  0  0  0  0  0  0  0  0  0  0
  -32.9940  -18.0020   20.3000 C   0  0  0  0  0  2  0  0  0  0  0  0
  -33.9310  -19.1600   19.8820 C   0  0  0  0  0  2  0  0  0  0  0  0
  -34.7870  -18.8820   18.6300 C   0  0  0  0  0  2  0  0  0  0  0  0
  -34.1720  -19.3290   17.2910 C   0  0  0  0  0  2  0  0  0  0  0  0
  -32.9050  -17.9630   15.7160 C   0  0  0  0  0  0  0  0  0  0  0  0
  -33.9780  -16.3330   14.2120 C   0  0  0  0  0  2  0  0  0  0  0  0
  -33.1800  -15.0270   14.0690 C   0  0  0  0  0  2  0  0  0  0  0  0
  -33.5640  -14.0360   15.1800 C   0  0  0  0  0  2  0  0  0  0  0  0
  -33.4970  -14.6790   16.5880 C   0  0  0  0  0  3  0  0  0  0  0  0
  -34.2460  -16.0300   16.6180 C   0  0  0  0  0  2  0  0  0  0  0  0
  -33.7320  -16.8990   15.5440 N   0  0  0  0  0  0  0  0  0  0  0  0
  -32.1680  -18.4030   14.8330 O   0  0  0  0  0  0  0  0  0  0  0  0
  -32.9690  -18.5870   16.9000 N   0  0  0  0  0  0  0  0  0  0  0  0
  -32.1490  -19.1670   17.0030 H   0  0  0  0  0  0  0  0  0  0  0  0
  -33.3710  -13.3080   18.7670 C   0  0  0  0  0  0  0  0  0  0  0  0
  -34.2430  -12.4200   19.3430 C   0  0  0  0  0  0  0  0  0  0  0  0
  -35.3810  -12.3720   18.4790 C   0  0  0  0  0  0  0  0  0  0  0  0
  -33.9950  -13.7620   17.6140 N   0  0  0  0  0  0  0  0  0  0  0  0
  -35.2350  -13.2270   17.4760 N   0  0  0  0  0  0  0  0  0  0  0  0
  -36.5760  -11.5200   18.5200 C   0  0  0  0  0  0  0  0  0  0  0  0
  -37.8760  -12.0710   18.4830 C   0  0  0  0  0  3  0  0  0  0  0  0
  -39.0100  -11.2320   18.5440 C   0  0  0  0  0  3  0  0  0  0  0  0
  -38.8520   -9.8300   18.6480 C   0  0  0  0  0  0  0  0  0  0  0  0
  -37.5540   -9.2860   18.6620 C   0  0  0  0  0  3  0  0  0  0  0  0
  -36.4270  -10.1210   18.5940 C   0  0  0  0  0  3  0  0  0  0  0  0
  -39.8950   -8.9360   18.6840 O   0  0  0  0  0  0  0  0  0  0  0  0
  -41.1250   -9.2850   19.1830 C   0  0  0  0  0  0  0  0  0  0  0  0
  -41.2760   -9.8140   20.4830 C   0  0  0  0  0  3  0  0  0  0  0  0
  -42.5650  -10.0960   20.9830 C   0  0  0  0  0  3  0  0  0  0  0  0
  -43.6990   -9.8400   20.1900 C   0  0  0  0  0  0  0  0  0  0  0  0
  -43.5500   -9.3050   18.8980 C   0  0  0  0  0  3  0  0  0  0  0  0
  -42.2660   -9.0270   18.3970 C   0  0  0  0  0  0  0  0  0  0  0  0
  -42.1280   -8.4920   17.1610 F   0  0  0  0  0  0  0  0  0  0  0  0
  -44.9380  -10.1000   20.6710 F   0  0  0  0  0  0  0  0  0  0  0  0
  -33.9970  -11.5880   20.5680 C   0  0  0  0  0  0  0  0  0  0  0  0
  -35.0460  -11.2780   21.3220 N   0  0  0  0  0  0  0  0  0  0  0  0
  -32.8600  -11.2450   20.8910 O   0  0  0  0  0  0  0  0  0  0  0  0
  -35.9780  -11.5740   21.0730 H   0  0  0  0  0  0  0  0  0  0  0  0
  -34.9170  -10.7340   22.1630 H   0  0  0  0  0  0  0  0  0  0  0  0
  -32.0970  -13.7520   19.1130 N   0  0  0  0  0  0  0  0  0  0  0  0
  -31.5210  -14.3090   18.4950 H   0  0  0  0  0  0  0  0  0  0  0  0
  -31.5770  -13.3450   19.8810 H   0  0  0  0  0  0  0  0  0  0  0  0
  -29.4970  -22.5930   21.6750 C   0  0  0  0  0  2  0  0  0  0  0  0
  -29.8720  -23.7100   22.5670 N   0  0  0  0  0  4  0  0  0  0  0  0
  -30.8020  -23.5460   22.9250 H   0  0  0  0  0  0  0  0  0  0  0  0
  -29.2370  -23.7100   23.3520 H   0  0  0  0  0  0  0  0  0  0  0  0
  -29.8160  -25.0450   21.9220 C   0  0  0  0  0  2  0  0  0  0  0  0
  -30.1000  -26.1920   22.9070 C   0  0  0  0  0  2  0  0  0  0  0  0
  -29.7080  -27.4120   22.2830 O   0  0  0  0  0  0  0  0  0  0  0  0
  -24.4610  -28.0790   27.0550 C   0  0  0  0  0  0  0  0  0  0  0  0
  -28.4300  -27.8220   22.5620 C   0  0  0  0  0  0  0  0  0  0  0  0
  -23.8740  -28.6330   24.7130 C   0  0  0  0  0  3  0  0  0  0  0  0
  -25.8370  -28.7880   23.0910 C   0  0  0  0  0  0  0  0  0  0  0  0
  -26.2730  -28.8840   25.5530 C   0  0  0  0  0  2  0  0  0  0  0  0
  -26.7320  -28.5710   24.1460 C   0  0  0  0  0  0  0  0  0  0  0  0
  -28.0280  -28.0810   23.8890 C   0  0  0  0  0  3  0  0  0  0  0  0
  -27.5230  -28.0360   21.5060 C   0  0  0  0  0  3  0  0  0  0  0  0
  -26.2220  -28.5110   21.7670 C   0  0  0  0  0  3  0  0  0  0  0  0
  -24.4720  -29.3260   23.4570 C   0  0  0  0  0  2  0  0  0  0  0  0
  -24.8720  -28.4920   25.8220 N   0  0  0  0  0  0  0  0  0  0  0  0
  -23.2660  -27.8540   27.2880 O   0  0  0  0  0  0  0  0  0  0  0  0
  -23.2490  -27.2870   24.2810 C   0  0  0  0  0  0  0  0  0  0  0  0
  -22.2780  -27.3490   23.3570 N   0  0  0  0  0  0  0  0  0  0  0  0
  -23.6560  -26.2210   24.7530 O   0  0  0  0  0  0  0  0  0  0  0  0
  -21.9990  -28.2610   23.0230 H   0  0  0  0  0  0  0  0  0  0  0  0
  -20.0640  -26.3580   20.6820 C   0  0  0  0  0  0  0  0  0  0  0  0
  -21.5730  -26.2090   22.7740 C   0  0  0  0  0  3  0  0  0  0  0  0
  -22.5250  -25.3560   21.9030 C   0  0  0  0  0  2  0  0  0  0  0  0
  -22.5100  -25.7570   20.4260 C   0  0  0  0  0  2  0  0  0  0  0  0
  -21.0980  -25.6220   19.8470 C   0  0  0  0  0  2  0  0  0  0  0  0
  -20.2950  -26.6470   22.0530 C   0  0  0  0  0  0  0  0  0  0  0  0
  -19.3170  -27.3650   22.7750 C   0  0  0  0  0  3  0  0  0  0  0  0
  -18.1270  -27.7870   22.1540 C   0  0  0  0  0  3  0  0  0  0  0  0
  -17.8960  -27.4850   20.8000 C   0  0  0  0  0  3  0  0  0  0  0  0
  -18.8610  -26.7690   20.0690 C   0  0  0  0  0  3  0  0  0  0  0  0
  -25.4680  -27.8910   28.2320 C   0  0  0  0  0  3  0  0  0  0  0  0
  -24.7050  -27.9730   29.4850 N   0  0  0  0  0  0  0  0  0  0  0  0
  -24.7580  -29.0020   30.3420 C   0  0  0  0  0  0  0  0  0  0  0  0
  -25.5230  -29.9590   30.1920 O   0  0  0  0  0  0  0  0  0  0  0  0
  -24.0250  -27.2470   29.6470 H   0  0  0  0  0  0  0  0  0  0  0  0
  -22.5930  -29.8570   31.2890 C   0  0  0  0  0  1  0  0  0  0  0  0
  -23.8140  -28.9620   31.5580 C   0  0  0  0  0  3  0  0  0  0  0  0
  -25.4560  -28.4140   33.2990 C   0  0  0  0  0  1  0  0  0  0  0  0
  -24.4620  -29.3730   32.8220 N   0  0  0  0  0  0  0  0  0  0  0  0
  -23.7720  -29.5040   33.5550 H   0  0  0  0  0  0  0  0  0  0  0  0
  -26.2700  -26.5340   28.1560 C   0  0  1  0  0  0  0  0  0  0  0  0
  -25.3660  -25.2860   28.0300 C   0  0  0  0  0  1  0  0  0  0  0  0
  -27.2400  -26.5420   26.9520 C   0  0  0  0  0  1  0  0  0  0  0  0
  -27.1390  -26.3640   29.4250 C   0  0  0  0  0  1  0  0  0  0  0  0
  2  3  1  0
  2  1  1  0
  4  5  1  0
  4  3  1  0
  6  4  1  0
  7  4  1  0
  8  7  1  0
  9  8  1  0
 10  9  1  0
 11 19  1  0
 12 17  1  0
 13 12  1  0
 13 14  1  0
 15 14  1  0
 15 16  1  0
 15 24  1  0
 17 11  1  0
 17 16  1  0
 18 11  2  0
 19 20  1  0
 19 10  1  0
 21 46  1  0
 21 22  2  0
 22 41  1  0
 23 26  1  0
 23 22  1  0
 24 21  1  0
 25 24  1  0
 25 23  2  0
 26 31  1  0
 27 26  2  0
 27 28  1  0
 28 29  2  0
 29 30  1  0
 29 32  1  0
 31 30  2  0
 32 33  1  0
 33 34  1  0
 34 35  2  0
 36 40  1  0
 36 35  1  0
 37 36  2  0
 38 37  1  0
 38 33  2  0
 39 38  1  0
 41 43  2  0
 41 42  1  0
 42 45  1  0
 44 42  1  0
 46 48  1  0
 47 46  1  0
 49  1  1  0
 49 50  1  0
 50 51  1  0
 50 52  1  0
 53 50  1  0
 53 54  1  0
 55 57  1  0
 55 54  1  0
 56 67  2  0
 57 62  1  0
 58 68  1  0
 58 66  1  0
 59 65  1  0
 59 61  1  0
 60 66  1  0
 61 60  1  0
 62 61  2  0
 63 64  1  0
 63 57  2  0
 64 59  2  0
 65 58  1  0
 66 56  1  0
 68 70  2  0
 69 68  1  0
 71 69  1  0
 72 77  1  0
 73 69  1  0
 74 73  1  0
 75 74  1  0
 76 75  1  0
 76 72  1  0
 77 73  1  0
 77 78  2  0
 79 78  1  0
 80 79  2  0
 81 72  2  0
 81 80  1  0
 82 56  1  0
 82 83  1  0
 83 86  1  0
 83 84  1  0
 84 88  1  0
 85 84  2  0
 88 87  1  0
 88 90  1  0
 90 89  1  0
 90 91  1  0
 92 82  1  0
 92 95  1  1
 93 92  1  0
 94 92  1  0
M  ISO  4  11 100  19 100  54 101  55 101
M  END
>  <TORSDO>  (43) 
F 27

>  <SCORE>  (43) 
-3.991

>  <name>  (43) 
42

>  <ligand_id>  (43) 
42

>  <original_smiles>  (43) 
[H]c1c([H])c([H])c2c(c1[H])C([H])([H])C([H])([H])C([H])([H])C2([H])N([H])C(=O)C1([H])N(C(=O)C([H])(N([H])C(=O)C([H])(N([H])C([H])([H])[H])C([H])([H])[H])C(C([H])([H])[H])(C([H])([H])[H])C([H])([H])[H])C([H])([H])c2c([H])c(OC([H])([H])C([H])([H])[N+]([H])([H])C([H])([H])C([H])([H])C([H])([H])C([H])([H])[N+]([H])([H])C([H])([H])C([H])([H])C([H])([H])C([H])([H])N([H])C(=O)N3C([H])([H])C([H])([H])C([H])([H])C([H])(n4nc(-c5c([H])c([H])c(Oc6c([H])c([H])c(F)c([H])c6F)c([H])c5[H])c(C(=O)N([H])[H])c4N([H])[H])C3([H])[H])c([H])c([H])c2C1([H])[H]

>  <smiles>  (43) 
[H]c1c([H])c([H])c2c(c1[H])C([H])([H])C([H])([H])C([H])([H])C2([H])N([H])C(=O)C1([H])N(C(=O)C([H])(N([H])C(=O)C([H])(N([H])C([H])([H])[H])C([H])([H])[H])C(C([H])([H])[H])(C([H])([H])[H])C([H])([H])[H])C([H])([H])c2c([H])c(OC([H])([H])C([H])([H])[N+]([H])([H])C([H])([H])C([H])([H])C([H])([H])C([H])([H])[N+]([H])([H])C([H])([H])C([H])([H])C([H])([H])C([H])([H])N([H])C(=O)N3C([H])([H])C([H])([H])C([H])([H])C([H])(n4nc(-c5c([H])c([H])c(Oc6c([H])c([H])c(F)c([H])c6F)c([H])c5[H])c(C(=O)N([H])[H])c4N([H])[H])C3([H])[H])c([H])c([H])c2C1([H])[H]

$$$$
43:0:0
     RDKit          3D

 93100  0  0  1  0  0  0  0  0999 V2000
  -29.4020  -22.9840   22.4680 C   0  0  0  0  0  0  0  0  0  0  0  0
  -29.8140  -24.2510   22.3420 N   0  0  0  0  0  0  0  0  0  0  0  0
  -29.4410  -22.4350   23.5710 O   0  0  0  0  0  0  0  0  0  0  0  0
  -30.1470  -24.6920   23.1880 H   0  0  0  0  0  0  0  0  0  0  0  0
  -28.8640  -22.2170   21.2500 C   0  0  0  0  0  2  0  0  0  0  0  0
  -29.6840  -19.9200   20.7430 C   0  0  0  0  0  0  0  0  0  0  0  0
  -29.0000  -20.7830   21.4960 N   0  0  0  0  0  0  0  0  0  0  0  0
  -30.0380  -20.1770   19.5910 O   0  0  0  0  0  0  0  0  0  0  0  0
  -28.7660  -20.4970   22.4370 H   0  0  0  0  0  0  0  0  0  0  0  0
  -29.9990  -18.7080   21.4750 C   0  0  0  0  0  3  0  0  0  0  0  0
  -30.7180  -17.7180   20.9150 C   0  0  0  0  0  3  0  0  0  0  0  0
  -31.1470  -16.4700   21.6610 C   0  0  0  0  0  2  0  0  0  0  0  0
  -31.0150  -14.4330   20.2160 C   0  0  0  0  0  0  0  0  0  0  0  0
  -30.6090  -12.3560   18.9440 C   0  0  0  0  0  2  0  0  0  0  0  0
  -29.6260  -12.5910   17.7800 C   0  0  0  0  0  2  0  0  0  0  0  0
  -28.1650  -12.4800   18.2570 C   0  0  0  0  0  2  0  0  0  0  0  0
  -27.8900  -13.3070   19.5410 C   0  0  0  0  0  3  0  0  0  0  0  0
  -28.9650  -13.0170   20.6090 C   0  0  0  0  0  2  0  0  0  0  0  0
  -30.2860  -13.3050   20.0170 N   0  0  0  0  0  0  0  0  0  0  0  0
  -32.0560  -14.6880   19.6020 O   0  0  0  0  0  0  0  0  0  0  0  0
  -30.5190  -15.2620   21.1430 N   0  0  0  0  0  0  0  0  0  0  0  0
  -29.6510  -14.9790   21.5740 H   0  0  0  0  0  0  0  0  0  0  0  0
  -25.5180  -13.9660   20.3020 C   0  0  0  0  0  0  0  0  0  0  0  0
  -24.4460  -13.2130   20.7010 C   0  0  0  0  0  0  0  0  0  0  0  0
  -24.8800  -11.8540   20.6620 C   0  0  0  0  0  0  0  0  0  0  0  0
  -26.5420  -13.0650   20.0510 N   0  0  0  0  0  0  0  0  0  0  0  0
  -26.1610  -11.7900   20.3230 N   0  0  0  0  0  0  0  0  0  0  0  0
  -24.1380  -10.6040   20.8740 C   0  0  0  0  0  0  0  0  0  0  0  0
  -24.5570   -9.6490   21.8270 C   0  0  0  0  0  3  0  0  0  0  0  0
  -23.8150   -8.4650   22.0230 C   0  0  0  0  0  3  0  0  0  0  0  0
  -22.6430   -8.2270   21.2670 C   0  0  0  0  0  0  0  0  0  0  0  0
  -22.2440   -9.1720   20.3060 C   0  0  0  0  0  3  0  0  0  0  0  0
  -22.9850  -10.3470   20.1070 C   0  0  0  0  0  3  0  0  0  0  0  0
  -21.8750   -7.0930   21.3720 O   0  0  0  0  0  0  0  0  0  0  0  0
  -21.7790   -6.3950   22.5500 C   0  0  0  0  0  0  0  0  0  0  0  0
  -21.3260   -7.0020   23.7410 C   0  0  0  0  0  3  0  0  0  0  0  0
  -21.1750   -6.2330   24.9110 C   0  0  0  0  0  3  0  0  0  0  0  0
  -21.4680   -4.8550   24.8910 C   0  0  0  0  0  0  0  0  0  0  0  0
  -21.9140   -4.2470   23.7040 C   0  0  0  0  0  3  0  0  0  0  0  0
  -22.0650   -5.0150   22.5360 C   0  0  0  0  0  0  0  0  0  0  0  0
  -22.4740   -4.4190   21.3900 F   0  0  0  0  0  0  0  0  0  0  0  0
  -21.3160   -4.1130   26.0120 F   0  0  0  0  0  0  0  0  0  0  0  0
  -23.0640  -13.7180   21.0050 C   0  0  0  0  0  0  0  0  0  0  0  0
  -22.3490  -13.0430   21.9000 N   0  0  0  0  0  0  0  0  0  0  0  0
  -22.6280  -14.7440   20.4860 O   0  0  0  0  0  0  0  0  0  0  0  0
  -22.7140  -12.2120   22.3420 H   0  0  0  0  0  0  0  0  0  0  0  0
  -21.4250  -13.3650   22.1490 H   0  0  0  0  0  0  0  0  0  0  0  0
  -25.7060  -15.3320   20.1180 N   0  0  0  0  0  0  0  0  0  0  0  0
  -24.9640  -16.0100   20.2570 H   0  0  0  0  0  0  0  0  0  0  0  0
  -26.5620  -15.7480   19.7710 H   0  0  0  0  0  0  0  0  0  0  0  0
  -29.8030  -25.0980   21.1530 C   0  0  0  0  0  2  0  0  0  0  0  0
  -28.3830  -25.5380   20.7670 C   0  0  0  0  0  2  0  0  0  0  0  0
  -28.4570  -26.7940   20.1050 O   0  0  0  0  0  0  0  0  0  0  0  0
  -24.6250  -31.8750   23.2370 C   0  0  0  0  0  0  0  0  0  0  0  0
  -27.2770  -27.4940   20.1170 C   0  0  0  0  0  0  0  0  0  0  0  0
  -23.4140  -30.4810   21.5890 C   0  0  0  0  0  3  0  0  0  0  0  0
  -24.8680  -28.9520   20.1570 C   0  0  0  0  0  0  0  0  0  0  0  0
  -25.9350  -30.8590   21.3800 C   0  0  0  0  0  2  0  0  0  0  0  0
  -26.0250  -29.4940   20.7340 C   0  0  0  0  0  0  0  0  0  0  0  0
  -27.2360  -28.7740   20.7040 C   0  0  0  0  0  3  0  0  0  0  0  0
  -26.1060  -26.9490   19.5530 C   0  0  0  0  0  3  0  0  0  0  0  0
  -24.9020  -27.6760   19.5660 C   0  0  0  0  0  3  0  0  0  0  0  0
  -23.6200  -29.8030   20.2090 C   0  0  0  0  0  2  0  0  0  0  0  0
  -24.6780  -31.0840   22.1290 N   0  0  0  0  0  0  0  0  0  0  0  0
  -23.5460  -32.1400   23.7840 O   0  0  0  0  0  0  0  0  0  0  0  0
  -22.7710  -29.4530   22.5480 C   0  0  0  0  0  0  0  0  0  0  0  0
  -21.4460  -29.2730   22.4310 N   0  0  0  0  0  0  0  0  0  0  0  0
  -23.4620  -28.8210   23.3520 O   0  0  0  0  0  0  0  0  0  0  0  0
  -20.9480  -29.8350   21.7550 H   0  0  0  0  0  0  0  0  0  0  0  0
  -18.0770  -28.0790   22.9500 C   0  0  0  0  0  0  0  0  0  0  0  0
  -20.6370  -28.3290   23.1990 C   0  0  0  0  0  3  0  0  0  0  0  0
  -20.7320  -26.9030   22.6080 C   0  0  0  0  0  2  0  0  0  0  0  0
  -19.6180  -26.5860   21.6050 C   0  0  0  0  0  2  0  0  0  0  0  0
  -18.2440  -26.7320   22.2660 C   0  0  0  0  0  2  0  0  0  0  0  0
  -19.1990  -28.8370   23.3740 C   0  0  0  0  0  0  0  0  0  0  0  0
  -18.9920  -30.0990   23.9690 C   0  0  0  0  0  3  0  0  0  0  0  0
  -17.6900  -30.6040   24.1490 C   0  0  0  0  0  3  0  0  0  0  0  0
  -16.5800  -29.8400   23.7480 C   0  0  0  0  0  3  0  0  0  0  0  0
  -16.7740  -28.5810   23.1530 C   0  0  0  0  0  3  0  0  0  0  0  0
  -25.9130  -32.5060   23.8530 C   0  0  0  0  0  3  0  0  0  0  0  0
  -25.6050  -33.9050   24.1790 N   0  0  0  0  0  0  0  0  0  0  0  0
  -25.9490  -34.9550   23.4210 C   0  0  0  0  0  0  0  0  0  0  0  0
  -26.6310  -34.8470   22.3980 O   0  0  0  0  0  0  0  0  0  0  0  0
  -24.9970  -34.0630   24.9690 H   0  0  0  0  0  0  0  0  0  0  0  0
  -24.2380  -36.7580   23.0320 C   0  0  0  0  0  1  0  0  0  0  0  0
  -25.4590  -36.3460   23.8690 C   0  0  0  0  0  3  0  0  0  0  0  0
  -27.5830  -37.2180   24.7400 C   0  0  0  0  0  1  0  0  0  0  0  0
  -26.5010  -37.3930   23.7750 N   0  0  0  0  0  0  0  0  0  0  0  0
  -26.0970  -38.3150   23.9170 H   0  0  0  0  0  0  0  0  0  0  0  0
  -26.4310  -31.7370   25.1290 C   0  0  1  0  0  0  0  0  0  0  0  0
  -25.3430  -31.4970   26.2000 C   0  0  0  0  0  1  0  0  0  0  0  0
  -27.0160  -30.3590   24.7350 C   0  0  0  0  0  1  0  0  0  0  0  0
  -27.5840  -32.5320   25.7890 C   0  0  0  0  0  1  0  0  0  0  0  0
  1  3  2  0
  2  1  1  0
  2  4  1  0
  5  7  1  0
  5  1  1  0
  6 10  1  0
  6  7  1  0
  7  9  1  0
  8  6  2  0
 11 10  2  0
 11 12  1  0
 13 21  1  0
 14 19  1  0
 15 16  1  0
 15 14  1  0
 17 16  1  0
 17 26  1  0
 17 18  1  0
 19 13  1  0
 19 18  1  0
 20 13  2  0
 21 22  1  0
 21 12  1  0
 23 24  2  0
 24 43  1  0
 25 24  1  0
 25 28  1  0
 26 23  1  0
 26 27  1  0
 27 25  2  0
 28 29  1  0
 29 30  2  0
 31 34  1  0
 31 30  1  0
 32 31  2  0
 33 32  1  0
 33 28  2  0
 34 35  1  0
 35 36  1  0
 36 37  2  0
 38 37  1  0
 38 42  1  0
 39 38  2  0
 40 35  2  0
 40 39  1  0
 41 40  1  0
 43 44  1  0
 44 47  1  0
 44 46  1  0
 45 43  2  0
 48 49  1  0
 48 23  1  0
 50 48  1  0
 51  2  1  0
 52 51  1  0
 53 55  1  0
 53 52  1  0
 54 65  2  0
 55 60  1  0
 56 64  1  0
 56 66  1  0
 57 63  1  0
 57 59  1  0
 58 64  1  0
 59 58  1  0
 60 59  2  0
 61 62  1  0
 61 55  2  0
 62 57  2  0
 63 56  1  0
 64 54  1  0
 66 68  2  0
 67 66  1  0
 69 67  1  0
 70 79  2  0
 70 75  1  0
 71 67  1  0
 71 75  1  0
 72 71  1  0
 73 74  1  0
 73 72  1  0
 74 70  1  0
 75 76  2  0
 76 77  1  0
 78 77  2  0
 79 78  1  0
 80 54  1  0
 80 81  1  0
 80 90  1  0
 81 84  1  0
 82 86  1  0
 82 81  1  0
 83 82  2  0
 86 85  1  0
 88 86  1  0
 88 89  1  0
 88 87  1  0
 90 93  1  1
 90 91  1  0
 92 90  1  0
M  ISO  4  13 100  21 100  52 101  53 101
M  END
>  <TORSDO>  (44) 
F 22

>  <SCORE>  (44) 
-13.117

>  <name>  (44) 
43

>  <ligand_id>  (44) 
43

>  <original_smiles>  (44) 
[H]C(C(=O)N([H])C([H])([H])C(=O)N([H])C([H])([H])C([H])([H])Oc1c([H])c([H])c2c(c1[H])C([H])([H])N(C(=O)C([H])(N([H])C(=O)C([H])(N([H])C([H])([H])[H])C([H])([H])[H])C(C([H])([H])[H])(C([H])([H])[H])C([H])([H])[H])C([H])(C(=O)N([H])C1([H])c3c([H])c([H])c([H])c([H])c3C([H])([H])C([H])([H])C1([H])[H])C2([H])[H])=C([H])C([H])([H])N([H])C(=O)N1C([H])([H])C([H])([H])C([H])([H])C([H])(n2nc(-c3c([H])c([H])c(Oc4c([H])c([H])c(F)c([H])c4F)c([H])c3[H])c(C(=O)N([H])[H])c2N([H])[H])C1([H])[H]

>  <smiles>  (44) 
[H]C(C(=O)N([H])C([H])([H])C(=O)N([H])C([H])([H])C([H])([H])Oc1c([H])c([H])c2c(c1[H])C([H])([H])N(C(=O)C([H])(N([H])C(=O)C([H])(N([H])C([H])([H])[H])C([H])([H])[H])C(C([H])([H])[H])(C([H])([H])[H])C([H])([H])[H])C([H])(C(=O)N([H])C1([H])c3c([H])c([H])c([H])c([H])c3C([H])([H])C([H])([H])C1([H])[H])C2([H])[H])=C([H])C([H])([H])N([H])C(=O)N1C([H])([H])C([H])([H])C([H])([H])C([H])(n2nc(-c3c([H])c([H])c(Oc4c([H])c([H])c(F)c([H])c4F)c([H])c3[H])c(C(=O)N([H])[H])c2N([H])[H])C1([H])[H]

$$$$
44:0:0
     RDKit          3D

 98 98  0  0  1  0  0  0  0  0999 V2000
  -21.2220  -27.6450   18.2280 N   0  0  0  0  0  4  0  0  0  0  0  0
  -20.7880  -28.4230   17.7510 H   0  0  0  0  0  0  0  0  0  0  0  0
  -22.1110  -28.0360   18.4840 H   0  0  0  0  0  0  0  0  0  0  0  0
  -20.2960  -27.4620   19.4800 C   0  0  0  0  0  3  0  0  0  0  0  0
  -20.8860  -27.8300   20.9440 C   0  0  0  0  0  3  0  0  0  0  0  0
  -20.2310  -27.4470   22.2550 O   0  0  0  0  0  0  0  0  0  0  0  0
  -20.8290  -27.4890   23.6890 C   0  0  0  0  0  1  0  0  0  0  0  0
  -23.4430  -25.2460   24.3630 C   0  0  0  0  0 15  0  0  0  0  0  0
  -24.8910  -23.9390   23.0710 C   0  0  0  0  0 15  0  0  0  0  0  0
  -26.5330  -23.3950   21.5490 C   0  0  0  0  0 15  0  0  0  0  0  0
  -27.8370  -21.9570   20.3250 C   0  0  0  0  0 15  0  0  0  0  0  0
  -29.5860  -21.3690   18.9520 C   0  0  0  0  0 15  0  0  0  0  0  0
  -30.7510  -19.9370   17.5900 C   0  0  0  0  0 15  0  0  0  0  0  0
  -33.3430  -18.6690   15.1690 C   0  0  0  0  0  0  0  0  0  0  0  0
  -34.7010  -16.5890   13.7020 C   0  0  0  0  0  2  0  0  0  0  0  0
  -33.9960  -15.2280   13.3020 C   0  0  0  0  0  2  0  0  0  0  0  0
  -33.7360  -14.3680   14.5420 C   0  0  0  0  0  2  0  0  0  0  0  0
  -33.3970  -15.3220   15.7000 C   0  0  0  0  0  3  0  0  0  0  0  0
  -34.4250  -16.4160   15.9710 C   0  0  0  0  0  2  0  0  0  0  0  0
  -34.0740  -17.3570   14.9650 N   0  0  0  0  0  0  0  0  0  0  0  0
  -33.8050  -19.1710   14.0750 O   0  0  0  0  0  0  0  0  0  0  0  0
  -32.3410  -19.4780   16.3590 N   0  0  0  0  0  2  0  0  0  0  0  0
  -32.6880  -20.4140   16.2060 H   0  0  0  0  0  0  0  0  0  0  0  0
  -32.0800  -15.0850   17.7760 C   0  0  0  0  0  0  0  0  0  0  0  0
  -32.2220  -14.2730   18.8540 C   0  0  0  0  0  0  0  0  0  0  0  0
  -33.3990  -13.5010   18.6190 C   0  0  0  0  0  0  0  0  0  0  0  0
  -33.1200  -14.7370   16.9480 N   0  0  0  0  0  0  0  0  0  0  0  0
  -33.9760  -13.8490   17.4820 N   0  0  0  0  0  0  0  0  0  0  0  0
  -33.9700  -12.3900   19.3600 C   0  0  0  0  0  0  0  0  0  0  0  0
  -35.3200  -12.3870   19.7730 C   0  0  0  0  0  3  0  0  0  0  0  0
  -35.8300  -11.2980   20.5120 C   0  0  0  0  0  3  0  0  0  0  0  0
  -34.9870  -10.2100   20.8400 C   0  0  0  0  0  0  0  0  0  0  0  0
  -33.6540  -10.2090   20.3940 C   0  0  0  0  0  3  0  0  0  0  0  0
  -33.1490  -11.2890   19.6550 C   0  0  0  0  0  3  0  0  0  0  0  0
  -35.3970   -9.0980   21.5320 O   0  0  0  0  0  0  0  0  0  0  0  0
  -36.4570   -9.1470   22.3990 C   0  0  0  0  0  0  0  0  0  0  0  0
  -36.4800  -10.0300   23.5020 C   0  0  0  0  0  3  0  0  0  0  0  0
  -37.5600   -9.9940   24.4070 C   0  0  0  0  0  3  0  0  0  0  0  0
  -38.6070   -9.0750   24.2170 C   0  0  0  0  0  0  0  0  0  0  0  0
  -38.5830   -8.1910   23.1240 C   0  0  0  0  0  3  0  0  0  0  0  0
  -37.5080   -8.2260   22.2190 C   0  0  0  0  0  0  0  0  0  0  0  0
  -37.4770   -7.3580   21.1780 F   0  0  0  0  0  0  0  0  0  0  0  0
  -39.6400   -9.0350   25.0920 F   0  0  0  0  0  0  0  0  0  0  0  0
  -31.2470  -14.1550   19.9810 C   0  0  0  0  0  0  0  0  0  0  0  0
  -31.7360  -13.8890   21.1840 N   0  0  0  0  0  0  0  0  0  0  0  0
  -30.0460  -14.3490   19.8010 O   0  0  0  0  0  0  0  0  0  0  0  0
  -32.7270  -13.7570   21.3290 H   0  0  0  0  0  0  0  0  0  0  0  0
  -31.1070  -13.8150   21.9730 H   0  0  0  0  0  0  0  0  0  0  0  0
  -31.1550  -16.0650   17.4160 N   0  0  0  0  0  0  0  0  0  0  0  0
  -30.3550  -16.2840   17.9920 H   0  0  0  0  0  0  0  0  0  0  0  0
  -31.1660  -16.6010   16.5530 H   0  0  0  0  0  0  0  0  0  0  0  0
  -21.4140  -26.6560   17.0460 C   0  0  0  0  0  3  0  0  0  0  0  0
  -22.8440  -26.7260   16.2880 C   0  0  0  0  0  3  0  0  0  0  0  0
  -23.5620  -25.8220   15.3120 N   0  0  0  0  0  0  0  0  0  0  0  0
  -23.0280  -25.4300   14.5430 H   0  0  0  0  0  0  0  0  0  0  0  0
  -25.0690  -25.5720   15.3600 C   0  0  0  0  0  2  0  0  0  0  0  0
  -26.2810  -26.4380   14.6330 C   0  0  0  0  0  2  0  0  0  0  0  0
  -27.2860  -27.2770   15.3980 O   0  0  0  0  0  0  0  0  0  0  0  0
  -26.3990  -27.9650   22.4580 C   0  0  0  0  0  0  0  0  0  0  0  0
  -26.6890  -27.9520   16.4190 C   0  0  0  0  0  0  0  0  0  0  0  0
  -24.5160  -27.7770   20.9400 C   0  0  0  0  0  3  0  0  0  0  0  0
  -24.9170  -28.3860   18.5210 C   0  0  0  0  0  0  0  0  0  0  0  0
  -26.6750  -28.8780   20.1600 C   0  0  0  0  0  2  0  0  0  0  0  0
  -26.2840  -28.4630   18.7660 C   0  0  0  0  0  0  0  0  0  0  0  0
  -27.2130  -28.1940   17.7210 C   0  0  0  0  0  3  0  0  0  0  0  0
  -25.3690  -28.3100   16.1740 C   0  0  0  0  0  3  0  0  0  0  0  0
  -24.4910  -28.4750   17.2210 C   0  0  0  0  0  3  0  0  0  0  0  0
  -23.9490  -28.4500   19.6730 C   0  0  0  0  0  2  0  0  0  0  0  0
  -25.8930  -28.2110   21.2270 N   0  0  0  0  0  0  0  0  0  0  0  0
  -25.7230  -27.4160   23.3380 O   0  0  0  0  0  0  0  0  0  0  0  0
  -24.4790  -26.2580   20.8070 C   0  0  0  0  0  0  0  0  0  0  0  0
  -23.2770  -25.7930   20.6280 N   0  0  0  0  0  0  0  0  0  0  0  0
  -25.4730  -25.5330   20.8140 O   0  0  0  0  0  0  0  0  0  0  0  0
  -22.4970  -26.4230   20.6930 H   0  0  0  0  0  0  0  0  0  0  0  0
  -20.7180  -23.7580   18.7850 C   0  0  0  0  0  0  0  0  0  0  0  0
  -23.0540  -24.4970   20.1230 C   0  0  0  0  0  0  0  0  0  0  0  0
  -23.5110  -24.2300   18.7170 C   0  0  0  0  0  3  0  0  0  0  0  0
  -22.6200  -23.7860   17.5020 C   0  0  0  0  0  3  0  0  0  0  0  0
  -21.1670  -23.4310   17.5180 C   0  0  0  0  0  3  0  0  0  0  0  0
  -21.6860  -24.4020   20.1170 C   0  0  0  0  0  0  0  0  0  0  0  0
  -21.1250  -24.1700   21.6190 C   0  0  0  0  0  3  0  0  0  0  0  0
  -19.7720  -23.4790   21.8650 C   0  0  0  0  0  3  0  0  0  0  0  0
  -18.9400  -22.8900   20.7290 C   0  0  0  0  0  3  0  0  0  0  0  0
  -19.3620  -22.9790   19.2360 C   0  0  0  0  0  3  0  0  0  0  0  0
  -27.8490  -28.3860   22.8040 C   0  0  0  0  0  3  0  0  0  0  0  0
  -27.7560  -29.3040   23.9430 N   0  0  0  0  0  0  0  0  0  0  0  0
  -27.9310  -30.6280   23.8590 C   0  0  0  0  0  0  0  0  0  0  0  0
  -28.2800  -31.1910   22.8150 O   0  0  0  0  0  0  0  0  0  0  0  0
  -27.4290  -28.9140   24.8160 H   0  0  0  0  0  0  0  0  0  0  0  0
  -26.4130  -32.2970   24.9720 C   0  0  0  0  0  1  0  0  0  0  0  0
  -27.6940  -31.4610   25.1330 C   0  0  0  0  0  3  0  0  0  0  0  0
  -30.0300  -31.6070   25.8740 C   0  0  0  0  0  1  0  0  0  0  0  0
  -28.8320  -32.3430   25.4740 N   0  0  0  0  0  0  0  0  0  0  0  0
  -28.5860  -32.9780   26.2290 H   0  0  0  0  0  0  0  0  0  0  0  0
  -28.7830  -27.1610   23.1280 C   0  0  1  0  0  0  0  0  0  0  0  0
  -28.2020  -26.1930   24.1850 C   0  0  0  0  0  1  0  0  0  0  0  0
  -29.0820  -26.3320   21.8570 C   0  0  0  0  0  1  0  0  0  0  0  0
  -30.1470  -27.6880   23.6330 C   0  0  0  0  0  1  0  0  0  0  0  0
  1  3  1  0
  1  4  1  0
  2  1  1  0
  4  5  2  0
  5  6  1  0
  6  7  1  0
 14 22  1  0
 15 20  1  0
 16 15  1  0
 16 17  1  0
 18 17  1  0
 18 19  1  0
 18 27  1  0
 20 14  1  0
 20 19  1  0
 21 14  2  0
 23 22  1  0
 24 25  2  0
 25 44  1  0
 26 25  1  0
 26 29  1  0
 27 28  1  0
 27 24  1  0
 28 26  2  0
 29 34  2  0
 29 30  1  0
 30 31  2  0
 31 32  1  0
 32 35  1  0
 33 32  2  0
 34 33  1  0
 35 36  1  0
 36 37  1  0
 37 38  2  0
 39 38  1  0
 39 43  1  0
 40 39  2  0
 41 36  2  0
 41 40  1  0
 42 41  1  0
 44 45  1  0
 45 47  1  0
 45 48  1  0
 46 44  2  0
 49 24  1  0
 49 50  1  0
 51 49  1  0
 52  1  1  0
 53 52  2  0
 54 56  1  0
 54 53  1  0
 55 54  1  0
 57 56  1  0
 57 58  1  0
 58 60  1  0
 59 70  2  0
 60 65  1  0
 61 71  1  0
 61 69  1  0
 62 64  1  0
 62 68  1  0
 63 69  1  0
 64 63  1  0
 65 64  2  0
 66 60  2  0
 66 67  1  0
 67 62  2  0
 68 61  1  0
 69 59  1  0
 71 73  2  0
 72 74  1  0
 72 71  1  0
 75 84  2  0
 75 80  1  0
 76 72  1  0
 77 76  2  0
 78 79  2  0
 78 77  1  0
 79 75  1  0
 80 76  1  0
 80 81  2  0
 81 82  1  0
 83 82  2  0
 84 83  1  0
 85 59  1  0
 85 95  1  0
 85 86  1  0
 86 89  1  0
 87 86  1  0
 87 91  1  0
 88 87  2  0
 91 90  1  0
 91 93  1  0
 93 92  1  0
 93 94  1  0
 95 98  1  1
 95 96  1  0
 97 95  1  0
M  ISO  4  14 100  22 100  57 101  58 101
M  END
>  <TORSDO>  (45) 
F 31

>  <SCORE>  (45) 
-4.594

>  <name>  (45) 
44

>  <ligand_id>  (45) 
44

>  <original_smiles>  (45) 
[H]c1c([H])c([H])c2c(c1[H])C([H])([H])C([H])([H])C([H])([H])C2([H])N([H])C(=O)C1([H])N(C(=O)C([H])(N([H])C(=O)C([H])(N([H])C([H])([H])[H])C([H])([H])[H])C(C([H])([H])[H])(C([H])([H])[H])C([H])([H])[H])C([H])([H])c2c([H])c(OC([H])([H])C([H])([H])N([H])C([H])([H])C([H])([H])[N+]([H])([H])C([H])([H])C([H])([H])OC([H])([H])C([H])([H])C([H])([H])C([H])([H])C([H])([H])C([H])([H])C([H])([H])N([H])C(=O)N3C([H])([H])C([H])([H])C([H])([H])C([H])(n4nc(-c5c([H])c([H])c(Oc6c([H])c([H])c(F)c([H])c6F)c([H])c5[H])c(C(=O)N([H])[H])c4N([H])[H])C3([H])[H])c([H])c([H])c2C1([H])[H]

>  <smiles>  (45) 
[H]c1c([H])c([H])c2c(c1[H])C([H])([H])C([H])([H])C([H])([H])C2([H])N([H])C(=O)C1([H])N(C(=O)C([H])(N([H])C(=O)C([H])(N([H])C([H])([H])[H])C([H])([H])[H])C(C([H])([H])[H])(C([H])([H])[H])C([H])([H])[H])C([H])([H])c2c([H])c(OC([H])([H])C([H])([H])N([H])C([H])([H])C([H])([H])[N+]([H])([H])C([H])([H])C([H])([H])OC([H])([H])C([H])([H])C([H])([H])C([H])([H])C([H])([H])C([H])([H])C([H])([H])N([H])C(=O)N3C([H])([H])C([H])([H])C([H])([H])C([H])(n4nc(-c5c([H])c([H])c(Oc6c([H])c([H])c(F)c([H])c6F)c([H])c5[H])c(C(=O)N([H])[H])c4N([H])[H])C3([H])[H])c([H])c([H])c2C1([H])[H]

$$$$
45:0:0
     RDKit          3D

 99106  0  0  1  0  0  0  0  0999 V2000
  -34.3430  -26.8770   20.3520 N   0  0  0  0  0  4  0  0  0  0  0  0
  -33.8380  -26.9970   19.4900 H   0  0  0  0  0  0  0  0  0  0  0  0
  -35.3030  -26.7120   20.0870 H   0  0  0  0  0  0  0  0  0  0  0  0
  -34.3160  -28.1360   21.1350 C   0  0  0  0  0  2  0  0  0  0  0  0
  -32.9850  -28.9290   21.0370 C   0  0  0  0  0  2  0  0  0  0  0  0
  -31.8350  -28.4810   21.9720 C   0  0  0  0  0  2  0  0  0  0  0  0
  -30.8280  -27.6280   21.2980 N   0  0  0  0  0  4  0  0  0  0  0  0
  -31.2640  -26.8420   20.8480 H   0  0  0  0  0  0  0  0  0  0  0  0
  -30.3810  -28.1660   20.5680 H   0  0  0  0  0  0  0  0  0  0  0  0
  -29.7710  -27.1070   22.1980 C   0  0  0  0  0  2  0  0  0  0  0  0
  -28.8150  -26.1610   21.4480 C   0  0  0  0  0  2  0  0  0  0  0  0
  -28.4100  -26.7120   20.1960 O   0  0  0  0  0  0  0  0  0  0  0  0
  -24.5720  -31.8750   23.2350 C   0  0  0  0  0  0  0  0  0  0  0  0
  -27.2450  -27.4340   20.2270 C   0  0  0  0  0  0  0  0  0  0  0  0
  -23.3730  -30.4480   21.6040 C   0  0  0  0  0  3  0  0  0  0  0  0
  -24.8350  -28.8940   20.2090 C   0  0  0  0  0  0  0  0  0  0  0  0
  -25.8900  -30.8260   21.4040 C   0  0  0  0  0  2  0  0  0  0  0  0
  -25.9830  -29.4440   20.7930 C   0  0  0  0  0  0  0  0  0  0  0  0
  -27.1910  -28.7230   20.7970 C   0  0  0  0  0  3  0  0  0  0  0  0
  -26.0880  -26.8880   19.6370 C   0  0  0  0  0  3  0  0  0  0  0  0
  -24.8790  -27.6140   19.6290 C   0  0  0  0  0  3  0  0  0  0  0  0
  -23.5870  -29.7480   20.2340 C   0  0  0  0  0  2  0  0  0  0  0  0
  -24.6290  -31.0650   22.1400 N   0  0  0  0  0  0  0  0  0  0  0  0
  -23.4900  -32.1510   23.7710 O   0  0  0  0  0  0  0  0  0  0  0  0
  -22.7220  -29.4400   22.5750 C   0  0  0  0  0  0  0  0  0  0  0  0
  -21.3970  -29.2640   22.4510 N   0  0  0  0  0  0  0  0  0  0  0  0
  -23.4040  -28.8150   23.3920 O   0  0  0  0  0  0  0  0  0  0  0  0
  -20.9100  -29.8170   21.7600 H   0  0  0  0  0  0  0  0  0  0  0  0
  -18.0130  -28.1210   22.9800 C   0  0  0  0  0  0  0  0  0  0  0  0
  -20.5760  -28.3390   23.2300 C   0  0  0  0  0  3  0  0  0  0  0  0
  -20.6520  -26.9070   22.6500 C   0  0  0  0  0  2  0  0  0  0  0  0
  -19.5360  -26.6030   21.6460 C   0  0  0  0  0  2  0  0  0  0  0  0
  -18.1630  -26.7690   22.3030 C   0  0  0  0  0  2  0  0  0  0  0  0
  -19.1470  -28.8650   23.4000 C   0  0  0  0  0  0  0  0  0  0  0  0
  -18.9550  -30.1330   23.9900 C   0  0  0  0  0  3  0  0  0  0  0  0
  -17.6610  -30.6550   24.1680 C   0  0  0  0  0  3  0  0  0  0  0  0
  -16.5410  -29.9080   23.7650 C   0  0  0  0  0  3  0  0  0  0  0  0
  -16.7180  -28.6420   23.1760 C   0  0  0  0  0  3  0  0  0  0  0  0
  -25.8590  -32.5100   23.8520 C   0  0  0  0  0  3  0  0  0  0  0  0
  -25.5490  -33.9080   24.1800 N   0  0  0  0  0  0  0  0  0  0  0  0
  -25.8900  -34.9580   23.4200 C   0  0  0  0  0  0  0  0  0  0  0  0
  -26.5720  -34.8520   22.3970 O   0  0  0  0  0  0  0  0  0  0  0  0
  -24.9470  -34.0650   24.9750 H   0  0  0  0  0  0  0  0  0  0  0  0
  -24.1740  -36.7530   23.0260 C   0  0  0  0  0  1  0  0  0  0  0  0
  -25.3940  -36.3460   23.8670 C   0  0  0  0  0  3  0  0  0  0  0  0
  -27.5110  -37.2220   24.7490 C   0  0  0  0  0  1  0  0  0  0  0  0
  -26.4330  -37.3960   23.7800 N   0  0  0  0  0  0  0  0  0  0  0  0
  -26.0260  -38.3180   23.9190 H   0  0  0  0  0  0  0  0  0  0  0  0
  -26.3850  -31.7410   25.1240 C   0  0  1  0  0  0  0  0  0  0  0  0
  -25.2970  -31.5000   26.1980 C   0  0  0  0  0  1  0  0  0  0  0  0
  -26.9700  -30.3640   24.7280 C   0  0  0  0  0  1  0  0  0  0  0  0
  -27.5370  -32.5370   25.7810 C   0  0  0  0  0  1  0  0  0  0  0  0
  -33.8920  -25.6720   21.0840 C   0  0  0  0  0  2  0  0  0  0  0  0
  -33.3910  -24.5580   20.1440 C   0  0  0  0  0  2  0  0  0  0  0  0
  -32.8960  -23.3350   20.9320 C   0  0  0  0  0  2  0  0  0  0  0  0
  -32.3180  -22.2190   20.0550 C   0  0  0  0  0  2  0  0  0  0  0  0
  -32.0130  -21.1340   20.9150 O   0  0  0  0  0  0  0  0  0  0  0  0
  -31.5200  -19.9890   20.2370 C   0  0  0  0  0  2  0  0  0  0  0  0
  -31.4320  -18.8550   21.2680 C   0  0  0  0  0  2  0  0  0  0  0  0
  -30.8890  -17.5410   20.6880 C   0  0  0  0  0  2  0  0  0  0  0  0
  -31.0650  -16.3640   21.6660 C   0  0  0  0  0  2  0  0  0  0  0  0
  -30.8460  -14.3320   20.2300 C   0  0  0  0  0  0  0  0  0  0  0  0
  -30.3850  -12.2770   18.9450 C   0  0  0  0  0  2  0  0  0  0  0  0
  -29.4040  -12.5520   17.7900 C   0  0  0  0  0  2  0  0  0  0  0  0
  -27.9460  -12.4390   18.2760 C   0  0  0  0  0  2  0  0  0  0  0  0
  -27.6860  -13.2570   19.5690 C   0  0  0  0  0  3  0  0  0  0  0  0
  -28.7670  -12.9560   20.6290 C   0  0  0  0  0  2  0  0  0  0  0  0
  -30.0900  -13.2210   20.0320 N   0  0  0  0  0  0  0  0  0  0  0  0
  -31.8630  -14.5890   19.5810 O   0  0  0  0  0  0  0  0  0  0  0  0
  -30.4120  -15.1430   21.2030 N   0  0  0  0  0  0  0  0  0  0  0  0
  -29.5810  -14.8480   21.6930 H   0  0  0  0  0  0  0  0  0  0  0  0
  -25.3260  -13.9210   20.3600 C   0  0  0  0  0  0  0  0  0  0  0  0
  -24.2510  -13.1730   20.7610 C   0  0  0  0  0  0  0  0  0  0  0  0
  -24.6780  -11.8110   20.7060 C   0  0  0  0  0  0  0  0  0  0  0  0
  -26.3410  -13.0160   20.0880 N   0  0  0  0  0  0  0  0  0  0  0  0
  -25.9540  -11.7410   20.3510 N   0  0  0  0  0  0  0  0  0  0  0  0
  -23.9290  -10.5640   20.9150 C   0  0  0  0  0  0  0  0  0  0  0  0
  -24.3490   -9.5990   21.8560 C   0  0  0  0  0  3  0  0  0  0  0  0
  -23.6020   -8.4160   22.0500 C   0  0  0  0  0  3  0  0  0  0  0  0
  -22.4210   -8.1920   21.3030 C   0  0  0  0  0  0  0  0  0  0  0  0
  -22.0200   -9.1460   20.3520 C   0  0  0  0  0  3  0  0  0  0  0  0
  -22.7670  -10.3190   20.1550 C   0  0  0  0  0  3  0  0  0  0  0  0
  -21.6460   -7.0610   21.4060 O   0  0  0  0  0  0  0  0  0  0  0  0
  -21.5690   -6.3470   22.5730 C   0  0  0  0  0  0  0  0  0  0  0  0
  -21.1360   -6.9370   23.7820 C   0  0  0  0  0  3  0  0  0  0  0  0
  -21.0030   -6.1480   24.9420 C   0  0  0  0  0  3  0  0  0  0  0  0
  -21.2930   -4.7710   24.8970 C   0  0  0  0  0  0  0  0  0  0  0  0
  -21.7190   -4.1820   23.6940 C   0  0  0  0  0  3  0  0  0  0  0  0
  -21.8540   -4.9670   22.5350 C   0  0  0  0  0  0  0  0  0  0  0  0
  -22.2430   -4.3880   21.3730 F   0  0  0  0  0  0  0  0  0  0  0  0
  -21.1590   -4.0120   26.0090 F   0  0  0  0  0  0  0  0  0  0  0  0
  -22.8760  -13.6810   21.0870 C   0  0  0  0  0  0  0  0  0  0  0  0
  -22.1590  -12.9890   21.9660 N   0  0  0  0  0  0  0  0  0  0  0  0
  -22.4480  -14.7240   20.5970 O   0  0  0  0  0  0  0  0  0  0  0  0
  -22.5180  -12.1440   22.3850 H   0  0  0  0  0  0  0  0  0  0  0  0
  -21.2370  -13.3110   22.2260 H   0  0  0  0  0  0  0  0  0  0  0  0
  -25.5190  -15.2890   20.1870 N   0  0  0  0  0  0  0  0  0  0  0  0
  -24.7780  -15.9670   20.3300 H   0  0  0  0  0  0  0  0  0  0  0  0
  -26.3770  -15.7060   19.8470 H   0  0  0  0  0  0  0  0  0  0  0  0
  1 53  1  0
  1  4  1  0
  2  1  1  0
  3  1  1  0
  5  4  1  0
  5  6  1  0
  7  6  1  0
  7 10  1  0
  8  7  1  0
  9  7  1  0
 11 10  1  0
 12 14  1  0
 12 11  1  0
 13 24  2  0
 14 19  1  0
 15 23  1  0
 15 25  1  0
 16 22  1  0
 16 18  1  0
 17 23  1  0
 18 19  2  0
 18 17  1  0
 20 14  2  0
 21 20  1  0
 21 16  2  0
 22 15  1  0
 23 13  1  0
 25 27  2  0
 26 25  1  0
 28 26  1  0
 29 38  2  0
 29 34  1  0
 30 26  1  0
 30 34  1  0
 31 30  1  0
 32 33  1  0
 32 31  1  0
 33 29  1  0
 34 35  2  0
 35 36  1  0
 37 36  2  0
 38 37  1  0
 39 13  1  0
 39 40  1  0
 39 49  1  0
 40 43  1  0
 41 45  1  0
 41 40  1  0
 42 41  2  0
 45 44  1  0
 47 45  1  0
 47 48  1  0
 47 46  1  0
 49 52  1  1
 49 50  1  0
 51 49  1  0
 54 55  1  0
 54 53  1  0
 56 57  1  0
 56 55  1  0
 58 57  1  0
 58 59  1  0
 60 59  1  0
 60 61  1  0
 62 70  1  0
 63 68  1  0
 64 65  1  0
 64 63  1  0
 66 65  1  0
 66 75  1  0
 66 67  1  0
 68 62  1  0
 68 67  1  0
 69 62  2  0
 70 61  1  0
 70 71  1  0
 72 73  2  0
 73 92  1  0
 74 73  1  0
 74 77  1  0
 75 76  1  0
 75 72  1  0
 76 74  2  0
 77 78  1  0
 78 79  2  0
 80 83  1  0
 80 79  1  0
 81 80  2  0
 82 81  1  0
 82 77  2  0
 83 84  1  0
 84 85  1  0
 85 86  2  0
 87 86  1  0
 87 91  1  0
 88 87  2  0
 89 84  2  0
 89 88  1  0
 90 89  1  0
 92 93  1  0
 93 96  1  0
 93 95  1  0
 94 92  2  0
 97 98  1  0
 97 72  1  0
 99 97  1  0
M  ISO  4  11 101  12 101  62 100  70 100
M  END
>  <TORSDO>  (46) 
F 31

>  <SCORE>  (46) 
-9.701

>  <name>  (46) 
45

>  <ligand_id>  (46) 
45

>  <original_smiles>  (46) 
[H]c1c([H])c([H])c2c(c1[H])C([H])([H])C([H])([H])C([H])([H])C2([H])N([H])C(=O)C1([H])N(C(=O)C([H])(N([H])C(=O)C([H])(N([H])C([H])([H])[H])C([H])([H])[H])C(C([H])([H])[H])(C([H])([H])[H])C([H])([H])[H])C([H])([H])c2c([H])c(OC([H])([H])C([H])([H])[N+]([H])([H])C([H])([H])C([H])([H])C([H])([H])[N+]([H])([H])C([H])([H])C([H])([H])C([H])([H])C([H])([H])OC([H])([H])C([H])([H])C([H])([H])C([H])([H])N([H])C(=O)N3C([H])([H])C([H])([H])C([H])([H])C([H])(n4nc(-c5c([H])c([H])c(Oc6c([H])c([H])c(F)c([H])c6F)c([H])c5[H])c(C(=O)N([H])[H])c4N([H])[H])C3([H])[H])c([H])c([H])c2C1([H])[H]

>  <smiles>  (46) 
[H]c1c([H])c([H])c2c(c1[H])C([H])([H])C([H])([H])C([H])([H])C2([H])N([H])C(=O)C1([H])N(C(=O)C([H])(N([H])C(=O)C([H])(N([H])C([H])([H])[H])C([H])([H])[H])C(C([H])([H])[H])(C([H])([H])[H])C([H])([H])[H])C([H])([H])c2c([H])c(OC([H])([H])C([H])([H])[N+]([H])([H])C([H])([H])C([H])([H])C([H])([H])[N+]([H])([H])C([H])([H])C([H])([H])C([H])([H])C([H])([H])OC([H])([H])C([H])([H])C([H])([H])C([H])([H])N([H])C(=O)N3C([H])([H])C([H])([H])C([H])([H])C([H])(n4nc(-c5c([H])c([H])c(Oc6c([H])c([H])c(F)c([H])c6F)c([H])c5[H])c(C(=O)N([H])[H])c4N([H])[H])C3([H])[H])c([H])c([H])c2C1([H])[H]

$$$$
46:0:0
     RDKit          3D

101108  0  0  1  0  0  0  0  0999 V2000
  -27.3930  -22.8900   25.9360 N   0  0  0  0  0  4  0  0  0  0  0  0
  -27.0260  -22.7400   26.8640 H   0  0  0  0  0  0  0  0  0  0  0  0
  -26.8090  -22.3830   25.2920 H   0  0  0  0  0  0  0  0  0  0  0  0
  -27.3130  -24.3240   25.5940 C   0  0  0  0  0  2  0  0  0  0  0  0
  -25.8740  -24.7580   25.2710 C   0  0  0  0  0  2  0  0  0  0  0  0
  -25.7400  -26.2170   24.7910 C   0  0  0  0  0  2  0  0  0  0  0  0
  -26.1170  -26.4690   23.3140 C   0  0  0  0  0  2  0  0  0  0  0  0
  -27.5130  -26.9300   23.1130 N   0  0  0  0  0  4  0  0  0  0  0  0
  -27.9110  -27.2810   23.9710 H   0  0  0  0  0  0  0  0  0  0  0  0
  -27.4270  -27.7210   22.4890 H   0  0  0  0  0  0  0  0  0  0  0  0
  -28.4450  -25.9970   22.4280 C   0  0  0  0  0  2  0  0  0  0  0  0
  -29.1890  -26.6710   21.2490 C   0  0  0  0  0  2  0  0  0  0  0  0
  -28.3840  -26.7100   20.0660 O   0  0  0  0  0  0  0  0  0  0  0  0
  -24.6080  -31.8730   23.2140 C   0  0  0  0  0  0  0  0  0  0  0  0
  -27.2540  -27.4920   20.0880 C   0  0  0  0  0  0  0  0  0  0  0  0
  -23.3950  -30.4930   21.5530 C   0  0  0  0  0  3  0  0  0  0  0  0
  -24.8470  -28.9630   20.1210 C   0  0  0  0  0  0  0  0  0  0  0  0
  -25.9150  -30.8630   21.3510 C   0  0  0  0  0  2  0  0  0  0  0  0
  -26.0020  -29.4960   20.7070 C   0  0  0  0  0  0  0  0  0  0  0  0
  -27.2110  -28.7750   20.6820 C   0  0  0  0  0  3  0  0  0  0  0  0
  -26.0880  -26.9680   19.4940 C   0  0  0  0  0  3  0  0  0  0  0  0
  -24.8830  -27.6960   19.5120 C   0  0  0  0  0  3  0  0  0  0  0  0
  -23.6020  -29.8180   20.1710 C   0  0  0  0  0  2  0  0  0  0  0  0
  -24.6580  -31.0870   22.1010 N   0  0  0  0  0  0  0  0  0  0  0  0
  -23.5290  -32.1440   23.7570 O   0  0  0  0  0  0  0  0  0  0  0  0
  -22.7370  -29.4680   22.5030 C   0  0  0  0  0  0  0  0  0  0  0  0
  -21.4110  -29.3030   22.3760 N   0  0  0  0  0  0  0  0  0  0  0  0
  -23.4170  -28.8220   23.3040 O   0  0  0  0  0  0  0  0  0  0  0  0
  -20.9260  -29.8760   21.6990 H   0  0  0  0  0  0  0  0  0  0  0  0
  -18.0270  -28.1380   22.8500 C   0  0  0  0  0  0  0  0  0  0  0  0
  -20.5860  -28.3650   23.1350 C   0  0  0  0  0  3  0  0  0  0  0  0
  -20.6770  -26.9390   22.5440 C   0  0  0  0  0  2  0  0  0  0  0  0
  -19.5750  -26.6390   21.5220 C   0  0  0  0  0  2  0  0  0  0  0  0
  -18.1920  -26.7930   22.1630 C   0  0  0  0  0  2  0  0  0  0  0  0
  -19.1520  -28.8830   23.2920 C   0  0  0  0  0  0  0  0  0  0  0  0
  -18.9460  -30.1440   23.8930 C   0  0  0  0  0  3  0  0  0  0  0  0
  -17.6460  -30.6590   24.0560 C   0  0  0  0  0  3  0  0  0  0  0  0
  -16.5350  -29.9100   23.6320 C   0  0  0  0  0  3  0  0  0  0  0  0
  -16.7260  -28.6510   23.0340 C   0  0  0  0  0  3  0  0  0  0  0  0
  -25.8990  -32.4860   23.8430 C   0  0  0  0  0  3  0  0  0  0  0  0
  -25.5880  -33.8650   24.2370 N   0  0  0  0  0  0  0  0  0  0  0  0
  -25.9030  -34.9490   23.5160 C   0  0  0  0  0  0  0  0  0  0  0  0
  -26.5590  -34.8920   22.4720 O   0  0  0  0  0  0  0  0  0  0  0  0
  -25.0030  -33.9830   25.0520 H   0  0  0  0  0  0  0  0  0  0  0  0
  -24.1480  -36.7330   23.2640 C   0  0  0  0  0  1  0  0  0  0  0  0
  -25.4100  -36.3130   24.0340 C   0  0  0  0  0  3  0  0  0  0  0  0
  -27.5590  -37.1810   24.8460 C   0  0  0  0  0  1  0  0  0  0  0  0
  -26.4300  -37.3810   23.9400 N   0  0  0  0  0  0  0  0  0  0  0  0
  -26.0210  -38.2890   24.1400 H   0  0  0  0  0  0  0  0  0  0  0  0
  -26.4450  -31.6610   25.0730 C   0  0  1  0  0  0  0  0  0  0  0  0
  -25.3740  -31.3680   26.1490 C   0  0  0  0  0  1  0  0  0  0  0  0
  -27.0240  -30.3070   24.6040 C   0  0  0  0  0  1  0  0  0  0  0  0
  -27.6030  -32.4310   25.7500 C   0  0  0  0  0  1  0  0  0  0  0  0
  -28.7570  -22.3290   25.8450 C   0  0  0  0  0  2  0  0  0  0  0  0
  -28.7430  -20.7920   25.8540 C   0  0  0  0  0  2  0  0  0  0  0  0
  -30.0800  -20.1960   25.3840 C   0  0  0  0  0  2  0  0  0  0  0  0
  -30.0080  -18.6720   25.1970 C   0  0  0  0  0  2  0  0  0  0  0  0
  -31.1720  -18.1620   24.4480 N   0  0  0  0  0  4  0  0  0  0  0  0
  -32.0090  -18.3190   24.9880 H   0  0  0  0  0  0  0  0  0  0  0  0
  -31.2540  -18.6880   23.5930 H   0  0  0  0  0  0  0  0  0  0  0  0
  -31.0750  -16.7310   24.1030 C   0  0  0  0  0  2  0  0  0  0  0  0
  -32.1750  -16.3120   23.1160 C   0  0  0  0  0  2  0  0  0  0  0  0
  -32.1740  -14.8050   22.8200 C   0  0  0  0  0  2  0  0  0  0  0  0
  -30.8900  -14.2020   20.7850 C   0  0  0  0  0  0  0  0  0  0  0  0
  -30.4000  -12.2820   19.3430 C   0  0  0  0  0  2  0  0  0  0  0  0
  -29.4560  -12.5450   18.1650 C   0  0  0  0  0  2  0  0  0  0  0  0
  -27.9940  -12.3820   18.6070 C   0  0  0  0  0  2  0  0  0  0  0  0
  -27.6670  -13.2070   19.8770 C   0  0  0  0  0  3  0  0  0  0  0  0
  -28.7130  -12.9710   20.9910 C   0  0  0  0  0  2  0  0  0  0  0  0
  -30.0640  -13.1910   20.4440 N   0  0  0  0  0  0  0  0  0  0  0  0
  -31.7280  -14.7020   20.0290 O   0  0  0  0  0  0  0  0  0  0  0  0
  -30.9740  -14.3530   22.1130 N   0  0  0  0  0  0  0  0  0  0  0  0
  -30.2990  -13.8250   22.6490 H   0  0  0  0  0  0  0  0  0  0  0  0
  -25.2610  -13.8170   20.5700 C   0  0  0  0  0  0  0  0  0  0  0  0
  -24.1850  -13.0450   20.9170 C   0  0  0  0  0  0  0  0  0  0  0  0
  -24.6400  -11.6910   20.8740 C   0  0  0  0  0  0  0  0  0  0  0  0
  -26.3060  -12.9350   20.3420 N   0  0  0  0  0  0  0  0  0  0  0  0
  -25.9340  -11.6510   20.5780 N   0  0  0  0  0  0  0  0  0  0  0  0
  -23.9060  -10.4300   21.0400 C   0  0  0  0  0  0  0  0  0  0  0  0
  -24.3610   -9.4210   21.9180 C   0  0  0  0  0  3  0  0  0  0  0  0
  -23.6290   -8.2250   22.0750 C   0  0  0  0  0  3  0  0  0  0  0  0
  -22.4270   -8.0280   21.3540 C   0  0  0  0  0  0  0  0  0  0  0  0
  -21.9910   -9.0260   20.4640 C   0  0  0  0  0  3  0  0  0  0  0  0
  -22.7240  -10.2140   20.3050 C   0  0  0  0  0  3  0  0  0  0  0  0
  -21.6640   -6.8880   21.4240 O   0  0  0  0  0  0  0  0  0  0  0  0
  -21.6850   -6.0730   22.5280 C   0  0  0  0  0  0  0  0  0  0  0  0
  -21.4010   -6.5640   23.8210 C   0  0  0  0  0  3  0  0  0  0  0  0
  -21.3660   -5.6790   24.9170 C   0  0  0  0  0  3  0  0  0  0  0  0
  -21.6050   -4.3050   24.7220 C   0  0  0  0  0  0  0  0  0  0  0  0
  -21.8820   -3.8150   23.4340 C   0  0  0  0  0  3  0  0  0  0  0  0
  -21.9190   -4.6960   22.3400 C   0  0  0  0  0  0  0  0  0  0  0  0
  -22.1660   -4.2150   21.0980 F   0  0  0  0  0  0  0  0  0  0  0  0
  -21.5630   -3.4540   25.7740 F   0  0  0  0  0  0  0  0  0  0  0  0
  -22.7870  -13.5240   21.1840 C   0  0  0  0  0  0  0  0  0  0  0  0
  -22.0500  -12.8230   22.0390 N   0  0  0  0  0  0  0  0  0  0  0  0
  -22.3560  -14.5560   20.6690 O   0  0  0  0  0  0  0  0  0  0  0  0
  -22.4110  -11.9890   22.4770 H   0  0  0  0  0  0  0  0  0  0  0  0
  -21.1120  -13.1260   22.2590 H   0  0  0  0  0  0  0  0  0  0  0  0
  -25.4340  -15.1890   20.4110 N   0  0  0  0  0  0  0  0  0  0  0  0
  -24.6730  -15.8500   20.5200 H   0  0  0  0  0  0  0  0  0  0  0  0
  -26.2980  -15.6250   20.1110 H   0  0  0  0  0  0  0  0  0  0  0  0
  1  2  1  0
  3  1  1  0
  4  1  1  0
  5  4  1  0
  6  5  1  0
  7  6  1  0
  8  7  1  0
  8  9  1  0
 10  8  1  0
 11  8  1  0
 12 11  1  0
 13 15  1  0
 13 12  1  0
 14 25  2  0
 15 20  1  0
 16 24  1  0
 16 26  1  0
 17 23  1  0
 17 19  1  0
 18 24  1  0
 19 18  1  0
 20 19  2  0
 21 22  1  0
 21 15  2  0
 22 17  2  0
 23 16  1  0
 24 14  1  0
 26 28  2  0
 27 26  1  0
 29 27  1  0
 30 39  2  0
 30 35  1  0
 31 27  1  0
 31 35  1  0
 32 31  1  0
 33 34  1  0
 33 32  1  0
 34 30  1  0
 35 36  2  0
 36 37  1  0
 38 37  2  0
 39 38  1  0
 40 14  1  0
 40 41  1  0
 40 50  1  0
 41 44  1  0
 42 46  1  0
 42 41  1  0
 43 42  2  0
 46 45  1  0
 48 46  1  0
 48 49  1  0
 48 47  1  0
 50 53  1  1
 50 51  1  0
 52 50  1  0
 54 55  1  0
 54  1  1  0
 56 55  1  0
 57 56  1  0
 58 59  1  0
 58 57  1  0
 60 58  1  0
 61 58  1  0
 62 61  1  0
 63 62  1  0
 64 72  1  0
 65 70  1  0
 66 67  1  0
 66 65  1  0
 68 67  1  0
 68 77  1  0
 68 69  1  0
 70 64  1  0
 70 69  1  0
 71 64  2  0
 72 73  1  0
 72 63  1  0
 74 75  2  0
 75 94  1  0
 76 75  1  0
 76 79  1  0
 77 74  1  0
 77 78  1  0
 78 76  2  0
 79 80  1  0
 80 81  2  0
 82 85  1  0
 82 81  1  0
 83 82  2  0
 84 83  1  0
 84 79  2  0
 85 86  1  0
 86 87  1  0
 87 88  2  0
 89 88  1  0
 89 93  1  0
 90 89  2  0
 91 86  2  0
 91 90  1  0
 92 91  1  0
 94 95  1  0
 95 98  1  0
 95 97  1  0
 96 94  2  0
 99100  1  0
 99 74  1  0
101 99  1  0
M  ISO  4  12 101  13 101  64 100  72 100
M  END
>  <TORSDO>  (47) 
F 31

>  <SCORE>  (47) 
12.456

>  <name>  (47) 
46

>  <ligand_id>  (47) 
46

>  <original_smiles>  (47) 
[H]c1c([H])c([H])c2c(c1[H])C([H])([H])C([H])([H])C([H])([H])C2([H])N([H])C(=O)C1([H])N(C(=O)C([H])(N([H])C(=O)C([H])(N([H])C([H])([H])[H])C([H])([H])[H])C(C([H])([H])[H])(C([H])([H])[H])C([H])([H])[H])C([H])([H])c2c([H])c(OC([H])([H])C([H])([H])[N+]([H])([H])C([H])([H])C([H])([H])C([H])([H])C([H])([H])[N+]([H])([H])C([H])([H])C([H])([H])C([H])([H])C([H])([H])[N+]([H])([H])C([H])([H])C([H])([H])C([H])([H])N([H])C(=O)N3C([H])([H])C([H])([H])C([H])([H])C([H])(n4nc(-c5c([H])c([H])c(Oc6c([H])c([H])c(F)c([H])c6F)c([H])c5[H])c(C(=O)N([H])[H])c4N([H])[H])C3([H])[H])c([H])c([H])c2C1([H])[H]

>  <smiles>  (47) 
[H]c1c([H])c([H])c2c(c1[H])C([H])([H])C([H])([H])C([H])([H])C2([H])N([H])C(=O)C1([H])N(C(=O)C([H])(N([H])C(=O)C([H])(N([H])C([H])([H])[H])C([H])([H])[H])C(C([H])([H])[H])(C([H])([H])[H])C([H])([H])[H])C([H])([H])c2c([H])c(OC([H])([H])C([H])([H])[N+]([H])([H])C([H])([H])C([H])([H])C([H])([H])C([H])([H])[N+]([H])([H])C([H])([H])C([H])([H])C([H])([H])C([H])([H])[N+]([H])([H])C([H])([H])C([H])([H])C([H])([H])N([H])C(=O)N3C([H])([H])C([H])([H])C([H])([H])C([H])(n4nc(-c5c([H])c([H])c(Oc6c([H])c([H])c(F)c([H])c6F)c([H])c5[H])c(C(=O)N([H])[H])c4N([H])[H])C3([H])[H])c([H])c([H])c2C1([H])[H]

$$$$
47:0:0
     RDKit          3D

 92 99  0  0  1  0  0  0  0  0999 V2000
  -30.5720  -21.4150   19.9940 N   0  0  0  0  0  0  0  0  0  0  0  0
  -31.5730  -21.5890   20.0650 H   0  0  0  0  0  0  0  0  0  0  0  0
  -30.2120  -20.3310   20.9040 C   0  0  0  0  0  2  0  0  0  0  0  0
  -31.1430  -19.1260   20.6650 C   0  0  0  0  0  2  0  0  0  0  0  0
  -30.7080  -17.9190   21.3970 N   0  0  0  0  0  4  0  0  0  0  0  0
  -30.4060  -18.1890   22.3190 H   0  0  0  0  0  0  0  0  0  0  0  0
  -29.9230  -17.5100   20.9170 H   0  0  0  0  0  0  0  0  0  0  0  0
  -31.7780  -16.9100   21.5350 C   0  0  0  0  0  2  0  0  0  0  0  0
  -31.2990  -15.6060   22.2070 C   0  0  0  0  0  2  0  0  0  0  0  0
  -30.5140  -14.2580   20.2660 C   0  0  0  0  0  0  0  0  0  0  0  0
  -30.0270  -12.2730   18.8870 C   0  0  0  0  0  2  0  0  0  0  0  0
  -29.0030  -12.5350   17.7710 C   0  0  0  0  0  2  0  0  0  0  0  0
  -27.5690  -12.3540   18.3000 C   0  0  0  0  0  2  0  0  0  0  0  0
  -27.3190  -13.1370   19.6140 C   0  0  0  0  0  3  0  0  0  0  0  0
  -28.4410  -12.8700   20.6410 C   0  0  0  0  0  2  0  0  0  0  0  0
  -29.7390  -13.1740   20.0130 N   0  0  0  0  0  0  0  0  0  0  0  0
  -31.4430  -14.6140   19.5370 O   0  0  0  0  0  0  0  0  0  0  0  0
  -30.2990  -14.8420   21.4530 N   0  0  0  0  0  0  0  0  0  0  0  0
  -29.5200  -14.4740   21.9810 H   0  0  0  0  0  0  0  0  0  0  0  0
  -24.9450  -13.6950   20.4400 C   0  0  0  0  0  0  0  0  0  0  0  0
  -23.9180  -12.9010   20.8770 C   0  0  0  0  0  0  0  0  0  0  0  0
  -24.4140  -11.5620   20.8420 C   0  0  0  0  0  0  0  0  0  0  0  0
  -26.0000  -12.8380   20.1670 N   0  0  0  0  0  0  0  0  0  0  0  0
  -25.6850  -11.5510   20.4650 N   0  0  0  0  0  0  0  0  0  0  0  0
  -23.7340  -10.2840   21.0900 C   0  0  0  0  0  0  0  0  0  0  0  0
  -24.2250   -9.3570   22.0360 C   0  0  0  0  0  3  0  0  0  0  0  0
  -23.5440   -8.1440   22.2700 C   0  0  0  0  0  3  0  0  0  0  0  0
  -22.3580   -7.8470   21.5570 C   0  0  0  0  0  0  0  0  0  0  0  0
  -21.8850   -8.7620   20.6010 C   0  0  0  0  0  3  0  0  0  0  0  0
  -22.5680   -9.9680   20.3650 C   0  0  0  0  0  3  0  0  0  0  0  0
  -21.6450   -6.6810   21.6990 O   0  0  0  0  0  0  0  0  0  0  0  0
  -21.6430   -5.9770   22.8760 C   0  0  0  0  0  0  0  0  0  0  0  0
  -21.2250   -6.5600   24.0930 C   0  0  0  0  0  3  0  0  0  0  0  0
  -21.1730   -5.7800   25.2660 C   0  0  0  0  0  3  0  0  0  0  0  0
  -21.5300   -4.4180   25.2230 C   0  0  0  0  0  0  0  0  0  0  0  0
  -21.9400   -3.8350   24.0120 C   0  0  0  0  0  3  0  0  0  0  0  0
  -21.9940   -4.6120   22.8410 C   0  0  0  0  0  0  0  0  0  0  0  0
  -22.3700   -4.0400   21.6720 F   0  0  0  0  0  0  0  0  0  0  0  0
  -21.4720   -3.6670   26.3470 F   0  0  0  0  0  0  0  0  0  0  0  0
  -22.5250  -13.3460   21.2180 C   0  0  0  0  0  0  0  0  0  0  0  0
  -21.8660  -12.6490   22.1370 N   0  0  0  0  0  0  0  0  0  0  0  0
  -22.0300  -14.3470   20.7020 O   0  0  0  0  0  0  0  0  0  0  0  0
  -22.2800  -11.8390   22.5750 H   0  0  0  0  0  0  0  0  0  0  0  0
  -20.9350  -12.9310   22.4070 H   0  0  0  0  0  0  0  0  0  0  0  0
  -25.0620  -15.0670   20.2330 N   0  0  0  0  0  0  0  0  0  0  0  0
  -24.2860  -15.7050   20.3730 H   0  0  0  0  0  0  0  0  0  0  0  0
  -25.8870  -15.5220   19.8600 H   0  0  0  0  0  0  0  0  0  0  0  0
  -29.8740  -22.6450   20.3390 C   0  0  0  0  0  2  0  0  0  0  0  0
  -30.2790  -23.7370   19.3360 C   0  0  0  0  0  2  0  0  0  0  0  0
  -29.9390  -25.1590   19.8070 C   0  0  0  0  0  2  0  0  0  0  0  0
  -28.4520  -25.5330   19.7380 C   0  0  0  0  0  2  0  0  0  0  0  0
  -28.3610  -26.8640   20.2320 O   0  0  0  0  0  0  0  0  0  0  0  0
  -24.5050  -31.9790   23.2660 C   0  0  0  0  0  0  0  0  0  0  0  0
  -27.1470  -27.5130   20.2300 C   0  0  0  0  0  0  0  0  0  0  0  0
  -23.2910  -30.5520   21.6490 C   0  0  0  0  0  3  0  0  0  0  0  0
  -24.7380  -28.9920   20.2460 C   0  0  0  0  0  0  0  0  0  0  0  0
  -25.8130  -30.9130   21.4350 C   0  0  0  0  0  2  0  0  0  0  0  0
  -25.8950  -29.5330   20.8160 C   0  0  0  0  0  0  0  0  0  0  0  0
  -27.0990  -28.8000   20.8080 C   0  0  0  0  0  3  0  0  0  0  0  0
  -25.9670  -26.9690   19.6710 C   0  0  0  0  0  3  0  0  0  0  0  0
  -24.7670  -27.7060   19.6750 C   0  0  0  0  0  3  0  0  0  0  0  0
  -23.4940  -29.8490   20.2800 C   0  0  0  0  0  2  0  0  0  0  0  0
  -24.5550  -31.1630   22.1750 N   0  0  0  0  0  0  0  0  0  0  0  0
  -23.4270  -32.2580   23.8070 O   0  0  0  0  0  0  0  0  0  0  0  0
  -22.6470  -29.5440   22.6270 C   0  0  0  0  0  0  0  0  0  0  0  0
  -21.3240  -29.3520   22.4990 N   0  0  0  0  0  0  0  0  0  0  0  0
  -23.3320  -28.9380   23.4550 O   0  0  0  0  0  0  0  0  0  0  0  0
  -20.8320  -29.8920   21.8010 H   0  0  0  0  0  0  0  0  0  0  0  0
  -17.9560  -28.1460   23.0000 C   0  0  0  0  0  0  0  0  0  0  0  0
  -20.5100  -28.4250   23.2830 C   0  0  0  0  0  3  0  0  0  0  0  0
  -20.6250  -26.9830   22.7370 C   0  0  0  0  0  2  0  0  0  0  0  0
  -19.5320  -26.6320   21.7220 C   0  0  0  0  0  2  0  0  0  0  0  0
  -18.1450  -26.7830   22.3540 C   0  0  0  0  0  2  0  0  0  0  0  0
  -19.0670  -28.9220   23.4210 C   0  0  0  0  0  0  0  0  0  0  0  0
  -18.8380  -30.1980   23.9820 C   0  0  0  0  0  3  0  0  0  0  0  0
  -17.5290  -30.6960   24.1270 C   0  0  0  0  0  3  0  0  0  0  0  0
  -16.4320  -29.9150   23.7230 C   0  0  0  0  0  3  0  0  0  0  0  0
  -16.6470  -28.6410   23.1650 C   0  0  0  0  0  3  0  0  0  0  0  0
  -25.7940  -32.6170   23.8710 C   0  0  0  0  0  3  0  0  0  0  0  0
  -26.3260  -31.8590   25.1490 C   0  0  1  0  0  0  0  0  0  0  0  0
  -25.2410  -31.6210   26.2260 C   0  0  0  0  0  1  0  0  0  0  0  0
  -26.9160  -30.4830   24.7620 C   0  0  0  0  0  1  0  0  0  0  0  0
  -27.4750  -32.6650   25.7980 C   0  0  0  0  0  1  0  0  0  0  0  0
  -25.4880  -34.0180   24.1870 N   0  0  0  0  0  0  0  0  0  0  0  0
  -25.8210  -35.0610   23.4150 C   0  0  0  0  0  0  0  0  0  0  0  0
  -26.4910  -34.9460   22.3850 O   0  0  0  0  0  0  0  0  0  0  0  0
  -24.8940  -34.1820   24.9860 H   0  0  0  0  0  0  0  0  0  0  0  0
  -24.0950  -36.8500   23.0330 C   0  0  0  0  0  1  0  0  0  0  0  0
  -25.3320  -36.4540   23.8550 C   0  0  0  0  0  3  0  0  0  0  0  0
  -27.4640  -37.3440   24.6870 C   0  0  0  0  0  1  0  0  0  0  0  0
  -26.3660  -37.5050   23.7370 N   0  0  0  0  0  0  0  0  0  0  0  0
  -25.9610  -38.4270   23.8760 H   0  0  0  0  0  0  0  0  0  0  0  0
  1  2  1  0
  1 48  1  0
  1  3  1  0
  4  3  1  0
  4  5  1  0
  5  8  1  0
  5  6  1  0
  7  5  1  0
  8  9  1  0
 10 18  1  0
 11 16  1  0
 12 13  1  0
 12 11  1  0
 14 13  1  0
 14 23  1  0
 14 15  1  0
 16 10  1  0
 16 15  1  0
 17 10  2  0
 18 19  1  0
 18  9  1  0
 20 21  2  0
 21 40  1  0
 22 21  1  0
 22 25  1  0
 23 20  1  0
 23 24  1  0
 24 22  2  0
 25 26  1  0
 26 27  2  0
 28 31  1  0
 28 27  1  0
 29 28  2  0
 30 29  1  0
 30 25  2  0
 31 32  1  0
 32 33  1  0
 33 34  2  0
 35 34  1  0
 35 39  1  0
 36 35  2  0
 37 32  2  0
 37 36  1  0
 38 37  1  0
 40 41  1  0
 41 44  1  0
 41 43  1  0
 42 40  2  0
 45 46  1  0
 45 20  1  0
 47 45  1  0
 49 50  1  0
 49 48  1  0
 51 50  1  0
 51 52  1  0
 53 64  2  0
 54 52  1  0
 54 59  1  0
 55 63  1  0
 55 65  1  0
 56 62  1  0
 56 58  1  0
 57 63  1  0
 58 57  1  0
 59 58  2  0
 60 61  1  0
 60 54  2  0
 61 56  2  0
 62 55  1  0
 63 53  1  0
 65 67  2  0
 66 65  1  0
 68 66  1  0
 69 78  2  0
 69 74  1  0
 70 66  1  0
 70 74  1  0
 71 70  1  0
 72 73  1  0
 72 71  1  0
 73 69  1  0
 74 75  2  0
 75 76  1  0
 77 76  2  0
 78 77  1  0
 79 53  1  0
 79 84  1  0
 79 80  1  0
 80 83  1  1
 80 81  1  0
 82 80  1  0
 84 87  1  0
 85 89  1  0
 85 84  1  0
 86 85  2  0
 89 88  1  0
 91 89  1  0
 91 92  1  0
 91 90  1  0
M  ISO  4  10 100  18 100  51 101  52 101
M  END
>  <TORSDO>  (48) 
F 25

>  <SCORE>  (48) 
-10.900

>  <name>  (48) 
47

>  <ligand_id>  (48) 
47

>  <original_smiles>  (48) 
[H]c1c([H])c([H])c2c(c1[H])C([H])([H])C([H])([H])C([H])([H])C2([H])N([H])C(=O)C1([H])N(C(=O)C([H])(N([H])C(=O)C([H])(N([H])C([H])([H])[H])C([H])([H])[H])C(C([H])([H])[H])(C([H])([H])[H])C([H])([H])[H])C([H])([H])c2c([H])c(OC([H])([H])C([H])([H])C([H])([H])C([H])([H])N([H])C([H])([H])C([H])([H])[N+]([H])([H])C([H])([H])C([H])([H])N([H])C(=O)N3C([H])([H])C([H])([H])C([H])([H])C([H])(n4nc(-c5c([H])c([H])c(Oc6c([H])c([H])c(F)c([H])c6F)c([H])c5[H])c(C(=O)N([H])[H])c4N([H])[H])C3([H])[H])c([H])c([H])c2C1([H])[H]

>  <smiles>  (48) 
[H]c1c([H])c([H])c2c(c1[H])C([H])([H])C([H])([H])C([H])([H])C2([H])N([H])C(=O)C1([H])N(C(=O)C([H])(N([H])C(=O)C([H])(N([H])C([H])([H])[H])C([H])([H])[H])C(C([H])([H])[H])(C([H])([H])[H])C([H])([H])[H])C([H])([H])c2c([H])c(OC([H])([H])C([H])([H])C([H])([H])C([H])([H])N([H])C([H])([H])C([H])([H])[N+]([H])([H])C([H])([H])C([H])([H])N([H])C(=O)N3C([H])([H])C([H])([H])C([H])([H])C([H])(n4nc(-c5c([H])c([H])c(Oc6c([H])c([H])c(F)c([H])c6F)c([H])c5[H])c(C(=O)N([H])[H])c4N([H])[H])C3([H])[H])c([H])c([H])c2C1([H])[H]

$$$$
48:0:0
     RDKit          3D

104113  0  0  1  0  0  0  0  0999 V2000
  -26.3160  -24.9200   23.5160 C   0  0  0  0  0  3  0  0  0  0  0  0
  -24.9190  -24.9360   23.6800 C   0  0  0  0  0  3  0  0  0  0  0  0
  -26.9640  -23.7570   23.0500 C   0  0  0  0  0  3  0  0  0  0  0  0
  -24.1700  -23.7810   23.3800 C   0  0  0  0  0  3  0  0  0  0  0  0
  -24.6250  -20.4000   22.0900 C   0  0  0  0  0  3  0  0  0  0  0  0
  -26.2220  -22.5960   22.7040 C   0  0  0  0  0  0  0  0  0  0  0  0
  -24.8130  -22.6250   22.8880 C   0  0  0  0  0  3  0  0  0  0  0  0
  -26.8400  -21.4190   22.1770 C   0  0  0  0  0  0  0  0  0  0  0  0
  -26.0150  -20.2990   21.8700 C   0  0  0  0  0  0  0  0  0  0  0  0
  -24.0860  -21.5360   22.5760 N   0  0  0  0  0  0  0  0  0  0  0  0
  -23.0750  -21.5700   22.7130 H   0  0  0  0  0  0  0  0  0  0  0  0
  -28.2320  -21.3610   21.9430 N   0  0  0  0  0  0  0  0  0  0  0  0
  -28.7550  -21.5820   22.7850 H   0  0  0  0  0  0  0  0  0  0  0  0
  -28.7030  -22.1400   20.8000 C   0  0  0  0  0  2  0  0  0  0  0  0
  -28.3690  -21.5510   19.4160 C   0  0  0  0  0  2  0  0  0  0  0  0
  -27.9770  -22.6180   18.3700 C   0  0  0  0  0  2  0  0  0  0  0  0
  -29.0550  -23.5940   18.0830 N   0  0  0  0  0  4  0  0  0  0  0  0
  -29.2940  -23.4670   17.1110 H   0  0  0  0  0  0  0  0  0  0  0  0
  -29.8870  -23.3580   18.6030 H   0  0  0  0  0  0  0  0  0  0  0  0
  -28.6980  -25.0300   18.2750 C   0  0  0  0  0  2  0  0  0  0  0  0
  -28.5030  -25.4280   19.7580 C   0  0  0  0  0  2  0  0  0  0  0  0
  -28.4590  -26.8310   19.9910 O   0  0  0  0  0  0  0  0  0  0  0  0
  -24.6100  -31.8690   23.2100 C   0  0  0  0  0  0  0  0  0  0  0  0
  -27.2400  -27.4740   20.0390 C   0  0  0  0  0  0  0  0  0  0  0  0
  -23.3930  -30.4880   21.5560 C   0  0  0  0  0  3  0  0  0  0  0  0
  -24.8340  -28.9530   20.1190 C   0  0  0  0  0  0  0  0  0  0  0  0
  -25.9200  -30.8300   21.3700 C   0  0  0  0  0  2  0  0  0  0  0  0
  -25.9930  -29.4750   20.7030 C   0  0  0  0  0  0  0  0  0  0  0  0
  -27.1960  -28.7450   20.6520 C   0  0  0  0  0  3  0  0  0  0  0  0
  -26.0510  -26.9470   19.4800 C   0  0  0  0  0  3  0  0  0  0  0  0
  -24.8580  -27.6870   19.5120 C   0  0  0  0  0  3  0  0  0  0  0  0
  -23.5900  -29.8030   20.1770 C   0  0  0  0  0  2  0  0  0  0  0  0
  -24.6560  -31.0780   22.1010 N   0  0  0  0  0  0  0  0  0  0  0  0
  -23.5320  -32.1470   23.7530 O   0  0  0  0  0  0  0  0  0  0  0  0
  -22.7380  -29.4650   22.5110 C   0  0  0  0  0  0  0  0  0  0  0  0
  -21.4130  -29.3000   22.3790 N   0  0  0  0  0  0  0  0  0  0  0  0
  -23.4160  -28.8180   23.3150 O   0  0  0  0  0  0  0  0  0  0  0  0
  -20.9300  -29.8680   21.6980 H   0  0  0  0  0  0  0  0  0  0  0  0
  -18.0300  -28.1380   22.8550 C   0  0  0  0  0  0  0  0  0  0  0  0
  -20.5880  -28.3620   23.1390 C   0  0  0  0  0  3  0  0  0  0  0  0
  -20.6750  -26.9370   22.5450 C   0  0  0  0  0  2  0  0  0  0  0  0
  -19.5730  -26.6430   21.5240 C   0  0  0  0  0  2  0  0  0  0  0  0
  -18.1950  -26.7900   22.1730 C   0  0  0  0  0  2  0  0  0  0  0  0
  -19.1550  -28.8840   23.2930 C   0  0  0  0  0  0  0  0  0  0  0  0
  -18.9470  -30.1470   23.8870 C   0  0  0  0  0  3  0  0  0  0  0  0
  -17.6470  -30.6610   24.0520 C   0  0  0  0  0  3  0  0  0  0  0  0
  -16.5370  -29.9090   23.6370 C   0  0  0  0  0  3  0  0  0  0  0  0
  -16.7290  -28.6510   23.0390 C   0  0  0  0  0  3  0  0  0  0  0  0
  -25.9040  -32.4810   23.8350 C   0  0  0  0  0  3  0  0  0  0  0  0
  -25.5880  -33.8590   24.2280 N   0  0  0  0  0  0  0  0  0  0  0  0
  -25.9020  -34.9450   23.5080 C   0  0  0  0  0  0  0  0  0  0  0  0
  -26.5600  -34.8870   22.4660 O   0  0  0  0  0  0  0  0  0  0  0  0
  -24.9970  -33.9770   25.0370 H   0  0  0  0  0  0  0  0  0  0  0  0
  -24.1470  -36.7310   23.2640 C   0  0  0  0  0  1  0  0  0  0  0  0
  -25.4100  -36.3090   24.0320 C   0  0  0  0  0  3  0  0  0  0  0  0
  -27.5570  -37.1800   24.8460 C   0  0  0  0  0  1  0  0  0  0  0  0
  -26.4290  -37.3790   23.9390 N   0  0  0  0  0  0  0  0  0  0  0  0
  -26.0180  -38.2860   24.1400 H   0  0  0  0  0  0  0  0  0  0  0  0
  -26.4430  -31.6630   25.0730 C   0  0  1  0  0  0  0  0  0  0  0  0
  -25.3650  -31.3790   26.1440 C   0  0  0  0  0  1  0  0  0  0  0  0
  -27.0230  -30.3040   24.6200 C   0  0  0  0  0  1  0  0  0  0  0  0
  -27.6020  -32.4340   25.7500 C   0  0  0  0  0  1  0  0  0  0  0  0
  -26.6150  -18.7730   21.1650 S   0  0  0  0  0  0  0  0  0  0  0  0
  -28.3390  -18.4270   21.6450 C   0  0  0  0  0  2  0  0  0  0  0  0
  -28.6930  -16.9810   21.3020 C   0  0  0  0  0  2  0  0  0  0  0  0
  -30.1090  -16.5500   21.7110 C   0  0  0  0  0  2  0  0  0  0  0  0
  -30.7240  -14.3560   20.6810 C   0  0  0  0  0  0  0  0  0  0  0  0
  -30.4350  -12.2850   19.3720 C   0  0  0  0  0  2  0  0  0  0  0  0
  -29.4880  -12.5350   18.1800 C   0  0  0  0  0  2  0  0  0  0  0  0
  -28.0070  -12.4080   18.5940 C   0  0  0  0  0  2  0  0  0  0  0  0
  -27.6760  -13.1950   19.8900 C   0  0  0  0  0  3  0  0  0  0  0  0
  -28.7160  -12.8730   20.9850 C   0  0  0  0  0  2  0  0  0  0  0  0
  -30.0620  -13.1930   20.4620 N   0  0  0  0  0  0  0  0  0  0  0  0
  -31.7240  -14.7230   20.0530 O   0  0  0  0  0  0  0  0  0  0  0  0
  -30.1620  -15.1000   21.6330 N   0  0  0  0  0  0  0  0  0  0  0  0
  -29.4490  -14.6130   22.1570 H   0  0  0  0  0  0  0  0  0  0  0  0
  -25.2670  -13.8150   20.5690 C   0  0  0  0  0  0  0  0  0  0  0  0
  -24.1890  -13.0470   20.9160 C   0  0  0  0  0  0  0  0  0  0  0  0
  -24.6430  -11.6910   20.8750 C   0  0  0  0  0  0  0  0  0  0  0  0
  -26.3110  -12.9290   20.3430 N   0  0  0  0  0  0  0  0  0  0  0  0
  -25.9360  -11.6460   20.5780 N   0  0  0  0  0  0  0  0  0  0  0  0
  -23.9090  -10.4310   21.0440 C   0  0  0  0  0  0  0  0  0  0  0  0
  -24.3620   -9.4200   21.9210 C   0  0  0  0  0  3  0  0  0  0  0  0
  -23.6290   -8.2240   22.0760 C   0  0  0  0  0  3  0  0  0  0  0  0
  -22.4270   -8.0300   21.3560 C   0  0  0  0  0  0  0  0  0  0  0  0
  -21.9930   -9.0280   20.4650 C   0  0  0  0  0  3  0  0  0  0  0  0
  -22.7260  -10.2150   20.3080 C   0  0  0  0  0  3  0  0  0  0  0  0
  -21.6630   -6.8910   21.4250 O   0  0  0  0  0  0  0  0  0  0  0  0
  -21.6850   -6.0760   22.5290 C   0  0  0  0  0  0  0  0  0  0  0  0
  -21.4000   -6.5660   23.8220 C   0  0  0  0  0  3  0  0  0  0  0  0
  -21.3650   -5.6800   24.9180 C   0  0  0  0  0  3  0  0  0  0  0  0
  -21.6040   -4.3060   24.7230 C   0  0  0  0  0  0  0  0  0  0  0  0
  -21.8810   -3.8160   23.4350 C   0  0  0  0  0  3  0  0  0  0  0  0
  -21.9190   -4.6980   22.3410 C   0  0  0  0  0  0  0  0  0  0  0  0
  -22.1660   -4.2170   21.0980 F   0  0  0  0  0  0  0  0  0  0  0  0
  -21.5630   -3.4540   25.7740 F   0  0  0  0  0  0  0  0  0  0  0  0
  -22.7900  -13.5270   21.1810 C   0  0  0  0  0  0  0  0  0  0  0  0
  -22.0500  -12.8310   22.0360 N   0  0  0  0  0  0  0  0  0  0  0  0
  -22.3600  -14.5590   20.6650 O   0  0  0  0  0  0  0  0  0  0  0  0
  -22.4040  -11.9940   22.4740 H   0  0  0  0  0  0  0  0  0  0  0  0
  -21.1130  -13.1370   22.2530 H   0  0  0  0  0  0  0  0  0  0  0  0
  -25.4440  -15.1870   20.4090 N   0  0  0  0  0  0  0  0  0  0  0  0
  -24.6920  -15.8540   20.5450 H   0  0  0  0  0  0  0  0  0  0  0  0
  -26.3130  -15.6260   20.1320 H   0  0  0  0  0  0  0  0  0  0  0  0
  1  2  1  0
  3  1  2  0
  4  2  2  0
  5 10  1  0
  6  7  1  0
  6  3  1  0
  7  4  1  0
  8  6  2  0
  9  5  2  0
  9  8  1  0
 10 11  1  0
 10  7  1  0
 12  8  1  0
 12 13  1  0
 14 12  1  0
 15 14  1  0
 16 15  1  0
 17 20  1  0
 17 16  1  0
 17 19  1  0
 18 17  1  0
 20 21  1  0
 21 22  1  0
 22 24  1  0
 23 34  2  0
 24 29  1  0
 25 33  1  0
 25 35  1  0
 26 32  1  0
 26 28  1  0
 27 33  1  0
 28 27  1  0
 29 28  2  0
 30 31  1  0
 30 24  2  0
 31 26  2  0
 32 25  1  0
 33 23  1  0
 35 37  2  0
 36 35  1  0
 38 36  1  0
 39 48  2  0
 39 44  1  0
 40 36  1  0
 40 44  1  0
 41 40  1  0
 42 43  1  0
 42 41  1  0
 43 39  1  0
 44 45  2  0
 45 46  1  0
 47 46  2  0
 48 47  1  0
 49 23  1  0
 49 50  1  0
 49 59  1  0
 50 53  1  0
 51 55  1  0
 51 50  1  0
 52 51  2  0
 55 54  1  0
 57 55  1  0
 57 58  1  0
 57 56  1  0
 59 62  1  1
 59 60  1  0
 61 59  1  0
 63 64  1  0
 63  9  1  0
 65 64  1  0
 65 66  1  0
 67 75  1  0
 68 73  1  0
 69 70  1  0
 69 68  1  0
 71 70  1  0
 71 80  1  0
 71 72  1  0
 73 67  1  0
 73 72  1  0
 74 67  2  0
 75 66  1  0
 75 76  1  0
 77 78  2  0
 78 97  1  0
 79 78  1  0
 79 82  1  0
 80 77  1  0
 80 81  1  0
 81 79  2  0
 82 83  1  0
 83 84  2  0
 85 88  1  0
 85 84  1  0
 86 85  2  0
 87 86  1  0
 87 82  2  0
 88 89  1  0
 89 90  1  0
 90 91  2  0
 92 91  1  0
 92 96  1  0
 93 92  2  0
 94 89  2  0
 94 93  1  0
 95 94  1  0
 97 98  1  0
 98101  1  0
 98100  1  0
 99 97  2  0
102103  1  0
102 77  1  0
104102  1  0
M  ISO  4  21 101  22 101  67 100  75 100
M  END
>  <TORSDO>  (49) 
F 27

>  <SCORE>  (49) 
22.405

>  <name>  (49) 
48

>  <ligand_id>  (49) 
48

>  <original_smiles>  (49) 
[H]c1c([H])c([H])c2c(c1[H])C([H])([H])C([H])([H])C([H])([H])C2([H])N([H])C(=O)C1([H])N(C(=O)C([H])(N([H])C(=O)C([H])(N([H])C([H])([H])[H])C([H])([H])[H])C(C([H])([H])[H])(C([H])([H])[H])C([H])([H])[H])C([H])([H])c2c([H])c(OC([H])([H])C([H])([H])[N+]([H])([H])C([H])([H])C([H])([H])C([H])([H])N([H])c3c(SC([H])([H])C([H])([H])C([H])([H])N([H])C(=O)N4C([H])([H])C([H])([H])C([H])([H])C([H])(n5nc(-c6c([H])c([H])c(Oc7c([H])c([H])c(F)c([H])c7F)c([H])c6[H])c(C(=O)N([H])[H])c5N([H])[H])C4([H])[H])c([H])[n+]([H])c4c([H])c([H])c([H])c([H])c34)c([H])c([H])c2C1([H])[H]

>  <smiles>  (49) 
[H]c1c([H])c([H])c2c(c1[H])C([H])([H])C([H])([H])C([H])([H])C2([H])N([H])C(=O)C1([H])N(C(=O)C([H])(N([H])C(=O)C([H])(N([H])C([H])([H])[H])C([H])([H])[H])C(C([H])([H])[H])(C([H])([H])[H])C([H])([H])[H])C([H])([H])c2c([H])c(OC([H])([H])C([H])([H])[N+]([H])([H])C([H])([H])C([H])([H])C([H])([H])N([H])c3c(SC([H])([H])C([H])([H])C([H])([H])N([H])C(=O)N4C([H])([H])C([H])([H])C([H])([H])C([H])(n5nc(-c6c([H])c([H])c(Oc7c([H])c([H])c(F)c([H])c7F)c([H])c6[H])c(C(=O)N([H])[H])c5N([H])[H])C4([H])[H])c([H])[n+]([H])c4c([H])c([H])c([H])c([H])c34)c([H])c([H])c2C1([H])[H]

$$$$
49:0:0
     RDKit          3D

 97104  0  0  1  0  0  0  0  0999 V2000
  -32.5100  -25.6620   19.8480 C   0  0  0  0  0  2  0  0  0  0  0  0
  -32.6390  -27.1730   19.5740 C   0  0  0  0  0  2  0  0  0  0  0  0
  -32.2480  -28.0850   20.7510 C   0  0  0  0  0  2  0  0  0  0  0  0
  -30.7820  -28.2500   20.8840 N   0  0  0  0  0  4  0  0  0  0  0  0
  -30.3320  -28.1260   19.9890 H   0  0  0  0  0  0  0  0  0  0  0  0
  -30.6450  -29.2140   21.1440 H   0  0  0  0  0  0  0  0  0  0  0  0
  -30.0950  -27.4330   21.9170 C   0  0  0  0  0  2  0  0  0  0  0  0
  -29.1480  -26.3700   21.3180 C   0  0  0  0  0  2  0  0  0  0  0  0
  -28.5010  -26.7710   20.1070 O   0  0  0  0  0  0  0  0  0  0  0  0
  -24.6150  -31.8800   23.2300 C   0  0  0  0  0  0  0  0  0  0  0  0
  -27.3180  -27.4650   20.2060 C   0  0  0  0  0  0  0  0  0  0  0  0
  -23.4190  -30.4560   21.5920 C   0  0  0  0  0  3  0  0  0  0  0  0
  -24.8900  -28.9110   20.1950 C   0  0  0  0  0  0  0  0  0  0  0  0
  -25.9340  -30.8430   21.3960 C   0  0  0  0  0  2  0  0  0  0  0  0
  -26.0330  -29.4630   20.7860 C   0  0  0  0  0  0  0  0  0  0  0  0
  -27.2450  -28.7460   20.7950 C   0  0  0  0  0  3  0  0  0  0  0  0
  -26.1610  -26.9190   19.6110 C   0  0  0  0  0  3  0  0  0  0  0  0
  -24.9440  -27.6340   19.6100 C   0  0  0  0  0  3  0  0  0  0  0  0
  -23.6370  -29.7570   20.2220 C   0  0  0  0  0  2  0  0  0  0  0  0
  -24.6730  -31.0750   22.1330 N   0  0  0  0  0  0  0  0  0  0  0  0
  -23.5320  -32.1480   23.7680 O   0  0  0  0  0  0  0  0  0  0  0  0
  -22.7710  -29.4410   22.5610 C   0  0  0  0  0  0  0  0  0  0  0  0
  -21.4460  -29.2600   22.4380 N   0  0  0  0  0  0  0  0  0  0  0  0
  -23.4570  -28.8180   23.3760 O   0  0  0  0  0  0  0  0  0  0  0  0
  -20.9570  -29.8140   21.7500 H   0  0  0  0  0  0  0  0  0  0  0  0
  -18.0710  -28.0900   22.9530 C   0  0  0  0  0  0  0  0  0  0  0  0
  -20.6300  -28.3280   23.2120 C   0  0  0  0  0  3  0  0  0  0  0  0
  -20.7220  -26.8970   22.6340 C   0  0  0  0  0  2  0  0  0  0  0  0
  -19.6110  -26.5830   21.6260 C   0  0  0  0  0  2  0  0  0  0  0  0
  -18.2340  -26.7390   22.2770 C   0  0  0  0  0  2  0  0  0  0  0  0
  -19.1970  -28.8410   23.3790 C   0  0  0  0  0  0  0  0  0  0  0  0
  -18.9910  -30.1050   23.9710 C   0  0  0  0  0  3  0  0  0  0  0  0
  -17.6920  -30.6200   24.1410 C   0  0  0  0  0  3  0  0  0  0  0  0
  -16.5790  -29.8620   23.7330 C   0  0  0  0  0  3  0  0  0  0  0  0
  -16.7700  -28.5990   23.1450 C   0  0  0  0  0  3  0  0  0  0  0  0
  -25.8990  -32.5180   23.8490 C   0  0  0  0  0  3  0  0  0  0  0  0
  -25.5830  -33.9130   24.1800 N   0  0  0  0  0  0  0  0  0  0  0  0
  -25.9120  -34.9670   23.4210 C   0  0  0  0  0  0  0  0  0  0  0  0
  -26.5870  -34.8690   22.3910 O   0  0  0  0  0  0  0  0  0  0  0  0
  -24.9870  -34.0630   24.9820 H   0  0  0  0  0  0  0  0  0  0  0  0
  -24.1770  -36.7470   23.0560 C   0  0  0  0  0  1  0  0  0  0  0  0
  -25.4160  -36.3510   23.8770 C   0  0  0  0  0  3  0  0  0  0  0  0
  -27.5440  -37.2430   24.7160 C   0  0  0  0  0  1  0  0  0  0  0  0
  -26.4440  -37.4090   23.7690 N   0  0  0  0  0  0  0  0  0  0  0  0
  -26.0340  -38.3270   23.9210 H   0  0  0  0  0  0  0  0  0  0  0  0
  -26.4280  -31.7470   25.1190 C   0  0  1  0  0  0  0  0  0  0  0  0
  -25.3420  -31.5030   26.1900 C   0  0  0  0  0  1  0  0  0  0  0  0
  -27.0180  -30.3750   24.7190 C   0  0  0  0  0  1  0  0  0  0  0  0
  -27.5750  -32.5500   25.7790 C   0  0  0  0  0  1  0  0  0  0  0  0
  -31.8800  -24.9090   18.6660 C   0  0  0  0  0  2  0  0  0  0  0  0
  -31.8260  -23.3890   18.8700 C   0  0  0  0  0  2  0  0  0  0  0  0
  -31.0390  -22.7010   17.7420 C   0  0  0  0  0  2  0  0  0  0  0  0
  -31.1590  -21.1660   17.7280 C   0  0  0  0  0  2  0  0  0  0  0  0
  -30.3670  -20.4290   18.8320 C   0  0  0  0  0  2  0  0  0  0  0  0
  -30.6370  -18.9800   18.7620 N   0  0  0  0  0  4  0  0  0  0  0  0
  -31.6130  -18.8440   18.9760 H   0  0  0  0  0  0  0  0  0  0  0  0
  -30.5000  -18.6770   17.8110 H   0  0  0  0  0  0  0  0  0  0  0  0
  -29.8480  -18.0770   19.6350 C   0  0  0  0  0  2  0  0  0  0  0  0
  -30.7330  -16.8680   19.9930 C   0  0  0  0  0  2  0  0  0  0  0  0
  -30.7300  -14.4820   20.4110 C   0  0  0  0  0  0  0  0  0  0  0  0
  -30.3280  -12.3280   19.3390 C   0  0  0  0  0  2  0  0  0  0  0  0
  -29.3920  -12.5440   18.1350 C   0  0  0  0  0  2  0  0  0  0  0  0
  -27.9250  -12.4200   18.5840 C   0  0  0  0  0  2  0  0  0  0  0  0
  -27.5980  -13.2770   19.8370 C   0  0  0  0  0  3  0  0  0  0  0  0
  -28.6700  -13.1170   20.9410 C   0  0  0  0  0  2  0  0  0  0  0  0
  -29.9850  -13.3530   20.3330 N   0  0  0  0  0  0  0  0  0  0  0  0
  -31.9220  -14.5110   20.1020 O   0  0  0  0  0  0  0  0  0  0  0  0
  -30.0670  -15.6480   20.4940 N   0  0  0  0  0  0  0  0  0  0  0  0
  -29.0750  -15.6460   20.6820 H   0  0  0  0  0  0  0  0  0  0  0  0
  -25.2110  -13.8730   20.5770 C   0  0  0  0  0  0  0  0  0  0  0  0
  -24.1470  -13.0980   20.9530 C   0  0  0  0  0  0  0  0  0  0  0  0
  -24.6100  -11.7470   20.9160 C   0  0  0  0  0  0  0  0  0  0  0  0
  -26.2550  -12.9950   20.3370 N   0  0  0  0  0  0  0  0  0  0  0  0
  -25.8980  -11.7100   20.6000 N   0  0  0  0  0  0  0  0  0  0  0  0
  -23.8850  -10.4840   21.1120 C   0  0  0  0  0  0  0  0  0  0  0  0
  -24.3410   -9.5050   22.0200 C   0  0  0  0  0  3  0  0  0  0  0  0
  -23.6180   -8.3060   22.2030 C   0  0  0  0  0  3  0  0  0  0  0  0
  -22.4260   -8.0780   21.4770 C   0  0  0  0  0  0  0  0  0  0  0  0
  -21.9880   -9.0460   20.5570 C   0  0  0  0  0  3  0  0  0  0  0  0
  -22.7110  -10.2370   20.3720 C   0  0  0  0  0  3  0  0  0  0  0  0
  -21.6740   -6.9320   21.5700 O   0  0  0  0  0  0  0  0  0  0  0  0
  -21.6730   -6.1640   22.7060 C   0  0  0  0  0  0  0  0  0  0  0  0
  -21.3180   -6.6950   23.9650 C   0  0  0  0  0  3  0  0  0  0  0  0
  -21.2620   -5.8510   25.0930 C   0  0  0  0  0  3  0  0  0  0  0  0
  -21.5510   -4.4790   24.9640 C   0  0  0  0  0  0  0  0  0  0  0  0
  -21.8990   -3.9490   23.7100 C   0  0  0  0  0  3  0  0  0  0  0  0
  -21.9570   -4.7880   22.5840 C   0  0  0  0  0  0  0  0  0  0  0  0
  -22.2720   -4.2680   21.3740 F   0  0  0  0  0  0  0  0  0  0  0  0
  -21.4900   -3.6680   26.0470 F   0  0  0  0  0  0  0  0  0  0  0  0
  -22.7530  -13.5730   21.2370 C   0  0  0  0  0  0  0  0  0  0  0  0
  -22.0350  -12.8720   22.1090 N   0  0  0  0  0  0  0  0  0  0  0  0
  -22.3090  -14.5990   20.7240 O   0  0  0  0  0  0  0  0  0  0  0  0
  -22.4110  -12.0430   22.5470 H   0  0  0  0  0  0  0  0  0  0  0  0
  -21.0980  -13.1680   22.3400 H   0  0  0  0  0  0  0  0  0  0  0  0
  -25.3750  -15.2430   20.3980 N   0  0  0  0  0  0  0  0  0  0  0  0
  -24.6070  -15.8980   20.5040 H   0  0  0  0  0  0  0  0  0  0  0  0
  -26.2160  -15.6770   20.0400 H   0  0  0  0  0  0  0  0  0  0  0  0
  2  1  1  0
  2  3  1  0
  3  4  1  0
  4  6  1  0
  4  7  1  0
  5  4  1  0
  8  7  1  0
  9 11  1  0
  9  8  1  0
 10 21  2  0
 11 16  1  0
 12 20  1  0
 12 22  1  0
 13 19  1  0
 13 15  1  0
 14 20  1  0
 15 16  2  0
 15 14  1  0
 17 11  2  0
 18 17  1  0
 18 13  2  0
 19 12  1  0
 20 10  1  0
 22 24  2  0
 23 22  1  0
 25 23  1  0
 26 35  2  0
 26 31  1  0
 27 23  1  0
 27 31  1  0
 28 27  1  0
 29 30  1  0
 29 28  1  0
 30 26  1  0
 31 32  2  0
 32 33  1  0
 34 33  2  0
 35 34  1  0
 36 10  1  0
 36 37  1  0
 36 46  1  0
 37 40  1  0
 38 42  1  0
 38 37  1  0
 39 38  2  0
 42 41  1  0
 44 42  1  0
 44 45  1  0
 44 43  1  0
 46 49  1  1
 46 47  1  0
 48 46  1  0
 50 51  1  0
 50  1  1  0
 52 51  1  0
 53 52  1  0
 53 54  1  0
 55 54  1  0
 55 56  1  0
 55 58  1  0
 57 55  1  0
 58 59  1  0
 59 68  1  0
 60 68  1  0
 61 66  1  0
 62 63  1  0
 62 61  1  0
 64 63  1  0
 64 73  1  0
 64 65  1  0
 66 60  1  0
 66 65  1  0
 67 60  2  0
 68 69  1  0
 70 71  2  0
 71 90  1  0
 72 71  1  0
 72 75  1  0
 73 70  1  0
 73 74  1  0
 74 72  2  0
 75 76  1  0
 76 77  2  0
 78 81  1  0
 78 77  1  0
 79 78  2  0
 80 79  1  0
 80 75  2  0
 81 82  1  0
 82 83  1  0
 83 84  2  0
 85 84  1  0
 85 89  1  0
 86 85  2  0
 87 82  2  0
 87 86  1  0
 88 87  1  0
 90 91  1  0
 91 94  1  0
 91 93  1  0
 92 90  2  0
 95 96  1  0
 95 70  1  0
 97 95  1  0
M  ISO  4   8 101   9 101  60 100  68 100
M  END
>  <TORSDO>  (50) 
F 29

>  <SCORE>  (50) 
-10.980

>  <name>  (50) 
49

>  <ligand_id>  (50) 
49

>  <original_smiles>  (50) 
[H]c1c([H])c([H])c2c(c1[H])C([H])([H])C([H])([H])C([H])([H])C2([H])N([H])C(=O)C1([H])N(C(=O)C([H])(N([H])C(=O)C([H])(N([H])C([H])([H])[H])C([H])([H])[H])C(C([H])([H])[H])(C([H])([H])[H])C([H])([H])[H])C([H])([H])c2c([H])c(OC([H])([H])C([H])([H])[N+]([H])([H])C([H])([H])C([H])([H])C([H])([H])C([H])([H])C([H])([H])C([H])([H])C([H])([H])C([H])([H])[N+]([H])([H])C([H])([H])C([H])([H])N([H])C(=O)N3C([H])([H])C([H])([H])C([H])([H])C([H])(n4nc(-c5c([H])c([H])c(Oc6c([H])c([H])c(F)c([H])c6F)c([H])c5[H])c(C(=O)N([H])[H])c4N([H])[H])C3([H])[H])c([H])c([H])c2C1([H])[H]

>  <smiles>  (50) 
[H]c1c([H])c([H])c2c(c1[H])C([H])([H])C([H])([H])C([H])([H])C2([H])N([H])C(=O)C1([H])N(C(=O)C([H])(N([H])C(=O)C([H])(N([H])C([H])([H])[H])C([H])([H])[H])C(C([H])([H])[H])(C([H])([H])[H])C([H])([H])[H])C([H])([H])c2c([H])c(OC([H])([H])C([H])([H])[N+]([H])([H])C([H])([H])C([H])([H])C([H])([H])C([H])([H])C([H])([H])C([H])([H])C([H])([H])C([H])([H])[N+]([H])([H])C([H])([H])C([H])([H])N([H])C(=O)N3C([H])([H])C([H])([H])C([H])([H])C([H])(n4nc(-c5c([H])c([H])c(Oc6c([H])c([H])c(F)c([H])c6F)c([H])c5[H])c(C(=O)N([H])[H])c4N([H])[H])C3([H])[H])c([H])c([H])c2C1([H])[H]

$$$$
50:0:0
     RDKit          3D

 98105  0  0  1  0  0  0  0  0999 V2000
  -24.4700  -23.5530   22.5370 C   0  0  0  0  0  0  0  0  0  0  0  0
  -24.2320  -24.8410   22.8050 N   0  0  0  0  0  0  0  0  0  0  0  0
  -24.8490  -22.7690   23.4060 O   0  0  0  0  0  0  0  0  0  0  0  0
  -23.8480  -25.4180   22.0650 H   0  0  0  0  0  0  0  0  0  0  0  0
  -24.3030  -23.2250   21.1340 C   0  0  0  0  0  3  0  0  0  0  0  0
  -25.3820  -22.8570   20.4180 C   0  0  0  0  0  3  0  0  0  0  0  0
  -25.3910  -22.5610   18.9360 C   0  0  0  0  0  2  0  0  0  0  0  0
  -25.6280  -23.8250   18.0850 C   0  0  0  0  0  2  0  0  0  0  0  0
  -26.7940  -24.6930   18.6000 C   0  0  0  0  0  2  0  0  0  0  0  0
  -28.1950  -24.2710   18.1010 C   0  0  0  0  0  2  0  0  0  0  0  0
  -28.8500  -23.2510   19.0500 C   0  0  0  0  0  2  0  0  0  0  0  0
  -30.3900  -23.1990   19.0560 C   0  0  0  0  0  2  0  0  0  0  0  0
  -31.9420  -21.6540   20.2220 C   0  0  0  0  0  0  0  0  0  0  0  0
  -32.9430  -19.4110   20.4450 C   0  0  0  0  0  2  0  0  0  0  0  0
  -32.7240  -18.6640   19.1170 C   0  0  0  0  0  2  0  0  0  0  0  0
  -31.3690  -17.9330   19.1270 C   0  0  0  0  0  2  0  0  0  0  0  0
  -30.2010  -18.8580   19.5620 C   0  0  0  0  0  3  0  0  0  0  0  0
  -30.5550  -19.6440   20.8430 C   0  0  0  0  0  2  0  0  0  0  0  0
  -31.8300  -20.3560   20.6140 N   0  0  0  0  0  0  0  0  0  0  0  0
  -32.9970  -22.1920   19.8810 O   0  0  0  0  0  0  0  0  0  0  0  0
  -30.7690  -22.2730   20.1080 N   0  0  0  0  0  0  0  0  0  0  0  0
  -30.0030  -21.7750   20.5450 H   0  0  0  0  0  0  0  0  0  0  0  0
  -27.6430  -18.5580   19.6790 C   0  0  0  0  0  0  0  0  0  0  0  0
  -26.8580  -17.4440   19.8160 C   0  0  0  0  0  0  0  0  0  0  0  0
  -27.7580  -16.3360   19.9140 C   0  0  0  0  0  0  0  0  0  0  0  0
  -28.9550  -18.1050   19.7180 N   0  0  0  0  0  0  0  0  0  0  0  0
  -29.0160  -16.7640   19.9120 N   0  0  0  0  0  0  0  0  0  0  0  0
  -27.4920  -14.8910   19.9580 C   0  0  0  0  0  0  0  0  0  0  0  0
  -27.6730  -14.1470   21.1420 C   0  0  0  0  0  3  0  0  0  0  0  0
  -27.3940  -12.7640   21.1710 C   0  0  0  0  0  3  0  0  0  0  0  0
  -26.9230  -12.1120   20.0090 C   0  0  0  0  0  0  0  0  0  0  0  0
  -26.7590  -12.8520   18.8250 C   0  0  0  0  0  3  0  0  0  0  0  0
  -27.0430  -14.2280   18.7970 C   0  0  0  0  0  3  0  0  0  0  0  0
  -26.6520  -10.7650   19.9310 O   0  0  0  0  0  0  0  0  0  0  0  0
  -25.9580  -10.1150   20.9170 C   0  0  0  0  0  0  0  0  0  0  0  0
  -24.6430  -10.4890   21.2720 C   0  0  0  0  0  3  0  0  0  0  0  0
  -23.9410   -9.7520   22.2470 C   0  0  0  0  0  3  0  0  0  0  0  0
  -24.5440   -8.6350   22.8560 C   0  0  0  0  0  0  0  0  0  0  0  0
  -25.8530   -8.2620   22.5030 C   0  0  0  0  0  3  0  0  0  0  0  0
  -26.5580   -8.9990   21.5340 C   0  0  0  0  0  0  0  0  0  0  0  0
  -27.8080   -8.6190   21.1800 F   0  0  0  0  0  0  0  0  0  0  0  0
  -23.8660   -7.9190   23.7840 F   0  0  0  0  0  0  0  0  0  0  0  0
  -25.3580  -17.3960   19.7550 C   0  0  0  0  0  0  0  0  0  0  0  0
  -24.7510  -16.4410   20.4510 N   0  0  0  0  0  0  0  0  0  0  0  0
  -24.7160  -18.2420   19.1300 O   0  0  0  0  0  0  0  0  0  0  0  0
  -25.2780  -15.7610   20.9800 H   0  0  0  0  0  0  0  0  0  0  0  0
  -23.7420  -16.3950   20.4550 H   0  0  0  0  0  0  0  0  0  0  0  0
  -27.3640  -19.9090   19.5020 N   0  0  0  0  0  0  0  0  0  0  0  0
  -26.4140  -20.2560   19.3850 H   0  0  0  0  0  0  0  0  0  0  0  0
  -28.0670  -20.6140   19.3210 H   0  0  0  0  0  0  0  0  0  0  0  0
  -24.5120  -25.4500   24.1090 C   0  0  0  0  0  2  0  0  0  0  0  0
  -26.0220  -25.4480   24.4210 C   0  0  0  0  0  2  0  0  0  0  0  0
  -26.7740  -25.6130   23.1650 N   0  0  0  0  0  4  0  0  0  0  0  0
  -26.8930  -26.6030   23.0060 H   0  0  0  0  0  0  0  0  0  0  0  0
  -26.1980  -25.2550   22.4200 H   0  0  0  0  0  0  0  0  0  0  0  0
  -28.1110  -24.9930   23.0730 C   0  0  0  0  0  2  0  0  0  0  0  0
  -28.7020  -25.1610   21.6560 C   0  0  0  0  0  2  0  0  0  0  0  0
  -28.8090  -26.5450   21.2820 O   0  0  0  0  0  0  0  0  0  0  0  0
  -24.7760  -31.8840   23.6580 C   0  0  0  0  0  0  0  0  0  0  0  0
  -27.6510  -27.2660   21.0810 C   0  0  0  0  0  0  0  0  0  0  0  0
  -23.7090  -30.3910   22.0000 C   0  0  0  0  0  3  0  0  0  0  0  0
  -25.2690  -28.7630   20.8120 C   0  0  0  0  0  0  0  0  0  0  0  0
  -26.2450  -30.7270   22.0100 C   0  0  0  0  0  2  0  0  0  0  0  0
  -26.3740  -29.3160   21.4710 C   0  0  0  0  0  0  0  0  0  0  0  0
  -27.5670  -28.5770   21.6050 C   0  0  0  0  0  3  0  0  0  0  0  0
  -26.5350  -26.7310   20.3990 C   0  0  0  0  0  3  0  0  0  0  0  0
  -25.3440  -27.4670   20.2760 C   0  0  0  0  0  3  0  0  0  0  0  0
  -24.0360  -29.6280   20.6900 C   0  0  0  0  0  2  0  0  0  0  0  0
  -24.9240  -31.0190   22.6160 N   0  0  0  0  0  0  0  0  0  0  0  0
  -23.6520  -32.2000   24.0760 O   0  0  0  0  0  0  0  0  0  0  0  0
  -22.9670  -29.4320   22.9570 C   0  0  0  0  0  0  0  0  0  0  0  0
  -21.6850  -29.1570   22.6500 N   0  0  0  0  0  0  0  0  0  0  0  0
  -23.5460  -28.9300   23.9230 O   0  0  0  0  0  0  0  0  0  0  0  0
  -21.2740  -29.6530   21.8740 H   0  0  0  0  0  0  0  0  0  0  0  0
  -18.3480  -27.7830   22.7110 C   0  0  0  0  0  0  0  0  0  0  0  0
  -20.8040  -28.2380   23.3700 C   0  0  0  0  0  3  0  0  0  0  0  0
  -21.0840  -26.7720   22.9630 C   0  0  0  0  0  2  0  0  0  0  0  0
  -20.1870  -26.2810   21.8250 C   0  0  0  0  0  2  0  0  0  0  0  0
  -18.7070  -26.3960   22.2010 C   0  0  0  0  0  2  0  0  0  0  0  0
  -19.3360  -28.6560   23.2370 C   0  0  0  0  0  0  0  0  0  0  0  0
  -18.9580  -29.9560   23.6380 C   0  0  0  0  0  3  0  0  0  0  0  0
  -17.6250  -30.3860   23.5230 C   0  0  0  0  0  3  0  0  0  0  0  0
  -16.6440  -29.5100   23.0220 C   0  0  0  0  0  3  0  0  0  0  0  0
  -17.0080  -28.2090   22.6220 C   0  0  0  0  0  3  0  0  0  0  0  0
  -26.0090  -32.5460   24.3550 C   0  0  0  0  0  3  0  0  0  0  0  0
  -25.6800  -33.9600   24.5760 N   0  0  0  0  0  0  0  0  0  0  0  0
  -26.0870  -34.9650   23.7880 C   0  0  0  0  0  0  0  0  0  0  0  0
  -26.8430  -34.7980   22.8290 O   0  0  0  0  0  0  0  0  0  0  0  0
  -25.0220  -34.1610   25.3110 H   0  0  0  0  0  0  0  0  0  0  0  0
  -24.4040  -36.7340   23.1850 C   0  0  0  0  0  1  0  0  0  0  0  0
  -25.5730  -36.3790   24.1190 C   0  0  0  0  0  3  0  0  0  0  0  0
  -27.6350  -37.3130   25.0680 C   0  0  0  0  0  1  0  0  0  0  0  0
  -26.6160  -37.4190   24.0290 N   0  0  0  0  0  0  0  0  0  0  0  0
  -26.2060  -38.3470   24.0800 H   0  0  0  0  0  0  0  0  0  0  0  0
  -26.4030  -31.8400   25.7090 C   0  0  1  0  0  0  0  0  0  0  0  0
  -25.2080  -31.6100   26.6630 C   0  0  0  0  0  1  0  0  0  0  0  0
  -27.0630  -30.4650   25.4370 C   0  0  0  0  0  1  0  0  0  0  0  0
  -27.4560  -32.6920   26.4550 C   0  0  0  0  0  1  0  0  0  0  0  0
  1  2  1  0
  1  3  2  0
  2 51  1  0
  4  2  1  0
  5  1  1  0
  6  5  2  0
  7  6  1  0
  8  9  1  0
  8  7  1  0
 10  9  1  0
 10 11  1  0
 11 12  1  0
 12 21  1  0
 13 19  1  0
 14 19  1  0
 15 16  1  0
 15 14  1  0
 17 16  1  0
 17 26  1  0
 17 18  1  0
 19 18  1  0
 20 13  2  0
 21 13  1  0
 21 22  1  0
 23 26  1  0
 23 24  2  0
 24 25  1  0
 25 28  1  0
 26 27  1  0
 27 25  2  0
 28 29  1  0
 29 30  2  0
 31 30  1  0
 32 31  2  0
 33 32  1  0
 33 28  2  0
 34 31  1  0
 34 35  1  0
 35 36  2  0
 35 40  1  0
 36 37  1  0
 37 38  2  0
 38 42  1  0
 39 38  1  0
 40 39  2  0
 41 40  1  0
 43 24  1  0
 43 44  1  0
 44 47  1  0
 44 46  1  0
 45 43  2  0
 48 23  1  0
 49 48  1  0
 50 48  1  0
 51 52  1  0
 53 52  1  0
 54 53  1  0
 55 53  1  0
 56 53  1  0
 57 56  1  0
 58 57  1  0
 59 70  2  0
 60 58  1  0
 60 65  1  0
 61 69  1  0
 61 71  1  0
 62 64  1  0
 63 69  1  0
 64 65  2  0
 64 63  1  0
 66 60  2  0
 67 66  1  0
 67 62  2  0
 68 62  1  0
 68 61  1  0
 69 59  1  0
 71 73  2  0
 72 71  1  0
 74 72  1  0
 75 80  1  0
 76 72  1  0
 77 76  1  0
 78 79  1  0
 78 77  1  0
 79 75  1  0
 80 76  1  0
 80 81  2  0
 82 81  1  0
 83 82  2  0
 84 75  2  0
 84 83  1  0
 85 59  1  0
 85 86  1  0
 85 95  1  0
 86 89  1  0
 87 91  1  0
 87 86  1  0
 88 87  2  0
 91 90  1  0
 93 94  1  0
 93 91  1  0
 93 92  1  0
 95 98  1  1
 95 96  1  0
 97 95  1  0
M  ISO  4  13 100  21 100  57 101  58 101
M  END
>  <TORSDO>  (51) 
F 28

>  <SCORE>  (51) 
-5.538

>  <name>  (51) 
50

>  <ligand_id>  (51) 
50

>  <original_smiles>  (51) 
[H]C(C(=O)N([H])C([H])([H])C([H])([H])[N+]([H])([H])C([H])([H])C([H])([H])Oc1c([H])c([H])c2c(c1[H])C([H])([H])N(C(=O)C([H])(N([H])C(=O)C([H])(N([H])C([H])([H])[H])C([H])([H])[H])C(C([H])([H])[H])(C([H])([H])[H])C([H])([H])[H])C([H])(C(=O)N([H])C1([H])c3c([H])c([H])c([H])c([H])c3C([H])([H])C([H])([H])C1([H])[H])C2([H])[H])=C([H])C([H])([H])C([H])([H])C([H])([H])C([H])([H])C([H])([H])C([H])([H])N([H])C(=O)N1C([H])([H])C([H])([H])C([H])([H])C([H])(n2nc(-c3c([H])c([H])c(Oc4c([H])c([H])c(F)c([H])c4F)c([H])c3[H])c(C(=O)N([H])[H])c2N([H])[H])C1([H])[H]

>  <smiles>  (51) 
[H]C(C(=O)N([H])C([H])([H])C([H])([H])[N+]([H])([H])C([H])([H])C([H])([H])Oc1c([H])c([H])c2c(c1[H])C([H])([H])N(C(=O)C([H])(N([H])C(=O)C([H])(N([H])C([H])([H])[H])C([H])([H])[H])C(C([H])([H])[H])(C([H])([H])[H])C([H])([H])[H])C([H])(C(=O)N([H])C1([H])c3c([H])c([H])c([H])c([H])c3C([H])([H])C([H])([H])C1([H])[H])C2([H])[H])=C([H])C([H])([H])C([H])([H])C([H])([H])C([H])([H])C([H])([H])C([H])([H])N([H])C(=O)N1C([H])([H])C([H])([H])C([H])([H])C([H])(n2nc(-c3c([H])c([H])c(Oc4c([H])c([H])c(F)c([H])c4F)c([H])c3[H])c(C(=O)N([H])[H])c2N([H])[H])C1([H])[H]

$$$$
51:0:0
     RDKit          3D

 97104  0  0  1  0  0  0  0  0999 V2000
  -29.6690  -22.9210   24.4090 C   0  0  0  0  0  2  0  0  0  0  0  0
  -29.6630  -24.4340   24.1200 C   0  0  0  0  0  2  0  0  0  0  0  0
  -28.6860  -24.8100   23.0780 N   0  0  0  0  0  4  0  0  0  0  0  0
  -27.7990  -25.0090   23.5180 H   0  0  0  0  0  0  0  0  0  0  0  0
  -28.5530  -24.0250   22.4630 H   0  0  0  0  0  0  0  0  0  0  0  0
  -29.1220  -25.9800   22.2840 C   0  0  0  0  0  2  0  0  0  0  0  0
  -28.0150  -26.5480   21.3900 C   0  0  0  0  0  2  0  0  0  0  0  0
  -27.6130  -25.6200   20.2260 C   0  0  0  0  0  2  0  0  0  0  0  0
  -27.1060  -26.3640   19.1310 O   0  0  0  0  0  0  0  0  0  0  0  0
  -24.6850  -31.3880   23.5350 C   0  0  0  0  0  0  0  0  0  0  0  0
  -26.0930  -27.2280   19.4460 C   0  0  0  0  0  0  0  0  0  0  0  0
  -23.0630  -30.5370   21.8700 C   0  0  0  0  0  3  0  0  0  0  0  0
  -24.0330  -29.0500   20.0410 C   0  0  0  0  0  0  0  0  0  0  0  0
  -25.5730  -30.4930   21.3880 C   0  0  0  0  0  2  0  0  0  0  0  0
  -25.3240  -29.2680   20.5370 C   0  0  0  0  0  0  0  0  0  0  0  0
  -26.3610  -28.3670   20.2330 C   0  0  0  0  0  3  0  0  0  0  0  0
  -24.7900  -27.0040   18.9570 C   0  0  0  0  0  3  0  0  0  0  0  0
  -23.7580  -27.9160   19.2520 C   0  0  0  0  0  3  0  0  0  0  0  0
  -22.9880  -30.0850   20.3880 C   0  0  0  0  0  2  0  0  0  0  0  0
  -24.4690  -30.8040   22.3240 N   0  0  0  0  0  0  0  0  0  0  0  0
  -23.7400  -31.7450   24.2530 O   0  0  0  0  0  0  0  0  0  0  0  0
  -22.3290  -29.4900   22.7360 C   0  0  0  0  0  0  0  0  0  0  0  0
  -20.9920  -29.4510   22.6170 N   0  0  0  0  0  0  0  0  0  0  0  0
  -22.9570  -28.7200   23.4680 O   0  0  0  0  0  0  0  0  0  0  0  0
  -20.5510  -30.1180   22.0000 H   0  0  0  0  0  0  0  0  0  0  0  0
  -17.5440  -28.4300   22.9080 C   0  0  0  0  0  0  0  0  0  0  0  0
  -20.0970  -28.5220   23.3050 C   0  0  0  0  0  3  0  0  0  0  0  0
  -20.1470  -27.1200   22.6570 C   0  0  0  0  0  2  0  0  0  0  0  0
  -19.0750  -26.9140   21.5820 C   0  0  0  0  0  2  0  0  0  0  0  0
  -17.6760  -27.1080   22.1740 C   0  0  0  0  0  2  0  0  0  0  0  0
  -18.6830  -29.1010   23.4270 C   0  0  0  0  0  0  0  0  0  0  0  0
  -18.5100  -30.3460   24.0710 C   0  0  0  0  0  3  0  0  0  0  0  0
  -17.2300  -30.9150   24.2030 C   0  0  0  0  0  3  0  0  0  0  0  0
  -16.1030  -30.2380   23.7050 C   0  0  0  0  0  3  0  0  0  0  0  0
  -16.2630  -28.9980   23.0610 C   0  0  0  0  0  3  0  0  0  0  0  0
  -26.1270  -31.6590   24.0680 C   0  0  0  0  0  3  0  0  0  0  0  0
  -26.1010  -32.9370   24.7880 N   0  0  0  0  0  0  0  0  0  0  0  0
  -26.5980  -34.0870   24.3150 C   0  0  0  0  0  0  0  0  0  0  0  0
  -27.2010  -34.1640   23.2400 O   0  0  0  0  0  0  0  0  0  0  0  0
  -25.5600  -32.9640   25.6400 H   0  0  0  0  0  0  0  0  0  0  0  0
  -25.2500  -36.1930   24.5810 C   0  0  0  0  0  1  0  0  0  0  0  0
  -26.3940  -35.3530   25.1680 C   0  0  0  0  0  3  0  0  0  0  0  0
  -28.6650  -35.5550   26.0780 C   0  0  0  0  0  1  0  0  0  0  0  0
  -27.6110  -36.1840   25.2860 N   0  0  0  0  0  0  0  0  0  0  0  0
  -27.3950  -37.0850   25.7040 H   0  0  0  0  0  0  0  0  0  0  0  0
  -26.6730  -30.5030   24.9920 C   0  0  1  0  0  0  0  0  0  0  0  0
  -25.6980  -30.1070   26.1260 C   0  0  0  0  0  1  0  0  0  0  0  0
  -26.9740  -29.2340   24.1600 C   0  0  0  0  0  1  0  0  0  0  0  0
  -28.0100  -30.9320   25.6410 C   0  0  0  0  0  1  0  0  0  0  0  0
  -31.0940  -22.3870   24.6520 C   0  0  0  0  0  2  0  0  0  0  0  0
  -31.1850  -20.8550   24.5280 C   0  0  0  0  0  2  0  0  0  0  0  0
  -32.3770  -20.4190   23.7640 N   0  0  0  0  0  4  0  0  0  0  0  0
  -32.5310  -21.0270   22.9770 H   0  0  0  0  0  0  0  0  0  0  0  0
  -33.1790  -20.5160   24.3650 H   0  0  0  0  0  0  0  0  0  0  0  0
  -32.3330  -19.0210   23.2780 C   0  0  0  0  0  2  0  0  0  0  0  0
  -31.3360  -18.8450   22.1120 C   0  0  0  0  0  2  0  0  0  0  0  0
  -31.3110  -17.4270   21.5160 C   0  0  0  0  0  2  0  0  0  0  0  0
  -30.5060  -17.3880   20.2030 C   0  0  0  0  0  2  0  0  0  0  0  0
  -30.9240  -16.2830   19.2180 C   0  0  0  0  0  2  0  0  0  0  0  0
  -30.2900  -13.9250   18.6780 C   0  0  0  0  0  0  0  0  0  0  0  0
  -30.4130  -11.5200   19.1700 C   0  0  0  0  0  2  0  0  0  0  0  0
  -29.5040  -10.6180   18.3220 C   0  0  0  0  0  2  0  0  0  0  0  0
  -28.1030  -10.5220   18.9450 C   0  0  0  0  0  2  0  0  0  0  0  0
  -27.5050  -11.9150   19.2610 C   0  0  0  0  0  3  0  0  0  0  0  0
  -28.5060  -12.7990   20.0390 C   0  0  0  0  0  2  0  0  0  0  0  0
  -29.7890  -12.8420   19.3130 N   0  0  0  0  0  0  0  0  0  0  0  0
  -31.0480  -13.8620   17.7040 O   0  0  0  0  0  0  0  0  0  0  0  0
  -30.1380  -15.0590   19.3820 N   0  0  0  0  0  0  0  0  0  0  0  0
  -29.5770  -14.9850   20.2180 H   0  0  0  0  0  0  0  0  0  0  0  0
  -25.3680  -12.7810   20.4090 C   0  0  0  0  0  0  0  0  0  0  0  0
  -24.2850  -12.1310   20.9390 C   0  0  0  0  0  0  0  0  0  0  0  0
  -24.5460  -10.7360   20.7780 C   0  0  0  0  0  0  0  0  0  0  0  0
  -26.2300  -11.7890   19.9670 N   0  0  0  0  0  0  0  0  0  0  0  0
  -25.7450  -10.5500   20.2410 N   0  0  0  0  0  0  0  0  0  0  0  0
  -23.7000   -9.5670   21.0560 C   0  0  0  0  0  0  0  0  0  0  0  0
  -23.8800   -8.7850   22.2180 C   0  0  0  0  0  3  0  0  0  0  0  0
  -23.0440   -7.6770   22.4730 C   0  0  0  0  0  3  0  0  0  0  0  0
  -22.0120   -7.3430   21.5640 C   0  0  0  0  0  0  0  0  0  0  0  0
  -21.8500   -8.1120   20.3990 C   0  0  0  0  0  3  0  0  0  0  0  0
  -22.6860   -9.2120   20.1430 C   0  0  0  0  0  3  0  0  0  0  0  0
  -21.1690   -6.2690   21.7150 O   0  0  0  0  0  0  0  0  0  0  0  0
  -20.5100   -6.0310   22.8950 C   0  0  0  0  0  0  0  0  0  0  0  0
  -19.6380   -6.9820   23.4660 C   0  0  0  0  0  3  0  0  0  0  0  0
  -18.9290   -6.6690   24.6440 C   0  0  0  0  0  3  0  0  0  0  0  0
  -19.0830   -5.4060   25.2430 C   0  0  0  0  0  0  0  0  0  0  0  0
  -19.9490   -4.4560   24.6740 C   0  0  0  0  0  3  0  0  0  0  0  0
  -20.6590   -4.7680   23.5010 C   0  0  0  0  0  0  0  0  0  0  0  0
  -21.4740   -3.8400   22.9430 F   0  0  0  0  0  0  0  0  0  0  0  0
  -18.3970   -5.1010   26.3710 F   0  0  0  0  0  0  0  0  0  0  0  0
  -23.0360  -12.7660   21.4770 C   0  0  0  0  0  0  0  0  0  0  0  0
  -22.4210  -12.1540   22.4850 N   0  0  0  0  0  0  0  0  0  0  0  0
  -22.6230  -13.8370   21.0380 O   0  0  0  0  0  0  0  0  0  0  0  0
  -22.7680  -11.2840   22.8600 H   0  0  0  0  0  0  0  0  0  0  0  0
  -21.5910  -12.5640   22.8880 H   0  0  0  0  0  0  0  0  0  0  0  0
  -25.6790  -14.1280   20.2500 N   0  0  0  0  0  0  0  0  0  0  0  0
  -25.0390  -14.8660   20.5180 H   0  0  0  0  0  0  0  0  0  0  0  0
  -26.5180  -14.4740   19.7990 H   0  0  0  0  0  0  0  0  0  0  0  0
  1 50  1  0
  2  1  1  0
  3  4  1  0
  3  2  1  0
  5  3  1  0
  6  3  1  0
  7  6  1  0
  8  7  1  0
  9 11  1  0
  9  8  1  0
 10 21  2  0
 11 16  1  0
 12 20  1  0
 12 22  1  0
 13 19  1  0
 13 15  1  0
 14 20  1  0
 15 14  1  0
 16 15  2  0
 17 18  1  0
 17 11  2  0
 18 13  2  0
 19 12  1  0
 20 10  1  0
 22 24  2  0
 23 22  1  0
 25 23  1  0
 26 35  2  0
 26 31  1  0
 27 23  1  0
 27 31  1  0
 28 27  1  0
 29 30  1  0
 29 28  1  0
 30 26  1  0
 31 32  2  0
 32 33  1  0
 34 33  2  0
 35 34  1  0
 36 10  1  0
 36 37  1  0
 36 46  1  0
 37 40  1  0
 38 37  1  0
 38 42  1  0
 39 38  2  0
 42 41  1  0
 42 44  1  0
 44 45  1  0
 44 43  1  0
 46 49  1  1
 46 47  1  0
 48 46  1  0
 51 50  1  0
 52 54  1  0
 52 51  1  0
 53 52  1  0
 55 52  1  0
 56 55  1  0
 57 56  1  0
 58 57  1  0
 59 68  1  0
 59 58  1  0
 60 66  1  0
 60 68  1  0
 61 66  1  0
 62 63  1  0
 62 61  1  0
 64 63  1  0
 64 73  1  0
 64 65  1  0
 66 65  1  0
 67 60  2  0
 68 69  1  0
 70 71  2  0
 71 90  1  0
 72 71  1  0
 72 75  1  0
 73 74  1  0
 73 70  1  0
 74 72  2  0
 75 76  1  0
 76 77  2  0
 78 81  1  0
 78 77  1  0
 79 78  2  0
 80 79  1  0
 80 75  2  0
 81 82  1  0
 82 83  2  0
 82 87  1  0
 83 84  1  0
 84 85  2  0
 85 89  1  0
 86 85  1  0
 87 86  2  0
 88 87  1  0
 90 91  1  0
 91 93  1  0
 91 94  1  0
 92 90  2  0
 95 70  1  0
 95 96  1  0
 97 95  1  0
M  ISO  4   8 101   9 101  60 100  68 100
M  END
>  <TORSDO>  (52) 
F 29

>  <SCORE>  (52) 
-6.052

>  <name>  (52) 
51

>  <ligand_id>  (52) 
51

>  <original_smiles>  (52) 
[H]c1c([H])c([H])c2c(c1[H])C([H])([H])C([H])([H])C([H])([H])C2([H])N([H])C(=O)C1([H])N(C(=O)C([H])(N([H])C(=O)C([H])(N([H])C([H])([H])[H])C([H])([H])[H])C(C([H])([H])[H])(C([H])([H])[H])C([H])([H])[H])C([H])([H])c2c([H])c(OC([H])([H])C([H])([H])C([H])([H])[N+]([H])([H])C([H])([H])C([H])([H])C([H])([H])C([H])([H])[N+]([H])([H])C([H])([H])C([H])([H])C([H])([H])C([H])([H])C([H])([H])N([H])C(=O)N3C([H])([H])C([H])([H])C([H])([H])C([H])(n4nc(-c5c([H])c([H])c(Oc6c([H])c([H])c(F)c([H])c6F)c([H])c5[H])c(C(=O)N([H])[H])c4N([H])[H])C3([H])[H])c([H])c([H])c2C1([H])[H]

>  <smiles>  (52) 
[H]c1c([H])c([H])c2c(c1[H])C([H])([H])C([H])([H])C([H])([H])C2([H])N([H])C(=O)C1([H])N(C(=O)C([H])(N([H])C(=O)C([H])(N([H])C([H])([H])[H])C([H])([H])[H])C(C([H])([H])[H])(C([H])([H])[H])C([H])([H])[H])C([H])([H])c2c([H])c(OC([H])([H])C([H])([H])C([H])([H])[N+]([H])([H])C([H])([H])C([H])([H])C([H])([H])C([H])([H])[N+]([H])([H])C([H])([H])C([H])([H])C([H])([H])C([H])([H])C([H])([H])N([H])C(=O)N3C([H])([H])C([H])([H])C([H])([H])C([H])(n4nc(-c5c([H])c([H])c(Oc6c([H])c([H])c(F)c([H])c6F)c([H])c5[H])c(C(=O)N([H])[H])c4N([H])[H])C3([H])[H])c([H])c([H])c2C1([H])[H]

$$$$
53:0:0
     RDKit          3D

101109  0  0  1  0  0  0  0  0999 V2000
  -34.0920  -25.0520   24.6540 N   0  0  0  0  0  4  0  0  0  0  0  0
  -34.3960  -25.0780   25.6150 H   0  0  0  0  0  0  0  0  0  0  0  0
  -33.0860  -25.0940   24.6510 H   0  0  0  0  0  0  0  0  0  0  0  0
  -34.6440  -26.2280   23.9410 C   0  0  0  0  0  2  0  0  0  0  0  0
  -34.2620  -27.5750   24.6000 C   0  0  0  0  0  2  0  0  0  0  0  0
  -33.0040  -28.2650   24.0170 C   0  0  0  0  0  2  0  0  0  0  0  0
  -33.3280  -29.3830   23.0940 N   0  0  0  0  0  4  0  0  0  0  0  0
  -33.9310  -29.0350   22.3650 H   0  0  0  0  0  0  0  0  0  0  0  0
  -33.8500  -30.0900   23.5890 H   0  0  0  0  0  0  0  0  0  0  0  0
  -32.1620  -30.0150   22.4190 C   0  0  0  0  0  2  0  0  0  0  0  0
  -31.1190  -30.5930   23.3930 C   0  0  0  0  0  2  0  0  0  0  0  0
  -30.1610  -31.3600   22.6640 O   0  0  0  0  0  0  0  0  0  0  0  0
  -25.0540  -29.1810   27.1600 C   0  0  0  0  0  0  0  0  0  0  0  0
  -28.9130  -31.5410   23.2240 C   0  0  0  0  0  0  0  0  0  0  0  0
  -24.4000  -30.9420   25.5440 C   0  0  0  0  0  3  0  0  0  0  0  0
  -26.3180  -32.0180   24.2510 C   0  0  0  0  0  0  0  0  0  0  0  0
  -26.8160  -30.7300   26.3380 C   0  0  0  0  0  2  0  0  0  0  0  0
  -27.2410  -31.2700   24.9900 C   0  0  0  0  0  0  0  0  0  0  0  0
  -28.5320  -31.0280   24.4860 C   0  0  0  0  0  3  0  0  0  0  0  0
  -27.9710  -32.2920   22.4870 C   0  0  0  0  0  3  0  0  0  0  0  0
  -26.6760  -32.5310   22.9910 C   0  0  0  0  0  3  0  0  0  0  0  0
  -24.9580  -32.2300   24.8780 C   0  0  0  0  0  2  0  0  0  0  0  0
  -25.4280  -30.2220   26.3640 N   0  0  0  0  0  0  0  0  0  0  0  0
  -23.8650  -28.8460   27.2550 O   0  0  0  0  0  0  0  0  0  0  0  0
  -23.7670  -30.0590   24.4460 C   0  0  0  0  0  0  0  0  0  0  0  0
  -22.5260  -30.3910   24.0590 N   0  0  0  0  0  0  0  0  0  0  0  0
  -24.3980  -29.1240   23.9430 O   0  0  0  0  0  0  0  0  0  0  0  0
  -22.0780  -31.1680   24.5240 H   0  0  0  0  0  0  0  0  0  0  0  0
  -19.2870  -30.3150   22.4630 C   0  0  0  0  0  0  0  0  0  0  0  0
  -21.7430  -29.7290   23.0160 C   0  0  2  0  0  0  0  0  0  0  0  0
  -22.0880  -30.2990   21.6210 C   0  0  0  0  0  2  0  0  0  0  0  0
  -21.1620  -31.4410   21.1890 C   0  0  0  0  0  2  0  0  0  0  0  0
  -19.7050  -30.9700   21.1580 C   0  0  0  0  0  2  0  0  0  0  0  0
  -20.2460  -29.7470   23.3440 C   0  0  0  0  0  0  0  0  0  0  0  0
  -19.8080  -29.1820   24.5600 C   0  0  0  0  0  3  0  0  0  0  0  0
  -18.4430  -29.1760   24.9020 C   0  0  0  0  0  3  0  0  0  0  0  0
  -17.4960  -29.7230   24.0180 C   0  0  0  0  0  3  0  0  0  0  0  0
  -17.9180  -30.2870   22.8020 C   0  0  0  0  0  3  0  0  0  0  0  0
  -26.0930  -28.3800   28.0060 C   0  0  0  0  0  3  0  0  0  0  0  0
  -25.4840  -28.1120   29.3150 N   0  0  0  0  0  0  0  0  0  0  0  0
  -25.7490  -28.8060   30.4300 C   0  0  0  0  0  0  0  0  0  0  0  0
  -26.5950  -29.7050   30.4770 O   0  0  0  0  0  0  0  0  0  0  0  0
  -24.7420  -27.4280   29.3380 H   0  0  0  0  0  0  0  0  0  0  0  0
  -23.8250  -29.4790   31.9000 C   0  0  0  0  0  1  0  0  0  0  0  0
  -24.9470  -28.4490   31.6950 C   0  0  0  0  0  3  0  0  0  0  0  0
  -26.7010  -27.2350   32.9100 C   0  0  0  0  0  1  0  0  0  0  0  0
  -25.7780  -28.3670   32.9160 N   0  0  0  0  0  0  0  0  0  0  0  0
  -25.1940  -28.2940   33.7450 H   0  0  0  0  0  0  0  0  0  0  0  0
  -26.5540  -27.0370   27.3180 C   0  0  1  0  0  0  0  0  0  0  0  0
  -25.3810  -26.1490   26.8450 C   0  0  0  0  0  1  0  0  0  0  0  0
  -27.4470  -27.3350   26.0920 C   0  0  0  0  0  1  0  0  0  0  0  0
  -27.4170  -26.2110   28.3020 C   0  0  0  0  0  1  0  0  0  0  0  0
  -34.4880  -23.7530   24.0660 C   0  0  0  0  0  2  0  0  0  0  0  0
  -33.7940  -22.5660   24.7620 C   0  0  0  0  0  2  0  0  0  0  0  0
  -33.8160  -21.2930   23.9020 C   0  0  0  0  0  2  0  0  0  0  0  0
  -33.0340  -20.1290   24.5260 C   0  0  0  0  0  2  0  0  0  0  0  0
  -32.5680  -19.3200   23.4610 O   0  0  0  0  0  0  0  0  0  0  0  0
  -31.7400  -18.2420   23.8710 C   0  0  0  0  0  2  0  0  0  0  0  0
  -30.6840  -18.0540   22.7750 C   0  0  0  0  0  2  0  0  0  0  0  0
  -29.6610  -19.2050   22.7420 C   0  0  0  0  0  2  0  0  0  0  0  0
  -29.1680  -19.5250   21.3260 C   0  0  0  0  0  2  0  0  0  0  0  0
  -28.1080  -20.6390   21.2890 C   0  0  0  0  0  2  0  0  0  0  0  0
  -28.0210  -21.2740   19.8950 C   0  0  0  0  0  2  0  0  0  0  0  0
  -26.7350  -22.9770   18.6860 C   0  0  0  0  0  0  0  0  0  0  0  0
  -24.9750  -23.4450   17.0380 C   0  0  0  0  0  2  0  0  0  0  0  0
  -24.6890  -24.9350   16.8090 C   0  0  0  0  0  2  0  0  0  0  0  0
  -23.6500  -25.4380   17.8240 C   0  0  0  0  0  2  0  0  0  0  0  0
  -24.0280  -25.0760   19.2820 C   0  0  0  0  0  3  0  0  0  0  0  0
  -24.4070  -23.5830   19.4190 C   0  0  0  0  0  2  0  0  0  0  0  0
  -25.4380  -23.2520   18.4170 N   0  0  0  0  0  0  0  0  0  0  0  0
  -27.6540  -23.1530   17.8800 O   0  0  0  0  0  0  0  0  0  0  0  0
  -26.9060  -22.2080   19.7660 N   0  0  0  0  0  0  0  0  0  0  0  0
  -26.0930  -22.0540   20.3450 H   0  0  0  0  0  0  0  0  0  0  0  0
  -22.9510  -26.4290   21.1910 C   0  0  0  0  0  0  0  0  0  0  0  0
  -21.6880  -26.4190   21.7200 C   0  0  0  0  0  0  0  0  0  0  0  0
  -20.9690  -25.4100   21.0070 C   0  0  0  0  0  0  0  0  0  0  0  0
  -22.9610  -25.4490   20.2100 N   0  0  0  0  0  0  0  0  0  0  0  0
  -21.7700  -24.8010   20.1400 N   0  0  0  0  0  0  0  0  0  0  0  0
  -19.5520  -25.0260   21.0600 C   0  0  0  0  0  0  0  0  0  0  0  0
  -19.1520  -23.6720   21.0280 C   0  0  0  0  0  3  0  0  0  0  0  0
  -17.7860  -23.3270   21.1000 C   0  0  0  0  0  3  0  0  0  0  0  0
  -16.8030  -24.3400   21.2080 C   0  0  0  0  0  0  0  0  0  0  0  0
  -17.2050  -25.6870   21.2170 C   0  0  0  0  0  3  0  0  0  0  0  0
  -18.5660  -26.0290   21.1400 C   0  0  0  0  0  3  0  0  0  0  0  0
  -15.4510  -24.1000   21.2550 O   0  0  0  0  0  0  0  0  0  0  0  0
  -14.9500  -22.8710   21.6010 C   0  0  0  0  0  0  0  0  0  0  0  0
  -15.2830  -22.2470   22.8230 C   0  0  0  0  0  3  0  0  0  0  0  0
  -14.6900  -21.0160   23.1690 C   0  0  0  0  0  3  0  0  0  0  0  0
  -13.7600  -20.4120   22.3010 C   0  0  0  0  0  0  0  0  0  0  0  0
  -13.4240  -21.0350   21.0860 C   0  0  0  0  0  3  0  0  0  0  0  0
  -14.0150  -22.2630   20.7390 C   0  0  0  0  0  0  0  0  0  0  0  0
  -13.6720  -22.8690   19.5770 F   0  0  0  0  0  0  0  0  0  0  0  0
  -13.1840  -19.2340   22.6360 F   0  0  0  0  0  0  0  0  0  0  0  0
  -21.1450  -27.3540   22.7620 C   0  0  0  0  0  3  0  0  0  0  0  0
  -20.1670  -26.9040   23.5400 N   0  0  0  0  0  0  0  0  0  0  0  0
  -21.6230  -28.4770   22.9240 O   0  0  0  0  0  0  0  0  0  0  0  0
  -19.7880  -25.9770   23.4170 H   0  0  0  0  0  0  0  0  0  0  0  0
  -19.7920  -27.4960   24.2670 H   0  0  0  0  0  0  0  0  0  0  0  0
  -24.0820  -27.1970   21.4450 N   0  0  0  0  0  0  0  0  0  0  0  0
  -24.0910  -27.9530   22.1220 H   0  0  0  0  0  0  0  0  0  0  0  0
  -24.9580  -27.1050   20.9450 H   0  0  0  0  0  0  0  0  0  0  0  0
  1  2  1  0
  3  1  1  0
  4  5  1  0
  4  1  1  0
  6  5  1  0
  7  9  1  0
  7  6  1  0
  8  7  1  0
 10  7  1  0
 10 11  1  0
 12 14  1  0
 12 11  1  0
 13 24  2  0
 14 19  1  0
 15 22  1  0
 15 23  1  0
 16 22  1  0
 16 18  1  0
 17 23  1  0
 18 17  1  0
 19 18  2  0
 20 21  1  0
 20 14  2  0
 21 16  2  0
 23 13  1  0
 25 15  1  0
 26 25  1  0
 26 28  1  0
 27 25  2  0
 29 38  2  0
 29 34  1  0
 30 31  1  6
 30 34  1  0
 30 26  1  0
 32 31  1  0
 33 32  1  0
 33 29  1  0
 34 35  2  0
 35 36  1  0
 37 36  2  0
 38 37  1  0
 39 13  1  0
 39 40  1  0
 40 43  1  0
 40 41  1  0
 41 42  2  0
 41 45  1  0
 45 44  1  0
 45 47  1  0
 46 47  1  0
 47 48  1  0
 49 39  1  0
 49 52  1  1
 50 49  1  0
 51 49  1  0
 53  1  1  0
 53 54  1  0
 55 56  1  0
 55 54  1  0
 57 58  1  0
 57 56  1  0
 59 58  1  0
 60 59  1  0
 61 60  1  0
 62 61  1  0
 63 62  1  0
 64 72  1  0
 65 70  1  0
 66 65  1  0
 66 67  1  0
 68 67  1  0
 68 69  1  0
 68 77  1  0
 70 64  1  0
 70 69  1  0
 71 64  2  0
 72 63  1  0
 72 73  1  0
 74 99  1  0
 74 75  2  0
 75 94  1  0
 76 79  1  0
 76 75  1  0
 77 74  1  0
 78 77  1  0
 78 76  2  0
 79 84  1  0
 80 79  2  0
 80 81  1  0
 81 82  2  0
 82 83  1  0
 82 85  1  0
 84 83  2  0
 85 86  1  0
 86 87  1  0
 87 88  2  0
 89 93  1  0
 89 88  1  0
 90 89  2  0
 91 90  1  0
 91 86  2  0
 92 91  1  0
 94 96  1  0
 94 95  1  0
 95 98  1  0
 96 30  1  0
 97 95  1  0
 99100  1  0
101 99  1  0
M  ISO  4  11 101  12 101  64 100  72 100
M  END
>  <TORSDO>  (53) 
F 33

>  <SCORE>  (53) 
40.153

>  <name>  (53) 
53

>  <ligand_id>  (53) 
53

>  <original_smiles>  (53) 
[H]c1c([H])c([H])c2c(c1[H])C([H])([H])C([H])([H])C([H])([H])C2([H])N([H])C(=O)C1([H])N(C(=O)C([H])(N([H])C(=O)C([H])(N([H])C([H])([H])[H])C([H])([H])[H])C(C([H])([H])[H])(C([H])([H])[H])C([H])([H])[H])C([H])([H])c2c([H])c(OC([H])([H])C([H])([H])[N+]([H])([H])C([H])([H])C([H])([H])C([H])([H])[N+]([H])([H])C([H])([H])C([H])([H])C([H])([H])C([H])([H])OC([H])([H])C([H])([H])C([H])([H])C([H])([H])C([H])([H])C([H])([H])N([H])C(=O)N3C([H])([H])C([H])([H])C([H])([H])C([H])(n4nc(-c5c([H])c([H])c(Oc6c([H])c([H])c(F)c([H])c6F)c([H])c5[H])c(C(=O)N([H])[H])c4N([H])[H])C3([H])[H])c([H])c([H])c2C1([H])[H]

>  <smiles>  (53) 
[H]c1c([H])c([H])c2c(c1[H])C([H])([H])C([H])([H])C([H])([H])C2([H])N([H])C(=O)C1([H])N(C(=O)C([H])(N([H])C(=O)C([H])(N([H])C([H])([H])[H])C([H])([H])[H])C(C([H])([H])[H])(C([H])([H])[H])C([H])([H])[H])C([H])([H])c2c([H])c(OC([H])([H])C([H])([H])[N+]([H])([H])C([H])([H])C([H])([H])C([H])([H])[N+]([H])([H])C([H])([H])C([H])([H])C([H])([H])C([H])([H])OC([H])([H])C([H])([H])C([H])([H])C([H])([H])C([H])([H])C([H])([H])N([H])C(=O)N3C([H])([H])C([H])([H])C([H])([H])C([H])(n4nc(-c5c([H])c([H])c(Oc6c([H])c([H])c(F)c([H])c6F)c([H])c5[H])c(C(=O)N([H])[H])c4N([H])[H])C3([H])[H])c([H])c([H])c2C1([H])[H]

$$$$
54:0:0
     RDKit          3D

106114  0  0  1  0  0  0  0  0999 V2000
  -26.1740  -21.2870   19.9790 C   0  0  0  0  0  2  0  0  0  0  0  0
  -27.5980  -19.4960   19.1020 C   0  0  0  0  0  0  0  0  0  0  0  0
  -28.2600  -18.1900   17.0000 C   0  0  0  0  0  2  0  0  0  0  0  0
  -26.9670  -21.4000   17.6040 C   0  0  0  0  0  2  0  0  0  0  0  0
  -27.5180  -18.9340   15.8680 C   0  0  0  0  0  2  0  0  0  0  0  0
  -25.9970  -20.8150   16.5430 C   0  0  0  0  0  2  0  0  0  0  0  0
  -28.7680  -19.0550   18.1840 C   0  0  0  0  0  3  0  0  0  0  0  0
  -26.9550  -20.6710   18.8860 N   0  0  0  0  0  0  0  0  0  0  0  0
  -26.1570  -19.3720   16.2410 N   0  0  0  0  0  4  0  0  0  0  0  0
  -27.2940  -18.7740   20.0550 O   0  0  0  0  0  0  0  0  0  0  0  0
  -25.7940  -18.7980   16.9860 H   0  0  0  0  0  0  0  0  0  0  0  0
  -25.5670  -19.1880   15.4430 H   0  0  0  0  0  0  0  0  0  0  0  0
  -29.9290  -18.3340   18.8770 C   0  0  0  0  0  3  0  0  0  0  0  0
  -30.3430  -18.4860   20.1500 C   0  0  0  0  0  3  0  0  0  0  0  0
  -31.5220  -17.7530   20.7560 C   0  0  0  0  0  2  0  0  0  0  0  0
  -31.1700  -16.9920   22.0500 C   0  0  0  0  0  2  0  0  0  0  0  0
  -31.2700  -14.6350   21.2280 C   0  0  0  0  0  0  0  0  0  0  0  0
  -31.1230  -12.2950   20.4660 C   0  0  0  0  0  2  0  0  0  0  0  0
  -30.3740  -12.2010   19.1240 C   0  0  0  0  0  2  0  0  0  0  0  0
  -28.8540  -12.1040   19.3530 C   0  0  0  0  0  2  0  0  0  0  0  0
  -28.3260  -13.1910   20.3280 C   0  0  0  0  0  3  0  0  0  0  0  0
  -29.1950  -13.2480   21.6040 C   0  0  0  0  0  2  0  0  0  0  0  0
  -30.5970  -13.4570   21.1980 N   0  0  0  0  0  0  0  0  0  0  0  0
  -32.4010  -14.7790   20.7560 O   0  0  0  0  0  0  0  0  0  0  0  0
  -30.6230  -15.6540   21.8090 N   0  0  0  0  0  0  0  0  0  0  0  0
  -29.6970  -15.4620   22.1650 H   0  0  0  0  0  0  0  0  0  0  0  0
  -25.8970  -13.9060   20.8040 C   0  0  0  0  0  0  0  0  0  0  0  0
  -24.7560  -13.1840   21.0190 C   0  0  0  0  0  0  0  0  0  0  0  0
  -25.1470  -11.8110   20.9850 C   0  0  0  0  0  0  0  0  0  0  0  0
  -26.9150  -12.9790   20.6470 N   0  0  0  0  0  0  0  0  0  0  0  0
  -26.4590  -11.7100   20.8120 N   0  0  0  0  0  0  0  0  0  0  0  0
  -24.3390  -10.5870   21.0500 C   0  0  0  0  0  0  0  0  0  0  0  0
  -24.5750   -9.5990   22.0320 C   0  0  0  0  0  3  0  0  0  0  0  0
  -23.7710   -8.4400   22.0850 C   0  0  0  0  0  3  0  0  0  0  0  0
  -22.7210   -8.2600   21.1550 C   0  0  0  0  0  0  0  0  0  0  0  0
  -22.5060   -9.2370   20.1670 C   0  0  0  0  0  3  0  0  0  0  0  0
  -23.3080  -10.3880   20.1110 C   0  0  0  0  0  3  0  0  0  0  0  0
  -21.9060   -7.1550   21.1160 O   0  0  0  0  0  0  0  0  0  0  0  0
  -21.5600   -6.4740   22.2540 C   0  0  0  0  0  0  0  0  0  0  0  0
  -20.9010   -7.1070   23.3300 C   0  0  0  0  0  3  0  0  0  0  0  0
  -20.5020   -6.3550   24.4520 C   0  0  0  0  0  3  0  0  0  0  0  0
  -20.7510   -4.9700   24.4980 C   0  0  0  0  0  0  0  0  0  0  0  0
  -21.4010   -4.3360   23.4250 C   0  0  0  0  0  3  0  0  0  0  0  0
  -21.8030   -5.0860   22.3050 C   0  0  0  0  0  0  0  0  0  0  0  0
  -22.4110   -4.4660   21.2650 F   0  0  0  0  0  0  0  0  0  0  0  0
  -20.3600   -4.2460   25.5720 F   0  0  0  0  0  0  0  0  0  0  0  0
  -23.3650  -13.7310   21.1630 C   0  0  0  0  0  0  0  0  0  0  0  0
  -22.5190  -13.0590   21.9350 N   0  0  0  0  0  0  0  0  0  0  0  0
  -23.0370  -14.7900   20.6300 O   0  0  0  0  0  0  0  0  0  0  0  0
  -22.7940  -12.2020   22.3910 H   0  0  0  0  0  0  0  0  0  0  0  0
  -21.5810  -13.4080   22.0730 H   0  0  0  0  0  0  0  0  0  0  0  0
  -26.1440  -15.2710   20.7180 N   0  0  0  0  0  0  0  0  0  0  0  0
  -25.4220  -15.9230   20.9980 H   0  0  0  0  0  0  0  0  0  0  0  0
  -27.0730  -15.6640   20.8190 H   0  0  0  0  0  0  0  0  0  0  0  0
  -26.9200  -22.4660   20.6240 C   0  0  0  0  0  0  0  0  0  0  0  0
  -26.5760  -22.8220   21.8690 N   0  0  0  0  0  0  0  0  0  0  0  0
  -27.7850  -23.0770   19.9920 O   0  0  0  0  0  0  0  0  0  0  0  0
  -25.8480  -22.2770   22.3150 H   0  0  0  0  0  0  0  0  0  0  0  0
  -27.2060  -23.8550   22.7050 C   0  0  0  0  0  2  0  0  0  0  0  0
  -26.9940  -25.2990   22.2020 C   0  0  0  0  0  2  0  0  0  0  0  0
  -27.7040  -25.5400   20.9300 N   0  0  0  0  0  4  0  0  0  0  0  0
  -27.5400  -24.7100   20.3610 H   0  0  0  0  0  0  0  0  0  0  0  0
  -28.6970  -25.5760   21.1090 H   0  0  0  0  0  0  0  0  0  0  0  0
  -27.2830  -26.7570   20.2020 C   0  0  0  0  0  2  0  0  0  0  0  0
  -27.6300  -26.6930   18.6960 C   0  0  0  0  0  2  0  0  0  0  0  0
  -27.1900  -27.8670   18.0060 O   0  0  0  0  0  0  0  0  0  0  0  0
  -24.5470  -31.5770   23.4260 C   0  0  0  0  0  0  0  0  0  0  0  0
  -26.0760  -28.4870   18.5140 C   0  0  0  0  0  0  0  0  0  0  0  0
  -22.8820  -30.6900   21.8250 C   0  0  0  0  0  3  0  0  0  0  0  0
  -23.8280  -29.7520   19.6510 C   0  0  0  0  0  0  0  0  0  0  0  0
  -25.2650  -31.2340   21.0680 C   0  0  0  0  0  2  0  0  0  0  0  0
  -25.1180  -30.1420   20.0310 C   0  0  0  0  0  0  0  0  0  0  0  0
  -26.2450  -29.5200   19.4570 C   0  0  0  0  0  3  0  0  0  0  0  0
  -24.7690  -28.1030   18.1330 C   0  0  0  0  0  3  0  0  0  0  0  0
  -23.6460  -28.7310   18.7010 C   0  0  0  0  0  3  0  0  0  0  0  0
  -22.6750  -30.4820   20.3000 C   0  0  0  0  0  2  0  0  0  0  0  0
  -24.2640  -31.1630   22.1590 N   0  0  0  0  0  0  0  0  0  0  0  0
  -23.6700  -31.6120   24.2990 O   0  0  0  0  0  0  0  0  0  0  0  0
  -22.4860  -29.3890   22.5570 C   0  0  0  0  0  0  0  0  0  0  0  0
  -21.2190  -28.9760   22.3970 N   0  0  0  0  0  0  0  0  0  0  0  0
  -23.3130  -28.7630   23.2250 O   0  0  0  0  0  0  0  0  0  0  0  0
  -20.6030  -29.5510   21.8400 H   0  0  0  0  0  0  0  0  0  0  0  0
  -18.3180  -26.8260   22.2830 C   0  0  0  0  0  0  0  0  0  0  0  0
  -20.6300  -27.7620   22.9600 C   0  0  0  0  0  3  0  0  0  0  0  0
  -21.2230  -26.4980   22.2960 C   0  0  0  0  0  2  0  0  0  0  0  0
  -20.3990  -25.9990   21.1040 C   0  0  0  0  0  2  0  0  0  0  0  0
  -18.9680  -25.6710   21.5400 C   0  0  0  0  0  2  0  0  0  0  0  0
  -19.0990  -27.8170   22.9360 C   0  0  0  0  0  0  0  0  0  0  0  0
  -18.4460  -28.8890   23.5810 C   0  0  0  0  0  3  0  0  0  0  0  0
  -17.0410  -28.9790   23.5870 C   0  0  0  0  0  3  0  0  0  0  0  0
  -16.2720  -27.9860   22.9540 C   0  0  0  0  0  3  0  0  0  0  0  0
  -16.9100  -26.9120   22.3060 C   0  0  0  0  0  3  0  0  0  0  0  0
  -25.9780  -32.0500   23.8330 C   0  0  0  0  0  3  0  0  0  0  0  0
  -26.6890  -31.0780   24.8540 C   0  0  1  0  0  0  0  0  0  0  0  0
  -25.8260  -30.7390   26.0920 C   0  0  0  0  0  1  0  0  0  0  0  0
  -27.0710  -29.7470   24.1660 C   0  0  0  0  0  1  0  0  0  0  0  0
  -28.0100  -31.7130   25.3510 C   0  0  0  0  0  1  0  0  0  0  0  0
  -25.8520  -33.3980   24.4020 N   0  0  0  0  0  0  0  0  0  0  0  0
  -26.2140  -34.5240   23.7730 C   0  0  0  0  0  0  0  0  0  0  0  0
  -26.7620  -34.5290   22.6680 O   0  0  0  0  0  0  0  0  0  0  0  0
  -25.3600  -33.4740   25.2790 H   0  0  0  0  0  0  0  0  0  0  0  0
  -24.6930  -36.5260   23.8440 C   0  0  0  0  0  1  0  0  0  0  0  0
  -25.9200  -35.8580   24.4850 C   0  0  0  0  0  3  0  0  0  0  0  0
  -28.1910  -36.3450   25.2770 C   0  0  0  0  0  1  0  0  0  0  0  0
  -27.0620  -36.7970   24.4690 N   0  0  0  0  0  0  0  0  0  0  0  0
  -26.7800  -37.7140   24.8060 H   0  0  0  0  0  0  0  0  0  0  0  0
  1 55  1  0
  2 10  2  0
  3  7  1  0
  4  8  1  0
  5  9  1  0
  5  3  1  0
  6  4  1  0
  7 13  1  0
  7  2  1  0
  8  2  1  0
  8  1  1  0
  9  6  1  0
  9 11  1  0
 12  9  1  0
 13 14  2  0
 14 15  1  0
 15 16  1  0
 17 25  1  0
 18 23  1  0
 19 20  1  0
 19 18  1  0
 21 20  1  0
 21 30  1  0
 21 22  1  0
 23 17  1  0
 23 22  1  0
 24 17  2  0
 25 16  1  0
 25 26  1  0
 27 28  2  0
 28 47  1  0
 29 28  1  0
 29 32  1  0
 30 27  1  0
 30 31  1  0
 31 29  2  0
 32 33  1  0
 33 34  2  0
 35 34  1  0
 36 35  2  0
 37 36  1  0
 37 32  2  0
 38 35  1  0
 38 39  1  0
 39 44  2  0
 39 40  1  0
 40 41  2  0
 41 42  1  0
 42 46  1  0
 43 42  2  0
 44 43  1  0
 45 44  1  0
 47 48  1  0
 48 51  1  0
 48 50  1  0
 49 47  2  0
 52 27  1  0
 52 54  1  0
 52 53  1  0
 55 56  1  0
 56 58  1  0
 56 59  1  0
 57 55  2  0
 60 59  1  0
 61 63  1  0
 61 60  1  0
 62 61  1  0
 64 61  1  0
 65 64  1  0
 66 68  1  0
 66 65  1  0
 67 78  2  0
 68 73  1  0
 69 77  1  0
 69 79  1  0
 70 72  1  0
 70 76  1  0
 71 77  1  0
 72 71  1  0
 73 72  2  0
 74 68  2  0
 74 75  1  0
 75 70  2  0
 76 69  1  0
 77 67  1  0
 79 81  2  0
 80 79  1  0
 82 80  1  0
 83 92  2  0
 83 88  1  0
 84 80  1  0
 85 84  1  0
 86 87  1  0
 86 85  1  0
 87 83  1  0
 88 84  1  0
 88 89  2  0
 89 90  1  0
 91 90  2  0
 92 91  1  0
 93 67  1  0
 93 98  1  0
 93 94  1  0
 94 97  1  1
 94 95  1  0
 96 94  1  0
 98101  1  0
 99 98  1  0
 99103  1  0
100 99  2  0
103102  1  0
105103  1  0
105106  1  0
105104  1  0
M  ISO  4  17 100  25 100  65 101  66 101
M  END
>  <TORSDO>  (54) 
F 26

>  <SCORE>  (54) 
-5.943

>  <name>  (54) 
54

>  <ligand_id>  (54) 
54

>  <original_smiles>  (54) 
[H]C(=C([H])C1([H])C(=O)N(C([H])([H])C(=O)N([H])C([H])([H])C([H])([H])[N+]([H])([H])C([H])([H])C([H])([H])Oc2c([H])c([H])c3c(c2[H])C([H])([H])N(C(=O)C([H])(N([H])C(=O)C([H])(N([H])C([H])([H])[H])C([H])([H])[H])C(C([H])([H])[H])(C([H])([H])[H])C([H])([H])[H])C([H])(C(=O)N([H])C2([H])c4c([H])c([H])c([H])c([H])c4C([H])([H])C([H])([H])C2([H])[H])C3([H])[H])C([H])([H])C([H])([H])[N+]([H])([H])C([H])([H])C1([H])[H])C([H])([H])C([H])([H])N([H])C(=O)N1C([H])([H])C([H])([H])C([H])([H])C([H])(n2nc(-c3c([H])c([H])c(Oc4c([H])c([H])c(F)c([H])c4F)c([H])c3[H])c(C(=O)N([H])[H])c2N([H])[H])C1([H])[H]

>  <smiles>  (54) 
[H]C(=C([H])C1([H])C(=O)N(C([H])([H])C(=O)N([H])C([H])([H])C([H])([H])[N+]([H])([H])C([H])([H])C([H])([H])Oc2c([H])c([H])c3c(c2[H])C([H])([H])N(C(=O)C([H])(N([H])C(=O)C([H])(N([H])C([H])([H])[H])C([H])([H])[H])C(C([H])([H])[H])(C([H])([H])[H])C([H])([H])[H])C([H])(C(=O)N([H])C2([H])c4c([H])c([H])c([H])c([H])c4C([H])([H])C([H])([H])C2([H])[H])C3([H])[H])C([H])([H])C([H])([H])[N+]([H])([H])C([H])([H])C1([H])[H])C([H])([H])C([H])([H])N([H])C(=O)N1C([H])([H])C([H])([H])C([H])([H])C([H])(n2nc(-c3c([H])c([H])c(Oc4c([H])c([H])c(F)c([H])c4F)c([H])c3[H])c(C(=O)N([H])[H])c2N([H])[H])C1([H])[H]

$$$$
55:0:0
     RDKit          3D

 95102  0  0  1  0  0  0  0  0999 V2000
  -31.9040  -24.9390   21.0230 N   0  0  0  0  0  4  0  0  0  0  0  0
  -32.2730  -25.3970   21.8430 H   0  0  0  0  0  0  0  0  0  0  0  0
  -32.7070  -24.6440   20.4910 H   0  0  0  0  0  0  0  0  0  0  0  0
  -31.1380  -25.9670   20.2880 C   0  0  0  0  0  2  0  0  0  0  0  0
  -30.8820  -25.5760   18.8230 C   0  0  0  0  0  2  0  0  0  0  0  0
  -30.0580  -26.6090   18.0380 C   0  0  0  0  0  2  0  0  0  0  0  0
  -28.5520  -26.5810   18.3250 C   0  0  0  0  0  2  0  0  0  0  0  0
  -28.2890  -27.0890   19.6290 O   0  0  0  0  0  0  0  0  0  0  0  0
  -24.4750  -31.8990   23.2150 C   0  0  0  0  0  0  0  0  0  0  0  0
  -27.0840  -27.7320   19.7710 C   0  0  0  0  0  0  0  0  0  0  0  0
  -23.2390  -30.5980   21.5110 C   0  0  0  0  0  3  0  0  0  0  0  0
  -24.6680  -29.1770   19.9550 C   0  0  0  0  0  0  0  0  0  0  0  0
  -25.7520  -30.9990   21.2780 C   0  0  0  0  0  2  0  0  0  0  0  0
  -25.8330  -29.6750   20.5540 C   0  0  0  0  0  0  0  0  0  0  0  0
  -27.0410  -28.9530   20.4710 C   0  0  0  0  0  3  0  0  0  0  0  0
  -25.8950  -27.2240   19.1940 C   0  0  0  0  0  3  0  0  0  0  0  0
  -24.6910  -27.9450   19.2800 C   0  0  0  0  0  3  0  0  0  0  0  0
  -23.4190  -30.0180   20.0830 C   0  0  0  0  0  2  0  0  0  0  0  0
  -24.5090  -31.1780   22.0600 N   0  0  0  0  0  0  0  0  0  0  0  0
  -23.4060  -32.1230   23.7990 O   0  0  0  0  0  0  0  0  0  0  0  0
  -22.6260  -29.5040   22.4130 C   0  0  0  0  0  0  0  0  0  0  0  0
  -21.3050  -29.3020   22.2880 N   0  0  0  0  0  0  0  0  0  0  0  0
  -23.3330  -28.8440   23.1790 O   0  0  0  0  0  0  0  0  0  0  0  0
  -20.7950  -29.8910   21.6470 H   0  0  0  0  0  0  0  0  0  0  0  0
  -17.9590  -28.0250   22.7580 C   0  0  0  0  0  0  0  0  0  0  0  0
  -20.5170  -28.3030   23.0080 C   0  0  0  0  0  3  0  0  0  0  0  0
  -20.6290  -26.9130   22.3400 C   0  0  0  0  0  2  0  0  0  0  0  0
  -19.5170  -26.6400   21.3230 C   0  0  0  0  0  2  0  0  0  0  0  0
  -18.1440  -26.7240   21.9950 C   0  0  0  0  0  2  0  0  0  0  0  0
  -19.0740  -28.7750   23.2190 C   0  0  0  0  0  0  0  0  0  0  0  0
  -18.8470  -29.9950   23.8910 C   0  0  0  0  0  3  0  0  0  0  0  0
  -17.5380  -30.4690   24.1050 C   0  0  0  0  0  3  0  0  0  0  0  0
  -16.4390  -29.7160   23.6600 C   0  0  0  0  0  3  0  0  0  0  0  0
  -16.6500  -28.4950   22.9930 C   0  0  0  0  0  3  0  0  0  0  0  0
  -25.7740  -32.4960   23.8420 C   0  0  0  0  0  3  0  0  0  0  0  0
  -25.5000  -33.9040   24.1590 N   0  0  0  0  0  0  0  0  0  0  0  0
  -25.8940  -34.9420   23.4070 C   0  0  0  0  0  0  0  0  0  0  0  0
  -26.5980  -34.8120   22.4020 O   0  0  0  0  0  0  0  0  0  0  0  0
  -24.8850  -34.0840   24.9390 H   0  0  0  0  0  0  0  0  0  0  0  0
  -24.2670  -36.8030   22.9550 C   0  0  0  0  0  1  0  0  0  0  0  0
  -25.4360  -36.3470   23.8420 C   0  0  0  0  0  3  0  0  0  0  0  0
  -27.5390  -37.1450   24.8240 C   0  0  0  0  0  1  0  0  0  0  0  0
  -26.5160  -37.3560   23.8030 N   0  0  0  0  0  0  0  0  0  0  0  0
  -26.1390  -38.2930   23.9230 H   0  0  0  0  0  0  0  0  0  0  0  0
  -26.2620  -31.7170   25.1240 C   0  0  1  0  0  0  0  0  0  0  0  0
  -25.1540  -31.4990   26.1810 C   0  0  0  0  0  1  0  0  0  0  0  0
  -26.8240  -30.3290   24.7370 C   0  0  0  0  0  1  0  0  0  0  0  0
  -27.4190  -32.4910   25.7980 C   0  0  0  0  0  1  0  0  0  0  0  0
  -31.1250  -23.7810   21.5200 C   0  0  0  0  0  2  0  0  0  0  0  0
  -31.2470  -22.5110   20.6450 C   0  0  0  0  0  2  0  0  0  0  0  0
  -30.7560  -21.2630   21.4090 C   0  0  0  0  0  2  0  0  0  0  0  0
  -30.8680  -20.0060   20.6340 N   0  0  0  0  0  4  0  0  0  0  0  0
  -31.6660  -20.0440   20.0200 H   0  0  0  0  0  0  0  0  0  0  0  0
  -30.0410  -19.9160   20.0650 H   0  0  0  0  0  0  0  0  0  0  0  0
  -30.9740  -18.8020   21.4850 C   0  0  0  0  0  2  0  0  0  0  0  0
  -30.8030  -17.5030   20.6760 C   0  0  0  0  0  2  0  0  0  0  0  0
  -30.9190  -16.2630   21.5850 C   0  0  0  0  0  2  0  0  0  0  0  0
  -30.6140  -14.3150   20.0450 C   0  0  0  0  0  0  0  0  0  0  0  0
  -30.2030  -12.1980   18.8600 C   0  0  0  0  0  2  0  0  0  0  0  0
  -29.1560  -12.3740   17.7440 C   0  0  0  0  0  2  0  0  0  0  0  0
  -27.7280  -12.2040   18.2970 C   0  0  0  0  0  2  0  0  0  0  0  0
  -27.4790  -13.0510   19.5750 C   0  0  0  0  0  3  0  0  0  0  0  0
  -28.6250  -12.8530   20.5910 C   0  0  0  0  0  2  0  0  0  0  0  0
  -29.9030  -13.1670   19.9200 N   0  0  0  0  0  0  0  0  0  0  0  0
  -31.5730  -14.6180   19.3340 O   0  0  0  0  0  0  0  0  0  0  0  0
  -30.2260  -15.0880   21.0630 N   0  0  0  0  0  0  0  0  0  0  0  0
  -29.4190  -14.7550   21.5700 H   0  0  0  0  0  0  0  0  0  0  0  0
  -25.1510  -13.6050   20.5310 C   0  0  0  0  0  0  0  0  0  0  0  0
  -24.1300  -12.8080   20.9770 C   0  0  0  0  0  0  0  0  0  0  0  0
  -24.5990  -11.4650   20.8520 C   0  0  0  0  0  0  0  0  0  0  0  0
  -26.1790  -12.7460   20.1740 N   0  0  0  0  0  0  0  0  0  0  0  0
  -25.8550  -11.4500   20.4220 N   0  0  0  0  0  0  0  0  0  0  0  0
  -23.9040  -10.1890   21.0670 C   0  0  0  0  0  0  0  0  0  0  0  0
  -24.3470   -9.2620   22.0340 C   0  0  0  0  0  3  0  0  0  0  0  0
  -23.6530   -8.0480   22.2320 C   0  0  0  0  0  3  0  0  0  0  0  0
  -22.5000   -7.7550   21.4680 C   0  0  0  0  0  0  0  0  0  0  0  0
  -22.0790   -8.6730   20.4890 C   0  0  0  0  0  3  0  0  0  0  0  0
  -22.7710   -9.8760   20.2870 C   0  0  0  0  0  3  0  0  0  0  0  0
  -21.7750   -6.5920   21.5760 O   0  0  0  0  0  0  0  0  0  0  0  0
  -21.6500   -5.9300   22.7710 C   0  0  0  0  0  0  0  0  0  0  0  0
  -21.0350   -6.5290   23.8930 C   0  0  0  0  0  3  0  0  0  0  0  0
  -20.8660   -5.7890   25.0810 C   0  0  0  0  0  3  0  0  0  0  0  0
  -21.2950   -4.4500   25.1450 C   0  0  0  0  0  0  0  0  0  0  0  0
  -21.9010   -3.8520   24.0250 C   0  0  0  0  0  3  0  0  0  0  0  0
  -22.0740   -4.5880   22.8420 C   0  0  0  0  0  0  0  0  0  0  0  0
  -22.6390   -4.0010   21.7610 F   0  0  0  0  0  0  0  0  0  0  0  0
  -21.1250   -3.7360   26.2820 F   0  0  0  0  0  0  0  0  0  0  0  0
  -22.7620  -13.2610   21.3940 C   0  0  0  0  0  0  0  0  0  0  0  0
  -22.1160  -12.5170   22.2880 N   0  0  0  0  0  0  0  0  0  0  0  0
  -22.2780  -14.3080   20.9680 O   0  0  0  0  0  0  0  0  0  0  0  0
  -22.5230  -11.6730   22.6610 H   0  0  0  0  0  0  0  0  0  0  0  0
  -21.2020  -12.8030   22.6060 H   0  0  0  0  0  0  0  0  0  0  0  0
  -25.2840  -14.9810   20.3840 N   0  0  0  0  0  0  0  0  0  0  0  0
  -24.5220  -15.6190   20.5850 H   0  0  0  0  0  0  0  0  0  0  0  0
  -26.1040  -15.4420   20.0090 H   0  0  0  0  0  0  0  0  0  0  0  0
  1 49  1  0
  1  2  1  0
  3  1  1  0
  4  1  1  0
  5  4  1  0
  6  7  1  0
  6  5  1  0
  7  8  1  0
  8 10  1  0
  9 20  2  0
 10 15  1  0
 11 19  1  0
 11 21  1  0
 12 18  1  0
 12 14  1  0
 13 19  1  0
 14 13  1  0
 15 14  2  0
 16 17  1  0
 16 10  2  0
 17 12  2  0
 18 11  1  0
 19  9  1  0
 21 23  2  0
 22 21  1  0
 24 22  1  0
 25 34  2  0
 25 30  1  0
 26 22  1  0
 26 30  1  0
 27 26  1  0
 28 29  1  0
 28 27  1  0
 29 25  1  0
 30 31  2  0
 31 32  1  0
 33 32  2  0
 34 33  1  0
 35  9  1  0
 35 36  1  0
 35 45  1  0
 36 39  1  0
 37 41  1  0
 37 36  1  0
 38 37  2  0
 41 40  1  0
 43 41  1  0
 43 44  1  0
 43 42  1  0
 45 48  1  1
 45 46  1  0
 47 45  1  0
 50 51  1  0
 50 49  1  0
 52 51  1  0
 52 55  1  0
 53 52  1  0
 54 52  1  0
 56 55  1  0
 56 57  1  0
 58 66  1  0
 59 64  1  0
 60 61  1  0
 60 59  1  0
 62 61  1  0
 62 71  1  0
 62 63  1  0
 64 58  1  0
 64 63  1  0
 65 58  2  0
 66 67  1  0
 66 57  1  0
 68 69  2  0
 69 88  1  0
 70 69  1  0
 70 73  1  0
 71 72  1  0
 71 68  1  0
 72 70  2  0
 73 74  1  0
 74 75  2  0
 76 79  1  0
 76 75  1  0
 77 76  2  0
 78 77  1  0
 78 73  2  0
 79 80  1  0
 80 85  2  0
 80 81  1  0
 81 82  2  0
 82 83  1  0
 83 87  1  0
 84 83  2  0
 85 84  1  0
 86 85  1  0
 88 89  1  0
 89 92  1  0
 89 91  1  0
 90 88  2  0
 93 68  1  0
 93 94  1  0
 95 93  1  0
M  ISO  4   7 101   8 101  58 100  66 100
M  END
>  <TORSDO>  (55) 
F 27

>  <SCORE>  (55) 
-10.958

>  <name>  (55) 
55

>  <ligand_id>  (55) 
55

>  <original_smiles>  (55) 
[H]c1c([H])c([H])c2c(c1[H])C([H])([H])C([H])([H])C([H])([H])C2([H])N([H])C(=O)C1([H])N(C(=O)C([H])(N([H])C(=O)C([H])(N([H])C([H])([H])[H])C([H])([H])[H])C(C([H])([H])[H])(C([H])([H])[H])C([H])([H])[H])C([H])([H])c2c([H])c(OC([H])([H])C([H])([H])C([H])([H])C([H])([H])[N+]([H])([H])C([H])([H])C([H])([H])C([H])([H])[N+]([H])([H])C([H])([H])C([H])([H])C([H])([H])N([H])C(=O)N3C([H])([H])C([H])([H])C([H])([H])C([H])(n4nc(-c5c([H])c([H])c(Oc6c([H])c([H])c(F)c([H])c6F)c([H])c5[H])c(C(=O)N([H])[H])c4N([H])[H])C3([H])[H])c([H])c([H])c2C1([H])[H]

>  <smiles>  (55) 
[H]c1c([H])c([H])c2c(c1[H])C([H])([H])C([H])([H])C([H])([H])C2([H])N([H])C(=O)C1([H])N(C(=O)C([H])(N([H])C(=O)C([H])(N([H])C([H])([H])[H])C([H])([H])[H])C(C([H])([H])[H])(C([H])([H])[H])C([H])([H])[H])C([H])([H])c2c([H])c(OC([H])([H])C([H])([H])C([H])([H])C([H])([H])[N+]([H])([H])C([H])([H])C([H])([H])C([H])([H])[N+]([H])([H])C([H])([H])C([H])([H])C([H])([H])N([H])C(=O)N3C([H])([H])C([H])([H])C([H])([H])C([H])(n4nc(-c5c([H])c([H])c(Oc6c([H])c([H])c(F)c([H])c6F)c([H])c5[H])c(C(=O)N([H])[H])c4N([H])[H])C3([H])[H])c([H])c([H])c2C1([H])[H]

$$$$
56:0:0
     RDKit          3D

 96103  0  0  1  0  0  0  0  0999 V2000
  -33.0010  -21.3310   21.5200 C   0  0  0  0  0  2  0  0  0  0  0  0
  -33.9530  -20.2210   21.0410 C   0  0  0  0  0  2  0  0  0  0  0  0
  -35.0020  -19.8210   22.1000 C   0  0  0  0  0  2  0  0  0  0  0  0
  -34.8160  -18.4070   22.6900 C   0  0  0  0  0  2  0  0  0  0  0  0
  -33.6120  -18.2490   23.6380 C   0  0  0  0  0  2  0  0  0  0  0  0
  -31.9150  -16.6540   22.7300 C   0  0  0  0  0  0  0  0  0  0  0  0
  -32.3910  -17.8950   22.9130 N   0  0  0  0  0  0  0  0  0  0  0  0
  -32.4770  -15.6490   23.1720 O   0  0  0  0  0  0  0  0  0  0  0  0
  -31.8660  -18.6630   22.5190 H   0  0  0  0  0  0  0  0  0  0  0  0
  -30.5940  -16.5360   21.9530 C   0  0  0  0  0  2  0  0  0  0  0  0
  -30.7340  -14.3720   20.6920 C   0  0  0  0  0  0  0  0  0  0  0  0
  -30.4230  -12.2920   19.3910 C   0  0  0  0  0  2  0  0  0  0  0  0
  -29.4860  -12.5360   18.1910 C   0  0  0  0  0  2  0  0  0  0  0  0
  -28.0090  -12.3840   18.6050 C   0  0  0  0  0  2  0  0  0  0  0  0
  -27.6680  -13.1960   19.8830 C   0  0  0  0  0  3  0  0  0  0  0  0
  -28.7020  -12.9070   20.9920 C   0  0  0  0  0  2  0  0  0  0  0  0
  -30.0480  -13.2200   20.4690 N   0  0  0  0  0  0  0  0  0  0  0  0
  -31.7500  -14.6920   20.0650 O   0  0  0  0  0  0  0  0  0  0  0  0
  -30.2010  -15.1610   21.6350 N   0  0  0  0  0  0  0  0  0  0  0  0
  -29.4080  -14.7880   22.1350 H   0  0  0  0  0  0  0  0  0  0  0  0
  -25.2590  -13.8130   20.5650 C   0  0  0  0  0  0  0  0  0  0  0  0
  -24.1830  -13.0440   20.9150 C   0  0  0  0  0  0  0  0  0  0  0  0
  -24.6360  -11.6880   20.8700 C   0  0  0  0  0  0  0  0  0  0  0  0
  -26.3030  -12.9290   20.3360 N   0  0  0  0  0  0  0  0  0  0  0  0
  -25.9290  -11.6450   20.5710 N   0  0  0  0  0  0  0  0  0  0  0  0
  -23.9020  -10.4280   21.0380 C   0  0  0  0  0  0  0  0  0  0  0  0
  -24.3590   -9.4210   21.9170 C   0  0  0  0  0  3  0  0  0  0  0  0
  -23.6280   -8.2250   22.0750 C   0  0  0  0  0  3  0  0  0  0  0  0
  -22.4260   -8.0270   21.3540 C   0  0  0  0  0  0  0  0  0  0  0  0
  -21.9880   -9.0230   20.4640 C   0  0  0  0  0  3  0  0  0  0  0  0
  -22.7200  -10.2120   20.3040 C   0  0  0  0  0  3  0  0  0  0  0  0
  -21.6630   -6.8860   21.4240 O   0  0  0  0  0  0  0  0  0  0  0  0
  -21.6840   -6.0720   22.5280 C   0  0  0  0  0  0  0  0  0  0  0  0
  -21.4020   -6.5630   23.8210 C   0  0  0  0  0  3  0  0  0  0  0  0
  -21.3660   -5.6790   24.9180 C   0  0  0  0  0  3  0  0  0  0  0  0
  -21.6040   -4.3050   24.7230 C   0  0  0  0  0  0  0  0  0  0  0  0
  -21.8820   -3.8140   23.4360 C   0  0  0  0  0  3  0  0  0  0  0  0
  -21.9200   -4.6950   22.3410 C   0  0  0  0  0  0  0  0  0  0  0  0
  -22.1660   -4.2130   21.0980 F   0  0  0  0  0  0  0  0  0  0  0  0
  -21.5630   -3.4540   25.7750 F   0  0  0  0  0  0  0  0  0  0  0  0
  -22.7860  -13.5230   21.1850 C   0  0  0  0  0  0  0  0  0  0  0  0
  -22.0510  -12.8240   22.0400 N   0  0  0  0  0  0  0  0  0  0  0  0
  -22.3540  -14.5550   20.6680 O   0  0  0  0  0  0  0  0  0  0  0  0
  -22.4110  -11.9890   22.4790 H   0  0  0  0  0  0  0  0  0  0  0  0
  -21.1120  -13.1260   22.2620 H   0  0  0  0  0  0  0  0  0  0  0  0
  -25.4370  -15.1850   20.4070 N   0  0  0  0  0  0  0  0  0  0  0  0
  -24.6760  -15.8480   20.5100 H   0  0  0  0  0  0  0  0  0  0  0  0
  -26.2990  -15.6180   20.1000 H   0  0  0  0  0  0  0  0  0  0  0  0
  -31.8830  -21.6560   20.5070 C   0  0  0  0  0  2  0  0  0  0  0  0
  -30.9980  -22.7300   21.0080 N   0  0  0  0  0  4  0  0  0  0  0  0
  -30.3990  -22.3540   21.7280 H   0  0  0  0  0  0  0  0  0  0  0  0
  -31.5870  -23.4230   21.4390 H   0  0  0  0  0  0  0  0  0  0  0  0
  -30.1750  -23.4090   19.9780 C   0  0  0  0  0  2  0  0  0  0  0  0
  -29.5400  -24.6960   20.5450 C   0  0  0  0  0  2  0  0  0  0  0  0
  -28.6080  -25.4540   19.5820 C   0  0  0  0  0  2  0  0  0  0  0  0
  -28.4500  -26.7760   20.1060 O   0  0  0  0  0  0  0  0  0  0  0  0
  -24.6130  -31.8670   23.2090 C   0  0  0  0  0  0  0  0  0  0  0  0
  -27.2400  -27.4420   20.0790 C   0  0  0  0  0  0  0  0  0  0  0  0
  -23.4000  -30.4900   21.5480 C   0  0  0  0  0  3  0  0  0  0  0  0
  -24.8430  -28.9540   20.1100 C   0  0  0  0  0  0  0  0  0  0  0  0
  -25.9280  -30.8290   21.3640 C   0  0  0  0  0  2  0  0  0  0  0  0
  -25.9990  -29.4650   20.7090 C   0  0  0  0  0  0  0  0  0  0  0  0
  -27.1920  -28.7130   20.6970 C   0  0  0  0  0  3  0  0  0  0  0  0
  -26.0640  -26.9450   19.4680 C   0  0  0  0  0  3  0  0  0  0  0  0
  -24.8700  -27.6920   19.4920 C   0  0  0  0  0  3  0  0  0  0  0  0
  -23.6040  -29.8180   20.1620 C   0  0  0  0  0  2  0  0  0  0  0  0
  -24.6650  -31.0760   22.0980 N   0  0  0  0  0  0  0  0  0  0  0  0
  -23.5340  -32.1430   23.7510 O   0  0  0  0  0  0  0  0  0  0  0  0
  -22.7380  -29.4650   22.4970 C   0  0  0  0  0  0  0  0  0  0  0  0
  -21.4130  -29.3020   22.3700 N   0  0  0  0  0  0  0  0  0  0  0  0
  -23.4160  -28.8210   23.3020 O   0  0  0  0  0  0  0  0  0  0  0  0
  -20.9300  -29.8760   21.6950 H   0  0  0  0  0  0  0  0  0  0  0  0
  -18.0280  -28.1340   22.8450 C   0  0  0  0  0  0  0  0  0  0  0  0
  -20.5860  -28.3640   23.1290 C   0  0  0  0  0  3  0  0  0  0  0  0
  -20.6780  -26.9370   22.5400 C   0  0  0  0  0  2  0  0  0  0  0  0
  -19.5780  -26.6350   21.5170 C   0  0  0  0  0  2  0  0  0  0  0  0
  -18.1940  -26.7870   22.1570 C   0  0  0  0  0  2  0  0  0  0  0  0
  -19.1520  -28.8790   23.2860 C   0  0  0  0  0  0  0  0  0  0  0  0
  -18.9470  -30.1410   23.8860 C   0  0  0  0  0  3  0  0  0  0  0  0
  -17.6480  -30.6530   24.0560 C   0  0  0  0  0  3  0  0  0  0  0  0
  -16.5370  -29.9050   23.6310 C   0  0  0  0  0  3  0  0  0  0  0  0
  -16.7270  -28.6470   23.0300 C   0  0  0  0  0  3  0  0  0  0  0  0
  -25.9050  -32.4780   23.8350 C   0  0  0  0  0  3  0  0  0  0  0  0
  -25.5910  -33.8580   24.2300 N   0  0  0  0  0  0  0  0  0  0  0  0
  -25.9040  -34.9440   23.5100 C   0  0  0  0  0  0  0  0  0  0  0  0
  -26.5600  -34.8900   22.4660 O   0  0  0  0  0  0  0  0  0  0  0  0
  -25.0040  -33.9700   25.0440 H   0  0  0  0  0  0  0  0  0  0  0  0
  -24.1500  -36.7340   23.2640 C   0  0  0  0  0  1  0  0  0  0  0  0
  -25.4120  -36.3080   24.0310 C   0  0  0  0  0  3  0  0  0  0  0  0
  -27.5590  -37.1820   24.8460 C   0  0  0  0  0  1  0  0  0  0  0  0
  -26.4300  -37.3760   23.9390 N   0  0  0  0  0  0  0  0  0  0  0  0
  -26.0170  -38.2830   24.1370 H   0  0  0  0  0  0  0  0  0  0  0  0
  -26.4470  -31.6550   25.0670 C   0  0  1  0  0  0  0  0  0  0  0  0
  -25.3750  -31.3670   26.1440 C   0  0  0  0  0  1  0  0  0  0  0  0
  -27.0300  -30.2980   24.6070 C   0  0  0  0  0  1  0  0  0  0  0  0
  -27.6020  -32.4290   25.7440 C   0  0  0  0  0  1  0  0  0  0  0  0
  2  1  1  0
  2  3  1  0
  3  4  1  0
  4  5  1  0
  6  7  1  0
  6  8  2  0
  7  5  1  0
  9  7  1  0
 10  6  1  0
 11 19  1  0
 12 17  1  0
 13 14  1  0
 13 12  1  0
 15 14  1  0
 15 24  1  0
 15 16  1  0
 17 11  1  0
 17 16  1  0
 18 11  2  0
 19 10  1  0
 19 20  1  0
 21 22  2  0
 22 41  1  0
 23 22  1  0
 23 26  1  0
 24 21  1  0
 24 25  1  0
 25 23  2  0
 26 27  1  0
 27 28  2  0
 29 32  1  0
 29 28  1  0
 30 29  2  0
 31 30  1  0
 31 26  2  0
 32 33  1  0
 33 34  1  0
 34 35  2  0
 36 35  1  0
 36 40  1  0
 37 36  2  0
 38 33  2  0
 38 37  1  0
 39 38  1  0
 41 42  1  0
 42 45  1  0
 42 44  1  0
 43 41  2  0
 46 47  1  0
 46 21  1  0
 48 46  1  0
 49 50  1  0
 49  1  1  0
 50 52  1  0
 50 51  1  0
 53 54  1  0
 53 50  1  0
 55 56  1  0
 55 54  1  0
 57 68  2  0
 58 56  1  0
 58 63  1  0
 59 67  1  0
 59 69  1  0
 60 66  1  0
 60 62  1  0
 61 67  1  0
 62 61  1  0
 63 62  2  0
 64 65  1  0
 64 58  2  0
 65 60  2  0
 66 59  1  0
 67 57  1  0
 69 71  2  0
 70 69  1  0
 72 70  1  0
 73 82  2  0
 73 78  1  0
 74 70  1  0
 74 78  1  0
 75 74  1  0
 76 77  1  0
 76 75  1  0
 77 73  1  0
 78 79  2  0
 79 80  1  0
 81 80  2  0
 82 81  1  0
 83 57  1  0
 83 84  1  0
 83 93  1  0
 84 87  1  0
 85 89  1  0
 85 84  1  0
 86 85  2  0
 89 88  1  0
 91 89  1  0
 91 92  1  0
 91 90  1  0
 93 96  1  1
 93 94  1  0
 95 93  1  0
M  ISO  4  11 100  19 100  55 101  56 101
M  END
>  <TORSDO>  (56) 
F 27

>  <SCORE>  (56) 
1.175

>  <name>  (56) 
56

>  <ligand_id>  (56) 
56

>  <original_smiles>  (56) 
[H]c1c([H])c([H])c2c(c1[H])C([H])([H])C([H])([H])C([H])([H])C2([H])N([H])C(=O)C1([H])N(C(=O)C([H])(N([H])C(=O)C([H])(N([H])C([H])([H])[H])C([H])([H])[H])C(C([H])([H])[H])(C([H])([H])[H])C([H])([H])[H])C([H])([H])c2c([H])c(OC([H])([H])C([H])([H])C([H])([H])[N+]([H])([H])C([H])([H])C([H])([H])C([H])([H])C([H])([H])C([H])([H])C([H])([H])N([H])C(=O)C([H])([H])N([H])C(=O)N3C([H])([H])C([H])([H])C([H])([H])C([H])(n4nc(-c5c([H])c([H])c(Oc6c([H])c([H])c(F)c([H])c6F)c([H])c5[H])c(C(=O)N([H])[H])c4N([H])[H])C3([H])[H])c([H])c([H])c2C1([H])[H]

>  <smiles>  (56) 
[H]c1c([H])c([H])c2c(c1[H])C([H])([H])C([H])([H])C([H])([H])C2([H])N([H])C(=O)C1([H])N(C(=O)C([H])(N([H])C(=O)C([H])(N([H])C([H])([H])[H])C([H])([H])[H])C(C([H])([H])[H])(C([H])([H])[H])C([H])([H])[H])C([H])([H])c2c([H])c(OC([H])([H])C([H])([H])C([H])([H])[N+]([H])([H])C([H])([H])C([H])([H])C([H])([H])C([H])([H])C([H])([H])C([H])([H])N([H])C(=O)C([H])([H])N([H])C(=O)N3C([H])([H])C([H])([H])C([H])([H])C([H])(n4nc(-c5c([H])c([H])c(Oc6c([H])c([H])c(F)c([H])c6F)c([H])c5[H])c(C(=O)N([H])[H])c4N([H])[H])C3([H])[H])c([H])c([H])c2C1([H])[H]

$$$$
57:0:0
     RDKit          3D

 97104  0  0  1  0  0  0  0  0999 V2000
  -26.2130  -22.8270   23.1260 C   0  0  0  0  0  2  0  0  0  0  0  0
  -26.6210  -23.8110   24.2410 C   0  0  0  0  0  2  0  0  0  0  0  0
  -28.0470  -24.3820   24.0850 C   0  0  0  0  0  2  0  0  0  0  0  0
  -28.9190  -25.0010   21.8250 C   0  0  0  0  0  0  0  0  0  0  0  0
  -28.6330  -24.1060   22.7750 N   0  0  0  0  0  0  0  0  0  0  0  0
  -28.7470  -26.2130   21.9760 O   0  0  0  0  0  0  0  0  0  0  0  0
  -28.8200  -23.1380   22.5540 H   0  0  0  0  0  0  0  0  0  0  0  0
  -29.4700  -24.4530   20.5020 C   0  0  0  0  0  2  0  0  0  0  0  0
  -30.8220  -24.0490   20.6880 O   0  0  0  0  0  0  0  0  0  0  0  0
  -31.3960  -23.5180   19.5020 C   0  0  0  0  0  2  0  0  0  0  0  0
  -32.7970  -22.9860   19.8290 C   0  0  0  0  0  2  0  0  0  0  0  0
  -33.7650  -20.7390   19.4150 C   0  0  0  0  0  0  0  0  0  0  0  0
  -34.7270  -18.4730   19.4830 C   0  0  0  0  0  2  0  0  0  0  0  0
  -34.4180  -17.6560   18.2180 C   0  0  0  0  0  2  0  0  0  0  0  0
  -33.0620  -16.9440   18.3530 C   0  0  0  0  0  2  0  0  0  0  0  0
  -31.9290  -17.9040   18.7990 C   0  0  0  0  0  3  0  0  0  0  0  0
  -32.3610  -18.7390   20.0240 C   0  0  0  0  0  2  0  0  0  0  0  0
  -33.6310  -19.4250   19.7130 N   0  0  0  0  0  0  0  0  0  0  0  0
  -34.7510  -21.2130   18.8430 O   0  0  0  0  0  0  0  0  0  0  0  0
  -32.8040  -21.5290   19.9040 N   0  0  0  0  0  0  0  0  0  0  0  0
  -32.0380  -21.0830   20.3870 H   0  0  0  0  0  0  0  0  0  0  0  0
  -29.3720  -17.5840   18.8780 C   0  0  0  0  0  0  0  0  0  0  0  0
  -28.5960  -16.5040   19.2100 C   0  0  0  0  0  0  0  0  0  0  0  0
  -29.5030  -15.4670   19.5810 C   0  0  0  0  0  0  0  0  0  0  0  0
  -30.6870  -17.1760   19.0580 N   0  0  0  0  0  0  0  0  0  0  0  0
  -30.7530  -15.9070   19.5380 N   0  0  0  0  0  0  0  0  0  0  0  0
  -29.2560  -14.0580   19.9220 C   0  0  0  0  0  0  0  0  0  0  0  0
  -29.0830  -13.6410   21.2610 C   0  0  0  0  0  3  0  0  0  0  0  0
  -28.8290  -12.2850   21.5610 C   0  0  0  0  0  3  0  0  0  0  0  0
  -28.7450  -11.3320   20.5190 C   0  0  0  0  0  0  0  0  0  0  0  0
  -28.9420  -11.7500   19.1900 C   0  0  0  0  0  3  0  0  0  0  0  0
  -29.1990  -13.0980   18.8940 C   0  0  0  0  0  3  0  0  0  0  0  0
  -28.5270   -9.9900   20.7150 O   0  0  0  0  0  0  0  0  0  0  0  0
  -27.3250   -9.5170   21.1770 C   0  0  0  0  0  0  0  0  0  0  0  0
  -26.1400   -9.6230   20.4160 C   0  0  0  0  0  3  0  0  0  0  0  0
  -24.9410   -9.0600   20.8960 C   0  0  0  0  0  3  0  0  0  0  0  0
  -24.9250   -8.3830   22.1300 C   0  0  0  0  0  0  0  0  0  0  0  0
  -26.1050   -8.2710   22.8870 C   0  0  0  0  0  3  0  0  0  0  0  0
  -27.3020   -8.8330   22.4100 C   0  0  0  0  0  0  0  0  0  0  0  0
  -28.4390   -8.7030   23.1330 F   0  0  0  0  0  0  0  0  0  0  0  0
  -23.7760   -7.8360   22.5880 F   0  0  0  0  0  0  0  0  0  0  0  0
  -27.1020  -16.4100   19.0950 C   0  0  0  0  0  0  0  0  0  0  0  0
  -26.4750  -15.5830   19.9240 N   0  0  0  0  0  0  0  0  0  0  0  0
  -26.4760  -17.1060   18.2970 O   0  0  0  0  0  0  0  0  0  0  0  0
  -26.9840  -15.0280   20.5940 H   0  0  0  0  0  0  0  0  0  0  0  0
  -25.4680  -15.5070   19.8890 H   0  0  0  0  0  0  0  0  0  0  0  0
  -29.0760  -18.8640   18.4230 N   0  0  0  0  0  0  0  0  0  0  0  0
  -28.1270  -19.1660   18.2360 H   0  0  0  0  0  0  0  0  0  0  0  0
  -29.7680  -19.5630   18.1840 H   0  0  0  0  0  0  0  0  0  0  0  0
  -24.7940  -23.0410   22.5750 C   0  0  0  0  0  2  0  0  0  0  0  0
  -24.7420  -22.7160   21.1350 N   0  0  0  0  0  4  0  0  0  0  0  0
  -23.7820  -22.7880   20.8340 H   0  0  0  0  0  0  0  0  0  0  0  0
  -25.0150  -21.7540   21.0120 H   0  0  0  0  0  0  0  0  0  0  0  0
  -25.5500  -23.6000   20.2660 C   0  0  0  0  0  2  0  0  0  0  0  0
  -26.0850  -22.8810   19.0130 C   0  0  0  0  0  2  0  0  0  0  0  0
  -26.8900  -23.8110   18.0770 C   0  0  0  0  0  2  0  0  0  0  0  0
  -26.0350  -24.5260   17.1890 O   0  0  0  0  0  0  0  0  0  0  0  0
  -23.8080  -28.6320   22.5750 C   0  0  0  0  0  0  0  0  0  0  0  0
  -25.0130  -25.2190   17.7860 C   0  0  0  0  0  0  0  0  0  0  0  0
  -22.0510  -27.7770   21.0560 C   0  0  0  0  0  3  0  0  0  0  0  0
  -22.8810  -26.6700   18.9130 C   0  0  0  0  0  0  0  0  0  0  0  0
  -24.4440  -28.1200   20.2240 C   0  0  0  0  0  2  0  0  0  0  0  0
  -24.2040  -26.9810   19.2590 C   0  0  0  0  0  0  0  0  0  0  0  0
  -25.2760  -26.2510   18.7080 C   0  0  0  0  0  3  0  0  0  0  0  0
  -23.6810  -24.9250   17.4300 C   0  0  0  0  0  3  0  0  0  0  0  0
  -22.6110  -25.6350   18.0020 C   0  0  0  0  0  3  0  0  0  0  0  0
  -21.7950  -27.5080   19.5480 C   0  0  0  0  0  2  0  0  0  0  0  0
  -23.4690  -28.1760   21.3360 N   0  0  0  0  0  0  0  0  0  0  0  0
  -22.9560  -28.7610   23.4630 O   0  0  0  0  0  0  0  0  0  0  0  0
  -21.5900  -26.5420   21.8610 C   0  0  0  0  0  0  0  0  0  0  0  0
  -20.3030  -26.1860   21.7240 N   0  0  0  0  0  0  0  0  0  0  0  0
  -22.3890  -25.9080   22.5560 O   0  0  0  0  0  0  0  0  0  0  0  0
  -19.7160  -26.7530   21.1290 H   0  0  0  0  0  0  0  0  0  0  0  0
  -17.2800  -24.2090   21.7730 C   0  0  0  0  0  0  0  0  0  0  0  0
  -19.6580  -25.0380   22.3570 C   0  0  0  0  0  3  0  0  0  0  0  0
  -20.1630  -23.7110   21.7480 C   0  0  0  0  0  2  0  0  0  0  0  0
  -19.2880  -23.2010   20.5990 C   0  0  0  0  0  2  0  0  0  0  0  0
  -17.8470  -22.9840   21.0740 C   0  0  0  0  0  2  0  0  0  0  0  0
  -18.1310  -25.1810   22.3610 C   0  0  0  0  0  0  0  0  0  0  0  0
  -17.5550  -26.3190   22.9660 C   0  0  0  0  0  3  0  0  0  0  0  0
  -16.1590  -26.4930   22.9900 C   0  0  0  0  0  3  0  0  0  0  0  0
  -15.3200  -25.5200   22.4180 C   0  0  0  0  0  3  0  0  0  0  0  0
  -15.8800  -24.3790   21.8160 C   0  0  0  0  0  3  0  0  0  0  0  0
  -25.2750  -29.0250   22.9260 C   0  0  0  0  0  3  0  0  0  0  0  0
  -25.2390  -30.3640   23.5270 N   0  0  0  0  0  0  0  0  0  0  0  0
  -25.6290  -31.4860   22.9090 C   0  0  0  0  0  0  0  0  0  0  0  0
  -26.1330  -31.4900   21.7820 O   0  0  0  0  0  0  0  0  0  0  0  0
  -24.7930  -30.4420   24.4300 H   0  0  0  0  0  0  0  0  0  0  0  0
  -24.2330  -33.5700   23.0540 C   0  0  0  0  0  1  0  0  0  0  0  0
  -25.4300  -32.8180   23.6560 C   0  0  0  0  0  3  0  0  0  0  0  0
  -27.7310  -33.1650   24.4390 C   0  0  0  0  0  1  0  0  0  0  0  0
  -26.6280  -33.6870   23.6360 N   0  0  0  0  0  0  0  0  0  0  0  0
  -26.4060  -34.6200   23.9720 H   0  0  0  0  0  0  0  0  0  0  0  0
  -25.9820  -27.9970   23.8910 C   0  0  1  0  0  0  0  0  0  0  0  0
  -25.1600  -27.6670   25.1600 C   0  0  0  0  0  1  0  0  0  0  0  0
  -26.2690  -26.6680   23.1560 C   0  0  0  0  0  1  0  0  0  0  0  0
  -27.3560  -28.5570   24.3380 C   0  0  0  0  0  1  0  0  0  0  0  0
  1  2  1  0
  3  2  1  0
  4  6  2  0
  4  5  1  0
  5  3  1  0
  7  5  1  0
  8  9  1  0
  8  4  1  0
 10 11  1  0
 10  9  1  0
 11 20  1  0
 12 18  1  0
 12 20  1  0
 13 18  1  0
 14 15  1  0
 14 13  1  0
 16 15  1  0
 16 25  1  0
 16 17  1  0
 18 17  1  0
 19 12  2  0
 20 21  1  0
 22 25  1  0
 22 23  2  0
 23 24  1  0
 24 27  1  0
 25 26  1  0
 26 24  2  0
 27 28  1  0
 28 29  2  0
 30 33  1  0
 30 29  1  0
 31 30  2  0
 32 31  1  0
 32 27  2  0
 33 34  1  0
 34 39  1  0
 35 36  1  0
 35 34  2  0
 36 37  2  0
 37 41  1  0
 37 38  1  0
 39 38  2  0
 39 40  1  0
 42 23  1  0
 42 43  1  0
 43 45  1  0
 44 42  2  0
 46 43  1  0
 47 22  1  0
 48 47  1  0
 49 47  1  0
 50  1  1  0
 51 50  1  0
 52 51  1  0
 53 51  1  0
 54 51  1  0
 55 54  1  0
 56 55  1  0
 57 59  1  0
 57 56  1  0
 58 69  2  0
 59 64  1  0
 60 68  1  0
 60 70  1  0
 61 63  1  0
 61 67  1  0
 62 68  1  0
 63 62  1  0
 64 63  2  0
 65 59  2  0
 65 66  1  0
 66 61  2  0
 67 60  1  0
 68 58  1  0
 70 72  2  0
 71 70  1  0
 73 71  1  0
 74 83  2  0
 74 79  1  0
 75 71  1  0
 75 79  1  0
 76 75  1  0
 77 78  1  0
 77 76  1  0
 78 74  1  0
 79 80  2  0
 80 81  1  0
 82 81  2  0
 83 82  1  0
 84 58  1  0
 84 85  1  0
 84 94  1  0
 85 88  1  0
 86 85  1  0
 86 90  1  0
 87 86  2  0
 90 89  1  0
 92 90  1  0
 92 93  1  0
 92 91  1  0
 94 97  1  1
 94 95  1  0
 96 94  1  0
M  ISO  4  12 100  20 100  56 101  57 101
M  END
>  <TORSDO>  (57) 
F 28

>  <SCORE>  (57) 
3.922

>  <name>  (57) 
57

>  <ligand_id>  (57) 
57

>  <original_smiles>  (57) 
[H]c1c([H])c([H])c2c(c1[H])C([H])([H])C([H])([H])C([H])([H])C2([H])N([H])C(=O)C1([H])N(C(=O)C([H])(N([H])C(=O)C([H])(N([H])C([H])([H])[H])C([H])([H])[H])C(C([H])([H])[H])(C([H])([H])[H])C([H])([H])[H])C([H])([H])c2c([H])c(OC([H])([H])C([H])([H])C([H])([H])[N+]([H])([H])C([H])([H])C([H])([H])C([H])([H])C([H])([H])N([H])C(=O)C([H])([H])OC([H])([H])C([H])([H])N([H])C(=O)N3C([H])([H])C([H])([H])C([H])([H])C([H])(n4nc(-c5c([H])c([H])c(Oc6c([H])c([H])c(F)c([H])c6F)c([H])c5[H])c(C(=O)N([H])[H])c4N([H])[H])C3([H])[H])c([H])c([H])c2C1([H])[H]

>  <smiles>  (57) 
[H]c1c([H])c([H])c2c(c1[H])C([H])([H])C([H])([H])C([H])([H])C2([H])N([H])C(=O)C1([H])N(C(=O)C([H])(N([H])C(=O)C([H])(N([H])C([H])([H])[H])C([H])([H])[H])C(C([H])([H])[H])(C([H])([H])[H])C([H])([H])[H])C([H])([H])c2c([H])c(OC([H])([H])C([H])([H])C([H])([H])[N+]([H])([H])C([H])([H])C([H])([H])C([H])([H])C([H])([H])N([H])C(=O)C([H])([H])OC([H])([H])C([H])([H])N([H])C(=O)N3C([H])([H])C([H])([H])C([H])([H])C([H])(n4nc(-c5c([H])c([H])c(Oc6c([H])c([H])c(F)c([H])c6F)c([H])c5[H])c(C(=O)N([H])[H])c4N([H])[H])C3([H])[H])c([H])c([H])c2C1([H])[H]

$$$$
58:0:0
     RDKit          3D

 99106  0  0  1  0  0  0  0  0999 V2000
  -28.5040  -23.1210   14.5490 N   0  0  0  0  0  4  0  0  0  0  0  0
  -28.1930  -23.8090   15.2210 H   0  0  0  0  0  0  0  0  0  0  0  0
  -27.7240  -22.8910   13.9530 H   0  0  0  0  0  0  0  0  0  0  0  0
  -29.5730  -23.8200   13.7960 C   0  0  0  0  0  2  0  0  0  0  0  0
  -29.7880  -25.2160   14.3980 C   0  0  0  0  0  2  0  0  0  0  0  0
  -29.6070  -25.0740   15.8030 O   0  0  0  0  0  0  0  0  0  0  0  0
  -29.7980  -26.2620   16.5520 C   0  0  0  0  0  2  0  0  0  0  0  0
  -29.0570  -26.0420   17.8760 C   0  0  0  0  0  2  0  0  0  0  0  0
  -29.2470  -27.1750   18.8900 C   0  0  0  0  0  2  0  0  0  0  0  0
  -28.4690  -26.9050   20.0540 O   0  0  0  0  0  0  0  0  0  0  0  0
  -24.5870  -31.9500   23.2190 C   0  0  0  0  0  0  0  0  0  0  0  0
  -27.2840  -27.5920   20.0990 C   0  0  0  0  0  0  0  0  0  0  0  0
  -23.3940  -30.5490   21.5610 C   0  0  0  0  0  3  0  0  0  0  0  0
  -24.8660  -29.0330   20.1340 C   0  0  0  0  0  0  0  0  0  0  0  0
  -25.9120  -30.9420   21.3680 C   0  0  0  0  0  2  0  0  0  0  0  0
  -26.0120  -29.5750   20.7270 C   0  0  0  0  0  0  0  0  0  0  0  0
  -27.2260  -28.8570   20.7150 C   0  0  0  0  0  3  0  0  0  0  0  0
  -26.1200  -27.0400   19.5260 C   0  0  0  0  0  3  0  0  0  0  0  0
  -24.9110  -27.7610   19.5360 C   0  0  0  0  0  3  0  0  0  0  0  0
  -23.6120  -29.8780   20.1790 C   0  0  0  0  0  2  0  0  0  0  0  0
  -24.6480  -31.1610   22.1090 N   0  0  0  0  0  0  0  0  0  0  0  0
  -23.5040  -32.2090   23.7610 O   0  0  0  0  0  0  0  0  0  0  0  0
  -22.7510  -29.5160   22.5130 C   0  0  0  0  0  0  0  0  0  0  0  0
  -21.4290  -29.3260   22.3830 N   0  0  0  0  0  0  0  0  0  0  0  0
  -23.4390  -28.8870   23.3210 O   0  0  0  0  0  0  0  0  0  0  0  0
  -20.9360  -29.8870   21.7020 H   0  0  0  0  0  0  0  0  0  0  0  0
  -18.0630  -28.1090   22.8610 C   0  0  0  0  0  0  0  0  0  0  0  0
  -20.6170  -28.3780   23.1440 C   0  0  0  0  0  3  0  0  0  0  0  0
  -20.7300  -26.9510   22.5570 C   0  0  0  0  0  2  0  0  0  0  0  0
  -19.6340  -26.6320   21.5360 C   0  0  0  0  0  2  0  0  0  0  0  0
  -18.2490  -26.7650   22.1750 C   0  0  0  0  0  2  0  0  0  0  0  0
  -19.1750  -28.8730   23.3000 C   0  0  0  0  0  0  0  0  0  0  0  0
  -18.9480  -30.1320   23.8970 C   0  0  0  0  0  3  0  0  0  0  0  0
  -17.6400  -30.6260   24.0600 C   0  0  0  0  0  3  0  0  0  0  0  0
  -16.5410  -29.8580   23.6350 C   0  0  0  0  0  3  0  0  0  0  0  0
  -16.7550  -28.6020   23.0420 C   0  0  0  0  0  3  0  0  0  0  0  0
  -25.8690  -32.5830   23.8450 C   0  0  0  0  0  3  0  0  0  0  0  0
  -25.5520  -33.9740   24.1920 N   0  0  0  0  0  0  0  0  0  0  0  0
  -25.8790  -35.0360   23.4430 C   0  0  0  0  0  0  0  0  0  0  0  0
  -26.5530  -34.9490   22.4140 O   0  0  0  0  0  0  0  0  0  0  0  0
  -24.9520  -34.1160   24.9920 H   0  0  0  0  0  0  0  0  0  0  0  0
  -24.1400  -36.8180   23.0960 C   0  0  0  0  0  1  0  0  0  0  0  0
  -25.3770  -36.4140   23.9140 C   0  0  0  0  0  3  0  0  0  0  0  0
  -27.4990  -37.3010   24.7710 C   0  0  0  0  0  1  0  0  0  0  0  0
  -26.4020  -37.4760   23.8250 N   0  0  0  0  0  0  0  0  0  0  0  0
  -25.9880  -38.3900   23.9850 H   0  0  0  0  0  0  0  0  0  0  0  0
  -26.4000  -31.7980   25.1080 C   0  0  1  0  0  0  0  0  0  0  0  0
  -25.3130  -31.5340   26.1760 C   0  0  0  0  0  1  0  0  0  0  0  0
  -26.9950  -30.4320   24.6900 C   0  0  0  0  0  1  0  0  0  0  0  0
  -27.5470  -32.5930   25.7760 C   0  0  0  0  0  1  0  0  0  0  0  0
  -28.9350  -21.9400   15.3280 C   0  0  0  0  0  2  0  0  0  0  0  0
  -28.1720  -21.8430   16.6620 C   0  0  0  0  0  2  0  0  0  0  0  0
  -28.5310  -20.5890   17.4790 C   0  0  0  0  0  2  0  0  0  0  0  0
  -27.9640  -20.6340   18.9130 C   0  0  0  0  0  2  0  0  0  0  0  0
  -28.1260  -19.3180   19.7040 C   0  0  0  0  0  2  0  0  0  0  0  0
  -29.5460  -18.9550   19.9120 N   0  0  0  0  0  4  0  0  0  0  0  0
  -30.0070  -19.7100   20.3940 H   0  0  0  0  0  0  0  0  0  0  0  0
  -29.9810  -18.8460   19.0120 H   0  0  0  0  0  0  0  0  0  0  0  0
  -29.7500  -17.7090   20.6810 C   0  0  0  0  0  2  0  0  0  0  0  0
  -31.2380  -17.3040   20.7270 C   0  0  0  0  0  2  0  0  0  0  0  0
  -31.5390  -16.0750   21.6090 C   0  0  0  0  0  2  0  0  0  0  0  0
  -31.2890  -14.0070   20.2220 C   0  0  0  0  0  0  0  0  0  0  0  0
  -30.7460  -11.9720   18.9390 C   0  0  0  0  0  2  0  0  0  0  0  0
  -29.8060  -12.2970   17.7630 C   0  0  0  0  0  2  0  0  0  0  0  0
  -28.3320  -12.2800   18.2160 C   0  0  0  0  0  2  0  0  0  0  0  0
  -28.0950  -13.1150   19.5000 C   0  0  0  0  0  3  0  0  0  0  0  0
  -29.1320  -12.7510   20.5850 C   0  0  0  0  0  2  0  0  0  0  0  0
  -30.4820  -12.9360   20.0170 N   0  0  0  0  0  0  0  0  0  0  0  0
  -32.3350  -14.2060   19.5980 O   0  0  0  0  0  0  0  0  0  0  0  0
  -30.8590  -14.8600   21.1610 N   0  0  0  0  0  0  0  0  0  0  0  0
  -30.0110  -14.5990   21.6440 H   0  0  0  0  0  0  0  0  0  0  0  0
  -25.7520  -13.9280   20.1990 C   0  0  0  0  0  0  0  0  0  0  0  0
  -24.6310  -13.2500   20.5990 C   0  0  0  0  0  0  0  0  0  0  0  0
  -24.9870  -11.8670   20.6030 C   0  0  0  0  0  0  0  0  0  0  0  0
  -26.7260  -12.9630   19.9900 N   0  0  0  0  0  0  0  0  0  0  0  0
  -26.2670  -11.7200   20.2860 N   0  0  0  0  0  0  0  0  0  0  0  0
  -24.1700  -10.6700   20.8330 C   0  0  0  0  0  0  0  0  0  0  0  0
  -24.5320   -9.7020   21.7950 C   0  0  0  0  0  3  0  0  0  0  0  0
  -23.7190   -8.5670   22.0100 C   0  0  0  0  0  3  0  0  0  0  0  0
  -22.5280   -8.3950   21.2650 C   0  0  0  0  0  0  0  0  0  0  0  0
  -22.1840   -9.3520   20.2930 C   0  0  0  0  0  3  0  0  0  0  0  0
  -22.9970  -10.4760   20.0760 C   0  0  0  0  0  3  0  0  0  0  0  0
  -21.6910   -7.3130   21.3880 O   0  0  0  0  0  0  0  0  0  0  0  0
  -21.5850   -6.6170   22.5660 C   0  0  0  0  0  0  0  0  0  0  0  0
  -21.2120   -7.2460   23.7730 C   0  0  0  0  0  3  0  0  0  0  0  0
  -21.0460   -6.4800   24.9450 C   0  0  0  0  0  3  0  0  0  0  0  0
  -21.2430   -5.0880   24.9100 C   0  0  0  0  0  0  0  0  0  0  0  0
  -21.6090   -4.4580   23.7070 C   0  0  0  0  0  3  0  0  0  0  0  0
  -21.7760   -5.2210   22.5370 C   0  0  0  0  0  0  0  0  0  0  0  0
  -22.1070   -4.6060   21.3760 F   0  0  0  0  0  0  0  0  0  0  0  0
  -21.0770   -4.3500   26.0320 F   0  0  0  0  0  0  0  0  0  0  0  0
  -23.2770  -13.8410   20.8680 C   0  0  0  0  0  0  0  0  0  0  0  0
  -22.5100  -13.2310   21.7650 N   0  0  0  0  0  0  0  0  0  0  0  0
  -22.9110  -14.8790   20.3190 O   0  0  0  0  0  0  0  0  0  0  0  0
  -22.8200  -12.3900   22.2300 H   0  0  0  0  0  0  0  0  0  0  0  0
  -21.6010  -13.6090   21.9900 H   0  0  0  0  0  0  0  0  0  0  0  0
  -26.0200  -15.2760   19.9810 N   0  0  0  0  0  0  0  0  0  0  0  0
  -25.2990  -15.9860   20.0600 H   0  0  0  0  0  0  0  0  0  0  0  0
  -26.8900  -15.6290   19.6080 H   0  0  0  0  0  0  0  0  0  0  0  0
  1  2  1  0
  1 51  1  0
  3  1  1  0
  4  5  1  0
  4  1  1  0
  5  6  1  0
  6  7  1  0
  7  8  1  0
  8  9  1  0
  9 10  1  0
 10 12  1  0
 11 22  2  0
 12 17  1  0
 13 21  1  0
 13 23  1  0
 14 20  1  0
 14 16  1  0
 15 21  1  0
 16 15  1  0
 17 16  2  0
 18 19  1  0
 18 12  2  0
 19 14  2  0
 20 13  1  0
 21 11  1  0
 23 25  2  0
 24 23  1  0
 26 24  1  0
 27 36  2  0
 27 32  1  0
 28 24  1  0
 28 32  1  0
 29 28  1  0
 30 31  1  0
 30 29  1  0
 31 27  1  0
 32 33  2  0
 33 34  1  0
 35 34  2  0
 36 35  1  0
 37 11  1  0
 37 38  1  0
 37 47  1  0
 38 41  1  0
 39 43  1  0
 39 38  1  0
 40 39  2  0
 43 42  1  0
 45 43  1  0
 45 46  1  0
 45 44  1  0
 47 50  1  1
 47 48  1  0
 49 47  1  0
 51 52  1  0
 52 53  1  0
 53 54  1  0
 54 55  1  0
 55 56  1  0
 56 57  1  0
 56 59  1  0
 58 56  1  0
 59 60  1  0
 60 61  1  0
 62 70  1  0
 63 68  1  0
 64 65  1  0
 64 63  1  0
 66 65  1  0
 66 75  1  0
 66 67  1  0
 68 62  1  0
 68 67  1  0
 69 62  2  0
 70 61  1  0
 70 71  1  0
 72 73  2  0
 73 74  1  0
 73 92  1  0
 74 77  1  0
 75 72  1  0
 75 76  1  0
 76 74  2  0
 77 78  1  0
 78 79  2  0
 80 83  1  0
 80 79  1  0
 81 80  2  0
 82 81  1  0
 82 77  2  0
 83 84  1  0
 84 85  1  0
 85 86  2  0
 87 86  1  0
 87 91  1  0
 88 87  2  0
 89 84  2  0
 89 88  1  0
 90 89  1  0
 92 93  1  0
 93 96  1  0
 93 95  1  0
 94 92  2  0
 97 98  1  0
 97 72  1  0
 99 97  1  0
M  ISO  4   9 101  10 101  62 100  70 100
M  END
>  <TORSDO>  (58) 
F 31

>  <SCORE>  (58) 
-7.787

>  <name>  (58) 
58

>  <ligand_id>  (58) 
58

>  <original_smiles>  (58) 
[H]c1c([H])c([H])c2c(c1[H])C([H])([H])C([H])([H])C([H])([H])C2([H])N([H])C(=O)C1([H])N(C(=O)C([H])(N([H])C(=O)C([H])(N([H])C([H])([H])[H])C([H])([H])[H])C(C([H])([H])[H])(C([H])([H])[H])C([H])([H])[H])C([H])([H])c2c([H])c(OC([H])([H])C([H])([H])C([H])([H])OC([H])([H])C([H])([H])[N+]([H])([H])C([H])([H])C([H])([H])C([H])([H])C([H])([H])C([H])([H])[N+]([H])([H])C([H])([H])C([H])([H])C([H])([H])N([H])C(=O)N3C([H])([H])C([H])([H])C([H])([H])C([H])(n4nc(-c5c([H])c([H])c(Oc6c([H])c([H])c(F)c([H])c6F)c([H])c5[H])c(C(=O)N([H])[H])c4N([H])[H])C3([H])[H])c([H])c([H])c2C1([H])[H]

>  <smiles>  (58) 
[H]c1c([H])c([H])c2c(c1[H])C([H])([H])C([H])([H])C([H])([H])C2([H])N([H])C(=O)C1([H])N(C(=O)C([H])(N([H])C(=O)C([H])(N([H])C([H])([H])[H])C([H])([H])[H])C(C([H])([H])[H])(C([H])([H])[H])C([H])([H])[H])C([H])([H])c2c([H])c(OC([H])([H])C([H])([H])C([H])([H])OC([H])([H])C([H])([H])[N+]([H])([H])C([H])([H])C([H])([H])C([H])([H])C([H])([H])C([H])([H])[N+]([H])([H])C([H])([H])C([H])([H])C([H])([H])N([H])C(=O)N3C([H])([H])C([H])([H])C([H])([H])C([H])(n4nc(-c5c([H])c([H])c(Oc6c([H])c([H])c(F)c([H])c6F)c([H])c5[H])c(C(=O)N([H])[H])c4N([H])[H])C3([H])[H])c([H])c([H])c2C1([H])[H]

$$$$
59:0:0
     RDKit          3D

 97104  0  0  1  0  0  0  0  0999 V2000
  -25.9100  -23.2920   16.3640 C   0  0  0  0  0  2  0  0  0  0  0  0
  -26.2150  -24.7950   16.2170 C   0  0  0  0  0  2  0  0  0  0  0  0
  -27.6520  -25.0460   15.9570 N   0  0  0  0  0  4  0  0  0  0  0  0
  -27.7370  -25.2750   14.9800 H   0  0  0  0  0  0  0  0  0  0  0  0
  -28.1840  -24.2070   16.1080 H   0  0  0  0  0  0  0  0  0  0  0  0
  -28.2540  -26.1500   16.7330 C   0  0  0  0  0  2  0  0  0  0  0  0
  -28.7650  -25.6790   18.1060 C   0  0  0  0  0  2  0  0  0  0  0  0
  -29.1440  -26.8360   19.0440 C   0  0  0  0  0  2  0  0  0  0  0  0
  -28.3820  -26.7760   20.2470 O   0  0  0  0  0  0  0  0  0  0  0  0
  -24.5920  -31.9400   23.2870 C   0  0  0  0  0  0  0  0  0  0  0  0
  -27.2150  -27.4950   20.2320 C   0  0  0  0  0  0  0  0  0  0  0  0
  -23.3700  -30.5310   21.6560 C   0  0  0  0  0  3  0  0  0  0  0  0
  -24.8150  -28.9720   20.2440 C   0  0  0  0  0  0  0  0  0  0  0  0
  -25.8920  -30.8820   21.4510 C   0  0  0  0  0  2  0  0  0  0  0  0
  -25.9730  -29.5100   20.8210 C   0  0  0  0  0  0  0  0  0  0  0  0
  -27.1760  -28.7760   20.8150 C   0  0  0  0  0  3  0  0  0  0  0  0
  -26.0400  -26.9500   19.6790 C   0  0  0  0  0  3  0  0  0  0  0  0
  -24.8380  -27.6850   19.6770 C   0  0  0  0  0  3  0  0  0  0  0  0
  -23.5710  -29.8320   20.2840 C   0  0  0  0  0  2  0  0  0  0  0  0
  -24.6350  -31.1290   22.1920 N   0  0  0  0  0  0  0  0  0  0  0  0
  -23.5150  -32.2240   23.8270 O   0  0  0  0  0  0  0  0  0  0  0  0
  -22.7120  -29.5260   22.6290 C   0  0  0  0  0  0  0  0  0  0  0  0
  -21.3880  -29.3510   22.5010 N   0  0  0  0  0  0  0  0  0  0  0  0
  -23.3930  -28.9040   23.4480 O   0  0  0  0  0  0  0  0  0  0  0  0
  -20.9050  -29.9110   21.8130 H   0  0  0  0  0  0  0  0  0  0  0  0
  -18.0080  -28.1730   22.9900 C   0  0  0  0  0  0  0  0  0  0  0  0
  -20.5660  -28.4250   23.2770 C   0  0  0  0  0  3  0  0  0  0  0  0
  -20.6680  -26.9870   22.7230 C   0  0  0  0  0  2  0  0  0  0  0  0
  -19.5720  -26.6540   21.7040 C   0  0  0  0  0  2  0  0  0  0  0  0
  -18.1890  -26.8140   22.3370 C   0  0  0  0  0  2  0  0  0  0  0  0
  -19.1270  -28.9350   23.4190 C   0  0  0  0  0  0  0  0  0  0  0  0
  -18.9110  -30.2080   23.9890 C   0  0  0  0  0  3  0  0  0  0  0  0
  -17.6100  -30.7210   24.1370 C   0  0  0  0  0  3  0  0  0  0  0  0
  -16.5040  -29.9540   23.7340 C   0  0  0  0  0  3  0  0  0  0  0  0
  -16.7040  -28.6830   23.1630 C   0  0  0  0  0  3  0  0  0  0  0  0
  -25.8870  -32.5630   23.8960 C   0  0  0  0  0  3  0  0  0  0  0  0
  -25.6010  -33.9690   24.2040 N   0  0  0  0  0  0  0  0  0  0  0  0
  -25.9520  -35.0020   23.4280 C   0  0  0  0  0  0  0  0  0  0  0  0
  -26.6260  -34.8730   22.4020 O   0  0  0  0  0  0  0  0  0  0  0  0
  -25.0110  -34.1460   25.0020 H   0  0  0  0  0  0  0  0  0  0  0  0
  -24.2500  -36.8120   23.0390 C   0  0  0  0  0  1  0  0  0  0  0  0
  -25.4800  -36.4010   23.8630 C   0  0  0  0  0  3  0  0  0  0  0  0
  -27.6230  -37.2680   24.6920 C   0  0  0  0  0  1  0  0  0  0  0  0
  -26.5260  -37.4400   23.7450 N   0  0  0  0  0  0  0  0  0  0  0  0
  -26.1310  -38.3670   23.8830 H   0  0  0  0  0  0  0  0  0  0  0  0
  -26.3980  -31.8030   25.1820 C   0  0  1  0  0  0  0  0  0  0  0  0
  -25.3080  -31.5910   26.2590 C   0  0  0  0  0  1  0  0  0  0  0  0
  -26.9700  -30.4160   24.8060 C   0  0  0  0  0  1  0  0  0  0  0  0
  -27.5580  -32.5940   25.8330 C   0  0  0  0  0  1  0  0  0  0  0  0
  -26.3470  -22.6870   17.7180 C   0  0  0  0  0  2  0  0  0  0  0  0
  -26.4200  -21.1480   17.7080 C   0  0  0  0  0  2  0  0  0  0  0  0
  -26.8360  -20.5750   19.0770 C   0  0  0  0  0  2  0  0  0  0  0  0
  -27.3940  -19.1410   19.0080 C   0  0  0  0  0  2  0  0  0  0  0  0
  -27.9860  -18.7230   20.3020 N   0  0  0  0  0  4  0  0  0  0  0  0
  -27.2530  -18.4030   20.9170 H   0  0  0  0  0  0  0  0  0  0  0  0
  -28.4060  -19.5340   20.7290 H   0  0  0  0  0  0  0  0  0  0  0  0
  -29.0360  -17.6870   20.1840 C   0  0  0  0  0  2  0  0  0  0  0  0
  -29.7820  -17.4430   21.5140 C   0  0  0  0  0  2  0  0  0  0  0  0
  -30.9670  -16.4620   21.3790 C   0  0  0  0  0  2  0  0  0  0  0  0
  -31.0540  -14.2440   20.1990 C   0  0  0  0  0  0  0  0  0  0  0  0
  -30.6300  -12.1520   18.9540 C   0  0  0  0  0  2  0  0  0  0  0  0
  -29.6520  -12.4160   17.7890 C   0  0  0  0  0  2  0  0  0  0  0  0
  -28.1860  -12.3440   18.2600 C   0  0  0  0  0  2  0  0  0  0  0  0
  -27.9350  -13.1840   19.5390 C   0  0  0  0  0  3  0  0  0  0  0  0
  -28.9990  -12.8480   20.6060 C   0  0  0  0  0  2  0  0  0  0  0  0
  -30.3280  -13.1100   20.0240 N   0  0  0  0  0  0  0  0  0  0  0  0
  -32.1020  -14.4870   19.5880 O   0  0  0  0  0  0  0  0  0  0  0  0
  -30.5100  -15.1090   21.0710 N   0  0  0  0  0  0  0  0  0  0  0  0
  -29.6760  -14.7880   21.5420 H   0  0  0  0  0  0  0  0  0  0  0  0
  -25.5920  -13.9410   20.2940 C   0  0  0  0  0  0  0  0  0  0  0  0
  -24.4890  -13.2330   20.6990 C   0  0  0  0  0  0  0  0  0  0  0  0
  -24.8700  -11.8570   20.6560 C   0  0  0  0  0  0  0  0  0  0  0  0
  -26.5770  -12.9980   20.0450 N   0  0  0  0  0  0  0  0  0  0  0  0
  -26.1470  -11.7410   20.3160 N   0  0  0  0  0  0  0  0  0  0  0  0
  -24.0760  -10.6400   20.8700 C   0  0  0  0  0  0  0  0  0  0  0  0
  -24.4710   -9.6620   21.8090 C   0  0  0  0  0  3  0  0  0  0  0  0
  -23.6860   -8.5060   22.0100 C   0  0  0  0  0  3  0  0  0  0  0  0
  -22.4920   -8.3220   21.2720 C   0  0  0  0  0  0  0  0  0  0  0  0
  -22.1160   -9.2890   20.3220 C   0  0  0  0  0  3  0  0  0  0  0  0
  -22.9010  -10.4370   20.1200 C   0  0  0  0  0  3  0  0  0  0  0  0
  -21.6800   -7.2200   21.3820 O   0  0  0  0  0  0  0  0  0  0  0  0
  -21.5880   -6.5110   22.5530 C   0  0  0  0  0  0  0  0  0  0  0  0
  -21.2030   -7.1200   23.7680 C   0  0  0  0  0  3  0  0  0  0  0  0
  -21.0540   -6.3370   24.9310 C   0  0  0  0  0  3  0  0  0  0  0  0
  -21.2800   -4.9490   24.8790 C   0  0  0  0  0  0  0  0  0  0  0  0
  -21.6570   -4.3400   23.6700 C   0  0  0  0  0  3  0  0  0  0  0  0
  -21.8090   -5.1200   22.5090 C   0  0  0  0  0  0  0  0  0  0  0  0
  -22.1530   -4.5250   21.3420 F   0  0  0  0  0  0  0  0  0  0  0  0
  -21.1290   -4.1960   25.9940 F   0  0  0  0  0  0  0  0  0  0  0  0
  -23.1310  -13.7930   21.0070 C   0  0  0  0  0  0  0  0  0  0  0  0
  -22.3970  -13.1470   21.9060 N   0  0  0  0  0  0  0  0  0  0  0  0
  -22.7320  -14.8350   20.4880 O   0  0  0  0  0  0  0  0  0  0  0  0
  -22.7350  -12.3050   22.3440 H   0  0  0  0  0  0  0  0  0  0  0  0
  -21.4860  -13.5000   22.1620 H   0  0  0  0  0  0  0  0  0  0  0  0
  -25.8280  -15.2970   20.0940 N   0  0  0  0  0  0  0  0  0  0  0  0
  -25.0610  -15.9600   20.1200 H   0  0  0  0  0  0  0  0  0  0  0  0
  -26.6290  -15.6290   19.5740 H   0  0  0  0  0  0  0  0  0  0  0  0
  1 50  1  0
  2  1  1  0
  3  5  1  0
  3  2  1  0
  3  6  1  0
  4  3  1  0
  6  7  1  0
  7  8  1  0
  8  9  1  0
 10 21  2  0
 11  9  1  0
 11 16  1  0
 12 20  1  0
 12 22  1  0
 13 19  1  0
 13 15  1  0
 14 20  1  0
 15 14  1  0
 16 15  2  0
 17 11  2  0
 18 17  1  0
 18 13  2  0
 19 12  1  0
 20 10  1  0
 22 24  2  0
 23 22  1  0
 25 23  1  0
 26 35  2  0
 26 31  1  0
 27 23  1  0
 27 31  1  0
 28 27  1  0
 29 30  1  0
 29 28  1  0
 30 26  1  0
 31 32  2  0
 32 33  1  0
 34 33  2  0
 35 34  1  0
 36 10  1  0
 36 37  1  0
 36 46  1  0
 37 40  1  0
 38 42  1  0
 38 37  1  0
 39 38  2  0
 42 41  1  0
 44 42  1  0
 44 45  1  0
 44 43  1  0
 46 49  1  1
 46 47  1  0
 48 46  1  0
 51 50  1  0
 51 52  1  0
 53 52  1  0
 53 54  1  0
 54 56  1  0
 54 55  1  0
 57 54  1  0
 57 58  1  0
 59 58  1  0
 60 68  1  0
 61 66  1  0
 62 63  1  0
 62 61  1  0
 64 63  1  0
 64 73  1  0
 64 65  1  0
 66 60  1  0
 66 65  1  0
 67 60  2  0
 68 59  1  0
 68 69  1  0
 70 71  2  0
 71 90  1  0
 72 71  1  0
 72 75  1  0
 73 70  1  0
 73 74  1  0
 74 72  2  0
 75 76  1  0
 76 77  2  0
 78 81  1  0
 78 77  1  0
 79 78  2  0
 80 79  1  0
 80 75  2  0
 81 82  1  0
 82 83  1  0
 83 84  2  0
 85 84  1  0
 85 89  1  0
 86 85  2  0
 87 82  2  0
 87 86  1  0
 88 87  1  0
 90 91  1  0
 91 94  1  0
 91 93  1  0
 92 90  2  0
 95 96  1  0
 95 70  1  0
 97 95  1  0
M  ISO  4   8 101   9 101  60 100  68 100
M  END
>  <TORSDO>  (59) 
F 29

>  <SCORE>  (59) 
-9.757

>  <name>  (59) 
59

>  <ligand_id>  (59) 
59

>  <original_smiles>  (59) 
[H]c1c([H])c([H])c2c(c1[H])C([H])([H])C([H])([H])C([H])([H])C2([H])N([H])C(=O)C1([H])N(C(=O)C([H])(N([H])C(=O)C([H])(N([H])C([H])([H])[H])C([H])([H])[H])C(C([H])([H])[H])(C([H])([H])[H])C([H])([H])[H])C([H])([H])c2c([H])c(OC([H])([H])C([H])([H])C([H])([H])[N+]([H])([H])C([H])([H])C([H])([H])C([H])([H])C([H])([H])C([H])([H])C([H])([H])[N+]([H])([H])C([H])([H])C([H])([H])C([H])([H])N([H])C(=O)N3C([H])([H])C([H])([H])C([H])([H])C([H])(n4nc(-c5c([H])c([H])c(Oc6c([H])c([H])c(F)c([H])c6F)c([H])c5[H])c(C(=O)N([H])[H])c4N([H])[H])C3([H])[H])c([H])c([H])c2C1([H])[H]

>  <smiles>  (59) 
[H]c1c([H])c([H])c2c(c1[H])C([H])([H])C([H])([H])C([H])([H])C2([H])N([H])C(=O)C1([H])N(C(=O)C([H])(N([H])C(=O)C([H])(N([H])C([H])([H])[H])C([H])([H])[H])C(C([H])([H])[H])(C([H])([H])[H])C([H])([H])[H])C([H])([H])c2c([H])c(OC([H])([H])C([H])([H])C([H])([H])[N+]([H])([H])C([H])([H])C([H])([H])C([H])([H])C([H])([H])C([H])([H])C([H])([H])[N+]([H])([H])C([H])([H])C([H])([H])C([H])([H])N([H])C(=O)N3C([H])([H])C([H])([H])C([H])([H])C([H])(n4nc(-c5c([H])c([H])c(Oc6c([H])c([H])c(F)c([H])c6F)c([H])c5[H])c(C(=O)N([H])[H])c4N([H])[H])C3([H])[H])c([H])c([H])c2C1([H])[H]

$$$$
60:0:0
     RDKit          3D

 94101  0  0  1  0  0  0  0  0999 V2000
  -26.6220  -22.2050   20.1810 N   0  0  0  0  0  4  0  0  0  0  0  0
  -26.8150  -21.9160   19.2370 H   0  0  0  0  0  0  0  0  0  0  0  0
  -25.6350  -22.0660   20.3320 H   0  0  0  0  0  0  0  0  0  0  0  0
  -26.9080  -23.6480   20.2930 C   0  0  0  0  0  2  0  0  0  0  0  0
  -28.3890  -23.9760   20.0100 C   0  0  0  0  0  2  0  0  0  0  0  0
  -28.6680  -25.4820   20.0560 C   0  0  0  0  0  2  0  0  0  0  0  0
  -28.5340  -26.1720   18.6890 C   0  0  0  0  0  2  0  0  0  0  0  0
  -28.4050  -27.5730   18.8900 O   0  0  0  0  0  0  0  0  0  0  0  0
  -24.5180  -31.7250   23.1300 C   0  0  0  0  0  0  0  0  0  0  0  0
  -27.1560  -28.1050   19.1240 C   0  0  0  0  0  0  0  0  0  0  0  0
  -23.2580  -30.5370   21.3630 C   0  0  0  0  0  3  0  0  0  0  0  0
  -24.6710  -29.3650   19.5980 C   0  0  0  0  0  0  0  0  0  0  0  0
  -25.7280  -31.1140   21.0410 C   0  0  0  0  0  2  0  0  0  0  0  0
  -25.8390  -29.8810   20.1710 C   0  0  0  0  0  0  0  0  0  0  0  0
  -27.0800  -29.2590   19.9290 C   0  0  0  0  0  3  0  0  0  0  0  0
  -25.9630  -27.5810   18.5670 C   0  0  0  0  0  3  0  0  0  0  0  0
  -24.7260  -28.2090   18.8010 C   0  0  0  0  0  3  0  0  0  0  0  0
  -23.3870  -30.1100   19.8770 C   0  0  0  0  0  2  0  0  0  0  0  0
  -24.5240  -31.1300   21.9040 N   0  0  0  0  0  0  0  0  0  0  0  0
  -23.4730  -31.8250   23.7880 O   0  0  0  0  0  0  0  0  0  0  0  0
  -22.7530  -29.3250   22.1770 C   0  0  0  0  0  0  0  0  0  0  0  0
  -21.4500  -29.0240   22.0500 N   0  0  0  0  0  0  0  0  0  0  0  0
  -23.5270  -28.6640   22.8750 O   0  0  0  0  0  0  0  0  0  0  0  0
  -20.8820  -29.6190   21.4630 H   0  0  0  0  0  0  0  0  0  0  0  0
  -18.2620  -27.3510   22.3330 C   0  0  0  0  0  0  0  0  0  0  0  0
  -20.7610  -27.9050   22.6900 C   0  0  0  0  0  3  0  0  0  0  0  0
  -21.0560  -26.5770   21.9550 C   0  0  0  0  0  2  0  0  0  0  0  0
  -20.0130  -26.2340   20.8870 C   0  0  0  0  0  2  0  0  0  0  0  0
  -18.6200  -26.1220   21.5130 C   0  0  0  0  0  2  0  0  0  0  0  0
  -19.2680  -28.1960   22.8730 C   0  0  0  0  0  0  0  0  0  0  0  0
  -18.8810  -29.3450   23.5970 C   0  0  0  0  0  3  0  0  0  0  0  0
  -17.5220  -29.6510   23.7900 C   0  0  0  0  0  3  0  0  0  0  0  0
  -16.5300  -28.8010   23.2680 C   0  0  0  0  0  3  0  0  0  0  0  0
  -16.9010  -27.6540   22.5460 C   0  0  0  0  0  3  0  0  0  0  0  0
  -25.8150  -32.3310   23.7530 C   0  0  0  0  0  3  0  0  0  0  0  0
  -26.4020  -31.4650   24.9330 C   0  0  1  0  0  0  0  0  0  0  0  0
  -25.3640  -31.1110   26.0230 C   0  0  0  0  0  1  0  0  0  0  0  0
  -26.9920  -30.1390   24.3960 C   0  0  0  0  0  1  0  0  0  0  0  0
  -27.5660  -32.2240   25.6140 C   0  0  0  0  0  1  0  0  0  0  0  0
  -25.4910  -33.6880   24.2150 N   0  0  0  0  0  0  0  0  0  0  0  0
  -25.7910  -34.8080   23.5450 C   0  0  0  0  0  0  0  0  0  0  0  0
  -26.4430  -34.8110   22.4970 O   0  0  0  0  0  0  0  0  0  0  0  0
  -24.9090  -33.7600   25.0360 H   0  0  0  0  0  0  0  0  0  0  0  0
  -24.0280  -36.5960   23.3780 C   0  0  0  0  0  1  0  0  0  0  0  0
  -25.2870  -36.1410   24.1330 C   0  0  0  0  0  3  0  0  0  0  0  0
  -27.4190  -36.9850   25.0140 C   0  0  0  0  0  1  0  0  0  0  0  0
  -26.3010  -37.2170   24.1030 N   0  0  0  0  0  0  0  0  0  0  0  0
  -25.8800  -38.1130   24.3370 H   0  0  0  0  0  0  0  0  0  0  0  0
  -27.3470  -21.3410   21.1400 C   0  0  0  0  0  2  0  0  0  0  0  0
  -27.4420  -19.8960   20.6260 C   0  0  0  0  0  2  0  0  0  0  0  0
  -28.4600  -19.7190   19.4830 C   0  0  0  0  0  2  0  0  0  0  0  0
  -30.0720  -17.8970   18.9600 C   0  0  0  0  0  0  0  0  0  0  0  0
  -28.9030  -18.3360   19.4320 N   0  0  0  0  0  0  0  0  0  0  0  0
  -30.9760  -18.6340   18.5640 O   0  0  0  0  0  0  0  0  0  0  0  0
  -28.2470  -17.6310   19.7450 H   0  0  0  0  0  0  0  0  0  0  0  0
  -30.2100  -16.3850   18.9150 C   0  0  0  0  0  2  0  0  0  0  0  0
  -32.0490  -14.7620   18.9350 C   0  0  0  0  0  0  0  0  0  0  0  0
  -31.8410  -12.2980   18.9180 C   0  0  0  0  0  2  0  0  0  0  0  0
  -30.8120  -11.8330   17.8690 C   0  0  0  0  0  2  0  0  0  0  0  0
  -29.3780  -11.8580   18.4400 C   0  0  0  0  0  2  0  0  0  0  0  0
  -29.0490  -13.1950   19.1510 C   0  0  0  0  0  3  0  0  0  0  0  0
  -30.1780  -13.5500   20.1470 C   0  0  0  0  0  2  0  0  0  0  0  0
  -31.4410  -13.6320   19.3920 N   0  0  0  0  0  0  0  0  0  0  0  0
  -33.0730  -14.7430   18.2480 O   0  0  0  0  0  0  0  0  0  0  0  0
  -31.5340  -15.9300   19.3350 N   0  0  0  0  0  0  0  0  0  0  0  0
  -32.1920  -16.6940   19.2550 H   0  0  0  0  0  0  0  0  0  0  0  0
  -26.9420  -14.2110   20.2320 C   0  0  0  0  0  0  0  0  0  0  0  0
  -25.7920  -13.6330   20.6970 C   0  0  0  0  0  0  0  0  0  0  0  0
  -25.9510  -12.2270   20.5040 C   0  0  0  0  0  0  0  0  0  0  0  0
  -27.7410  -13.1630   19.7950 N   0  0  0  0  0  0  0  0  0  0  0  0
  -27.1520  -11.9610   20.0100 N   0  0  0  0  0  0  0  0  0  0  0  0
  -25.0090  -11.1200   20.7020 C   0  0  0  0  0  0  0  0  0  0  0  0
  -25.2870  -10.0680   21.6030 C   0  0  0  0  0  3  0  0  0  0  0  0
  -24.3600   -9.0210   21.7890 C   0  0  0  0  0  3  0  0  0  0  0  0
  -23.1380   -9.0200   21.0740 C   0  0  0  0  0  0  0  0  0  0  0  0
  -22.8770  -10.0570   20.1600 C   0  0  0  0  0  3  0  0  0  0  0  0
  -23.8040  -11.0960   19.9730 C   0  0  0  0  0  3  0  0  0  0  0  0
  -22.1880   -8.0330   21.1720 O   0  0  0  0  0  0  0  0  0  0  0  0
  -21.9410   -7.3890   22.3580 C   0  0  0  0  0  0  0  0  0  0  0  0
  -21.5350   -8.0880   23.5160 C   0  0  0  0  0  3  0  0  0  0  0  0
  -21.2260   -7.3780   24.6930 C   0  0  0  0  0  3  0  0  0  0  0  0
  -21.3120   -5.9740   24.7130 C   0  0  0  0  0  0  0  0  0  0  0  0
  -21.7100   -5.2760   23.5590 C   0  0  0  0  0  3  0  0  0  0  0  0
  -22.0220   -5.9830   22.3840 C   0  0  0  0  0  0  0  0  0  0  0  0
  -22.3860   -5.3040   21.2690 F   0  0  0  0  0  0  0  0  0  0  0  0
  -21.0070   -5.2910   25.8410 F   0  0  0  0  0  0  0  0  0  0  0  0
  -24.5690  -14.3470   21.1970 C   0  0  0  0  0  0  0  0  0  0  0  0
  -23.8330  -13.7320   22.1170 N   0  0  0  0  0  0  0  0  0  0  0  0
  -24.2840  -15.4780   20.8060 O   0  0  0  0  0  0  0  0  0  0  0  0
  -24.0770  -12.8110   22.4530 H   0  0  0  0  0  0  0  0  0  0  0  0
  -23.0150  -14.1890   22.4910 H   0  0  0  0  0  0  0  0  0  0  0  0
  -27.3640  -15.5340   20.1190 N   0  0  0  0  0  0  0  0  0  0  0  0
  -26.7030  -16.2860   20.2800 H   0  0  0  0  0  0  0  0  0  0  0  0
  -28.1100  -15.7990   19.4890 H   0  0  0  0  0  0  0  0  0  0  0  0
  1  4  1  0
  1  3  1  0
  1 49  1  0
  2  1  1  0
  5  6  1  0
  5  4  1  0
  7  8  1  0
  7  6  1  0
  8 10  1  0
  9 20  2  0
 10 15  1  0
 11 19  1  0
 11 21  1  0
 12 18  1  0
 12 14  1  0
 13 19  1  0
 14 13  1  0
 15 14  2  0
 16 17  1  0
 16 10  2  0
 17 12  2  0
 18 11  1  0
 19  9  1  0
 21 23  2  0
 22 21  1  0
 24 22  1  0
 25 34  2  0
 25 30  1  0
 26 22  1  0
 26 30  1  0
 27 26  1  0
 28 29  1  0
 28 27  1  0
 29 25  1  0
 30 31  2  0
 31 32  1  0
 33 32  2  0
 34 33  1  0
 35  9  1  0
 35 40  1  0
 35 36  1  0
 36 39  1  1
 36 37  1  0
 38 36  1  0
 40 43  1  0
 41 45  1  0
 41 40  1  0
 42 41  2  0
 45 44  1  0
 47 45  1  0
 47 48  1  0
 47 46  1  0
 50 49  1  0
 51 50  1  0
 52 53  1  0
 53 51  1  0
 53 55  1  0
 54 52  2  0
 56 52  1  0
 56 65  1  0
 57 65  1  0
 57 63  1  0
 58 63  1  0
 59 60  1  0
 59 58  1  0
 61 60  1  0
 61 70  1  0
 61 62  1  0
 63 62  1  0
 64 57  2  0
 66 65  1  0
 67 68  2  0
 68 87  1  0
 69 68  1  0
 69 72  1  0
 70 71  1  0
 70 67  1  0
 71 69  2  0
 72 73  1  0
 73 74  2  0
 75 78  1  0
 75 74  1  0
 76 75  2  0
 77 76  1  0
 77 72  2  0
 78 79  1  0
 79 84  2  0
 79 80  1  0
 80 81  2  0
 81 82  1  0
 82 86  1  0
 83 82  2  0
 84 83  1  0
 85 84  1  0
 87 88  1  0
 88 90  1  0
 88 91  1  0
 89 87  2  0
 92 67  1  0
 92 93  1  0
 94 92  1  0
M  ISO  4   7 101   8 101  57 100  65 100
M  END
>  <TORSDO>  (60) 
F 25

>  <SCORE>  (60) 
-8.010

>  <name>  (60) 
60

>  <ligand_id>  (60) 
60

>  <original_smiles>  (60) 
[H]c1c([H])c([H])c2c(c1[H])C([H])([H])C([H])([H])C([H])([H])C2([H])N([H])C(=O)C1([H])N(C(=O)C([H])(N([H])C(=O)C([H])(N([H])C([H])([H])[H])C([H])([H])[H])C(C([H])([H])[H])(C([H])([H])[H])C([H])([H])[H])C([H])([H])c2c([H])c(OC([H])([H])C([H])([H])C([H])([H])C([H])([H])[N+]([H])([H])C([H])([H])C([H])([H])C([H])([H])N([H])C(=O)C([H])([H])N([H])C(=O)N3C([H])([H])C([H])([H])C([H])([H])C([H])(n4nc(-c5c([H])c([H])c(Oc6c([H])c([H])c(F)c([H])c6F)c([H])c5[H])c(C(=O)N([H])[H])c4N([H])[H])C3([H])[H])c([H])c([H])c2C1([H])[H]

>  <smiles>  (60) 
[H]c1c([H])c([H])c2c(c1[H])C([H])([H])C([H])([H])C([H])([H])C2([H])N([H])C(=O)C1([H])N(C(=O)C([H])(N([H])C(=O)C([H])(N([H])C([H])([H])[H])C([H])([H])[H])C(C([H])([H])[H])(C([H])([H])[H])C([H])([H])[H])C([H])([H])c2c([H])c(OC([H])([H])C([H])([H])C([H])([H])C([H])([H])[N+]([H])([H])C([H])([H])C([H])([H])C([H])([H])N([H])C(=O)C([H])([H])N([H])C(=O)N3C([H])([H])C([H])([H])C([H])([H])C([H])(n4nc(-c5c([H])c([H])c(Oc6c([H])c([H])c(F)c([H])c6F)c([H])c5[H])c(C(=O)N([H])[H])c4N([H])[H])C3([H])[H])c([H])c([H])c2C1([H])[H]

$$$$
61:0:0
     RDKit          3D

 96 99  0  0  1  0  0  0  0  0999 V2000
  -20.5870  -27.9440   20.8850 C   0  0  0  0  0 15  0  0  0  0  0  0
  -18.2760  -26.7690   19.4570 C   0  0  0  0  0  1  0  0  0  0  0  0
  -18.2500  -25.8060   17.9830 N   0  0  0  0  0  4  0  0  0  0  0  0
  -18.2790  -24.8570   18.3120 H   0  0  0  0  0  0  0  0  0  0  0  0
  -17.3040  -25.9400   17.6610 H   0  0  0  0  0  0  0  0  0  0  0  0
  -19.0810  -25.7000   16.5000 C   0  0  0  0  0  3  0  0  0  0  0  0
  -18.4980  -25.3650   14.7660 C   0  0  0  0  0  3  0  0  0  0  0  0
  -19.2460  -24.8730   13.1370 C   0  0  0  0  0  3  0  0  0  0  0  0
  -18.7230  -24.7720   11.3570 C   0  0  0  0  0  3  0  0  0  0  0  0
  -19.4920  -24.3700    9.7160 C   0  0  0  0  0  3  0  0  0  0  0  0
  -18.9160  -24.0850    7.9750 C   0  0  0  0  0  3  0  0  0  0  0  0
  -19.4800  -23.0760    5.1050 C   0  0  0  0  0  0  0  0  0  0  0  0
  -20.8320  -21.7630    3.2690 C   0  0  0  0  0  2  0  0  0  0  0  0
  -21.6160  -20.5900    3.9310 C   0  0  0  0  0  2  0  0  0  0  0  0
  -22.8540  -21.0970    4.7010 C   0  0  0  0  0  2  0  0  0  0  0  0
  -22.5210  -22.3800    5.4960 C   0  0  0  0  0  3  0  0  0  0  0  0
  -21.8770  -23.4380    4.6010 C   0  0  0  0  0  2  0  0  0  0  0  0
  -20.6030  -22.8530    4.2910 N   0  0  0  0  0  0  0  0  0  0  0  0
  -18.4350  -22.6690    4.5370 O   0  0  0  0  0  0  0  0  0  0  0  0
  -19.6660  -23.6250    6.5130 N   0  0  0  0  0  0  0  0  0  0  0  0
  -20.6510  -23.8270    6.6040 H   0  0  0  0  0  0  0  0  0  0  0  0
  -23.9170  -24.3040    6.3630 C   0  0  0  0  0  0  0  0  0  0  0  0
  -25.0700  -24.3300    7.0900 C   0  0  0  0  0  0  0  0  0  0  0  0
  -25.4390  -22.9640    7.2920 C   0  0  0  0  0  0  0  0  0  0  0  0
  -23.6380  -22.9640    6.1800 N   0  0  0  0  0  0  0  0  0  0  0  0
  -24.5970  -22.1540    6.6750 N   0  0  0  0  0  0  0  0  0  0  0  0
  -26.5050  -22.3720    8.0990 C   0  0  0  0  0  0  0  0  0  0  0  0
  -26.8460  -21.0080    7.9840 C   0  0  0  0  0  3  0  0  0  0  0  0
  -27.8890  -20.4690    8.7660 C   0  0  0  0  0  3  0  0  0  0  0  0
  -28.5990  -21.2980    9.6670 C   0  0  0  0  0  0  0  0  0  0  0  0
  -28.2340  -22.6490    9.7960 C   0  0  0  0  0  3  0  0  0  0  0  0
  -27.1920  -23.1830    9.0210 C   0  0  0  0  0  3  0  0  0  0  0  0
  -29.6110  -20.8570   10.4820 O   0  0  0  0  0  0  0  0  0  0  0  0
  -29.4330  -19.8070   11.3450 C   0  0  0  0  0  0  0  0  0  0  0  0
  -28.9200  -18.5650   10.9130 C   0  0  0  0  0  3  0  0  0  0  0  0
  -28.8180  -17.4920   11.8210 C   0  0  0  0  0  3  0  0  0  0  0  0
  -29.2380  -17.6560   13.1560 C   0  0  0  0  0  0  0  0  0  0  0  0
  -29.7530  -18.8910   13.5850 C   0  0  0  0  0  3  0  0  0  0  0  0
  -29.8520  -19.9630   12.6820 C   0  0  0  0  0  0  0  0  0  0  0  0
  -30.3690  -21.1460   13.0950 F   0  0  0  0  0  0  0  0  0  0  0  0
  -29.1490  -16.6230   14.0250 F   0  0  0  0  0  0  0  0  0  0  0  0
  -25.7280  -25.5480    7.6610 C   0  0  0  0  0  0  0  0  0  0  0  0
  -26.9920  -25.4310    8.0480 N   0  0  0  0  0  0  0  0  0  0  0  0
  -25.1330  -26.6230    7.7220 O   0  0  0  0  0  0  0  0  0  0  0  0
  -27.4800  -24.5500    7.9780 H   0  0  0  0  0  0  0  0  0  0  0  0
  -27.4820  -26.2330    8.4180 H   0  0  0  0  0  0  0  0  0  0  0  0
  -23.0730  -25.2970    5.8710 N   0  0  0  0  0  0  0  0  0  0  0  0
  -23.2260  -26.2590    6.1540 H   0  0  0  0  0  0  0  0  0  0  0  0
  -22.1110  -25.1210    5.6120 H   0  0  0  0  0  0  0  0  0  0  0  0
  -22.3180  -28.2010   19.7900 C   0  0  0  0  0  1  0  0  0  0  0  0
  -22.5470  -28.4410   17.9860 N   0  0  0  0  0  4  0  0  0  0  0  0
  -23.0350  -29.3250   17.9610 H   0  0  0  0  0  0  0  0  0  0  0  0
  -21.5940  -28.6960   17.7050 H   0  0  0  0  0  0  0  0  0  0  0  0
  -23.1880  -27.6290   16.4810 C   0  0  0  0  0  1  0  0  0  0  0  0
  -24.3210  -26.1220   15.8630 C   0  0  0  0  0  1  0  0  0  0  0  0
  -25.7670  -25.1710   16.1490 O   0  0  0  0  0  0  0  0  0  0  0  0
  -29.3720  -25.8130   19.3400 C   0  0  0  0  0  0  0  0  0  0  0  0
  -26.2360  -23.9700   15.5640 C   0  0  0  0  0  3  0  0  0  0  0  0
  -29.8680  -25.9250   16.7750 C   0  0  0  0  0  3  0  0  0  0  0  0
  -28.8760  -24.1380   15.3930 C   0  0  0  0  0  0  0  0  0  0  0  0
  -28.8930  -23.8780   17.8940 C   0  0  0  0  0  2  0  0  0  0  0  0
  -28.2460  -23.6530   16.5530 C   0  0  0  0  0  0  0  0  0  0  0  0
  -26.9200  -23.2450   16.5120 C   0  0  0  0  0  2  0  0  0  0  0  0
  -26.7650  -24.0680   14.2470 C   0  0  0  0  0  3  0  0  0  0  0  0
  -28.1640  -24.2240   14.1700 C   0  0  0  0  0  3  0  0  0  0  0  0
  -30.1500  -24.8990   15.6640 C   0  0  0  0  0  2  0  0  0  0  0  0
  -29.3210  -25.2800   18.0610 N   0  0  0  0  0  0  0  0  0  0  0  0
  -29.9880  -26.8620   19.5650 O   0  0  0  0  0  0  0  0  0  0  0  0
  -28.9020  -26.8260   15.9070 C   0  0  0  0  0  0  0  0  0  0  0  0
  -28.9750  -28.0470   15.6560 N   0  0  2  0  0  4  0  0  0  0  0  0
  -27.8870  -26.6050   15.3700 O   0  0  0  0  0  0  0  0  0  0  0  0
  -29.9560  -28.2750   15.5820 H   0  0  0  0  0  0  0  0  0  0  0  0
  -29.3340  -31.9970   14.0690 C   0  0  0  0  0  0  0  0  0  0  0  0
  -28.2780  -29.4240   15.7830 C   0  0  0  0  0  1  0  0  0  0  0  0
  -28.0340  -28.4900   14.0560 C   0  0  0  0  0  2  0  0  0  0  0  0
  -28.4620  -29.4150   12.5370 C   0  0  0  0  0  3  0  0  0  0  0  0
  -29.0180  -31.1410   12.5900 C   0  0  0  0  0  3  0  0  0  0  0  0
  -29.0830  -31.3960   15.5680 C   0  0  0  0  0  3  0  0  0  0  0  0
  -30.1890  -31.9680   16.3420 C   0  0  0  0  0  3  0  0  0  0  0  0
  -31.3550  -32.6670   15.8510 C   0  0  0  0  0  3  0  0  0  0  0  0
  -31.4420  -33.1690   14.5510 C   0  0  0  0  0  3  0  0  0  0  0  0
  -30.3710  -32.9040   13.7050 C   0  0  0  0  0  3  0  0  0  0  0  0
  -28.7010  -25.1460   20.6120 C   0  0  0  0  0  3  0  0  0  0  0  0
  -29.7990  -24.6090   21.4250 N   0  0  0  0  0  0  0  0  0  0  0  0
  -30.1550  -23.3200   21.4700 C   0  0  0  0  0  0  0  0  0  0  0  0
  -29.5810  -22.4470   20.8160 O   0  0  0  0  0  0  0  0  0  0  0  0
  -30.3570  -25.2770   21.9360 H   0  0  0  0  0  0  0  0  0  0  0  0
  -32.6580  -23.1530   21.6110 C   0  0  0  0  0  1  0  0  0  0  0  0
  -31.3420  -22.9480   22.3770 C   0  0  0  0  0  3  0  0  0  0  0  0
  -30.0000  -21.2450   23.5300 C   0  0  0  0  0  1  0  0  0  0  0  0
  -31.2750  -21.5620   22.8920 N   0  0  0  0  0  0  0  0  0  0  0  0
  -32.0180  -21.3900   23.5620 H   0  0  0  0  0  0  0  0  0  0  0  0
  -27.7970  -26.0600   21.5570 C   0  0  1  0  0  0  0  0  0  0  0  0
  -28.4980  -27.3650   22.0190 C   0  0  0  0  0  1  0  0  0  0  0  0
  -26.3990  -26.3670   20.9840 C   0  0  0  0  0  1  0  0  0  0  0  0
  -27.4330  -25.2870   22.8500 C   0  0  0  0  0  1  0  0  0  0  0  0
  3  4  1  0
  3  2  1  0
  5  3  1  0
  6  3  1  0
  7  6  2  0
  8  7  1  0
  9  8  2  0
 10  9  1  0
 11 10  2  0
 12 20  1  0
 13 14  1  0
 13 18  1  0
 14 15  1  0
 15 16  1  0
 16 17  1  0
 16 25  1  0
 18 17  1  0
 18 12  1  0
 19 12  2  0
 20 21  1  0
 20 11  1  0
 22 23  2  0
 23 24  1  0
 23 42  1  0
 24 27  1  0
 25 22  1  0
 25 26  1  0
 26 24  2  0
 27 32  1  0
 28 27  2  0
 28 29  1  0
 29 30  2  0
 30 31  1  0
 30 33  1  0
 32 31  2  0
 33 34  1  0
 34 39  1  0
 35 34  2  0
 35 36  1  0
 36 37  2  0
 37 38  1  0
 37 41  1  0
 39 40  1  0
 39 38  2  0
 42 44  2  0
 42 43  1  0
 43 46  1  0
 45 43  1  0
 47 48  1  0
 47 22  1  0
 49 47  1  0
 51 50  1  0
 52 51  1  0
 53 51  1  0
 54 51  1  0
 55 56  1  0
 57 68  2  0
 58 56  1  0
 58 63  1  0
 59 69  1  0
 59 67  1  0
 60 66  1  0
 60 62  2  0
 61 67  1  0
 62 61  1  0
 63 62  1  0
 64 58  1  0
 65 64  2  0
 65 60  1  0
 66 59  1  0
 67 57  1  0
 70 74  1  0
 70 69  1  0
 71 69  2  0
 70 72  1  6
 73 78  1  0
 75 70  1  0
 76 77  2  0
 76 75  1  0
 77 73  1  0
 78 79  2  0
 80 79  1  0
 81 80  2  0
 82 73  2  0
 82 81  1  0
 83 57  1  0
 83 84  1  0
 83 93  1  0
 84 85  1  0
 84 87  1  0
 85 89  1  0
 86 85  2  0
 89 88  1  0
 89 91  1  0
 91 90  1  0
 91 92  1  0
 93 94  1  1
 93 96  1  0
 95 93  1  0
M  ISO  4  12 100  20 100  55 101  56 101
M  END
>  <TORSDO>  (61) 
F 28

>  <SCORE>  (61) 
18.220

>  <name>  (61) 
61

>  <ligand_id>  (61) 
61

>  <original_smiles>  (61) 
[H]c1c([H])c([H])c2c(c1[H])C([H])([H])C([H])([H])C([H])([H])C2([H])N([H])C(=O)C1([H])N(C(=O)C([H])(N([H])C(=O)C([H])(N([H])C([H])([H])[H])C([H])([H])[H])C(C([H])([H])[H])(C([H])([H])[H])C([H])([H])[H])C([H])([H])c2c([H])c(OC([H])([H])C([H])([H])[N+]([H])([H])C([H])([H])C([H])([H])C([H])([H])[N+]([H])([H])C([H])([H])C([H])([H])C([H])([H])C([H])([H])C([H])([H])C([H])([H])N([H])C(=O)N3C([H])([H])C([H])([H])C([H])([H])C([H])(n4nc(-c5c([H])c([H])c(Oc6c([H])c([H])c(F)c([H])c6F)c([H])c5[H])c(C(=O)N([H])[H])c4N([H])[H])C3([H])[H])c([H])c([H])c2C1([H])[H]

>  <smiles>  (61) 
[H]c1c([H])c([H])c2c(c1[H])C([H])([H])C([H])([H])C([H])([H])C2([H])N([H])C(=O)C1([H])N(C(=O)C([H])(N([H])C(=O)C([H])(N([H])C([H])([H])[H])C([H])([H])[H])C(C([H])([H])[H])(C([H])([H])[H])C([H])([H])[H])C([H])([H])c2c([H])c(OC([H])([H])C([H])([H])[N+]([H])([H])C([H])([H])C([H])([H])C([H])([H])[N+]([H])([H])C([H])([H])C([H])([H])C([H])([H])C([H])([H])C([H])([H])C([H])([H])N([H])C(=O)N3C([H])([H])C([H])([H])C([H])([H])C([H])(n4nc(-c5c([H])c([H])c(Oc6c([H])c([H])c(F)c([H])c6F)c([H])c5[H])c(C(=O)N([H])[H])c4N([H])[H])C3([H])[H])c([H])c([H])c2C1([H])[H]

$$$$
62:0:0
     RDKit          3D

103110  0  0  1  0  0  0  0  0999 V2000
  -33.1350  -20.6590   24.3910 C   0  0  0  0  0  2  0  0  0  0  0  0
  -34.5440  -21.2810   24.3250 C   0  0  0  0  0  2  0  0  0  0  0  0
  -34.8730  -21.6630   22.9350 N   0  0  0  0  0  4  0  0  0  0  0  0
  -34.5580  -22.6040   22.7510 H   0  0  0  0  0  0  0  0  0  0  0  0
  -34.3650  -21.0430   22.3210 H   0  0  0  0  0  0  0  0  0  0  0  0
  -36.2780  -21.5000   22.5070 C   0  0  0  0  0  2  0  0  0  0  0  0
  -36.3290  -21.6190   20.9800 C   0  0  0  0  0  2  0  0  0  0  0  0
  -35.2880  -20.7720   20.4870 O   0  0  0  0  0  0  0  0  0  0  0  0
  -34.5250  -21.3480   19.4340 C   0  0  0  0  0  2  0  0  0  0  0  0
  -33.3740  -20.4060   19.0520 C   0  0  0  0  0  2  0  0  0  0  0  0
  -32.5940  -19.8490   20.2620 C   0  0  0  0  0  2  0  0  0  0  0  0
  -31.3530  -19.0470   19.8360 C   0  0  0  0  0  2  0  0  0  0  0  0
  -31.0430  -17.8310   20.7260 C   0  0  0  0  0  2  0  0  0  0  0  0
  -29.8220  -17.0640   20.1830 C   0  0  0  0  0  2  0  0  0  0  0  0
  -30.4350  -14.6820   19.9270 C   0  0  0  0  0  0  0  0  0  0  0  0
  -30.1150  -12.5390   18.7690 C   0  0  0  0  0  2  0  0  0  0  0  0
  -29.0980  -12.7630   17.6290 C   0  0  0  0  0  2  0  0  0  0  0  0
  -27.6610  -12.5690   18.1520 C   0  0  0  0  0  2  0  0  0  0  0  0
  -27.3820  -13.3790   19.4470 C   0  0  0  0  0  3  0  0  0  0  0  0
  -28.5080  -13.1550   20.4860 C   0  0  0  0  0  2  0  0  0  0  0  0
  -29.7940  -13.4880   19.8460 N   0  0  0  0  0  0  0  0  0  0  0  0
  -31.4800  -14.9330   19.3170 O   0  0  0  0  0  0  0  0  0  0  0  0
  -29.7610  -15.6500   20.5640 N   0  0  0  0  0  0  0  0  0  0  0  0
  -28.9470  -15.3580   21.0830 H   0  0  0  0  0  0  0  0  0  0  0  0
  -24.9910  -13.8990   20.2590 C   0  0  0  0  0  0  0  0  0  0  0  0
  -23.9830  -13.0910   20.7130 C   0  0  0  0  0  0  0  0  0  0  0  0
  -24.5090  -11.7610   20.7030 C   0  0  0  0  0  0  0  0  0  0  0  0
  -26.0670  -13.0610   20.0040 N   0  0  0  0  0  0  0  0  0  0  0  0
  -25.7800  -11.7730   20.3240 N   0  0  0  0  0  0  0  0  0  0  0  0
  -23.8580  -10.4740   20.9770 C   0  0  0  0  0  0  0  0  0  0  0  0
  -24.3660   -9.5810   21.9470 C   0  0  0  0  0  3  0  0  0  0  0  0
  -23.7130   -8.3570   22.2050 C   0  0  0  0  0  3  0  0  0  0  0  0
  -22.5390   -8.0140   21.4920 C   0  0  0  0  0  0  0  0  0  0  0  0
  -22.0490   -8.8980   20.5140 C   0  0  0  0  0  3  0  0  0  0  0  0
  -22.7030  -10.1130   20.2550 C   0  0  0  0  0  3  0  0  0  0  0  0
  -21.8550   -6.8340   21.6540 O   0  0  0  0  0  0  0  0  0  0  0  0
  -21.8660   -6.1550   22.8470 C   0  0  0  0  0  0  0  0  0  0  0  0
  -21.3930   -6.7400   24.0410 C   0  0  0  0  0  3  0  0  0  0  0  0
  -21.3540   -5.9830   25.2280 C   0  0  0  0  0  3  0  0  0  0  0  0
  -21.7810   -4.6420   25.2250 C   0  0  0  0  0  0  0  0  0  0  0  0
  -22.2500   -4.0570   24.0360 C   0  0  0  0  0  3  0  0  0  0  0  0
  -22.2900   -4.8110   22.8500 C   0  0  0  0  0  0  0  0  0  0  0  0
  -22.7220   -4.2360   21.7020 F   0  0  0  0  0  0  0  0  0  0  0  0
  -21.7400   -3.9130   26.3640 F   0  0  0  0  0  0  0  0  0  0  0  0
  -22.5800  -13.5120   21.0470 C   0  0  0  0  0  0  0  0  0  0  0  0
  -21.9380  -12.8270   21.9860 N   0  0  0  0  0  0  0  0  0  0  0  0
  -22.0590  -14.4870   20.5080 O   0  0  0  0  0  0  0  0  0  0  0  0
  -22.3710  -12.0430   22.4510 H   0  0  0  0  0  0  0  0  0  0  0  0
  -21.0010  -13.0960   22.2500 H   0  0  0  0  0  0  0  0  0  0  0  0
  -25.0780  -15.2680   20.0280 N   0  0  0  0  0  0  0  0  0  0  0  0
  -24.2800  -15.8850   20.1310 H   0  0  0  0  0  0  0  0  0  0  0  0
  -25.8940  -15.7340   19.6540 H   0  0  0  0  0  0  0  0  0  0  0  0
  -32.0000  -21.6520   24.0880 C   0  0  0  0  0  2  0  0  0  0  0  0
  -30.7050  -20.9530   23.6330 C   0  0  0  0  0  2  0  0  0  0  0  0
  -29.4580  -21.8510   23.7310 C   0  0  0  0  0  2  0  0  0  0  0  0
  -28.8680  -23.5000   21.9380 C   0  0  0  0  0  0  0  0  0  0  0  0
  -29.6250  -23.0800   22.9570 N   0  0  0  0  0  0  0  0  0  0  0  0
  -27.8960  -22.8670   21.5170 O   0  0  0  0  0  0  0  0  0  0  0  0
  -30.3770  -23.6890   23.2420 H   0  0  0  0  0  0  0  0  0  0  0  0
  -29.3390  -24.7710   21.4250 C   0  0  0  0  0  3  0  0  0  0  0  0
  -28.5150  -25.6140   20.7720 C   0  0  0  0  0  3  0  0  0  0  0  0
  -28.9450  -26.9610   20.2260 C   0  0  0  0  0  2  0  0  0  0  0  0
  -28.1950  -27.3200   19.0640 O   0  0  0  0  0  0  0  0  0  0  0  0
  -24.4030  -31.7400   23.1630 C   0  0  0  0  0  0  0  0  0  0  0  0
  -27.0090  -27.9760   19.2970 C   0  0  0  0  0  0  0  0  0  0  0  0
  -23.1270  -30.4830   21.4540 C   0  0  0  0  0  3  0  0  0  0  0  0
  -24.5290  -29.2640   19.7060 C   0  0  0  0  0  0  0  0  0  0  0  0
  -25.5830  -31.0670   21.0780 C   0  0  0  0  0  2  0  0  0  0  0  0
  -25.6970  -29.8000   20.2610 C   0  0  0  0  0  0  0  0  0  0  0  0
  -26.9380  -29.1660   20.0560 C   0  0  0  0  0  3  0  0  0  0  0  0
  -25.8300  -27.4520   18.7300 C   0  0  0  0  0  3  0  0  0  0  0  0
  -24.5890  -28.0870   18.9370 C   0  0  0  0  0  3  0  0  0  0  0  0
  -23.2420  -30.0100   19.9790 C   0  0  0  0  0  2  0  0  0  0  0  0
  -24.3940  -31.1040   21.9580 N   0  0  0  0  0  0  0  0  0  0  0  0
  -23.3680  -31.8560   23.8330 O   0  0  0  0  0  0  0  0  0  0  0  0
  -22.6400  -29.2970   22.3180 C   0  0  0  0  0  0  0  0  0  0  0  0
  -21.3460  -28.9590   22.1890 N   0  0  0  0  0  0  0  0  0  0  0  0
  -23.4200  -28.6880   23.0550 O   0  0  0  0  0  0  0  0  0  0  0  0
  -20.7710  -29.5100   21.5680 H   0  0  0  0  0  0  0  0  0  0  0  0
  -18.2210  -27.1690   22.4510 C   0  0  0  0  0  0  0  0  0  0  0  0
  -20.6770  -27.8550   22.8760 C   0  0  0  0  0  3  0  0  0  0  0  0
  -21.0570  -26.4960   22.2450 C   0  0  0  0  0  2  0  0  0  0  0  0
  -20.0790  -26.0400   21.1580 C   0  0  0  0  0  2  0  0  0  0  0  0
  -18.6650  -25.9080   21.7290 C   0  0  0  0  0  2  0  0  0  0  0  0
  -19.1660  -28.0900   22.9750 C   0  0  0  0  0  0  0  0  0  0  0  0
  -18.7010  -29.2650   23.6050 C   0  0  0  0  0  3  0  0  0  0  0  0
  -17.3210  -29.5220   23.7200 C   0  0  0  0  0  3  0  0  0  0  0  0
  -16.3900  -28.6000   23.2150 C   0  0  0  0  0  3  0  0  0  0  0  0
  -16.8410  -27.4240   22.5840 C   0  0  0  0  0  3  0  0  0  0  0  0
  -25.7060  -32.3750   23.7440 C   0  0  0  0  0  3  0  0  0  0  0  0
  -26.2990  -31.5690   24.9650 C   0  0  1  0  0  0  0  0  0  0  0  0
  -25.2680  -31.2840   26.0810 C   0  0  0  0  0  1  0  0  0  0  0  0
  -26.8730  -30.2120   24.4930 C   0  0  0  0  0  1  0  0  0  0  0  0
  -27.4760  -32.3530   25.5900 C   0  0  0  0  0  1  0  0  0  0  0  0
  -25.3880  -33.7540   24.1360 N   0  0  0  0  0  0  0  0  0  0  0  0
  -25.7080  -34.8390   23.4180 C   0  0  0  0  0  0  0  0  0  0  0  0
  -26.3730  -34.7850   22.3820 O   0  0  0  0  0  0  0  0  0  0  0  0
  -24.7930  -33.8710   24.9420 H   0  0  0  0  0  0  0  0  0  0  0  0
  -23.9630  -36.6280   23.1390 C   0  0  0  0  0  1  0  0  0  0  0  0
  -25.2080  -36.2020   23.9340 C   0  0  0  0  0  3  0  0  0  0  0  0
  -27.3360  -37.0670   24.8010 C   0  0  0  0  0  1  0  0  0  0  0  0
  -26.2310  -37.2680   23.8670 N   0  0  0  0  0  0  0  0  0  0  0  0
  -25.8170  -38.1760   24.0570 H   0  0  0  0  0  0  0  0  0  0  0  0
  2  1  1  0
  3  2  1  0
  4  3  1  0
  5  3  1  0
  6  3  1  0
  7  6  1  0
  8  7  1  0
  9  8  1  0
 10  9  1  0
 10 11  1  0
 12 11  1  0
 12 13  1  0
 14 23  1  0
 14 13  1  0
 15 23  1  0
 16 21  1  0
 17 18  1  0
 17 16  1  0
 19 18  1  0
 19 28  1  0
 19 20  1  0
 21 15  1  0
 21 20  1  0
 22 15  2  0
 23 24  1  0
 25 26  2  0
 26 45  1  0
 27 26  1  0
 27 30  1  0
 28 25  1  0
 28 29  1  0
 29 27  2  0
 30 31  1  0
 31 32  2  0
 33 36  1  0
 33 32  1  0
 34 33  2  0
 35 34  1  0
 35 30  2  0
 36 37  1  0
 37 42  2  0
 37 38  1  0
 38 39  2  0
 40 39  1  0
 40 44  1  0
 41 40  2  0
 42 41  1  0
 43 42  1  0
 45 46  1  0
 46 49  1  0
 46 48  1  0
 47 45  2  0
 50 51  1  0
 50 25  1  0
 52 50  1  0
 53  1  1  0
 54 55  1  0
 54 53  1  0
 56 57  1  0
 57 59  1  0
 57 55  1  0
 58 56  2  0
 60 56  1  0
 61 60  2  0
 62 61  1  0
 63 65  1  0
 63 62  1  0
 64 75  2  0
 65 70  1  0
 66 74  1  0
 66 76  1  0
 67 73  1  0
 67 69  1  0
 68 74  1  0
 69 68  1  0
 70 69  2  0
 71 72  1  0
 71 65  2  0
 72 67  2  0
 73 66  1  0
 74 64  1  0
 76 78  2  0
 77 76  1  0
 79 77  1  0
 80 89  2  0
 80 85  1  0
 81 77  1  0
 81 85  1  0
 82 81  1  0
 83 84  1  0
 83 82  1  0
 84 80  1  0
 85 86  2  0
 86 87  1  0
 88 87  2  0
 89 88  1  0
 90 64  1  0
 90 95  1  0
 90 91  1  0
 91 94  1  1
 91 92  1  0
 93 91  1  0
 95 98  1  0
 96100  1  0
 96 95  1  0
 97 96  2  0
100 99  1  0
102100  1  0
102103  1  0
102101  1  0
M  ISO  4  15 100  23 100  62 101  63 101
M  END
>  <TORSDO>  (62) 
F 33

>  <SCORE>  (62) 
-7.003

>  <name>  (62) 
62

>  <ligand_id>  (62) 
62

>  <original_smiles>  (62) 
[H]C(C(=O)N([H])C([H])([H])C([H])([H])C([H])([H])C([H])([H])C([H])([H])[N+]([H])([H])C([H])([H])C([H])([H])OC([H])([H])C([H])([H])C([H])([H])C([H])([H])C([H])([H])C([H])([H])N([H])C(=O)N1C([H])([H])C([H])([H])C([H])([H])C([H])(n2nc(-c3c([H])c([H])c(Oc4c([H])c([H])c(F)c([H])c4F)c([H])c3[H])c(C(=O)N([H])[H])c2N([H])[H])C1([H])[H])=C([H])C([H])([H])Oc1c([H])c([H])c2c(c1[H])C([H])([H])N(C(=O)C([H])(N([H])C(=O)C([H])(N([H])C([H])([H])[H])C([H])([H])[H])C(C([H])([H])[H])(C([H])([H])[H])C([H])([H])[H])C([H])(C(=O)N([H])C1([H])c3c([H])c([H])c([H])c([H])c3C([H])([H])C([H])([H])C1([H])[H])C2([H])[H]

>  <smiles>  (62) 
[H]C(C(=O)N([H])C([H])([H])C([H])([H])C([H])([H])C([H])([H])C([H])([H])[N+]([H])([H])C([H])([H])C([H])([H])OC([H])([H])C([H])([H])C([H])([H])C([H])([H])C([H])([H])C([H])([H])N([H])C(=O)N1C([H])([H])C([H])([H])C([H])([H])C([H])(n2nc(-c3c([H])c([H])c(Oc4c([H])c([H])c(F)c([H])c4F)c([H])c3[H])c(C(=O)N([H])[H])c2N([H])[H])C1([H])[H])=C([H])C([H])([H])Oc1c([H])c([H])c2c(c1[H])C([H])([H])N(C(=O)C([H])(N([H])C(=O)C([H])(N([H])C([H])([H])[H])C([H])([H])[H])C(C([H])([H])[H])(C([H])([H])[H])C([H])([H])[H])C([H])(C(=O)N([H])C1([H])c3c([H])c([H])c([H])c([H])c3C([H])([H])C([H])([H])C1([H])[H])C2([H])[H]

$$$$
63:0:0
     RDKit          3D

 96103  0  0  1  0  0  0  0  0999 V2000
  -25.8420  -21.3230   20.2310 C   0  0  0  0  0  2  0  0  0  0  0  0
  -26.9350  -22.4030   20.1490 C   0  0  0  0  0  2  0  0  0  0  0  0
  -27.0710  -23.1900   21.4740 C   0  0  0  0  0  2  0  0  0  0  0  0
  -28.0980  -24.2560   21.4210 N   0  0  0  0  0  4  0  0  0  0  0  0
  -29.0060  -23.8480   21.2620 H   0  0  0  0  0  0  0  0  0  0  0  0
  -28.1310  -24.6850   22.3320 H   0  0  0  0  0  0  0  0  0  0  0  0
  -27.8010  -25.3030   20.4150 C   0  0  0  0  0  2  0  0  0  0  0  0
  -28.7080  -26.5380   20.5290 C   0  0  0  0  0  2  0  0  0  0  0  0
  -28.4720  -27.4270   19.4360 O   0  0  0  0  0  0  0  0  0  0  0  0
  -24.5230  -31.9700   23.1770 C   0  0  0  0  0  0  0  0  0  0  0  0
  -27.2810  -28.0940   19.5350 C   0  0  0  0  0  0  0  0  0  0  0  0
  -23.3250  -30.6740   21.4410 C   0  0  0  0  0  3  0  0  0  0  0  0
  -24.8000  -29.3980   19.8000 C   0  0  0  0  0  0  0  0  0  0  0  0
  -25.8080  -31.2230   21.1800 C   0  0  0  0  0  2  0  0  0  0  0  0
  -25.9440  -29.9380   20.3980 C   0  0  0  0  0  0  0  0  0  0  0  0
  -27.1880  -29.2900   20.2710 C   0  0  0  0  0  3  0  0  0  0  0  0
  -26.1330  -27.5790   18.8970 C   0  0  0  0  0  3  0  0  0  0  0  0
  -24.8860  -28.2150   19.0450 C   0  0  0  0  0  3  0  0  0  0  0  0
  -23.5110  -30.1560   19.9910 C   0  0  0  0  0  2  0  0  0  0  0  0
  -24.5720  -31.2960   21.9930 N   0  0  0  0  0  0  0  0  0  0  0  0
  -23.4550  -32.1160   23.7870 O   0  0  0  0  0  0  0  0  0  0  0  0
  -22.7820  -29.5190   22.3100 C   0  0  0  0  0  0  0  0  0  0  0  0
  -21.4710  -29.2530   22.1930 N   0  0  0  0  0  0  0  0  0  0  0  0
  -23.5310  -28.8690   23.0420 O   0  0  0  0  0  0  0  0  0  0  0  0
  -20.9280  -29.8340   21.5680 H   0  0  0  0  0  0  0  0  0  0  0  0
  -18.2050  -27.7720   22.6460 C   0  0  0  0  0  0  0  0  0  0  0  0
  -20.7440  -28.1910   22.8890 C   0  0  0  0  0  3  0  0  0  0  0  0
  -20.9330  -26.8350   22.1750 C   0  0  0  0  0  2  0  0  0  0  0  0
  -19.8260  -26.5300   21.1590 C   0  0  0  0  0  2  0  0  0  0  0  0
  -18.4600  -26.5040   21.8460 C   0  0  0  0  0  2  0  0  0  0  0  0
  -19.2780  -28.5710   23.1230 C   0  0  0  0  0  0  0  0  0  0  0  0
  -18.9900  -29.7540   23.8360 C   0  0  0  0  0  3  0  0  0  0  0  0
  -17.6590  -30.1470   24.0690 C   0  0  0  0  0  3  0  0  0  0  0  0
  -16.6000  -29.3450   23.6110 C   0  0  0  0  0  3  0  0  0  0  0  0
  -16.8740  -28.1610   22.9040 C   0  0  0  0  0  3  0  0  0  0  0  0
  -25.8000  -32.6110   23.8080 C   0  0  0  0  0  3  0  0  0  0  0  0
  -26.3400  -31.8170   25.0590 C   0  0  1  0  0  0  0  0  0  0  0  0
  -25.2580  -31.5250   26.1250 C   0  0  0  0  0  1  0  0  0  0  0  0
  -26.9480  -30.4630   24.6220 C   0  0  0  0  0  1  0  0  0  0  0  0
  -27.4800  -32.6150   25.7350 C   0  0  0  0  0  1  0  0  0  0  0  0
  -25.4640  -33.9930   24.1730 N   0  0  0  0  0  0  0  0  0  0  0  0
  -25.7930  -35.0700   23.4490 C   0  0  0  0  0  0  0  0  0  0  0  0
  -26.4800  -35.0080   22.4260 O   0  0  0  0  0  0  0  0  0  0  0  0
  -24.8490  -34.1170   24.9650 H   0  0  0  0  0  0  0  0  0  0  0  0
  -24.0440  -36.8450   23.1060 C   0  0  0  0  0  1  0  0  0  0  0  0
  -25.2730  -36.4370   23.9340 C   0  0  0  0  0  3  0  0  0  0  0  0
  -27.3740  -37.3290   24.8400 C   0  0  0  0  0  1  0  0  0  0  0  0
  -26.2910  -37.5070   23.8750 N   0  0  0  0  0  0  0  0  0  0  0  0
  -25.8660  -38.4160   24.0380 H   0  0  0  0  0  0  0  0  0  0  0  0
  -25.4890  -20.6340   18.8930 C   0  0  0  0  0  2  0  0  0  0  0  0
  -26.6700  -19.9680   18.1650 C   0  0  0  0  0  2  0  0  0  0  0  0
  -28.7370  -19.1840   19.2890 C   0  0  0  0  0  0  0  0  0  0  0  0
  -27.4210  -19.1110   19.0750 N   0  0  0  0  0  0  0  0  0  0  0  0
  -29.4800  -19.9300   18.6440 O   0  0  0  0  0  0  0  0  0  0  0  0
  -26.8860  -18.4630   19.6350 H   0  0  0  0  0  0  0  0  0  0  0  0
  -29.1540  -18.3330   20.3860 C   0  0  0  0  0  3  0  0  0  0  0  0
  -30.4600  -18.0690   20.5650 C   0  0  0  0  0  3  0  0  0  0  0  0
  -31.0200  -17.2360   21.6990 C   0  0  0  0  0  2  0  0  0  0  0  0
  -31.2510  -14.9250   20.7840 C   0  0  0  0  0  0  0  0  0  0  0  0
  -30.9940  -12.7280   19.6930 C   0  0  0  0  0  2  0  0  0  0  0  0
  -30.1450  -12.8810   18.4150 C   0  0  0  0  0  2  0  0  0  0  0  0
  -28.6400  -12.7760   18.7370 C   0  0  0  0  0  2  0  0  0  0  0  0
  -28.2230  -13.6900   19.9190 C   0  0  0  0  0  3  0  0  0  0  0  0
  -29.1870  -13.5140   21.1140 C   0  0  0  0  0  2  0  0  0  0  0  0
  -30.5660  -13.7600   20.6470 N   0  0  0  0  0  0  0  0  0  0  0  0
  -32.3300  -15.1560   20.2270 O   0  0  0  0  0  0  0  0  0  0  0  0
  -30.6450  -15.8350   21.5540 N   0  0  0  0  0  0  0  0  0  0  0  0
  -29.8000  -15.5350   22.0190 H   0  0  0  0  0  0  0  0  0  0  0  0
  -25.8130  -14.3750   20.5130 C   0  0  0  0  0  0  0  0  0  0  0  0
  -24.6980  -13.6410   20.8070 C   0  0  0  0  0  0  0  0  0  0  0  0
  -25.1070  -12.2700   20.7680 C   0  0  0  0  0  0  0  0  0  0  0  0
  -26.8340  -13.4600   20.3130 N   0  0  0  0  0  0  0  0  0  0  0  0
  -26.4080  -12.1860   20.5230 N   0  0  0  0  0  0  0  0  0  0  0  0
  -24.3250  -11.0340   20.8910 C   0  0  0  0  0  0  0  0  0  0  0  0
  -24.6360  -10.0570   21.8630 C   0  0  0  0  0  3  0  0  0  0  0  0
  -23.8580   -8.8840   21.9680 C   0  0  0  0  0  3  0  0  0  0  0  0
  -22.7610   -8.6780   21.1010 C   0  0  0  0  0  0  0  0  0  0  0  0
  -22.4690   -9.6440   20.1230 C   0  0  0  0  0  3  0  0  0  0  0  0
  -23.2440  -10.8100   20.0160 C   0  0  0  0  0  3  0  0  0  0  0  0
  -21.9660   -7.5580   21.1160 O   0  0  0  0  0  0  0  0  0  0  0  0
  -21.7270   -6.8620   22.2730 C   0  0  0  0  0  0  0  0  0  0  0  0
  -21.1150   -7.4660   23.3930 C   0  0  0  0  0  3  0  0  0  0  0  0
  -20.8210   -6.6950   24.5350 C   0  0  0  0  0  3  0  0  0  0  0  0
  -21.1310   -5.3220   24.5580 C   0  0  0  0  0  0  0  0  0  0  0  0
  -21.7360   -4.7170   23.4430 C   0  0  0  0  0  3  0  0  0  0  0  0
  -22.0290   -5.4850   22.3020 C   0  0  0  0  0  0  0  0  0  0  0  0
  -22.5930   -4.8930   21.2230 F   0  0  0  0  0  0  0  0  0  0  0  0
  -20.8430   -4.5800   25.6530 F   0  0  0  0  0  0  0  0  0  0  0  0
  -23.3080  -14.1670   21.0220 C   0  0  0  0  0  0  0  0  0  0  0  0
  -22.5160  -13.4860   21.8400 N   0  0  0  0  0  0  0  0  0  0  0  0
  -22.9330  -15.2190   20.5050 O   0  0  0  0  0  0  0  0  0  0  0  0
  -22.8310  -12.6320   22.2770 H   0  0  0  0  0  0  0  0  0  0  0  0
  -21.5840  -13.8210   22.0350 H   0  0  0  0  0  0  0  0  0  0  0  0
  -26.0440  -15.7410   20.3760 N   0  0  0  0  0  0  0  0  0  0  0  0
  -25.2870  -16.4140   20.4160 H   0  0  0  0  0  0  0  0  0  0  0  0
  -26.9230  -16.1290   20.0650 H   0  0  0  0  0  0  0  0  0  0  0  0
  2  1  1  0
  2  3  1  0
  4  3  1  0
  4  6  1  0
  5  4  1  0
  7  8  1  0
  7  4  1  0
  9 11  1  0
  9  8  1  0
 10 21  2  0
 11 16  1  0
 12 20  1  0
 12 22  1  0
 13 19  1  0
 13 15  1  0
 14 20  1  0
 15 14  1  0
 16 15  2  0
 17 18  1  0
 17 11  2  0
 18 13  2  0
 19 12  1  0
 20 10  1  0
 22 24  2  0
 23 22  1  0
 25 23  1  0
 26 35  2  0
 26 31  1  0
 27 23  1  0
 27 31  1  0
 28 27  1  0
 29 30  1  0
 29 28  1  0
 30 26  1  0
 31 32  2  0
 32 33  1  0
 34 33  2  0
 35 34  1  0
 36 10  1  0
 36 41  1  0
 36 37  1  0
 37 40  1  1
 37 38  1  0
 39 37  1  0
 41 44  1  0
 42 46  1  0
 42 41  1  0
 43 42  2  0
 46 45  1  0
 48 46  1  0
 48 49  1  0
 48 47  1  0
 50  1  1  0
 51 50  1  0
 51 53  1  0
 52 56  1  0
 53 52  1  0
 53 55  1  0
 54 52  2  0
 56 57  2  0
 57 58  1  0
 59 67  1  0
 60 65  1  0
 61 62  1  0
 61 60  1  0
 63 62  1  0
 63 72  1  0
 63 64  1  0
 65 59  1  0
 65 64  1  0
 66 59  2  0
 67 58  1  0
 67 68  1  0
 69 70  2  0
 70 89  1  0
 71 70  1  0
 71 74  1  0
 72 69  1  0
 72 73  1  0
 73 71  2  0
 74 75  1  0
 75 76  2  0
 77 80  1  0
 77 76  1  0
 78 77  2  0
 79 78  1  0
 79 74  2  0
 80 81  1  0
 81 86  2  0
 81 82  1  0
 82 83  2  0
 83 84  1  0
 84 88  1  0
 85 84  2  0
 86 85  1  0
 87 86  1  0
 89 90  1  0
 90 93  1  0
 90 92  1  0
 91 89  2  0
 94 95  1  0
 94 69  1  0
 96 94  1  0
M  ISO  4   8 101   9 101  59 100  67 100
M  END
>  <TORSDO>  (63) 
F 26

>  <SCORE>  (63) 
-8.888

>  <name>  (63) 
63

>  <ligand_id>  (63) 
63

>  <original_smiles>  (63) 
[H]C(C(=O)N([H])C([H])([H])C([H])([H])C([H])([H])C([H])([H])C([H])([H])[N+]([H])([H])C([H])([H])C([H])([H])Oc1c([H])c([H])c2c(c1[H])C([H])([H])N(C(=O)C([H])(N([H])C(=O)C([H])(N([H])C([H])([H])[H])C([H])([H])[H])C(C([H])([H])[H])(C([H])([H])[H])C([H])([H])[H])C([H])(C(=O)N([H])C1([H])c3c([H])c([H])c([H])c([H])c3C([H])([H])C([H])([H])C1([H])[H])C2([H])[H])=C([H])C([H])([H])N([H])C(=O)N1C([H])([H])C([H])([H])C([H])([H])C([H])(n2nc(-c3c([H])c([H])c(Oc4c([H])c([H])c(F)c([H])c4F)c([H])c3[H])c(C(=O)N([H])[H])c2N([H])[H])C1([H])[H]

>  <smiles>  (63) 
[H]C(C(=O)N([H])C([H])([H])C([H])([H])C([H])([H])C([H])([H])C([H])([H])[N+]([H])([H])C([H])([H])C([H])([H])Oc1c([H])c([H])c2c(c1[H])C([H])([H])N(C(=O)C([H])(N([H])C(=O)C([H])(N([H])C([H])([H])[H])C([H])([H])[H])C(C([H])([H])[H])(C([H])([H])[H])C([H])([H])[H])C([H])(C(=O)N([H])C1([H])c3c([H])c([H])c([H])c([H])c3C([H])([H])C([H])([H])C1([H])[H])C2([H])[H])=C([H])C([H])([H])N([H])C(=O)N1C([H])([H])C([H])([H])C([H])([H])C([H])(n2nc(-c3c([H])c([H])c(Oc4c([H])c([H])c(F)c([H])c4F)c([H])c3[H])c(C(=O)N([H])[H])c2N([H])[H])C1([H])[H]

$$$$
64:0:0
     RDKit          3D

104111  0  0  1  0  0  0  0  0999 V2000
  -27.1980  -26.5320   15.2270 C   0  0  0  0  0  2  0  0  0  0  0  0
  -28.0860  -25.8500   14.1620 C   0  0  0  0  0  2  0  0  0  0  0  0
  -29.4710  -23.7680   14.3270 C   0  0  0  0  0  0  0  0  0  0  0  0
  -29.0140  -24.9270   14.8090 N   0  0  0  0  0  0  0  0  0  0  0  0
  -29.3540  -23.4260   13.1490 O   0  0  0  0  0  0  0  0  0  0  0  0
  -29.2190  -25.1140   15.7790 H   0  0  0  0  0  0  0  0  0  0  0  0
  -29.4450  -21.7260   15.5920 C   0  0  0  0  0  3  0  0  0  0  0  0
  -29.9790  -22.9480   15.4100 C   0  0  0  0  0  3  0  0  0  0  0  0
  -29.7590  -20.8340   16.6890 C   0  0  0  0  0  3  0  0  0  0  0  0
  -28.9960  -19.7490   16.9030 C   0  0  0  0  0  3  0  0  0  0  0  0
  -29.1190  -18.7050   17.9960 C   0  0  0  0  0  2  0  0  0  0  0  0
  -30.2900  -18.8520   18.9780 C   0  0  0  0  0  2  0  0  0  0  0  0
  -30.1840  -17.7580   20.0520 C   0  0  0  0  0  2  0  0  0  0  0  0
  -31.4290  -17.6100   20.9400 C   0  0  0  0  0  2  0  0  0  0  0  0
  -31.2700  -16.5460   22.0510 C   0  0  0  0  0  2  0  0  0  0  0  0
  -31.0870  -14.4820   20.6540 C   0  0  0  0  0  0  0  0  0  0  0  0
  -30.6670  -12.4450   19.3340 C   0  0  0  0  0  2  0  0  0  0  0  0
  -29.7620  -12.7260   18.1210 C   0  0  0  0  0  2  0  0  0  0  0  0
  -28.2770  -12.6260   18.5130 C   0  0  0  0  0  2  0  0  0  0  0  0
  -27.9420  -13.4460   19.7860 C   0  0  0  0  0  3  0  0  0  0  0  0
  -28.9550  -13.1470   20.9150 C   0  0  0  0  0  2  0  0  0  0  0  0
  -30.3170  -13.3920   20.4020 N   0  0  0  0  0  0  0  0  0  0  0  0
  -32.1460  -14.7150   20.0640 O   0  0  0  0  0  0  0  0  0  0  0  0
  -30.6300  -15.3060   21.6040 N   0  0  0  0  0  0  0  0  0  0  0  0
  -29.7630  -15.0460   22.0520 H   0  0  0  0  0  0  0  0  0  0  0  0
  -25.5410  -14.1220   20.4320 C   0  0  0  0  0  0  0  0  0  0  0  0
  -24.4380  -13.3810   20.7560 C   0  0  0  0  0  0  0  0  0  0  0  0
  -24.8560  -12.0150   20.7150 C   0  0  0  0  0  0  0  0  0  0  0  0
  -26.5650  -13.2120   20.2190 N   0  0  0  0  0  0  0  0  0  0  0  0
  -26.1510  -11.9380   20.4440 N   0  0  0  0  0  0  0  0  0  0  0  0
  -24.0840  -10.7740   20.8610 C   0  0  0  0  0  0  0  0  0  0  0  0
  -24.4550   -9.7790   21.7910 C   0  0  0  0  0  3  0  0  0  0  0  0
  -23.6880   -8.6020   21.9250 C   0  0  0  0  0  3  0  0  0  0  0  0
  -22.5330   -8.4130   21.1280 C   0  0  0  0  0  0  0  0  0  0  0  0
  -22.1810   -9.3960   20.1860 C   0  0  0  0  0  3  0  0  0  0  0  0
  -22.9500  -10.5640   20.0510 C   0  0  0  0  0  3  0  0  0  0  0  0
  -21.7410   -7.2910   21.1720 O   0  0  0  0  0  0  0  0  0  0  0  0
  -21.6160   -6.5430   22.3150 C   0  0  0  0  0  0  0  0  0  0  0  0
  -21.1760   -7.1060   23.5330 C   0  0  0  0  0  3  0  0  0  0  0  0
  -20.9960   -6.2870   24.6640 C   0  0  0  0  0  3  0  0  0  0  0  0
  -21.2450   -4.9040   24.5800 C   0  0  0  0  0  0  0  0  0  0  0  0
  -21.6790   -4.3400   23.3680 C   0  0  0  0  0  3  0  0  0  0  0  0
  -21.8610   -5.1560   22.2380 C   0  0  0  0  0  0  0  0  0  0  0  0
  -22.2580   -4.6030   21.0670 F   0  0  0  0  0  0  0  0  0  0  0  0
  -21.0650   -4.1150   25.6650 F   0  0  0  0  0  0  0  0  0  0  0  0
  -23.0470  -13.8980   20.9980 C   0  0  0  0  0  0  0  0  0  0  0  0
  -22.2770  -13.2190   21.8410 N   0  0  0  0  0  0  0  0  0  0  0  0
  -22.6540  -14.9410   20.4760 O   0  0  0  0  0  0  0  0  0  0  0  0
  -22.6060  -12.3740   22.2850 H   0  0  0  0  0  0  0  0  0  0  0  0
  -21.3430  -13.5470   22.0430 H   0  0  0  0  0  0  0  0  0  0  0  0
  -25.7600  -15.4900   20.2820 N   0  0  0  0  0  0  0  0  0  0  0  0
  -25.0220  -16.1780   20.3890 H   0  0  0  0  0  0  0  0  0  0  0  0
  -26.6420  -15.8960   19.9980 H   0  0  0  0  0  0  0  0  0  0  0  0
  -25.7430  -26.0290   15.3760 C   0  0  0  0  0  2  0  0  0  0  0  0
  -25.4780  -24.5100   15.3460 C   0  0  0  0  0  2  0  0  0  0  0  0
  -26.1690  -23.7010   16.4230 C   0  0  0  0  0  3  0  0  0  0  0  0
  -25.8040  -23.6130   17.7120 C   0  0  0  0  0  3  0  0  0  0  0  0
  -26.4960  -22.7240   18.7330 C   0  0  0  0  0  2  0  0  0  0  0  0
  -27.8040  -23.2570   19.1830 N   0  0  0  0  0  4  0  0  0  0  0  0
  -28.4120  -23.3770   18.3880 H   0  0  0  0  0  0  0  0  0  0  0  0
  -28.2270  -22.5410   19.7540 H   0  0  0  0  0  0  0  0  0  0  0  0
  -27.7650  -24.4980   19.9960 C   0  0  0  0  0  2  0  0  0  0  0  0
  -28.4530  -25.6910   19.2880 C   0  0  0  0  0  2  0  0  0  0  0  0
  -28.3690  -26.9030   20.0400 O   0  0  0  0  0  0  0  0  0  0  0  0
  -24.5700  -31.9800   23.2640 C   0  0  0  0  0  0  0  0  0  0  0  0
  -27.1790  -27.5990   20.0600 C   0  0  0  0  0  0  0  0  0  0  0  0
  -23.3460  -30.6080   21.6090 C   0  0  0  0  0  3  0  0  0  0  0  0
  -24.7790  -29.0960   20.1480 C   0  0  0  0  0  0  0  0  0  0  0  0
  -25.8680  -30.9640   21.3950 C   0  0  0  0  0  2  0  0  0  0  0  0
  -25.9440  -29.6040   20.7350 C   0  0  0  0  0  0  0  0  0  0  0  0
  -27.1430  -28.8590   20.6990 C   0  0  0  0  0  3  0  0  0  0  0  0
  -25.9920  -27.1160   19.4580 C   0  0  0  0  0  3  0  0  0  0  0  0
  -24.7950  -27.8470   19.5120 C   0  0  0  0  0  3  0  0  0  0  0  0
  -23.5410  -29.9550   20.2170 C   0  0  0  0  0  2  0  0  0  0  0  0
  -24.6130  -31.1960   22.1500 N   0  0  0  0  0  0  0  0  0  0  0  0
  -23.4940  -32.2470   23.8180 O   0  0  0  0  0  0  0  0  0  0  0  0
  -22.7030  -29.5680   22.5580 C   0  0  0  0  0  0  0  0  0  0  0  0
  -21.3760  -29.3980   22.4470 N   0  0  0  0  0  0  0  0  0  0  0  0
  -23.3940  -28.9190   23.3470 O   0  0  0  0  0  0  0  0  0  0  0  0
  -20.8800  -29.9780   21.7830 H   0  0  0  0  0  0  0  0  0  0  0  0
  -18.0040  -28.2230   22.9660 C   0  0  0  0  0  0  0  0  0  0  0  0
  -20.5660  -28.4510   23.2120 C   0  0  0  0  0  3  0  0  0  0  0  0
  -20.6500  -27.0310   22.6040 C   0  0  0  0  0  2  0  0  0  0  0  0
  -19.5300  -26.7350   21.6030 C   0  0  0  0  0  2  0  0  0  0  0  0
  -18.1590  -26.8810   22.2700 C   0  0  0  0  0  2  0  0  0  0  0  0
  -19.1350  -28.9650   23.3970 C   0  0  0  0  0  0  0  0  0  0  0  0
  -18.9370  -30.2200   24.0120 C   0  0  0  0  0  3  0  0  0  0  0  0
  -17.6410  -30.7350   24.1960 C   0  0  0  0  0  3  0  0  0  0  0  0
  -16.5240  -29.9880   23.7860 C   0  0  0  0  0  3  0  0  0  0  0  0
  -16.7070  -28.7330   23.1770 C   0  0  0  0  0  3  0  0  0  0  0  0
  -25.8650  -32.5960   23.8800 C   0  0  0  0  0  3  0  0  0  0  0  0
  -25.5680  -33.9950   24.2240 N   0  0  0  0  0  0  0  0  0  0  0  0
  -25.9030  -35.0500   23.4700 C   0  0  0  0  0  0  0  0  0  0  0  0
  -26.5710  -34.9510   22.4360 O   0  0  0  0  0  0  0  0  0  0  0  0
  -24.9760  -34.1490   25.0250 H   0  0  0  0  0  0  0  0  0  0  0  0
  -24.1870  -36.8530   23.1330 C   0  0  0  0  0  1  0  0  0  0  0  0
  -25.4270  -36.4360   23.9380 C   0  0  0  0  0  3  0  0  0  0  0  0
  -27.5700  -37.3010   24.7670 C   0  0  0  0  0  1  0  0  0  0  0  0
  -26.4650  -37.4830   23.8290 N   0  0  0  0  0  0  0  0  0  0  0  0
  -26.0660  -38.4030   23.9880 H   0  0  0  0  0  0  0  0  0  0  0  0
  -26.3930  -31.8060   25.1400 C   0  0  1  0  0  0  0  0  0  0  0  0
  -25.3130  -31.5640   26.2200 C   0  0  0  0  0  1  0  0  0  0  0  0
  -26.9620  -30.4280   24.7200 C   0  0  0  0  0  1  0  0  0  0  0  0
  -27.5570  -32.5830   25.7990 C   0  0  0  0  0  1  0  0  0  0  0  0
  1 54  1  0
  2  4  1  0
  2  1  1  0
  3  4  1  0
  3  8  1  0
  4  6  1  0
  5  3  2  0
  7  9  1  0
  8  7  2  0
  9 10  2  0
 10 11  1  0
 11 12  1  0
 12 13  1  0
 13 14  1  0
 14 15  1  0
 16 24  1  0
 17 22  1  0
 18 19  1  0
 18 17  1  0
 20 19  1  0
 20 29  1  0
 20 21  1  0
 22 16  1  0
 22 21  1  0
 23 16  2  0
 24 15  1  0
 24 25  1  0
 26 27  2  0
 27 46  1  0
 28 27  1  0
 28 31  1  0
 29 26  1  0
 29 30  1  0
 30 28  2  0
 31 32  1  0
 32 33  2  0
 34 37  1  0
 34 33  1  0
 35 34  2  0
 36 35  1  0
 36 31  2  0
 37 38  1  0
 38 39  1  0
 39 40  2  0
 41 40  1  0
 41 45  1  0
 42 41  2  0
 43 38  2  0
 43 42  1  0
 44 43  1  0
 46 47  1  0
 47 50  1  0
 47 49  1  0
 48 46  2  0
 51 52  1  0
 51 26  1  0
 53 51  1  0
 55 54  1  0
 55 56  1  0
 56 57  2  0
 57 58  1  0
 58 59  1  0
 59 61  1  0
 59 62  1  0
 60 59  1  0
 63 62  1  0
 63 64  1  0
 64 66  1  0
 65 76  2  0
 66 71  1  0
 67 75  1  0
 67 77  1  0
 68 74  1  0
 68 70  1  0
 69 75  1  0
 70 69  1  0
 71 70  2  0
 72 73  1  0
 72 66  2  0
 73 68  2  0
 74 67  1  0
 75 65  1  0
 77 79  2  0
 78 77  1  0
 80 78  1  0
 81 90  2  0
 81 86  1  0
 82 78  1  0
 82 86  1  0
 83 82  1  0
 84 85  1  0
 84 83  1  0
 85 81  1  0
 86 87  2  0
 87 88  1  0
 89 88  2  0
 90 89  1  0
 91 65  1  0
 91 92  1  0
 91101  1  0
 92 95  1  0
 93 97  1  0
 93 92  1  0
 94 93  2  0
 97 96  1  0
 99 97  1  0
 99100  1  0
 99 98  1  0
101104  1  1
101102  1  0
103101  1  0
M  ISO  4  16 100  24 100  63 101  64 101
M  END
>  <TORSDO>  (64) 
F 32

>  <SCORE>  (64) 
-9.140

>  <name>  (64) 
64

>  <ligand_id>  (64) 
64

>  <original_smiles>  (64) 
[H]C(C(=O)N([H])C([H])([H])C([H])([H])C([H])([H])C([H])([H])C([H])=C([H])C([H])([H])[N+]([H])([H])C([H])([H])C([H])([H])Oc1c([H])c([H])c2c(c1[H])C([H])([H])N(C(=O)C([H])(N([H])C(=O)C([H])(N([H])C([H])([H])[H])C([H])([H])[H])C(C([H])([H])[H])(C([H])([H])[H])C([H])([H])[H])C([H])(C(=O)N([H])C1([H])c3c([H])c([H])c([H])c([H])c3C([H])([H])C([H])([H])C1([H])[H])C2([H])[H])=C([H])C([H])=C([H])C([H])([H])C([H])([H])C([H])([H])C([H])([H])C([H])([H])N([H])C(=O)N1C([H])([H])C([H])([H])C([H])([H])C([H])(n2nc(-c3c([H])c([H])c(Oc4c([H])c([H])c(F)c([H])c4F)c([H])c3[H])c(C(=O)N([H])[H])c2N([H])[H])C1([H])[H]

>  <smiles>  (64) 
[H]C(C(=O)N([H])C([H])([H])C([H])([H])C([H])([H])C([H])([H])C([H])=C([H])C([H])([H])[N+]([H])([H])C([H])([H])C([H])([H])Oc1c([H])c([H])c2c(c1[H])C([H])([H])N(C(=O)C([H])(N([H])C(=O)C([H])(N([H])C([H])([H])[H])C([H])([H])[H])C(C([H])([H])[H])(C([H])([H])[H])C([H])([H])[H])C([H])(C(=O)N([H])C1([H])c3c([H])c([H])c([H])c([H])c3C([H])([H])C([H])([H])C1([H])[H])C2([H])[H])=C([H])C([H])=C([H])C([H])([H])C([H])([H])C([H])([H])C([H])([H])C([H])([H])N([H])C(=O)N1C([H])([H])C([H])([H])C([H])([H])C([H])(n2nc(-c3c([H])c([H])c(Oc4c([H])c([H])c(F)c([H])c4F)c([H])c3[H])c(C(=O)N([H])[H])c2N([H])[H])C1([H])[H]

$$$$
65:0:0
     RDKit          3D

 97104  0  0  1  0  0  0  0  0999 V2000
  -24.8380  -21.9150   21.4750 C   0  0  0  0  0  2  0  0  0  0  0  0
  -24.2560  -23.2130   20.8810 C   0  0  0  0  0  2  0  0  0  0  0  0
  -25.0780  -24.4730   21.2160 C   0  0  0  0  0  2  0  0  0  0  0  0
  -26.2600  -24.6340   20.3330 N   0  0  0  0  0  4  0  0  0  0  0  0
  -25.9230  -24.6350   19.3830 H   0  0  0  0  0  0  0  0  0  0  0  0
  -26.8780  -23.8450   20.4400 H   0  0  0  0  0  0  0  0  0  0  0  0
  -27.0170  -25.8880   20.5720 C   0  0  0  0  0  2  0  0  0  0  0  0
  -27.9110  -26.3040   19.3710 C   0  0  0  0  0  2  0  0  0  0  0  0
  -28.0770  -27.7300   19.3080 O   0  0  0  0  0  0  0  0  0  0  0  0
  -24.5550  -31.9810   23.7450 C   0  0  0  0  0  0  0  0  0  0  0  0
  -26.9210  -28.4510   19.5060 C   0  0  0  0  0  0  0  0  0  0  0  0
  -23.2130  -30.9860   21.9200 C   0  0  0  0  0  3  0  0  0  0  0  0
  -24.5390  -29.8540   20.0630 C   0  0  0  0  0  0  0  0  0  0  0  0
  -25.7140  -31.4230   21.6160 C   0  0  0  0  0  2  0  0  0  0  0  0
  -25.7410  -30.2510   20.6610 C   0  0  0  0  0  0  0  0  0  0  0  0
  -26.9380  -29.5570   20.3810 C   0  0  0  0  0  3  0  0  0  0  0  0
  -25.7050  -28.0700   18.8960 C   0  0  0  0  0  3  0  0  0  0  0  0
  -24.5140  -28.7610   19.1800 C   0  0  0  0  0  3  0  0  0  0  0  0
  -23.3050  -30.6550   20.4080 C   0  0  0  0  0  2  0  0  0  0  0  0
  -24.5150  -31.4640   22.4840 N   0  0  0  0  0  0  0  0  0  0  0  0
  -23.5240  -32.1010   24.4190 O   0  0  0  0  0  0  0  0  0  0  0  0
  -22.6420  -29.7570   22.6620 C   0  0  0  0  0  0  0  0  0  0  0  0
  -21.3420  -29.4860   22.4570 N   0  0  0  0  0  0  0  0  0  0  0  0
  -23.3630  -29.0570   23.3770 O   0  0  0  0  0  0  0  0  0  0  0  0
  -20.8130  -30.1150   21.8710 H   0  0  0  0  0  0  0  0  0  0  0  0
  -18.0840  -27.9340   22.6010 C   0  0  0  0  0  0  0  0  0  0  0  0
  -20.5990  -28.3600   23.0210 C   0  0  0  0  0  3  0  0  0  0  0  0
  -20.8480  -27.0640   22.2160 C   0  0  0  0  0  2  0  0  0  0  0  0
  -19.8100  -26.8280   21.1150 C   0  0  0  0  0  2  0  0  0  0  0  0
  -18.4040  -26.7410   21.7150 C   0  0  0  0  0  2  0  0  0  0  0  0
  -19.1160  -28.7040   23.2020 C   0  0  0  0  0  0  0  0  0  0  0  0
  -18.7670  -29.8260   23.9850 C   0  0  0  0  0  3  0  0  0  0  0  0
  -17.4190  -30.1770   24.1800 C   0  0  0  0  0  3  0  0  0  0  0  0
  -16.4010  -29.4040   23.5970 C   0  0  0  0  0  3  0  0  0  0  0  0
  -16.7330  -28.2840   22.8120 C   0  0  0  0  0  3  0  0  0  0  0  0
  -25.8910  -32.4700   24.3880 C   0  0  0  0  0  3  0  0  0  0  0  0
  -25.7720  -33.9170   24.6080 N   0  0  0  0  0  0  0  0  0  0  0  0
  -26.3210  -34.8540   23.8220 C   0  0  0  0  0  0  0  0  0  0  0  0
  -27.0500  -34.5820   22.8660 O   0  0  0  0  0  0  0  0  0  0  0  0
  -25.1470  -34.2140   25.3430 H   0  0  0  0  0  0  0  0  0  0  0  0
  -24.9340  -36.8540   23.1940 C   0  0  0  0  0  1  0  0  0  0  0  0
  -26.0120  -36.3270   24.1540 C   0  0  0  0  0  3  0  0  0  0  0  0
  -28.1500  -36.9610   25.1770 C   0  0  0  0  0  1  0  0  0  0  0  0
  -27.2000  -37.2040   24.0960 N   0  0  0  0  0  0  0  0  0  0  0  0
  -26.9270  -38.1820   24.1280 H   0  0  0  0  0  0  0  0  0  0  0  0
  -26.2420  -31.7260   25.7350 C   0  0  1  0  0  0  0  0  0  0  0  0
  -25.0740  -31.6860   26.7460 C   0  0  0  0  0  1  0  0  0  0  0  0
  -26.6780  -30.2690   25.4550 C   0  0  0  0  0  1  0  0  0  0  0  0
  -27.4420  -32.4200   26.4200 C   0  0  0  0  0  1  0  0  0  0  0  0
  -25.1740  -20.8450   20.4190 C   0  0  0  0  0  2  0  0  0  0  0  0
  -27.2640  -21.2910   19.1470 C   0  0  0  0  0  3  0  0  0  0  0  0
  -25.9430  -21.4130   19.3150 N   0  0  0  0  0  0  0  0  0  0  0  0
  -27.9740  -20.6070   19.8910 O   0  0  0  0  0  0  0  0  0  0  0  0
  -25.4420  -21.9610   18.6270 H   0  0  0  0  0  0  0  0  0  0  0  0
  -27.8790  -22.0750   17.9800 C   0  0  0  0  0  2  0  0  0  0  0  0
  -29.2930  -22.2230   18.1250 O   0  0  0  0  0  0  0  0  0  0  0  0
  -29.7550  -23.4570   18.6570 C   0  0  0  0  0  2  0  0  0  0  0  0
  -31.1420  -23.1970   19.2570 C   0  0  0  0  0  2  0  0  0  0  0  0
  -31.1450  -22.4220   20.5940 C   0  0  0  0  0  2  0  0  0  0  0  0
  -33.0670  -21.4690   21.9420 C   0  0  0  0  0  0  0  0  0  0  0  0
  -34.1350  -19.2700   22.0810 C   0  0  0  0  0  2  0  0  0  0  0  0
  -34.2560  -18.7310   20.6410 C   0  0  0  0  0  2  0  0  0  0  0  0
  -32.9770  -17.9740   20.2300 C   0  0  0  0  0  2  0  0  0  0  0  0
  -31.6760  -18.7620   20.5490 C   0  0  0  0  0  3  0  0  0  0  0  0
  -31.7070  -19.3520   21.9800 C   0  0  0  0  0  2  0  0  0  0  0  0
  -32.9450  -20.1290   22.1100 N   0  0  0  0  0  0  0  0  0  0  0  0
  -34.0550  -22.1040   22.3090 O   0  0  0  0  0  0  0  0  0  0  0  0
  -32.4980  -21.9180   20.8140 N   0  0  0  0  0  0  0  0  0  0  0  0
  -33.1630  -22.4770   20.3020 H   0  0  0  0  0  0  0  0  0  0  0  0
  -29.2260  -18.3430   19.8910 C   0  0  0  0  0  0  0  0  0  0  0  0
  -28.5000  -17.1930   19.7460 C   0  0  0  0  0  0  0  0  0  0  0  0
  -29.3810  -16.1270   20.0970 C   0  0  0  0  0  0  0  0  0  0  0  0
  -30.4850  -17.9520   20.3150 N   0  0  0  0  0  0  0  0  0  0  0  0
  -30.5530  -16.6070   20.4920 N   0  0  0  0  0  0  0  0  0  0  0  0
  -29.1910  -14.6730   20.0260 C   0  0  0  0  0  0  0  0  0  0  0  0
  -29.0240  -13.8970   21.1940 C   0  0  0  0  0  3  0  0  0  0  0  0
  -28.8280  -12.5020   21.1060 C   0  0  0  0  0  3  0  0  0  0  0  0
  -28.7990  -11.8690   19.8390 C   0  0  0  0  0  0  0  0  0  0  0  0
  -28.9860  -12.6430   18.6800 C   0  0  0  0  0  3  0  0  0  0  0  0
  -29.1860  -14.0310   18.7710 C   0  0  0  0  0  3  0  0  0  0  0  0
  -28.6440  -10.5170   19.6570 O   0  0  0  0  0  0  0  0  0  0  0  0
  -27.6910   -9.8030   20.3400 C   0  0  0  0  0  0  0  0  0  0  0  0
  -26.3110  -10.0280   20.1450 C   0  0  0  0  0  3  0  0  0  0  0  0
  -25.3660   -9.2260   20.8140 C   0  0  0  0  0  3  0  0  0  0  0  0
  -25.7970   -8.1940   21.6720 C   0  0  0  0  0  0  0  0  0  0  0  0
  -27.1700   -7.9680   21.8640 C   0  0  0  0  0  3  0  0  0  0  0  0
  -28.1150   -8.7690   21.1970 C   0  0  0  0  0  0  0  0  0  0  0  0
  -29.4380   -8.5320   21.3680 F   0  0  0  0  0  0  0  0  0  0  0  0
  -24.8900   -7.4180   22.3100 F   0  0  0  0  0  0  0  0  0  0  0  0
  -27.0960  -17.0810   19.2300 C   0  0  0  0  0  0  0  0  0  0  0  0
  -26.3340  -16.1180   19.7350 N   0  0  0  0  0  0  0  0  0  0  0  0
  -26.6510  -17.8830   18.4080 O   0  0  0  0  0  0  0  0  0  0  0  0
  -26.6920  -15.4730   20.4250 H   0  0  0  0  0  0  0  0  0  0  0  0
  -25.3780  -16.0180   19.4270 H   0  0  0  0  0  0  0  0  0  0  0  0
  -28.9130  -19.6780   19.6790 N   0  0  0  0  0  2  0  0  0  0  0  0
  -27.9860  -19.9550   19.3780 H   0  0  0  0  0  0  0  0  0  0  0  0
  -29.4820  -20.4750   19.9390 H   0  0  0  0  0  0  0  0  0  0  0  0
  2  3  1  0
  2  1  1  0
  4  6  1  0
  4  7  1  0
  4  3  1  0
  5  4  1  0
  8  7  1  0
  9  8  1  0
  9 11  1  0
 10 21  2  0
 11 16  1  0
 12 20  1  0
 12 22  1  0
 13 19  1  0
 13 15  1  0
 14 20  1  0
 15 14  1  0
 16 15  2  0
 17 18  1  0
 17 11  2  0
 18 13  2  0
 19 12  1  0
 20 10  1  0
 22 24  2  0
 23 22  1  0
 25 23  1  0
 26 35  2  0
 26 31  1  0
 27 23  1  0
 27 31  1  0
 28 27  1  0
 29 30  1  0
 29 28  1  0
 30 26  1  0
 31 32  2  0
 32 33  1  0
 34 33  2  0
 35 34  1  0
 36 10  1  0
 36 37  1  0
 36 46  1  0
 37 40  1  0
 38 42  1  0
 38 37  1  0
 39 38  2  0
 42 41  1  0
 44 45  1  0
 44 42  1  0
 44 43  1  0
 46 49  1  1
 46 47  1  0
 48 46  1  0
 50  1  1  0
 51 55  1  0
 51 52  1  0
 51 53  1  0
 52 50  1  0
 54 52  1  0
 55 56  1  0
 56 57  1  0
 57 58  1  0
 58 59  1  0
 59 68  1  0
 60 66  1  0
 60 67  2  0
 61 66  1  0
 62 61  1  0
 63 62  1  0
 64 63  1  0
 64 65  1  0
 65 66  1  0
 68 60  1  0
 69 68  1  0
 70 73  1  0
 71 70  2  0
 71 72  1  0
 72 74  2  0
 73 74  1  0
 73 64  1  0
 75 72  1  0
 75 76  1  0
 77 76  2  0
 78 77  1  0
 79 80  1  0
 79 78  2  0
 80 75  2  0
 81 78  1  0
 81 82  1  0
 82 87  1  0
 83 82  2  0
 83 84  1  0
 84 85  2  0
 85 86  1  0
 85 89  1  0
 87 88  1  0
 87 86  2  0
 90 91  1  0
 90 71  1  0
 91 93  1  0
 92 90  2  0
 94 91  1  0
 95 70  1  0
 95 97  1  0
 96 53  1  0
M  ISO  4   8 101   9 101  60 100  68 100
M  END
>  <TORSDO>  (65) 
F 28

>  <SCORE>  (65) 
1.033

>  <name>  (65) 
65

>  <ligand_id>  (65) 
65

>  <original_smiles>  (65) 
[H]c1c([H])c([H])c2c(c1[H])C([H])([H])C([H])([H])C([H])([H])C2([H])N([H])C(=O)C1([H])N(C(=O)C([H])(N([H])C(=O)C([H])(N([H])C([H])([H])[H])C([H])([H])[H])C(C([H])([H])[H])(C([H])([H])[H])C([H])([H])[H])C([H])([H])c2c([H])c(OC([H])([H])C([H])([H])[N+]([H])([H])C([H])([H])C([H])([H])C([H])([H])C([H])([H])N([H])C(=O)C([H])([H])OC([H])([H])C([H])([H])C([H])([H])N([H])C(=O)N3C([H])([H])C([H])([H])C([H])([H])C([H])(n4nc(-c5c([H])c([H])c(Oc6c([H])c([H])c(F)c([H])c6F)c([H])c5[H])c(C(=O)N([H])[H])c4N([H])[H])C3([H])[H])c([H])c([H])c2C1([H])[H]

>  <smiles>  (65) 
[H]c1c([H])c([H])c2c(c1[H])C([H])([H])C([H])([H])C([H])([H])C2([H])N([H])C(=O)C1([H])N(C(=O)C([H])(N([H])C(=O)C([H])(N([H])C([H])([H])[H])C([H])([H])[H])C(C([H])([H])[H])(C([H])([H])[H])C([H])([H])[H])C([H])([H])c2c([H])c(OC([H])([H])C([H])([H])[N+]([H])([H])C([H])([H])C([H])([H])C([H])([H])C([H])([H])N([H])C(=O)C([H])([H])OC([H])([H])C([H])([H])C([H])([H])N([H])C(=O)N3C([H])([H])C([H])([H])C([H])([H])C([H])(n4nc(-c5c([H])c([H])c(Oc6c([H])c([H])c(F)c([H])c6F)c([H])c5[H])c(C(=O)N([H])[H])c4N([H])[H])C3([H])[H])c([H])c([H])c2C1([H])[H]

$$$$
66:0:0
     RDKit          3D

 97104  0  0  1  0  0  0  0  0999 V2000
  -32.0560  -22.7660   15.3380 C   0  0  0  0  0  2  0  0  0  0  0  0
  -32.0610  -23.3440   16.6840 N   0  0  0  0  0  0  0  0  0  0  0  0
  -33.0160  -23.5770   16.9650 H   0  0  0  0  0  0  0  0  0  0  0  0
  -31.2430  -24.4920   16.8270 N   0  0  0  0  0  0  0  0  0  0  0  0
  -31.8390  -25.2910   17.0500 H   0  0  0  0  0  0  0  0  0  0  0  0
  -30.2190  -24.3370   17.8630 C   0  0  0  0  0  2  0  0  0  0  0  0
  -29.6360  -25.6740   18.3420 C   0  0  0  0  0  2  0  0  0  0  0  0
  -28.6930  -25.5120   19.5430 C   0  0  0  0  0  2  0  0  0  0  0  0
  -28.4810  -26.7890   20.1400 O   0  0  0  0  0  0  0  0  0  0  0  0
  -24.6260  -31.8650   23.2230 C   0  0  0  0  0  0  0  0  0  0  0  0
  -27.2610  -27.4340   20.1150 C   0  0  0  0  0  0  0  0  0  0  0  0
  -23.4080  -30.4610   21.5910 C   0  0  0  0  0  3  0  0  0  0  0  0
  -24.8510  -28.9200   20.1590 C   0  0  0  0  0  0  0  0  0  0  0  0
  -25.9310  -30.8190   21.3770 C   0  0  0  0  0  2  0  0  0  0  0  0
  -26.0080  -29.4490   20.7390 C   0  0  0  0  0  0  0  0  0  0  0  0
  -27.2090  -28.7090   20.7200 C   0  0  0  0  0  3  0  0  0  0  0  0
  -26.0780  -26.9110   19.5360 C   0  0  0  0  0  3  0  0  0  0  0  0
  -24.8790  -27.6480   19.5620 C   0  0  0  0  0  3  0  0  0  0  0  0
  -23.6070  -29.7780   20.2120 C   0  0  0  0  0  2  0  0  0  0  0  0
  -24.6730  -31.0640   22.1210 N   0  0  0  0  0  0  0  0  0  0  0  0
  -23.5500  -32.1400   23.7700 O   0  0  0  0  0  0  0  0  0  0  0  0
  -22.7630  -29.4420   22.5570 C   0  0  0  0  0  0  0  0  0  0  0  0
  -21.4380  -29.2650   22.4390 N   0  0  0  0  0  0  0  0  0  0  0  0
  -23.4520  -28.8140   23.3660 O   0  0  0  0  0  0  0  0  0  0  0  0
  -20.9440  -29.8240   21.7580 H   0  0  0  0  0  0  0  0  0  0  0  0
  -18.0630  -28.0830   22.9550 C   0  0  0  0  0  0  0  0  0  0  0  0
  -20.6230  -28.3310   23.2160 C   0  0  0  0  0  3  0  0  0  0  0  0
  -20.7160  -26.8990   22.6410 C   0  0  0  0  0  2  0  0  0  0  0  0
  -19.6090  -26.5800   21.6310 C   0  0  0  0  0  2  0  0  0  0  0  0
  -18.2310  -26.7320   22.2810 C   0  0  0  0  0  2  0  0  0  0  0  0
  -19.1870  -28.8420   23.3780 C   0  0  0  0  0  0  0  0  0  0  0  0
  -18.9760  -30.1070   23.9660 C   0  0  0  0  0  3  0  0  0  0  0  0
  -17.6740  -30.6160   24.1350 C   0  0  0  0  0  3  0  0  0  0  0  0
  -16.5650  -29.8550   23.7280 C   0  0  0  0  0  3  0  0  0  0  0  0
  -16.7600  -28.5900   23.1440 C   0  0  0  0  0  3  0  0  0  0  0  0
  -25.9180  -32.4950   23.8340 C   0  0  0  0  0  3  0  0  0  0  0  0
  -26.4530  -31.7150   25.0980 C   0  0  1  0  0  0  0  0  0  0  0  0
  -25.3740  -31.4700   26.1800 C   0  0  0  0  0  1  0  0  0  0  0  0
  -27.0320  -30.3420   24.6890 C   0  0  0  0  0  1  0  0  0  0  0  0
  -27.6120  -32.5070   25.7510 C   0  0  0  0  0  1  0  0  0  0  0  0
  -25.6110  -33.8900   24.1740 N   0  0  0  0  0  0  0  0  0  0  0  0
  -25.9380  -34.9460   23.4160 C   0  0  0  0  0  0  0  0  0  0  0  0
  -26.6010  -34.8480   22.3800 O   0  0  0  0  0  0  0  0  0  0  0  0
  -25.0210  -34.0410   24.9790 H   0  0  0  0  0  0  0  0  0  0  0  0
  -24.2030  -36.7350   23.0820 C   0  0  0  0  0  1  0  0  0  0  0  0
  -25.4510  -36.3310   23.8820 C   0  0  0  0  0  3  0  0  0  0  0  0
  -27.5940  -37.2120   24.6960 C   0  0  0  0  0  1  0  0  0  0  0  0
  -26.4800  -37.3870   23.7670 N   0  0  0  0  0  0  0  0  0  0  0  0
  -26.0750  -38.3050   23.9270 H   0  0  0  0  0  0  0  0  0  0  0  0
  -32.9220  -21.4990   15.2410 C   0  0  0  0  0  2  0  0  0  0  0  0
  -32.2350  -20.2640   15.8550 C   0  0  0  0  0  2  0  0  0  0  0  0
  -33.1680  -19.1310   16.0460 N   0  0  0  0  0  4  0  0  0  0  0  0
  -33.5770  -18.8790   15.1600 H   0  0  0  0  0  0  0  0  0  0  0  0
  -33.9100  -19.4340   16.6560 H   0  0  0  0  0  0  0  0  0  0  0  0
  -32.5300  -17.9380   16.6390 C   0  0  0  0  0  2  0  0  0  0  0  0
  -33.5550  -16.9060   17.1480 C   0  0  0  0  0  2  0  0  0  0  0  0
  -32.8580  -15.7040   17.8070 C   0  0  0  0  0  2  0  0  0  0  0  0
  -33.8140  -14.7460   18.5450 C   0  0  0  0  0  2  0  0  0  0  0  0
  -33.1250  -13.4580   19.0450 C   0  0  0  0  0  2  0  0  0  0  0  0
  -31.1410  -14.0720   20.4000 C   0  0  0  0  0  0  0  0  0  0  0  0
  -30.2370  -12.0530   19.4410 C   0  0  0  0  0  2  0  0  0  0  0  0
  -29.4370  -12.4660   18.2030 C   0  0  0  0  0  2  0  0  0  0  0  0
  -27.9580  -12.4670   18.6000 C   0  0  0  0  0  2  0  0  0  0  0  0
  -27.6680  -13.3260   19.8620 C   0  0  0  0  0  3  0  0  0  0  0  0
  -28.7660  -13.2050   20.9730 C   0  0  0  0  0  2  0  0  0  0  0  0
  -30.1440  -13.1420   20.4070 N   0  0  0  0  0  0  0  0  0  0  0  0
  -31.0610  -15.2640   20.5530 O   0  0  0  0  0  0  0  0  0  0  0  0
  -32.3930  -13.6010   20.3160 N   0  0  0  0  0  0  0  0  0  0  0  0
  -32.9760  -14.0920   20.9770 H   0  0  0  0  0  0  0  0  0  0  0  0
  -25.2360  -13.9190   20.5190 C   0  0  0  0  0  0  0  0  0  0  0  0
  -24.1560  -13.1480   20.8670 C   0  0  0  0  0  0  0  0  0  0  0  0
  -24.6210  -11.7980   20.8720 C   0  0  0  0  0  0  0  0  0  0  0  0
  -26.3010  -13.0470   20.3440 N   0  0  0  0  0  0  0  0  0  0  0  0
  -25.9260  -11.7630   20.6130 N   0  0  0  0  0  0  0  0  0  0  0  0
  -23.8810  -10.5360   21.0550 C   0  0  0  0  0  0  0  0  0  0  0  0
  -24.2950   -9.5650   21.9970 C   0  0  0  0  0  3  0  0  0  0  0  0
  -23.5570   -8.3730   22.1730 C   0  0  0  0  0  3  0  0  0  0  0  0
  -22.3900   -8.1400   21.4080 C   0  0  0  0  0  0  0  0  0  0  0  0
  -21.9920   -9.0970   20.4570 C   0  0  0  0  0  3  0  0  0  0  0  0
  -22.7310  -10.2810   20.2790 C   0  0  0  0  0  3  0  0  0  0  0  0
  -21.6260   -7.0000   21.4950 O   0  0  0  0  0  0  0  0  0  0  0  0
  -21.5760   -6.2500   22.6430 C   0  0  0  0  0  0  0  0  0  0  0  0
  -21.1810   -6.8070   23.8800 C   0  0  0  0  0  3  0  0  0  0  0  0
  -21.0770   -5.9850   25.0210 C   0  0  0  0  0  3  0  0  0  0  0  0
  -21.3580   -4.6090   24.9250 C   0  0  0  0  0  0  0  0  0  0  0  0
  -21.7480   -4.0520   23.6940 C   0  0  0  0  0  3  0  0  0  0  0  0
  -21.8540   -4.8710   22.5560 C   0  0  0  0  0  0  0  0  0  0  0  0
  -22.2090   -4.3250   21.3670 F   0  0  0  0  0  0  0  0  0  0  0  0
  -21.2540   -3.8160   26.0180 F   0  0  0  0  0  0  0  0  0  0  0  0
  -22.7470  -13.6240   21.0890 C   0  0  0  0  0  0  0  0  0  0  0  0
  -21.9950  -12.9420   21.9470 N   0  0  0  0  0  0  0  0  0  0  0  0
  -22.3200  -14.6380   20.5390 O   0  0  0  0  0  0  0  0  0  0  0  0
  -22.3440  -12.1160   22.4090 H   0  0  0  0  0  0  0  0  0  0  0  0
  -21.0530  -13.2490   22.1430 H   0  0  0  0  0  0  0  0  0  0  0  0
  -25.4000  -15.2860   20.3160 N   0  0  0  0  0  0  0  0  0  0  0  0
  -24.6370  -15.9500   20.3900 H   0  0  0  0  0  0  0  0  0  0  0  0
  -26.2750  -15.7210   20.0460 H   0  0  0  0  0  0  0  0  0  0  0  0
  1  2  1  0
  2  4  1  0
  2  3  1  0
  4  5  1  0
  4  6  1  0
  6  7  1  0
  7  8  1  0
  8  9  1  0
 10 21  2  0
 11  9  1  0
 11 16  1  0
 12 20  1  0
 12 22  1  0
 13 19  1  0
 13 15  1  0
 14 20  1  0
 15 14  1  0
 16 15  2  0
 17 18  1  0
 17 11  2  0
 18 13  2  0
 19 12  1  0
 20 10  1  0
 22 24  2  0
 23 22  1  0
 25 23  1  0
 26 35  2  0
 26 31  1  0
 27 23  1  0
 27 31  1  0
 28 27  1  0
 29 30  1  0
 29 28  1  0
 30 26  1  0
 31 32  2  0
 32 33  1  0
 34 33  2  0
 35 34  1  0
 36 10  1  0
 36 41  1  0
 36 37  1  0
 37 40  1  1
 37 38  1  0
 39 37  1  0
 41 44  1  0
 42 46  1  0
 42 41  1  0
 43 42  2  0
 46 45  1  0
 48 46  1  0
 48 49  1  0
 48 47  1  0
 50  1  1  0
 50 51  1  0
 51 52  1  0
 52 55  1  0
 52 54  1  0
 53 52  1  0
 55 56  1  0
 56 57  1  0
 57 58  1  0
 58 59  1  0
 59 68  1  0
 60 66  1  0
 60 67  2  0
 61 66  1  0
 62 63  1  0
 62 61  1  0
 64 63  1  0
 64 73  1  0
 64 65  1  0
 66 65  1  0
 68 60  1  0
 68 69  1  0
 70 71  2  0
 71 72  1  0
 71 90  1  0
 72 75  1  0
 73 70  1  0
 73 74  1  0
 74 72  2  0
 75 76  1  0
 76 77  2  0
 78 81  1  0
 78 77  1  0
 79 78  2  0
 80 79  1  0
 80 75  2  0
 81 82  1  0
 82 83  1  0
 83 84  2  0
 85 84  1  0
 85 89  1  0
 86 85  2  0
 87 82  2  0
 87 86  1  0
 88 87  1  0
 90 91  1  0
 91 94  1  0
 91 93  1  0
 92 90  2  0
 95 96  1  0
 95 70  1  0
 97 95  1  0
M  ISO  4   8 101   9 101  60 100  68 100
M  END
>  <TORSDO>  (66) 
F 29

>  <SCORE>  (66) 
-10.709

>  <name>  (66) 
66

>  <ligand_id>  (66) 
66

>  <original_smiles>  (66) 
[H]c1c([H])c([H])c2c(c1[H])C([H])([H])C([H])([H])C([H])([H])C2([H])N([H])C(=O)C1([H])N(C(=O)C([H])(N([H])C(=O)C([H])(N([H])C([H])([H])[H])C([H])([H])[H])C(C([H])([H])[H])(C([H])([H])[H])C([H])([H])[H])C([H])([H])c2c([H])c(OC([H])([H])C([H])([H])C([H])([H])N([H])N([H])C([H])([H])C([H])([H])C([H])([H])[N+]([H])([H])C([H])([H])C([H])([H])C([H])([H])C([H])([H])C([H])([H])N([H])C(=O)N3C([H])([H])C([H])([H])C([H])([H])C([H])(n4nc(-c5c([H])c([H])c(Oc6c([H])c([H])c(F)c([H])c6F)c([H])c5[H])c(C(=O)N([H])[H])c4N([H])[H])C3([H])[H])c([H])c([H])c2C1([H])[H]

>  <smiles>  (66) 
[H]c1c([H])c([H])c2c(c1[H])C([H])([H])C([H])([H])C([H])([H])C2([H])N([H])C(=O)C1([H])N(C(=O)C([H])(N([H])C(=O)C([H])(N([H])C([H])([H])[H])C([H])([H])[H])C(C([H])([H])[H])(C([H])([H])[H])C([H])([H])[H])C([H])([H])c2c([H])c(OC([H])([H])C([H])([H])C([H])([H])N([H])N([H])C([H])([H])C([H])([H])C([H])([H])[N+]([H])([H])C([H])([H])C([H])([H])C([H])([H])C([H])([H])C([H])([H])N([H])C(=O)N3C([H])([H])C([H])([H])C([H])([H])C([H])(n4nc(-c5c([H])c([H])c(Oc6c([H])c([H])c(F)c([H])c6F)c([H])c5[H])c(C(=O)N([H])[H])c4N([H])[H])C3([H])[H])c([H])c([H])c2C1([H])[H]

$$$$
67:0:0
     RDKit          3D

116119  0  0  1  0  0  0  0  0999 V2000
  -21.0350  -28.1600   20.7320 C   0  0  0  0  0  0  0  0  0  0  0  0
  -22.3430  -27.5820   20.3460 N   0  0  0  0  0  0  0  0  0  0  0  0
  -20.7210  -29.4570   20.3100 N   0  0  0  0  0  0  0  0  0  0  0  0
  -19.9240  -27.8140   21.5310 N   0  0  0  0  0  0  0  0  0  0  0  0
  -22.7180  -28.1270   19.5920 H   0  0  0  0  0  0  0  0  0  0  0  0
  -21.3570  -29.8980   19.6650 H   0  0  0  0  0  0  0  0  0  0  0  0
  -19.0850  -28.3180   21.2730 H   0  0  0  0  0  0  0  0  0  0  0  0
  -19.3570  -26.5590   23.5530 C   0  0  0  0  0  1  0  0  0  0  0  0
  -19.0600  -24.9740   23.8620 C   0  0  0  0  0  2  0  0  0  0  0  0
  -20.2100  -24.0410   24.4500 C   0  0  0  0  0  2  0  0  0  0  0  0
  -20.8920  -22.9300   23.5460 C   0  0  0  0  0  2  0  0  0  0  0  0
  -22.4550  -22.9120   23.2780 C   0  0  0  0  0  2  0  0  0  0  0  0
  -22.9160  -21.7180   22.3360 C   0  0  0  0  0  2  0  0  0  0  0  0
  -24.4580  -21.3470   22.2200 C   0  0  0  0  0  2  0  0  0  0  0  0
  -24.8490  -20.5460   20.9080 C   0  0  0  0  0  2  0  0  0  0  0  0
  -26.8870  -18.9370   20.8780 C   0  0  0  0  0  0  0  0  0  0  0  0
  -25.5610  -19.2270   20.9140 N   0  0  0  0  0  0  0  0  0  0  0  0
  -27.7300  -19.6300   21.4420 O   0  0  0  0  0  0  0  0  0  0  0  0
  -24.9600  -18.4930   20.5370 H   0  0  0  0  0  0  0  0  0  0  0  0
  -27.1920  -17.8110   19.9810 C   0  0  0  0  0  3  0  0  0  0  0  0
  -28.2750  -16.9750   19.9430 C   0  0  0  0  0  3  0  0  0  0  0  0
  -29.5230  -16.8120   20.8330 C   0  0  0  0  0  2  0  0  0  0  0  0
  -30.5730  -14.4790   20.5990 C   0  0  0  0  0  0  0  0  0  0  0  0
  -30.4250  -12.2810   19.4190 C   0  0  0  0  0  2  0  0  0  0  0  0
  -29.5040  -12.5240   18.2210 C   0  0  0  0  0  2  0  0  0  0  0  0
  -28.0200  -12.3760   18.6210 C   0  0  0  0  0  2  0  0  0  0  0  0
  -27.6550  -13.1840   19.8850 C   0  0  0  0  0  3  0  0  0  0  0  0
  -28.6850  -12.8810   20.9770 C   0  0  0  0  0  2  0  0  0  0  0  0
  -30.0240  -13.2370   20.4670 N   0  0  0  0  0  0  0  0  0  0  0  0
  -31.6670  -14.7760   20.1310 O   0  0  0  0  0  0  0  0  0  0  0  0
  -29.7160  -15.3860   21.1240 N   0  0  0  0  0  0  0  0  0  0  0  0
  -28.9130  -14.9780   21.5690 H   0  0  0  0  0  0  0  0  0  0  0  0
  -25.2550  -13.8090   20.5850 C   0  0  0  0  0  0  0  0  0  0  0  0
  -24.1810  -13.0340   20.9140 C   0  0  0  0  0  0  0  0  0  0  0  0
  -24.6420  -11.6800   20.8640 C   0  0  0  0  0  0  0  0  0  0  0  0
  -26.2900  -12.9240   20.3370 N   0  0  0  0  0  0  0  0  0  0  0  0
  -25.9290  -11.6350   20.5520 N   0  0  0  0  0  0  0  0  0  0  0  0
  -23.9120  -10.4250   21.0370 C   0  0  0  0  0  0  0  0  0  0  0  0
  -24.3580   -9.4230   21.9240 C   0  0  0  0  0  3  0  0  0  0  0  0
  -23.6250   -8.2290   22.0780 C   0  0  0  0  0  3  0  0  0  0  0  0
  -22.4280   -8.0310   21.3580 C   0  0  0  0  0  0  0  0  0  0  0  0
  -21.9930   -9.0320   20.4740 C   0  0  0  0  0  3  0  0  0  0  0  0
  -22.7250  -10.2200   20.3090 C   0  0  0  0  0  3  0  0  0  0  0  0
  -21.6610   -6.8940   21.4330 O   0  0  0  0  0  0  0  0  0  0  0  0
  -21.6870   -6.0770   22.5360 C   0  0  0  0  0  0  0  0  0  0  0  0
  -21.4010   -6.5650   23.8290 C   0  0  0  0  0  3  0  0  0  0  0  0
  -21.3610   -5.6780   24.9240 C   0  0  0  0  0  3  0  0  0  0  0  0
  -21.6010   -4.3040   24.7270 C   0  0  0  0  0  0  0  0  0  0  0  0
  -21.8780   -3.8160   23.4380 C   0  0  0  0  0  3  0  0  0  0  0  0
  -21.9160   -4.6990   22.3450 C   0  0  0  0  0  0  0  0  0  0  0  0
  -22.1630   -4.2190   21.1010 F   0  0  0  0  0  0  0  0  0  0  0  0
  -21.5660   -3.4540   25.7770 F   0  0  0  0  0  0  0  0  0  0  0  0
  -22.7850  -13.5240   21.1880 C   0  0  0  0  0  0  0  0  0  0  0  0
  -22.0370  -12.8240   22.0350 N   0  0  0  0  0  0  0  0  0  0  0  0
  -22.3510  -14.5600   20.6810 O   0  0  0  0  0  0  0  0  0  0  0  0
  -22.3970  -11.9930   22.4680 H   0  0  0  0  0  0  0  0  0  0  0  0
  -21.1000  -13.1370   22.2720 H   0  0  0  0  0  0  0  0  0  0  0  0
  -25.4470  -15.1730   20.4710 N   0  0  0  0  0  0  0  0  0  0  0  0
  -24.7030  -15.8270   20.6560 H   0  0  0  0  0  0  0  0  0  0  0  0
  -26.3720  -15.5850   20.4240 H   0  0  0  0  0  0  0  0  0  0  0  0
  -19.6270  -30.4680   20.7210 C   0  0  0  0  0  2  0  0  0  0  0  0
  -19.9930  -31.8640   21.4720 C   0  0  0  0  0  2  0  0  0  0  0  0
  -19.6510  -32.1800   22.8770 O   0  0  0  0  0  0  0  0  0  0  0  0
  -20.7060  -32.4970   23.8600 C   0  0  0  0  0  2  0  0  0  0  0  0
  -20.4180  -32.5770   25.4330 C   0  0  0  0  0  2  0  0  0  0  0  0
  -20.7910  -31.3800   26.2210 O   0  0  0  0  0  0  0  0  0  0  0  0
  -20.1030  -31.0590   27.4720 C   0  0  0  0  0  2  0  0  0  0  0  0
  -19.8600  -29.5270   27.7490 C   0  0  0  0  0  2  0  0  0  0  0  0
  -18.3710  -29.1290   27.5230 C   0  0  0  0  0  2  0  0  0  0  0  0
  -17.9990  -27.7340   27.8550 N   0  0  0  0  0  4  0  0  0  0  0  0
  -18.5540  -27.0480   27.3790 H   0  0  0  0  0  0  0  0  0  0  0  0
  -17.0390  -27.5850   27.5870 H   0  0  0  0  0  0  0  0  0  0  0  0
  -18.0490  -27.5530   28.8420 H   0  0  0  0  0  0  0  0  0  0  0  0
  -23.4700  -26.3890   20.4500 C   0  0  0  0  0  2  0  0  0  0  0  0
  -25.0220  -26.4550   21.2570 C   0  0  0  0  0  2  0  0  0  0  0  0
  -26.5520  -26.3650   20.7810 O   0  0  0  0  0  0  0  0  0  0  0  0
  -24.7240  -31.9140   23.2710 C   0  0  0  0  0  0  0  0  0  0  0  0
  -26.9570  -27.4130   20.0460 C   0  0  0  0  0  3  0  0  0  0  0  0
  -23.5170  -30.5610   21.6410 C   0  0  0  0  0  3  0  0  0  0  0  0
  -24.9220  -29.2470   19.9270 C   0  0  0  0  0  3  0  0  0  0  0  0
  -26.0420  -30.8320   21.4740 C   0  0  0  0  0  2  0  0  0  0  0  0
  -26.0460  -29.5420   20.7000 C   0  0  0  0  0  0  0  0  0  0  0  0
  -27.1140  -28.6350   20.7480 C   0  0  0  0  0  3  0  0  0  0  0  0
  -26.0870  -27.3390   18.9680 C   0  0  0  0  0  3  0  0  0  0  0  0
  -24.9860  -28.2160   18.9700 C   0  0  0  0  0  3  0  0  0  0  0  0
  -23.7420  -30.1460   20.1480 C   0  0  0  0  0  2  0  0  0  0  0  0
  -24.7740  -31.1330   22.1740 N   0  0  0  0  0  0  0  0  0  0  0  0
  -23.6590  -32.1810   23.8380 O   0  0  0  0  0  0  0  0  0  0  0  0
  -22.9530  -29.4980   22.6290 C   0  0  0  0  0  0  0  0  0  0  0  0
  -21.6470  -29.4360   22.8340 N   0  0  0  0  0  0  0  0  0  0  0  0
  -23.6860  -28.7560   23.2790 O   0  0  0  0  0  0  0  0  0  0  0  0
  -21.1000  -30.1120   22.3290 H   0  0  0  0  0  0  0  0  0  0  0  0
  -17.8430  -28.1720   22.6200 C   0  0  0  0  0  0  0  0  0  0  0  0
  -20.9190  -28.3760   23.5310 C   0  0  0  0  0  2  0  0  0  0  0  0
  -21.4470  -26.5430   22.6820 C   0  0  0  0  0 15  0  0  0  0  0  0
  -19.9260  -25.5850   21.4950 C   0  0  0  0  0 15  0  0  0  0  0  0
  -18.0220  -26.5090   21.6250 C   0  0  0  0  0  1  0  0  0  0  0  0
  -19.0840  -28.9400   23.4360 C   0  0  0  0  0  0  0  0  0  0  0  0
  -18.7750  -30.0530   24.1460 C   0  0  0  0  0  3  0  0  0  0  0  0
  -17.4890  -30.5880   24.1920 C   0  0  0  0  0  3  0  0  0  0  0  0
  -16.4210  -29.9450   23.5450 C   0  0  0  0  0  3  0  0  0  0  0  0
  -16.5840  -28.7550   22.8000 C   0  0  0  0  0  3  0  0  0  0  0  0
  -26.0250  -32.5010   23.8720 C   0  0  0  0  0  3  0  0  0  0  0  0
  -25.7200  -33.8810   24.2530 N   0  0  0  0  0  0  0  0  0  0  0  0
  -25.9450  -34.9620   23.4950 C   0  0  0  0  0  0  0  0  0  0  0  0
  -26.5550  -34.9050   22.4250 O   0  0  0  0  0  0  0  0  0  0  0  0
  -25.1870  -33.9900   25.1000 H   0  0  0  0  0  0  0  0  0  0  0  0
  -24.1530  -36.7140   23.2610 C   0  0  0  0  0  1  0  0  0  0  0  0
  -25.4300  -36.3190   24.0240 C   0  0  0  0  0  3  0  0  0  0  0  0
  -27.5630  -37.1890   24.8510 C   0  0  0  0  0  1  0  0  0  0  0  0
  -26.4390  -37.3970   23.9370 N   0  0  0  0  0  0  0  0  0  0  0  0
  -26.0280  -38.3060   24.1310 H   0  0  0  0  0  0  0  0  0  0  0  0
  -26.5110  -31.6600   25.1090 C   0  0  1  0  0  0  0  0  0  0  0  0
  -25.3930  -31.3610   26.1230 C   0  0  0  0  0  1  0  0  0  0  0  0
  -27.0580  -30.2840   24.6740 C   0  0  0  0  0  1  0  0  0  0  0  0
  -27.6540  -32.4040   25.8340 C   0  0  0  0  0  1  0  0  0  0  0  0
  1  4  2  0
  2 74  1  0
  2  1  1  0
  3 61  1  0
  3  1  1  0
  5  2  1  0
  6  3  1  0
  7  4  1  0
  8  9  1  0
  9 10  1  0
 11 10  1  0
 12 11  1  0
 13 12  1  0
 14 13  1  0
 15 17  1  0
 15 14  1  0
 16 17  1  0
 16 18  2  0
 19 17  1  0
 20 16  1  0
 21 20  2  0
 21 22  1  0
 22 31  1  0
 23 31  1  0
 24 29  1  0
 25 26  1  0
 25 24  1  0
 27 26  1  0
 27 36  1  0
 27 28  1  0
 29 23  1  0
 29 28  1  0
 30 23  2  0
 31 32  1  0
 33 34  2  0
 34 53  1  0
 35 34  1  0
 35 38  1  0
 36 37  1  0
 36 33  1  0
 37 35  2  0
 38 39  1  0
 39 40  2  0
 41 44  1  0
 41 40  1  0
 42 41  2  0
 43 42  1  0
 43 38  2  0
 44 45  1  0
 45 46  1  0
 46 47  2  0
 48 47  1  0
 48 52  1  0
 49 48  2  0
 50 45  2  0
 50 49  1  0
 51 50  1  0
 53 54  1  0
 54 57  1  0
 54 56  1  0
 55 53  2  0
 58 33  1  0
 58 59  1  0
 60 58  1  0
 61 62  1  0
 62 63  1  0
 63 64  1  0
 64 65  1  0
 65 66  1  0
 66 67  1  0
 67 68  1  0
 69 68  1  0
 69 70  1  0
 70 73  1  0
 71 70  1  0
 72 70  1  0
 74 75  1  0
 76 75  1  0
 77 88  2  0
 78 83  1  0
 78 76  1  0
 79 87  1  0
 79 89  1  0
 80 85  1  0
 80 86  1  0
 80 82  1  0
 81 87  1  0
 82 83  2  0
 82 81  1  0
 84 85  2  0
 84 78  1  0
 86 79  1  0
 87 77  1  0
 89 90  1  0
 89 91  2  0
 90 94  1  0
 92 90  1  0
 93102  2  0
 93 98  1  0
 97 93  1  0
 98 94  1  0
 98 99  2  0
 99100  1  0
101100  2  0
102101  1  0
103 77  1  0
103104  1  0
103113  1  0
104107  1  0
105109  1  0
105104  1  0
106105  2  0
109108  1  0
111109  1  0
111112  1  0
111110  1  0
113116  1  1
113114  1  0
115113  1  0
M  ISO  4  23 100  31 100  75 101  76 101
M  END
>  <TORSDO>  (67) 
F 39

>  <SCORE>  (67) 
80.755

>  <name>  (67) 
67

>  <ligand_id>  (67) 
67

>  <original_smiles>  (67) 
[H]C(C(=O)N([H])C([H])([H])C([H])([H])C([H])([H])C([H])([H])C([H])([H])C([H])([H])C([H])([H])C([H])([H])[N+]([H])=C(N([H])C([H])([H])C([H])([H])Oc1c([H])c([H])c2c(c1[H])C([H])([H])N(C(=O)C([H])(N([H])C(=O)C([H])(N([H])C([H])([H])[H])C([H])([H])[H])C(C([H])([H])[H])(C([H])([H])[H])C([H])([H])[H])C([H])(C(=O)N([H])C1([H])c3c([H])c([H])c([H])c([H])c3C([H])([H])C([H])([H])C1([H])[H])C2([H])[H])N([H])C([H])([H])C([H])([H])OC([H])([H])C([H])([H])OC([H])([H])C([H])([H])C([H])([H])[N+]([H])([H])[H])=C([H])C([H])([H])N([H])C(=O)N1C([H])([H])C([H])([H])C([H])([H])C([H])(n2nc(-c3c([H])c([H])c(Oc4c([H])c([H])c(F)c([H])c4F)c([H])c3[H])c(C(=O)N([H])[H])c2N([H])[H])C1([H])[H]

>  <smiles>  (67) 
[H]C(C(=O)N([H])C([H])([H])C([H])([H])C([H])([H])C([H])([H])C([H])([H])C([H])([H])C([H])([H])C([H])([H])[N+]([H])=C(N([H])C([H])([H])C([H])([H])Oc1c([H])c([H])c2c(c1[H])C([H])([H])N(C(=O)C([H])(N([H])C(=O)C([H])(N([H])C([H])([H])[H])C([H])([H])[H])C(C([H])([H])[H])(C([H])([H])[H])C([H])([H])[H])C([H])(C(=O)N([H])C1([H])c3c([H])c([H])c([H])c([H])c3C([H])([H])C([H])([H])C1([H])[H])C2([H])[H])N([H])C([H])([H])C([H])([H])OC([H])([H])C([H])([H])OC([H])([H])C([H])([H])C([H])([H])[N+]([H])([H])[H])=C([H])C([H])([H])N([H])C(=O)N1C([H])([H])C([H])([H])C([H])([H])C([H])(n2nc(-c3c([H])c([H])c(Oc4c([H])c([H])c(F)c([H])c4F)c([H])c3[H])c(C(=O)N([H])[H])c2N([H])[H])C1([H])[H]

$$$$
68:0:0
     RDKit          3D

 96103  0  0  1  0  0  0  0  0999 V2000
  -28.9000  -21.2830   23.4880 C   0  0  0  0  0  2  0  0  0  0  0  0
  -30.1740  -20.9870   24.3040 C   0  0  0  0  0  2  0  0  0  0  0  0
  -31.3480  -20.4090   23.4900 C   0  0  0  0  0  2  0  0  0  0  0  0
  -31.0940  -18.9960   22.9390 C   0  0  0  0  0  2  0  0  0  0  0  0
  -31.9650  -18.6810   21.7110 C   0  0  0  0  0  2  0  0  0  0  0  0
  -32.1720  -17.2270   21.5560 N   0  0  0  0  0  4  0  0  0  0  0  0
  -31.3550  -16.7460   21.8870 H   0  0  0  0  0  0  0  0  0  0  0  0
  -32.9490  -16.9590   22.1390 H   0  0  0  0  0  0  0  0  0  0  0  0
  -32.4310  -16.7800   20.1720 C   0  0  0  0  0  2  0  0  0  0  0  0
  -33.0240  -15.3600   20.1240 C   0  0  0  0  0  2  0  0  0  0  0  0
  -32.1460  -13.0800   19.6440 C   0  0  0  0  0  0  0  0  0  0  0  0
  -31.9000  -10.7530   20.3930 C   0  0  0  0  0  2  0  0  0  0  0  0
  -31.0420   -9.8530   19.4930 C   0  0  0  0  0  2  0  0  0  0  0  0
  -29.5580   -9.9730   19.8690 C   0  0  0  0  0  2  0  0  0  0  0  0
  -29.0840  -11.4470   19.9340 C   0  0  0  0  0  3  0  0  0  0  0  0
  -30.0450  -12.3100   20.7840 C   0  0  0  0  0  2  0  0  0  0  0  0
  -31.4230  -12.1370   20.2890 N   0  0  0  0  0  0  0  0  0  0  0  0
  -33.0440  -12.8290   18.8350 O   0  0  0  0  0  0  0  0  0  0  0  0
  -32.0160  -14.2950   20.1920 N   0  0  0  0  0  0  0  0  0  0  0  0
  -31.3400  -14.3420   20.9410 H   0  0  0  0  0  0  0  0  0  0  0  0
  -26.9220  -12.6540   20.6470 C   0  0  0  0  0  0  0  0  0  0  0  0
  -25.6890  -12.1840   21.0150 C   0  0  0  0  0  0  0  0  0  0  0  0
  -25.7850  -10.7590   20.9770 C   0  0  0  0  0  0  0  0  0  0  0  0
  -27.7040  -11.5340   20.4150 N   0  0  0  0  0  0  0  0  0  0  0  0
  -27.0200  -10.3880   20.6680 N   0  0  0  0  0  0  0  0  0  0  0  0
  -24.7550   -9.7270   21.1640 C   0  0  0  0  0  0  0  0  0  0  0  0
  -24.7220   -8.9180   22.3220 C   0  0  0  0  0  3  0  0  0  0  0  0
  -23.7120   -7.9460   22.4850 C   0  0  0  0  0  3  0  0  0  0  0  0
  -22.7200   -7.7770   21.4890 C   0  0  0  0  0  0  0  0  0  0  0  0
  -22.7720   -8.5690   20.3300 C   0  0  0  0  0  3  0  0  0  0  0  0
  -23.7810   -9.5330   20.1650 C   0  0  0  0  0  3  0  0  0  0  0  0
  -21.7160   -6.8400   21.5510 O   0  0  0  0  0  0  0  0  0  0  0  0
  -21.0160   -6.6110   22.7090 C   0  0  0  0  0  0  0  0  0  0  0  0
  -20.2700   -7.6300   23.3410 C   0  0  0  0  0  3  0  0  0  0  0  0
  -19.5090   -7.3350   24.4890 C   0  0  0  0  0  3  0  0  0  0  0  0
  -19.4840   -6.0230   25.0010 C   0  0  0  0  0  0  0  0  0  0  0  0
  -20.2230   -5.0070   24.3700 C   0  0  0  0  0  3  0  0  0  0  0  0
  -20.9840   -5.3000   23.2250 C   0  0  0  0  0  0  0  0  0  0  0  0
  -21.6770   -4.3130   22.6080 F   0  0  0  0  0  0  0  0  0  0  0  0
  -18.7470   -5.7370   26.1000 F   0  0  0  0  0  0  0  0  0  0  0  0
  -24.4640  -13.0060   21.2910 C   0  0  0  0  0  0  0  0  0  0  0  0
  -23.6210  -12.5590   22.2170 N   0  0  0  0  0  0  0  0  0  0  0  0
  -24.2710  -14.0800   20.7220 O   0  0  0  0  0  0  0  0  0  0  0  0
  -23.7880  -11.6880   22.6990 H   0  0  0  0  0  0  0  0  0  0  0  0
  -22.7960  -13.0950   22.4450 H   0  0  0  0  0  0  0  0  0  0  0  0
  -27.4360  -13.9360   20.4740 N   0  0  0  0  0  0  0  0  0  0  0  0
  -26.8680  -14.7680   20.5880 H   0  0  0  0  0  0  0  0  0  0  0  0
  -28.3730  -14.1380   20.1480 H   0  0  0  0  0  0  0  0  0  0  0  0
  -29.1590  -22.0240   22.1620 C   0  0  0  0  0  2  0  0  0  0  0  0
  -27.9410  -22.1140   21.3330 N   0  0  0  0  0  4  0  0  0  0  0  0
  -27.2810  -22.7080   21.8100 H   0  0  0  0  0  0  0  0  0  0  0  0
  -27.5270  -21.1970   21.2540 H   0  0  0  0  0  0  0  0  0  0  0  0
  -28.1710  -22.6610   19.9790 C   0  0  0  0  0  2  0  0  0  0  0  0
  -26.8510  -22.8980   19.2250 C   0  0  0  0  0  2  0  0  0  0  0  0
  -27.0260  -23.7600   17.9650 C   0  0  0  0  0  2  0  0  0  0  0  0
  -25.7680  -23.9600   17.3340 O   0  0  0  0  0  0  0  0  0  0  0  0
  -24.1260  -27.2750   23.4300 C   0  0  0  0  0  0  0  0  0  0  0  0
  -24.8670  -24.7010   18.0570 C   0  0  0  0  0  0  0  0  0  0  0  0
  -22.3070  -27.1070   21.7580 C   0  0  0  0  0  3  0  0  0  0  0  0
  -23.0060  -26.2980   19.4430 C   0  0  0  0  0  0  0  0  0  0  0  0
  -24.7570  -27.1260   21.0280 C   0  0  0  0  0  2  0  0  0  0  0  0
  -24.3470  -26.2740   19.8490 C   0  0  0  0  0  0  0  0  0  0  0  0
  -25.2820  -25.4720   19.1610 C   0  0  0  0  0  3  0  0  0  0  0  0
  -23.5190  -24.7360   17.6510 C   0  0  0  0  0  3  0  0  0  0  0  0
  -22.5820  -25.5220   18.3490 C   0  0  0  0  0  3  0  0  0  0  0  0
  -22.0730  -27.1930   20.2270 C   0  0  0  0  0  2  0  0  0  0  0  0
  -23.7610  -27.1520   22.1220 N   0  0  0  0  0  0  0  0  0  0  0  0
  -23.2760  -27.3970   24.3230 O   0  0  0  0  0  0  0  0  0  0  0  0
  -21.5820  -25.8540   22.2950 C   0  0  0  0  0  0  0  0  0  0  0  0
  -20.2640  -25.7760   22.0490 N   0  0  0  0  0  0  0  0  0  0  0  0
  -22.2030  -24.9680   22.8890 O   0  0  0  0  0  0  0  0  0  0  0  0
  -19.8290  -26.5490   21.5650 H   0  0  0  0  0  0  0  0  0  0  0  0
  -16.9930  -24.3510   21.4890 C   0  0  0  0  0  0  0  0  0  0  0  0
  -19.3810  -24.6730   22.4240 C   0  0  0  0  0  3  0  0  0  0  0  0
  -19.7460  -23.3810   21.6540 C   0  0  0  0  0  2  0  0  0  0  0  0
  -18.9440  -23.2020   20.3610 C   0  0  0  0  0  2  0  0  0  0  0  0
  -17.4430  -23.1590   20.6590 C   0  0  0  0  0  2  0  0  0  0  0  0
  -17.9060  -25.0700   22.3050 C   0  0  0  0  0  0  0  0  0  0  0  0
  -17.4420  -26.1900   23.0280 C   0  0  0  0  0  3  0  0  0  0  0  0
  -16.0940  -26.5880   22.9520 C   0  0  0  0  0  3  0  0  0  0  0  0
  -15.1910  -25.8630   22.1560 C   0  0  0  0  0  3  0  0  0  0  0  0
  -15.6400  -24.7460   21.4300 C   0  0  0  0  0  3  0  0  0  0  0  0
  -25.6270  -27.2940   23.8620 C   0  0  0  0  0  3  0  0  0  0  0  0
  -25.7320  -28.1420   25.0550 N   0  0  0  0  0  0  0  0  0  0  0  0
  -26.3440  -29.3330   25.0900 C   0  0  0  0  0  0  0  0  0  0  0  0
  -26.9500  -29.8030   24.1230 O   0  0  0  0  0  0  0  0  0  0  0  0
  -25.2100  -27.8450   25.8670 H   0  0  0  0  0  0  0  0  0  0  0  0
  -25.2870  -31.3010   26.2490 C   0  0  0  0  0  1  0  0  0  0  0  0
  -26.2710  -30.1310   26.4060 C   0  0  0  0  0  3  0  0  0  0  0  0
  -28.4940  -29.5850   27.2910 C   0  0  0  0  0  1  0  0  0  0  0  0
  -27.5840  -30.6410   26.8570 N   0  0  0  0  0  0  0  0  0  0  0  0
  -27.4710  -31.2980   27.6250 H   0  0  0  0  0  0  0  0  0  0  0  0
  -26.2120  -25.8550   24.1450 C   0  0  1  0  0  0  0  0  0  0  0  0
  -25.3570  -25.0190   25.1270 C   0  0  0  0  0  1  0  0  0  0  0  0
  -26.3460  -25.0490   22.8320 C   0  0  0  0  0  1  0  0  0  0  0  0
  -27.6370  -25.9760   24.7360 C   0  0  0  0  0  1  0  0  0  0  0  0
  1  2  1  0
  3  2  1  0
  4  3  1  0
  5  4  1  0
  6  5  1  0
  6  7  1  0
  6  8  1  0
  9  6  1  0
 10  9  1  0
 10 19  1  0
 11 19  1  0
 11 17  1  0
 13 14  1  0
 13 12  1  0
 15 14  1  0
 15 24  1  0
 15 16  1  0
 17 12  1  0
 17 16  1  0
 18 11  2  0
 19 20  1  0
 21 22  2  0
 22 41  1  0
 23 22  1  0
 23 26  1  0
 24 21  1  0
 24 25  1  0
 25 23  2  0
 26 27  1  0
 27 28  2  0
 29 32  1  0
 29 28  1  0
 30 29  2  0
 31 30  1  0
 31 26  2  0
 32 33  1  0
 33 38  2  0
 33 34  1  0
 34 35  2  0
 35 36  1  0
 36 40  1  0
 37 36  2  0
 38 37  1  0
 39 38  1  0
 41 42  1  0
 42 45  1  0
 42 44  1  0
 43 41  2  0
 46 47  1  0
 46 21  1  0
 48 46  1  0
 49  1  1  0
 50 51  1  0
 50 49  1  0
 52 50  1  0
 53 50  1  0
 54 53  1  0
 55 54  1  0
 56 55  1  0
 56 58  1  0
 57 68  2  0
 58 63  1  0
 59 67  1  0
 59 69  1  0
 60 62  1  0
 60 66  1  0
 61 67  1  0
 62 61  1  0
 63 62  2  0
 64 58  2  0
 64 65  1  0
 65 60  2  0
 66 59  1  0
 67 57  1  0
 69 71  2  0
 70 69  1  0
 72 70  1  0
 73 78  1  0
 74 70  1  0
 75 74  1  0
 76 77  1  0
 76 75  1  0
 77 73  1  0
 78 74  1  0
 78 79  2  0
 80 79  1  0
 81 80  2  0
 82 73  2  0
 82 81  1  0
 83 57  1  0
 83 93  1  0
 83 84  1  0
 84 85  1  0
 84 87  1  0
 85 89  1  0
 86 85  2  0
 89 88  1  0
 89 91  1  0
 91 90  1  0
 91 92  1  0
 93 96  1  1
 93 94  1  0
 95 93  1  0
M  ISO  4  11 100  19 100  55 101  56 101
M  END
>  <TORSDO>  (68) 
F 28

>  <SCORE>  (68) 
-2.289

>  <name>  (68) 
68

>  <ligand_id>  (68) 
68

>  <original_smiles>  (68) 
[H]c1c([H])c([H])c2c(c1[H])C([H])([H])C([H])([H])C([H])([H])C2([H])N([H])C(=O)C1([H])N(C(=O)C([H])(N([H])C(=O)C([H])(N([H])C([H])([H])[H])C([H])([H])[H])C(C([H])([H])[H])(C([H])([H])[H])C([H])([H])[H])C([H])([H])c2c([H])c(OC([H])([H])C([H])([H])C([H])([H])[N+]([H])([H])C([H])([H])C([H])([H])C([H])([H])C([H])([H])C([H])([H])C([H])([H])[N+]([H])([H])C([H])([H])C([H])([H])N([H])C(=O)N3C([H])([H])C([H])([H])C([H])([H])C([H])(n4nc(-c5c([H])c([H])c(Oc6c([H])c([H])c(F)c([H])c6F)c([H])c5[H])c(C(=O)N([H])[H])c4N([H])[H])C3([H])[H])c([H])c([H])c2C1([H])[H]

>  <smiles>  (68) 
[H]c1c([H])c([H])c2c(c1[H])C([H])([H])C([H])([H])C([H])([H])C2([H])N([H])C(=O)C1([H])N(C(=O)C([H])(N([H])C(=O)C([H])(N([H])C([H])([H])[H])C([H])([H])[H])C(C([H])([H])[H])(C([H])([H])[H])C([H])([H])[H])C([H])([H])c2c([H])c(OC([H])([H])C([H])([H])C([H])([H])[N+]([H])([H])C([H])([H])C([H])([H])C([H])([H])C([H])([H])C([H])([H])C([H])([H])[N+]([H])([H])C([H])([H])C([H])([H])N([H])C(=O)N3C([H])([H])C([H])([H])C([H])([H])C([H])(n4nc(-c5c([H])c([H])c(Oc6c([H])c([H])c(F)c([H])c6F)c([H])c5[H])c(C(=O)N([H])[H])c4N([H])[H])C3([H])[H])c([H])c([H])c2C1([H])[H]

$$$$
69:0:0
     RDKit          3D

 98 95  0  0  1  0  0  0  0  0999 V2000
  -22.0100  -26.1200   26.1660 C   0  0  0  0  0  2  0  0  0  0  0  0
  -20.5490  -25.9610   25.4000 C   0  0  0  0  0  2  0  0  0  0  0  0
  -19.7200  -26.5210   24.0260 C   0  0  0  0  0  1  0  0  0  0  0  0
  -20.6330  -26.3110   21.1860 C   0  0  0  0  0 15  0  0  0  0  0  0
  -21.7950  -24.7850   20.6530 N   0  0  0  0  0  2  0  0  0  0  0  0
  -22.2240  -25.1690   19.8290 H   0  0  0  0  0  0  0  0  0  0  0  0
  -21.0870  -24.1770   20.2830 H   0  0  0  0  0  0  0  0  0  0  0  0
  -23.0670  -23.4200   21.1640 C   0  0  0  0  0 15  0  0  0  0  0  0
  -24.2770  -21.7480   20.4940 C   0  0  0  0  0 15  0  0  0  0  0  0
  -25.6740  -20.1400   20.9310 C   0  0  0  0  0 15  0  0  0  0  0  0
  -26.9470  -18.5130   20.2640 C   0  0  0  0  0 15  0  0  0  0  0  0
  -29.3380  -15.8830   20.4190 C   0  0  0  0  0  0  0  0  0  0  0  0
  -30.2210  -13.3640   19.6380 C   0  0  0  0  0  2  0  0  0  0  0  0
  -29.4940  -12.7650   18.3870 C   0  0  0  0  0  2  0  0  0  0  0  0
  -28.0940  -12.2760   18.7770 C   0  0  0  0  0  2  0  0  0  0  0  0
  -27.4740  -13.2490   19.8010 C   0  0  0  0  0  3  0  0  0  0  0  0
  -28.3480  -13.5590   21.0060 C   0  0  0  0  0  2  0  0  0  0  0  0
  -29.3340  -14.4040   20.3980 N   0  0  0  0  0  0  0  0  0  0  0  0
  -30.5750  -16.0710   20.1700 O   0  0  0  0  0  0  0  0  0  0  0  0
  -28.1380  -17.0230   20.7080 N   0  0  0  0  0  2  0  0  0  0  0  0
  -28.4550  -17.3140   21.6270 H   0  0  0  0  0  0  0  0  0  0  0  0
  -25.1790  -13.8120   20.5620 C   0  0  0  0  0  0  0  0  0  0  0  0
  -24.1270  -13.0330   20.9240 C   0  0  0  0  0  0  0  0  0  0  0  0
  -24.5950  -11.6820   20.8780 C   0  0  0  0  0  0  0  0  0  0  0  0
  -26.1820  -12.9170   20.2740 N   0  0  0  0  0  0  0  0  0  0  0  0
  -25.8740  -11.6350   20.5490 N   0  0  0  0  0  0  0  0  0  0  0  0
  -23.8820  -10.4210   21.0460 C   0  0  0  0  0  0  0  0  0  0  0  0
  -24.3520   -9.4200   21.9210 C   0  0  0  0  0  3  0  0  0  0  0  0
  -23.6270   -8.2210   22.0780 C   0  0  0  0  0  3  0  0  0  0  0  0
  -22.4240   -8.0230   21.3550 C   0  0  0  0  0  0  0  0  0  0  0  0
  -21.9790   -9.0180   20.4670 C   0  0  0  0  0  3  0  0  0  0  0  0
  -22.7040  -10.2070   20.3080 C   0  0  0  0  0  3  0  0  0  0  0  0
  -21.6690   -6.8800   21.4200 O   0  0  0  0  0  0  0  0  0  0  0  0
  -21.6870   -6.0700   22.5270 C   0  0  0  0  0  0  0  0  0  0  0  0
  -21.4010   -6.5630   23.8190 C   0  0  0  0  0  3  0  0  0  0  0  0
  -21.3650   -5.6790   24.9160 C   0  0  0  0  0  3  0  0  0  0  0  0
  -21.6050   -4.3060   24.7210 C   0  0  0  0  0  0  0  0  0  0  0  0
  -21.8850   -3.8140   23.4340 C   0  0  0  0  0  3  0  0  0  0  0  0
  -21.9220   -4.6940   22.3400 C   0  0  0  0  0  0  0  0  0  0  0  0
  -22.1710   -4.2130   21.0970 F   0  0  0  0  0  0  0  0  0  0  0  0
  -21.5610   -3.4560   25.7720 F   0  0  0  0  0  0  0  0  0  0  0  0
  -22.7400  -13.5160   21.2000 C   0  0  0  0  0  0  0  0  0  0  0  0
  -22.0170  -12.8120   22.0610 N   0  0  0  0  0  0  0  0  0  0  0  0
  -22.3120  -14.5510   20.6890 O   0  0  0  0  0  0  0  0  0  0  0  0
  -22.3910  -11.9720   22.4750 H   0  0  0  0  0  0  0  0  0  0  0  0
  -21.0850  -13.1140   22.3080 H   0  0  0  0  0  0  0  0  0  0  0  0
  -25.3660  -15.1870   20.4270 N   0  0  0  0  0  0  0  0  0  0  0  0
  -24.6230  -15.8490   20.6170 H   0  0  0  0  0  0  0  0  0  0  0  0
  -26.2440  -15.6380   20.1960 H   0  0  0  0  0  0  0  0  0  0  0  0
  -23.3380  -25.2670   25.7990 C   0  0  0  0  0  2  0  0  0  0  0  0
  -25.6070  -25.6050   24.5940 C   0  0  0  0  0  0  0  0  0  0  0  0
  -24.3140  -25.9050   24.8400 N   0  0  0  0  0  0  0  0  0  0  0  0
  -26.3130  -25.1040   25.4660 O   0  0  0  0  0  0  0  0  0  0  0  0
  -23.8880  -26.4830   24.1290 H   0  0  0  0  0  0  0  0  0  0  0  0
  -26.0110  -25.7550   23.1760 C   0  0  0  0  0  3  0  0  0  0  0  0
  -27.3090  -25.7240   22.7610 C   0  0  0  0  0  3  0  0  0  0  0  0
  -27.8330  -25.5030   21.3140 C   0  0  0  0  0  2  0  0  0  0  0  0
  -28.2510  -26.6350   20.5070 O   0  0  0  0  0  0  0  0  0  0  0  0
  -24.6750  -31.8990   23.1860 C   0  0  0  0  0  0  0  0  0  0  0  0
  -27.2160  -27.4580   20.1810 C   0  0  0  0  0  0  0  0  0  0  0  0
  -23.6590  -30.3040   21.6310 C   0  0  0  0  0  3  0  0  0  0  0  0
  -24.9460  -29.0510   19.9470 C   0  0  0  0  0  0  0  0  0  0  0  0
  -26.0280  -30.9450   21.2710 C   0  0  0  0  0  2  0  0  0  0  0  0
  -26.1090  -29.5840   20.5550 C   0  0  0  0  0  0  0  0  0  0  0  0
  -27.2490  -28.7740   20.6660 C   0  0  0  0  0  3  0  0  0  0  0  0
  -26.0810  -26.9630   19.5000 C   0  0  0  0  0  3  0  0  0  0  0  0
  -24.9290  -27.7590   19.4030 C   0  0  0  0  0  3  0  0  0  0  0  0
  -23.6820  -29.8510   20.1480 C   0  0  0  0  0  2  0  0  0  0  0  0
  -24.7650  -31.1760   22.0360 N   0  0  0  0  0  0  0  0  0  0  0  0
  -23.5820  -32.1220   23.7240 O   0  0  0  0  0  0  0  0  0  0  0  0
  -22.9100  -29.4490   22.6170 C   0  0  0  0  0  0  0  0  0  0  0  0
  -21.7280  -29.1010   22.2060 N   0  0  0  0  0  0  0  0  0  0  0  0
  -23.4240  -28.9530   23.6410 O   0  0  0  0  0  0  0  0  0  0  0  0
  -21.3020  -29.5240   21.3920 H   0  0  0  0  0  0  0  0  0  0  0  0
  -18.2500  -27.6950   22.4020 C   0  0  0  0  0  0  0  0  0  0  0  0
  -21.0440  -28.1180   22.9290 C   0  0  0  0  0  2  0  0  0  0  0  0
  -21.7440  -26.2350   23.0780 C   0  0  0  0  0 15  0  0  0  0  0  0
  -20.0030  -24.7860   22.6530 C   0  0  0  0  0 15  0  0  0  0  0  0
  -18.3950  -25.9220   22.1240 C   0  0  0  0  0  1  0  0  0  0  0  0
  -19.4160  -28.6240   22.7360 C   0  0  0  0  0  0  0  0  0  0  0  0
  -19.1180  -29.8670   23.4340 C   0  0  0  0  0  3  0  0  0  0  0  0
  -17.8220  -30.3390   23.7500 C   0  0  0  0  0  3  0  0  0  0  0  0
  -16.7340  -29.5380   23.3850 C   0  0  0  0  0  3  0  0  0  0  0  0
  -16.9580  -28.2660   22.7640 C   0  0  0  0  0  3  0  0  0  0  0  0
  -25.9410  -32.5070   23.8400 C   0  0  0  0  0  3  0  0  0  0  0  0
  -25.6090  -33.8770   24.2420 N   0  0  0  0  0  0  0  0  0  0  0  0
  -25.9070  -34.9600   23.5160 C   0  0  0  0  0  0  0  0  0  0  0  0
  -26.5570  -34.9060   22.4670 O   0  0  0  0  0  0  0  0  0  0  0  0
  -25.0200  -33.9880   25.0550 H   0  0  0  0  0  0  0  0  0  0  0  0
  -24.1460  -36.7400   23.2600 C   0  0  0  0  0  1  0  0  0  0  0  0
  -25.4080  -36.3220   24.0320 C   0  0  0  0  0  3  0  0  0  0  0  0
  -27.5590  -37.1850   24.8460 C   0  0  0  0  0  1  0  0  0  0  0  0
  -26.4280  -37.3910   23.9440 N   0  0  0  0  0  0  0  0  0  0  0  0
  -26.0180  -38.2990   24.1520 H   0  0  0  0  0  0  0  0  0  0  0  0
  -26.4630  -31.6660   25.0690 C   0  0  1  0  0  0  0  0  0  0  0  0
  -25.3750  -31.3720   26.1300 C   0  0  0  0  0  1  0  0  0  0  0  0
  -27.0320  -30.3080   24.5980 C   0  0  0  0  0  1  0  0  0  0  0  0
  -27.6250  -32.4220   25.7580 C   0  0  0  0  0  1  0  0  0  0  0  0
  2  1  1  0
  3  2  1  0
  6  5  1  0
  7  5  1  0
 12 20  1  0
 13 18  1  0
 14 15  1  0
 14 13  1  0
 16 15  1  0
 16 25  1  0
 16 17  1  0
 18 12  1  0
 18 17  1  0
 19 12  2  0
 20 21  1  0
 22 23  2  0
 23 42  1  0
 24 23  1  0
 24 27  1  0
 25 26  1  0
 25 22  1  0
 26 24  2  0
 27 28  1  0
 28 29  2  0
 30 33  1  0
 30 29  1  0
 31 30  2  0
 32 31  1  0
 32 27  2  0
 33 34  1  0
 34 35  1  0
 35 36  2  0
 37 36  1  0
 37 41  1  0
 38 37  2  0
 39 34  2  0
 39 38  1  0
 40 39  1  0
 42 43  1  0
 43 46  1  0
 43 45  1  0
 44 42  2  0
 47 22  1  0
 47 48  1  0
 49 47  1  0
 50  1  1  0
 51 52  1  0
 51 53  2  0
 52 50  1  0
 54 52  1  0
 55 51  1  0
 56 55  2  0
 57 56  1  0
 58 57  1  0
 59 70  2  0
 60 58  1  0
 60 65  1  0
 61 69  1  0
 61 71  1  0
 62 68  1  0
 62 64  1  0
 63 69  1  0
 64 65  2  0
 64 63  1  0
 66 60  2  0
 67 66  1  0
 67 62  2  0
 68 61  1  0
 69 59  1  0
 71 73  2  0
 72 71  1  0
 72 76  1  0
 74 72  1  0
 75 80  2  0
 75 84  1  0
 79 75  1  0
 80 76  1  0
 80 81  1  0
 81 82  2  0
 83 82  1  0
 84 83  2  0
 85 59  1  0
 85 86  1  0
 85 95  1  0
 86 89  1  0
 87 91  1  0
 87 86  1  0
 88 87  2  0
 91 90  1  0
 93 91  1  0
 93 94  1  0
 93 92  1  0
 95 98  1  1
 95 96  1  0
 97 95  1  0
M  ISO  4  12 100  20 100  57 101  58 101
M  END
>  <TORSDO>  (69) 
F 28

>  <SCORE>  (69) 
9.756

>  <name>  (69) 
69

>  <ligand_id>  (69) 
69

>  <original_smiles>  (69) 
[H]C(C(=O)N([H])C([H])([H])C([H])([H])C([H])([H])C([H])([H])C([H])([H])[N+]([H])([H])C([H])([H])C([H])([H])C([H])([H])C([H])([H])N([H])C(=O)N1C([H])([H])C([H])([H])C([H])([H])C([H])(n2nc(-c3c([H])c([H])c(Oc4c([H])c([H])c(F)c([H])c4F)c([H])c3[H])c(C(=O)N([H])[H])c2N([H])[H])C1([H])[H])=C([H])C([H])([H])Oc1c([H])c([H])c2c(c1[H])C([H])([H])N(C(=O)C([H])(N([H])C(=O)C([H])(N([H])C([H])([H])[H])C([H])([H])[H])C(C([H])([H])[H])(C([H])([H])[H])C([H])([H])[H])C([H])(C(=O)N([H])C1([H])c3c([H])c([H])c([H])c([H])c3C([H])([H])C([H])([H])C1([H])[H])C2([H])[H]

>  <smiles>  (69) 
[H]C(C(=O)N([H])C([H])([H])C([H])([H])C([H])([H])C([H])([H])C([H])([H])[N+]([H])([H])C([H])([H])C([H])([H])C([H])([H])C([H])([H])N([H])C(=O)N1C([H])([H])C([H])([H])C([H])([H])C([H])(n2nc(-c3c([H])c([H])c(Oc4c([H])c([H])c(F)c([H])c4F)c([H])c3[H])c(C(=O)N([H])[H])c2N([H])[H])C1([H])[H])=C([H])C([H])([H])Oc1c([H])c([H])c2c(c1[H])C([H])([H])N(C(=O)C([H])(N([H])C(=O)C([H])(N([H])C([H])([H])[H])C([H])([H])[H])C(C([H])([H])[H])(C([H])([H])[H])C([H])([H])[H])C([H])(C(=O)N([H])C1([H])c3c([H])c([H])c([H])c([H])c3C([H])([H])C([H])([H])C1([H])[H])C2([H])[H]

$$$$
70:0:0
     RDKit          3D

102109  0  0  1  0  0  0  0  0999 V2000
  -26.0430  -24.1800   16.0220 C   0  0  0  0  0  2  0  0  0  0  0  0
  -25.7470  -23.3220   17.1930 N   0  0  0  0  0  4  0  0  0  0  0  0
  -25.5460  -23.8930   17.9990 H   0  0  0  0  0  0  0  0  0  0  0  0
  -24.9260  -22.7690   16.9980 H   0  0  0  0  0  0  0  0  0  0  0  0
  -26.8900  -22.4330   17.5040 C   0  0  0  0  0  2  0  0  0  0  0  0
  -26.7070  -21.5220   18.7320 C   0  0  0  0  0  2  0  0  0  0  0  0
  -28.0370  -20.7960   19.0070 C   0  0  0  0  0  2  0  0  0  0  0  0
  -28.0300  -19.7060   20.0900 C   0  0  0  0  0  2  0  0  0  0  0  0
  -29.4000  -19.1650   20.2330 N   0  0  0  0  0  4  0  0  0  0  0  0
  -29.9800  -19.8760   20.6510 H   0  0  0  0  0  0  0  0  0  0  0  0
  -29.7570  -18.9860   19.3090 H   0  0  0  0  0  0  0  0  0  0  0  0
  -29.5440  -17.9210   21.0140 C   0  0  0  0  0  2  0  0  0  0  0  0
  -31.0110  -17.4410   20.9790 C   0  0  0  0  0  2  0  0  0  0  0  0
  -31.3040  -16.1600   21.7800 C   0  0  0  0  0  2  0  0  0  0  0  0
  -31.0210  -14.2160   20.2270 C   0  0  0  0  0  0  0  0  0  0  0  0
  -30.5490  -12.1620   18.9410 C   0  0  0  0  0  2  0  0  0  0  0  0
  -29.5790  -12.4330   17.7780 C   0  0  0  0  0  2  0  0  0  0  0  0
  -28.1150  -12.3450   18.2520 C   0  0  0  0  0  2  0  0  0  0  0  0
  -27.8570  -13.1820   19.5310 C   0  0  0  0  0  3  0  0  0  0  0  0
  -28.9220  -12.8730   20.6040 C   0  0  0  0  0  2  0  0  0  0  0  0
  -30.2550  -13.1150   20.0190 N   0  0  0  0  0  0  0  0  0  0  0  0
  -32.0300  -14.4850   19.5640 O   0  0  0  0  0  0  0  0  0  0  0  0
  -30.6190  -14.9840   21.2480 N   0  0  0  0  0  0  0  0  0  0  0  0
  -29.8040  -14.6590   21.7500 H   0  0  0  0  0  0  0  0  0  0  0  0
  -25.5040  -13.8980   20.2930 C   0  0  0  0  0  0  0  0  0  0  0  0
  -24.4130  -13.1730   20.6970 C   0  0  0  0  0  0  0  0  0  0  0  0
  -24.8170  -11.8050   20.6660 C   0  0  0  0  0  0  0  0  0  0  0  0
  -26.5050  -12.9720   20.0440 N   0  0  0  0  0  0  0  0  0  0  0  0
  -26.0950  -11.7090   20.3210 N   0  0  0  0  0  0  0  0  0  0  0  0
  -24.0470  -10.5740   20.8850 C   0  0  0  0  0  0  0  0  0  0  0  0
  -24.4560   -9.6040   21.8260 C   0  0  0  0  0  3  0  0  0  0  0  0
  -23.6890   -8.4370   22.0330 C   0  0  0  0  0  3  0  0  0  0  0  0
  -22.4970   -8.2340   21.2980 C   0  0  0  0  0  0  0  0  0  0  0  0
  -22.1050   -9.1920   20.3470 C   0  0  0  0  0  3  0  0  0  0  0  0
  -22.8730  -10.3490   20.1380 C   0  0  0  0  0  3  0  0  0  0  0  0
  -21.7010   -7.1200   21.4140 O   0  0  0  0  0  0  0  0  0  0  0  0
  -21.6320   -6.4030   22.5810 C   0  0  0  0  0  0  0  0  0  0  0  0
  -21.2520   -7.0030   23.8020 C   0  0  0  0  0  3  0  0  0  0  0  0
  -21.1260   -6.2160   24.9640 C   0  0  0  0  0  3  0  0  0  0  0  0
  -21.3680   -4.8300   24.9060 C   0  0  0  0  0  0  0  0  0  0  0  0
  -21.7400   -4.2300   23.6900 C   0  0  0  0  0  3  0  0  0  0  0  0
  -21.8680   -5.0150   22.5310 C   0  0  0  0  0  0  0  0  0  0  0  0
  -22.2060   -4.4280   21.3570 F   0  0  0  0  0  0  0  0  0  0  0  0
  -21.2380   -4.0720   26.0190 F   0  0  0  0  0  0  0  0  0  0  0  0
  -23.0460  -13.7120   21.0080 C   0  0  0  0  0  0  0  0  0  0  0  0
  -22.3160  -13.0510   21.9010 N   0  0  0  0  0  0  0  0  0  0  0  0
  -22.6350  -14.7480   20.4910 O   0  0  0  0  0  0  0  0  0  0  0  0
  -22.6610  -12.2100   22.3390 H   0  0  0  0  0  0  0  0  0  0  0  0
  -21.3990  -13.3920   22.1510 H   0  0  0  0  0  0  0  0  0  0  0  0
  -25.7200  -15.2580   20.0970 N   0  0  0  0  0  0  0  0  0  0  0  0
  -24.9820  -15.9450   20.2050 H   0  0  0  0  0  0  0  0  0  0  0  0
  -26.5730  -15.6480   19.7160 H   0  0  0  0  0  0  0  0  0  0  0  0
  -25.0660  -25.3540   15.8190 C   0  0  0  0  0  2  0  0  0  0  0  0
  -25.4410  -26.2330   14.6000 C   0  0  0  0  0  2  0  0  0  0  0  0
  -26.3270  -27.4750   14.8730 C   0  0  0  0  0  2  0  0  0  0  0  0
  -27.6690  -27.1670   15.4290 N   0  0  0  0  0  4  0  0  0  0  0  0
  -28.3500  -27.6590   14.8730 H   0  0  0  0  0  0  0  0  0  0  0  0
  -27.8640  -26.1900   15.3040 H   0  0  0  0  0  0  0  0  0  0  0  0
  -27.8620  -27.5880   16.8400 C   0  0  0  0  0  2  0  0  0  0  0  0
  -28.9610  -26.7930   17.5820 C   0  0  0  0  0  2  0  0  0  0  0  0
  -29.2440  -27.2470   19.0390 C   0  0  0  0  0  2  0  0  0  0  0  0
  -28.3230  -26.7210   20.0010 O   0  0  0  0  0  0  0  0  0  0  0  0
  -24.5560  -31.8590   23.2440 C   0  0  0  0  0  0  0  0  0  0  0  0
  -27.1640  -27.4380   20.1280 C   0  0  0  0  0  0  0  0  0  0  0  0
  -23.3320  -30.4590   21.6150 C   0  0  0  0  0  3  0  0  0  0  0  0
  -24.7660  -28.9070   20.1950 C   0  0  0  0  0  0  0  0  0  0  0  0
  -25.8520  -30.8180   21.3860 C   0  0  0  0  0  2  0  0  0  0  0  0
  -25.9300  -29.4460   20.7550 C   0  0  0  0  0  0  0  0  0  0  0  0
  -27.1390  -28.7190   20.7200 C   0  0  0  0  0  3  0  0  0  0  0  0
  -25.9730  -26.8780   19.6350 C   0  0  0  0  0  3  0  0  0  0  0  0
  -24.7750  -27.6140   19.6410 C   0  0  0  0  0  3  0  0  0  0  0  0
  -23.5290  -29.7740   20.2390 C   0  0  0  0  0  2  0  0  0  0  0  0
  -24.6010  -31.0560   22.1440 N   0  0  0  0  0  0  0  0  0  0  0  0
  -23.4800  -32.1350   23.7920 O   0  0  0  0  0  0  0  0  0  0  0  0
  -22.6850  -29.4420   22.5800 C   0  0  0  0  0  0  0  0  0  0  0  0
  -21.3600  -29.2630   22.4560 N   0  0  0  0  0  0  0  0  0  0  0  0
  -23.3710  -28.8190   23.3940 O   0  0  0  0  0  0  0  0  0  0  0  0
  -20.8700  -29.8170   21.7670 H   0  0  0  0  0  0  0  0  0  0  0  0
  -17.9870  -28.0660   22.9510 C   0  0  0  0  0  0  0  0  0  0  0  0
  -20.5420  -28.3320   23.2310 C   0  0  0  0  0  3  0  0  0  0  0  0
  -20.6510  -26.8960   22.6690 C   0  0  0  0  0  2  0  0  0  0  0  0
  -19.5530  -26.5630   21.6520 C   0  0  0  0  0  2  0  0  0  0  0  0
  -18.1680  -26.7110   22.2890 C   0  0  0  0  0  2  0  0  0  0  0  0
  -19.1020  -28.8360   23.3770 C   0  0  0  0  0  0  0  0  0  0  0  0
  -18.8790  -30.1070   23.9520 C   0  0  0  0  0  3  0  0  0  0  0  0
  -17.5730  -30.6070   24.1050 C   0  0  0  0  0  3  0  0  0  0  0  0
  -16.4730  -29.8370   23.6920 C   0  0  0  0  0  3  0  0  0  0  0  0
  -16.6800  -28.5690   23.1230 C   0  0  0  0  0  3  0  0  0  0  0  0
  -25.8500  -32.4850   23.8520 C   0  0  0  0  0  3  0  0  0  0  0  0
  -25.5530  -33.8830   24.1830 N   0  0  0  0  0  0  0  0  0  0  0  0
  -25.8920  -34.9320   23.4210 C   0  0  0  0  0  0  0  0  0  0  0  0
  -26.5600  -34.8200   22.3890 O   0  0  0  0  0  0  0  0  0  0  0  0
  -24.9580  -34.0420   24.9840 H   0  0  0  0  0  0  0  0  0  0  0  0
  -24.1770  -36.7370   23.0560 C   0  0  0  0  0  1  0  0  0  0  0  0
  -25.4140  -36.3250   23.8730 C   0  0  0  0  0  3  0  0  0  0  0  0
  -27.5580  -37.1930   24.7000 C   0  0  0  0  0  1  0  0  0  0  0  0
  -26.4550  -37.3700   23.7590 N   0  0  0  0  0  0  0  0  0  0  0  0
  -26.0570  -38.2930   23.9100 H   0  0  0  0  0  0  0  0  0  0  0  0
  -26.3750  -31.7090   25.1220 C   0  0  1  0  0  0  0  0  0  0  0  0
  -25.2920  -31.4710   26.1990 C   0  0  0  0  0  1  0  0  0  0  0  0
  -26.9460  -30.3330   24.7160 C   0  0  0  0  0  1  0  0  0  0  0  0
  -27.5370  -32.4950   25.7700 C   0  0  0  0  0  1  0  0  0  0  0  0
  1  2  1  0
  2  5  1  0
  2  3  1  0
  4  2  1  0
  5  6  1  0
  6  7  1  0
  7  8  1  0
  8  9  1  0
  9 10  1  0
  9 12  1  0
 11  9  1  0
 13 12  1  0
 13 14  1  0
 15 23  1  0
 16 21  1  0
 17 18  1  0
 17 16  1  0
 19 18  1  0
 19 28  1  0
 19 20  1  0
 21 15  1  0
 21 20  1  0
 22 15  2  0
 23 24  1  0
 23 14  1  0
 25 26  2  0
 26 45  1  0
 27 26  1  0
 27 30  1  0
 28 25  1  0
 28 29  1  0
 29 27  2  0
 30 31  1  0
 31 32  2  0
 33 36  1  0
 33 32  1  0
 34 33  2  0
 35 34  1  0
 35 30  2  0
 36 37  1  0
 37 38  1  0
 38 39  2  0
 40 39  1  0
 40 44  1  0
 41 40  2  0
 42 37  2  0
 42 41  1  0
 43 42  1  0
 45 46  1  0
 46 49  1  0
 46 48  1  0
 47 45  2  0
 50 51  1  0
 50 25  1  0
 52 50  1  0
 53  1  1  0
 54 55  1  0
 54 53  1  0
 55 56  1  0
 56 59  1  0
 57 56  1  0
 58 56  1  0
 59 60  1  0
 60 61  1  0
 61 62  1  0
 62 64  1  0
 63 74  2  0
 64 69  1  0
 65 73  1  0
 65 75  1  0
 66 72  1  0
 66 68  1  0
 67 73  1  0
 68 67  1  0
 69 68  2  0
 70 71  1  0
 70 64  2  0
 71 66  2  0
 72 65  1  0
 73 63  1  0
 75 77  2  0
 76 75  1  0
 78 76  1  0
 79 88  2  0
 79 84  1  0
 80 76  1  0
 80 84  1  0
 81 80  1  0
 82 83  1  0
 82 81  1  0
 83 79  1  0
 84 85  2  0
 85 86  1  0
 87 86  2  0
 88 87  1  0
 89 63  1  0
 89 90  1  0
 89 99  1  0
 90 93  1  0
 91 95  1  0
 91 90  1  0
 92 91  2  0
 95 94  1  0
 97 95  1  0
 97 98  1  0
 97 96  1  0
 99102  1  1
 99100  1  0
101 99  1  0
M  ISO  4  15 100  23 100  61 101  62 101
M  END
>  <TORSDO>  (70) 
F 32

>  <SCORE>  (70) 
-9.626

>  <name>  (70) 
70

>  <ligand_id>  (70) 
70

>  <original_smiles>  (70) 
[H]c1c([H])c([H])c2c(c1[H])C([H])([H])C([H])([H])C([H])([H])C2([H])N([H])C(=O)C1([H])N(C(=O)C([H])(N([H])C(=O)C([H])(N([H])C([H])([H])[H])C([H])([H])[H])C(C([H])([H])[H])(C([H])([H])[H])C([H])([H])[H])C([H])([H])c2c([H])c(OC([H])([H])C([H])([H])C([H])([H])[N+]([H])([H])C([H])([H])C([H])([H])C([H])([H])C([H])([H])[N+]([H])([H])C([H])([H])C([H])([H])C([H])([H])C([H])([H])[N+]([H])([H])C([H])([H])C([H])([H])C([H])([H])N([H])C(=O)N3C([H])([H])C([H])([H])C([H])([H])C([H])(n4nc(-c5c([H])c([H])c(Oc6c([H])c([H])c(F)c([H])c6F)c([H])c5[H])c(C(=O)N([H])[H])c4N([H])[H])C3([H])[H])c([H])c([H])c2C1([H])[H]

>  <smiles>  (70) 
[H]c1c([H])c([H])c2c(c1[H])C([H])([H])C([H])([H])C([H])([H])C2([H])N([H])C(=O)C1([H])N(C(=O)C([H])(N([H])C(=O)C([H])(N([H])C([H])([H])[H])C([H])([H])[H])C(C([H])([H])[H])(C([H])([H])[H])C([H])([H])[H])C([H])([H])c2c([H])c(OC([H])([H])C([H])([H])C([H])([H])[N+]([H])([H])C([H])([H])C([H])([H])C([H])([H])C([H])([H])[N+]([H])([H])C([H])([H])C([H])([H])C([H])([H])C([H])([H])[N+]([H])([H])C([H])([H])C([H])([H])C([H])([H])N([H])C(=O)N3C([H])([H])C([H])([H])C([H])([H])C([H])(n4nc(-c5c([H])c([H])c(Oc6c([H])c([H])c(F)c([H])c6F)c([H])c5[H])c(C(=O)N([H])[H])c4N([H])[H])C3([H])[H])c([H])c([H])c2C1([H])[H]

$$$$
71:0:0
     RDKit          3D

 97104  0  0  1  0  0  0  0  0999 V2000
  -29.0470  -23.8550   24.5340 N   0  0  0  0  0  0  0  0  0  0  0  0
  -29.1740  -23.6340   23.5470 H   0  0  0  0  0  0  0  0  0  0  0  0
  -30.2740  -23.5710   25.2960 C   0  0  0  0  0  2  0  0  0  0  0  0
  -30.6870  -22.0880   25.2380 C   0  0  0  0  0  2  0  0  0  0  0  0
  -31.0980  -21.6950   23.8790 N   0  0  0  0  0  4  0  0  0  0  0  0
  -30.4270  -22.0780   23.2350 H   0  0  0  0  0  0  0  0  0  0  0  0
  -31.9980  -22.1080   23.6860 H   0  0  0  0  0  0  0  0  0  0  0  0
  -31.1720  -20.2340   23.6540 C   0  0  0  0  0  2  0  0  0  0  0  0
  -31.5650  -19.9190   22.2000 C   0  0  0  0  0  2  0  0  0  0  0  0
  -31.5010  -18.4240   21.8630 C   0  0  0  0  0  2  0  0  0  0  0  0
  -32.0330  -18.1330   20.4510 C   0  0  0  0  0  2  0  0  0  0  0  0
  -32.5960  -16.7100   20.3200 C   0  0  0  0  0  2  0  0  0  0  0  0
  -31.5070  -14.8690   19.0920 C   0  0  0  0  0  0  0  0  0  0  0  0
  -31.0920  -12.5050   18.5640 C   0  0  0  0  0  2  0  0  0  0  0  0
  -30.0400  -12.2890   17.4650 C   0  0  0  0  0  2  0  0  0  0  0  0
  -28.6410  -12.2110   18.0920 C   0  0  0  0  0  2  0  0  0  0  0  0
  -28.3490  -13.4120   19.0280 C   0  0  0  0  0  3  0  0  0  0  0  0
  -29.5040  -13.6600   20.0280 C   0  0  0  0  0  2  0  0  0  0  0  0
  -30.7820  -13.7400   19.2960 N   0  0  0  0  0  0  0  0  0  0  0  0
  -32.2700  -15.0260   18.1370 O   0  0  0  0  0  0  0  0  0  0  0  0
  -31.5540  -15.6990   20.1380 N   0  0  0  0  0  0  0  0  0  0  0  0
  -30.9670  -15.4770   20.9280 H   0  0  0  0  0  0  0  0  0  0  0  0
  -26.1700  -14.1980   20.1590 C   0  0  0  0  0  0  0  0  0  0  0  0
  -25.0950  -13.5070   20.6600 C   0  0  0  0  0  0  0  0  0  0  0  0
  -25.4010  -12.1230   20.4830 C   0  0  0  0  0  0  0  0  0  0  0  0
  -27.0670  -13.2390   19.7150 N   0  0  0  0  0  0  0  0  0  0  0  0
  -26.6150  -11.9830   19.9640 N   0  0  0  0  0  0  0  0  0  0  0  0
  -24.5860  -10.9250   20.7230 C   0  0  0  0  0  0  0  0  0  0  0  0
  -24.9610   -9.9540   21.6770 C   0  0  0  0  0  3  0  0  0  0  0  0
  -24.1500   -8.8220   21.9030 C   0  0  0  0  0  3  0  0  0  0  0  0
  -22.9480   -8.6510   21.1740 C   0  0  0  0  0  0  0  0  0  0  0  0
  -22.5930   -9.6090   20.2090 C   0  0  0  0  0  3  0  0  0  0  0  0
  -23.4030  -10.7330   19.9810 C   0  0  0  0  0  3  0  0  0  0  0  0
  -22.1120   -7.5690   21.3070 O   0  0  0  0  0  0  0  0  0  0  0  0
  -21.8900   -6.9770   22.5250 C   0  0  0  0  0  0  0  0  0  0  0  0
  -21.3880   -7.7030   23.6270 C   0  0  0  0  0  3  0  0  0  0  0  0
  -21.1090   -7.0400   24.8380 C   0  0  0  0  0  3  0  0  0  0  0  0
  -21.3210   -5.6530   24.9470 C   0  0  0  0  0  0  0  0  0  0  0  0
  -21.8160   -4.9270   23.8510 C   0  0  0  0  0  3  0  0  0  0  0  0
  -22.0950   -5.5870   22.6400 C   0  0  0  0  0  0  0  0  0  0  0  0
  -22.5510   -4.8790   21.5800 F   0  0  0  0  0  0  0  0  0  0  0  0
  -21.0460   -5.0150   26.1100 F   0  0  0  0  0  0  0  0  0  0  0  0
  -23.8190  -14.0960   21.1820 C   0  0  0  0  0  0  0  0  0  0  0  0
  -23.1950  -13.4400   22.1570 N   0  0  0  0  0  0  0  0  0  0  0  0
  -23.3910  -15.1680   20.7600 O   0  0  0  0  0  0  0  0  0  0  0  0
  -23.5540  -12.5680   22.5140 H   0  0  0  0  0  0  0  0  0  0  0  0
  -22.3430  -13.8160   22.5470 H   0  0  0  0  0  0  0  0  0  0  0  0
  -26.4470  -15.5540   20.0300 N   0  0  0  0  0  0  0  0  0  0  0  0
  -25.7910  -16.2750   20.3150 H   0  0  0  0  0  0  0  0  0  0  0  0
  -27.2860  -15.9320   19.6060 H   0  0  0  0  0  0  0  0  0  0  0  0
  -28.6570  -25.2600   24.6090 C   0  0  0  0  0  2  0  0  0  0  0  0
  -27.5840  -25.6020   23.5560 C   0  0  0  0  0  2  0  0  0  0  0  0
  -28.1070  -26.3420   22.4110 N   0  0  0  0  0  0  0  0  0  0  0  0
  -28.6170  -27.1640   22.7340 H   0  0  0  0  0  0  0  0  0  0  0  0
  -28.9540  -25.5920   21.4790 C   0  0  0  0  0  2  0  0  0  0  0  0
  -29.2120  -26.4100   20.1960 C   0  0  0  0  0  2  0  0  0  0  0  0
  -28.0930  -26.3380   19.3080 O   0  0  0  0  0  0  0  0  0  0  0  0
  -24.6470  -31.3710   23.0830 C   0  0  0  0  0  0  0  0  0  0  0  0
  -26.9770  -27.1170   19.5370 C   0  0  0  0  0  0  0  0  0  0  0  0
  -23.2890  -30.0840   21.4640 C   0  0  0  0  0  3  0  0  0  0  0  0
  -24.6030  -28.6240   19.8360 C   0  0  0  0  0  0  0  0  0  0  0  0
  -25.7970  -30.4250   21.0940 C   0  0  0  0  0  2  0  0  0  0  0  0
  -25.8090  -29.1010   20.3640 C   0  0  0  0  0  0  0  0  0  0  0  0
  -27.0000  -28.3550   20.2200 C   0  0  0  0  0  3  0  0  0  0  0  0
  -25.7570  -26.6540   19.0020 C   0  0  0  0  0  3  0  0  0  0  0  0
  -24.5710  -27.3980   19.1500 C   0  0  0  0  0  3  0  0  0  0  0  0
  -23.3790  -29.4900   20.0330 C   0  0  0  0  0  2  0  0  0  0  0  0
  -24.5990  -30.6380   21.9360 N   0  0  0  0  0  0  0  0  0  0  0  0
  -23.6180  -31.6230   23.7260 O   0  0  0  0  0  0  0  0  0  0  0  0
  -22.6980  -29.0120   22.4110 C   0  0  0  0  0  0  0  0  0  0  0  0
  -21.3880  -28.7540   22.2810 N   0  0  0  0  0  0  0  0  0  0  0  0
  -23.4190  -28.4160   23.2150 O   0  0  0  0  0  0  0  0  0  0  0  0
  -20.8660  -29.2950   21.6090 H   0  0  0  0  0  0  0  0  0  0  0  0
  -18.1210  -27.2540   22.6630 C   0  0  0  0  0  0  0  0  0  0  0  0
  -20.6290  -27.7610   23.0420 C   0  0  0  0  0  3  0  0  0  0  0  0
  -20.8910  -26.3310   22.5190 C   0  0  0  0  0  2  0  0  0  0  0  0
  -19.8770  -25.8820   21.4620 C   0  0  0  0  0  2  0  0  0  0  0  0
  -18.4550  -25.9110   22.0340 C   0  0  0  0  0  2  0  0  0  0  0  0
  -19.1420  -28.1280   23.1210 C   0  0  0  0  0  0  0  0  0  0  0  0
  -18.7790  -29.3790   23.6660 C   0  0  0  0  0  3  0  0  0  0  0  0
  -17.4280  -29.7650   23.7440 C   0  0  0  0  0  3  0  0  0  0  0  0
  -16.4210  -28.8900   23.3050 C   0  0  0  0  0  3  0  0  0  0  0  0
  -16.7690  -27.6340   22.7730 C   0  0  0  0  0  3  0  0  0  0  0  0
  -25.9940  -31.9470   23.6250 C   0  0  0  0  0  3  0  0  0  0  0  0
  -26.6000  -31.1010   24.8120 C   0  0  1  0  0  0  0  0  0  0  0  0
  -25.5940  -30.8160   25.9500 C   0  0  0  0  0  1  0  0  0  0  0  0
  -27.1340  -29.7410   24.3050 C   0  0  0  0  0  1  0  0  0  0  0  0
  -27.8030  -31.8500   25.4300 C   0  0  0  0  0  1  0  0  0  0  0  0
  -25.7410  -33.3280   24.0480 N   0  0  0  0  0  0  0  0  0  0  0  0
  -26.1030  -34.4120   23.3480 C   0  0  0  0  0  0  0  0  0  0  0  0
  -26.7520  -34.3510   22.3010 O   0  0  0  0  0  0  0  0  0  0  0  0
  -25.1680  -33.4520   24.8700 H   0  0  0  0  0  0  0  0  0  0  0  0
  -24.4610  -36.2980   23.1010 C   0  0  0  0  0  1  0  0  0  0  0  0
  -25.6720  -35.7860   23.8970 C   0  0  0  0  0  3  0  0  0  0  0  0
  -27.8340  -36.5080   24.8040 C   0  0  0  0  0  1  0  0  0  0  0  0
  -26.7520  -36.7980   23.8670 N   0  0  0  0  0  0  0  0  0  0  0  0
  -26.3910  -37.7210   24.0820 H   0  0  0  0  0  0  0  0  0  0  0  0
  1 51  1  0
  1  3  1  0
  2  1  1  0
  4  3  1  0
  5  4  1  0
  6  5  1  0
  7  5  1  0
  8  5  1  0
  9  8  1  0
 10  9  1  0
 11 10  1  0
 12 11  1  0
 13 19  1  0
 13 21  1  0
 14 19  1  0
 15 16  1  0
 15 14  1  0
 17 16  1  0
 17 26  1  0
 17 18  1  0
 19 18  1  0
 20 13  2  0
 21 12  1  0
 21 22  1  0
 23 24  2  0
 24 43  1  0
 25 24  1  0
 25 28  1  0
 26 27  1  0
 26 23  1  0
 27 25  2  0
 28 29  1  0
 29 30  2  0
 31 34  1  0
 31 30  1  0
 32 31  2  0
 33 32  1  0
 33 28  2  0
 34 35  1  0
 35 40  2  0
 35 36  1  0
 36 37  2  0
 37 38  1  0
 38 42  1  0
 39 38  2  0
 40 39  1  0
 41 40  1  0
 43 44  1  0
 44 46  1  0
 44 47  1  0
 45 43  2  0
 48 23  1  0
 48 49  1  0
 50 48  1  0
 52 51  1  0
 53 54  1  0
 53 52  1  0
 55 53  1  0
 56 55  1  0
 57 59  1  0
 57 56  1  0
 58 69  2  0
 59 64  1  0
 60 68  1  0
 60 70  1  0
 61 67  1  0
 61 63  1  0
 62 68  1  0
 63 62  1  0
 64 63  2  0
 65 66  1  0
 65 59  2  0
 66 61  2  0
 67 60  1  0
 68 58  1  0
 70 72  2  0
 71 70  1  0
 73 71  1  0
 74 83  2  0
 74 79  1  0
 75 71  1  0
 75 79  1  0
 76 75  1  0
 77 78  1  0
 77 76  1  0
 78 74  1  0
 79 80  2  0
 80 81  1  0
 82 81  2  0
 83 82  1  0
 84 58  1  0
 84 89  1  0
 84 85  1  0
 85 88  1  1
 85 86  1  0
 87 85  1  0
 89 92  1  0
 90 94  1  0
 90 89  1  0
 91 90  2  0
 94 93  1  0
 96 94  1  0
 96 97  1  0
 96 95  1  0
M  ISO  4  13 100  21 100  56 101  57 101
M  END
>  <TORSDO>  (71) 
F 29

>  <SCORE>  (71) 
-6.692

>  <name>  (71) 
71

>  <ligand_id>  (71) 
71

>  <original_smiles>  (71) 
[H]c1c([H])c([H])c2c(c1[H])C([H])([H])C([H])([H])C([H])([H])C2([H])N([H])C(=O)C1([H])N(C(=O)C([H])(N([H])C(=O)C([H])(N([H])C([H])([H])[H])C([H])([H])[H])C(C([H])([H])[H])(C([H])([H])[H])C([H])([H])[H])C([H])([H])c2c([H])c(OC([H])([H])C([H])([H])N([H])C([H])([H])C([H])([H])N([H])C([H])([H])C([H])([H])[N+]([H])([H])C([H])([H])C([H])([H])C([H])([H])C([H])([H])C([H])([H])N([H])C(=O)N3C([H])([H])C([H])([H])C([H])([H])C([H])(n4nc(-c5c([H])c([H])c(Oc6c([H])c([H])c(F)c([H])c6F)c([H])c5[H])c(C(=O)N([H])[H])c4N([H])[H])C3([H])[H])c([H])c([H])c2C1([H])[H]

>  <smiles>  (71) 
[H]c1c([H])c([H])c2c(c1[H])C([H])([H])C([H])([H])C([H])([H])C2([H])N([H])C(=O)C1([H])N(C(=O)C([H])(N([H])C(=O)C([H])(N([H])C([H])([H])[H])C([H])([H])[H])C(C([H])([H])[H])(C([H])([H])[H])C([H])([H])[H])C([H])([H])c2c([H])c(OC([H])([H])C([H])([H])N([H])C([H])([H])C([H])([H])N([H])C([H])([H])C([H])([H])[N+]([H])([H])C([H])([H])C([H])([H])C([H])([H])C([H])([H])C([H])([H])N([H])C(=O)N3C([H])([H])C([H])([H])C([H])([H])C([H])(n4nc(-c5c([H])c([H])c(Oc6c([H])c([H])c(F)c([H])c6F)c([H])c5[H])c(C(=O)N([H])[H])c4N([H])[H])C3([H])[H])c([H])c([H])c2C1([H])[H]

$$$$
72:0:0
     RDKit          3D

 90 97  0  0  1  0  0  0  0  0999 V2000
  -28.7340  -21.8750   20.1860 C   0  0  0  0  0  0  0  0  0  0  0  0
  -29.0090  -23.1550   19.9050 N   0  0  0  0  0  0  0  0  0  0  0  0
  -27.6940  -21.5380   20.7560 O   0  0  0  0  0  0  0  0  0  0  0  0
  -29.8810  -23.3430   19.4280 H   0  0  0  0  0  0  0  0  0  0  0  0
  -30.0600  -19.7280   20.1430 C   0  0  0  0  0  3  0  0  0  0  0  0
  -29.7910  -20.9850   19.7090 C   0  0  0  0  0  3  0  0  0  0  0  0
  -29.3740  -18.9670   21.1890 C   0  0  0  0  0  3  0  0  0  0  0  0
  -29.6480  -17.6990   21.5740 C   0  0  0  0  0  3  0  0  0  0  0  0
  -30.7110  -16.7500   21.0290 C   0  0  0  0  0  2  0  0  0  0  0  0
  -30.8010  -14.4190   20.1530 C   0  0  0  0  0  0  0  0  0  0  0  0
  -30.4080  -12.3080   18.9470 C   0  0  0  0  0  2  0  0  0  0  0  0
  -29.4130  -12.5590   17.7960 C   0  0  0  0  0  2  0  0  0  0  0  0
  -27.9600  -12.4170   18.2890 C   0  0  0  0  0  2  0  0  0  0  0  0
  -27.6890  -13.2410   19.5770 C   0  0  0  0  0  3  0  0  0  0  0  0
  -28.7870  -12.9710   20.6310 C   0  0  0  0  0  2  0  0  0  0  0  0
  -30.0950  -13.2630   20.0170 N   0  0  0  0  0  0  0  0  0  0  0  0
  -31.8720  -14.6280   19.5780 O   0  0  0  0  0  0  0  0  0  0  0  0
  -30.2050  -15.3800   20.8760 N   0  0  0  0  0  0  0  0  0  0  0  0
  -29.3350  -15.1460   21.3310 H   0  0  0  0  0  0  0  0  0  0  0  0
  -25.3200  -13.8650   20.3750 C   0  0  0  0  0  0  0  0  0  0  0  0
  -24.2660  -13.1000   20.7940 C   0  0  0  0  0  0  0  0  0  0  0  0
  -24.7210  -11.7450   20.7560 C   0  0  0  0  0  0  0  0  0  0  0  0
  -26.3520  -12.9780   20.1090 N   0  0  0  0  0  0  0  0  0  0  0  0
  -25.9970  -11.6990   20.3930 N   0  0  0  0  0  0  0  0  0  0  0  0
  -24.0000  -10.4870   20.9840 C   0  0  0  0  0  0  0  0  0  0  0  0
  -24.4570   -9.5280   21.9170 C   0  0  0  0  0  3  0  0  0  0  0  0
  -23.7330   -8.3350   22.1280 C   0  0  0  0  0  3  0  0  0  0  0  0
  -22.5390   -8.0910   21.4060 C   0  0  0  0  0  0  0  0  0  0  0  0
  -22.1060   -9.0360   20.4590 C   0  0  0  0  0  3  0  0  0  0  0  0
  -22.8320  -10.2200   20.2440 C   0  0  0  0  0  3  0  0  0  0  0  0
  -21.7830   -6.9500   21.5300 O   0  0  0  0  0  0  0  0  0  0  0  0
  -21.7450   -6.2360   22.7020 C   0  0  0  0  0  0  0  0  0  0  0  0
  -21.3320   -6.8210   23.9180 C   0  0  0  0  0  3  0  0  0  0  0  0
  -21.2360   -6.0320   25.0820 C   0  0  0  0  0  3  0  0  0  0  0  0
  -21.5440   -4.6600   25.0320 C   0  0  0  0  0  0  0  0  0  0  0  0
  -21.9540   -4.0750   23.8210 C   0  0  0  0  0  3  0  0  0  0  0  0
  -22.0500   -4.8600   22.6580 C   0  0  0  0  0  0  0  0  0  0  0  0
  -22.4210   -4.2850   21.4900 F   0  0  0  0  0  0  0  0  0  0  0  0
  -21.4480   -3.9020   26.1490 F   0  0  0  0  0  0  0  0  0  0  0  0
  -22.8830  -13.5830   21.1250 C   0  0  0  0  0  0  0  0  0  0  0  0
  -22.1920  -12.8980   22.0280 N   0  0  0  0  0  0  0  0  0  0  0  0
  -22.4270  -14.6060   20.6150 O   0  0  0  0  0  0  0  0  0  0  0  0
  -22.5730  -12.0710   22.4630 H   0  0  0  0  0  0  0  0  0  0  0  0
  -21.2680  -13.2080   22.2920 H   0  0  0  0  0  0  0  0  0  0  0  0
  -25.4830  -15.2340   20.1760 N   0  0  0  0  0  0  0  0  0  0  0  0
  -24.7230  -15.8980   20.2820 H   0  0  0  0  0  0  0  0  0  0  0  0
  -26.3180  -15.6570   19.7930 H   0  0  0  0  0  0  0  0  0  0  0  0
  -28.2220  -24.3300   20.2950 C   0  0  0  0  0  2  0  0  0  0  0  0
  -28.5820  -25.5650   19.4340 C   0  0  0  0  0  2  0  0  0  0  0  0
  -28.4200  -26.7980   20.1400 O   0  0  0  0  0  0  0  0  0  0  0  0
  -24.5850  -31.8910   23.2710 C   0  0  0  0  0  0  0  0  0  0  0  0
  -27.2120  -27.4630   20.1520 C   0  0  0  0  0  0  0  0  0  0  0  0
  -23.3640  -30.4970   21.6330 C   0  0  0  0  0  3  0  0  0  0  0  0
  -24.8060  -28.9570   20.1990 C   0  0  0  0  0  0  0  0  0  0  0  0
  -25.8890  -30.8510   21.4230 C   0  0  0  0  0  2  0  0  0  0  0  0
  -25.9670  -29.4810   20.7790 C   0  0  0  0  0  0  0  0  0  0  0  0
  -27.1670  -28.7390   20.7590 C   0  0  0  0  0  3  0  0  0  0  0  0
  -26.0260  -26.9410   19.5830 C   0  0  0  0  0  3  0  0  0  0  0  0
  -24.8290  -27.6830   19.6060 C   0  0  0  0  0  3  0  0  0  0  0  0
  -23.5650  -29.8210   20.2500 C   0  0  0  0  0  2  0  0  0  0  0  0
  -24.6300  -31.0960   22.1660 N   0  0  0  0  0  0  0  0  0  0  0  0
  -23.5090  -32.1610   23.8230 O   0  0  0  0  0  0  0  0  0  0  0  0
  -22.7220  -29.4720   22.5940 C   0  0  0  0  0  0  0  0  0  0  0  0
  -21.3980  -29.2850   22.4650 N   0  0  0  0  0  0  0  0  0  0  0  0
  -23.4080  -28.8470   23.4060 O   0  0  0  0  0  0  0  0  0  0  0  0
  -20.9060  -29.8400   21.7800 H   0  0  0  0  0  0  0  0  0  0  0  0
  -18.0280  -28.0760   22.9480 C   0  0  0  0  0  0  0  0  0  0  0  0
  -20.5840  -28.3460   23.2350 C   0  0  0  0  0  3  0  0  0  0  0  0
  -20.6980  -26.9130   22.6660 C   0  0  0  0  0  2  0  0  0  0  0  0
  -19.6030  -26.5810   21.6480 C   0  0  0  0  0  2  0  0  0  0  0  0
  -18.2150  -26.7240   22.2820 C   0  0  0  0  0  2  0  0  0  0  0  0
  -19.1420  -28.8450   23.3810 C   0  0  0  0  0  0  0  0  0  0  0  0
  -18.9130  -30.1130   23.9590 C   0  0  0  0  0  3  0  0  0  0  0  0
  -17.6060  -30.6100   24.1120 C   0  0  0  0  0  3  0  0  0  0  0  0
  -16.5070  -29.8370   23.6990 C   0  0  0  0  0  3  0  0  0  0  0  0
  -16.7190  -28.5730   23.1200 C   0  0  0  0  0  3  0  0  0  0  0  0
  -25.8790  -32.5170   23.8810 C   0  0  0  0  0  3  0  0  0  0  0  0
  -25.5810  -33.9160   24.2100 N   0  0  0  0  0  0  0  0  0  0  0  0
  -25.9180  -34.9660   23.4480 C   0  0  0  0  0  0  0  0  0  0  0  0
  -26.5860  -34.8580   22.4170 O   0  0  0  0  0  0  0  0  0  0  0  0
  -24.9920  -34.0760   25.0140 H   0  0  0  0  0  0  0  0  0  0  0  0
  -24.1980  -36.7650   23.0890 C   0  0  0  0  0  1  0  0  0  0  0  0
  -25.4350  -36.3550   23.9040 C   0  0  0  0  0  3  0  0  0  0  0  0
  -27.5690  -37.2280   24.7430 C   0  0  0  0  0  1  0  0  0  0  0  0
  -26.4700  -37.4040   23.7970 N   0  0  0  0  0  0  0  0  0  0  0  0
  -26.0660  -38.3240   23.9510 H   0  0  0  0  0  0  0  0  0  0  0  0
  -26.4020  -31.7450   25.1540 C   0  0  1  0  0  0  0  0  0  0  0  0
  -25.3180  -31.5100   26.2310 C   0  0  0  0  0  1  0  0  0  0  0  0
  -26.9770  -30.3660   24.7550 C   0  0  0  0  0  1  0  0  0  0  0  0
  -27.5590  -32.5360   25.8100 C   0  0  0  0  0  1  0  0  0  0  0  0
  1  3  2  0
  2  1  1  0
  2 48  1  0
  4  2  1  0
  5  7  1  0
  6  5  2  0
  6  1  1  0
  7  8  2  0
  9  8  1  0
 10 18  1  0
 11 16  1  0
 12 13  1  0
 12 11  1  0
 14 13  1  0
 14 23  1  0
 14 15  1  0
 16 10  1  0
 16 15  1  0
 17 10  2  0
 18  9  1  0
 18 19  1  0
 20 21  2  0
 21 40  1  0
 22 21  1  0
 22 25  1  0
 23 20  1  0
 23 24  1  0
 24 22  2  0
 25 26  1  0
 26 27  2  0
 28 31  1  0
 28 27  1  0
 29 28  2  0
 30 29  1  0
 30 25  2  0
 31 32  1  0
 32 33  1  0
 33 34  2  0
 35 34  1  0
 35 39  1  0
 36 35  2  0
 37 32  2  0
 37 36  1  0
 38 37  1  0
 40 41  1  0
 41 44  1  0
 41 43  1  0
 42 40  2  0
 45 46  1  0
 45 20  1  0
 47 45  1  0
 49 50  1  0
 49 48  1  0
 50 52  1  0
 51 62  2  0
 52 57  1  0
 53 61  1  0
 53 63  1  0
 54 60  1  0
 54 56  1  0
 55 61  1  0
 56 55  1  0
 57 56  2  0
 58 59  1  0
 58 52  2  0
 59 54  2  0
 60 53  1  0
 61 51  1  0
 63 65  2  0
 64 63  1  0
 66 64  1  0
 67 76  2  0
 67 72  1  0
 68 64  1  0
 68 72  1  0
 69 68  1  0
 70 71  1  0
 70 69  1  0
 71 67  1  0
 72 73  2  0
 73 74  1  0
 75 74  2  0
 76 75  1  0
 77 51  1  0
 77 78  1  0
 77 87  1  0
 78 81  1  0
 79 83  1  0
 79 78  1  0
 80 79  2  0
 83 82  1  0
 85 83  1  0
 85 86  1  0
 85 84  1  0
 87 90  1  1
 87 88  1  0
 89 87  1  0
M  ISO  4  10 100  18 100  49 101  50 101
M  END
>  <TORSDO>  (72) 
F 21

>  <SCORE>  (72) 
-12.763

>  <name>  (72) 
72

>  <ligand_id>  (72) 
72

>  <original_smiles>  (72) 
[H]C(C(=O)N([H])C([H])([H])C([H])([H])Oc1c([H])c([H])c2c(c1[H])C([H])([H])N(C(=O)C([H])(N([H])C(=O)C([H])(N([H])C([H])([H])[H])C([H])([H])[H])C(C([H])([H])[H])(C([H])([H])[H])C([H])([H])[H])C([H])(C(=O)N([H])C1([H])c3c([H])c([H])c([H])c([H])c3C([H])([H])C([H])([H])C1([H])[H])C2([H])[H])=C([H])C([H])=C([H])C([H])([H])N([H])C(=O)N1C([H])([H])C([H])([H])C([H])([H])C([H])(n2nc(-c3c([H])c([H])c(Oc4c([H])c([H])c(F)c([H])c4F)c([H])c3[H])c(C(=O)N([H])[H])c2N([H])[H])C1([H])[H]

>  <smiles>  (72) 
[H]C(C(=O)N([H])C([H])([H])C([H])([H])Oc1c([H])c([H])c2c(c1[H])C([H])([H])N(C(=O)C([H])(N([H])C(=O)C([H])(N([H])C([H])([H])[H])C([H])([H])[H])C(C([H])([H])[H])(C([H])([H])[H])C([H])([H])[H])C([H])(C(=O)N([H])C1([H])c3c([H])c([H])c([H])c([H])c3C([H])([H])C([H])([H])C1([H])[H])C2([H])[H])=C([H])C([H])=C([H])C([H])([H])N([H])C(=O)N1C([H])([H])C([H])([H])C([H])([H])C([H])(n2nc(-c3c([H])c([H])c(Oc4c([H])c([H])c(F)c([H])c4F)c([H])c3[H])c(C(=O)N([H])[H])c2N([H])[H])C1([H])[H]

$$$$
73:0:0
     RDKit          3D

101108  0  0  1  0  0  0  0  0999 V2000
  -23.6020  -22.9600   18.5200 N   0  0  0  0  0  4  0  0  0  0  0  0
  -22.7350  -23.4650   18.4060 H   0  0  0  0  0  0  0  0  0  0  0  0
  -24.3360  -23.5770   18.2180 H   0  0  0  0  0  0  0  0  0  0  0  0
  -23.7110  -22.6350   19.9650 C   0  0  0  0  0  2  0  0  0  0  0  0
  -24.7190  -23.5380   20.7310 C   0  0  0  0  0  2  0  0  0  0  0  0
  -26.1860  -23.0280   20.6600 C   0  0  0  0  0  2  0  0  0  0  0  0
  -27.0850  -23.3990   21.8640 C   0  0  0  0  0  2  0  0  0  0  0  0
  -27.5020  -24.8230   21.8560 N   0  0  0  0  0  4  0  0  0  0  0  0
  -27.5000  -25.1300   22.8210 H   0  0  0  0  0  0  0  0  0  0  0  0
  -26.7790  -25.3520   21.3940 H   0  0  0  0  0  0  0  0  0  0  0  0
  -28.8490  -25.0480   21.2330 C   0  0  0  0  0  2  0  0  0  0  0  0
  -29.3530  -26.5100   21.1880 C   0  0  0  0  0  2  0  0  0  0  0  0
  -29.0360  -27.1230   19.9370 O   0  0  0  0  0  0  0  0  0  0  0  0
  -24.6350  -31.4210   23.4330 C   0  0  0  0  0  0  0  0  0  0  0  0
  -27.8220  -27.7470   19.9550 C   0  0  0  0  0  0  0  0  0  0  0  0
  -23.6340  -30.1120   21.5860 C   0  0  0  0  0  3  0  0  0  0  0  0
  -25.2800  -28.9420   20.0330 C   0  0  0  0  0  0  0  0  0  0  0  0
  -26.0920  -30.7840   21.5230 C   0  0  0  0  0  2  0  0  0  0  0  0
  -26.3480  -29.5240   20.7280 C   0  0  0  0  0  0  0  0  0  0  0  0
  -27.6210  -28.9290   20.6980 C   0  0  0  0  0  3  0  0  0  0  0  0
  -26.7540  -27.1790   19.2370 C   0  0  0  0  0  3  0  0  0  0  0  0
  -25.4760  -27.7700   19.2760 C   0  0  0  0  0  3  0  0  0  0  0  0
  -23.9460  -29.6350   20.1410 C   0  0  0  0  0  2  0  0  0  0  0  0
  -24.8020  -30.7810   22.2420 N   0  0  0  0  0  0  0  0  0  0  0  0
  -23.5190  -31.5010   23.9680 O   0  0  0  0  0  0  0  0  0  0  0  0
  -23.0920  -28.9100   22.3950 C   0  0  0  0  0  0  0  0  0  0  0  0
  -21.8210  -28.5560   22.1490 N   0  0  0  0  0  0  0  0  0  0  0  0
  -23.8140  -28.3020   23.1900 O   0  0  0  0  0  0  0  0  0  0  0  0
  -21.2960  -29.1200   21.4950 H   0  0  0  0  0  0  0  0  0  0  0  0
  -18.6600  -26.7990   22.1800 C   0  0  0  0  0  0  0  0  0  0  0  0
  -21.1020  -27.4330   22.7500 C   0  0  0  0  0  3  0  0  0  0  0  0
  -21.4970  -26.0880   22.0900 C   0  0  0  0  0  2  0  0  0  0  0  0
  -20.5660  -25.6840   20.9430 C   0  0  0  0  0  2  0  0  0  0  0  0
  -19.1270  -25.5500   21.4420 C   0  0  0  0  0  2  0  0  0  0  0  0
  -19.5910  -27.6850   22.7840 C   0  0  0  0  0  0  0  0  0  0  0  0
  -19.1120  -28.8460   23.4330 C   0  0  0  0  0  3  0  0  0  0  0  0
  -17.7320  -29.1220   23.4860 C   0  0  0  0  0  3  0  0  0  0  0  0
  -16.8160  -28.2320   22.9000 C   0  0  0  0  0  3  0  0  0  0  0  0
  -17.2790  -27.0710   22.2550 C   0  0  0  0  0  3  0  0  0  0  0  0
  -25.8340  -32.1100   24.1630 C   0  0  0  0  0  3  0  0  0  0  0  0
  -25.4820  -33.5250   24.3390 N   0  0  0  0  0  0  0  0  0  0  0  0
  -25.9220  -34.5170   23.5510 C   0  0  0  0  0  0  0  0  0  0  0  0
  -26.7380  -34.3440   22.6420 O   0  0  0  0  0  0  0  0  0  0  0  0
  -24.7780  -33.7230   25.0320 H   0  0  0  0  0  0  0  0  0  0  0  0
  -24.2700  -36.2640   22.8150 C   0  0  0  0  0  1  0  0  0  0  0  0
  -25.3740  -35.9290   23.8290 C   0  0  0  0  0  3  0  0  0  0  0  0
  -27.3630  -36.8990   24.8930 C   0  0  0  0  0  1  0  0  0  0  0  0
  -26.4100  -36.9820   23.7900 N   0  0  0  0  0  0  0  0  0  0  0  0
  -25.9820  -37.9040   23.8100 H   0  0  0  0  0  0  0  0  0  0  0  0
  -26.1700  -31.4380   25.5500 C   0  0  1  0  0  0  0  0  0  0  0  0
  -24.9450  -31.2780   26.4800 C   0  0  0  0  0  1  0  0  0  0  0  0
  -26.7950  -30.0390   25.3410 C   0  0  0  0  0  1  0  0  0  0  0  0
  -27.2150  -32.2920   26.3010 C   0  0  0  0  0  1  0  0  0  0  0  0
  -23.5430  -21.8080   17.5880 C   0  0  0  0  0  2  0  0  0  0  0  0
  -24.9370  -21.3790   17.0710 C   0  0  0  0  0  2  0  0  0  0  0  0
  -25.7090  -20.5240   18.1030 C   0  0  0  0  0  2  0  0  0  0  0  0
  -27.1730  -20.2070   17.7530 C   0  0  0  0  0  2  0  0  0  0  0  0
  -27.9890  -19.9280   19.0380 C   0  0  0  0  0  2  0  0  0  0  0  0
  -29.1470  -19.0270   18.8370 N   0  0  0  0  0  4  0  0  0  0  0  0
  -29.9910  -19.5820   18.7910 H   0  0  0  0  0  0  0  0  0  0  0  0
  -29.0270  -18.5690   17.9450 H   0  0  0  0  0  0  0  0  0  0  0  0
  -29.2180  -17.9830   19.8900 C   0  0  0  0  0  2  0  0  0  0  0  0
  -30.3530  -16.9650   19.6920 C   0  0  0  0  0  2  0  0  0  0  0  0
  -31.0970  -14.8840   20.7270 C   0  0  0  0  0  0  0  0  0  0  0  0
  -30.8140  -12.6920   19.7130 C   0  0  0  0  0  2  0  0  0  0  0  0
  -29.9710  -12.9040   18.4410 C   0  0  0  0  0  2  0  0  0  0  0  0
  -28.4650  -12.8080   18.7650 C   0  0  0  0  0  2  0  0  0  0  0  0
  -28.0460  -13.6680   19.9900 C   0  0  0  0  0  3  0  0  0  0  0  0
  -29.0310  -13.4950   21.1740 C   0  0  0  0  0  2  0  0  0  0  0  0
  -30.4040  -13.7190   20.6810 N   0  0  0  0  0  0  0  0  0  0  0  0
  -32.2550  -15.0190   20.3480 O   0  0  0  0  0  0  0  0  0  0  0  0
  -30.3310  -15.9780   20.7820 N   0  0  0  0  0  0  0  0  0  0  0  0
  -29.6800  -16.0710   21.5740 H   0  0  0  0  0  0  0  0  0  0  0  0
  -25.6100  -14.2690   20.5760 C   0  0  0  0  0  0  0  0  0  0  0  0
  -24.5170  -13.4990   20.8700 C   0  0  0  0  0  0  0  0  0  0  0  0
  -24.9660  -12.1470   20.8370 C   0  0  0  0  0  0  0  0  0  0  0  0
  -26.6660  -13.3850   20.3880 N   0  0  0  0  0  0  0  0  0  0  0  0
  -26.2730  -12.0990   20.5940 N   0  0  0  0  0  0  0  0  0  0  0  0
  -24.2150  -10.8890   20.9570 C   0  0  0  0  0  0  0  0  0  0  0  0
  -24.5970   -9.8920   21.8840 C   0  0  0  0  0  3  0  0  0  0  0  0
  -23.8550   -8.6950   21.9980 C   0  0  0  0  0  3  0  0  0  0  0  0
  -22.7150   -8.4880   21.1830 C   0  0  0  0  0  0  0  0  0  0  0  0
  -22.3500   -9.4690   20.2440 C   0  0  0  0  0  3  0  0  0  0  0  0
  -23.0940  -10.6540   20.1290 C   0  0  0  0  0  3  0  0  0  0  0  0
  -21.9540   -7.3430   21.1980 O   0  0  0  0  0  0  0  0  0  0  0  0
  -21.7860   -6.6030   22.3410 C   0  0  0  0  0  0  0  0  0  0  0  0
  -21.2610   -7.1700   23.5220 C   0  0  0  0  0  3  0  0  0  0  0  0
  -21.0460   -6.3580   24.6520 C   0  0  0  0  0  3  0  0  0  0  0  0
  -21.3420   -4.9830   24.6010 C   0  0  0  0  0  0  0  0  0  0  0  0
  -21.8670   -4.4170   23.4240 C   0  0  0  0  0  3  0  0  0  0  0  0
  -22.0840   -5.2260   22.2950 C   0  0  0  0  0  0  0  0  0  0  0  0
  -22.5650   -4.6740   21.1520 F   0  0  0  0  0  0  0  0  0  0  0  0
  -21.1280   -4.2020   25.6850 F   0  0  0  0  0  0  0  0  0  0  0  0
  -23.1100  -13.9850   21.0830 C   0  0  0  0  0  0  0  0  0  0  0  0
  -22.3360  -13.2970   21.9070 N   0  0  0  0  0  0  0  0  0  0  0  0
  -22.7020  -15.0160   20.5460 O   0  0  0  0  0  0  0  0  0  0  0  0
  -22.6720  -12.4610   22.3630 H   0  0  0  0  0  0  0  0  0  0  0  0
  -21.3970  -13.6180   22.0940 H   0  0  0  0  0  0  0  0  0  0  0  0
  -25.7970  -15.6390   20.4390 N   0  0  0  0  0  0  0  0  0  0  0  0
  -25.0230  -16.3000   20.4490 H   0  0  0  0  0  0  0  0  0  0  0  0
  -26.6820  -16.0390   20.1690 H   0  0  0  0  0  0  0  0  0  0  0  0
  1  4  1  0
  2  1  1  0
  3  1  1  0
  4  5  1  0
  6  5  1  0
  6  7  1  0
  8  7  1  0
  8  9  1  0
 10  8  1  0
 11  8  1  0
 12 11  1  0
 13 15  1  0
 13 12  1  0
 14 25  2  0
 15 20  1  0
 16 24  1  0
 16 26  1  0
 17 23  1  0
 17 19  1  0
 18 24  1  0
 19 18  1  0
 20 19  2  0
 21 22  1  0
 21 15  2  0
 22 17  2  0
 23 16  1  0
 24 14  1  0
 26 28  2  0
 27 26  1  0
 29 27  1  0
 30 39  2  0
 30 35  1  0
 31 27  1  0
 31 35  1  0
 32 31  1  0
 33 34  1  0
 33 32  1  0
 34 30  1  0
 35 36  2  0
 36 37  1  0
 38 37  2  0
 39 38  1  0
 40 14  1  0
 40 41  1  0
 40 50  1  0
 41 44  1  0
 42 46  1  0
 42 41  1  0
 43 42  2  0
 46 45  1  0
 48 49  1  0
 48 46  1  0
 48 47  1  0
 50 53  1  1
 50 51  1  0
 52 50  1  0
 54  1  1  0
 55 54  1  0
 55 56  1  0
 57 56  1  0
 57 58  1  0
 59 58  1  0
 59 62  1  0
 60 59  1  0
 61 59  1  0
 63 62  1  0
 63 72  1  0
 64 72  1  0
 65 70  1  0
 66 67  1  0
 66 65  1  0
 68 67  1  0
 68 77  1  0
 68 69  1  0
 70 64  1  0
 70 69  1  0
 71 64  2  0
 72 73  1  0
 74 75  2  0
 75 94  1  0
 76 75  1  0
 76 79  1  0
 77 74  1  0
 77 78  1  0
 78 76  2  0
 79 80  1  0
 80 81  2  0
 82 85  1  0
 82 81  1  0
 83 82  2  0
 84 83  1  0
 84 79  2  0
 85 86  1  0
 86 87  1  0
 87 88  2  0
 89 88  1  0
 89 93  1  0
 90 89  2  0
 91 86  2  0
 91 90  1  0
 92 91  1  0
 94 95  1  0
 95 98  1  0
 95 97  1  0
 96 94  2  0
 99100  1  0
 99 74  1  0
101 99  1  0
M  ISO  4  12 101  13 101  64 100  72 100
M  END
>  <TORSDO>  (73) 
F 31

>  <SCORE>  (73) 
-9.007

>  <name>  (73) 
73

>  <ligand_id>  (73) 
73

>  <original_smiles>  (73) 
[H]c1c([H])c([H])c2c(c1[H])C([H])([H])C([H])([H])C([H])([H])C2([H])N([H])C(=O)C1([H])N(C(=O)C([H])(N([H])C(=O)C([H])(N([H])C([H])([H])[H])C([H])([H])[H])C(C([H])([H])[H])(C([H])([H])[H])C([H])([H])[H])C([H])([H])c2c([H])c(OC([H])([H])C([H])([H])[N+]([H])([H])C([H])([H])C([H])([H])C([H])([H])C([H])([H])[N+]([H])([H])C([H])([H])C([H])([H])C([H])([H])C([H])([H])C([H])([H])[N+]([H])([H])C([H])([H])C([H])([H])N([H])C(=O)N3C([H])([H])C([H])([H])C([H])([H])C([H])(n4nc(-c5c([H])c([H])c(Oc6c([H])c([H])c(F)c([H])c6F)c([H])c5[H])c(C(=O)N([H])[H])c4N([H])[H])C3([H])[H])c([H])c([H])c2C1([H])[H]

>  <smiles>  (73) 
[H]c1c([H])c([H])c2c(c1[H])C([H])([H])C([H])([H])C([H])([H])C2([H])N([H])C(=O)C1([H])N(C(=O)C([H])(N([H])C(=O)C([H])(N([H])C([H])([H])[H])C([H])([H])[H])C(C([H])([H])[H])(C([H])([H])[H])C([H])([H])[H])C([H])([H])c2c([H])c(OC([H])([H])C([H])([H])[N+]([H])([H])C([H])([H])C([H])([H])C([H])([H])C([H])([H])[N+]([H])([H])C([H])([H])C([H])([H])C([H])([H])C([H])([H])C([H])([H])[N+]([H])([H])C([H])([H])C([H])([H])N([H])C(=O)N3C([H])([H])C([H])([H])C([H])([H])C([H])(n4nc(-c5c([H])c([H])c(Oc6c([H])c([H])c(F)c([H])c6F)c([H])c5[H])c(C(=O)N([H])[H])c4N([H])[H])C3([H])[H])c([H])c([H])c2C1([H])[H]

$$$$
74:0:0
     RDKit          3D

 97104  0  0  1  0  0  0  0  0999 V2000
  -31.9360  -22.4700   24.9660 C   0  0  0  0  0  2  0  0  0  0  0  0
  -31.5150  -23.8700   25.2000 N   0  0  0  0  0  4  0  0  0  0  0  0
  -32.1480  -24.2680   25.8760 H   0  0  0  0  0  0  0  0  0  0  0  0
  -30.6020  -23.8590   25.6190 H   0  0  0  0  0  0  0  0  0  0  0  0
  -31.5160  -24.7560   24.0120 C   0  0  0  0  0  2  0  0  0  0  0  0
  -30.1630  -25.4770   23.8270 C   0  0  0  0  0  2  0  0  0  0  0  0
  -30.1530  -26.5380   22.7020 C   0  0  0  0  0  2  0  0  0  0  0  0
  -28.7310  -26.7780   22.1670 C   0  0  0  0  0  2  0  0  0  0  0  0
  -28.4880  -28.1390   21.8040 O   0  0  0  0  0  0  0  0  0  0  0  0
  -24.0700  -28.3050   27.3390 C   0  0  0  0  0  0  0  0  0  0  0  0
  -27.2710  -28.5610   22.2750 C   0  0  0  0  0  0  0  0  0  0  0  0
  -23.0690  -28.8750   25.1450 C   0  0  0  0  0  3  0  0  0  0  0  0
  -24.7260  -29.2860   23.2460 C   0  0  0  0  0  0  0  0  0  0  0  0
  -25.5400  -29.3340   25.6130 C   0  0  0  0  0  2  0  0  0  0  0  0
  -25.7930  -29.1200   24.1370 C   0  0  0  0  0  0  0  0  0  0  0  0
  -27.0690  -28.7610   23.6570 C   0  0  0  0  0  3  0  0  0  0  0  0
  -26.1970  -28.7420   21.3810 C   0  0  0  0  0  3  0  0  0  0  0  0
  -24.9190  -29.0960   21.8660 C   0  0  0  0  0  3  0  0  0  0  0  0
  -23.3950  -29.6710   23.8490 C   0  0  0  0  0  2  0  0  0  0  0  0
  -24.2410  -28.7950   26.0790 N   0  0  0  0  0  0  0  0  0  0  0  0
  -22.9520  -27.9610   27.7450 O   0  0  0  0  0  0  0  0  0  0  0  0
  -22.5040  -27.4940   24.7510 C   0  0  0  0  0  0  0  0  0  0  0  0
  -21.4120  -27.4950   23.9700 N   0  0  0  0  0  0  0  0  0  0  0  0
  -23.0560  -26.4560   25.1240 O   0  0  0  0  0  0  0  0  0  0  0  0
  -21.0130  -28.3880   23.7150 H   0  0  0  0  0  0  0  0  0  0  0  0
  -18.9290  -26.4040   21.5860 C   0  0  0  0  0  0  0  0  0  0  0  0
  -20.7300  -26.3160   23.4410 C   0  0  0  0  0  3  0  0  0  0  0  0
  -21.6120  -25.5760   22.4090 C   0  0  0  0  0  2  0  0  0  0  0  0
  -21.3530  -26.0240   20.9670 C   0  0  0  0  0  2  0  0  0  0  0  0
  -19.8900  -25.7830   20.5840 C   0  0  0  0  0  2  0  0  0  0  0  0
  -19.3300  -26.6680   22.9230 C   0  0  0  0  0  0  0  0  0  0  0  0
  -18.4110  -27.2780   23.8040 C   0  0  0  0  0  3  0  0  0  0  0  0
  -17.1150  -27.6150   23.3750 C   0  0  0  0  0  3  0  0  0  0  0  0
  -16.7150  -27.3320   22.0570 C   0  0  0  0  0  3  0  0  0  0  0  0
  -17.6220  -26.7270   21.1660 C   0  0  0  0  0  3  0  0  0  0  0  0
  -25.2630  -28.1700   28.3340 C   0  0  0  0  0  3  0  0  0  0  0  0
  -24.7380  -28.3570   29.6910 N   0  0  0  0  0  0  0  0  0  0  0  0
  -24.9790  -29.4300   30.4550 C   0  0  0  0  0  0  0  0  0  0  0  0
  -25.7350  -30.3420   30.1120 O   0  0  0  0  0  0  0  0  0  0  0  0
  -24.0680  -27.6750   30.0190 H   0  0  0  0  0  0  0  0  0  0  0  0
  -23.0560  -30.4520   31.7070 C   0  0  0  0  0  1  0  0  0  0  0  0
  -24.2620  -29.5040   31.8170 C   0  0  0  0  0  3  0  0  0  0  0  0
  -26.1680  -28.9650   33.2650 C   0  0  0  0  0  1  0  0  0  0  0  0
  -25.1420  -29.9460   32.9210 N   0  0  0  0  0  0  0  0  0  0  0  0
  -24.5990  -30.1410   33.7570 H   0  0  0  0  0  0  0  0  0  0  0  0
  -26.0190  -26.7910   28.2160 C   0  0  1  0  0  0  0  0  0  0  0  0
  -25.0870  -25.5610   28.3390 C   0  0  0  0  0  1  0  0  0  0  0  0
  -26.7620  -26.6960   26.8640 C   0  0  0  0  0  1  0  0  0  0  0  0
  -27.1010  -26.6860   29.3160 C   0  0  0  0  0  1  0  0  0  0  0  0
  -30.8200  -21.6510   24.2990 C   0  0  0  0  0  2  0  0  0  0  0  0
  -31.3380  -20.5730   23.3280 C   0  0  0  0  0  2  0  0  0  0  0  0
  -30.2680  -20.1710   22.2960 C   0  0  0  0  0  2  0  0  0  0  0  0
  -30.8510  -19.6110   21.0560 N   0  0  0  0  0  4  0  0  0  0  0  0
  -31.8030  -19.9310   20.9700 H   0  0  0  0  0  0  0  0  0  0  0  0
  -30.8900  -18.6030   21.1330 H   0  0  0  0  0  0  0  0  0  0  0  0
  -30.1270  -19.9680   19.8130 C   0  0  0  0  0  2  0  0  0  0  0  0
  -30.8990  -21.0000   18.9540 C   0  0  0  0  0  2  0  0  0  0  0  0
  -31.3250  -22.2680   19.7310 C   0  0  0  0  0  2  0  0  0  0  0  0
  -32.1680  -23.2720   18.9200 C   0  0  0  0  0  2  0  0  0  0  0  0
  -31.8300  -25.3710   17.6250 C   0  0  0  0  0  0  0  0  0  0  0  0
  -31.5130  -27.0340   15.8200 C   0  0  0  0  0  2  0  0  0  0  0  0
  -30.8750  -28.3520   16.2950 C   0  0  0  0  0  2  0  0  0  0  0  0
  -29.3410  -28.2440   16.2910 C   0  0  0  0  0  2  0  0  0  0  0  0
  -28.8410  -26.9740   17.0270 C   0  0  0  0  0  3  0  0  0  0  0  0
  -29.5880  -25.7180   16.5310 C   0  0  0  0  0  2  0  0  0  0  0  0
  -31.0370  -25.9360   16.6760 N   0  0  0  0  0  0  0  0  0  0  0  0
  -32.9440  -25.8150   17.9160 O   0  0  0  0  0  0  0  0  0  0  0  0
  -31.3770  -24.2040   18.1160 N   0  0  0  0  0  0  0  0  0  0  0  0
  -30.4700  -23.8990   17.7950 H   0  0  0  0  0  0  0  0  0  0  0  0
  -26.4290  -26.7070   17.8900 C   0  0  0  0  0  0  0  0  0  0  0  0
  -25.2260  -26.6500   17.2390 C   0  0  0  0  0  0  0  0  0  0  0  0
  -25.5280  -26.7400   15.8450 C   0  0  0  0  0  0  0  0  0  0  0  0
  -27.3930  -26.8200   16.9000 N   0  0  0  0  0  0  0  0  0  0  0  0
  -26.8410  -26.7860   15.6590 N   0  0  0  0  0  0  0  0  0  0  0  0
  -24.6420  -26.8410   14.6800 C   0  0  0  0  0  0  0  0  0  0  0  0
  -24.7390  -25.9390   13.5970 C   0  0  0  0  0  3  0  0  0  0  0  0
  -23.8640  -26.0460   12.4940 C   0  0  0  0  0  3  0  0  0  0  0  0
  -22.8780  -27.0600   12.4660 C   0  0  0  0  0  0  0  0  0  0  0  0
  -22.7990  -27.9700   13.5350 C   0  0  0  0  0  3  0  0  0  0  0  0
  -23.6730  -27.8650   14.6310 C   0  0  0  0  0  3  0  0  0  0  0  0
  -22.0030  -27.2560   11.4260 O   0  0  0  0  0  0  0  0  0  0  0  0
  -21.5960  -26.2220   10.6210 C   0  0  0  0  0  0  0  0  0  0  0  0
  -20.9300  -25.0910   11.1380 C   0  0  0  0  0  3  0  0  0  0  0  0
  -20.4690  -24.0850   10.2670 C   0  0  0  0  0  3  0  0  0  0  0  0
  -20.6680  -24.2090    8.8780 C   0  0  0  0  0  0  0  0  0  0  0  0
  -21.3270  -25.3390    8.3600 C   0  0  0  0  0  3  0  0  0  0  0  0
  -21.7900  -26.3420    9.2300 C   0  0  0  0  0  0  0  0  0  0  0  0
  -22.4060  -27.4370    8.7240 F   0  0  0  0  0  0  0  0  0  0  0  0
  -20.2180  -23.2480    8.0410 F   0  0  0  0  0  0  0  0  0  0  0  0
  -23.8660  -26.6090   17.8710 C   0  0  0  0  0  0  0  0  0  0  0  0
  -22.9130  -25.9400   17.2330 N   0  0  0  0  0  0  0  0  0  0  0  0
  -23.6540  -27.1320   18.9640 O   0  0  0  0  0  0  0  0  0  0  0  0
  -23.0950  -25.4930   16.3460 H   0  0  0  0  0  0  0  0  0  0  0  0
  -21.9890  -25.8750   17.6340 H   0  0  0  0  0  0  0  0  0  0  0  0
  -26.7850  -26.6910   19.2360 N   0  0  0  0  0  0  0  0  0  0  0  0
  -26.0970  -26.6630   19.9820 H   0  0  0  0  0  0  0  0  0  0  0  0
  -27.7370  -26.7780   19.5730 H   0  0  0  0  0  0  0  0  0  0  0  0
  1  2  1  0
  2  4  1  0
  2  3  1  0
  5  2  1  0
  6  5  1  0
  7  6  1  0
  8  7  1  0
  9  8  1  0
  9 11  1  0
 10 21  2  0
 11 16  1  0
 12 22  1  0
 12 20  1  0
 13 19  1  0
 13 15  1  0
 14 20  1  0
 15 14  1  0
 16 15  2  0
 17 18  1  0
 17 11  2  0
 18 13  2  0
 19 12  1  0
 20 10  1  0
 22 24  2  0
 23 22  1  0
 25 23  1  0
 26 31  1  0
 27 23  1  0
 28 27  1  0
 29 28  1  0
 30 29  1  0
 30 26  1  0
 31 27  1  0
 31 32  2  0
 33 32  1  0
 34 33  2  0
 35 26  2  0
 35 34  1  0
 36 10  1  0
 36 37  1  0
 37 40  1  0
 37 38  1  0
 38 42  1  0
 39 38  2  0
 42 41  1  0
 42 44  1  0
 44 43  1  0
 44 45  1  0
 46 36  1  0
 46 47  1  1
 46 49  1  0
 48 46  1  0
 50  1  1  0
 51 50  1  0
 52 51  1  0
 53 55  1  0
 53 52  1  0
 54 53  1  0
 56 53  1  0
 57 58  1  0
 57 56  1  0
 59 58  1  0
 60 67  2  0
 60 68  1  0
 61 62  1  0
 61 66  1  0
 63 62  1  0
 64 63  1  0
 65 66  1  0
 65 64  1  0
 66 60  1  0
 68 59  1  0
 69 68  1  0
 70 95  1  0
 71 90  1  0
 71 70  2  0
 72 71  1  0
 73 64  1  0
 73 70  1  0
 74 72  2  0
 74 73  1  0
 75 72  1  0
 76 75  2  0
 77 76  1  0
 78 77  2  0
 78 79  1  0
 79 80  2  0
 80 75  1  0
 81 78  1  0
 82 83  1  0
 82 81  1  0
 84 83  2  0
 85 84  1  0
 86 85  2  0
 86 87  1  0
 87 82  2  0
 88 87  1  0
 89 85  1  0
 90 92  2  0
 91 94  1  0
 91 90  1  0
 93 91  1  0
 95 97  1  0
 95 96  1  0
M  ISO  4   8 101   9 101  60 100  68 100
M  END
>  <TORSDO>  (74) 
F 29

>  <SCORE>  (74) 
5.662

>  <name>  (74) 
74

>  <ligand_id>  (74) 
74

>  <original_smiles>  (74) 
[H]c1c([H])c([H])c2c(c1[H])C([H])([H])C([H])([H])C([H])([H])C2([H])N([H])C(=O)C1([H])N(C(=O)C([H])(N([H])C(=O)C([H])(N([H])C([H])([H])[H])C([H])([H])[H])C(C([H])([H])[H])(C([H])([H])[H])C([H])([H])[H])C([H])([H])c2c([H])c(OC([H])([H])C([H])([H])C([H])([H])C([H])([H])[N+]([H])([H])C([H])([H])C([H])([H])C([H])([H])C([H])([H])[N+]([H])([H])C([H])([H])C([H])([H])C([H])([H])C([H])([H])N([H])C(=O)N3C([H])([H])C([H])([H])C([H])([H])C([H])(n4nc(-c5c([H])c([H])c(Oc6c([H])c([H])c(F)c([H])c6F)c([H])c5[H])c(C(=O)N([H])[H])c4N([H])[H])C3([H])[H])c([H])c([H])c2C1([H])[H]

>  <smiles>  (74) 
[H]c1c([H])c([H])c2c(c1[H])C([H])([H])C([H])([H])C([H])([H])C2([H])N([H])C(=O)C1([H])N(C(=O)C([H])(N([H])C(=O)C([H])(N([H])C([H])([H])[H])C([H])([H])[H])C(C([H])([H])[H])(C([H])([H])[H])C([H])([H])[H])C([H])([H])c2c([H])c(OC([H])([H])C([H])([H])C([H])([H])C([H])([H])[N+]([H])([H])C([H])([H])C([H])([H])C([H])([H])C([H])([H])[N+]([H])([H])C([H])([H])C([H])([H])C([H])([H])C([H])([H])N([H])C(=O)N3C([H])([H])C([H])([H])C([H])([H])C([H])(n4nc(-c5c([H])c([H])c(Oc6c([H])c([H])c(F)c([H])c6F)c([H])c5[H])c(C(=O)N([H])[H])c4N([H])[H])C3([H])[H])c([H])c([H])c2C1([H])[H]

$$$$
75:0:0
     RDKit          3D

101108  0  0  1  0  0  0  0  0999 V2000
  -32.2060  -20.6030   20.4480 C   0  0  0  0  0  2  0  0  0  0  0  0
  -32.4910  -20.6280   21.9620 C   0  0  0  0  0  2  0  0  0  0  0  0
  -31.2450  -20.8710   22.8490 C   0  0  0  0  0  2  0  0  0  0  0  0
  -30.5120  -23.0420   21.8170 C   0  0  0  0  0  0  0  0  0  0  0  0
  -30.2780  -21.8130   22.2880 N   0  0  0  0  0  0  0  0  0  0  0  0
  -31.6140  -23.5910   21.8680 O   0  0  0  0  0  0  0  0  0  0  0  0
  -29.3270  -21.4780   22.2120 H   0  0  0  0  0  0  0  0  0  0  0  0
  -29.3170  -23.5920   21.2080 C   0  0  0  0  0  3  0  0  0  0  0  0
  -29.3970  -24.5100   20.2290 C   0  0  0  0  0  3  0  0  0  0  0  0
  -28.1920  -25.1300   19.5610 C   0  0  0  0  0  2  0  0  0  0  0  0
  -28.2150  -26.5360   19.7610 O   0  0  0  0  0  0  0  0  0  0  0  0
  -24.5410  -31.6460   23.0080 C   0  0  0  0  0  0  0  0  0  0  0  0
  -27.0210  -27.2220   19.7890 C   0  0  0  0  0  0  0  0  0  0  0  0
  -23.2570  -30.2780   21.3930 C   0  0  0  0  0  3  0  0  0  0  0  0
  -24.6400  -28.7410   19.9000 C   0  0  0  0  0  0  0  0  0  0  0  0
  -25.7760  -30.6090   21.1110 C   0  0  0  0  0  2  0  0  0  0  0  0
  -25.8210  -29.2470   20.4550 C   0  0  0  0  0  0  0  0  0  0  0  0
  -27.0110  -28.4930   20.4010 C   0  0  0  0  0  3  0  0  0  0  0  0
  -25.8200  -26.7230   19.2310 C   0  0  0  0  0  3  0  0  0  0  0  0
  -24.6330  -27.4760   19.2880 C   0  0  0  0  0  3  0  0  0  0  0  0
  -23.4090  -29.6110   19.9990 C   0  0  0  0  0  2  0  0  0  0  0  0
  -24.5440  -30.8580   21.8950 N   0  0  0  0  0  0  0  0  0  0  0  0
  -23.4840  -31.9280   23.5880 O   0  0  0  0  0  0  0  0  0  0  0  0
  -22.6290  -29.2540   22.3640 C   0  0  0  0  0  0  0  0  0  0  0  0
  -21.2970  -29.1000   22.2850 N   0  0  0  0  0  0  0  0  0  0  0  0
  -23.3320  -28.6010   23.1400 O   0  0  0  0  0  0  0  0  0  0  0  0
  -20.7940  -29.6750   21.6240 H   0  0  0  0  0  0  0  0  0  0  0  0
  -17.9190  -27.9710   22.8840 C   0  0  0  0  0  0  0  0  0  0  0  0
  -20.4900  -28.1690   23.0740 C   0  0  0  0  0  3  0  0  0  0  0  0
  -20.5430  -26.7460   22.4720 C   0  0  0  0  0  2  0  0  0  0  0  0
  -19.3980  -26.4610   21.4940 C   0  0  0  0  0  2  0  0  0  0  0  0
  -18.0440  -26.6270   22.1880 C   0  0  0  0  0  2  0  0  0  0  0  0
  -19.0680  -28.7040   23.2850 C   0  0  0  0  0  0  0  0  0  0  0  0
  -18.8980  -29.9660   23.8930 C   0  0  0  0  0  3  0  0  0  0  0  0
  -17.6110  -30.4910   24.1120 C   0  0  0  0  0  3  0  0  0  0  0  0
  -16.4760  -29.7540   23.7300 C   0  0  0  0  0  3  0  0  0  0  0  0
  -16.6320  -28.4980   23.1190 C   0  0  0  0  0  3  0  0  0  0  0  0
  -25.8580  -32.2470   23.5890 C   0  0  0  0  0  3  0  0  0  0  0  0
  -25.5690  -33.6250   24.0050 N   0  0  0  0  0  0  0  0  0  0  0  0
  -25.8890  -34.7160   23.2960 C   0  0  0  0  0  0  0  0  0  0  0  0
  -26.5350  -34.6690   22.2440 O   0  0  0  0  0  0  0  0  0  0  0  0
  -24.9930  -33.7380   24.8250 H   0  0  0  0  0  0  0  0  0  0  0  0
  -24.1680  -36.5370   23.0760 C   0  0  0  0  0  1  0  0  0  0  0  0
  -25.4190  -36.0790   23.8410 C   0  0  0  0  0  3  0  0  0  0  0  0
  -27.5730  -36.8980   24.6870 C   0  0  0  0  0  1  0  0  0  0  0  0
  -26.4580  -37.1310   23.7730 N   0  0  0  0  0  0  0  0  0  0  0  0
  -26.0610  -38.0420   23.9850 H   0  0  0  0  0  0  0  0  0  0  0  0
  -26.4470  -31.4130   24.7900 C   0  0  1  0  0  0  0  0  0  0  0  0
  -25.4190  -31.1200   25.9070 C   0  0  0  0  0  1  0  0  0  0  0  0
  -27.0010  -30.0580   24.2900 C   0  0  0  0  0  1  0  0  0  0  0  0
  -27.6370  -32.1720   25.4230 C   0  0  0  0  0  1  0  0  0  0  0  0
  -33.4030  -20.1440   19.6030 C   0  0  0  0  0  2  0  0  0  0  0  0
  -33.2360  -20.4210   18.0950 C   0  0  0  0  0  2  0  0  0  0  0  0
  -32.0160  -19.7260   17.4560 C   0  0  0  0  0  2  0  0  0  0  0  0
  -30.8660  -20.6410   17.2610 N   0  0  0  0  0  4  0  0  0  0  0  0
  -31.0570  -21.2070   16.4490 H   0  0  0  0  0  0  0  0  0  0  0  0
  -30.7720  -21.2650   18.0460 H   0  0  0  0  0  0  0  0  0  0  0  0
  -29.5730  -19.9560   17.0470 C   0  0  0  0  0  2  0  0  0  0  0  0
  -28.7190  -19.9060   18.3330 C   0  0  0  0  0  2  0  0  0  0  0  0
  -28.1120  -18.5180   18.6120 C   0  0  0  0  0  2  0  0  0  0  0  0
  -29.1070  -17.5240   19.2400 C   0  0  0  0  0  2  0  0  0  0  0  0
  -29.4010  -17.8070   20.7290 C   0  0  0  0  0  2  0  0  0  0  0  0
  -30.5050  -16.9220   21.3350 C   0  0  0  0  0  2  0  0  0  0  0  0
  -30.7530  -14.5830   20.5200 C   0  0  0  0  0  0  0  0  0  0  0  0
  -30.4620  -12.4390   19.3520 C   0  0  0  0  0  2  0  0  0  0  0  0
  -29.5430  -12.6480   18.1340 C   0  0  0  0  0  2  0  0  0  0  0  0
  -28.0620  -12.5060   18.5340 C   0  0  0  0  0  2  0  0  0  0  0  0
  -27.6970  -13.3550   19.7800 C   0  0  0  0  0  3  0  0  0  0  0  0
  -28.7290  -13.1330   20.9120 C   0  0  0  0  0  2  0  0  0  0  0  0
  -30.0730  -13.4180   20.3770 N   0  0  0  0  0  0  0  0  0  0  0  0
  -31.8240  -14.8200   19.9550 O   0  0  0  0  0  0  0  0  0  0  0  0
  -30.1370  -15.5100   21.2610 N   0  0  0  0  0  0  0  0  0  0  0  0
  -29.2820  -15.2270   21.7160 H   0  0  0  0  0  0  0  0  0  0  0  0
  -25.2770  -13.9640   20.4260 C   0  0  0  0  0  0  0  0  0  0  0  0
  -24.2050  -13.1940   20.7850 C   0  0  0  0  0  0  0  0  0  0  0  0
  -24.6720  -11.8440   20.7810 C   0  0  0  0  0  0  0  0  0  0  0  0
  -26.3320  -13.0850   20.2310 N   0  0  0  0  0  0  0  0  0  0  0  0
  -25.9680  -11.8050   20.4960 N   0  0  0  0  0  0  0  0  0  0  0  0
  -23.9470  -10.5830   20.9740 C   0  0  0  0  0  0  0  0  0  0  0  0
  -24.3640   -9.6310   21.9310 C   0  0  0  0  0  3  0  0  0  0  0  0
  -23.6400   -8.4330   22.1110 C   0  0  0  0  0  3  0  0  0  0  0  0
  -22.4850   -8.1780   21.3330 C   0  0  0  0  0  0  0  0  0  0  0  0
  -22.0900   -9.1190   20.3650 C   0  0  0  0  0  3  0  0  0  0  0  0
  -22.8150  -10.3090   20.1820 C   0  0  0  0  0  3  0  0  0  0  0  0
  -21.7330   -7.0330   21.4220 O   0  0  0  0  0  0  0  0  0  0  0  0
  -21.6560   -6.3100   22.5870 C   0  0  0  0  0  0  0  0  0  0  0  0
  -21.1940   -6.8850   23.7920 C   0  0  0  0  0  3  0  0  0  0  0  0
  -21.0640   -6.0880   24.9480 C   0  0  0  0  0  3  0  0  0  0  0  0
  -21.3830   -4.7180   24.8990 C   0  0  0  0  0  0  0  0  0  0  0  0
  -21.8390   -4.1430   23.7000 C   0  0  0  0  0  3  0  0  0  0  0  0
  -21.9720   -4.9370   22.5460 C   0  0  0  0  0  0  0  0  0  0  0  0
  -22.3900   -4.3720   21.3880 F   0  0  0  0  0  0  0  0  0  0  0  0
  -21.2510   -3.9510   26.0070 F   0  0  0  0  0  0  0  0  0  0  0  0
  -22.8010  -13.6700   21.0270 C   0  0  0  0  0  0  0  0  0  0  0  0
  -22.0590  -12.9890   21.8930 N   0  0  0  0  0  0  0  0  0  0  0  0
  -22.3680  -14.6870   20.4830 O   0  0  0  0  0  0  0  0  0  0  0  0
  -22.4200  -12.1710   22.3610 H   0  0  0  0  0  0  0  0  0  0  0  0
  -21.1160  -13.2920   22.0910 H   0  0  0  0  0  0  0  0  0  0  0  0
  -25.4340  -15.3340   20.2340 N   0  0  0  0  0  0  0  0  0  0  0  0
  -24.6500  -15.9720   20.3190 H   0  0  0  0  0  0  0  0  0  0  0  0
  -26.2870  -15.7900   19.9420 H   0  0  0  0  0  0  0  0  0  0  0  0
  1  2  1  0
  2  3  1  0
  4  6  2  0
  4  5  1  0
  5  3  1  0
  7  5  1  0
  8  4  1  0
  9  8  2  0
 10 11  1  0
 10  9  1  0
 11 13  1  0
 12 23  2  0
 13 18  1  0
 14 22  1  0
 14 24  1  0
 15 21  1  0
 15 17  1  0
 16 22  1  0
 17 16  1  0
 18 17  2  0
 19 20  1  0
 19 13  2  0
 20 15  2  0
 21 14  1  0
 22 12  1  0
 24 26  2  0
 25 24  1  0
 27 25  1  0
 28 37  2  0
 28 33  1  0
 29 25  1  0
 29 33  1  0
 30 29  1  0
 31 32  1  0
 31 30  1  0
 32 28  1  0
 33 34  2  0
 34 35  1  0
 36 35  2  0
 37 36  1  0
 38 12  1  0
 38 39  1  0
 38 48  1  0
 39 42  1  0
 40 44  1  0
 40 39  1  0
 41 40  2  0
 44 43  1  0
 46 44  1  0
 46 47  1  0
 46 45  1  0
 48 51  1  1
 48 49  1  0
 50 48  1  0
 52  1  1  0
 53 52  1  0
 54 53  1  0
 55 54  1  0
 55 57  1  0
 56 55  1  0
 58 55  1  0
 58 59  1  0
 59 60  1  0
 60 61  1  0
 61 62  1  0
 62 63  1  0
 64 72  1  0
 65 70  1  0
 66 67  1  0
 66 65  1  0
 68 67  1  0
 68 77  1  0
 68 69  1  0
 70 64  1  0
 70 69  1  0
 71 64  2  0
 72 63  1  0
 72 73  1  0
 74 75  2  0
 75 94  1  0
 76 75  1  0
 76 79  1  0
 77 74  1  0
 77 78  1  0
 78 76  2  0
 79 80  1  0
 80 81  2  0
 82 85  1  0
 82 81  1  0
 83 82  2  0
 84 83  1  0
 84 79  2  0
 85 86  1  0
 86 87  1  0
 87 88  2  0
 89 88  1  0
 89 93  1  0
 90 89  2  0
 91 86  2  0
 91 90  1  0
 92 91  1  0
 94 95  1  0
 95 98  1  0
 95 97  1  0
 96 94  2  0
 99100  1  0
 99 74  1  0
101 99  1  0
M  ISO  4  10 101  11 101  64 100  72 100
M  END
>  <TORSDO>  (75) 
F 31

>  <SCORE>  (75) 
-10.399

>  <name>  (75) 
75

>  <ligand_id>  (75) 
75

>  <original_smiles>  (75) 
[H]C(C(=O)N([H])C([H])([H])C([H])([H])C([H])([H])C([H])([H])C([H])([H])C([H])([H])[N+]([H])([H])C([H])([H])C([H])([H])C([H])([H])C([H])([H])C([H])([H])C([H])([H])N([H])C(=O)N1C([H])([H])C([H])([H])C([H])([H])C([H])(n2nc(-c3c([H])c([H])c(Oc4c([H])c([H])c(F)c([H])c4F)c([H])c3[H])c(C(=O)N([H])[H])c2N([H])[H])C1([H])[H])=C([H])C([H])([H])Oc1c([H])c([H])c2c(c1[H])C([H])([H])N(C(=O)C([H])(N([H])C(=O)C([H])(N([H])C([H])([H])[H])C([H])([H])[H])C(C([H])([H])[H])(C([H])([H])[H])C([H])([H])[H])C([H])(C(=O)N([H])C1([H])c3c([H])c([H])c([H])c([H])c3C([H])([H])C([H])([H])C1([H])[H])C2([H])[H]

>  <smiles>  (75) 
[H]C(C(=O)N([H])C([H])([H])C([H])([H])C([H])([H])C([H])([H])C([H])([H])C([H])([H])[N+]([H])([H])C([H])([H])C([H])([H])C([H])([H])C([H])([H])C([H])([H])C([H])([H])N([H])C(=O)N1C([H])([H])C([H])([H])C([H])([H])C([H])(n2nc(-c3c([H])c([H])c(Oc4c([H])c([H])c(F)c([H])c4F)c([H])c3[H])c(C(=O)N([H])[H])c2N([H])[H])C1([H])[H])=C([H])C([H])([H])Oc1c([H])c([H])c2c(c1[H])C([H])([H])N(C(=O)C([H])(N([H])C(=O)C([H])(N([H])C([H])([H])[H])C([H])([H])[H])C(C([H])([H])[H])(C([H])([H])[H])C([H])([H])[H])C([H])(C(=O)N([H])C1([H])c3c([H])c([H])c([H])c([H])c3C([H])([H])C([H])([H])C1([H])[H])C2([H])[H]

$$$$
76:0:0
     RDKit          3D

109116  0  0  1  0  0  0  0  0999 V2000
  -28.6420  -21.4470   15.9940 C   0  0  0  0  0  3  0  0  0  0  0  0
  -28.9950  -19.2370   17.1460 C   0  0  0  0  0  0  0  0  0  0  0  0
  -29.2970  -20.5170   16.9140 N   0  0  0  0  0  0  0  0  0  0  0  0
  -28.1010  -18.6410   16.5440 O   0  0  0  0  0  0  0  0  0  0  0  0
  -30.1110  -20.9030   17.3750 H   0  0  0  0  0  0  0  0  0  0  0  0
  -29.8000  -18.5330   18.2490 C   0  0  0  0  0  2  0  0  0  0  0  0
  -28.9310  -17.6130   19.1460 C   0  0  0  0  0  2  0  0  0  0  0  0
  -29.2860  -17.6490   20.6510 C   0  0  0  0  0  2  0  0  0  0  0  0
  -30.4730  -16.7640   21.0770 C   0  0  0  0  0  2  0  0  0  0  0  0
  -30.7380  -14.4120   20.3020 C   0  0  0  0  0  0  0  0  0  0  0  0
  -30.3190  -12.3900   18.9660 C   0  0  0  0  0  2  0  0  0  0  0  0
  -29.3170  -12.7260   17.8440 C   0  0  0  0  0  2  0  0  0  0  0  0
  -27.8650  -12.6030   18.3460 C   0  0  0  0  0  2  0  0  0  0  0  0
  -27.6230  -13.3140   19.7030 C   0  0  0  0  0  3  0  0  0  0  0  0
  -28.7300  -12.9390   20.7170 C   0  0  0  0  0  2  0  0  0  0  0  0
  -30.0330  -13.2660   20.1130 N   0  0  0  0  0  0  0  0  0  0  0  0
  -31.8120  -14.6500   19.7430 O   0  0  0  0  0  0  0  0  0  0  0  0
  -30.1110  -15.3480   21.0220 N   0  0  0  0  0  0  0  0  0  0  0  0
  -29.2490  -15.0690   21.4660 H   0  0  0  0  0  0  0  0  0  0  0  0
  -25.2670  -13.9060   20.5530 C   0  0  0  0  0  0  0  0  0  0  0  0
  -24.1950  -13.1260   20.8950 C   0  0  0  0  0  0  0  0  0  0  0  0
  -24.6240  -11.7750   20.7310 C   0  0  0  0  0  0  0  0  0  0  0  0
  -26.2850  -13.0270   20.2160 N   0  0  0  0  0  0  0  0  0  0  0  0
  -25.9000  -11.7360   20.3710 N   0  0  0  0  0  0  0  0  0  0  0  0
  -23.8750  -10.5160   20.8430 C   0  0  0  0  0  0  0  0  0  0  0  0
  -24.3400   -9.4520   21.6500 C   0  0  0  0  0  3  0  0  0  0  0  0
  -23.5990   -8.2540   21.7520 C   0  0  0  0  0  3  0  0  0  0  0  0
  -22.3790   -8.1130   21.0470 C   0  0  0  0  0  0  0  0  0  0  0  0
  -21.9340   -9.1650   20.2300 C   0  0  0  0  0  3  0  0  0  0  0  0
  -22.6730  -10.3550   20.1250 C   0  0  0  0  0  3  0  0  0  0  0  0
  -21.6030   -6.9790   21.0700 O   0  0  0  0  0  0  0  0  0  0  0  0
  -21.6120   -6.1210   22.1410 C   0  0  0  0  0  0  0  0  0  0  0  0
  -21.3040   -6.5580   23.4480 C   0  0  0  0  0  3  0  0  0  0  0  0
  -21.2590   -5.6310   24.5090 C   0  0  0  0  0  3  0  0  0  0  0  0
  -21.5050   -4.2670   24.2640 C   0  0  0  0  0  0  0  0  0  0  0  0
  -21.8000   -3.8270   22.9610 C   0  0  0  0  0  3  0  0  0  0  0  0
  -21.8520   -4.7510   21.9050 C   0  0  0  0  0  0  0  0  0  0  0  0
  -22.1180   -4.3210   20.6470 F   0  0  0  0  0  0  0  0  0  0  0  0
  -21.4520   -3.3760   25.2820 F   0  0  0  0  0  0  0  0  0  0  0  0
  -22.8210  -13.6020   21.2720 C   0  0  0  0  0  0  0  0  0  0  0  0
  -22.1240  -12.8490   22.1130 N   0  0  0  0  0  0  0  0  0  0  0  0
  -22.3810  -14.6770   20.8620 O   0  0  0  0  0  0  0  0  0  0  0  0
  -22.4950  -11.9730   22.4540 H   0  0  0  0  0  0  0  0  0  0  0  0
  -21.2030  -13.1420   22.4100 H   0  0  0  0  0  0  0  0  0  0  0  0
  -25.4610  -15.2820   20.4810 N   0  0  0  0  0  0  0  0  0  0  0  0
  -24.7240  -15.9520   20.6680 H   0  0  0  0  0  0  0  0  0  0  0  0
  -26.3170  -15.7190   20.1640 H   0  0  0  0  0  0  0  0  0  0  0  0
  -29.6510  -22.5650   15.6530 C   0  0  0  0  0  0  0  0  0  0  0  0
  -29.1880  -23.7000   15.1120 N   0  0  0  0  0  0  0  0  0  0  0  0
  -30.8510  -22.3980   15.8910 O   0  0  0  0  0  0  0  0  0  0  0  0
  -28.1950  -23.7720   14.9430 H   0  0  0  0  0  0  0  0  0  0  0  0
  -29.9910  -24.8900   14.8180 C   0  0  0  0  0  2  0  0  0  0  0  0
  -30.5340  -25.5550   16.0960 C   0  0  0  0  0  2  0  0  0  0  0  0
  -29.5140  -25.6450   17.0930 O   0  0  0  0  0  0  0  0  0  0  0  0
  -30.0410  -25.4480   18.4020 C   0  0  0  0  0  2  0  0  0  0  0  0
  -28.9620  -25.5460   19.4880 C   0  0  0  0  0  2  0  0  0  0  0  0
  -28.7730  -26.9170   19.8370 O   0  0  0  0  0  0  0  0  0  0  0  0
  -24.5570  -31.6220   23.0540 C   0  0  0  0  0  0  0  0  0  0  0  0
  -27.5220  -27.4970   19.8290 C   0  0  0  0  0  0  0  0  0  0  0  0
  -23.4700  -30.2380   21.3150 C   0  0  0  0  0  3  0  0  0  0  0  0
  -25.0370  -28.8510   19.8640 C   0  0  0  0  0  0  0  0  0  0  0  0
  -25.9740  -30.7410   21.2070 C   0  0  0  0  0  2  0  0  0  0  0  0
  -26.1480  -29.4100   20.5080 C   0  0  0  0  0  0  0  0  0  0  0  0
  -27.3850  -28.7360   20.4940 C   0  0  0  0  0  3  0  0  0  0  0  0
  -26.3910  -26.9480   19.1790 C   0  0  0  0  0  3  0  0  0  0  0  0
  -25.1520  -27.6160   19.2050 C   0  0  0  0  0  3  0  0  0  0  0  0
  -23.7490  -29.6370   19.9130 C   0  0  0  0  0  2  0  0  0  0  0  0
  -24.6830  -30.8800   21.9180 N   0  0  0  0  0  0  0  0  0  0  0  0
  -23.4490  -31.8100   23.5770 O   0  0  0  0  0  0  0  0  0  0  0  0
  -22.8530  -29.1360   22.2070 C   0  0  0  0  0  0  0  0  0  0  0  0
  -21.5400  -28.9030   22.0460 N   0  0  0  0  0  0  0  0  0  0  0  0
  -23.5520  -28.4980   22.9970 O   0  0  0  0  0  0  0  0  0  0  0  0
  -21.0360  -29.4760   21.3850 H   0  0  0  0  0  0  0  0  0  0  0  0
  -18.2180  -27.5370   22.4100 C   0  0  0  0  0  0  0  0  0  0  0  0
  -20.7550  -27.8900   22.7490 C   0  0  0  0  0  3  0  0  0  0  0  0
  -20.9330  -26.4970   22.1000 C   0  0  0  0  0  2  0  0  0  0  0  0
  -19.8650  -26.1820   21.0480 C   0  0  0  0  0  2  0  0  0  0  0  0
  -18.4670  -26.2340   21.6690 C   0  0  0  0  0  2  0  0  0  0  0  0
  -19.2930  -28.3230   22.9020 C   0  0  0  0  0  0  0  0  0  0  0  0
  -19.0090  -29.5440   23.5520 C   0  0  0  0  0  3  0  0  0  0  0  0
  -17.6810  -29.9800   23.7150 C   0  0  0  0  0  3  0  0  0  0  0  0
  -16.6190  -29.1900   23.2410 C   0  0  0  0  0  3  0  0  0  0  0  0
  -16.8880  -27.9710   22.5930 C   0  0  0  0  0  3  0  0  0  0  0  0
  -25.7920  -32.2870   23.7370 C   0  0  0  0  0  3  0  0  0  0  0  0
  -26.3340  -31.4720   24.9750 C   0  0  1  0  0  0  0  0  0  0  0  0
  -25.2410  -31.1130   26.0090 C   0  0  0  0  0  1  0  0  0  0  0  0
  -26.9990  -30.1550   24.5140 C   0  0  0  0  0  1  0  0  0  0  0  0
  -27.4290  -32.2880   25.7020 C   0  0  0  0  0  1  0  0  0  0  0  0
  -25.3960  -33.6430   24.1410 N   0  0  0  0  0  0  0  0  0  0  0  0
  -25.6870  -34.7550   23.4540 C   0  0  0  0  0  0  0  0  0  0  0  0
  -26.3890  -34.7520   22.4380 O   0  0  0  0  0  0  0  0  0  0  0  0
  -24.7740  -33.7170   24.9320 H   0  0  0  0  0  0  0  0  0  0  0  0
  -23.8630  -36.4610   23.1540 C   0  0  0  0  0  1  0  0  0  0  0  0
  -25.1060  -36.0830   23.9760 C   0  0  0  0  0  3  0  0  0  0  0  0
  -27.1670  -37.0360   24.9100 C   0  0  0  0  0  1  0  0  0  0  0  0
  -26.0760  -37.1990   23.9520 N   0  0  0  0  0  0  0  0  0  0  0  0
  -25.6140  -38.0830   24.1480 H   0  0  0  0  0  0  0  0  0  0  0  0
  -27.2950  -21.9240   16.5990 C   0  0  0  0  0  2  0  0  0  0  0  0
  -27.4160  -23.0910   17.6070 C   0  0  0  0  0  2  0  0  0  0  0  0
  -26.3650  -23.0670   18.7380 C   0  0  0  0  0  2  0  0  0  0  0  0
  -26.2970  -23.5680   21.2030 C   0  0  0  0  0  0  0  0  0  0  0  0
  -26.9490  -24.0050   22.2810 N   0  0  0  0  0  0  0  0  0  0  0  0
  -25.0110  -23.2230   21.2980 N   0  0  0  0  0  4  0  0  0  0  0  0
  -26.9400  -23.4850   20.0290 N   0  0  0  0  0  0  0  0  0  0  0  0
  -26.5110  -24.0950   23.1880 H   0  0  0  0  0  0  0  0  0  0  0  0
  -27.9140  -24.3040   22.2390 H   0  0  0  0  0  0  0  0  0  0  0  0
  -24.4920  -23.2600   22.1630 H   0  0  0  0  0  0  0  0  0  0  0  0
  -24.4970  -22.8960   20.4940 H   0  0  0  0  0  0  0  0  0  0  0  0
  -27.9270  -23.7200   19.9960 H   0  0  0  0  0  0  0  0  0  0  0  0
  1 98  1  0
  1  3  1  0
  2  6  1  0
  3  2  1  0
  3  5  1  0
  4  2  2  0
  6  7  1  0
  7  8  1  0
  8  9  1  0
 10 18  1  0
 11 16  1  0
 12 13  1  0
 12 11  1  0
 14 13  1  0
 14 23  1  0
 14 15  1  0
 16 10  1  0
 16 15  1  0
 17 10  2  0
 18  9  1  0
 18 19  1  0
 20 21  2  0
 21 40  1  0
 22 25  1  0
 22 21  1  0
 23 24  1  0
 23 20  1  0
 24 22  2  0
 25 26  1  0
 26 27  2  0
 28 31  1  0
 28 27  1  0
 29 28  2  0
 30 29  1  0
 30 25  2  0
 31 32  1  0
 32 33  1  0
 33 34  2  0
 35 34  1  0
 35 39  1  0
 36 35  2  0
 37 32  2  0
 37 36  1  0
 38 37  1  0
 40 41  1  0
 41 44  1  0
 41 43  1  0
 42 40  2  0
 45 20  1  0
 45 46  1  0
 47 45  1  0
 48 50  2  0
 48  1  1  0
 49 48  1  0
 51 49  1  0
 52 49  1  0
 52 53  1  0
 53 54  1  0
 54 55  1  0
 55 56  1  0
 56 57  1  0
 58 69  2  0
 59 57  1  0
 59 64  1  0
 60 68  1  0
 60 70  1  0
 61 67  1  0
 61 63  1  0
 62 68  1  0
 63 62  1  0
 64 63  2  0
 65 66  1  0
 65 59  2  0
 66 61  2  0
 67 60  1  0
 68 58  1  0
 70 72  2  0
 71 70  1  0
 73 71  1  0
 74 83  2  0
 74 79  1  0
 75 71  1  0
 75 79  1  0
 76 75  1  0
 77 78  1  0
 77 76  1  0
 78 74  1  0
 79 80  2  0
 80 81  1  0
 82 81  2  0
 83 82  1  0
 84 58  1  0
 84 89  1  0
 84 85  1  0
 85 88  1  1
 85 86  1  0
 87 85  1  0
 89 92  1  0
 90 94  1  0
 90 89  1  0
 91 90  2  0
 94 93  1  0
 96 94  1  0
 96 97  1  0
 96 95  1  0
 98 99  1  0
 99100  1  0
100104  1  0
101103  2  0
101102  1  0
102105  1  0
103107  1  0
104101  1  0
106102  1  0
108103  1  0
109104  1  0
M  ISO  4  10 100  18 100  56 101  57 101
M  END
>  <TORSDO>  (76) 
F 31

>  <SCORE>  (76) 
-8.326

>  <name>  (76) 
76

>  <ligand_id>  (76) 
76

>  <original_smiles>  (76) 
[H]c1c([H])c([H])c2c(c1[H])C([H])([H])C([H])([H])C([H])([H])C2([H])N([H])C(=O)C1([H])N(C(=O)C([H])(N([H])C(=O)C([H])(N([H])C([H])([H])[H])C([H])([H])[H])C(C([H])([H])[H])(C([H])([H])[H])C([H])([H])[H])C([H])([H])c2c([H])c(OC([H])([H])C([H])([H])OC([H])([H])C([H])([H])N([H])C(=O)C([H])(N([H])C(=O)C([H])([H])C([H])([H])C([H])([H])C([H])([H])N([H])C(=O)N3C([H])([H])C([H])([H])C([H])([H])C([H])(n4nc(-c5c([H])c([H])c(Oc6c([H])c([H])c(F)c([H])c6F)c([H])c5[H])c(C(=O)N([H])[H])c4N([H])[H])C3([H])[H])C([H])([H])C([H])([H])C([H])([H])N([H])C(N([H])[H])=[N+]([H])[H])c([H])c([H])c2C1([H])[H]

>  <smiles>  (76) 
[H]c1c([H])c([H])c2c(c1[H])C([H])([H])C([H])([H])C([H])([H])C2([H])N([H])C(=O)C1([H])N(C(=O)C([H])(N([H])C(=O)C([H])(N([H])C([H])([H])[H])C([H])([H])[H])C(C([H])([H])[H])(C([H])([H])[H])C([H])([H])[H])C([H])([H])c2c([H])c(OC([H])([H])C([H])([H])OC([H])([H])C([H])([H])N([H])C(=O)C([H])(N([H])C(=O)C([H])([H])C([H])([H])C([H])([H])C([H])([H])N([H])C(=O)N3C([H])([H])C([H])([H])C([H])([H])C([H])(n4nc(-c5c([H])c([H])c(Oc6c([H])c([H])c(F)c([H])c6F)c([H])c5[H])c(C(=O)N([H])[H])c4N([H])[H])C3([H])[H])C([H])([H])C([H])([H])C([H])([H])N([H])C(N([H])[H])=[N+]([H])[H])c([H])c([H])c2C1([H])[H]

$$$$
77:0:0
     RDKit          3D

 95102  0  0  1  0  0  0  0  0999 V2000
  -26.4390  -22.7740   18.4790 C   0  0  0  0  0  2  0  0  0  0  0  0
  -27.6130  -23.1610   17.6540 N   0  0  0  0  0  4  0  0  0  0  0  0
  -27.5780  -22.6140   16.8060 H   0  0  0  0  0  0  0  0  0  0  0  0
  -28.4830  -22.9290   18.1020 H   0  0  0  0  0  0  0  0  0  0  0  0
  -27.6500  -24.5850   17.2500 C   0  0  0  0  0  2  0  0  0  0  0  0
  -28.6910  -25.4180   18.0310 C   0  0  0  0  0  2  0  0  0  0  0  0
  -28.4120  -25.6610   19.5320 C   0  0  0  0  0  2  0  0  0  0  0  0
  -28.3920  -27.0510   19.8540 O   0  0  0  0  0  0  0  0  0  0  0  0
  -24.5800  -31.9740   23.2360 C   0  0  0  0  0  0  0  0  0  0  0  0
  -27.1880  -27.7200   19.8920 C   0  0  0  0  0  0  0  0  0  0  0  0
  -23.3470  -30.6630   21.5380 C   0  0  0  0  0  3  0  0  0  0  0  0
  -24.7830  -29.1990   20.0250 C   0  0  0  0  0  0  0  0  0  0  0  0
  -25.8690  -31.0350   21.3280 C   0  0  0  0  0  2  0  0  0  0  0  0
  -25.9480  -29.7040   20.6140 C   0  0  0  0  0  0  0  0  0  0  0  0
  -27.1520  -28.9720   20.5410 C   0  0  0  0  0  3  0  0  0  0  0  0
  -25.9980  -27.2250   19.3060 C   0  0  0  0  0  3  0  0  0  0  0  0
  -24.8000  -27.9590   19.3670 C   0  0  0  0  0  3  0  0  0  0  0  0
  -23.5400  -30.0520   20.1270 C   0  0  0  0  0  2  0  0  0  0  0  0
  -24.6190  -31.2330   22.0940 N   0  0  0  0  0  0  0  0  0  0  0  0
  -23.5050  -32.2170   23.8020 O   0  0  0  0  0  0  0  0  0  0  0  0
  -22.7060  -29.5940   22.4520 C   0  0  0  0  0  0  0  0  0  0  0  0
  -21.3850  -29.4000   22.3100 N   0  0  0  0  0  0  0  0  0  0  0  0
  -23.3950  -28.9420   23.2440 O   0  0  0  0  0  0  0  0  0  0  0  0
  -20.8920  -29.9710   21.6370 H   0  0  0  0  0  0  0  0  0  0  0  0
  -18.0340  -28.1170   22.7160 C   0  0  0  0  0  0  0  0  0  0  0  0
  -20.5800  -28.4230   23.0400 C   0  0  0  0  0  3  0  0  0  0  0  0
  -20.7210  -27.0120   22.4270 C   0  0  0  0  0  2  0  0  0  0  0  0
  -19.6510  -26.7030   21.3800 C   0  0  0  0  0  2  0  0  0  0  0  0
  -18.2520  -26.7950   22.0010 C   0  0  0  0  0  2  0  0  0  0  0  0
  -19.1280  -28.8890   23.1900 C   0  0  0  0  0  0  0  0  0  0  0  0
  -18.8700  -30.1270   23.8200 C   0  0  0  0  0  3  0  0  0  0  0  0
  -17.5510  -30.5940   23.9770 C   0  0  0  0  0  3  0  0  0  0  0  0
  -16.4730  -29.8200   23.5160 C   0  0  0  0  0  3  0  0  0  0  0  0
  -16.7150  -28.5830   22.8910 C   0  0  0  0  0  3  0  0  0  0  0  0
  -25.8760  -32.5700   23.8710 C   0  0  0  0  0  3  0  0  0  0  0  0
  -25.5880  -33.9640   24.2350 N   0  0  0  0  0  0  0  0  0  0  0  0
  -25.9390  -35.0290   23.5010 C   0  0  0  0  0  0  0  0  0  0  0  0
  -26.6150  -34.9400   22.4730 O   0  0  0  0  0  0  0  0  0  0  0  0
  -24.9940  -34.1080   25.0390 H   0  0  0  0  0  0  0  0  0  0  0  0
  -24.2440  -36.8580   23.1680 C   0  0  0  0  0  1  0  0  0  0  0  0
  -25.4680  -36.4150   23.9860 C   0  0  0  0  0  3  0  0  0  0  0  0
  -27.6040  -37.2390   24.8630 C   0  0  0  0  0  1  0  0  0  0  0  0
  -26.5190  -37.4510   23.9080 N   0  0  0  0  0  0  0  0  0  0  0  0
  -26.1290  -38.3770   24.0690 H   0  0  0  0  0  0  0  0  0  0  0  0
  -26.3800  -31.7590   25.1270 C   0  0  1  0  0  0  0  0  0  0  0  0
  -25.2840  -31.5080   26.1870 C   0  0  0  0  0  1  0  0  0  0  0  0
  -26.9450  -30.3860   24.6950 C   0  0  0  0  0  1  0  0  0  0  0  0
  -27.5440  -32.5160   25.8110 C   0  0  0  0  0  1  0  0  0  0  0  0
  -26.6200  -21.4030   19.1640 C   0  0  0  0  0  2  0  0  0  0  0  0
  -27.5750  -21.4370   20.3840 C   0  0  0  0  0  2  0  0  0  0  0  0
  -27.9370  -20.0950   20.9020 N   0  0  0  0  0  4  0  0  0  0  0  0
  -28.3820  -20.2380   21.7960 H   0  0  0  0  0  0  0  0  0  0  0  0
  -27.1110  -19.5420   21.0680 H   0  0  0  0  0  0  0  0  0  0  0  0
  -28.8940  -19.3520   20.0500 C   0  0  0  0  0  2  0  0  0  0  0  0
  -29.6390  -18.2250   20.7970 C   0  0  0  0  0  2  0  0  0  0  0  0
  -30.8610  -17.7280   19.9990 C   0  0  0  0  0  2  0  0  0  0  0  0
  -31.7200  -16.6750   20.7280 C   0  0  0  0  0  2  0  0  0  0  0  0
  -31.6020  -14.3120   19.9060 C   0  0  0  0  0  0  0  0  0  0  0  0
  -31.0980  -12.0660   19.0030 C   0  0  0  0  0  2  0  0  0  0  0  0
  -30.1540  -12.1840   17.7930 C   0  0  0  0  0  2  0  0  0  0  0  0
  -28.6870  -12.1950   18.2640 C   0  0  0  0  0  2  0  0  0  0  0  0
  -28.4320  -13.2180   19.4040 C   0  0  0  0  0  3  0  0  0  0  0  0
  -29.4920  -13.0740   20.5180 C   0  0  0  0  0  2  0  0  0  0  0  0
  -30.8270  -13.1950   19.9060 N   0  0  0  0  0  0  0  0  0  0  0  0
  -32.6450  -14.4090   19.2490 O   0  0  0  0  0  0  0  0  0  0  0  0
  -31.1390  -15.3330   20.6460 N   0  0  0  0  0  0  0  0  0  0  0  0
  -30.3030  -15.1650   21.1860 H   0  0  0  0  0  0  0  0  0  0  0  0
  -26.1630  -14.0910   20.2510 C   0  0  0  0  0  0  0  0  0  0  0  0
  -25.0270  -13.4470   20.6600 C   0  0  0  0  0  0  0  0  0  0  0  0
  -25.3130  -12.0500   20.5720 C   0  0  0  0  0  0  0  0  0  0  0  0
  -27.0770  -13.0970   19.9430 N   0  0  0  0  0  0  0  0  0  0  0  0
  -26.5700  -11.8620   20.1930 N   0  0  0  0  0  0  0  0  0  0  0  0
  -24.4460  -10.8820   20.7760 C   0  0  0  0  0  0  0  0  0  0  0  0
  -24.7820   -9.8630   21.6930 C   0  0  0  0  0  3  0  0  0  0  0  0
  -23.9250   -8.7580   21.8830 C   0  0  0  0  0  3  0  0  0  0  0  0
  -22.7160   -8.6650   21.1520 C   0  0  0  0  0  0  0  0  0  0  0  0
  -22.3960   -9.6720   20.2250 C   0  0  0  0  0  3  0  0  0  0  0  0
  -23.2530  -10.7690   20.0340 C   0  0  0  0  0  3  0  0  0  0  0  0
  -21.8350   -7.6140   21.2460 O   0  0  0  0  0  0  0  0  0  0  0  0
  -21.6980   -6.8930   22.4050 C   0  0  0  0  0  0  0  0  0  0  0  0
  -21.3370   -7.5070   23.6240 C   0  0  0  0  0  3  0  0  0  0  0  0
  -21.1390   -6.7210   24.7770 C   0  0  0  0  0  3  0  0  0  0  0  0
  -21.2910   -5.3230   24.7120 C   0  0  0  0  0  0  0  0  0  0  0  0
  -21.6490   -4.7090   23.4990 C   0  0  0  0  0  3  0  0  0  0  0  0
  -21.8480   -5.4930   22.3490 C   0  0  0  0  0  0  0  0  0  0  0  0
  -22.1690   -4.8940   21.1750 F   0  0  0  0  0  0  0  0  0  0  0  0
  -21.0960   -4.5660   25.8180 F   0  0  0  0  0  0  0  0  0  0  0  0
  -23.7160  -14.0840   21.0230 C   0  0  0  0  0  0  0  0  0  0  0  0
  -22.9600  -13.4690   21.9280 N   0  0  0  0  0  0  0  0  0  0  0  0
  -23.3770  -15.1640   20.5420 O   0  0  0  0  0  0  0  0  0  0  0  0
  -23.2420  -12.5880   22.3300 H   0  0  0  0  0  0  0  0  0  0  0  0
  -22.0870  -13.8870   22.2180 H   0  0  0  0  0  0  0  0  0  0  0  0
  -26.4900  -15.4370   20.0990 N   0  0  0  0  0  0  0  0  0  0  0  0
  -25.8150  -16.1770   20.2540 H   0  0  0  0  0  0  0  0  0  0  0  0
  -27.3750  -15.7690   19.7400 H   0  0  0  0  0  0  0  0  0  0  0  0
  1 49  1  0
  2  4  1  0
  2  1  1  0
  3  2  1  0
  5  2  1  0
  5  6  1  0
  6  7  1  0
  7  8  1  0
  8 10  1  0
  9 20  2  0
 10 15  1  0
 11 19  1  0
 11 21  1  0
 12 18  1  0
 12 14  1  0
 13 19  1  0
 14 13  1  0
 15 14  2  0
 16 17  1  0
 16 10  2  0
 17 12  2  0
 18 11  1  0
 19  9  1  0
 21 23  2  0
 22 21  1  0
 24 22  1  0
 25 34  2  0
 25 30  1  0
 26 22  1  0
 26 30  1  0
 27 26  1  0
 28 29  1  0
 28 27  1  0
 29 25  1  0
 30 31  2  0
 31 32  1  0
 33 32  2  0
 34 33  1  0
 35  9  1  0
 35 36  1  0
 35 45  1  0
 36 39  1  0
 37 41  1  0
 37 36  1  0
 38 37  2  0
 41 40  1  0
 43 41  1  0
 43 44  1  0
 43 42  1  0
 45 48  1  1
 45 46  1  0
 47 45  1  0
 49 50  1  0
 50 51  1  0
 51 53  1  0
 51 52  1  0
 54 55  1  0
 54 51  1  0
 56 57  1  0
 56 55  1  0
 58 66  1  0
 59 64  1  0
 60 61  1  0
 60 59  1  0
 62 61  1  0
 62 71  1  0
 62 63  1  0
 64 58  1  0
 64 63  1  0
 65 58  2  0
 66 57  1  0
 66 67  1  0
 68 69  2  0
 69 88  1  0
 70 69  1  0
 70 73  1  0
 71 72  1  0
 71 68  1  0
 72 70  2  0
 73 74  1  0
 74 75  2  0
 76 79  1  0
 76 75  1  0
 77 76  2  0
 78 77  1  0
 78 73  2  0
 79 80  1  0
 80 81  1  0
 81 82  2  0
 83 82  1  0
 83 87  1  0
 84 83  2  0
 85 80  2  0
 85 84  1  0
 86 85  1  0
 88 89  1  0
 89 92  1  0
 89 91  1  0
 90 88  2  0
 93 68  1  0
 93 94  1  0
 95 93  1  0
M  ISO  4   7 101   8 101  58 100  66 100
M  END
>  <TORSDO>  (77) 
F 27

>  <SCORE>  (77) 
-10.688

>  <name>  (77) 
77

>  <ligand_id>  (77) 
77

>  <original_smiles>  (77) 
[H]c1c([H])c([H])c2c(c1[H])C([H])([H])C([H])([H])C([H])([H])C2([H])N([H])C(=O)C1([H])N(C(=O)C([H])(N([H])C(=O)C([H])(N([H])C([H])([H])[H])C([H])([H])[H])C(C([H])([H])[H])(C([H])([H])[H])C([H])([H])[H])C([H])([H])c2c([H])c(OC([H])([H])C([H])([H])C([H])([H])[N+]([H])([H])C([H])([H])C([H])([H])C([H])([H])[N+]([H])([H])C([H])([H])C([H])([H])C([H])([H])C([H])([H])N([H])C(=O)N3C([H])([H])C([H])([H])C([H])([H])C([H])(n4nc(-c5c([H])c([H])c(Oc6c([H])c([H])c(F)c([H])c6F)c([H])c5[H])c(C(=O)N([H])[H])c4N([H])[H])C3([H])[H])c([H])c([H])c2C1([H])[H]

>  <smiles>  (77) 
[H]c1c([H])c([H])c2c(c1[H])C([H])([H])C([H])([H])C([H])([H])C2([H])N([H])C(=O)C1([H])N(C(=O)C([H])(N([H])C(=O)C([H])(N([H])C([H])([H])[H])C([H])([H])[H])C(C([H])([H])[H])(C([H])([H])[H])C([H])([H])[H])C([H])([H])c2c([H])c(OC([H])([H])C([H])([H])C([H])([H])[N+]([H])([H])C([H])([H])C([H])([H])C([H])([H])[N+]([H])([H])C([H])([H])C([H])([H])C([H])([H])C([H])([H])N([H])C(=O)N3C([H])([H])C([H])([H])C([H])([H])C([H])(n4nc(-c5c([H])c([H])c(Oc6c([H])c([H])c(F)c([H])c6F)c([H])c5[H])c(C(=O)N([H])[H])c4N([H])[H])C3([H])[H])c([H])c([H])c2C1([H])[H]

$$$$
78:0:0
     RDKit          3D

101104  0  0  1  0  0  0  0  0999 V2000
  -23.0510  -23.5600   21.2520 N   0  0  0  0  0  4  0  0  0  0  0  0
  -22.5750  -24.2640   21.7930 H   0  0  0  0  0  0  0  0  0  0  0  0
  -23.0990  -22.7240   21.8120 H   0  0  0  0  0  0  0  0  0  0  0  0
  -24.4530  -24.0040   20.9680 C   0  0  0  0  0  2  0  0  0  0  0  0
  -25.5790  -22.9690   21.2650 C   0  0  0  0  0  2  0  0  0  0  0  0
  -26.1620  -22.3340   19.9640 C   0  0  0  0  0  2  0  0  0  0  0  0
  -26.5210  -20.8190   20.0230 C   0  0  0  0  0  2  0  0  0  0  0  0
  -27.0680  -20.3160   18.7300 N   0  0  0  0  0  4  0  0  0  0  0  0
  -27.5950  -21.0630   18.3050 H   0  0  0  0  0  0  0  0  0  0  0  0
  -26.2940  -20.1090   18.1190 H   0  0  0  0  0  0  0  0  0  0  0  0
  -27.9550  -19.1190   18.7980 C   0  0  0  0  0  2  0  0  0  0  0  0
  -28.6990  -18.8590   17.4550 C   0  0  0  0  0  2  0  0  0  0  0  0
  -30.1410  -18.2770   17.5310 C   0  0  0  0  0  2  0  0  0  0  0  0
  -31.3070  -16.2120   18.4350 C   0  0  0  0  0  0  0  0  0  0  0  0
  -31.8570  -13.8990   19.1210 C   0  0  0  0  0  2  0  0  0  0  0  0
  -31.0740  -12.9060   18.2360 C   0  0  0  0  0  2  0  0  0  0  0  0
  -29.6490  -12.6740   18.7780 C   0  0  0  0  0  2  0  0  0  0  0  0
  -28.9140  -14.0000   19.1110 C   0  0  0  0  0  3  0  0  0  0  0  0
  -29.8190  -14.9030   19.9740 C   0  0  0  0  0  2  0  0  0  0  0  0
  -31.0650  -15.1320   19.2220 N   0  0  0  0  0  0  0  0  0  0  0  0
  -32.3470  -16.3540   17.7810 O   0  0  0  0  0  0  0  0  0  0  0  0
  -30.2650  -17.0660   18.3490 N   0  0  0  0  0  0  0  0  0  0  0  0
  -29.4790  -16.8270   18.9360 H   0  0  0  0  0  0  0  0  0  0  0  0
  -26.6710  -14.6670   20.1840 C   0  0  0  0  0  0  0  0  0  0  0  0
  -25.6310  -13.9170   20.6620 C   0  0  0  0  0  0  0  0  0  0  0  0
  -26.0160  -12.5520   20.4890 C   0  0  0  0  0  0  0  0  0  0  0  0
  -27.6280  -13.7590   19.7560 N   0  0  0  0  0  0  0  0  0  0  0  0
  -27.2440  -12.4790   19.9930 N   0  0  0  0  0  0  0  0  0  0  0  0
  -25.2660  -11.3110   20.7110 C   0  0  0  0  0  0  0  0  0  0  0  0
  -25.5470  -10.4650   21.8070 C   0  0  0  0  0  3  0  0  0  0  0  0
  -24.8010   -9.2850   22.0090 C   0  0  0  0  0  3  0  0  0  0  0  0
  -23.7600   -8.9400   21.1140 C   0  0  0  0  0  0  0  0  0  0  0  0
  -23.5010   -9.7740   20.0110 C   0  0  0  0  0  3  0  0  0  0  0  0
  -24.2480  -10.9460   19.8090 C   0  0  0  0  0  3  0  0  0  0  0  0
  -23.0000   -7.8010   21.2160 O   0  0  0  0  0  0  0  0  0  0  0  0
  -22.4500   -7.4080   22.4100 C   0  0  0  0  0  0  0  0  0  0  0  0
  -21.5180   -8.2130   23.1010 C   0  0  0  0  0  3  0  0  0  0  0  0
  -20.9250   -7.7390   24.2890 C   0  0  0  0  0  3  0  0  0  0  0  0
  -21.2540   -6.4620   24.7810 C   0  0  0  0  0  0  0  0  0  0  0  0
  -22.1770   -5.6580   24.0910 C   0  0  0  0  0  3  0  0  0  0  0  0
  -22.7710   -6.1290   22.9060 C   0  0  0  0  0  0  0  0  0  0  0  0
  -23.6450   -5.3410   22.2340 F   0  0  0  0  0  0  0  0  0  0  0  0
  -20.6780   -6.0040   25.9170 F   0  0  0  0  0  0  0  0  0  0  0  0
  -24.3120  -14.4310   21.1610 C   0  0  0  0  0  0  0  0  0  0  0  0
  -23.6910  -13.7220   22.0970 N   0  0  0  0  0  0  0  0  0  0  0  0
  -23.8460  -15.4960   20.7550 O   0  0  0  0  0  0  0  0  0  0  0  0
  -24.0840  -12.8590   22.4440 H   0  0  0  0  0  0  0  0  0  0  0  0
  -22.8110  -14.0450   22.4710 H   0  0  0  0  0  0  0  0  0  0  0  0
  -26.8760  -16.0380   20.0570 N   0  0  0  0  0  0  0  0  0  0  0  0
  -26.1180  -16.6910   20.2230 H   0  0  0  0  0  0  0  0  0  0  0  0
  -27.6230  -16.4310   19.4980 H   0  0  0  0  0  0  0  0  0  0  0  0
  -22.2670  -23.2780   20.0090 C   0  0  0  0  0  2  0  0  0  0  0  0
  -22.7670  -22.0890   19.1040 C   0  0  0  0  0  2  0  0  0  0  0  0
  -23.0120  -22.1230   17.5040 C   0  0  0  0  0  2  0  0  0  0  0  0
  -23.8740  -23.0650   16.5970 N   0  0  0  0  0  0  0  0  0  0  0  0
  -23.3900  -23.9360   16.7230 H   0  0  0  0  0  0  0  0  0  0  0  0
  -23.6200  -22.7750   15.6570 H   0  0  0  0  0  0  0  0  0  0  0  0
  -26.1430  -23.7850   16.1530 C   0  0  0  0  0  1  0  0  0  0  0  0
  -27.5080  -24.3760   17.4280 C   0  0  0  0  0  2  0  0  0  0  0  0
  -28.0310  -24.6040   19.2350 C   0  0  0  0  0  2  0  0  0  0  0  0
  -28.4750  -25.6870   20.4910 O   0  0  0  0  0  0  0  0  0  0  0  0
  -25.8780  -29.0950   24.3330 C   0  0  0  0  0  0  0  0  0  0  0  0
  -29.6420  -26.4060   20.7490 C   0  0  0  0  0  3  0  0  0  0  0  0
  -25.9370  -29.1370   21.9060 C   0  0  0  0  0  3  0  0  0  0  0  0
  -28.1280  -28.5790   20.7210 C   0  0  0  0  0  0  0  0  0  0  0  0
  -28.0970  -28.8520   23.2060 C   0  0  0  0  0  2  0  0  0  0  0  0
  -28.6230  -28.1620   21.9630 C   0  0  0  0  0  3  0  0  0  0  0  0
  -29.5370  -27.0920   21.9860 C   0  0  0  0  0  2  0  0  0  0  0  0
  -29.7570  -27.1570   19.6060 C   0  0  0  0  0  2  0  0  0  0  0  0
  -28.7860  -28.1710   19.5360 C   0  0  0  0  0  3  0  0  0  0  0  0
  -26.9380  -29.4990   20.7700 C   0  0  0  0  0  2  0  0  0  0  0  0
  -26.6290  -29.0430   23.2050 N   0  0  0  0  0  0  0  0  0  0  0  0
  -24.6500  -29.2710   24.2910 O   0  0  0  0  0  0  0  0  0  0  0  0
  -25.1390  -27.8310   21.7230 C   0  0  0  0  0  0  0  0  0  0  0  0
  -23.8460  -27.9530   21.6470 N   0  0  0  0  0  0  0  0  0  0  0  0
  -25.6380  -26.7110   21.7430 O   0  0  0  0  0  0  0  0  0  0  0  0
  -23.4410  -28.8700   21.7750 H   0  0  0  0  0  0  0  0  0  0  0  0
  -20.0790  -28.1710   20.9740 C   0  0  0  0  0  0  0  0  0  0  0  0
  -22.9530  -26.8720   21.2940 C   0  0  0  0  0  2  0  0  0  0  0  0
  -23.0970  -26.1770   19.2660 C   0  0  0  0  0 15  0  0  0  0  0  0
  -21.3970  -26.9190   17.9760 C   0  0  0  0  0 15  0  0  0  0  0  0
  -19.8850  -27.9130   19.0750 C   0  0  0  0  0  1  0  0  0  0  0  0
  -21.3740  -27.7350   21.8900 C   0  0  0  0  0  0  0  0  0  0  0  0
  -21.2510  -27.8020   23.2870 C   0  0  0  0  0  3  0  0  0  0  0  0
  -20.0330  -28.1040   23.9090 C   0  0  0  0  0  3  0  0  0  0  0  0
  -18.8680  -28.3070   23.1520 C   0  0  0  0  0  3  0  0  0  0  0  0
  -18.8880  -28.3230   21.7370 C   0  0  0  0  0  3  0  0  0  0  0  0
  -26.5430  -28.9630   25.7220 C   0  0  0  0  0  3  0  0  0  0  0  0
  -26.3450  -30.2490   26.3980 N   0  0  0  0  0  0  0  0  0  0  0  0
  -27.2950  -31.1820   26.5310 C   0  0  0  0  0  0  0  0  0  0  0  0
  -28.4610  -31.0040   26.1710 O   0  0  0  0  0  0  0  0  0  0  0  0
  -25.4010  -30.4800   26.6710 H   0  0  0  0  0  0  0  0  0  0  0  0
  -26.7830  -33.6030   26.0900 C   0  0  0  0  0  1  0  0  0  0  0  0
  -26.8850  -32.5180   27.1740 C   0  0  0  0  0  3  0  0  0  0  0  0
  -27.7630  -32.1150   29.4300 C   0  0  0  0  0  1  0  0  0  0  0  0
  -27.8090  -32.9600   28.2400 N   0  0  0  0  0  0  0  0  0  0  0  0
  -27.6030  -33.9150   28.5210 H   0  0  0  0  0  0  0  0  0  0  0  0
  -25.9550  -27.7760   26.5750 C   0  0  1  0  0  0  0  0  0  0  0  0
  -24.4120  -27.7730   26.6690 C   0  0  0  0  0  1  0  0  0  0  0  0
  -26.3890  -26.4080   25.9980 C   0  0  0  0  0  1  0  0  0  0  0  0
  -26.5270  -27.8520   28.0080 C   0  0  0  0  0  1  0  0  0  0  0  0
  1  2  1  0
  1  3  1  0
  4  1  1  0
  4  5  1  0
  6  7  1  0
  6  5  1  0
  8 11  1  0
  8  7  1  0
  9  8  1  0
 10  8  1  0
 12 13  1  0
 12 11  1  0
 13 22  1  0
 14 20  1  0
 15 20  1  0
 16 17  1  0
 16 15  1  0
 18 17  1  0
 18 27  1  0
 18 19  1  0
 20 19  1  0
 21 14  2  0
 22 14  1  0
 22 23  1  0
 24 25  2  0
 25 44  1  0
 26 25  1  0
 26 29  1  0
 27 28  1  0
 27 24  1  0
 28 26  2  0
 29 30  1  0
 30 31  2  0
 32 35  1  0
 32 31  1  0
 33 32  2  0
 34 33  1  0
 34 29  2  0
 35 36  1  0
 36 41  2  0
 36 37  1  0
 37 38  2  0
 38 39  1  0
 39 43  1  0
 40 39  2  0
 41 40  1  0
 42 41  1  0
 44 45  1  0
 45 47  1  0
 45 48  1  0
 46 44  2  0
 49 24  1  0
 49 50  1  0
 51 49  1  0
 52  1  1  0
 53 52  1  0
 54 53  1  0
 55 56  1  0
 55 54  1  0
 57 55  1  0
 58 59  1  0
 59 60  1  0
 60 61  1  0
 63 61  1  0
 63 68  1  0
 64 74  1  0
 64 72  1  0
 65 71  1  0
 65 67  1  0
 67 68  1  0
 67 66  1  0
 69 63  1  0
 70 69  1  0
 70 65  2  0
 71 64  1  0
 72 66  1  0
 72 62  1  0
 73 62  2  0
 74 76  2  0
 75 74  1  0
 75 77  1  0
 78 87  2  0
 78 83  1  0
 79 75  1  0
 79 83  1  0
 82 78  1  0
 83 84  2  0
 84 85  1  0
 86 85  2  0
 87 86  1  0
 88 62  1  0
 88 89  1  0
 88 98  1  0
 89 90  1  0
 89 92  1  0
 90 94  1  0
 91 90  2  0
 94 93  1  0
 94 96  1  0
 96 97  1  0
 96 95  1  0
 98 99  1  1
 98101  1  0
100 98  1  0
M  ISO  4  14 100  22 100  60 101  61 101
M  END
>  <TORSDO>  (78) 
F 31

>  <SCORE>  (78) 
-1.928

>  <name>  (78) 
78

>  <ligand_id>  (78) 
78

>  <original_smiles>  (78) 
[H]c1c([H])c([H])c2c(c1[H])C([H])([H])C([H])([H])C([H])([H])C2([H])N([H])C(=O)C1([H])N(C(=O)C([H])(N([H])C(=O)C([H])(N([H])C([H])([H])[H])C([H])([H])[H])C(C([H])([H])[H])(C([H])([H])[H])C([H])([H])[H])C([H])([H])c2c([H])c(OC([H])([H])C([H])([H])C([H])([H])[N+]([H])([H])C([H])([H])C([H])([H])C([H])([H])[N+]([H])([H])C([H])([H])C([H])([H])C([H])([H])C([H])([H])[N+]([H])([H])C([H])([H])C([H])([H])C([H])([H])N([H])C(=O)N3C([H])([H])C([H])([H])C([H])([H])C([H])(n4nc(-c5c([H])c([H])c(Oc6c([H])c([H])c(F)c([H])c6F)c([H])c5[H])c(C(=O)N([H])[H])c4N([H])[H])C3([H])[H])c([H])c([H])c2C1([H])[H]

>  <smiles>  (78) 
[H]c1c([H])c([H])c2c(c1[H])C([H])([H])C([H])([H])C([H])([H])C2([H])N([H])C(=O)C1([H])N(C(=O)C([H])(N([H])C(=O)C([H])(N([H])C([H])([H])[H])C([H])([H])[H])C(C([H])([H])[H])(C([H])([H])[H])C([H])([H])[H])C([H])([H])c2c([H])c(OC([H])([H])C([H])([H])C([H])([H])[N+]([H])([H])C([H])([H])C([H])([H])C([H])([H])[N+]([H])([H])C([H])([H])C([H])([H])C([H])([H])C([H])([H])[N+]([H])([H])C([H])([H])C([H])([H])C([H])([H])N([H])C(=O)N3C([H])([H])C([H])([H])C([H])([H])C([H])(n4nc(-c5c([H])c([H])c(Oc6c([H])c([H])c(F)c([H])c6F)c([H])c5[H])c(C(=O)N([H])[H])c4N([H])[H])C3([H])[H])c([H])c([H])c2C1([H])[H]

$$$$
79:0:0
     RDKit          3D

 99106  0  0  1  0  0  0  0  0999 V2000
  -27.2140  -21.5630   21.4310 N   0  0  0  0  0  4  0  0  0  0  0  0
  -26.6540  -20.8980   20.9080 H   0  0  0  0  0  0  0  0  0  0  0  0
  -27.4910  -21.0960   22.2780 H   0  0  0  0  0  0  0  0  0  0  0  0
  -28.4180  -21.8120   20.6120 C   0  0  0  0  0  3  0  0  0  0  0  0
  -28.9180  -20.4620   20.0570 C   0  0  0  0  0  0  0  0  0  0  0  0
  -30.1860  -20.3980   19.6260 N   0  0  0  0  0  0  0  0  0  0  0  0
  -28.1480  -19.5000   19.9830 O   0  0  0  0  0  0  0  0  0  0  0  0
  -30.7540  -21.2250   19.7670 H   0  0  0  0  0  0  0  0  0  0  0  0
  -30.8210  -19.2540   18.9840 C   0  0  0  0  0  2  0  0  0  0  0  0
  -32.0300  -18.7650   19.8090 C   0  0  0  0  0  2  0  0  0  0  0  0
  -32.5260  -16.3180   19.7980 C   0  0  0  0  0  0  0  0  0  0  0  0
  -32.5330  -13.8530   19.6800 C   0  0  0  0  0  2  0  0  0  0  0  0
  -31.7200  -13.3740   18.4610 C   0  0  0  0  0  2  0  0  0  0  0  0
  -30.2200  -13.2610   18.8070 C   0  0  0  0  0  2  0  0  0  0  0  0
  -29.6760  -14.5330   19.5120 C   0  0  0  0  0  3  0  0  0  0  0  0
  -30.6050  -14.9460   20.6760 C   0  0  0  0  0  2  0  0  0  0  0  0
  -31.9680  -15.1290   20.1370 N   0  0  0  0  0  0  0  0  0  0  0  0
  -33.5700  -16.4270   19.1460 O   0  0  0  0  0  0  0  0  0  0  0  0
  -31.8370  -17.3820   20.2220 N   0  0  0  0  0  0  0  0  0  0  0  0
  -31.0220  -17.1840   20.7830 H   0  0  0  0  0  0  0  0  0  0  0  0
  -27.3120  -15.2910   20.1980 C   0  0  0  0  0  0  0  0  0  0  0  0
  -26.1930  -14.5840   20.5490 C   0  0  0  0  0  0  0  0  0  0  0  0
  -26.5670  -13.2070   20.5000 C   0  0  0  0  0  0  0  0  0  0  0  0
  -28.3000  -14.3470   19.9650 N   0  0  0  0  0  0  0  0  0  0  0  0
  -27.8530  -13.0880   20.1990 N   0  0  0  0  0  0  0  0  0  0  0  0
  -25.7600  -11.9910   20.6660 C   0  0  0  0  0  0  0  0  0  0  0  0
  -25.9800  -11.1010   21.7420 C   0  0  0  0  0  3  0  0  0  0  0  0
  -25.1790   -9.9470   21.8890 C   0  0  0  0  0  3  0  0  0  0  0  0
  -24.1470   -9.6760   20.9620 C   0  0  0  0  0  0  0  0  0  0  0  0
  -23.9500  -10.5520   19.8800 C   0  0  0  0  0  3  0  0  0  0  0  0
  -24.7500  -11.6970   19.7300 C   0  0  0  0  0  3  0  0  0  0  0  0
  -23.3380   -8.5670   21.0130 O   0  0  0  0  0  0  0  0  0  0  0  0
  -22.7930   -8.1250   22.1920 C   0  0  0  0  0  0  0  0  0  0  0  0
  -21.9440   -8.9400   22.9730 C   0  0  0  0  0  3  0  0  0  0  0  0
  -21.3490   -8.4200   24.1400 C   0  0  0  0  0  3  0  0  0  0  0  0
  -21.5960   -7.0890   24.5250 C   0  0  0  0  0  0  0  0  0  0  0  0
  -22.4390   -6.2760   23.7460 C   0  0  0  0  0  3  0  0  0  0  0  0
  -23.0330   -6.7920   22.5820 C   0  0  0  0  0  0  0  0  0  0  0  0
  -23.8270   -5.9960   21.8240 F   0  0  0  0  0  0  0  0  0  0  0  0
  -21.0190   -6.5870   25.6420 F   0  0  0  0  0  0  0  0  0  0  0  0
  -24.8270  -15.1470   20.8200 C   0  0  0  0  0  0  0  0  0  0  0  0
  -24.0480  -14.4870   21.6720 N   0  0  0  0  0  0  0  0  0  0  0  0
  -24.4610  -16.2050   20.3120 O   0  0  0  0  0  0  0  0  0  0  0  0
  -24.3550  -13.6310   22.1080 H   0  0  0  0  0  0  0  0  0  0  0  0
  -23.1330  -14.8510   21.8930 H   0  0  0  0  0  0  0  0  0  0  0  0
  -27.5640  -16.6500   20.0430 N   0  0  0  0  0  0  0  0  0  0  0  0
  -26.8300  -17.3420   20.1340 H   0  0  0  0  0  0  0  0  0  0  0  0
  -28.4340  -17.0460   19.7110 H   0  0  0  0  0  0  0  0  0  0  0  0
  -29.4790  -22.5850   21.4450 C   0  0  0  0  0  2  0  0  0  0  0  0
  -28.6590  -24.9810   21.0480 C   0  0  0  0  0  2  0  0  0  0  0  0
  -29.6430  -24.0730   21.1520 C   0  0  0  0  0  3  0  0  0  0  0  0
  -26.3620  -22.7350   21.7400 C   0  0  0  0  0  2  0  0  0  0  0  0
  -26.0950  -23.5570   20.4750 C   0  0  0  0  0  2  0  0  0  0  0  0
  -25.4620  -22.6620   19.5670 O   0  0  0  0  0  0  0  0  0  0  0  0
  -25.0920  -23.2180   18.3110 C   0  0  0  0  0  2  0  0  0  0  0  0
  -26.2770  -23.3510   17.3360 C   0  0  0  0  0  2  0  0  0  0  0  0
  -27.4010  -24.2870   17.8320 C   0  0  0  0  0  2  0  0  0  0  0  0
  -27.6480  -25.5090   16.9170 C   0  0  0  0  0  2  0  0  0  0  0  0
  -27.9050  -26.6900   17.6730 O   0  0  0  0  0  0  0  0  0  0  0  0
  -25.4110  -30.0550   23.3960 C   0  0  0  0  0  0  0  0  0  0  0  0
  -26.8480  -27.4130   18.1890 C   0  0  0  0  0  0  0  0  0  0  0  0
  -23.7900  -29.7600   21.5500 C   0  0  0  0  0  3  0  0  0  0  0  0
  -24.7670  -28.9500   19.3400 C   0  0  0  0  0  0  0  0  0  0  0  0
  -26.2980  -29.8940   21.0760 C   0  0  0  0  0  2  0  0  0  0  0  0
  -26.0580  -28.9970   19.8820 C   0  0  0  0  0  0  0  0  0  0  0  0
  -27.0940  -28.2280   19.3150 C   0  0  0  0  0  3  0  0  0  0  0  0
  -25.5390  -27.3860   17.6480 C   0  0  0  0  0  3  0  0  0  0  0  0
  -24.5010  -28.1400   18.2240 C   0  0  0  0  0  3  0  0  0  0  0  0
  -23.7140  -29.8070   20.0010 C   0  0  0  0  0  2  0  0  0  0  0  0
  -25.1930  -29.8860   22.0620 N   0  0  0  0  0  0  0  0  0  0  0  0
  -24.4660  -30.1510   24.1910 O   0  0  0  0  0  0  0  0  0  0  0  0
  -23.0740  -28.4820   22.0380 C   0  0  0  0  0  0  0  0  0  0  0  0
  -21.7460  -28.4360   21.8500 N   0  0  0  0  0  0  0  0  0  0  0  0
  -23.7110  -27.5530   22.5430 O   0  0  0  0  0  0  0  0  0  0  0  0
  -21.2980  -29.2400   21.4330 H   0  0  0  0  0  0  0  0  0  0  0  0
  -18.3600  -27.2080   21.5920 C   0  0  0  0  0  0  0  0  0  0  0  0
  -20.8700  -27.3170   22.1940 C   0  0  0  0  0  3  0  0  0  0  0  0
  -21.0540  -26.1410   21.2060 C   0  0  0  0  0  2  0  0  0  0  0  0
  -20.0680  -26.1780   20.0340 C   0  0  0  0  0  2  0  0  0  0  0  0
  -18.6260  -26.1380   20.5460 C   0  0  0  0  0  2  0  0  0  0  0  0
  -19.4160  -27.7720   22.3550 C   0  0  0  0  0  0  0  0  0  0  0  0
  -19.1210  -28.7890   23.2890 C   0  0  0  0  0  3  0  0  0  0  0  0
  -17.7990  -29.2380   23.4700 C   0  0  0  0  0  3  0  0  0  0  0  0
  -16.7550  -28.6660   22.7240 C   0  0  0  0  0  3  0  0  0  0  0  0
  -17.0340  -27.6500   21.7910 C   0  0  0  0  0  3  0  0  0  0  0  0
  -26.8550  -30.1620   23.9810 C   0  0  0  0  0  3  0  0  0  0  0  0
  -26.8840  -31.3280   24.8730 N   0  0  0  0  0  0  0  0  0  0  0  0
  -27.4590  -32.4990   24.5720 C   0  0  0  0  0  0  0  0  0  0  0  0
  -28.0910  -32.6870   23.5270 O   0  0  0  0  0  0  0  0  0  0  0  0
  -26.3410  -31.2650   25.7220 H   0  0  0  0  0  0  0  0  0  0  0  0
  -26.2400  -34.6330   25.0970 C   0  0  0  0  0  1  0  0  0  0  0  0
  -27.3090  -33.6460   25.5910 C   0  0  0  0  0  3  0  0  0  0  0  0
  -29.5520  -33.5660   26.5840 C   0  0  0  0  0  1  0  0  0  0  0  0
  -28.5730  -34.3670   25.8540 N   0  0  0  0  0  0  0  0  0  0  0  0
  -28.3980  -35.2160   26.3840 H   0  0  0  0  0  0  0  0  0  0  0  0
  -27.3130  -28.8590   24.7470 C   0  0  1  0  0  0  0  0  0  0  0  0
  -26.2980  -28.3770   25.8080 C   0  0  0  0  0  1  0  0  0  0  0  0
  -27.5480  -27.6970   23.7540 C   0  0  0  0  0  1  0  0  0  0  0  0
  -28.6630  -29.1150   25.4560 C   0  0  0  0  0  1  0  0  0  0  0  0
  1 52  1  0
  1  3  1  0
  2  1  1  0
  4  1  1  0
  4 49  1  0
  5  4  1  0
  6  8  1  0
  6  5  1  0
  7  5  2  0
  9  6  1  0
  9 10  1  0
 10 19  1  0
 11 17  1  0
 11 19  1  0
 12 17  1  0
 13 14  1  0
 13 12  1  0
 15 14  1  0
 15 24  1  0
 15 16  1  0
 17 16  1  0
 18 11  2  0
 19 20  1  0
 21 22  2  0
 22 41  1  0
 23 22  1  0
 23 26  1  0
 24 21  1  0
 24 25  1  0
 25 23  2  0
 26 27  1  0
 27 28  2  0
 29 32  1  0
 29 28  1  0
 30 29  2  0
 31 30  1  0
 31 26  2  0
 32 33  1  0
 33 38  2  0
 33 34  1  0
 34 35  2  0
 35 36  1  0
 36 40  1  0
 37 36  2  0
 38 37  1  0
 39 38  1  0
 41 42  1  0
 42 45  1  0
 42 44  1  0
 43 41  2  0
 46 47  1  0
 46 21  1  0
 48 46  1  0
 50 51  2  0
 51 49  1  0
 53 52  1  0
 54 53  1  0
 55 54  1  0
 56 57  1  0
 56 55  1  0
 58 59  1  0
 58 57  1  0
 59 61  1  0
 60 71  2  0
 61 66  1  0
 62 72  1  0
 62 70  1  0
 63 65  1  0
 63 69  1  0
 64 70  1  0
 65 64  1  0
 66 65  2  0
 67 61  2  0
 67 68  1  0
 68 63  2  0
 69 62  1  0
 70 60  1  0
 72 74  2  0
 73 72  1  0
 75 73  1  0
 76 85  2  0
 76 81  1  0
 77 73  1  0
 77 81  1  0
 78 77  1  0
 79 80  1  0
 79 78  1  0
 80 76  1  0
 81 82  2  0
 82 83  1  0
 84 83  2  0
 85 84  1  0
 86 60  1  0
 86 96  1  0
 86 87  1  0
 87 90  1  0
 88 87  1  0
 88 92  1  0
 89 88  2  0
 92 91  1  0
 92 94  1  0
 94 95  1  0
 94 93  1  0
 96 99  1  1
 96 97  1  0
 98 96  1  0
M  ISO  4  11 100  19 100  58 101  59 101
M  END
>  <TORSDO>  (79) 
F 29

>  <SCORE>  (79) 
-5.699

>  <name>  (79) 
79

>  <ligand_id>  (79) 
79

>  <original_smiles>  (79) 
[H]C([H])=C([H])C([H])([H])C([H])(C(=O)N([H])C([H])([H])C([H])([H])N([H])C(=O)N1C([H])([H])C([H])([H])C([H])([H])C([H])(n2nc(-c3c([H])c([H])c(Oc4c([H])c([H])c(F)c([H])c4F)c([H])c3[H])c(C(=O)N([H])[H])c2N([H])[H])C1([H])[H])[N+]([H])([H])C([H])([H])C([H])([H])OC([H])([H])C([H])([H])C([H])([H])C([H])([H])Oc1c([H])c([H])c2c(c1[H])C([H])([H])N(C(=O)C([H])(N([H])C(=O)C([H])(N([H])C([H])([H])[H])C([H])([H])[H])C(C([H])([H])[H])(C([H])([H])[H])C([H])([H])[H])C([H])(C(=O)N([H])C1([H])c3c([H])c([H])c([H])c([H])c3C([H])([H])C([H])([H])C1([H])[H])C2([H])[H]

>  <smiles>  (79) 
[H]C([H])=C([H])C([H])([H])C([H])(C(=O)N([H])C([H])([H])C([H])([H])N([H])C(=O)N1C([H])([H])C([H])([H])C([H])([H])C([H])(n2nc(-c3c([H])c([H])c(Oc4c([H])c([H])c(F)c([H])c4F)c([H])c3[H])c(C(=O)N([H])[H])c2N([H])[H])C1([H])[H])[N+]([H])([H])C([H])([H])C([H])([H])OC([H])([H])C([H])([H])C([H])([H])C([H])([H])Oc1c([H])c([H])c2c(c1[H])C([H])([H])N(C(=O)C([H])(N([H])C(=O)C([H])(N([H])C([H])([H])[H])C([H])([H])[H])C(C([H])([H])[H])(C([H])([H])[H])C([H])([H])[H])C([H])(C(=O)N([H])C1([H])c3c([H])c([H])c([H])c([H])c3C([H])([H])C([H])([H])C1([H])[H])C2([H])[H]

$$$$
80:0:0
     RDKit          3D

 96103  0  0  1  0  0  0  0  0999 V2000
  -29.7290  -22.6680   23.9640 C   0  0  0  0  0  2  0  0  0  0  0  0
  -30.2770  -21.2340   24.0430 C   0  0  0  0  0  2  0  0  0  0  0  0
  -31.6240  -21.0770   23.3060 C   0  0  0  0  0  2  0  0  0  0  0  0
  -31.9120  -19.6690   22.9580 N   0  0  0  0  0  4  0  0  0  0  0  0
  -32.9040  -19.5200   23.0540 H   0  0  0  0  0  0  0  0  0  0  0  0
  -31.4500  -19.0620   23.6170 H   0  0  0  0  0  0  0  0  0  0  0  0
  -31.5200  -19.3060   21.5780 C   0  0  0  0  0  2  0  0  0  0  0  0
  -31.4170  -17.7850   21.3800 C   0  0  0  0  0  2  0  0  0  0  0  0
  -31.5240  -17.3800   19.9000 C   0  0  0  0  0  2  0  0  0  0  0  0
  -32.1120  -15.9780   19.7090 C   0  0  0  0  0  2  0  0  0  0  0  0
  -31.0760  -13.9650   18.6840 C   0  0  0  0  0  0  0  0  0  0  0  0
  -30.9420  -11.5150   18.8140 C   0  0  0  0  0  2  0  0  0  0  0  0
  -29.9160  -10.8540   17.8870 C   0  0  0  0  0  2  0  0  0  0  0  0
  -28.5380  -10.8080   18.5680 C   0  0  0  0  0  2  0  0  0  0  0  0
  -28.1030  -12.1950   19.1060 C   0  0  0  0  0  3  0  0  0  0  0  0
  -29.2220  -12.8490   19.9470 C   0  0  0  0  0  2  0  0  0  0  0  0
  -30.4700  -12.8600   19.1630 N   0  0  0  0  0  0  0  0  0  0  0  0
  -31.8090  -13.9800   17.6880 O   0  0  0  0  0  0  0  0  0  0  0  0
  -31.0770  -14.9590   19.5780 N   0  0  0  0  0  0  0  0  0  0  0  0
  -30.4710  -14.8190   20.3750 H   0  0  0  0  0  0  0  0  0  0  0  0
  -26.0710  -13.1170   20.3910 C   0  0  0  0  0  0  0  0  0  0  0  0
  -24.9740  -12.5010   20.9280 C   0  0  0  0  0  0  0  0  0  0  0  0
  -25.1490  -11.1020   20.6880 C   0  0  0  0  0  0  0  0  0  0  0  0
  -26.8540  -12.1030   19.8590 N   0  0  0  0  0  0  0  0  0  0  0  0
  -26.3130  -10.8800   20.0930 N   0  0  0  0  0  0  0  0  0  0  0  0
  -24.2480   -9.9700   20.9380 C   0  0  0  0  0  0  0  0  0  0  0  0
  -24.4210   -9.1190   22.0520 C   0  0  0  0  0  3  0  0  0  0  0  0
  -23.5300   -8.0470   22.2780 C   0  0  0  0  0  3  0  0  0  0  0  0
  -22.4510   -7.8200   21.3910 C   0  0  0  0  0  0  0  0  0  0  0  0
  -22.2970   -8.6570   20.2720 C   0  0  0  0  0  3  0  0  0  0  0  0
  -23.1870   -9.7200   20.0450 C   0  0  0  0  0  3  0  0  0  0  0  0
  -21.5510   -6.7900   21.5180 O   0  0  0  0  0  0  0  0  0  0  0  0
  -20.9370   -6.5160   22.7130 C   0  0  0  0  0  0  0  0  0  0  0  0
  -20.1080   -7.4590   23.3600 C   0  0  0  0  0  3  0  0  0  0  0  0
  -19.4390   -7.1110   24.5490 C   0  0  0  0  0  3  0  0  0  0  0  0
  -19.5900   -5.8190   25.0900 C   0  0  0  0  0  0  0  0  0  0  0  0
  -20.4100   -4.8770   24.4460 C   0  0  0  0  0  3  0  0  0  0  0  0
  -21.0780   -5.2240   23.2590 C   0  0  0  0  0  0  0  0  0  0  0  0
  -21.8510   -4.3050   22.6290 F   0  0  0  0  0  0  0  0  0  0  0  0
  -18.9410   -5.4810   26.2290 F   0  0  0  0  0  0  0  0  0  0  0  0
  -23.7840  -13.1740   21.5470 C   0  0  0  0  0  0  0  0  0  0  0  0
  -23.1590  -12.5370   22.5320 N   0  0  0  0  0  0  0  0  0  0  0  0
  -23.4260  -14.2950   21.1880 O   0  0  0  0  0  0  0  0  0  0  0  0
  -23.4600  -11.6250   22.8400 H   0  0  0  0  0  0  0  0  0  0  0  0
  -22.3660  -12.9690   22.9860 H   0  0  0  0  0  0  0  0  0  0  0  0
  -26.4580  -14.4490   20.2900 N   0  0  0  0  0  0  0  0  0  0  0  0
  -25.8720  -15.2100   20.6180 H   0  0  0  0  0  0  0  0  0  0  0  0
  -27.2990  -14.7710   19.8290 H   0  0  0  0  0  0  0  0  0  0  0  0
  -28.3830  -22.7570   23.2150 C   0  0  0  0  0  2  0  0  0  0  0  0
  -28.1770  -24.0670   22.5580 N   0  0  0  0  0  4  0  0  0  0  0  0
  -28.4680  -24.8050   23.1820 H   0  0  0  0  0  0  0  0  0  0  0  0
  -27.1840  -24.1730   22.4220 H   0  0  0  0  0  0  0  0  0  0  0  0
  -28.8440  -24.2120   21.2410 C   0  0  0  0  0  2  0  0  0  0  0  0
  -28.4890  -25.5350   20.5470 C   0  0  0  0  0  2  0  0  0  0  0  0
  -29.0790  -25.6390   19.1190 C   0  0  0  0  0  2  0  0  0  0  0  0
  -28.8720  -26.9230   18.5220 O   0  0  0  0  0  0  0  0  0  0  0  0
  -24.7270  -30.8190   22.7160 C   0  0  0  0  0  0  0  0  0  0  0  0
  -27.6210  -27.4600   18.6820 C   0  0  0  0  0  0  0  0  0  0  0  0
  -23.5570  -29.5550   20.9380 C   0  0  0  0  0  3  0  0  0  0  0  0
  -25.0540  -28.5310   19.1400 C   0  0  0  0  0  0  0  0  0  0  0  0
  -25.9670  -30.3370   20.6110 C   0  0  0  0  0  2  0  0  0  0  0  0
  -26.1770  -29.1270   19.7290 C   0  0  0  0  0  0  0  0  0  0  0  0
  -27.4630  -28.5950   19.5010 C   0  0  0  0  0  3  0  0  0  0  0  0
  -26.4850  -26.8740   18.0790 C   0  0  0  0  0  3  0  0  0  0  0  0
  -25.2010  -27.4020   18.3130 C   0  0  0  0  0  3  0  0  0  0  0  0
  -23.7130  -29.1630   19.4420 C   0  0  0  0  0  2  0  0  0  0  0  0
  -24.7730  -30.2410   21.4820 N   0  0  0  0  0  0  0  0  0  0  0  0
  -23.6840  -30.8200   23.3830 O   0  0  0  0  0  0  0  0  0  0  0  0
  -23.1580  -28.2940   21.7390 C   0  0  0  0  0  0  0  0  0  0  0  0
  -21.8900  -27.8710   21.6010 N   0  0  0  0  0  0  0  0  0  0  0  0
  -23.9840  -27.7020   22.4390 O   0  0  0  0  0  0  0  0  0  0  0  0
  -21.2720  -28.4160   21.0170 H   0  0  0  0  0  0  0  0  0  0  0  0
  -18.8550  -25.9360   21.8870 C   0  0  0  0  0  0  0  0  0  0  0  0
  -21.3040  -26.6870   22.2270 C   0  0  0  0  0  3  0  0  0  0  0  0
  -21.6980  -25.4000   21.4660 C   0  0  0  0  0  2  0  0  0  0  0  0
  -20.6750  -24.9930   20.4020 C   0  0  0  0  0  2  0  0  0  0  0  0
  -19.3020  -24.7560   21.0400 C   0  0  0  0  0  2  0  0  0  0  0  0
  -19.7940  -26.8510   22.4300 C   0  0  0  0  0  0  0  0  0  0  0  0
  -19.3250  -27.9510   23.1810 C   0  0  0  0  0  3  0  0  0  0  0  0
  -17.9460  -28.1420   23.3910 C   0  0  0  0  0  3  0  0  0  0  0  0
  -17.0200  -27.2240   22.8650 C   0  0  0  0  0  3  0  0  0  0  0  0
  -17.4760  -26.1220   22.1190 C   0  0  0  0  0  3  0  0  0  0  0  0
  -25.9730  -31.5280   23.3350 C   0  0  0  0  0  3  0  0  0  0  0  0
  -25.5190  -32.8090   23.8910 N   0  0  0  0  0  0  0  0  0  0  0  0
  -25.7130  -34.0010   23.3110 C   0  0  0  0  0  0  0  0  0  0  0  0
  -26.3600  -34.1430   22.2710 O   0  0  0  0  0  0  0  0  0  0  0  0
  -24.9420  -32.7610   24.7170 H   0  0  0  0  0  0  0  0  0  0  0  0
  -23.8230  -35.6610   23.2280 C   0  0  0  0  0  1  0  0  0  0  0  0
  -25.0860  -35.2330   23.9930 C   0  0  0  0  0  3  0  0  0  0  0  0
  -27.1100  -36.1520   25.0360 C   0  0  0  0  0  1  0  0  0  0  0  0
  -26.0120  -36.3820   24.1020 N   0  0  0  0  0  0  0  0  0  0  0  0
  -25.5160  -37.2190   24.3980 H   0  0  0  0  0  0  0  0  0  0  0  0
  -26.6940  -30.6600   24.4390 C   0  0  1  0  0  0  0  0  0  0  0  0
  -25.7410  -30.1210   25.5290 C   0  0  0  0  0  1  0  0  0  0  0  0
  -27.4110  -29.4490   23.7950 C   0  0  0  0  0  1  0  0  0  0  0  0
  -27.7860  -31.5010   25.1400 C   0  0  0  0  0  1  0  0  0  0  0  0
  1  2  1  0
  3  2  1  0
  4  5  1  0
  4  3  1  0
  4  6  1  0
  7  4  1  0
  8  7  1  0
  9  8  1  0
 10  9  1  0
 11 17  1  0
 11 19  1  0
 12 17  1  0
 13 14  1  0
 13 12  1  0
 15 14  1  0
 15 24  1  0
 15 16  1  0
 17 16  1  0
 18 11  2  0
 19 10  1  0
 19 20  1  0
 21 22  2  0
 22 41  1  0
 23 22  1  0
 23 26  1  0
 24 25  1  0
 24 21  1  0
 25 23  2  0
 26 27  1  0
 27 28  2  0
 29 32  1  0
 29 28  1  0
 30 29  2  0
 31 30  1  0
 31 26  2  0
 32 33  1  0
 33 38  2  0
 33 34  1  0
 34 35  2  0
 35 36  1  0
 36 40  1  0
 37 36  2  0
 38 37  1  0
 39 38  1  0
 41 42  1  0
 42 44  1  0
 42 45  1  0
 43 41  2  0
 46 21  1  0
 46 47  1  0
 48 46  1  0
 49  1  1  0
 50 51  1  0
 50 49  1  0
 52 50  1  0
 53 50  1  0
 54 53  1  0
 55 54  1  0
 56 58  1  0
 56 55  1  0
 57 68  2  0
 58 63  1  0
 59 67  1  0
 59 69  1  0
 60 66  1  0
 60 62  1  0
 61 67  1  0
 62 61  1  0
 63 62  2  0
 64 65  1  0
 64 58  2  0
 65 60  2  0
 66 59  1  0
 67 57  1  0
 69 71  2  0
 70 69  1  0
 72 70  1  0
 73 82  2  0
 73 78  1  0
 74 70  1  0
 74 78  1  0
 75 74  1  0
 76 77  1  0
 76 75  1  0
 77 73  1  0
 78 79  2  0
 79 80  1  0
 81 80  2  0
 82 81  1  0
 83 57  1  0
 83 84  1  0
 83 93  1  0
 84 87  1  0
 85 84  1  0
 85 89  1  0
 86 85  2  0
 89 88  1  0
 89 91  1  0
 91 92  1  0
 91 90  1  0
 93 96  1  1
 93 94  1  0
 95 93  1  0
M  ISO  4  11 100  19 100  55 101  56 101
M  END
>  <TORSDO>  (80) 
F 28

>  <SCORE>  (80) 
-5.237

>  <name>  (80) 
80

>  <ligand_id>  (80) 
80

>  <original_smiles>  (80) 
[H]c1c([H])c([H])c2c(c1[H])C([H])([H])C([H])([H])C([H])([H])C2([H])N([H])C(=O)C1([H])N(C(=O)C([H])(N([H])C(=O)C([H])(N([H])C([H])([H])[H])C([H])([H])[H])C(C([H])([H])[H])(C([H])([H])[H])C([H])([H])[H])C([H])([H])c2c([H])c(OC([H])([H])C([H])([H])C([H])([H])[N+]([H])([H])C([H])([H])C([H])([H])C([H])([H])C([H])([H])[N+]([H])([H])C([H])([H])C([H])([H])C([H])([H])C([H])([H])N([H])C(=O)N3C([H])([H])C([H])([H])C([H])([H])C([H])(n4nc(-c5c([H])c([H])c(Oc6c([H])c([H])c(F)c([H])c6F)c([H])c5[H])c(C(=O)N([H])[H])c4N([H])[H])C3([H])[H])c([H])c([H])c2C1([H])[H]

>  <smiles>  (80) 
[H]c1c([H])c([H])c2c(c1[H])C([H])([H])C([H])([H])C([H])([H])C2([H])N([H])C(=O)C1([H])N(C(=O)C([H])(N([H])C(=O)C([H])(N([H])C([H])([H])[H])C([H])([H])[H])C(C([H])([H])[H])(C([H])([H])[H])C([H])([H])[H])C([H])([H])c2c([H])c(OC([H])([H])C([H])([H])C([H])([H])[N+]([H])([H])C([H])([H])C([H])([H])C([H])([H])C([H])([H])[N+]([H])([H])C([H])([H])C([H])([H])C([H])([H])C([H])([H])N([H])C(=O)N3C([H])([H])C([H])([H])C([H])([H])C([H])(n4nc(-c5c([H])c([H])c(Oc6c([H])c([H])c(F)c([H])c6F)c([H])c5[H])c(C(=O)N([H])[H])c4N([H])[H])C3([H])[H])c([H])c([H])c2C1([H])[H]

$$$$
81:0:0
     RDKit          3D

 96103  0  0  1  0  0  0  0  0999 V2000
  -33.0010  -21.3310   21.5200 C   0  0  0  0  0  2  0  0  0  0  0  0
  -33.9530  -20.2210   21.0410 C   0  0  0  0  0  2  0  0  0  0  0  0
  -35.0020  -19.8210   22.1000 C   0  0  0  0  0  2  0  0  0  0  0  0
  -34.8160  -18.4070   22.6900 C   0  0  0  0  0  2  0  0  0  0  0  0
  -33.6120  -18.2490   23.6380 C   0  0  0  0  0  2  0  0  0  0  0  0
  -31.9150  -16.6540   22.7300 C   0  0  0  0  0  0  0  0  0  0  0  0
  -32.3910  -17.8950   22.9130 N   0  0  0  0  0  0  0  0  0  0  0  0
  -32.4770  -15.6490   23.1720 O   0  0  0  0  0  0  0  0  0  0  0  0
  -31.8660  -18.6630   22.5190 H   0  0  0  0  0  0  0  0  0  0  0  0
  -30.5940  -16.5360   21.9530 C   0  0  0  0  0  2  0  0  0  0  0  0
  -30.7340  -14.3720   20.6920 C   0  0  0  0  0  0  0  0  0  0  0  0
  -30.4230  -12.2920   19.3910 C   0  0  0  0  0  2  0  0  0  0  0  0
  -29.4860  -12.5360   18.1910 C   0  0  0  0  0  2  0  0  0  0  0  0
  -28.0090  -12.3840   18.6050 C   0  0  0  0  0  2  0  0  0  0  0  0
  -27.6680  -13.1960   19.8830 C   0  0  0  0  0  3  0  0  0  0  0  0
  -28.7020  -12.9070   20.9920 C   0  0  0  0  0  2  0  0  0  0  0  0
  -30.0480  -13.2200   20.4690 N   0  0  0  0  0  0  0  0  0  0  0  0
  -31.7500  -14.6920   20.0650 O   0  0  0  0  0  0  0  0  0  0  0  0
  -30.2010  -15.1610   21.6350 N   0  0  0  0  0  0  0  0  0  0  0  0
  -29.4080  -14.7880   22.1350 H   0  0  0  0  0  0  0  0  0  0  0  0
  -25.2590  -13.8130   20.5650 C   0  0  0  0  0  0  0  0  0  0  0  0
  -24.1830  -13.0440   20.9150 C   0  0  0  0  0  0  0  0  0  0  0  0
  -24.6360  -11.6880   20.8700 C   0  0  0  0  0  0  0  0  0  0  0  0
  -26.3030  -12.9290   20.3360 N   0  0  0  0  0  0  0  0  0  0  0  0
  -25.9290  -11.6450   20.5710 N   0  0  0  0  0  0  0  0  0  0  0  0
  -23.9020  -10.4280   21.0380 C   0  0  0  0  0  0  0  0  0  0  0  0
  -24.3590   -9.4210   21.9170 C   0  0  0  0  0  3  0  0  0  0  0  0
  -23.6280   -8.2250   22.0750 C   0  0  0  0  0  3  0  0  0  0  0  0
  -22.4260   -8.0270   21.3540 C   0  0  0  0  0  0  0  0  0  0  0  0
  -21.9880   -9.0230   20.4640 C   0  0  0  0  0  3  0  0  0  0  0  0
  -22.7200  -10.2120   20.3040 C   0  0  0  0  0  3  0  0  0  0  0  0
  -21.6630   -6.8860   21.4240 O   0  0  0  0  0  0  0  0  0  0  0  0
  -21.6840   -6.0720   22.5280 C   0  0  0  0  0  0  0  0  0  0  0  0
  -21.4020   -6.5630   23.8210 C   0  0  0  0  0  3  0  0  0  0  0  0
  -21.3660   -5.6790   24.9180 C   0  0  0  0  0  3  0  0  0  0  0  0
  -21.6040   -4.3050   24.7230 C   0  0  0  0  0  0  0  0  0  0  0  0
  -21.8820   -3.8140   23.4360 C   0  0  0  0  0  3  0  0  0  0  0  0
  -21.9200   -4.6950   22.3410 C   0  0  0  0  0  0  0  0  0  0  0  0
  -22.1660   -4.2130   21.0980 F   0  0  0  0  0  0  0  0  0  0  0  0
  -21.5630   -3.4540   25.7750 F   0  0  0  0  0  0  0  0  0  0  0  0
  -22.7860  -13.5230   21.1850 C   0  0  0  0  0  0  0  0  0  0  0  0
  -22.0510  -12.8240   22.0400 N   0  0  0  0  0  0  0  0  0  0  0  0
  -22.3540  -14.5550   20.6680 O   0  0  0  0  0  0  0  0  0  0  0  0
  -22.4110  -11.9890   22.4790 H   0  0  0  0  0  0  0  0  0  0  0  0
  -21.1120  -13.1260   22.2620 H   0  0  0  0  0  0  0  0  0  0  0  0
  -25.4370  -15.1850   20.4070 N   0  0  0  0  0  0  0  0  0  0  0  0
  -24.6760  -15.8480   20.5100 H   0  0  0  0  0  0  0  0  0  0  0  0
  -26.2990  -15.6180   20.1000 H   0  0  0  0  0  0  0  0  0  0  0  0
  -31.8830  -21.6560   20.5070 C   0  0  0  0  0  2  0  0  0  0  0  0
  -30.9980  -22.7300   21.0080 N   0  0  0  0  0  4  0  0  0  0  0  0
  -30.3990  -22.3540   21.7280 H   0  0  0  0  0  0  0  0  0  0  0  0
  -31.5870  -23.4230   21.4390 H   0  0  0  0  0  0  0  0  0  0  0  0
  -30.1750  -23.4090   19.9780 C   0  0  0  0  0  2  0  0  0  0  0  0
  -29.5400  -24.6960   20.5450 C   0  0  0  0  0  2  0  0  0  0  0  0
  -28.6080  -25.4540   19.5820 C   0  0  0  0  0  2  0  0  0  0  0  0
  -28.4500  -26.7760   20.1060 O   0  0  0  0  0  0  0  0  0  0  0  0
  -24.6130  -31.8670   23.2090 C   0  0  0  0  0  0  0  0  0  0  0  0
  -27.2400  -27.4420   20.0790 C   0  0  0  0  0  0  0  0  0  0  0  0
  -23.4000  -30.4900   21.5480 C   0  0  0  0  0  3  0  0  0  0  0  0
  -24.8430  -28.9540   20.1100 C   0  0  0  0  0  0  0  0  0  0  0  0
  -25.9280  -30.8290   21.3640 C   0  0  0  0  0  2  0  0  0  0  0  0
  -25.9990  -29.4650   20.7090 C   0  0  0  0  0  0  0  0  0  0  0  0
  -27.1920  -28.7130   20.6970 C   0  0  0  0  0  3  0  0  0  0  0  0
  -26.0640  -26.9450   19.4680 C   0  0  0  0  0  3  0  0  0  0  0  0
  -24.8700  -27.6920   19.4920 C   0  0  0  0  0  3  0  0  0  0  0  0
  -23.6040  -29.8180   20.1620 C   0  0  0  0  0  2  0  0  0  0  0  0
  -24.6650  -31.0760   22.0980 N   0  0  0  0  0  0  0  0  0  0  0  0
  -23.5340  -32.1430   23.7510 O   0  0  0  0  0  0  0  0  0  0  0  0
  -22.7380  -29.4650   22.4970 C   0  0  0  0  0  0  0  0  0  0  0  0
  -21.4130  -29.3020   22.3700 N   0  0  0  0  0  0  0  0  0  0  0  0
  -23.4160  -28.8210   23.3020 O   0  0  0  0  0  0  0  0  0  0  0  0
  -20.9300  -29.8760   21.6950 H   0  0  0  0  0  0  0  0  0  0  0  0
  -18.0280  -28.1340   22.8450 C   0  0  0  0  0  0  0  0  0  0  0  0
  -20.5860  -28.3640   23.1290 C   0  0  0  0  0  3  0  0  0  0  0  0
  -20.6780  -26.9370   22.5400 C   0  0  0  0  0  2  0  0  0  0  0  0
  -19.5780  -26.6350   21.5170 C   0  0  0  0  0  2  0  0  0  0  0  0
  -18.1940  -26.7870   22.1570 C   0  0  0  0  0  2  0  0  0  0  0  0
  -19.1520  -28.8790   23.2860 C   0  0  0  0  0  0  0  0  0  0  0  0
  -18.9470  -30.1410   23.8860 C   0  0  0  0  0  3  0  0  0  0  0  0
  -17.6480  -30.6530   24.0560 C   0  0  0  0  0  3  0  0  0  0  0  0
  -16.5370  -29.9050   23.6310 C   0  0  0  0  0  3  0  0  0  0  0  0
  -16.7270  -28.6470   23.0300 C   0  0  0  0  0  3  0  0  0  0  0  0
  -25.9050  -32.4780   23.8350 C   0  0  0  0  0  3  0  0  0  0  0  0
  -25.5910  -33.8580   24.2300 N   0  0  0  0  0  0  0  0  0  0  0  0
  -25.9040  -34.9440   23.5100 C   0  0  0  0  0  0  0  0  0  0  0  0
  -26.5600  -34.8900   22.4660 O   0  0  0  0  0  0  0  0  0  0  0  0
  -25.0040  -33.9700   25.0440 H   0  0  0  0  0  0  0  0  0  0  0  0
  -24.1500  -36.7340   23.2640 C   0  0  0  0  0  1  0  0  0  0  0  0
  -25.4120  -36.3080   24.0310 C   0  0  0  0  0  3  0  0  0  0  0  0
  -27.5590  -37.1820   24.8460 C   0  0  0  0  0  1  0  0  0  0  0  0
  -26.4300  -37.3760   23.9390 N   0  0  0  0  0  0  0  0  0  0  0  0
  -26.0170  -38.2830   24.1370 H   0  0  0  0  0  0  0  0  0  0  0  0
  -26.4470  -31.6550   25.0670 C   0  0  1  0  0  0  0  0  0  0  0  0
  -25.3750  -31.3670   26.1440 C   0  0  0  0  0  1  0  0  0  0  0  0
  -27.0300  -30.2980   24.6070 C   0  0  0  0  0  1  0  0  0  0  0  0
  -27.6020  -32.4290   25.7440 C   0  0  0  0  0  1  0  0  0  0  0  0
  2  1  1  0
  2  3  1  0
  3  4  1  0
  4  5  1  0
  6  7  1  0
  6  8  2  0
  7  5  1  0
  9  7  1  0
 10  6  1  0
 11 19  1  0
 12 17  1  0
 13 14  1  0
 13 12  1  0
 15 14  1  0
 15 24  1  0
 15 16  1  0
 17 11  1  0
 17 16  1  0
 18 11  2  0
 19 10  1  0
 19 20  1  0
 21 22  2  0
 22 41  1  0
 23 22  1  0
 23 26  1  0
 24 21  1  0
 24 25  1  0
 25 23  2  0
 26 27  1  0
 27 28  2  0
 29 32  1  0
 29 28  1  0
 30 29  2  0
 31 30  1  0
 31 26  2  0
 32 33  1  0
 33 34  1  0
 34 35  2  0
 36 35  1  0
 36 40  1  0
 37 36  2  0
 38 33  2  0
 38 37  1  0
 39 38  1  0
 41 42  1  0
 42 45  1  0
 42 44  1  0
 43 41  2  0
 46 47  1  0
 46 21  1  0
 48 46  1  0
 49 50  1  0
 49  1  1  0
 50 52  1  0
 50 51  1  0
 53 54  1  0
 53 50  1  0
 55 56  1  0
 55 54  1  0
 57 68  2  0
 58 56  1  0
 58 63  1  0
 59 67  1  0
 59 69  1  0
 60 66  1  0
 60 62  1  0
 61 67  1  0
 62 61  1  0
 63 62  2  0
 64 65  1  0
 64 58  2  0
 65 60  2  0
 66 59  1  0
 67 57  1  0
 69 71  2  0
 70 69  1  0
 72 70  1  0
 73 82  2  0
 73 78  1  0
 74 70  1  0
 74 78  1  0
 75 74  1  0
 76 77  1  0
 76 75  1  0
 77 73  1  0
 78 79  2  0
 79 80  1  0
 81 80  2  0
 82 81  1  0
 83 57  1  0
 83 84  1  0
 83 93  1  0
 84 87  1  0
 85 89  1  0
 85 84  1  0
 86 85  2  0
 89 88  1  0
 91 89  1  0
 91 92  1  0
 91 90  1  0
 93 96  1  1
 93 94  1  0
 95 93  1  0
M  ISO  4  11 100  19 100  55 101  56 101
M  END
>  <TORSDO>  (81) 
F 27

>  <SCORE>  (81) 
1.175

>  <name>  (81) 
81

>  <ligand_id>  (81) 
81

>  <original_smiles>  (81) 
[H]c1c([H])c([H])c2c(c1[H])C([H])([H])C([H])([H])C([H])([H])C2([H])N([H])C(=O)C1([H])N(C(=O)C([H])(N([H])C(=O)C([H])(N([H])C([H])([H])[H])C([H])([H])[H])C(C([H])([H])[H])(C([H])([H])[H])C([H])([H])[H])C([H])([H])c2c([H])c(OC([H])([H])C([H])([H])C([H])([H])[N+]([H])([H])C([H])([H])C([H])([H])C([H])([H])C([H])([H])C([H])([H])C([H])([H])N([H])C(=O)C([H])([H])N([H])C(=O)N3C([H])([H])C([H])([H])C([H])([H])C([H])(n4nc(-c5c([H])c([H])c(Oc6c([H])c([H])c(F)c([H])c6F)c([H])c5[H])c(C(=O)N([H])[H])c4N([H])[H])C3([H])[H])c([H])c([H])c2C1([H])[H]

>  <smiles>  (81) 
[H]c1c([H])c([H])c2c(c1[H])C([H])([H])C([H])([H])C([H])([H])C2([H])N([H])C(=O)C1([H])N(C(=O)C([H])(N([H])C(=O)C([H])(N([H])C([H])([H])[H])C([H])([H])[H])C(C([H])([H])[H])(C([H])([H])[H])C([H])([H])[H])C([H])([H])c2c([H])c(OC([H])([H])C([H])([H])C([H])([H])[N+]([H])([H])C([H])([H])C([H])([H])C([H])([H])C([H])([H])C([H])([H])C([H])([H])N([H])C(=O)C([H])([H])N([H])C(=O)N3C([H])([H])C([H])([H])C([H])([H])C([H])(n4nc(-c5c([H])c([H])c(Oc6c([H])c([H])c(F)c([H])c6F)c([H])c5[H])c(C(=O)N([H])[H])c4N([H])[H])C3([H])[H])c([H])c([H])c2C1([H])[H]

$$$$
82:0:0
     RDKit          3D

 94101  0  0  1  0  0  0  0  0999 V2000
  -31.2630  -23.5420   18.5740 C   0  0  0  0  0  2  0  0  0  0  0  0
  -31.9940  -24.8580   18.9200 C   0  0  0  0  0  2  0  0  0  0  0  0
  -31.0750  -25.9850   19.2030 N   0  0  0  0  0  4  0  0  0  0  0  0
  -30.2350  -25.8930   18.6530 H   0  0  0  0  0  0  0  0  0  0  0  0
  -31.5330  -26.8250   18.8810 H   0  0  0  0  0  0  0  0  0  0  0  0
  -30.7170  -26.1880   20.6260 C   0  0  0  0  0  2  0  0  0  0  0  0
  -29.5860  -27.2090   20.7720 C   0  0  0  0  0  2  0  0  0  0  0  0
  -28.4310  -26.7120   20.0890 O   0  0  0  0  0  0  0  0  0  0  0  0
  -24.6260  -31.8970   23.1880 C   0  0  0  0  0  0  0  0  0  0  0  0
  -27.2770  -27.4660   20.1450 C   0  0  0  0  0  0  0  0  0  0  0  0
  -23.4000  -30.4720   21.5700 C   0  0  0  0  0  3  0  0  0  0  0  0
  -24.8460  -28.9170   20.1540 C   0  0  0  0  0  0  0  0  0  0  0  0
  -25.9120  -30.8480   21.3390 C   0  0  0  0  0  2  0  0  0  0  0  0
  -25.9970  -29.4680   20.7270 C   0  0  0  0  0  0  0  0  0  0  0  0
  -27.2060  -28.7510   20.7310 C   0  0  0  0  0  3  0  0  0  0  0  0
  -26.1090  -26.9210   19.5680 C   0  0  0  0  0  3  0  0  0  0  0  0
  -24.8940  -27.6360   19.5760 C   0  0  0  0  0  3  0  0  0  0  0  0
  -23.5970  -29.7660   20.1980 C   0  0  0  0  0  2  0  0  0  0  0  0
  -24.6640  -31.0880   22.0920 N   0  0  0  0  0  0  0  0  0  0  0  0
  -23.5520  -32.1750   23.7400 O   0  0  0  0  0  0  0  0  0  0  0  0
  -22.7610  -29.4650   22.5500 C   0  0  0  0  0  0  0  0  0  0  0  0
  -21.4350  -29.2850   22.4430 N   0  0  0  0  0  0  0  0  0  0  0  0
  -23.4550  -28.8450   23.3600 O   0  0  0  0  0  0  0  0  0  0  0  0
  -20.9370  -29.8410   21.7630 H   0  0  0  0  0  0  0  0  0  0  0  0
  -18.0650  -28.1120   22.9860 C   0  0  0  0  0  0  0  0  0  0  0  0
  -20.6250  -28.3580   23.2300 C   0  0  0  0  0  3  0  0  0  0  0  0
  -20.7150  -26.9210   22.6660 C   0  0  0  0  0  2  0  0  0  0  0  0
  -19.6020  -26.5960   21.6660 C   0  0  0  0  0  2  0  0  0  0  0  0
  -18.2280  -26.7540   22.3220 C   0  0  0  0  0  2  0  0  0  0  0  0
  -19.1910  -28.8730   23.3970 C   0  0  0  0  0  0  0  0  0  0  0  0
  -18.9850  -30.1450   23.9720 C   0  0  0  0  0  3  0  0  0  0  0  0
  -17.6860  -30.6550   24.1450 C   0  0  0  0  0  3  0  0  0  0  0  0
  -16.5730  -29.8910   23.7530 C   0  0  0  0  0  3  0  0  0  0  0  0
  -16.7640  -28.6220   23.1780 C   0  0  0  0  0  3  0  0  0  0  0  0
  -25.9230  -32.5290   23.7840 C   0  0  0  0  0  3  0  0  0  0  0  0
  -26.4870  -31.7380   25.0260 C   0  0  1  0  0  0  0  0  0  0  0  0
  -25.4270  -31.4590   26.1160 C   0  0  0  0  0  1  0  0  0  0  0  0
  -27.0870  -30.3810   24.5830 C   0  0  0  0  0  1  0  0  0  0  0  0
  -27.6400  -32.5370   25.6780 C   0  0  0  0  0  1  0  0  0  0  0  0
  -25.6110  -33.9160   24.1470 N   0  0  0  0  0  0  0  0  0  0  0  0
  -25.9150  -34.9850   23.3980 C   0  0  0  0  0  0  0  0  0  0  0  0
  -26.5600  -34.9070   22.3470 O   0  0  0  0  0  0  0  0  0  0  0  0
  -25.0370  -34.0500   24.9680 H   0  0  0  0  0  0  0  0  0  0  0  0
  -24.1560  -36.7590   23.1160 C   0  0  0  0  0  1  0  0  0  0  0  0
  -25.4220  -36.3580   23.8910 C   0  0  0  0  0  3  0  0  0  0  0  0
  -27.5690  -37.2530   24.6770 C   0  0  0  0  0  1  0  0  0  0  0  0
  -26.4380  -37.4260   23.7680 N   0  0  0  0  0  0  0  0  0  0  0  0
  -26.0250  -38.3370   23.9450 H   0  0  0  0  0  0  0  0  0  0  0  0
  -30.7280  -22.7610   19.7920 C   0  0  0  0  0  2  0  0  0  0  0  0
  -30.0500  -21.5170   19.3910 N   0  0  0  0  0  4  0  0  0  0  0  0
  -29.1690  -21.7350   18.9470 H   0  0  0  0  0  0  0  0  0  0  0  0
  -30.6300  -21.0580   18.7080 H   0  0  0  0  0  0  0  0  0  0  0  0
  -29.8120  -20.5500   20.4800 C   0  0  0  0  0  2  0  0  0  0  0  0
  -29.6310  -19.1590   19.8600 C   0  0  0  0  0  2  0  0  0  0  0  0
  -29.6470  -17.9700   20.8320 C   0  0  0  0  0  2  0  0  0  0  0  0
  -29.7500  -16.6810   20.0040 C   0  0  0  0  0  2  0  0  0  0  0  0
  -30.6070  -14.4330   20.4430 C   0  0  0  0  0  0  0  0  0  0  0  0
  -30.3190  -12.2760   19.3230 C   0  0  0  0  0  2  0  0  0  0  0  0
  -29.3760  -12.5220   18.1240 C   0  0  0  0  0  2  0  0  0  0  0  0
  -27.9000  -12.3970   18.5600 C   0  0  0  0  0  2  0  0  0  0  0  0
  -27.5780  -13.2190   19.8380 C   0  0  0  0  0  3  0  0  0  0  0  0
  -28.6380  -12.9560   20.9370 C   0  0  0  0  0  2  0  0  0  0  0  0
  -29.9660  -13.2410   20.3700 N   0  0  0  0  0  0  0  0  0  0  0  0
  -31.7310  -14.6340   19.9660 O   0  0  0  0  0  0  0  0  0  0  0  0
  -29.8090  -15.4520   20.7930 N   0  0  0  0  0  0  0  0  0  0  0  0
  -28.9490  -15.1870   21.2510 H   0  0  0  0  0  0  0  0  0  0  0  0
  -25.1880  -13.8420   20.5690 C   0  0  0  0  0  0  0  0  0  0  0  0
  -24.1200  -13.0720   20.9460 C   0  0  0  0  0  0  0  0  0  0  0  0
  -24.5760  -11.7200   20.9100 C   0  0  0  0  0  0  0  0  0  0  0  0
  -26.2270  -12.9550   20.3240 N   0  0  0  0  0  0  0  0  0  0  0  0
  -25.8620  -11.6750   20.5850 N   0  0  0  0  0  0  0  0  0  0  0  0
  -23.8500  -10.4590   21.1080 C   0  0  0  0  0  0  0  0  0  0  0  0
  -24.3120   -9.4720   22.0070 C   0  0  0  0  0  3  0  0  0  0  0  0
  -23.5840   -8.2780   22.1930 C   0  0  0  0  0  3  0  0  0  0  0  0
  -22.3800   -8.0610   21.4810 C   0  0  0  0  0  0  0  0  0  0  0  0
  -21.9370   -9.0370   20.5710 C   0  0  0  0  0  3  0  0  0  0  0  0
  -22.6660  -10.2230   20.3830 C   0  0  0  0  0  3  0  0  0  0  0  0
  -21.6230   -6.9180   21.5770 O   0  0  0  0  0  0  0  0  0  0  0  0
  -21.6420   -6.1360   22.7050 C   0  0  0  0  0  0  0  0  0  0  0  0
  -21.3280   -6.6590   23.9790 C   0  0  0  0  0  3  0  0  0  0  0  0
  -21.2880   -5.8050   25.1000 C   0  0  0  0  0  3  0  0  0  0  0  0
  -21.5540   -4.4320   24.9480 C   0  0  0  0  0  0  0  0  0  0  0  0
  -21.8620   -3.9080   23.6800 C   0  0  0  0  0  3  0  0  0  0  0  0
  -21.9030   -4.7580   22.5610 C   0  0  0  0  0  0  0  0  0  0  0  0
  -22.1800   -4.2470   21.3370 F   0  0  0  0  0  0  0  0  0  0  0  0
  -21.5090   -3.6090   26.0220 F   0  0  0  0  0  0  0  0  0  0  0  0
  -22.7280  -13.5540   21.2370 C   0  0  0  0  0  0  0  0  0  0  0  0
  -22.0100  -12.8640   22.1150 N   0  0  0  0  0  0  0  0  0  0  0  0
  -22.2860  -14.5780   20.7180 O   0  0  0  0  0  0  0  0  0  0  0  0
  -22.3790  -12.0360   22.5590 H   0  0  0  0  0  0  0  0  0  0  0  0
  -21.0770  -13.1730   22.3490 H   0  0  0  0  0  0  0  0  0  0  0  0
  -25.3520  -15.2130   20.3950 N   0  0  0  0  0  0  0  0  0  0  0  0
  -24.5820  -15.8630   20.5210 H   0  0  0  0  0  0  0  0  0  0  0  0
  -26.1940  -15.6610   20.0580 H   0  0  0  0  0  0  0  0  0  0  0  0
  1  2  1  0
  1 49  1  0
  2  3  1  0
  3  6  1  0
  4  3  1  0
  5  3  1  0
  6  7  1  0
  8 10  1  0
  8  7  1  0
  9 20  2  0
 10 15  1  0
 11 19  1  0
 11 21  1  0
 12 18  1  0
 12 14  1  0
 13 19  1  0
 14 15  2  0
 14 13  1  0
 16 17  1  0
 16 10  2  0
 17 12  2  0
 18 11  1  0
 19  9  1  0
 21 23  2  0
 22 21  1  0
 24 22  1  0
 25 34  2  0
 25 30  1  0
 26 22  1  0
 26 30  1  0
 27 26  1  0
 28 29  1  0
 28 27  1  0
 29 25  1  0
 30 31  2  0
 31 32  1  0
 33 32  2  0
 34 33  1  0
 35  9  1  0
 35 40  1  0
 35 36  1  0
 36 39  1  1
 36 37  1  0
 38 36  1  0
 40 43  1  0
 41 45  1  0
 41 40  1  0
 42 41  2  0
 45 44  1  0
 47 45  1  0
 47 48  1  0
 47 46  1  0
 50 49  1  0
 50 53  1  0
 51 50  1  0
 52 50  1  0
 54 53  1  0
 54 55  1  0
 56 65  1  0
 56 55  1  0
 57 65  1  0
 58 63  1  0
 59 60  1  0
 59 58  1  0
 61 60  1  0
 61 70  1  0
 61 62  1  0
 63 57  1  0
 63 62  1  0
 64 57  2  0
 65 66  1  0
 67 68  2  0
 68 87  1  0
 69 68  1  0
 69 72  1  0
 70 67  1  0
 70 71  1  0
 71 69  2  0
 72 73  1  0
 73 74  2  0
 75 78  1  0
 75 74  1  0
 76 75  2  0
 77 76  1  0
 77 72  2  0
 78 79  1  0
 79 80  1  0
 80 81  2  0
 82 81  1  0
 82 86  1  0
 83 82  2  0
 84 79  2  0
 84 83  1  0
 85 84  1  0
 87 88  1  0
 88 91  1  0
 88 90  1  0
 89 87  2  0
 92 93  1  0
 92 67  1  0
 94 92  1  0
M  ISO  4   7 101   8 101  57 100  65 100
M  END
>  <TORSDO>  (82) 
F 26

>  <SCORE>  (82) 
-11.668

>  <name>  (82) 
82

>  <ligand_id>  (82) 
82

>  <original_smiles>  (82) 
[H]c1c([H])c([H])c2c(c1[H])C([H])([H])C([H])([H])C([H])([H])C2([H])N([H])C(=O)C1([H])N(C(=O)C([H])(N([H])C(=O)C([H])(N([H])C([H])([H])[H])C([H])([H])[H])C(C([H])([H])[H])(C([H])([H])[H])C([H])([H])[H])C([H])([H])c2c([H])c(OC([H])([H])C([H])([H])[N+]([H])([H])C([H])([H])C([H])([H])C([H])([H])[N+]([H])([H])C([H])([H])C([H])([H])C([H])([H])C([H])([H])N([H])C(=O)N3C([H])([H])C([H])([H])C([H])([H])C([H])(n4nc(-c5c([H])c([H])c(Oc6c([H])c([H])c(F)c([H])c6F)c([H])c5[H])c(C(=O)N([H])[H])c4N([H])[H])C3([H])[H])c([H])c([H])c2C1([H])[H]

>  <smiles>  (82) 
[H]c1c([H])c([H])c2c(c1[H])C([H])([H])C([H])([H])C([H])([H])C2([H])N([H])C(=O)C1([H])N(C(=O)C([H])(N([H])C(=O)C([H])(N([H])C([H])([H])[H])C([H])([H])[H])C(C([H])([H])[H])(C([H])([H])[H])C([H])([H])[H])C([H])([H])c2c([H])c(OC([H])([H])C([H])([H])[N+]([H])([H])C([H])([H])C([H])([H])C([H])([H])[N+]([H])([H])C([H])([H])C([H])([H])C([H])([H])C([H])([H])N([H])C(=O)N3C([H])([H])C([H])([H])C([H])([H])C([H])(n4nc(-c5c([H])c([H])c(Oc6c([H])c([H])c(F)c([H])c6F)c([H])c5[H])c(C(=O)N([H])[H])c4N([H])[H])C3([H])[H])c([H])c([H])c2C1([H])[H]

$$$$
83:0:0
     RDKit          3D

 91 98  0  0  1  0  0  0  0  0999 V2000
  -27.4370  -22.6410   20.2320 C   0  0  0  0  0  0  0  0  0  0  0  0
  -27.8480  -23.9130   20.1120 N   0  0  0  0  0  0  0  0  0  0  0  0
  -26.2550  -22.3610   20.0220 O   0  0  0  0  0  0  0  0  0  0  0  0
  -27.1610  -24.5630   19.7590 H   0  0  0  0  0  0  0  0  0  0  0  0
  -28.4670  -21.6550   20.5330 C   0  0  0  0  0  3  0  0  0  0  0  0
  -28.1310  -20.4280   20.9880 C   0  0  0  0  0  3  0  0  0  0  0  0
  -29.1220  -19.3110   21.2580 C   0  0  0  0  0  2  0  0  0  0  0  0
  -29.0500  -18.1920   20.2000 C   0  0  0  0  0  2  0  0  0  0  0  0
  -30.4260  -17.5860   19.8720 C   0  0  0  0  0  2  0  0  0  0  0  0
  -31.0490  -16.7490   21.0080 C   0  0  0  0  0  2  0  0  0  0  0  0
  -31.1300  -14.4450   20.1000 C   0  0  0  0  0  0  0  0  0  0  0  0
  -30.7320  -12.2980   18.9610 C   0  0  0  0  0  2  0  0  0  0  0  0
  -29.7700  -12.4870   17.7710 C   0  0  0  0  0  2  0  0  0  0  0  0
  -28.3030  -12.4010   18.2300 C   0  0  0  0  0  2  0  0  0  0  0  0
  -28.0120  -13.3070   19.4550 C   0  0  0  0  0  3  0  0  0  0  0  0
  -29.0690  -13.0740   20.5570 C   0  0  0  0  0  2  0  0  0  0  0  0
  -30.4070  -13.3040   19.9790 N   0  0  0  0  0  0  0  0  0  0  0  0
  -32.1600  -14.6690   19.4560 O   0  0  0  0  0  0  0  0  0  0  0  0
  -30.6160  -15.3560   20.9370 N   0  0  0  0  0  0  0  0  0  0  0  0
  -29.8220  -15.0770   21.4960 H   0  0  0  0  0  0  0  0  0  0  0  0
  -25.6510  -14.0220   20.1990 C   0  0  0  0  0  0  0  0  0  0  0  0
  -24.5660  -13.2970   20.6100 C   0  0  0  0  0  0  0  0  0  0  0  0
  -24.9790  -11.9280   20.6000 C   0  0  0  0  0  0  0  0  0  0  0  0
  -26.6580  -13.0980   19.9640 N   0  0  0  0  0  0  0  0  0  0  0  0
  -26.2560  -11.8370   20.2610 N   0  0  0  0  0  0  0  0  0  0  0  0
  -24.2150  -10.6960   20.8330 C   0  0  0  0  0  0  0  0  0  0  0  0
  -24.6270   -9.7430   21.7910 C   0  0  0  0  0  3  0  0  0  0  0  0
  -23.8660   -8.5740   22.0070 C   0  0  0  0  0  3  0  0  0  0  0  0
  -22.6780   -8.3530   21.2690 C   0  0  0  0  0  0  0  0  0  0  0  0
  -22.2870   -9.2950   20.3010 C   0  0  0  0  0  3  0  0  0  0  0  0
  -23.0480  -10.4540   20.0820 C   0  0  0  0  0  3  0  0  0  0  0  0
  -21.8870   -7.2370   21.3970 O   0  0  0  0  0  0  0  0  0  0  0  0
  -21.8060   -6.5440   22.5770 C   0  0  0  0  0  0  0  0  0  0  0  0
  -21.4010   -7.1640   23.7820 C   0  0  0  0  0  3  0  0  0  0  0  0
  -21.2660   -6.3960   24.9560 C   0  0  0  0  0  3  0  0  0  0  0  0
  -21.5240   -5.0130   24.9290 C   0  0  0  0  0  0  0  0  0  0  0  0
  -21.9190   -4.3940   23.7300 C   0  0  0  0  0  3  0  0  0  0  0  0
  -22.0570   -5.1570   22.5580 C   0  0  0  0  0  0  0  0  0  0  0  0
  -22.4190   -4.5520   21.4010 F   0  0  0  0  0  0  0  0  0  0  0  0
  -21.3850   -4.2750   26.0540 F   0  0  0  0  0  0  0  0  0  0  0  0
  -23.1930  -13.8280   20.9080 C   0  0  0  0  0  0  0  0  0  0  0  0
  -22.4660  -13.1770   21.8110 N   0  0  0  0  0  0  0  0  0  0  0  0
  -22.7720  -14.8540   20.3720 O   0  0  0  0  0  0  0  0  0  0  0  0
  -22.8170  -12.3460   22.2630 H   0  0  0  0  0  0  0  0  0  0  0  0
  -21.5470  -13.5170   22.0530 H   0  0  0  0  0  0  0  0  0  0  0  0
  -25.8670  -15.3790   19.9910 N   0  0  0  0  0  0  0  0  0  0  0  0
  -25.1500  -16.0810   20.1450 H   0  0  0  0  0  0  0  0  0  0  0  0
  -26.7480  -15.7720   19.6840 H   0  0  0  0  0  0  0  0  0  0  0  0
  -29.0590  -24.5650   20.6140 C   0  0  0  0  0  2  0  0  0  0  0  0
  -28.7300  -26.0120   21.0550 C   0  0  0  0  0  2  0  0  0  0  0  0
  -28.3710  -26.8230   19.9340 O   0  0  0  0  0  0  0  0  0  0  0  0
  -24.6170  -31.9520   23.2350 C   0  0  0  0  0  0  0  0  0  0  0  0
  -27.2100  -27.5510   20.0540 C   0  0  0  0  0  0  0  0  0  0  0  0
  -23.3820  -30.5670   21.5980 C   0  0  0  0  0  3  0  0  0  0  0  0
  -24.8110  -29.0420   20.1380 C   0  0  0  0  0  0  0  0  0  0  0  0
  -25.9050  -30.9300   21.3610 C   0  0  0  0  0  2  0  0  0  0  0  0
  -25.9800  -29.5630   20.7110 C   0  0  0  0  0  0  0  0  0  0  0  0
  -27.1830  -28.8220   20.6680 C   0  0  0  0  0  3  0  0  0  0  0  0
  -26.0280  -27.0400   19.4810 C   0  0  0  0  0  3  0  0  0  0  0  0
  -24.8300  -27.7770   19.5250 C   0  0  0  0  0  3  0  0  0  0  0  0
  -23.5670  -29.8970   20.2110 C   0  0  0  0  0  2  0  0  0  0  0  0
  -24.6540  -31.1640   22.1220 N   0  0  0  0  0  0  0  0  0  0  0  0
  -23.5450  -32.2160   23.7980 O   0  0  0  0  0  0  0  0  0  0  0  0
  -22.7470  -29.5360   22.5610 C   0  0  0  0  0  0  0  0  0  0  0  0
  -21.4210  -29.3470   22.4490 N   0  0  0  0  0  0  0  0  0  0  0  0
  -23.4450  -28.9100   23.3620 O   0  0  0  0  0  0  0  0  0  0  0  0
  -20.9220  -29.9020   21.7680 H   0  0  0  0  0  0  0  0  0  0  0  0
  -18.0640  -28.1120   22.9610 C   0  0  0  0  0  0  0  0  0  0  0  0
  -20.6200  -28.3980   23.2250 C   0  0  0  0  0  3  0  0  0  0  0  0
  -20.7370  -26.9720   22.6430 C   0  0  0  0  0  2  0  0  0  0  0  0
  -19.6330  -26.6380   21.6360 C   0  0  0  0  0  2  0  0  0  0  0  0
  -18.2540  -26.7640   22.2860 C   0  0  0  0  0  2  0  0  0  0  0  0
  -19.1750  -28.8880   23.3870 C   0  0  0  0  0  0  0  0  0  0  0  0
  -18.9410  -30.1490   23.9760 C   0  0  0  0  0  3  0  0  0  0  0  0
  -17.6310  -30.6360   24.1430 C   0  0  0  0  0  3  0  0  0  0  0  0
  -16.5360  -29.8570   23.7340 C   0  0  0  0  0  3  0  0  0  0  0  0
  -16.7530  -28.5970   23.1490 C   0  0  0  0  0  3  0  0  0  0  0  0
  -25.9140  -32.5770   23.8370 C   0  0  0  0  0  3  0  0  0  0  0  0
  -25.6140  -33.9730   24.1800 N   0  0  0  0  0  0  0  0  0  0  0  0
  -25.9440  -35.0280   23.4250 C   0  0  0  0  0  0  0  0  0  0  0  0
  -26.5990  -34.9290   22.3830 O   0  0  0  0  0  0  0  0  0  0  0  0
  -25.0290  -34.1240   24.9890 H   0  0  0  0  0  0  0  0  0  0  0  0
  -24.2190  -36.8300   23.1030 C   0  0  0  0  0  1  0  0  0  0  0  0
  -25.4670  -36.4160   23.8980 C   0  0  0  0  0  3  0  0  0  0  0  0
  -27.6150  -37.2850   24.7070 C   0  0  0  0  0  1  0  0  0  0  0  0
  -26.5010  -37.4640   23.7800 N   0  0  0  0  0  0  0  0  0  0  0  0
  -26.1010  -38.3850   23.9370 H   0  0  0  0  0  0  0  0  0  0  0  0
  -26.4540  -31.7950   25.0970 C   0  0  1  0  0  0  0  0  0  0  0  0
  -25.3810  -31.5510   26.1840 C   0  0  0  0  0  1  0  0  0  0  0  0
  -27.0290  -30.4220   24.6810 C   0  0  0  0  0  1  0  0  0  0  0  0
  -27.6210  -32.5800   25.7390 C   0  0  0  0  0  1  0  0  0  0  0  0
  1  5  1  0
  2  1  1  0
  2 49  1  0
  3  1  2  0
  4  2  1  0
  5  6  2  0
  6  7  1  0
  8  7  1  0
  9  8  1  0
  9 10  1  0
 11 19  1  0
 12 17  1  0
 13 14  1  0
 13 12  1  0
 15 14  1  0
 15 24  1  0
 15 16  1  0
 17 11  1  0
 17 16  1  0
 18 11  2  0
 19 10  1  0
 19 20  1  0
 21 22  2  0
 22 41  1  0
 23 22  1  0
 23 26  1  0
 24 21  1  0
 24 25  1  0
 25 23  2  0
 26 27  1  0
 27 28  2  0
 29 32  1  0
 29 28  1  0
 30 29  2  0
 31 30  1  0
 31 26  2  0
 32 33  1  0
 33 34  1  0
 34 35  2  0
 36 35  1  0
 36 40  1  0
 37 36  2  0
 38 33  2  0
 38 37  1  0
 39 38  1  0
 41 42  1  0
 42 45  1  0
 42 44  1  0
 43 41  2  0
 46 47  1  0
 46 21  1  0
 48 46  1  0
 49 50  1  0
 51 53  1  0
 51 50  1  0
 52 63  2  0
 53 58  1  0
 54 62  1  0
 54 64  1  0
 55 61  1  0
 55 57  1  0
 56 62  1  0
 57 56  1  0
 58 57  2  0
 59 60  1  0
 59 53  2  0
 60 55  2  0
 61 54  1  0
 62 52  1  0
 64 66  2  0
 65 64  1  0
 67 65  1  0
 68 77  2  0
 68 73  1  0
 69 65  1  0
 69 73  1  0
 70 69  1  0
 71 72  1  0
 71 70  1  0
 72 68  1  0
 73 74  2  0
 74 75  1  0
 76 75  2  0
 77 76  1  0
 78 52  1  0
 78 79  1  0
 78 88  1  0
 79 82  1  0
 80 84  1  0
 80 79  1  0
 81 80  2  0
 84 83  1  0
 86 84  1  0
 86 87  1  0
 86 85  1  0
 88 91  1  1
 88 89  1  0
 90 88  1  0
M  ISO  4  11 100  19 100  50 101  51 101
M  END
>  <TORSDO>  (83) 
F 23

>  <SCORE>  (83) 
-11.762

>  <name>  (83) 
83

>  <ligand_id>  (83) 
83

>  <original_smiles>  (83) 
[H]C(C(=O)N([H])C([H])([H])C([H])([H])Oc1c([H])c([H])c2c(c1[H])C([H])([H])N(C(=O)C([H])(N([H])C(=O)C([H])(N([H])C([H])([H])[H])C([H])([H])[H])C(C([H])([H])[H])(C([H])([H])[H])C([H])([H])[H])C([H])(C(=O)N([H])C1([H])c3c([H])c([H])c([H])c([H])c3C([H])([H])C([H])([H])C1([H])[H])C2([H])[H])=C([H])C([H])([H])C([H])([H])C([H])([H])C([H])([H])N([H])C(=O)N1C([H])([H])C([H])([H])C([H])([H])C([H])(n2nc(-c3c([H])c([H])c(Oc4c([H])c([H])c(F)c([H])c4F)c([H])c3[H])c(C(=O)N([H])[H])c2N([H])[H])C1([H])[H]

>  <smiles>  (83) 
[H]C(C(=O)N([H])C([H])([H])C([H])([H])Oc1c([H])c([H])c2c(c1[H])C([H])([H])N(C(=O)C([H])(N([H])C(=O)C([H])(N([H])C([H])([H])[H])C([H])([H])[H])C(C([H])([H])[H])(C([H])([H])[H])C([H])([H])[H])C([H])(C(=O)N([H])C1([H])c3c([H])c([H])c([H])c([H])c3C([H])([H])C([H])([H])C1([H])[H])C2([H])[H])=C([H])C([H])([H])C([H])([H])C([H])([H])C([H])([H])N([H])C(=O)N1C([H])([H])C([H])([H])C([H])([H])C([H])(n2nc(-c3c([H])c([H])c(Oc4c([H])c([H])c(F)c([H])c4F)c([H])c3[H])c(C(=O)N([H])[H])c2N([H])[H])C1([H])[H]

$$$$
84:0:0
     RDKit          3D

 90 97  0  0  1  0  0  0  0  0999 V2000
  -29.5390  -21.8770   20.7790 C   0  0  0  0  0  2  0  0  0  0  0  0
  -28.9860  -22.9380   19.9220 N   0  0  0  0  0  0  0  0  0  0  0  0
  -28.0060  -22.7400   19.7320 H   0  0  0  0  0  0  0  0  0  0  0  0
  -29.0760  -24.2850   20.5160 C   0  0  0  0  0  2  0  0  0  0  0  0
  -28.5320  -25.3730   19.5460 C   0  0  0  0  0  2  0  0  0  0  0  0
  -28.4140  -26.6850   20.1510 O   0  0  0  0  0  0  0  0  0  0  0  0
  -24.6120  -31.8920   23.2330 C   0  0  0  0  0  0  0  0  0  0  0  0
  -27.2220  -27.4040   20.1310 C   0  0  0  0  0  0  0  0  0  0  0  0
  -23.3930  -30.4930   21.6020 C   0  0  0  0  0  3  0  0  0  0  0  0
  -24.8320  -28.9530   20.1700 C   0  0  0  0  0  0  0  0  0  0  0  0
  -25.9250  -30.8310   21.3950 C   0  0  0  0  0  2  0  0  0  0  0  0
  -25.9990  -29.4590   20.7520 C   0  0  0  0  0  0  0  0  0  0  0  0
  -27.1920  -28.6920   20.7320 C   0  0  0  0  0  3  0  0  0  0  0  0
  -26.0220  -26.9270   19.5460 C   0  0  0  0  0  3  0  0  0  0  0  0
  -24.8400  -27.6860   19.5680 C   0  0  0  0  0  3  0  0  0  0  0  0
  -23.5930  -29.8170   20.2220 C   0  0  0  0  0  2  0  0  0  0  0  0
  -24.6620  -31.0870   22.1340 N   0  0  0  0  0  0  0  0  0  0  0  0
  -23.5340  -32.1690   23.7760 O   0  0  0  0  0  0  0  0  0  0  0  0
  -22.7460  -29.4710   22.5660 C   0  0  0  0  0  0  0  0  0  0  0  0
  -21.4210  -29.2910   22.4480 N   0  0  0  0  0  0  0  0  0  0  0  0
  -23.4340  -28.8450   23.3770 O   0  0  0  0  0  0  0  0  0  0  0  0
  -20.9260  -29.8490   21.7650 H   0  0  0  0  0  0  0  0  0  0  0  0
  -18.0480  -28.0970   22.9610 C   0  0  0  0  0  0  0  0  0  0  0  0
  -20.6070  -28.3560   23.2240 C   0  0  0  0  0  3  0  0  0  0  0  0
  -20.7080  -26.9220   22.6550 C   0  0  0  0  0  2  0  0  0  0  0  0
  -19.6030  -26.5950   21.6450 C   0  0  0  0  0  2  0  0  0  0  0  0
  -18.2230  -26.7440   22.2920 C   0  0  0  0  0  2  0  0  0  0  0  0
  -19.1670  -28.8610   23.3840 C   0  0  0  0  0  0  0  0  0  0  0  0
  -18.9500  -30.1280   23.9680 C   0  0  0  0  0  3  0  0  0  0  0  0
  -17.6460  -30.6300   24.1340 C   0  0  0  0  0  3  0  0  0  0  0  0
  -16.5400  -29.8630   23.7270 C   0  0  0  0  0  3  0  0  0  0  0  0
  -16.7420  -28.5980   23.1460 C   0  0  0  0  0  3  0  0  0  0  0  0
  -25.9020  -32.5240   23.8410 C   0  0  0  0  0  3  0  0  0  0  0  0
  -26.4360  -31.7460   25.1070 C   0  0  1  0  0  0  0  0  0  0  0  0
  -25.3560  -31.5000   26.1850 C   0  0  0  0  0  1  0  0  0  0  0  0
  -27.0170  -30.3710   24.7010 C   0  0  0  0  0  1  0  0  0  0  0  0
  -27.5930  -32.5380   25.7590 C   0  0  0  0  0  1  0  0  0  0  0  0
  -25.5920  -33.9190   24.1820 N   0  0  0  0  0  0  0  0  0  0  0  0
  -25.9100  -34.9750   23.4220 C   0  0  0  0  0  0  0  0  0  0  0  0
  -26.5650  -34.8790   22.3810 O   0  0  0  0  0  0  0  0  0  0  0  0
  -25.0060  -34.0660   24.9900 H   0  0  0  0  0  0  0  0  0  0  0  0
  -24.1650  -36.7580   23.1040 C   0  0  0  0  0  1  0  0  0  0  0  0
  -25.4220  -36.3590   23.8920 C   0  0  0  0  0  3  0  0  0  0  0  0
  -27.5690  -37.2520   24.6830 C   0  0  0  0  0  1  0  0  0  0  0  0
  -26.4460  -37.4190   23.7640 N   0  0  0  0  0  0  0  0  0  0  0  0
  -26.0390  -38.3360   23.9250 H   0  0  0  0  0  0  0  0  0  0  0  0
  -29.2780  -20.4450   20.2060 C   0  0  0  0  0  2  0  0  0  0  0  0
  -29.9590  -19.3610   20.9710 N   0  0  0  0  0  4  0  0  0  0  0  0
  -30.9530  -19.4810   20.8660 H   0  0  0  0  0  0  0  0  0  0  0  0
  -29.7380  -19.4840   21.9470 H   0  0  0  0  0  0  0  0  0  0  0  0
  -29.5950  -17.9640   20.5850 C   0  0  0  0  0  2  0  0  0  0  0  0
  -30.3920  -16.8790   21.3710 C   0  0  0  0  0  2  0  0  0  0  0  0
  -30.6370  -14.4980   20.5150 C   0  0  0  0  0  0  0  0  0  0  0  0
  -30.3390  -12.3450   19.3390 C   0  0  0  0  0  2  0  0  0  0  0  0
  -29.3830  -12.5410   18.1440 C   0  0  0  0  0  2  0  0  0  0  0  0
  -27.9140  -12.3960   18.5870 C   0  0  0  0  0  2  0  0  0  0  0  0
  -27.5840  -13.2320   19.8520 C   0  0  0  0  0  3  0  0  0  0  0  0
  -28.6470  -13.0070   20.9500 C   0  0  0  0  0  2  0  0  0  0  0  0
  -29.9660  -13.3220   20.3740 N   0  0  0  0  0  0  0  0  0  0  0  0
  -31.7520  -14.6960   20.0290 O   0  0  0  0  0  0  0  0  0  0  0  0
  -29.9470  -15.4910   21.1130 N   0  0  0  0  0  0  0  0  0  0  0  0
  -29.0300  -15.2400   21.4510 H   0  0  0  0  0  0  0  0  0  0  0  0
  -25.1920  -13.8430   20.5770 C   0  0  0  0  0  0  0  0  0  0  0  0
  -24.1240  -13.0710   20.9510 C   0  0  0  0  0  0  0  0  0  0  0  0
  -24.5820  -11.7190   20.9130 C   0  0  0  0  0  0  0  0  0  0  0  0
  -26.2340  -12.9600   20.3380 N   0  0  0  0  0  0  0  0  0  0  0  0
  -25.8700  -11.6770   20.5970 N   0  0  0  0  0  0  0  0  0  0  0  0
  -23.8550  -10.4580   21.1020 C   0  0  0  0  0  0  0  0  0  0  0  0
  -24.3090   -9.4710   22.0050 C   0  0  0  0  0  3  0  0  0  0  0  0
  -23.5820   -8.2740   22.1830 C   0  0  0  0  0  3  0  0  0  0  0  0
  -22.3870   -8.0560   21.4570 C   0  0  0  0  0  0  0  0  0  0  0  0
  -21.9510   -9.0310   20.5430 C   0  0  0  0  0  3  0  0  0  0  0  0
  -22.6780  -10.2190   20.3630 C   0  0  0  0  0  3  0  0  0  0  0  0
  -21.6280   -6.9130   21.5460 O   0  0  0  0  0  0  0  0  0  0  0  0
  -21.6290   -6.1360   22.6770 C   0  0  0  0  0  0  0  0  0  0  0  0
  -21.2830   -6.6610   23.9410 C   0  0  0  0  0  3  0  0  0  0  0  0
  -21.2290   -5.8110   25.0640 C   0  0  0  0  0  3  0  0  0  0  0  0
  -21.5080   -4.4400   24.9250 C   0  0  0  0  0  0  0  0  0  0  0  0
  -21.8470   -3.9130   23.6660 C   0  0  0  0  0  3  0  0  0  0  0  0
  -21.9040   -4.7600   22.5440 C   0  0  0  0  0  0  0  0  0  0  0  0
  -22.2100   -4.2450   21.3290 F   0  0  0  0  0  0  0  0  0  0  0  0
  -21.4480   -3.6210   26.0020 F   0  0  0  0  0  0  0  0  0  0  0  0
  -22.7290  -13.5510   21.2350 C   0  0  0  0  0  0  0  0  0  0  0  0
  -22.0070  -12.8530   22.1040 N   0  0  0  0  0  0  0  0  0  0  0  0
  -22.2890  -14.5790   20.7200 O   0  0  0  0  0  0  0  0  0  0  0  0
  -22.3760  -12.0210   22.5410 H   0  0  0  0  0  0  0  0  0  0  0  0
  -21.0720  -13.1560   22.3370 H   0  0  0  0  0  0  0  0  0  0  0  0
  -25.3580  -15.2130   20.4010 N   0  0  0  0  0  0  0  0  0  0  0  0
  -24.5890  -15.8670   20.5040 H   0  0  0  0  0  0  0  0  0  0  0  0
  -26.1980  -15.6450   20.0380 H   0  0  0  0  0  0  0  0  0  0  0  0
  2  4  1  0
  2  1  1  0
  3  2  1  0
  5  6  1  0
  5  4  1  0
  7 18  2  0
  8  6  1  0
  8 13  1  0
  9 17  1  0
  9 19  1  0
 10 16  1  0
 10 12  1  0
 11 17  1  0
 12 11  1  0
 13 12  2  0
 14 15  1  0
 14  8  2  0
 15 10  2  0
 16  9  1  0
 17  7  1  0
 19 21  2  0
 20 19  1  0
 22 20  1  0
 23 32  2  0
 23 28  1  0
 24 20  1  0
 24 28  1  0
 25 24  1  0
 26 27  1  0
 26 25  1  0
 27 23  1  0
 28 29  2  0
 29 30  1  0
 31 30  2  0
 32 31  1  0
 33  7  1  0
 33 38  1  0
 33 34  1  0
 34 37  1  1
 34 35  1  0
 36 34  1  0
 38 41  1  0
 39 43  1  0
 39 38  1  0
 40 39  2  0
 43 42  1  0
 45 43  1  0
 45 46  1  0
 45 44  1  0
 47  1  1  0
 47 48  1  0
 48 50  1  0
 49 48  1  0
 51 48  1  0
 51 52  1  0
 53 61  1  0
 54 59  1  0
 55 56  1  0
 55 54  1  0
 57 56  1  0
 57 66  1  0
 57 58  1  0
 59 53  1  0
 59 58  1  0
 60 53  2  0
 61 52  1  0
 61 62  1  0
 63 64  2  0
 64 83  1  0
 65 64  1  0
 65 68  1  0
 66 63  1  0
 66 67  1  0
 67 65  2  0
 68 69  1  0
 69 70  2  0
 71 74  1  0
 71 70  1  0
 72 71  2  0
 73 72  1  0
 73 68  2  0
 74 75  1  0
 75 76  1  0
 76 77  2  0
 78 77  1  0
 78 82  1  0
 79 78  2  0
 80 75  2  0
 80 79  1  0
 81 80  1  0
 83 84  1  0
 84 87  1  0
 84 86  1  0
 85 83  2  0
 88 89  1  0
 88 63  1  0
 90 88  1  0
M  ISO  4   5 101   6 101  53 100  61 100
M  END
>  <TORSDO>  (84) 
F 23

>  <SCORE>  (84) 
-12.740

>  <name>  (84) 
84

>  <ligand_id>  (84) 
84

>  <original_smiles>  (84) 
[H]c1c([H])c([H])c2c(c1[H])C([H])([H])C([H])([H])C([H])([H])C2([H])N([H])C(=O)C1([H])N(C(=O)C([H])(N([H])C(=O)C([H])(N([H])C([H])([H])[H])C([H])([H])[H])C(C([H])([H])[H])(C([H])([H])[H])C([H])([H])[H])C([H])([H])c2c([H])c(OC([H])([H])C([H])([H])N([H])C([H])([H])C([H])([H])[N+]([H])([H])C([H])([H])C([H])([H])N([H])C(=O)N3C([H])([H])C([H])([H])C([H])([H])C([H])(n4nc(-c5c([H])c([H])c(Oc6c([H])c([H])c(F)c([H])c6F)c([H])c5[H])c(C(=O)N([H])[H])c4N([H])[H])C3([H])[H])c([H])c([H])c2C1([H])[H]

>  <smiles>  (84) 
[H]c1c([H])c([H])c2c(c1[H])C([H])([H])C([H])([H])C([H])([H])C2([H])N([H])C(=O)C1([H])N(C(=O)C([H])(N([H])C(=O)C([H])(N([H])C([H])([H])[H])C([H])([H])[H])C(C([H])([H])[H])(C([H])([H])[H])C([H])([H])[H])C([H])([H])c2c([H])c(OC([H])([H])C([H])([H])N([H])C([H])([H])C([H])([H])[N+]([H])([H])C([H])([H])C([H])([H])N([H])C(=O)N3C([H])([H])C([H])([H])C([H])([H])C([H])(n4nc(-c5c([H])c([H])c(Oc6c([H])c([H])c(F)c([H])c6F)c([H])c5[H])c(C(=O)N([H])[H])c4N([H])[H])C3([H])[H])c([H])c([H])c2C1([H])[H]

$$$$
85:0:0
     RDKit          3D

 96103  0  0  1  0  0  0  0  0999 V2000
  -25.1920  -22.1150   19.9890 C   0  0  0  0  0  2  0  0  0  0  0  0
  -26.0840  -23.3520   20.1990 C   0  0  0  0  0  2  0  0  0  0  0  0
  -26.2780  -23.7250   21.6820 C   0  0  0  0  0  2  0  0  0  0  0  0
  -27.0190  -24.9940   21.8630 N   0  0  0  0  0  4  0  0  0  0  0  0
  -27.0500  -25.1810   22.8550 H   0  0  0  0  0  0  0  0  0  0  0  0
  -26.4930  -25.7440   21.4380 H   0  0  0  0  0  0  0  0  0  0  0  0
  -28.4110  -24.9910   21.3460 C   0  0  0  0  0  2  0  0  0  0  0  0
  -29.0660  -26.3860   21.3930 C   0  0  0  0  0  2  0  0  0  0  0  0
  -28.7290  -27.1090   20.2130 O   0  0  0  0  0  0  0  0  0  0  0  0
  -24.6700  -32.0210   23.4000 C   0  0  0  0  0  0  0  0  0  0  0  0
  -27.5410  -27.7880   20.2610 C   0  0  0  0  0  0  0  0  0  0  0  0
  -23.5520  -30.6280   21.6850 C   0  0  0  0  0  3  0  0  0  0  0  0
  -25.0930  -29.1770   20.2610 C   0  0  0  0  0  0  0  0  0  0  0  0
  -26.0620  -31.0810   21.5650 C   0  0  0  0  0  2  0  0  0  0  0  0
  -26.2100  -29.7310   20.8980 C   0  0  0  0  0  0  0  0  0  0  0  0
  -27.4380  -29.0370   20.9080 C   0  0  0  0  0  3  0  0  0  0  0  0
  -26.4150  -27.2440   19.6110 C   0  0  0  0  0  3  0  0  0  0  0  0
  -25.1860  -27.9270   19.6210 C   0  0  0  0  0  3  0  0  0  0  0  0
  -23.8180  -29.9900   20.2950 C   0  0  0  0  0  2  0  0  0  0  0  0
  -24.7760  -31.2570   22.2770 N   0  0  0  0  0  0  0  0  0  0  0  0
  -23.5690  -32.2420   23.9210 O   0  0  0  0  0  0  0  0  0  0  0  0
  -22.9110  -29.5600   22.5990 C   0  0  0  0  0  0  0  0  0  0  0  0
  -21.5990  -29.3340   22.4200 N   0  0  0  0  0  0  0  0  0  0  0  0
  -23.5920  -28.9390   23.4190 O   0  0  0  0  0  0  0  0  0  0  0  0
  -21.1120  -29.8910   21.7340 H   0  0  0  0  0  0  0  0  0  0  0  0
  -18.2470  -28.0430   22.8120 C   0  0  0  0  0  0  0  0  0  0  0  0
  -20.7920  -28.3460   23.1350 C   0  0  0  0  0  3  0  0  0  0  0  0
  -20.9410  -26.9440   22.5000 C   0  0  0  0  0  2  0  0  0  0  0  0
  -19.8560  -26.6280   21.4650 C   0  0  0  0  0  2  0  0  0  0  0  0
  -18.4650  -26.7210   22.0970 C   0  0  0  0  0  2  0  0  0  0  0  0
  -19.3390  -28.8120   23.2890 C   0  0  0  0  0  0  0  0  0  0  0  0
  -19.0830  -30.0470   23.9240 C   0  0  0  0  0  3  0  0  0  0  0  0
  -17.7650  -30.5120   24.0870 C   0  0  0  0  0  3  0  0  0  0  0  0
  -16.6850  -29.7410   23.6260 C   0  0  0  0  0  3  0  0  0  0  0  0
  -16.9270  -28.5080   22.9930 C   0  0  0  0  0  3  0  0  0  0  0  0
  -25.9230  -32.6700   24.0710 C   0  0  0  0  0  3  0  0  0  0  0  0
  -25.6060  -34.0790   24.3330 N   0  0  0  0  0  0  0  0  0  0  0  0
  -25.9830  -35.1000   23.5520 C   0  0  0  0  0  0  0  0  0  0  0  0
  -26.7050  -34.9540   22.5620 O   0  0  0  0  0  0  0  0  0  0  0  0
  -24.9700  -34.2670   25.0940 H   0  0  0  0  0  0  0  0  0  0  0  0
  -24.2850  -36.8770   23.0310 C   0  0  0  0  0  1  0  0  0  0  0  0
  -25.4760  -36.5050   23.9270 C   0  0  0  0  0  3  0  0  0  0  0  0
  -27.5540  -37.4220   24.8570 C   0  0  0  0  0  1  0  0  0  0  0  0
  -26.5180  -37.5500   23.8350 N   0  0  0  0  0  0  0  0  0  0  0  0
  -26.1080  -38.4770   23.9120 H   0  0  0  0  0  0  0  0  0  0  0  0
  -26.3650  -31.9420   25.3990 C   0  0  1  0  0  0  0  0  0  0  0  0
  -25.2060  -31.7220   26.3990 C   0  0  0  0  0  1  0  0  0  0  0  0
  -26.9910  -30.5640   25.0840 C   0  0  0  0  0  1  0  0  0  0  0  0
  -27.4610  -32.7700   26.1120 C   0  0  0  0  0  1  0  0  0  0  0  0
  -25.1440  -21.6440   18.5150 C   0  0  0  0  0  2  0  0  0  0  0  0
  -25.8320  -20.3520   18.3050 N   0  0  0  0  0  4  0  0  0  0  0  0
  -25.4870  -19.6880   18.9800 H   0  0  0  0  0  0  0  0  0  0  0  0
  -25.5730  -20.0130   17.3910 H   0  0  0  0  0  0  0  0  0  0  0  0
  -27.3080  -20.4190   18.3680 C   0  0  0  0  0  2  0  0  0  0  0  0
  -27.9290  -19.0430   18.6440 C   0  0  0  0  0  2  0  0  0  0  0  0
  -29.4690  -19.0740   18.6600 C   0  0  0  0  0  2  0  0  0  0  0  0
  -30.0560  -17.7640   19.2100 C   0  0  0  0  0  2  0  0  0  0  0  0
  -30.2340  -17.7530   20.7500 C   0  0  0  0  0  2  0  0  0  0  0  0
  -30.9590  -15.3640   20.9090 C   0  0  0  0  0  0  0  0  0  0  0  0
  -30.8470  -13.0360   20.1130 C   0  0  0  0  0  2  0  0  0  0  0  0
  -30.0800  -12.9590   18.7710 C   0  0  0  0  0  2  0  0  0  0  0  0
  -28.5590  -13.2260   18.8960 C   0  0  0  0  0  2  0  0  0  0  0  0
  -28.0960  -13.3060   20.3490 C   0  0  0  0  0  3  0  0  0  0  0  0
  -28.9650  -13.9540   21.4250 C   0  0  0  0  0  2  0  0  0  0  0  0
  -30.3320  -14.1650   20.9110 N   0  0  0  0  0  0  0  0  0  0  0  0
  -32.0840  -15.5490   20.4430 O   0  0  0  0  0  0  0  0  0  0  0  0
  -30.1830  -16.3930   21.2770 N   0  0  0  0  0  0  0  0  0  0  0  0
  -29.3260  -16.1370   21.7470 H   0  0  0  0  0  0  0  0  0  0  0  0
  -25.6210  -14.2200   20.7210 C   0  0  0  0  0  0  0  0  0  0  0  0
  -24.4990  -13.4640   20.9720 C   0  0  0  0  0  0  0  0  0  0  0  0
  -24.9370  -12.1090   20.9650 C   0  0  0  0  0  0  0  0  0  0  0  0
  -26.6620  -13.2920   20.6030 N   0  0  0  0  0  0  0  0  0  0  0  0
  -26.2220  -12.0410   20.7850 N   0  0  0  0  0  0  0  0  0  0  0  0
  -24.2440  -10.8350   21.0540 C   0  0  0  0  0  0  0  0  0  0  0  0
  -24.5820   -9.8970   22.0550 C   0  0  0  0  0  3  0  0  0  0  0  0
  -23.9110   -8.6590   22.1160 C   0  0  0  0  0  3  0  0  0  0  0  0
  -22.8960   -8.3600   21.1770 C   0  0  0  0  0  0  0  0  0  0  0  0
  -22.5930   -9.2880   20.1650 C   0  0  0  0  0  3  0  0  0  0  0  0
  -23.2650  -10.5180   20.0990 C   0  0  0  0  0  3  0  0  0  0  0  0
  -22.1970   -7.1800   21.1560 O   0  0  0  0  0  0  0  0  0  0  0  0
  -21.9160   -6.4960   22.3110 C   0  0  0  0  0  0  0  0  0  0  0  0
  -21.1470   -7.0630   23.3500 C   0  0  0  0  0  3  0  0  0  0  0  0
  -20.8230   -6.2940   24.4860 C   0  0  0  0  0  3  0  0  0  0  0  0
  -21.2570   -4.9580   24.5780 C   0  0  0  0  0  0  0  0  0  0  0  0
  -22.0230   -4.3920   23.5430 C   0  0  0  0  0  3  0  0  0  0  0  0
  -22.3480   -5.1590   22.4110 C   0  0  0  0  0  0  0  0  0  0  0  0
  -23.0670   -4.6040   21.4060 F   0  0  0  0  0  0  0  0  0  0  0  0
  -20.9400   -4.2140   25.6640 F   0  0  0  0  0  0  0  0  0  0  0  0
  -23.0760  -13.9230   21.1260 C   0  0  0  0  0  0  0  0  0  0  0  0
  -22.2820  -13.1810   21.8920 N   0  0  0  0  0  0  0  0  0  0  0  0
  -22.6710  -14.9570   20.6010 O   0  0  0  0  0  0  0  0  0  0  0  0
  -22.6230  -12.3430   22.3390 H   0  0  0  0  0  0  0  0  0  0  0  0
  -21.3210  -13.4550   22.0370 H   0  0  0  0  0  0  0  0  0  0  0  0
  -25.8250  -15.5920   20.5810 N   0  0  0  0  0  0  0  0  0  0  0  0
  -25.0640  -16.2580   20.6290 H   0  0  0  0  0  0  0  0  0  0  0  0
  -26.7240  -16.0060   20.3710 H   0  0  0  0  0  0  0  0  0  0  0  0
  1  2  1  0
  2  3  1  0
  3  4  1  0
  4  5  1  0
  6  4  1  0
  7  8  1  0
  7  4  1  0
  9 11  1  0
  9  8  1  0
 10 21  2  0
 11 16  1  0
 12 20  1  0
 12 22  1  0
 13 19  1  0
 13 15  1  0
 14 20  1  0
 15 16  2  0
 15 14  1  0
 17 18  1  0
 17 11  2  0
 18 13  2  0
 19 12  1  0
 20 10  1  0
 22 24  2  0
 23 22  1  0
 25 23  1  0
 26 35  2  0
 26 31  1  0
 27 23  1  0
 27 31  1  0
 28 27  1  0
 29 30  1  0
 29 28  1  0
 30 26  1  0
 31 32  2  0
 32 33  1  0
 34 33  2  0
 35 34  1  0
 36 10  1  0
 36 37  1  0
 36 46  1  0
 37 40  1  0
 38 42  1  0
 38 37  1  0
 39 38  2  0
 42 41  1  0
 44 45  1  0
 44 42  1  0
 44 43  1  0
 46 49  1  1
 46 47  1  0
 48 46  1  0
 50  1  1  0
 51 54  1  0
 51 50  1  0
 51 52  1  0
 53 51  1  0
 54 55  1  0
 55 56  1  0
 56 57  1  0
 57 58  1  0
 58 67  1  0
 59 65  1  0
 59 67  1  0
 60 65  1  0
 61 62  1  0
 61 60  1  0
 63 62  1  0
 63 72  1  0
 63 64  1  0
 65 64  1  0
 66 59  2  0
 67 68  1  0
 69 70  2  0
 70 89  1  0
 71 70  1  0
 71 74  1  0
 72 69  1  0
 72 73  1  0
 73 71  2  0
 74 75  1  0
 75 76  2  0
 77 76  1  0
 78 77  2  0
 79 78  1  0
 79 74  2  0
 80 77  1  0
 80 81  1  0
 81 86  2  0
 81 82  1  0
 82 83  2  0
 83 84  1  0
 84 88  1  0
 85 84  2  0
 86 85  1  0
 87 86  1  0
 89 90  1  0
 90 93  1  0
 90 92  1  0
 91 89  2  0
 94 95  1  0
 94 69  1  0
 96 94  1  0
M  ISO  4   8 101   9 101  59 100  67 100
M  END
>  <TORSDO>  (85) 
F 28

>  <SCORE>  (85) 
-10.281

>  <name>  (85) 
85

>  <ligand_id>  (85) 
85

>  <original_smiles>  (85) 
[H]c1c([H])c([H])c2c(c1[H])C([H])([H])C([H])([H])C([H])([H])C2([H])N([H])C(=O)C1([H])N(C(=O)C([H])(N([H])C(=O)C([H])(N([H])C([H])([H])[H])C([H])([H])[H])C(C([H])([H])[H])(C([H])([H])[H])C([H])([H])[H])C([H])([H])c2c([H])c(OC([H])([H])C([H])([H])[N+]([H])([H])C([H])([H])C([H])([H])C([H])([H])C([H])([H])[N+]([H])([H])C([H])([H])C([H])([H])C([H])([H])C([H])([H])C([H])([H])N([H])C(=O)N3C([H])([H])C([H])([H])C([H])([H])C([H])(n4nc(-c5c([H])c([H])c(Oc6c([H])c([H])c(F)c([H])c6F)c([H])c5[H])c(C(=O)N([H])[H])c4N([H])[H])C3([H])[H])c([H])c([H])c2C1([H])[H]

>  <smiles>  (85) 
[H]c1c([H])c([H])c2c(c1[H])C([H])([H])C([H])([H])C([H])([H])C2([H])N([H])C(=O)C1([H])N(C(=O)C([H])(N([H])C(=O)C([H])(N([H])C([H])([H])[H])C([H])([H])[H])C(C([H])([H])[H])(C([H])([H])[H])C([H])([H])[H])C([H])([H])c2c([H])c(OC([H])([H])C([H])([H])[N+]([H])([H])C([H])([H])C([H])([H])C([H])([H])C([H])([H])[N+]([H])([H])C([H])([H])C([H])([H])C([H])([H])C([H])([H])C([H])([H])N([H])C(=O)N3C([H])([H])C([H])([H])C([H])([H])C([H])(n4nc(-c5c([H])c([H])c(Oc6c([H])c([H])c(F)c([H])c6F)c([H])c5[H])c(C(=O)N([H])[H])c4N([H])[H])C3([H])[H])c([H])c([H])c2C1([H])[H]

$$$$
86:0:0
     RDKit          3D

 98105  0  0  1  0  0  0  0  0999 V2000
  -23.1510  -24.3050   21.5440 C   0  0  0  0  0  2  0  0  0  0  0  0
  -24.3230  -24.9650   22.2990 C   0  0  0  0  0  0  0  0  0  0  0  0
  -25.5720  -24.7330   21.8590 N   0  0  0  0  0  0  0  0  0  0  0  0
  -24.0980  -25.6400   23.3030 O   0  0  0  0  0  0  0  0  0  0  0  0
  -25.6720  -24.1580   21.0350 H   0  0  0  0  0  0  0  0  0  0  0  0
  -26.7810  -25.2900   22.4670 C   0  0  0  0  0  2  0  0  0  0  0  0
  -28.0900  -24.8710   21.7570 C   0  0  0  0  0  2  0  0  0  0  0  0
  -28.2970  -25.3150   20.2890 C   0  0  0  0  0  2  0  0  0  0  0  0
  -28.3920  -26.7350   20.1190 O   0  0  0  0  0  0  0  0  0  0  0  0
  -24.6110  -31.8750   23.2140 C   0  0  0  0  0  0  0  0  0  0  0  0
  -27.2220  -27.4550   20.0860 C   0  0  0  0  0  0  0  0  0  0  0  0
  -23.4010  -30.5000   21.5500 C   0  0  0  0  0  3  0  0  0  0  0  0
  -24.8420  -28.9720   20.1080 C   0  0  0  0  0  0  0  0  0  0  0  0
  -25.9350  -30.8330   21.3830 C   0  0  0  0  0  2  0  0  0  0  0  0
  -26.0020  -29.4800   20.7080 C   0  0  0  0  0  0  0  0  0  0  0  0
  -27.1940  -28.7290   20.6910 C   0  0  0  0  0  3  0  0  0  0  0  0
  -26.0500  -26.9690   19.4630 C   0  0  0  0  0  3  0  0  0  0  0  0
  -24.8610  -27.7150   19.4810 C   0  0  0  0  0  3  0  0  0  0  0  0
  -23.6080  -29.8400   20.1610 C   0  0  0  0  0  2  0  0  0  0  0  0
  -24.6650  -31.0870   22.1030 N   0  0  0  0  0  0  0  0  0  0  0  0
  -23.5310  -32.1530   23.7510 O   0  0  0  0  0  0  0  0  0  0  0  0
  -22.7380  -29.4730   22.4960 C   0  0  0  0  0  0  0  0  0  0  0  0
  -21.4110  -29.3040   22.3700 N   0  0  0  0  0  0  0  0  0  0  0  0
  -23.4150  -28.8380   23.3070 O   0  0  0  0  0  0  0  0  0  0  0  0
  -20.9200  -29.8760   21.6960 H   0  0  0  0  0  0  0  0  0  0  0  0
  -18.0280  -28.1330   22.8490 C   0  0  0  0  0  0  0  0  0  0  0  0
  -20.5870  -28.3670   23.1330 C   0  0  0  0  0  3  0  0  0  0  0  0
  -20.6780  -26.9410   22.5420 C   0  0  0  0  0  2  0  0  0  0  0  0
  -19.5790  -26.6400   21.5200 C   0  0  0  0  0  2  0  0  0  0  0  0
  -18.1970  -26.7880   22.1620 C   0  0  0  0  0  2  0  0  0  0  0  0
  -19.1520  -28.8810   23.2900 C   0  0  0  0  0  0  0  0  0  0  0  0
  -18.9420  -30.1410   23.8910 C   0  0  0  0  0  3  0  0  0  0  0  0
  -17.6410  -30.6520   24.0550 C   0  0  0  0  0  3  0  0  0  0  0  0
  -16.5320  -29.9000   23.6310 C   0  0  0  0  0  3  0  0  0  0  0  0
  -16.7260  -28.6420   23.0340 C   0  0  0  0  0  3  0  0  0  0  0  0
  -25.9040  -32.4820   23.8490 C   0  0  0  0  0  3  0  0  0  0  0  0
  -26.4360  -31.6490   25.0810 C   0  0  1  0  0  0  0  0  0  0  0  0
  -25.3590  -31.3610   26.1530 C   0  0  0  0  0  1  0  0  0  0  0  0
  -27.0060  -30.2900   24.6080 C   0  0  0  0  0  1  0  0  0  0  0  0
  -27.5980  -32.3990   25.7710 C   0  0  0  0  0  1  0  0  0  0  0  0
  -25.6030  -33.8620   24.2480 N   0  0  0  0  0  0  0  0  0  0  0  0
  -25.9070  -34.9440   23.5200 C   0  0  0  0  0  0  0  0  0  0  0  0
  -26.5530  -34.8850   22.4700 O   0  0  0  0  0  0  0  0  0  0  0  0
  -25.0460  -33.9820   25.0810 H   0  0  0  0  0  0  0  0  0  0  0  0
  -24.1560  -36.7240   23.2640 C   0  0  0  0  0  1  0  0  0  0  0  0
  -25.4180  -36.3100   24.0380 C   0  0  0  0  0  3  0  0  0  0  0  0
  -27.5630  -37.1790   24.8500 C   0  0  0  0  0  1  0  0  0  0  0  0
  -26.4380  -37.3760   23.9400 N   0  0  0  0  0  0  0  0  0  0  0  0
  -26.0310  -38.2880   24.1300 H   0  0  0  0  0  0  0  0  0  0  0  0
  -23.7560  -21.9270   21.6810 C   0  0  0  0  0  0  0  0  0  0  0  0
  -23.5400  -23.0260   20.9520 N   0  0  0  0  0  0  0  0  0  0  0  0
  -23.2450  -21.7520   22.7890 O   0  0  0  0  0  0  0  0  0  0  0  0
  -23.9190  -23.0560   20.0170 H   0  0  0  0  0  0  0  0  0  0  0  0
  -25.4700  -20.2320   21.8290 C   0  0  0  0  0  3  0  0  0  0  0  0
  -24.7770  -21.1000   21.0720 C   0  0  0  0  0  3  0  0  0  0  0  0
  -26.5900  -19.4740   21.3210 C   0  0  0  0  0  3  0  0  0  0  0  0
  -27.3200  -18.6650   22.1050 C   0  0  0  0  0  3  0  0  0  0  0  0
  -28.5040  -17.9820   21.6350 C   0  0  0  0  0  3  0  0  0  0  0  0
  -29.2390  -17.1810   22.4210 C   0  0  0  0  0  3  0  0  0  0  0  0
  -30.5010  -16.4830   21.9620 C   0  0  0  0  0  2  0  0  0  0  0  0
  -30.7320  -14.3440   20.7010 C   0  0  0  0  0  0  0  0  0  0  0  0
  -30.4290  -12.2840   19.3770 C   0  0  0  0  0  2  0  0  0  0  0  0
  -29.4850  -12.5410   18.1860 C   0  0  0  0  0  2  0  0  0  0  0  0
  -28.0070  -12.3970   18.5990 C   0  0  0  0  0  2  0  0  0  0  0  0
  -27.6720  -13.1920   19.8890 C   0  0  0  0  0  3  0  0  0  0  0  0
  -28.7080  -12.8760   20.9890 C   0  0  0  0  0  2  0  0  0  0  0  0
  -30.0520  -13.1950   20.4650 N   0  0  0  0  0  0  0  0  0  0  0  0
  -31.7470  -14.6860   20.0850 O   0  0  0  0  0  0  0  0  0  0  0  0
  -30.1880  -15.0980   21.6610 N   0  0  0  0  0  0  0  0  0  0  0  0
  -29.3880  -14.6960   22.1280 H   0  0  0  0  0  0  0  0  0  0  0  0
  -25.2640  -13.8140   20.5660 C   0  0  0  0  0  0  0  0  0  0  0  0
  -24.1870  -13.0430   20.9140 C   0  0  0  0  0  0  0  0  0  0  0  0
  -24.6400  -11.6900   20.8710 C   0  0  0  0  0  0  0  0  0  0  0  0
  -26.3080  -12.9270   20.3400 N   0  0  0  0  0  0  0  0  0  0  0  0
  -25.9320  -11.6440   20.5750 N   0  0  0  0  0  0  0  0  0  0  0  0
  -23.9060  -10.4300   21.0400 C   0  0  0  0  0  0  0  0  0  0  0  0
  -24.3630   -9.4220   21.9180 C   0  0  0  0  0  3  0  0  0  0  0  0
  -23.6300   -8.2250   22.0750 C   0  0  0  0  0  3  0  0  0  0  0  0
  -22.4280   -8.0300   21.3550 C   0  0  0  0  0  0  0  0  0  0  0  0
  -21.9910   -9.0260   20.4650 C   0  0  0  0  0  3  0  0  0  0  0  0
  -22.7230  -10.2140   20.3050 C   0  0  0  0  0  3  0  0  0  0  0  0
  -21.6630   -6.8900   21.4250 O   0  0  0  0  0  0  0  0  0  0  0  0
  -21.6850   -6.0750   22.5280 C   0  0  0  0  0  0  0  0  0  0  0  0
  -21.4020   -6.5650   23.8230 C   0  0  0  0  0  3  0  0  0  0  0  0
  -21.3660   -5.6800   24.9180 C   0  0  0  0  0  3  0  0  0  0  0  0
  -21.6030   -4.3060   24.7220 C   0  0  0  0  0  0  0  0  0  0  0  0
  -21.8820   -3.8160   23.4340 C   0  0  0  0  0  3  0  0  0  0  0  0
  -21.9200   -4.6980   22.3400 C   0  0  0  0  0  0  0  0  0  0  0  0
  -22.1660   -4.2180   21.0980 F   0  0  0  0  0  0  0  0  0  0  0  0
  -21.5620   -3.4540   25.7730 F   0  0  0  0  0  0  0  0  0  0  0  0
  -22.7900  -13.5250   21.1790 C   0  0  0  0  0  0  0  0  0  0  0  0
  -22.0540  -12.8260   22.0380 N   0  0  0  0  0  0  0  0  0  0  0  0
  -22.3570  -14.5550   20.6650 O   0  0  0  0  0  0  0  0  0  0  0  0
  -22.4180  -11.9940   22.4770 H   0  0  0  0  0  0  0  0  0  0  0  0
  -21.1160  -13.1300   22.2590 H   0  0  0  0  0  0  0  0  0  0  0  0
  -25.4400  -15.1850   20.4110 N   0  0  0  0  0  0  0  0  0  0  0  0
  -24.6840  -15.8480   20.5470 H   0  0  0  0  0  0  0  0  0  0  0  0
  -26.3140  -15.6280   20.1570 H   0  0  0  0  0  0  0  0  0  0  0  0
  1  2  1  0
  2  4  2  0
  3  2  1  0
  3  6  1  0
  5  3  1  0
  7  6  1  0
  8  7  1  0
  9  8  1  0
 10 21  2  0
 11  9  1  0
 11 16  1  0
 12 20  1  0
 12 22  1  0
 13 19  1  0
 13 15  1  0
 14 20  1  0
 15 14  1  0
 16 15  2  0
 17 18  1  0
 17 11  2  0
 18 13  2  0
 19 12  1  0
 20 10  1  0
 22 24  2  0
 23 22  1  0
 25 23  1  0
 26 35  2  0
 26 31  1  0
 27 23  1  0
 27 31  1  0
 28 27  1  0
 29 30  1  0
 29 28  1  0
 30 26  1  0
 31 32  2  0
 32 33  1  0
 34 33  2  0
 35 34  1  0
 36 10  1  0
 36 41  1  0
 36 37  1  0
 37 40  1  1
 37 38  1  0
 39 37  1  0
 41 44  1  0
 42 46  1  0
 42 41  1  0
 43 42  2  0
 46 45  1  0
 48 46  1  0
 48 49  1  0
 48 47  1  0
 50 52  2  0
 51  1  1  0
 51 50  1  0
 53 51  1  0
 55 50  1  0
 55 54  2  0
 56 54  1  0
 56 57  2  0
 58 57  1  0
 58 59  2  0
 60 59  1  0
 61 69  1  0
 62 67  1  0
 63 64  1  0
 63 62  1  0
 65 64  1  0
 65 74  1  0
 65 66  1  0
 67 61  1  0
 67 66  1  0
 68 61  2  0
 69 60  1  0
 69 70  1  0
 71 72  2  0
 72 91  1  0
 73 72  1  0
 73 76  1  0
 74 71  1  0
 74 75  1  0
 75 73  2  0
 76 77  1  0
 77 78  2  0
 79 82  1  0
 79 78  1  0
 80 79  2  0
 81 80  1  0
 81 76  2  0
 82 83  1  0
 83 84  1  0
 84 85  2  0
 86 85  1  0
 86 90  1  0
 87 86  2  0
 88 83  2  0
 88 87  1  0
 89 88  1  0
 91 92  1  0
 92 95  1  0
 92 94  1  0
 93 91  2  0
 96 97  1  0
 96 71  1  0
 98 96  1  0
M  ISO  4   8 101   9 101  61 100  69 100
M  END
>  <TORSDO>  (86) 
F 25

>  <SCORE>  (86) 
20.538

>  <name>  (86) 
86

>  <ligand_id>  (86) 
86

>  <original_smiles>  (86) 
[H]C(C(=O)N([H])C([H])([H])C(=O)N([H])C([H])([H])C([H])([H])C([H])([H])Oc1c([H])c([H])c2c(c1[H])C([H])([H])N(C(=O)C([H])(N([H])C(=O)C([H])(N([H])C([H])([H])[H])C([H])([H])[H])C(C([H])([H])[H])(C([H])([H])[H])C([H])([H])[H])C([H])(C(=O)N([H])C1([H])c3c([H])c([H])c([H])c([H])c3C([H])([H])C([H])([H])C1([H])[H])C2([H])[H])=C([H])C([H])=C([H])C([H])=C([H])C([H])([H])N([H])C(=O)N1C([H])([H])C([H])([H])C([H])([H])C([H])(n2nc(-c3c([H])c([H])c(Oc4c([H])c([H])c(F)c([H])c4F)c([H])c3[H])c(C(=O)N([H])[H])c2N([H])[H])C1([H])[H]

>  <smiles>  (86) 
[H]C(C(=O)N([H])C([H])([H])C(=O)N([H])C([H])([H])C([H])([H])C([H])([H])Oc1c([H])c([H])c2c(c1[H])C([H])([H])N(C(=O)C([H])(N([H])C(=O)C([H])(N([H])C([H])([H])[H])C([H])([H])[H])C(C([H])([H])[H])(C([H])([H])[H])C([H])([H])[H])C([H])(C(=O)N([H])C1([H])c3c([H])c([H])c([H])c([H])c3C([H])([H])C([H])([H])C1([H])[H])C2([H])[H])=C([H])C([H])=C([H])C([H])=C([H])C([H])([H])N([H])C(=O)N1C([H])([H])C([H])([H])C([H])([H])C([H])(n2nc(-c3c([H])c([H])c(Oc4c([H])c([H])c(F)c([H])c4F)c([H])c3[H])c(C(=O)N([H])[H])c2N([H])[H])C1([H])[H]

$$$$
87:0:0
     RDKit          3D

 91 98  0  0  1  0  0  0  0  0999 V2000
  -28.9450  -22.9550   20.8090 N   0  0  0  0  0  4  0  0  0  0  0  0
  -28.6080  -22.9470   21.7590 H   0  0  0  0  0  0  0  0  0  0  0  0
  -29.9520  -23.0010   20.8700 H   0  0  0  0  0  0  0  0  0  0  0  0
  -28.6330  -21.6190   20.2130 C   0  0  0  0  0  2  0  0  0  0  0  0
  -29.5590  -20.4900   20.7330 C   0  0  0  0  0  0  0  0  0  0  0  0
  -29.2280  -19.1990   20.5040 N   0  0  0  0  0  0  0  0  0  0  0  0
  -30.5940  -20.7990   21.3250 O   0  0  0  0  0  0  0  0  0  0  0  0
  -28.3650  -19.0180   20.0090 H   0  0  0  0  0  0  0  0  0  0  0  0
  -30.0310  -18.0240   20.9050 C   0  0  0  0  0  2  0  0  0  0  0  0
  -29.3980  -16.6550   20.5120 C   0  0  0  0  0  2  0  0  0  0  0  0
  -30.6650  -14.5090   20.4850 C   0  0  0  0  0  0  0  0  0  0  0  0
  -30.3570  -12.3500   19.3220 C   0  0  0  0  0  2  0  0  0  0  0  0
  -29.4110  -12.5240   18.1170 C   0  0  0  0  0  2  0  0  0  0  0  0
  -27.9410  -12.3690   18.5540 C   0  0  0  0  0  2  0  0  0  0  0  0
  -27.5980  -13.2360   19.7950 C   0  0  0  0  0  3  0  0  0  0  0  0
  -28.6500  -13.0470   20.9110 C   0  0  0  0  0  2  0  0  0  0  0  0
  -29.9740  -13.3450   20.3370 N   0  0  0  0  0  0  0  0  0  0  0  0
  -31.7770  -14.6930   19.9880 O   0  0  0  0  0  0  0  0  0  0  0  0
  -30.0570  -15.5010   21.1620 N   0  0  0  0  0  0  0  0  0  0  0  0
  -30.6610  -15.8320   21.9030 H   0  0  0  0  0  0  0  0  0  0  0  0
  -25.2050  -13.8530   20.4930 C   0  0  0  0  0  0  0  0  0  0  0  0
  -24.1290  -13.0850   20.8540 C   0  0  0  0  0  0  0  0  0  0  0  0
  -24.5860  -11.7330   20.8330 C   0  0  0  0  0  0  0  0  0  0  0  0
  -26.2450  -12.9680   20.2700 N   0  0  0  0  0  0  0  0  0  0  0  0
  -25.8780  -11.6860   20.5320 N   0  0  0  0  0  0  0  0  0  0  0  0
  -23.8550  -10.4740   21.0220 C   0  0  0  0  0  0  0  0  0  0  0  0
  -24.2950   -9.4970   21.9420 C   0  0  0  0  0  3  0  0  0  0  0  0
  -23.5660   -8.3030   22.1200 C   0  0  0  0  0  3  0  0  0  0  0  0
  -22.3830   -8.0770   21.3780 C   0  0  0  0  0  0  0  0  0  0  0  0
  -21.9620   -9.0410   20.4460 C   0  0  0  0  0  3  0  0  0  0  0  0
  -22.6910  -10.2280   20.2660 C   0  0  0  0  0  3  0  0  0  0  0  0
  -21.6230   -6.9350   21.4670 O   0  0  0  0  0  0  0  0  0  0  0  0
  -21.6010   -6.1710   22.6080 C   0  0  0  0  0  0  0  0  0  0  0  0
  -21.2290   -6.7110   23.8580 C   0  0  0  0  0  3  0  0  0  0  0  0
  -21.1490   -5.8770   24.9910 C   0  0  0  0  0  3  0  0  0  0  0  0
  -21.4340   -4.5030   24.8750 C   0  0  0  0  0  0  0  0  0  0  0  0
  -21.8010   -3.9620   23.6290 C   0  0  0  0  0  3  0  0  0  0  0  0
  -21.8820   -4.7940   22.4990 C   0  0  0  0  0  0  0  0  0  0  0  0
  -22.2140   -4.2650   21.2970 F   0  0  0  0  0  0  0  0  0  0  0  0
  -21.3530   -3.6980   25.9590 F   0  0  0  0  0  0  0  0  0  0  0  0
  -22.7330  -13.5690   21.1160 C   0  0  0  0  0  0  0  0  0  0  0  0
  -22.0000  -12.8770   21.9830 N   0  0  0  0  0  0  0  0  0  0  0  0
  -22.3010  -14.5940   20.5900 O   0  0  0  0  0  0  0  0  0  0  0  0
  -22.3630  -12.0450   22.4250 H   0  0  0  0  0  0  0  0  0  0  0  0
  -21.0670  -13.1860   22.2110 H   0  0  0  0  0  0  0  0  0  0  0  0
  -25.3830  -15.2220   20.3180 N   0  0  0  0  0  0  0  0  0  0  0  0
  -24.6390  -15.8990   20.4430 H   0  0  0  0  0  0  0  0  0  0  0  0
  -26.2570  -15.6450   20.0310 H   0  0  0  0  0  0  0  0  0  0  0  0
  -28.4170  -24.1590   20.0780 C   0  0  0  0  0  2  0  0  0  0  0  0
  -28.5940  -25.5060   20.8520 C   0  0  0  0  0  2  0  0  0  0  0  0
  -28.4310  -26.7130   20.0720 O   0  0  0  0  0  0  0  0  0  0  0  0
  -24.6110  -31.8850   23.2400 C   0  0  0  0  0  0  0  0  0  0  0  0
  -27.2440  -27.4160   20.1660 C   0  0  0  0  0  0  0  0  0  0  0  0
  -23.3970  -30.4800   21.6060 C   0  0  0  0  0  3  0  0  0  0  0  0
  -24.8450  -28.9280   20.1880 C   0  0  0  0  0  0  0  0  0  0  0  0
  -25.9200  -30.8330   21.3930 C   0  0  0  0  0  2  0  0  0  0  0  0
  -26.0070  -29.4550   20.7680 C   0  0  0  0  0  0  0  0  0  0  0  0
  -27.2080  -28.7090   20.7480 C   0  0  0  0  0  3  0  0  0  0  0  0
  -26.0670  -26.9020   19.5840 C   0  0  0  0  0  3  0  0  0  0  0  0
  -24.8720  -27.6520   19.5940 C   0  0  0  0  0  3  0  0  0  0  0  0
  -23.6040  -29.7910   20.2310 C   0  0  0  0  0  2  0  0  0  0  0  0
  -24.6610  -31.0810   22.1400 N   0  0  0  0  0  0  0  0  0  0  0  0
  -23.5320  -32.1590   23.7840 O   0  0  0  0  0  0  0  0  0  0  0  0
  -22.7460  -29.4650   22.5730 C   0  0  0  0  0  0  0  0  0  0  0  0
  -21.4200  -29.2870   22.4540 N   0  0  0  0  0  0  0  0  0  0  0  0
  -23.4330  -28.8410   23.3880 O   0  0  0  0  0  0  0  0  0  0  0  0
  -20.9270  -29.8360   21.7630 H   0  0  0  0  0  0  0  0  0  0  0  0
  -18.0490  -28.0850   22.9650 C   0  0  0  0  0  0  0  0  0  0  0  0
  -20.6070  -28.3490   23.2290 C   0  0  0  0  0  3  0  0  0  0  0  0
  -20.7130  -26.9170   22.6530 C   0  0  0  0  0  2  0  0  0  0  0  0
  -19.6050  -26.5910   21.6440 C   0  0  0  0  0  2  0  0  0  0  0  0
  -18.2250  -26.7340   22.2930 C   0  0  0  0  0  2  0  0  0  0  0  0
  -19.1680  -28.8490   23.3930 C   0  0  0  0  0  0  0  0  0  0  0  0
  -18.9490  -30.1150   23.9810 C   0  0  0  0  0  3  0  0  0  0  0  0
  -17.6430  -30.6150   24.1470 C   0  0  0  0  0  3  0  0  0  0  0  0
  -16.5390  -29.8480   23.7370 C   0  0  0  0  0  3  0  0  0  0  0  0
  -16.7440  -28.5830   23.1540 C   0  0  0  0  0  3  0  0  0  0  0  0
  -25.8990  -32.5180   23.8520 C   0  0  0  0  0  3  0  0  0  0  0  0
  -25.5890  -33.9130   24.1910 N   0  0  0  0  0  0  0  0  0  0  0  0
  -25.9110  -34.9700   23.4320 C   0  0  0  0  0  0  0  0  0  0  0  0
  -26.5720  -34.8730   22.3940 O   0  0  0  0  0  0  0  0  0  0  0  0
  -25.0010  -34.0640   24.9980 H   0  0  0  0  0  0  0  0  0  0  0  0
  -24.1710  -36.7560   23.1060 C   0  0  0  0  0  1  0  0  0  0  0  0
  -25.4240  -36.3550   23.8990 C   0  0  0  0  0  3  0  0  0  0  0  0
  -27.5670  -37.2450   24.7020 C   0  0  0  0  0  1  0  0  0  0  0  0
  -26.4510  -37.4130   23.7760 N   0  0  0  0  0  0  0  0  0  0  0  0
  -26.0410  -38.3310   23.9340 H   0  0  0  0  0  0  0  0  0  0  0  0
  -26.4320  -31.7410   25.1180 C   0  0  1  0  0  0  0  0  0  0  0  0
  -25.3500  -31.4970   26.1950 C   0  0  0  0  0  1  0  0  0  0  0  0
  -27.0110  -30.3670   24.7100 C   0  0  0  0  0  1  0  0  0  0  0  0
  -27.5880  -32.5340   25.7720 C   0  0  0  0  0  1  0  0  0  0  0  0
  1  3  1  0
  1  2  1  0
  4  5  1  0
  4  1  1  0
  5  7  2  0
  6  5  1  0
  6  9  1  0
  8  6  1  0
 10  9  1  0
 10 19  1  0
 11 19  1  0
 12 17  1  0
 13 14  1  0
 13 12  1  0
 15 14  1  0
 15 24  1  0
 15 16  1  0
 17 11  1  0
 17 16  1  0
 18 11  2  0
 19 20  1  0
 21 22  2  0
 22 41  1  0
 23 22  1  0
 23 26  1  0
 24 21  1  0
 24 25  1  0
 25 23  2  0
 26 27  1  0
 27 28  2  0
 29 32  1  0
 29 28  1  0
 30 29  2  0
 31 30  1  0
 31 26  2  0
 32 33  1  0
 33 34  1  0
 34 35  2  0
 36 35  1  0
 36 40  1  0
 37 36  2  0
 38 33  2  0
 38 37  1  0
 39 38  1  0
 41 42  1  0
 42 45  1  0
 42 44  1  0
 43 41  2  0
 46 47  1  0
 46 21  1  0
 48 46  1  0
 49  1  1  0
 49 50  1  0
 51 53  1  0
 51 50  1  0
 52 63  2  0
 53 58  1  0
 54 62  1  0
 54 64  1  0
 55 61  1  0
 55 57  1  0
 56 62  1  0
 57 56  1  0
 58 57  2  0
 59 60  1  0
 59 53  2  0
 60 55  2  0
 61 54  1  0
 62 52  1  0
 64 66  2  0
 65 64  1  0
 67 65  1  0
 68 77  2  0
 68 73  1  0
 69 65  1  0
 69 73  1  0
 70 69  1  0
 71 72  1  0
 71 70  1  0
 72 68  1  0
 73 74  2  0
 74 75  1  0
 76 75  2  0
 77 76  1  0
 78 52  1  0
 78 79  1  0
 78 88  1  0
 79 82  1  0
 80 84  1  0
 80 79  1  0
 81 80  2  0
 84 83  1  0
 86 84  1  0
 86 87  1  0
 86 85  1  0
 88 91  1  1
 88 89  1  0
 90 88  1  0
M  ISO  4  11 100  19 100  50 101  51 101
M  END
>  <TORSDO>  (87) 
F 22

>  <SCORE>  (87) 
-13.132

>  <name>  (87) 
87

>  <ligand_id>  (87) 
87

>  <original_smiles>  (87) 
[H]c1c([H])c([H])c2c(c1[H])C([H])([H])C([H])([H])C([H])([H])C2([H])N([H])C(=O)C1([H])N(C(=O)C([H])(N([H])C(=O)C([H])(N([H])C([H])([H])[H])C([H])([H])[H])C(C([H])([H])[H])(C([H])([H])[H])C([H])([H])[H])C([H])([H])c2c([H])c(OC([H])([H])C([H])([H])[N+]([H])([H])C([H])([H])C(=O)N([H])C([H])([H])C([H])([H])N([H])C(=O)N3C([H])([H])C([H])([H])C([H])([H])C([H])(n4nc(-c5c([H])c([H])c(Oc6c([H])c([H])c(F)c([H])c6F)c([H])c5[H])c(C(=O)N([H])[H])c4N([H])[H])C3([H])[H])c([H])c([H])c2C1([H])[H]

>  <smiles>  (87) 
[H]c1c([H])c([H])c2c(c1[H])C([H])([H])C([H])([H])C([H])([H])C2([H])N([H])C(=O)C1([H])N(C(=O)C([H])(N([H])C(=O)C([H])(N([H])C([H])([H])[H])C([H])([H])[H])C(C([H])([H])[H])(C([H])([H])[H])C([H])([H])[H])C([H])([H])c2c([H])c(OC([H])([H])C([H])([H])[N+]([H])([H])C([H])([H])C(=O)N([H])C([H])([H])C([H])([H])N([H])C(=O)N3C([H])([H])C([H])([H])C([H])([H])C([H])(n4nc(-c5c([H])c([H])c(Oc6c([H])c([H])c(F)c([H])c6F)c([H])c5[H])c(C(=O)N([H])[H])c4N([H])[H])C3([H])[H])c([H])c([H])c2C1([H])[H]

$$$$
88:0:0
     RDKit          3D

 98105  0  0  1  0  0  0  0  0999 V2000
  -31.1760  -18.7130   17.3630 C   0  0  0  0  0  2  0  0  0  0  0  0
  -30.9320  -19.7750   18.4670 C   0  0  0  0  0  2  0  0  0  0  0  0
  -29.9480  -20.8410   18.1370 N   0  0  0  0  0  4  0  0  0  0  0  0
  -29.0510  -20.4250   17.9400 H   0  0  0  0  0  0  0  0  0  0  0  0
  -30.2530  -21.3110   17.3000 H   0  0  0  0  0  0  0  0  0  0  0  0
  -29.7820  -21.8410   19.2300 C   0  0  0  0  0  2  0  0  0  0  0  0
  -29.5130  -23.3000   18.7670 C   0  0  0  0  0  2  0  0  0  0  0  0
  -29.2860  -24.2980   19.9460 C   0  0  0  0  0  2  0  0  0  0  0  0
  -29.3530  -25.8010   19.5450 C   0  0  0  0  0  2  0  0  0  0  0  0
  -28.9830  -26.7090   20.6090 O   0  0  0  0  0  0  0  0  0  0  0  0
  -24.7990  -31.8750   23.3170 C   0  0  0  0  0  0  0  0  0  0  0  0
  -27.7710  -27.3790   20.5520 C   0  0  0  0  0  0  0  0  0  0  0  0
  -23.7430  -30.3680   21.6630 C   0  0  0  0  0  3  0  0  0  0  0  0
  -25.3270  -28.8100   20.4040 C   0  0  0  0  0  0  0  0  0  0  0  0
  -26.2700  -30.7770   21.6240 C   0  0  0  0  0  2  0  0  0  0  0  0
  -26.4310  -29.3830   21.0460 C   0  0  0  0  0  0  0  0  0  0  0  0
  -27.6500  -28.6670   21.1330 C   0  0  0  0  0  3  0  0  0  0  0  0
  -26.6380  -26.8170   19.9260 C   0  0  0  0  0  3  0  0  0  0  0  0
  -25.4220  -27.5230   19.8510 C   0  0  0  0  0  3  0  0  0  0  0  0
  -24.0620  -29.6330   20.3340 C   0  0  0  0  0  2  0  0  0  0  0  0
  -24.9510  -31.0260   22.2580 N   0  0  0  0  0  0  0  0  0  0  0  0
  -23.6770  -32.1360   23.7700 O   0  0  0  0  0  0  0  0  0  0  0  0
  -23.0550  -29.3710   22.6250 C   0  0  0  0  0  0  0  0  0  0  0  0
  -21.7460  -29.1500   22.4210 N   0  0  0  0  0  0  0  0  0  0  0  0
  -23.6990  -28.7940   23.5040 O   0  0  0  0  0  0  0  0  0  0  0  0
  -21.2870  -29.6670   21.6840 H   0  0  0  0  0  0  0  0  0  0  0  0
  -18.3720  -27.9020   22.7630 C   0  0  0  0  0  0  0  0  0  0  0  0
  -20.9040  -28.2220   23.1750 C   0  0  0  0  0  3  0  0  0  0  0  0
  -21.0670  -26.7770   22.6550 C   0  0  0  0  0  2  0  0  0  0  0  0
  -20.0330  -26.3980   21.5890 C   0  0  0  0  0  2  0  0  0  0  0  0
  -18.6140  -26.5350   22.1470 C   0  0  0  0  0  2  0  0  0  0  0  0
  -19.4490  -28.7010   23.2310 C   0  0  0  0  0  0  0  0  0  0  0  0
  -19.1740  -29.9810   23.7610 C   0  0  0  0  0  3  0  0  0  0  0  0
  -17.8530  -30.4610   23.8330 C   0  0  0  0  0  3  0  0  0  0  0  0
  -16.7890  -29.6600   23.3850 C   0  0  0  0  0  3  0  0  0  0  0  0
  -17.0490  -28.3830   22.8550 C   0  0  0  0  0  3  0  0  0  0  0  0
  -26.0210  -32.5680   23.9920 C   0  0  0  0  0  3  0  0  0  0  0  0
  -25.6460  -33.9610   24.2610 N   0  0  0  0  0  0  0  0  0  0  0  0
  -25.9830  -35.0030   23.4900 C   0  0  0  0  0  0  0  0  0  0  0  0
  -26.7110  -34.8950   22.4980 O   0  0  0  0  0  0  0  0  0  0  0  0
  -25.0020  -34.1160   25.0220 H   0  0  0  0  0  0  0  0  0  0  0  0
  -24.2070  -36.7150   22.9940 C   0  0  0  0  0  1  0  0  0  0  0  0
  -25.4210  -36.3850   23.8770 C   0  0  0  0  0  3  0  0  0  0  0  0
  -27.4820  -37.3730   24.7740 C   0  0  0  0  0  1  0  0  0  0  0  0
  -26.4190  -37.4750   23.7790 N   0  0  0  0  0  0  0  0  0  0  0  0
  -25.9730  -38.3830   23.8840 H   0  0  0  0  0  0  0  0  0  0  0  0
  -26.4900  -31.8480   25.3150 C   0  0  1  0  0  0  0  0  0  0  0  0
  -25.3440  -31.5770   26.3170 C   0  0  0  0  0  1  0  0  0  0  0  0
  -27.1660  -30.4940   24.9930 C   0  0  0  0  0  1  0  0  0  0  0  0
  -27.5580  -32.7100   26.0300 C   0  0  0  0  0  1  0  0  0  0  0  0
  -32.3500  -17.7650   17.7200 C   0  0  0  0  0  2  0  0  0  0  0  0
  -32.7310  -16.7710   16.5980 C   0  0  0  0  0  2  0  0  0  0  0  0
  -34.0760  -16.0480   16.8440 C   0  0  0  0  0  2  0  0  0  0  0  0
  -33.9280  -14.8390   17.6840 N   0  0  0  0  0  4  0  0  0  0  0  0
  -34.1010  -14.0280   17.1100 H   0  0  0  0  0  0  0  0  0  0  0  0
  -32.9600  -14.7580   17.9920 H   0  0  0  0  0  0  0  0  0  0  0  0
  -34.7960  -14.7680   18.8800 C   0  0  0  0  0  2  0  0  0  0  0  0
  -34.1090  -13.9840   20.0150 C   0  0  0  0  0  2  0  0  0  0  0  0
  -33.1180  -14.8660   20.8050 C   0  0  0  0  0  2  0  0  0  0  0  0
  -32.0600  -14.0980   21.6370 C   0  0  0  0  0  2  0  0  0  0  0  0
  -30.5290  -13.5870   19.6390 C   0  0  0  0  0  0  0  0  0  0  0  0
  -29.5930  -11.9780   18.0490 C   0  0  0  0  0  2  0  0  0  0  0  0
  -28.4620  -12.4900   17.1480 C   0  0  0  0  0  2  0  0  0  0  0  0
  -27.1010  -12.3550   17.8530 C   0  0  0  0  0  2  0  0  0  0  0  0
  -27.1090  -12.9760   19.2750 C   0  0  0  0  0  3  0  0  0  0  0  0
  -28.3260  -12.4900   20.1030 C   0  0  0  0  0  2  0  0  0  0  0  0
  -29.5700  -12.6860   19.3350 N   0  0  0  0  0  0  0  0  0  0  0  0
  -31.1810  -14.1930   18.7850 O   0  0  0  0  0  0  0  0  0  0  0  0
  -30.9180  -13.5050   20.9180 N   0  0  0  0  0  0  0  0  0  0  0  0
  -30.3540  -12.8740   21.4710 H   0  0  0  0  0  0  0  0  0  0  0  0
  -24.8610  -13.5990   20.3870 C   0  0  0  0  0  0  0  0  0  0  0  0
  -23.8600  -12.8350   20.9190 C   0  0  0  0  0  0  0  0  0  0  0  0
  -24.2870  -11.4780   20.7830 C   0  0  0  0  0  0  0  0  0  0  0  0
  -25.8440  -12.7110   19.9690 N   0  0  0  0  0  0  0  0  0  0  0  0
  -25.5030  -11.4270   20.2590 N   0  0  0  0  0  0  0  0  0  0  0  0
  -23.5830  -10.2200   21.0740 C   0  0  0  0  0  0  0  0  0  0  0  0
  -24.1240   -9.2530   21.9470 C   0  0  0  0  0  3  0  0  0  0  0  0
  -23.4150   -8.0620   22.2210 C   0  0  0  0  0  3  0  0  0  0  0  0
  -22.1520   -7.8310   21.6230 C   0  0  0  0  0  0  0  0  0  0  0  0
  -21.6330   -8.7900   20.7340 C   0  0  0  0  0  3  0  0  0  0  0  0
  -22.3410   -9.9700   20.4600 C   0  0  0  0  0  3  0  0  0  0  0  0
  -21.4020   -6.6930   21.8080 O   0  0  0  0  0  0  0  0  0  0  0  0
  -21.4840   -5.9600   22.9650 C   0  0  0  0  0  0  0  0  0  0  0  0
  -21.2020   -6.5220   24.2290 C   0  0  0  0  0  3  0  0  0  0  0  0
  -21.2310   -5.7130   25.3830 C   0  0  0  0  0  3  0  0  0  0  0  0
  -21.5340   -4.3430   25.2760 C   0  0  0  0  0  0  0  0  0  0  0  0
  -21.8120   -3.7820   24.0160 C   0  0  0  0  0  3  0  0  0  0  0  0
  -21.7840   -4.5860   22.8670 C   0  0  0  0  0  0  0  0  0  0  0  0
  -22.0270   -4.0340   21.6560 F   0  0  0  0  0  0  0  0  0  0  0  0
  -21.5600   -3.5640   26.3840 F   0  0  0  0  0  0  0  0  0  0  0  0
  -22.5350  -13.3180   21.4330 C   0  0  0  0  0  0  0  0  0  0  0  0
  -21.9570  -12.6150   22.4000 N   0  0  0  0  0  0  0  0  0  0  0  0
  -22.0270  -14.3600   21.0120 O   0  0  0  0  0  0  0  0  0  0  0  0
  -22.3820  -11.7750   22.7660 H   0  0  0  0  0  0  0  0  0  0  0  0
  -21.0730  -12.9200   22.7770 H   0  0  0  0  0  0  0  0  0  0  0  0
  -25.0180  -14.9720   20.2100 N   0  0  0  0  0  0  0  0  0  0  0  0
  -24.3070  -15.6460   20.4720 H   0  0  0  0  0  0  0  0  0  0  0  0
  -25.8210  -15.4080   19.7740 H   0  0  0  0  0  0  0  0  0  0  0  0
  1 51  1  0
  1  2  1  0
  3  2  1  0
  3  6  1  0
  4  3  1  0
  5  3  1  0
  7  6  1  0
  7  8  1  0
  9  8  1  0
  9 10  1  0
 11 22  2  0
 12 10  1  0
 12 17  1  0
 13 21  1  0
 13 23  1  0
 14 16  1  0
 15 21  1  0
 16 17  2  0
 16 15  1  0
 18 12  2  0
 19 18  1  0
 19 14  2  0
 20 14  1  0
 20 13  1  0
 21 11  1  0
 23 25  2  0
 24 23  1  0
 26 24  1  0
 27 36  2  0
 27 32  1  0
 28 24  1  0
 28 32  1  0
 29 28  1  0
 30 31  1  0
 30 29  1  0
 31 27  1  0
 32 33  2  0
 33 34  1  0
 35 34  2  0
 36 35  1  0
 37 11  1  0
 37 38  1  0
 37 47  1  0
 38 41  1  0
 39 43  1  0
 39 38  1  0
 40 39  2  0
 43 42  1  0
 45 43  1  0
 45 46  1  0
 45 44  1  0
 47 50  1  1
 47 48  1  0
 49 47  1  0
 52 53  1  0
 52 51  1  0
 53 54  1  0
 54 56  1  0
 54 57  1  0
 55 54  1  0
 57 58  1  0
 58 59  1  0
 59 60  1  0
 61 69  1  0
 62 67  1  0
 63 64  1  0
 63 62  1  0
 65 64  1  0
 65 74  1  0
 65 66  1  0
 67 61  1  0
 67 66  1  0
 68 61  2  0
 69 70  1  0
 69 60  1  0
 71 72  2  0
 72 91  1  0
 73 72  1  0
 73 76  1  0
 74 75  1  0
 74 71  1  0
 75 73  2  0
 76 77  1  0
 77 78  2  0
 79 82  1  0
 79 78  1  0
 80 79  2  0
 81 80  1  0
 81 76  2  0
 82 83  1  0
 83 84  1  0
 84 85  2  0
 86 85  1  0
 86 90  1  0
 87 86  2  0
 88 83  2  0
 88 87  1  0
 89 88  1  0
 91 92  1  0
 92 94  1  0
 92 95  1  0
 93 91  2  0
 96 71  1  0
 96 97  1  0
 98 96  1  0
M  ISO  4   9 101  10 101  61 100  69 100
M  END
>  <TORSDO>  (88) 
F 30

>  <SCORE>  (88) 
-8.185

>  <name>  (88) 
88

>  <ligand_id>  (88) 
88

>  <original_smiles>  (88) 
[H]c1c([H])c([H])c2c(c1[H])C([H])([H])C([H])([H])C([H])([H])C2([H])N([H])C(=O)C1([H])N(C(=O)C([H])(N([H])C(=O)C([H])(N([H])C([H])([H])[H])C([H])([H])[H])C(C([H])([H])[H])(C([H])([H])[H])C([H])([H])[H])C([H])([H])c2c([H])c(OC([H])([H])C([H])([H])C([H])([H])C([H])([H])[N+]([H])([H])C([H])([H])C([H])([H])C([H])([H])C([H])([H])C([H])([H])[N+]([H])([H])C([H])([H])C([H])([H])C([H])([H])C([H])([H])N([H])C(=O)N3C([H])([H])C([H])([H])C([H])([H])C([H])(n4nc(-c5c([H])c([H])c(Oc6c([H])c([H])c(F)c([H])c6F)c([H])c5[H])c(C(=O)N([H])[H])c4N([H])[H])C3([H])[H])c([H])c([H])c2C1([H])[H]

>  <smiles>  (88) 
[H]c1c([H])c([H])c2c(c1[H])C([H])([H])C([H])([H])C([H])([H])C2([H])N([H])C(=O)C1([H])N(C(=O)C([H])(N([H])C(=O)C([H])(N([H])C([H])([H])[H])C([H])([H])[H])C(C([H])([H])[H])(C([H])([H])[H])C([H])([H])[H])C([H])([H])c2c([H])c(OC([H])([H])C([H])([H])C([H])([H])C([H])([H])[N+]([H])([H])C([H])([H])C([H])([H])C([H])([H])C([H])([H])C([H])([H])[N+]([H])([H])C([H])([H])C([H])([H])C([H])([H])C([H])([H])N([H])C(=O)N3C([H])([H])C([H])([H])C([H])([H])C([H])(n4nc(-c5c([H])c([H])c(Oc6c([H])c([H])c(F)c([H])c6F)c([H])c5[H])c(C(=O)N([H])[H])c4N([H])[H])C3([H])[H])c([H])c([H])c2C1([H])[H]

$$$$
89:0:0
     RDKit          3D

 93100  0  0  1  0  0  0  0  0999 V2000
  -31.3570  -24.1210   18.9390 C   0  0  0  0  0  0  0  0  0  0  0  0
  -30.8360  -25.0350   19.7700 N   0  0  0  0  0  0  0  0  0  0  0  0
  -32.3010  -24.4250   18.2080 O   0  0  0  0  0  0  0  0  0  0  0  0
  -31.2500  -25.9570   19.7360 H   0  0  0  0  0  0  0  0  0  0  0  0
  -29.7280  -24.8730   20.7090 C   0  0  0  0  0  2  0  0  0  0  0  0
  -28.4040  -25.3740   20.1190 C   0  0  0  0  0  2  0  0  0  0  0  0
  -28.4490  -26.7940   20.1190 O   0  0  0  0  0  0  0  0  0  0  0  0
  -24.5870  -31.8660   23.2210 C   0  0  0  0  0  0  0  0  0  0  0  0
  -27.2480  -27.4640   20.1230 C   0  0  0  0  0  0  0  0  0  0  0  0
  -23.3860  -30.4770   21.5630 C   0  0  0  0  0  3  0  0  0  0  0  0
  -24.8440  -28.9420   20.1430 C   0  0  0  0  0  0  0  0  0  0  0  0
  -25.9100  -30.8380   21.3790 C   0  0  0  0  0  2  0  0  0  0  0  0
  -25.9960  -29.4720   20.7330 C   0  0  0  0  0  0  0  0  0  0  0  0
  -27.2010  -28.7410   20.7180 C   0  0  0  0  0  3  0  0  0  0  0  0
  -26.0760  -26.9330   19.5360 C   0  0  0  0  0  3  0  0  0  0  0  0
  -24.8750  -27.6690   19.5450 C   0  0  0  0  0  3  0  0  0  0  0  0
  -23.6010  -29.8000   20.1820 C   0  0  0  0  0  2  0  0  0  0  0  0
  -24.6450  -31.0740   22.1130 N   0  0  0  0  0  0  0  0  0  0  0  0
  -23.5040  -32.1390   23.7570 O   0  0  0  0  0  0  0  0  0  0  0  0
  -22.7290  -29.4510   22.5140 C   0  0  0  0  0  0  0  0  0  0  0  0
  -21.4060  -29.2690   22.3740 N   0  0  0  0  0  0  0  0  0  0  0  0
  -23.4060  -28.8200   23.3300 O   0  0  0  0  0  0  0  0  0  0  0  0
  -20.9230  -29.8320   21.6870 H   0  0  0  0  0  0  0  0  0  0  0  0
  -18.0260  -28.0790   22.8280 C   0  0  0  0  0  0  0  0  0  0  0  0
  -20.5810  -28.3290   23.1310 C   0  0  0  0  0  3  0  0  0  0  0  0
  -20.6890  -26.9000   22.5510 C   0  0  0  0  0  2  0  0  0  0  0  0
  -19.5980  -26.5830   21.5240 C   0  0  0  0  0  2  0  0  0  0  0  0
  -18.2080  -26.7290   22.1520 C   0  0  0  0  0  2  0  0  0  0  0  0
  -19.1410  -28.8360   23.2740 C   0  0  0  0  0  0  0  0  0  0  0  0
  -18.9200  -30.1000   23.8630 C   0  0  0  0  0  3  0  0  0  0  0  0
  -17.6150  -30.6050   24.0140 C   0  0  0  0  0  3  0  0  0  0  0  0
  -16.5140  -29.8420   23.5860 C   0  0  0  0  0  3  0  0  0  0  0  0
  -16.7200  -28.5820   22.9990 C   0  0  0  0  0  3  0  0  0  0  0  0
  -25.8730  -32.4880   23.8500 C   0  0  0  0  0  3  0  0  0  0  0  0
  -26.3830  -31.7070   25.1230 C   0  0  1  0  0  0  0  0  0  0  0  0
  -25.2870  -31.4670   26.1870 C   0  0  0  0  0  1  0  0  0  0  0  0
  -26.9620  -30.3310   24.7190 C   0  0  0  0  0  1  0  0  0  0  0  0
  -27.5330  -32.4930   25.7940 C   0  0  0  0  0  1  0  0  0  0  0  0
  -25.5680  -33.8850   24.1870 N   0  0  0  0  0  0  0  0  0  0  0  0
  -25.9160  -34.9410   23.4370 C   0  0  0  0  0  0  0  0  0  0  0  0
  -26.6000  -34.8400   22.4140 O   0  0  0  0  0  0  0  0  0  0  0  0
  -24.9670  -34.0380   24.9820 H   0  0  0  0  0  0  0  0  0  0  0  0
  -24.2060  -36.7440   23.0640 C   0  0  0  0  0  1  0  0  0  0  0  0
  -25.4290  -36.3280   23.8960 C   0  0  0  0  0  3  0  0  0  0  0  0
  -27.5550  -37.1900   24.7720 C   0  0  0  0  0  1  0  0  0  0  0  0
  -26.4710  -37.3750   23.8110 N   0  0  0  0  0  0  0  0  0  0  0  0
  -26.0680  -38.2960   23.9610 H   0  0  0  0  0  0  0  0  0  0  0  0
  -30.8100  -22.6780   18.9000 C   0  0  0  0  0  2  0  0  0  0  0  0
  -31.6920  -21.7610   19.5590 O   0  0  0  0  0  0  0  0  0  0  0  0
  -31.7950  -21.8550   20.9810 C   0  0  0  0  0  2  0  0  0  0  0  0
  -30.5760  -21.2570   21.7130 C   0  0  0  0  0  2  0  0  0  0  0  0
  -30.5390  -19.7210   21.7860 C   0  0  0  0  0  2  0  0  0  0  0  0
  -30.5160  -19.0230   20.4160 C   0  0  0  0  0  2  0  0  0  0  0  0
  -29.9800  -17.5820   20.4470 C   0  0  0  0  0  2  0  0  0  0  0  0
  -30.6420  -16.6670   21.4970 C   0  0  0  0  0  2  0  0  0  0  0  0
  -30.7360  -14.3960   20.5070 C   0  0  0  0  0  0  0  0  0  0  0  0
  -30.3570  -12.3180   19.2470 C   0  0  0  0  0  2  0  0  0  0  0  0
  -29.4090  -12.5970   18.0650 C   0  0  0  0  0  2  0  0  0  0  0  0
  -27.9380  -12.4610   18.5050 C   0  0  0  0  0  2  0  0  0  0  0  0
  -27.6280  -13.2660   19.7960 C   0  0  0  0  0  3  0  0  0  0  0  0
  -28.6850  -12.9770   20.8840 C   0  0  0  0  0  2  0  0  0  0  0  0
  -30.0210  -13.2580   20.3250 N   0  0  0  0  0  0  0  0  0  0  0  0
  -31.7880  -14.6420   19.9100 O   0  0  0  0  0  0  0  0  0  0  0  0
  -30.1850  -15.2900   21.3350 N   0  0  0  0  0  0  0  0  0  0  0  0
  -29.3330  -15.0200   21.8050 H   0  0  0  0  0  0  0  0  0  0  0  0
  -25.2310  -13.8860   20.5110 C   0  0  0  0  0  0  0  0  0  0  0  0
  -24.1610  -13.1190   20.8870 C   0  0  0  0  0  0  0  0  0  0  0  0
  -24.6170  -11.7650   20.8570 C   0  0  0  0  0  0  0  0  0  0  0  0
  -26.2730  -13.0010   20.2780 N   0  0  0  0  0  0  0  0  0  0  0  0
  -25.9050  -11.7210   20.5410 N   0  0  0  0  0  0  0  0  0  0  0  0
  -23.8880  -10.5050   21.0530 C   0  0  0  0  0  0  0  0  0  0  0  0
  -24.3330   -9.5320   21.9740 C   0  0  0  0  0  3  0  0  0  0  0  0
  -23.6070   -8.3360   22.1590 C   0  0  0  0  0  3  0  0  0  0  0  0
  -22.4200   -8.1040   21.4230 C   0  0  0  0  0  0  0  0  0  0  0  0
  -21.9940   -9.0660   20.4910 C   0  0  0  0  0  3  0  0  0  0  0  0
  -22.7210  -10.2540   20.3040 C   0  0  0  0  0  3  0  0  0  0  0  0
  -21.6650   -6.9610   21.5170 O   0  0  0  0  0  0  0  0  0  0  0  0
  -21.6450   -6.2040   22.6610 C   0  0  0  0  0  0  0  0  0  0  0  0
  -21.2620   -6.7450   23.9080 C   0  0  0  0  0  3  0  0  0  0  0  0
  -21.1890   -5.9140   25.0430 C   0  0  0  0  0  3  0  0  0  0  0  0
  -21.4880   -4.5420   24.9330 C   0  0  0  0  0  0  0  0  0  0  0  0
  -21.8620   -4.0000   23.6920 C   0  0  0  0  0  3  0  0  0  0  0  0
  -21.9370   -4.8290   22.5570 C   0  0  0  0  0  0  0  0  0  0  0  0
  -22.2790   -4.2980   21.3590 F   0  0  0  0  0  0  0  0  0  0  0  0
  -21.4080   -3.7410   26.0210 F   0  0  0  0  0  0  0  0  0  0  0  0
  -22.7660  -13.6000   21.1630 C   0  0  0  0  0  0  0  0  0  0  0  0
  -22.0380  -12.9110   22.0340 N   0  0  0  0  0  0  0  0  0  0  0  0
  -22.3280  -14.6230   20.6380 O   0  0  0  0  0  0  0  0  0  0  0  0
  -22.4010  -12.0840   22.4860 H   0  0  0  0  0  0  0  0  0  0  0  0
  -21.1010  -13.2170   22.2560 H   0  0  0  0  0  0  0  0  0  0  0  0
  -25.3990  -15.2560   20.3290 N   0  0  0  0  0  0  0  0  0  0  0  0
  -24.6340  -15.9120   20.4390 H   0  0  0  0  0  0  0  0  0  0  0  0
  -26.2590  -15.6920   20.0190 H   0  0  0  0  0  0  0  0  0  0  0  0
  1  2  1  0
  2  5  1  0
  3  1  2  0
  4  2  1  0
  6  5  1  0
  7  6  1  0
  7  9  1  0
  8 19  2  0
  9 14  1  0
 10 18  1  0
 10 20  1  0
 11 17  1  0
 11 13  1  0
 12 18  1  0
 13 12  1  0
 14 13  2  0
 15 16  1  0
 15  9  2  0
 16 11  2  0
 17 10  1  0
 18  8  1  0
 20 22  2  0
 21 20  1  0
 23 21  1  0
 24 33  2  0
 24 29  1  0
 25 21  1  0
 25 29  1  0
 26 25  1  0
 27 28  1  0
 27 26  1  0
 28 24  1  0
 29 30  2  0
 30 31  1  0
 32 31  2  0
 33 32  1  0
 34  8  1  0
 34 39  1  0
 34 35  1  0
 35 38  1  1
 35 36  1  0
 37 35  1  0
 39 42  1  0
 40 44  1  0
 40 39  1  0
 41 40  2  0
 44 43  1  0
 46 44  1  0
 46 47  1  0
 46 45  1  0
 48  1  1  0
 48 49  1  0
 49 50  1  0
 50 51  1  0
 51 52  1  0
 53 54  1  0
 53 52  1  0
 54 55  1  0
 56 64  1  0
 57 62  1  0
 58 59  1  0
 58 57  1  0
 60 59  1  0
 60 69  1  0
 60 61  1  0
 62 56  1  0
 62 61  1  0
 63 56  2  0
 64 55  1  0
 64 65  1  0
 66 67  2  0
 67 86  1  0
 68 67  1  0
 68 71  1  0
 69 66  1  0
 69 70  1  0
 70 68  2  0
 71 72  1  0
 72 73  2  0
 74 77  1  0
 74 73  1  0
 75 74  2  0
 76 75  1  0
 76 71  2  0
 77 78  1  0
 78 79  1  0
 79 80  2  0
 81 80  1  0
 81 85  1  0
 82 81  2  0
 83 78  2  0
 83 82  1  0
 84 83  1  0
 86 87  1  0
 87 90  1  0
 87 89  1  0
 88 86  2  0
 91 92  1  0
 91 66  1  0
 93 91  1  0
M  ISO  4   6 101   7 101  56 100  64 100
M  END
>  <TORSDO>  (89) 
F 26

>  <SCORE>  (89) 
-11.902

>  <name>  (89) 
89

>  <ligand_id>  (89) 
89

>  <original_smiles>  (89) 
[H]c1c([H])c([H])c2c(c1[H])C([H])([H])C([H])([H])C([H])([H])C2([H])N([H])C(=O)C1([H])N(C(=O)C([H])(N([H])C(=O)C([H])(N([H])C([H])([H])[H])C([H])([H])[H])C(C([H])([H])[H])(C([H])([H])[H])C([H])([H])[H])C([H])([H])c2c([H])c(OC([H])([H])C([H])([H])N([H])C(=O)C([H])([H])OC([H])([H])C([H])([H])C([H])([H])C([H])([H])C([H])([H])C([H])([H])N([H])C(=O)N3C([H])([H])C([H])([H])C([H])([H])C([H])(n4nc(-c5c([H])c([H])c(Oc6c([H])c([H])c(F)c([H])c6F)c([H])c5[H])c(C(=O)N([H])[H])c4N([H])[H])C3([H])[H])c([H])c([H])c2C1([H])[H]

>  <smiles>  (89) 
[H]c1c([H])c([H])c2c(c1[H])C([H])([H])C([H])([H])C([H])([H])C2([H])N([H])C(=O)C1([H])N(C(=O)C([H])(N([H])C(=O)C([H])(N([H])C([H])([H])[H])C([H])([H])[H])C(C([H])([H])[H])(C([H])([H])[H])C([H])([H])[H])C([H])([H])c2c([H])c(OC([H])([H])C([H])([H])N([H])C(=O)C([H])([H])OC([H])([H])C([H])([H])C([H])([H])C([H])([H])C([H])([H])C([H])([H])N([H])C(=O)N3C([H])([H])C([H])([H])C([H])([H])C([H])(n4nc(-c5c([H])c([H])c(Oc6c([H])c([H])c(F)c([H])c6F)c([H])c5[H])c(C(=O)N([H])[H])c4N([H])[H])C3([H])[H])c([H])c([H])c2C1([H])[H]

$$$$
90:0:0
     RDKit          3D

 96103  0  0  1  0  0  0  0  0999 V2000
  -25.1920  -22.1150   19.9890 C   0  0  0  0  0  2  0  0  0  0  0  0
  -26.0840  -23.3520   20.1990 C   0  0  0  0  0  2  0  0  0  0  0  0
  -26.2780  -23.7250   21.6820 C   0  0  0  0  0  2  0  0  0  0  0  0
  -27.0190  -24.9940   21.8630 N   0  0  0  0  0  4  0  0  0  0  0  0
  -27.0500  -25.1810   22.8550 H   0  0  0  0  0  0  0  0  0  0  0  0
  -26.4930  -25.7440   21.4380 H   0  0  0  0  0  0  0  0  0  0  0  0
  -28.4110  -24.9910   21.3460 C   0  0  0  0  0  2  0  0  0  0  0  0
  -29.0660  -26.3860   21.3930 C   0  0  0  0  0  2  0  0  0  0  0  0
  -28.7290  -27.1090   20.2130 O   0  0  0  0  0  0  0  0  0  0  0  0
  -24.6700  -32.0210   23.4000 C   0  0  0  0  0  0  0  0  0  0  0  0
  -27.5410  -27.7880   20.2610 C   0  0  0  0  0  0  0  0  0  0  0  0
  -23.5520  -30.6280   21.6850 C   0  0  0  0  0  3  0  0  0  0  0  0
  -25.0930  -29.1770   20.2610 C   0  0  0  0  0  0  0  0  0  0  0  0
  -26.0620  -31.0810   21.5650 C   0  0  0  0  0  2  0  0  0  0  0  0
  -26.2100  -29.7310   20.8980 C   0  0  0  0  0  0  0  0  0  0  0  0
  -27.4380  -29.0370   20.9080 C   0  0  0  0  0  3  0  0  0  0  0  0
  -26.4150  -27.2440   19.6110 C   0  0  0  0  0  3  0  0  0  0  0  0
  -25.1860  -27.9270   19.6210 C   0  0  0  0  0  3  0  0  0  0  0  0
  -23.8180  -29.9900   20.2950 C   0  0  0  0  0  2  0  0  0  0  0  0
  -24.7760  -31.2570   22.2770 N   0  0  0  0  0  0  0  0  0  0  0  0
  -23.5690  -32.2420   23.9210 O   0  0  0  0  0  0  0  0  0  0  0  0
  -22.9110  -29.5600   22.5990 C   0  0  0  0  0  0  0  0  0  0  0  0
  -21.5990  -29.3340   22.4200 N   0  0  0  0  0  0  0  0  0  0  0  0
  -23.5920  -28.9390   23.4190 O   0  0  0  0  0  0  0  0  0  0  0  0
  -21.1120  -29.8910   21.7340 H   0  0  0  0  0  0  0  0  0  0  0  0
  -18.2470  -28.0430   22.8120 C   0  0  0  0  0  0  0  0  0  0  0  0
  -20.7920  -28.3460   23.1350 C   0  0  0  0  0  3  0  0  0  0  0  0
  -20.9410  -26.9440   22.5000 C   0  0  0  0  0  2  0  0  0  0  0  0
  -19.8560  -26.6280   21.4650 C   0  0  0  0  0  2  0  0  0  0  0  0
  -18.4650  -26.7210   22.0970 C   0  0  0  0  0  2  0  0  0  0  0  0
  -19.3390  -28.8120   23.2890 C   0  0  0  0  0  0  0  0  0  0  0  0
  -19.0830  -30.0470   23.9240 C   0  0  0  0  0  3  0  0  0  0  0  0
  -17.7650  -30.5120   24.0870 C   0  0  0  0  0  3  0  0  0  0  0  0
  -16.6850  -29.7410   23.6260 C   0  0  0  0  0  3  0  0  0  0  0  0
  -16.9270  -28.5080   22.9930 C   0  0  0  0  0  3  0  0  0  0  0  0
  -25.9230  -32.6700   24.0710 C   0  0  0  0  0  3  0  0  0  0  0  0
  -25.6060  -34.0790   24.3330 N   0  0  0  0  0  0  0  0  0  0  0  0
  -25.9830  -35.1000   23.5520 C   0  0  0  0  0  0  0  0  0  0  0  0
  -26.7050  -34.9540   22.5620 O   0  0  0  0  0  0  0  0  0  0  0  0
  -24.9700  -34.2670   25.0940 H   0  0  0  0  0  0  0  0  0  0  0  0
  -24.2850  -36.8770   23.0310 C   0  0  0  0  0  1  0  0  0  0  0  0
  -25.4760  -36.5050   23.9270 C   0  0  0  0  0  3  0  0  0  0  0  0
  -27.5540  -37.4220   24.8570 C   0  0  0  0  0  1  0  0  0  0  0  0
  -26.5180  -37.5500   23.8350 N   0  0  0  0  0  0  0  0  0  0  0  0
  -26.1080  -38.4770   23.9120 H   0  0  0  0  0  0  0  0  0  0  0  0
  -26.3650  -31.9420   25.3990 C   0  0  1  0  0  0  0  0  0  0  0  0
  -25.2060  -31.7220   26.3990 C   0  0  0  0  0  1  0  0  0  0  0  0
  -26.9910  -30.5640   25.0840 C   0  0  0  0  0  1  0  0  0  0  0  0
  -27.4610  -32.7700   26.1120 C   0  0  0  0  0  1  0  0  0  0  0  0
  -25.1440  -21.6440   18.5150 C   0  0  0  0  0  2  0  0  0  0  0  0
  -25.8320  -20.3520   18.3050 N   0  0  0  0  0  4  0  0  0  0  0  0
  -25.4870  -19.6880   18.9800 H   0  0  0  0  0  0  0  0  0  0  0  0
  -25.5730  -20.0130   17.3910 H   0  0  0  0  0  0  0  0  0  0  0  0
  -27.3080  -20.4190   18.3680 C   0  0  0  0  0  2  0  0  0  0  0  0
  -27.9290  -19.0430   18.6440 C   0  0  0  0  0  2  0  0  0  0  0  0
  -29.4690  -19.0740   18.6600 C   0  0  0  0  0  2  0  0  0  0  0  0
  -30.0560  -17.7640   19.2100 C   0  0  0  0  0  2  0  0  0  0  0  0
  -30.2340  -17.7530   20.7500 C   0  0  0  0  0  2  0  0  0  0  0  0
  -30.9590  -15.3640   20.9090 C   0  0  0  0  0  0  0  0  0  0  0  0
  -30.8470  -13.0360   20.1130 C   0  0  0  0  0  2  0  0  0  0  0  0
  -30.0800  -12.9590   18.7710 C   0  0  0  0  0  2  0  0  0  0  0  0
  -28.5590  -13.2260   18.8960 C   0  0  0  0  0  2  0  0  0  0  0  0
  -28.0960  -13.3060   20.3490 C   0  0  0  0  0  3  0  0  0  0  0  0
  -28.9650  -13.9540   21.4250 C   0  0  0  0  0  2  0  0  0  0  0  0
  -30.3320  -14.1650   20.9110 N   0  0  0  0  0  0  0  0  0  0  0  0
  -32.0840  -15.5490   20.4430 O   0  0  0  0  0  0  0  0  0  0  0  0
  -30.1830  -16.3930   21.2770 N   0  0  0  0  0  0  0  0  0  0  0  0
  -29.3260  -16.1370   21.7470 H   0  0  0  0  0  0  0  0  0  0  0  0
  -25.6210  -14.2200   20.7210 C   0  0  0  0  0  0  0  0  0  0  0  0
  -24.4990  -13.4640   20.9720 C   0  0  0  0  0  0  0  0  0  0  0  0
  -24.9370  -12.1090   20.9650 C   0  0  0  0  0  0  0  0  0  0  0  0
  -26.6620  -13.2920   20.6030 N   0  0  0  0  0  0  0  0  0  0  0  0
  -26.2220  -12.0410   20.7850 N   0  0  0  0  0  0  0  0  0  0  0  0
  -24.2440  -10.8350   21.0540 C   0  0  0  0  0  0  0  0  0  0  0  0
  -24.5820   -9.8970   22.0550 C   0  0  0  0  0  3  0  0  0  0  0  0
  -23.9110   -8.6590   22.1160 C   0  0  0  0  0  3  0  0  0  0  0  0
  -22.8960   -8.3600   21.1770 C   0  0  0  0  0  0  0  0  0  0  0  0
  -22.5930   -9.2880   20.1650 C   0  0  0  0  0  3  0  0  0  0  0  0
  -23.2650  -10.5180   20.0990 C   0  0  0  0  0  3  0  0  0  0  0  0
  -22.1970   -7.1800   21.1560 O   0  0  0  0  0  0  0  0  0  0  0  0
  -21.9160   -6.4960   22.3110 C   0  0  0  0  0  0  0  0  0  0  0  0
  -21.1470   -7.0630   23.3500 C   0  0  0  0  0  3  0  0  0  0  0  0
  -20.8230   -6.2940   24.4860 C   0  0  0  0  0  3  0  0  0  0  0  0
  -21.2570   -4.9580   24.5780 C   0  0  0  0  0  0  0  0  0  0  0  0
  -22.0230   -4.3920   23.5430 C   0  0  0  0  0  3  0  0  0  0  0  0
  -22.3480   -5.1590   22.4110 C   0  0  0  0  0  0  0  0  0  0  0  0
  -23.0670   -4.6040   21.4060 F   0  0  0  0  0  0  0  0  0  0  0  0
  -20.9400   -4.2140   25.6640 F   0  0  0  0  0  0  0  0  0  0  0  0
  -23.0760  -13.9230   21.1260 C   0  0  0  0  0  0  0  0  0  0  0  0
  -22.2820  -13.1810   21.8920 N   0  0  0  0  0  0  0  0  0  0  0  0
  -22.6710  -14.9570   20.6010 O   0  0  0  0  0  0  0  0  0  0  0  0
  -22.6230  -12.3430   22.3390 H   0  0  0  0  0  0  0  0  0  0  0  0
  -21.3210  -13.4550   22.0370 H   0  0  0  0  0  0  0  0  0  0  0  0
  -25.8250  -15.5920   20.5810 N   0  0  0  0  0  0  0  0  0  0  0  0
  -25.0640  -16.2580   20.6290 H   0  0  0  0  0  0  0  0  0  0  0  0
  -26.7240  -16.0060   20.3710 H   0  0  0  0  0  0  0  0  0  0  0  0
  1  2  1  0
  2  3  1  0
  3  4  1  0
  4  5  1  0
  6  4  1  0
  7  8  1  0
  7  4  1  0
  9 11  1  0
  9  8  1  0
 10 21  2  0
 11 16  1  0
 12 20  1  0
 12 22  1  0
 13 19  1  0
 13 15  1  0
 14 20  1  0
 15 16  2  0
 15 14  1  0
 17 18  1  0
 17 11  2  0
 18 13  2  0
 19 12  1  0
 20 10  1  0
 22 24  2  0
 23 22  1  0
 25 23  1  0
 26 35  2  0
 26 31  1  0
 27 23  1  0
 27 31  1  0
 28 27  1  0
 29 30  1  0
 29 28  1  0
 30 26  1  0
 31 32  2  0
 32 33  1  0
 34 33  2  0
 35 34  1  0
 36 10  1  0
 36 37  1  0
 36 46  1  0
 37 40  1  0
 38 42  1  0
 38 37  1  0
 39 38  2  0
 42 41  1  0
 44 45  1  0
 44 42  1  0
 44 43  1  0
 46 49  1  1
 46 47  1  0
 48 46  1  0
 50  1  1  0
 51 54  1  0
 51 50  1  0
 51 52  1  0
 53 51  1  0
 54 55  1  0
 55 56  1  0
 56 57  1  0
 57 58  1  0
 58 67  1  0
 59 65  1  0
 59 67  1  0
 60 65  1  0
 61 62  1  0
 61 60  1  0
 63 62  1  0
 63 72  1  0
 63 64  1  0
 65 64  1  0
 66 59  2  0
 67 68  1  0
 69 70  2  0
 70 89  1  0
 71 70  1  0
 71 74  1  0
 72 69  1  0
 72 73  1  0
 73 71  2  0
 74 75  1  0
 75 76  2  0
 77 76  1  0
 78 77  2  0
 79 78  1  0
 79 74  2  0
 80 77  1  0
 80 81  1  0
 81 86  2  0
 81 82  1  0
 82 83  2  0
 83 84  1  0
 84 88  1  0
 85 84  2  0
 86 85  1  0
 87 86  1  0
 89 90  1  0
 90 93  1  0
 90 92  1  0
 91 89  2  0
 94 95  1  0
 94 69  1  0
 96 94  1  0
M  ISO  4   8 101   9 101  59 100  67 100
M  END
>  <TORSDO>  (90) 
F 28

>  <SCORE>  (90) 
-10.281

>  <name>  (90) 
90

>  <ligand_id>  (90) 
90

>  <original_smiles>  (90) 
[H]c1c([H])c([H])c2c(c1[H])C([H])([H])C([H])([H])C([H])([H])C2([H])N([H])C(=O)C1([H])N(C(=O)C([H])(N([H])C(=O)C([H])(N([H])C([H])([H])[H])C([H])([H])[H])C(C([H])([H])[H])(C([H])([H])[H])C([H])([H])[H])C([H])([H])c2c([H])c(OC([H])([H])C([H])([H])[N+]([H])([H])C([H])([H])C([H])([H])C([H])([H])C([H])([H])[N+]([H])([H])C([H])([H])C([H])([H])C([H])([H])C([H])([H])C([H])([H])N([H])C(=O)N3C([H])([H])C([H])([H])C([H])([H])C([H])(n4nc(-c5c([H])c([H])c(Oc6c([H])c([H])c(F)c([H])c6F)c([H])c5[H])c(C(=O)N([H])[H])c4N([H])[H])C3([H])[H])c([H])c([H])c2C1([H])[H]

>  <smiles>  (90) 
[H]c1c([H])c([H])c2c(c1[H])C([H])([H])C([H])([H])C([H])([H])C2([H])N([H])C(=O)C1([H])N(C(=O)C([H])(N([H])C(=O)C([H])(N([H])C([H])([H])[H])C([H])([H])[H])C(C([H])([H])[H])(C([H])([H])[H])C([H])([H])[H])C([H])([H])c2c([H])c(OC([H])([H])C([H])([H])[N+]([H])([H])C([H])([H])C([H])([H])C([H])([H])C([H])([H])[N+]([H])([H])C([H])([H])C([H])([H])C([H])([H])C([H])([H])C([H])([H])N([H])C(=O)N3C([H])([H])C([H])([H])C([H])([H])C([H])(n4nc(-c5c([H])c([H])c(Oc6c([H])c([H])c(F)c([H])c6F)c([H])c5[H])c(C(=O)N([H])[H])c4N([H])[H])C3([H])[H])c([H])c([H])c2C1([H])[H]

$$$$
91:0:0
     RDKit          3D

 96103  0  0  1  0  0  0  0  0999 V2000
  -29.7290  -22.6680   23.9640 C   0  0  0  0  0  2  0  0  0  0  0  0
  -30.2770  -21.2340   24.0430 C   0  0  0  0  0  2  0  0  0  0  0  0
  -31.6240  -21.0770   23.3060 C   0  0  0  0  0  2  0  0  0  0  0  0
  -31.9120  -19.6690   22.9580 N   0  0  0  0  0  4  0  0  0  0  0  0
  -32.9040  -19.5200   23.0540 H   0  0  0  0  0  0  0  0  0  0  0  0
  -31.4500  -19.0620   23.6170 H   0  0  0  0  0  0  0  0  0  0  0  0
  -31.5200  -19.3060   21.5780 C   0  0  0  0  0  2  0  0  0  0  0  0
  -31.4170  -17.7850   21.3800 C   0  0  0  0  0  2  0  0  0  0  0  0
  -31.5240  -17.3800   19.9000 C   0  0  0  0  0  2  0  0  0  0  0  0
  -32.1120  -15.9780   19.7090 C   0  0  0  0  0  2  0  0  0  0  0  0
  -31.0760  -13.9650   18.6840 C   0  0  0  0  0  0  0  0  0  0  0  0
  -30.9420  -11.5150   18.8140 C   0  0  0  0  0  2  0  0  0  0  0  0
  -29.9160  -10.8540   17.8870 C   0  0  0  0  0  2  0  0  0  0  0  0
  -28.5380  -10.8080   18.5680 C   0  0  0  0  0  2  0  0  0  0  0  0
  -28.1030  -12.1950   19.1060 C   0  0  0  0  0  3  0  0  0  0  0  0
  -29.2220  -12.8490   19.9470 C   0  0  0  0  0  2  0  0  0  0  0  0
  -30.4700  -12.8600   19.1630 N   0  0  0  0  0  0  0  0  0  0  0  0
  -31.8090  -13.9800   17.6880 O   0  0  0  0  0  0  0  0  0  0  0  0
  -31.0770  -14.9590   19.5780 N   0  0  0  0  0  0  0  0  0  0  0  0
  -30.4710  -14.8190   20.3750 H   0  0  0  0  0  0  0  0  0  0  0  0
  -26.0710  -13.1170   20.3910 C   0  0  0  0  0  0  0  0  0  0  0  0
  -24.9740  -12.5010   20.9280 C   0  0  0  0  0  0  0  0  0  0  0  0
  -25.1490  -11.1020   20.6880 C   0  0  0  0  0  0  0  0  0  0  0  0
  -26.8540  -12.1030   19.8590 N   0  0  0  0  0  0  0  0  0  0  0  0
  -26.3130  -10.8800   20.0930 N   0  0  0  0  0  0  0  0  0  0  0  0
  -24.2480   -9.9700   20.9380 C   0  0  0  0  0  0  0  0  0  0  0  0
  -24.4210   -9.1190   22.0520 C   0  0  0  0  0  3  0  0  0  0  0  0
  -23.5300   -8.0470   22.2780 C   0  0  0  0  0  3  0  0  0  0  0  0
  -22.4510   -7.8200   21.3910 C   0  0  0  0  0  0  0  0  0  0  0  0
  -22.2970   -8.6570   20.2720 C   0  0  0  0  0  3  0  0  0  0  0  0
  -23.1870   -9.7200   20.0450 C   0  0  0  0  0  3  0  0  0  0  0  0
  -21.5510   -6.7900   21.5180 O   0  0  0  0  0  0  0  0  0  0  0  0
  -20.9370   -6.5160   22.7130 C   0  0  0  0  0  0  0  0  0  0  0  0
  -20.1080   -7.4590   23.3600 C   0  0  0  0  0  3  0  0  0  0  0  0
  -19.4390   -7.1110   24.5490 C   0  0  0  0  0  3  0  0  0  0  0  0
  -19.5900   -5.8190   25.0900 C   0  0  0  0  0  0  0  0  0  0  0  0
  -20.4100   -4.8770   24.4460 C   0  0  0  0  0  3  0  0  0  0  0  0
  -21.0780   -5.2240   23.2590 C   0  0  0  0  0  0  0  0  0  0  0  0
  -21.8510   -4.3050   22.6290 F   0  0  0  0  0  0  0  0  0  0  0  0
  -18.9410   -5.4810   26.2290 F   0  0  0  0  0  0  0  0  0  0  0  0
  -23.7840  -13.1740   21.5470 C   0  0  0  0  0  0  0  0  0  0  0  0
  -23.1590  -12.5370   22.5320 N   0  0  0  0  0  0  0  0  0  0  0  0
  -23.4260  -14.2950   21.1880 O   0  0  0  0  0  0  0  0  0  0  0  0
  -23.4600  -11.6250   22.8400 H   0  0  0  0  0  0  0  0  0  0  0  0
  -22.3660  -12.9690   22.9860 H   0  0  0  0  0  0  0  0  0  0  0  0
  -26.4580  -14.4490   20.2900 N   0  0  0  0  0  0  0  0  0  0  0  0
  -25.8720  -15.2100   20.6180 H   0  0  0  0  0  0  0  0  0  0  0  0
  -27.2990  -14.7710   19.8290 H   0  0  0  0  0  0  0  0  0  0  0  0
  -28.3830  -22.7570   23.2150 C   0  0  0  0  0  2  0  0  0  0  0  0
  -28.1770  -24.0670   22.5580 N   0  0  0  0  0  4  0  0  0  0  0  0
  -28.4680  -24.8050   23.1820 H   0  0  0  0  0  0  0  0  0  0  0  0
  -27.1840  -24.1730   22.4220 H   0  0  0  0  0  0  0  0  0  0  0  0
  -28.8440  -24.2120   21.2410 C   0  0  0  0  0  2  0  0  0  0  0  0
  -28.4890  -25.5350   20.5470 C   0  0  0  0  0  2  0  0  0  0  0  0
  -29.0790  -25.6390   19.1190 C   0  0  0  0  0  2  0  0  0  0  0  0
  -28.8720  -26.9230   18.5220 O   0  0  0  0  0  0  0  0  0  0  0  0
  -24.7270  -30.8190   22.7160 C   0  0  0  0  0  0  0  0  0  0  0  0
  -27.6210  -27.4600   18.6820 C   0  0  0  0  0  0  0  0  0  0  0  0
  -23.5570  -29.5550   20.9380 C   0  0  0  0  0  3  0  0  0  0  0  0
  -25.0540  -28.5310   19.1400 C   0  0  0  0  0  0  0  0  0  0  0  0
  -25.9670  -30.3370   20.6110 C   0  0  0  0  0  2  0  0  0  0  0  0
  -26.1770  -29.1270   19.7290 C   0  0  0  0  0  0  0  0  0  0  0  0
  -27.4630  -28.5950   19.5010 C   0  0  0  0  0  3  0  0  0  0  0  0
  -26.4850  -26.8740   18.0790 C   0  0  0  0  0  3  0  0  0  0  0  0
  -25.2010  -27.4020   18.3130 C   0  0  0  0  0  3  0  0  0  0  0  0
  -23.7130  -29.1630   19.4420 C   0  0  0  0  0  2  0  0  0  0  0  0
  -24.7730  -30.2410   21.4820 N   0  0  0  0  0  0  0  0  0  0  0  0
  -23.6840  -30.8200   23.3830 O   0  0  0  0  0  0  0  0  0  0  0  0
  -23.1580  -28.2940   21.7390 C   0  0  0  0  0  0  0  0  0  0  0  0
  -21.8900  -27.8710   21.6010 N   0  0  0  0  0  0  0  0  0  0  0  0
  -23.9840  -27.7020   22.4390 O   0  0  0  0  0  0  0  0  0  0  0  0
  -21.2720  -28.4160   21.0170 H   0  0  0  0  0  0  0  0  0  0  0  0
  -18.8550  -25.9360   21.8870 C   0  0  0  0  0  0  0  0  0  0  0  0
  -21.3040  -26.6870   22.2270 C   0  0  0  0  0  3  0  0  0  0  0  0
  -21.6980  -25.4000   21.4660 C   0  0  0  0  0  2  0  0  0  0  0  0
  -20.6750  -24.9930   20.4020 C   0  0  0  0  0  2  0  0  0  0  0  0
  -19.3020  -24.7560   21.0400 C   0  0  0  0  0  2  0  0  0  0  0  0
  -19.7940  -26.8510   22.4300 C   0  0  0  0  0  0  0  0  0  0  0  0
  -19.3250  -27.9510   23.1810 C   0  0  0  0  0  3  0  0  0  0  0  0
  -17.9460  -28.1420   23.3910 C   0  0  0  0  0  3  0  0  0  0  0  0
  -17.0200  -27.2240   22.8650 C   0  0  0  0  0  3  0  0  0  0  0  0
  -17.4760  -26.1220   22.1190 C   0  0  0  0  0  3  0  0  0  0  0  0
  -25.9730  -31.5280   23.3350 C   0  0  0  0  0  3  0  0  0  0  0  0
  -25.5190  -32.8090   23.8910 N   0  0  0  0  0  0  0  0  0  0  0  0
  -25.7130  -34.0010   23.3110 C   0  0  0  0  0  0  0  0  0  0  0  0
  -26.3600  -34.1430   22.2710 O   0  0  0  0  0  0  0  0  0  0  0  0
  -24.9420  -32.7610   24.7170 H   0  0  0  0  0  0  0  0  0  0  0  0
  -23.8230  -35.6610   23.2280 C   0  0  0  0  0  1  0  0  0  0  0  0
  -25.0860  -35.2330   23.9930 C   0  0  0  0  0  3  0  0  0  0  0  0
  -27.1100  -36.1520   25.0360 C   0  0  0  0  0  1  0  0  0  0  0  0
  -26.0120  -36.3820   24.1020 N   0  0  0  0  0  0  0  0  0  0  0  0
  -25.5160  -37.2190   24.3980 H   0  0  0  0  0  0  0  0  0  0  0  0
  -26.6940  -30.6600   24.4390 C   0  0  1  0  0  0  0  0  0  0  0  0
  -25.7410  -30.1210   25.5290 C   0  0  0  0  0  1  0  0  0  0  0  0
  -27.4110  -29.4490   23.7950 C   0  0  0  0  0  1  0  0  0  0  0  0
  -27.7860  -31.5010   25.1400 C   0  0  0  0  0  1  0  0  0  0  0  0
  1  2  1  0
  3  2  1  0
  4  5  1  0
  4  3  1  0
  4  6  1  0
  7  4  1  0
  8  7  1  0
  9  8  1  0
 10  9  1  0
 11 17  1  0
 11 19  1  0
 12 17  1  0
 13 14  1  0
 13 12  1  0
 15 14  1  0
 15 24  1  0
 15 16  1  0
 17 16  1  0
 18 11  2  0
 19 10  1  0
 19 20  1  0
 21 22  2  0
 22 41  1  0
 23 22  1  0
 23 26  1  0
 24 25  1  0
 24 21  1  0
 25 23  2  0
 26 27  1  0
 27 28  2  0
 29 32  1  0
 29 28  1  0
 30 29  2  0
 31 30  1  0
 31 26  2  0
 32 33  1  0
 33 38  2  0
 33 34  1  0
 34 35  2  0
 35 36  1  0
 36 40  1  0
 37 36  2  0
 38 37  1  0
 39 38  1  0
 41 42  1  0
 42 44  1  0
 42 45  1  0
 43 41  2  0
 46 21  1  0
 46 47  1  0
 48 46  1  0
 49  1  1  0
 50 51  1  0
 50 49  1  0
 52 50  1  0
 53 50  1  0
 54 53  1  0
 55 54  1  0
 56 58  1  0
 56 55  1  0
 57 68  2  0
 58 63  1  0
 59 67  1  0
 59 69  1  0
 60 66  1  0
 60 62  1  0
 61 67  1  0
 62 61  1  0
 63 62  2  0
 64 65  1  0
 64 58  2  0
 65 60  2  0
 66 59  1  0
 67 57  1  0
 69 71  2  0
 70 69  1  0
 72 70  1  0
 73 82  2  0
 73 78  1  0
 74 70  1  0
 74 78  1  0
 75 74  1  0
 76 77  1  0
 76 75  1  0
 77 73  1  0
 78 79  2  0
 79 80  1  0
 81 80  2  0
 82 81  1  0
 83 57  1  0
 83 84  1  0
 83 93  1  0
 84 87  1  0
 85 84  1  0
 85 89  1  0
 86 85  2  0
 89 88  1  0
 89 91  1  0
 91 92  1  0
 91 90  1  0
 93 96  1  1
 93 94  1  0
 95 93  1  0
M  ISO  4  11 100  19 100  55 101  56 101
M  END
>  <TORSDO>  (91) 
F 28

>  <SCORE>  (91) 
-5.237

>  <name>  (91) 
91

>  <ligand_id>  (91) 
91

>  <original_smiles>  (91) 
[H]c1c([H])c([H])c2c(c1[H])C([H])([H])C([H])([H])C([H])([H])C2([H])N([H])C(=O)C1([H])N(C(=O)C([H])(N([H])C(=O)C([H])(N([H])C([H])([H])[H])C([H])([H])[H])C(C([H])([H])[H])(C([H])([H])[H])C([H])([H])[H])C([H])([H])c2c([H])c(OC([H])([H])C([H])([H])C([H])([H])[N+]([H])([H])C([H])([H])C([H])([H])C([H])([H])C([H])([H])[N+]([H])([H])C([H])([H])C([H])([H])C([H])([H])C([H])([H])N([H])C(=O)N3C([H])([H])C([H])([H])C([H])([H])C([H])(n4nc(-c5c([H])c([H])c(Oc6c([H])c([H])c(F)c([H])c6F)c([H])c5[H])c(C(=O)N([H])[H])c4N([H])[H])C3([H])[H])c([H])c([H])c2C1([H])[H]

>  <smiles>  (91) 
[H]c1c([H])c([H])c2c(c1[H])C([H])([H])C([H])([H])C([H])([H])C2([H])N([H])C(=O)C1([H])N(C(=O)C([H])(N([H])C(=O)C([H])(N([H])C([H])([H])[H])C([H])([H])[H])C(C([H])([H])[H])(C([H])([H])[H])C([H])([H])[H])C([H])([H])c2c([H])c(OC([H])([H])C([H])([H])C([H])([H])[N+]([H])([H])C([H])([H])C([H])([H])C([H])([H])C([H])([H])[N+]([H])([H])C([H])([H])C([H])([H])C([H])([H])C([H])([H])N([H])C(=O)N3C([H])([H])C([H])([H])C([H])([H])C([H])(n4nc(-c5c([H])c([H])c(Oc6c([H])c([H])c(F)c([H])c6F)c([H])c5[H])c(C(=O)N([H])[H])c4N([H])[H])C3([H])[H])c([H])c([H])c2C1([H])[H]

$$$$
92:0:0
     RDKit          3D

 95102  0  0  1  0  0  0  0  0999 V2000
  -31.0800  -22.1600   17.1480 C   0  0  0  0  0  2  0  0  0  0  0  0
  -30.0800  -23.6330   18.9140 C   0  0  0  0  0  0  0  0  0  0  0  0
  -30.7580  -23.4410   17.7760 N   0  0  0  0  0  0  0  0  0  0  0  0
  -29.5400  -22.7060   19.5210 O   0  0  0  0  0  0  0  0  0  0  0  0
  -31.1440  -24.2620   17.3270 H   0  0  0  0  0  0  0  0  0  0  0  0
  -29.9710  -25.0640   19.4330 C   0  0  0  0  0  2  0  0  0  0  0  0
  -28.5120  -25.5370   19.4510 C   0  0  0  0  0  2  0  0  0  0  0  0
  -28.4430  -26.8000   20.0970 O   0  0  0  0  0  0  0  0  0  0  0  0
  -24.6110  -31.8700   23.2370 C   0  0  0  0  0  0  0  0  0  0  0  0
  -27.2320  -27.4560   20.1210 C   0  0  0  0  0  0  0  0  0  0  0  0
  -23.3860  -30.4710   21.6070 C   0  0  0  0  0  3  0  0  0  0  0  0
  -24.8250  -28.9330   20.1750 C   0  0  0  0  0  0  0  0  0  0  0  0
  -25.9040  -30.8360   21.3800 C   0  0  0  0  0  2  0  0  0  0  0  0
  -25.9840  -29.4630   20.7500 C   0  0  0  0  0  0  0  0  0  0  0  0
  -27.1870  -28.7270   20.7280 C   0  0  0  0  0  3  0  0  0  0  0  0
  -26.0470  -26.9240   19.5560 C   0  0  0  0  0  3  0  0  0  0  0  0
  -24.8490  -27.6580   19.5830 C   0  0  0  0  0  3  0  0  0  0  0  0
  -23.5810  -29.7890   20.2250 C   0  0  0  0  0  2  0  0  0  0  0  0
  -24.6520  -31.0720   22.1340 N   0  0  0  0  0  0  0  0  0  0  0  0
  -23.5370  -32.1410   23.7900 O   0  0  0  0  0  0  0  0  0  0  0  0
  -22.7470  -29.4480   22.5730 C   0  0  0  0  0  0  0  0  0  0  0  0
  -21.4210  -29.2630   22.4560 N   0  0  0  0  0  0  0  0  0  0  0  0
  -23.4380  -28.8230   23.3800 O   0  0  0  0  0  0  0  0  0  0  0  0
  -20.9220  -29.8200   21.7770 H   0  0  0  0  0  0  0  0  0  0  0  0
  -18.0580  -28.0590   22.9740 C   0  0  0  0  0  0  0  0  0  0  0  0
  -20.6160  -28.3260   23.2360 C   0  0  0  0  0  3  0  0  0  0  0  0
  -20.7210  -26.8920   22.6670 C   0  0  0  0  0  2  0  0  0  0  0  0
  -19.6170  -26.5610   21.6580 C   0  0  0  0  0  2  0  0  0  0  0  0
  -18.2370  -26.7070   22.3060 C   0  0  0  0  0  2  0  0  0  0  0  0
  -19.1760  -28.8260   23.3980 C   0  0  0  0  0  0  0  0  0  0  0  0
  -18.9570  -30.0940   23.9810 C   0  0  0  0  0  3  0  0  0  0  0  0
  -17.6520  -30.5920   24.1490 C   0  0  0  0  0  3  0  0  0  0  0  0
  -16.5470  -29.8240   23.7410 C   0  0  0  0  0  3  0  0  0  0  0  0
  -16.7520  -28.5590   23.1590 C   0  0  0  0  0  3  0  0  0  0  0  0
  -25.9060  -32.5000   23.8400 C   0  0  0  0  0  3  0  0  0  0  0  0
  -26.4490  -31.7170   25.0980 C   0  0  1  0  0  0  0  0  0  0  0  0
  -25.3780  -31.4690   26.1850 C   0  0  0  0  0  1  0  0  0  0  0  0
  -27.0270  -30.3450   24.6790 C   0  0  0  0  0  1  0  0  0  0  0  0
  -27.6090  -32.5090   25.7490 C   0  0  0  0  0  1  0  0  0  0  0  0
  -25.6010  -33.8940   24.1850 N   0  0  0  0  0  0  0  0  0  0  0  0
  -25.9180  -34.9510   23.4240 C   0  0  0  0  0  0  0  0  0  0  0  0
  -26.5680  -34.8560   22.3810 O   0  0  0  0  0  0  0  0  0  0  0  0
  -25.0290  -34.0440   25.0030 H   0  0  0  0  0  0  0  0  0  0  0  0
  -24.1770  -36.7370   23.1030 C   0  0  0  0  0  1  0  0  0  0  0  0
  -25.4310  -36.3340   23.8960 C   0  0  0  0  0  3  0  0  0  0  0  0
  -27.5750  -37.2210   24.6950 C   0  0  0  0  0  1  0  0  0  0  0  0
  -26.4560  -37.3930   23.7740 N   0  0  0  0  0  0  0  0  0  0  0  0
  -26.0480  -38.3100   23.9390 H   0  0  0  0  0  0  0  0  0  0  0  0
  -29.8660  -21.4410   16.5080 C   0  0  0  0  0  2  0  0  0  0  0  0
  -28.9650  -20.8060   17.4970 N   0  0  0  0  0  4  0  0  0  0  0  0
  -28.7090  -21.5160   18.1750 H   0  0  0  0  0  0  0  0  0  0  0  0
  -28.1330  -20.4960   17.0220 H   0  0  0  0  0  0  0  0  0  0  0  0
  -29.5560  -19.6800   18.2450 C   0  0  0  0  0  2  0  0  0  0  0  0
  -28.5010  -18.7280   18.8510 C   0  0  0  0  0  2  0  0  0  0  0  0
  -28.9130  -18.1360   20.2090 C   0  0  0  0  0  2  0  0  0  0  0  0
  -30.3400  -17.5580   20.2350 C   0  0  0  0  0  2  0  0  0  0  0  0
  -30.6380  -16.7110   21.4850 C   0  0  0  0  0  2  0  0  0  0  0  0
  -30.6980  -14.4090   20.5960 C   0  0  0  0  0  0  0  0  0  0  0  0
  -30.3370  -12.3290   19.3500 C   0  0  0  0  0  2  0  0  0  0  0  0
  -29.4130  -12.6130   18.1520 C   0  0  0  0  0  2  0  0  0  0  0  0
  -27.9320  -12.4890   18.5590 C   0  0  0  0  0  2  0  0  0  0  0  0
  -27.6010  -13.2730   19.8600 C   0  0  0  0  0  3  0  0  0  0  0  0
  -28.6430  -12.9910   20.9650 C   0  0  0  0  0  2  0  0  0  0  0  0
  -29.9840  -13.2710   20.4190 N   0  0  0  0  0  0  0  0  0  0  0  0
  -31.7790  -14.6240   20.0370 O   0  0  0  0  0  0  0  0  0  0  0  0
  -30.1150  -15.3520   21.3440 N   0  0  0  0  0  0  0  0  0  0  0  0
  -29.2310  -15.1310   21.7800 H   0  0  0  0  0  0  0  0  0  0  0  0
  -25.1940  -13.8810   20.5320 C   0  0  0  0  0  0  0  0  0  0  0  0
  -24.1240  -13.1070   20.8920 C   0  0  0  0  0  0  0  0  0  0  0  0
  -24.5860  -11.7560   20.8720 C   0  0  0  0  0  0  0  0  0  0  0  0
  -26.2410  -12.9980   20.3160 N   0  0  0  0  0  0  0  0  0  0  0  0
  -25.8770  -11.7150   20.5720 N   0  0  0  0  0  0  0  0  0  0  0  0
  -23.8570  -10.4950   21.0600 C   0  0  0  0  0  0  0  0  0  0  0  0
  -24.2950   -9.5200   21.9840 C   0  0  0  0  0  3  0  0  0  0  0  0
  -23.5690   -8.3220   22.1600 C   0  0  0  0  0  3  0  0  0  0  0  0
  -22.3900   -8.0920   21.4120 C   0  0  0  0  0  0  0  0  0  0  0  0
  -21.9700   -9.0550   20.4780 C   0  0  0  0  0  3  0  0  0  0  0  0
  -22.6960  -10.2440   20.3000 C   0  0  0  0  0  3  0  0  0  0  0  0
  -21.6330   -6.9480   21.4990 O   0  0  0  0  0  0  0  0  0  0  0  0
  -21.6070   -6.1850   22.6380 C   0  0  0  0  0  0  0  0  0  0  0  0
  -21.2240   -6.7210   23.8870 C   0  0  0  0  0  3  0  0  0  0  0  0
  -21.1450   -5.8860   25.0190 C   0  0  0  0  0  3  0  0  0  0  0  0
  -21.4370   -4.5140   24.9040 C   0  0  0  0  0  0  0  0  0  0  0  0
  -21.8130   -3.9740   23.6620 C   0  0  0  0  0  3  0  0  0  0  0  0
  -21.8940   -4.8080   22.5310 C   0  0  0  0  0  0  0  0  0  0  0  0
  -22.2360   -4.2780   21.3340 F   0  0  0  0  0  0  0  0  0  0  0  0
  -21.3540   -3.7100   25.9920 F   0  0  0  0  0  0  0  0  0  0  0  0
  -22.7250  -13.5850   21.1530 C   0  0  0  0  0  0  0  0  0  0  0  0
  -21.9900  -12.8950   22.0180 N   0  0  0  0  0  0  0  0  0  0  0  0
  -22.2920  -14.6080   20.6250 O   0  0  0  0  0  0  0  0  0  0  0  0
  -22.3540  -12.0640   22.4630 H   0  0  0  0  0  0  0  0  0  0  0  0
  -21.0520  -13.1950   22.2360 H   0  0  0  0  0  0  0  0  0  0  0  0
  -25.3590  -15.2510   20.3560 N   0  0  0  0  0  0  0  0  0  0  0  0
  -24.5880  -15.9060   20.4420 H   0  0  0  0  0  0  0  0  0  0  0  0
  -26.2190  -15.6860   20.0490 H   0  0  0  0  0  0  0  0  0  0  0  0
  1  3  1  0
  2  6  1  0
  2  4  2  0
  3  2  1  0
  5  3  1  0
  6  7  1  0
  7  8  1  0
  8 10  1  0
  9 20  2  0
 10 15  1  0
 11 19  1  0
 11 21  1  0
 12 18  1  0
 12 14  1  0
 13 19  1  0
 14 13  1  0
 15 14  2  0
 16 17  1  0
 16 10  2  0
 17 12  2  0
 18 11  1  0
 19  9  1  0
 21 23  2  0
 22 21  1  0
 24 22  1  0
 25 34  2  0
 25 30  1  0
 26 22  1  0
 26 30  1  0
 27 26  1  0
 28 29  1  0
 28 27  1  0
 29 25  1  0
 30 31  2  0
 31 32  1  0
 33 32  2  0
 34 33  1  0
 35  9  1  0
 35 40  1  0
 35 36  1  0
 36 39  1  1
 36 37  1  0
 38 36  1  0
 40 43  1  0
 41 45  1  0
 41 40  1  0
 42 41  2  0
 45 44  1  0
 47 45  1  0
 47 48  1  0
 47 46  1  0
 49  1  1  0
 49 50  1  0
 50 51  1  0
 50 53  1  0
 52 50  1  0
 53 54  1  0
 54 55  1  0
 55 56  1  0
 56 57  1  0
 58 66  1  0
 59 64  1  0
 60 61  1  0
 60 59  1  0
 62 61  1  0
 62 71  1  0
 62 63  1  0
 64 58  1  0
 64 63  1  0
 65 58  2  0
 66 57  1  0
 66 67  1  0
 68 69  2  0
 69 88  1  0
 70 69  1  0
 70 73  1  0
 71 68  1  0
 71 72  1  0
 72 70  2  0
 73 74  1  0
 74 75  2  0
 76 79  1  0
 76 75  1  0
 77 76  2  0
 78 77  1  0
 78 73  2  0
 79 80  1  0
 80 81  1  0
 81 82  2  0
 83 82  1  0
 83 87  1  0
 84 83  2  0
 85 80  2  0
 85 84  1  0
 86 85  1  0
 88 89  1  0
 89 92  1  0
 89 91  1  0
 90 88  2  0
 93 94  1  0
 93 68  1  0
 95 93  1  0
M  ISO  4   7 101   8 101  58 100  66 100
M  END
>  <TORSDO>  (92) 
F 26

>  <SCORE>  (92) 
-11.910

>  <name>  (92) 
92

>  <ligand_id>  (92) 
92

>  <original_smiles>  (92) 
[H]c1c([H])c([H])c2c(c1[H])C([H])([H])C([H])([H])C([H])([H])C2([H])N([H])C(=O)C1([H])N(C(=O)C([H])(N([H])C(=O)C([H])(N([H])C([H])([H])[H])C([H])([H])[H])C(C([H])([H])[H])(C([H])([H])[H])C([H])([H])[H])C([H])([H])c2c([H])c(OC([H])([H])C([H])([H])C(=O)N([H])C([H])([H])C([H])([H])[N+]([H])([H])C([H])([H])C([H])([H])C([H])([H])C([H])([H])C([H])([H])N([H])C(=O)N3C([H])([H])C([H])([H])C([H])([H])C([H])(n4nc(-c5c([H])c([H])c(Oc6c([H])c([H])c(F)c([H])c6F)c([H])c5[H])c(C(=O)N([H])[H])c4N([H])[H])C3([H])[H])c([H])c([H])c2C1([H])[H]

>  <smiles>  (92) 
[H]c1c([H])c([H])c2c(c1[H])C([H])([H])C([H])([H])C([H])([H])C2([H])N([H])C(=O)C1([H])N(C(=O)C([H])(N([H])C(=O)C([H])(N([H])C([H])([H])[H])C([H])([H])[H])C(C([H])([H])[H])(C([H])([H])[H])C([H])([H])[H])C([H])([H])c2c([H])c(OC([H])([H])C([H])([H])C(=O)N([H])C([H])([H])C([H])([H])[N+]([H])([H])C([H])([H])C([H])([H])C([H])([H])C([H])([H])C([H])([H])N([H])C(=O)N3C([H])([H])C([H])([H])C([H])([H])C([H])(n4nc(-c5c([H])c([H])c(Oc6c([H])c([H])c(F)c([H])c6F)c([H])c5[H])c(C(=O)N([H])[H])c4N([H])[H])C3([H])[H])c([H])c([H])c2C1([H])[H]

$$$$
93:0:0
     RDKit          3D

101108  0  0  1  0  0  0  0  0999 V2000
  -33.5890  -21.3230   21.3820 C   0  0  0  0  0  0  0  0  0  0  0  0
  -32.6390  -20.8480   20.5650 N   0  0  0  0  0  0  0  0  0  0  0  0
  -34.0860  -22.4420   21.2420 O   0  0  0  0  0  0  0  0  0  0  0  0
  -32.3240  -19.8970   20.7060 H   0  0  0  0  0  0  0  0  0  0  0  0
  -31.9230  -21.6260   19.5550 C   0  0  0  0  0  2  0  0  0  0  0  0
  -31.1330  -22.7640   20.2260 C   0  0  0  0  0  2  0  0  0  0  0  0
  -30.2730  -23.5260   19.3060 N   0  0  0  0  0  4  0  0  0  0  0  0
  -29.4370  -22.9860   19.1280 H   0  0  0  0  0  0  0  0  0  0  0  0
  -30.7510  -23.6530   18.4270 H   0  0  0  0  0  0  0  0  0  0  0  0
  -29.9260  -24.8540   19.8610 C   0  0  0  0  0  2  0  0  0  0  0  0
  -28.5250  -25.3340   19.4890 C   0  0  0  0  0  2  0  0  0  0  0  0
  -28.4190  -26.6000   20.1260 O   0  0  0  0  0  0  0  0  0  0  0  0
  -24.5610  -31.6830   23.2100 C   0  0  0  0  0  0  0  0  0  0  0  0
  -27.2130  -27.2610   20.1190 C   0  0  0  0  0  0  0  0  0  0  0  0
  -23.3670  -30.3030   21.5400 C   0  0  0  0  0  3  0  0  0  0  0  0
  -24.8230  -28.7590   20.1320 C   0  0  0  0  0  0  0  0  0  0  0  0
  -25.8930  -30.6440   21.3800 C   0  0  0  0  0  2  0  0  0  0  0  0
  -25.9740  -29.2760   20.7390 C   0  0  0  0  0  0  0  0  0  0  0  0
  -27.1680  -28.5300   20.7360 C   0  0  0  0  0  3  0  0  0  0  0  0
  -26.0410  -26.7460   19.5200 C   0  0  0  0  0  3  0  0  0  0  0  0
  -24.8470  -27.4910   19.5280 C   0  0  0  0  0  3  0  0  0  0  0  0
  -23.5900  -29.6300   20.1590 C   0  0  0  0  0  2  0  0  0  0  0  0
  -24.6240  -30.8910   22.1030 N   0  0  0  0  0  0  0  0  0  0  0  0
  -23.4740  -31.9610   23.7360 O   0  0  0  0  0  0  0  0  0  0  0  0
  -22.6930  -29.2790   22.4820 C   0  0  0  0  0  0  0  0  0  0  0  0
  -21.3690  -29.1110   22.3330 N   0  0  0  0  0  0  0  0  0  0  0  0
  -23.3590  -28.6390   23.3010 O   0  0  0  0  0  0  0  0  0  0  0  0
  -20.8930  -29.6870   21.6530 H   0  0  0  0  0  0  0  0  0  0  0  0
  -17.9770  -27.9460   22.7590 C   0  0  0  0  0  0  0  0  0  0  0  0
  -20.5300  -28.1750   23.0830 C   0  0  0  0  0  3  0  0  0  0  0  0
  -20.6280  -26.7460   22.5000 C   0  0  0  0  0  2  0  0  0  0  0  0
  -19.5440  -26.4410   21.4640 C   0  0  0  0  0  2  0  0  0  0  0  0
  -18.1530  -26.5970   22.0820 C   0  0  0  0  0  2  0  0  0  0  0  0
  -19.0940  -28.6940   23.2150 C   0  0  0  0  0  0  0  0  0  0  0  0
  -18.8780  -29.9600   23.8030 C   0  0  0  0  0  3  0  0  0  0  0  0
  -17.5760  -30.4760   23.9440 C   0  0  0  0  0  3  0  0  0  0  0  0
  -16.4720  -29.7240   23.5040 C   0  0  0  0  0  3  0  0  0  0  0  0
  -16.6730  -28.4610   22.9190 C   0  0  0  0  0  3  0  0  0  0  0  0
  -25.8440  -32.2960   23.8530 C   0  0  0  0  0  3  0  0  0  0  0  0
  -25.5510  -33.6990   24.1760 N   0  0  0  0  0  0  0  0  0  0  0  0
  -25.9030  -34.7430   23.4160 C   0  0  0  0  0  0  0  0  0  0  0  0
  -26.5830  -34.6300   22.3930 O   0  0  0  0  0  0  0  0  0  0  0  0
  -24.9490  -33.8620   24.9700 H   0  0  0  0  0  0  0  0  0  0  0  0
  -24.1880  -36.5480   23.0440 C   0  0  0  0  0  1  0  0  0  0  0  0
  -25.4230  -36.1370   23.8620 C   0  0  0  0  0  3  0  0  0  0  0  0
  -27.5620  -37.0120   24.6940 C   0  0  0  0  0  1  0  0  0  0  0  0
  -26.4630  -37.1840   23.7480 N   0  0  0  0  0  0  0  0  0  0  0  0
  -26.0630  -38.1060   23.8940 H   0  0  0  0  0  0  0  0  0  0  0  0
  -26.3330  -31.5160   25.1340 C   0  0  1  0  0  0  0  0  0  0  0  0
  -25.2240  -31.2880   26.1870 C   0  0  0  0  0  1  0  0  0  0  0  0
  -26.9050  -30.1330   24.7420 C   0  0  0  0  0  1  0  0  0  0  0  0
  -27.4810  -32.2950   25.8190 C   0  0  0  0  0  1  0  0  0  0  0  0
  -34.0010  -20.4420   22.5600 C   0  0  0  0  0  2  0  0  0  0  0  0
  -33.7880  -21.1070   23.9430 C   0  0  0  0  0  2  0  0  0  0  0  0
  -32.3450  -21.5270   24.3250 C   0  0  0  0  0  2  0  0  0  0  0  0
  -31.4160  -20.3790   24.4540 N   0  0  0  0  0  4  0  0  0  0  0  0
  -30.6510  -20.6670   25.0450 H   0  0  0  0  0  0  0  0  0  0  0  0
  -31.8820  -19.6230   24.9290 H   0  0  0  0  0  0  0  0  0  0  0  0
  -30.8220  -19.8950   23.1930 C   0  0  0  0  0  2  0  0  0  0  0  0
  -30.9500  -18.3700   23.0450 C   0  0  0  0  0  2  0  0  0  0  0  0
  -30.6670  -17.9410   21.5990 C   0  0  0  0  0  2  0  0  0  0  0  0
  -30.2680  -16.4700   21.4410 C   0  0  0  0  0  2  0  0  0  0  0  0
  -31.4150  -15.5350   21.0260 C   0  0  0  0  0  2  0  0  0  0  0  0
  -31.0590  -13.4120   19.7960 C   0  0  0  0  0  0  0  0  0  0  0  0
  -30.4020  -11.3130   18.6840 C   0  0  0  0  0  2  0  0  0  0  0  0
  -29.3560  -11.5490   17.5790 C   0  0  0  0  0  2  0  0  0  0  0  0
  -27.9350  -11.5470   18.1680 C   0  0  0  0  0  2  0  0  0  0  0  0
  -27.7990  -12.4740   19.4050 C   0  0  0  0  0  3  0  0  0  0  0  0
  -28.9350  -12.2000   20.4170 C   0  0  0  0  0  2  0  0  0  0  0  0
  -30.2350  -12.3370   19.7250 N   0  0  0  0  0  0  0  0  0  0  0  0
  -31.9600  -13.6460   18.9830 O   0  0  0  0  0  0  0  0  0  0  0  0
  -30.8670  -14.1980   20.8560 N   0  0  0  0  0  0  0  0  0  0  0  0
  -30.1860  -13.8820   21.5320 H   0  0  0  0  0  0  0  0  0  0  0  0
  -25.5460  -13.3120   20.3420 C   0  0  0  0  0  0  0  0  0  0  0  0
  -24.4520  -12.6470   20.8220 C   0  0  0  0  0  0  0  0  0  0  0  0
  -24.7750  -11.2560   20.7550 C   0  0  0  0  0  0  0  0  0  0  0  0
  -26.4780  -12.3360   20.0220 N   0  0  0  0  0  0  0  0  0  0  0  0
  -26.0170  -11.0940   20.3190 N   0  0  0  0  0  0  0  0  0  0  0  0
  -23.9610  -10.0680   21.0350 C   0  0  0  0  0  0  0  0  0  0  0  0
  -24.3900   -9.0760   21.9460 C   0  0  0  0  0  3  0  0  0  0  0  0
  -23.5800   -7.9500   22.2110 C   0  0  0  0  0  3  0  0  0  0  0  0
  -22.3280   -7.8100   21.5680 C   0  0  0  0  0  0  0  0  0  0  0  0
  -21.9170   -8.7880   20.6460 C   0  0  0  0  0  3  0  0  0  0  0  0
  -22.7240   -9.9060   20.3780 C   0  0  0  0  0  3  0  0  0  0  0  0
  -21.4850   -6.7390   21.7430 O   0  0  0  0  0  0  0  0  0  0  0  0
  -21.4660   -6.0230   22.9130 C   0  0  0  0  0  0  0  0  0  0  0  0
  -21.1930   -6.6360   24.1570 C   0  0  0  0  0  3  0  0  0  0  0  0
  -21.1120   -5.8500   25.3230 C   0  0  0  0  0  3  0  0  0  0  0  0
  -21.2950   -4.4560   25.2500 C   0  0  0  0  0  0  0  0  0  0  0  0
  -21.5610   -3.8460   24.0110 C   0  0  0  0  0  3  0  0  0  0  0  0
  -21.6420   -4.6280   22.8460 C   0  0  0  0  0  0  0  0  0  0  0  0
  -21.8760   -4.0310   21.6520 F   0  0  0  0  0  0  0  0  0  0  0  0
  -21.2120   -3.7010   26.3700 F   0  0  0  0  0  0  0  0  0  0  0  0
  -23.1400  -13.2510   21.2350 C   0  0  0  0  0  0  0  0  0  0  0  0
  -22.4520  -12.6280   22.1860 N   0  0  0  0  0  0  0  0  0  0  0  0
  -22.7420  -14.3090   20.7480 O   0  0  0  0  0  0  0  0  0  0  0  0
  -22.7900  -11.7720   22.6000 H   0  0  0  0  0  0  0  0  0  0  0  0
  -21.5730  -13.0140   22.5040 H   0  0  0  0  0  0  0  0  0  0  0  0
  -25.8210  -14.6600   20.1330 N   0  0  0  0  0  0  0  0  0  0  0  0
  -25.1450  -15.3930   20.3250 H   0  0  0  0  0  0  0  0  0  0  0  0
  -26.6900  -15.0150   19.7520 H   0  0  0  0  0  0  0  0  0  0  0  0
  1 53  1  0
  2  4  1  0
  2  1  1  0
  3  1  2  0
  5  6  1  0
  5  2  1  0
  7 10  1  0
  7  6  1  0
  8  7  1  0
  9  7  1  0
 11 10  1  0
 11 12  1  0
 13 24  2  0
 14 12  1  0
 14 19  1  0
 15 23  1  0
 15 25  1  0
 16 22  1  0
 16 18  1  0
 17 23  1  0
 18 17  1  0
 19 18  2  0
 20 21  1  0
 20 14  2  0
 21 16  2  0
 22 15  1  0
 23 13  1  0
 25 27  2  0
 26 25  1  0
 28 26  1  0
 29 38  2  0
 29 34  1  0
 30 26  1  0
 30 34  1  0
 31 30  1  0
 32 33  1  0
 32 31  1  0
 33 29  1  0
 34 35  2  0
 35 36  1  0
 37 36  2  0
 38 37  1  0
 39 13  1  0
 39 40  1  0
 39 49  1  0
 40 43  1  0
 41 45  1  0
 41 40  1  0
 42 41  2  0
 45 44  1  0
 47 45  1  0
 47 48  1  0
 47 46  1  0
 49 52  1  1
 49 50  1  0
 51 49  1  0
 53 54  1  0
 54 55  1  0
 55 56  1  0
 56 58  1  0
 56 57  1  0
 59 56  1  0
 60 59  1  0
 61 60  1  0
 62 61  1  0
 63 62  1  0
 64 72  1  0
 65 70  1  0
 66 67  1  0
 66 65  1  0
 68 67  1  0
 68 77  1  0
 68 69  1  0
 70 64  1  0
 70 69  1  0
 71 64  2  0
 72 63  1  0
 72 73  1  0
 74 75  2  0
 75 94  1  0
 76 75  1  0
 76 79  1  0
 77 78  1  0
 77 74  1  0
 78 76  2  0
 79 80  1  0
 80 81  2  0
 82 85  1  0
 82 81  1  0
 83 82  2  0
 84 83  1  0
 84 79  2  0
 85 86  1  0
 86 87  1  0
 87 88  2  0
 89 88  1  0
 89 93  1  0
 90 89  2  0
 91 86  2  0
 91 90  1  0
 92 91  1  0
 94 95  1  0
 95 98  1  0
 95 97  1  0
 96 94  2  0
 99100  1  0
 99 74  1  0
101 99  1  0
M  ISO  4  11 101  12 101  64 100  72 100
M  END
>  <TORSDO>  (93) 
F 30

>  <SCORE>  (93) 
-8.416

>  <name>  (93) 
93

>  <ligand_id>  (93) 
93

>  <original_smiles>  (93) 
[H]c1c([H])c([H])c2c(c1[H])C([H])([H])C([H])([H])C([H])([H])C2([H])N([H])C(=O)C1([H])N(C(=O)C([H])(N([H])C(=O)C([H])(N([H])C([H])([H])[H])C([H])([H])[H])C(C([H])([H])[H])(C([H])([H])[H])C([H])([H])[H])C([H])([H])c2c([H])c(OC([H])([H])C([H])([H])[N+]([H])([H])C([H])([H])C([H])([H])N([H])C(=O)C([H])([H])C([H])([H])C([H])([H])[N+]([H])([H])C([H])([H])C([H])([H])C([H])([H])C([H])([H])C([H])([H])N([H])C(=O)N3C([H])([H])C([H])([H])C([H])([H])C([H])(n4nc(-c5c([H])c([H])c(Oc6c([H])c([H])c(F)c([H])c6F)c([H])c5[H])c(C(=O)N([H])[H])c4N([H])[H])C3([H])[H])c([H])c([H])c2C1([H])[H]

>  <smiles>  (93) 
[H]c1c([H])c([H])c2c(c1[H])C([H])([H])C([H])([H])C([H])([H])C2([H])N([H])C(=O)C1([H])N(C(=O)C([H])(N([H])C(=O)C([H])(N([H])C([H])([H])[H])C([H])([H])[H])C(C([H])([H])[H])(C([H])([H])[H])C([H])([H])[H])C([H])([H])c2c([H])c(OC([H])([H])C([H])([H])[N+]([H])([H])C([H])([H])C([H])([H])N([H])C(=O)C([H])([H])C([H])([H])C([H])([H])[N+]([H])([H])C([H])([H])C([H])([H])C([H])([H])C([H])([H])C([H])([H])N([H])C(=O)N3C([H])([H])C([H])([H])C([H])([H])C([H])(n4nc(-c5c([H])c([H])c(Oc6c([H])c([H])c(F)c([H])c6F)c([H])c5[H])c(C(=O)N([H])[H])c4N([H])[H])C3([H])[H])c([H])c([H])c2C1([H])[H]

$$$$
94:0:0
     RDKit          3D

 96103  0  0  1  0  0  0  0  0999 V2000
  -26.4220  -21.2430   20.1950 C   0  0  0  0  0  2  0  0  0  0  0  0
  -26.6040  -22.6670   20.5740 N   0  0  0  0  0  4  0  0  0  0  0  0
  -25.6950  -23.0420   20.8030 H   0  0  0  0  0  0  0  0  0  0  0  0
  -27.1710  -22.7300   21.4050 H   0  0  0  0  0  0  0  0  0  0  0  0
  -27.2180  -23.5060   19.5200 C   0  0  0  0  0  2  0  0  0  0  0  0
  -27.5540  -24.9280   20.0140 C   0  0  0  0  0  2  0  0  0  0  0  0
  -28.6550  -25.6050   19.1710 C   0  0  0  0  0  2  0  0  0  0  0  0
  -28.6930  -27.1410   19.2950 C   0  0  0  0  0  2  0  0  0  0  0  0
  -27.8890  -27.7140   18.2730 O   0  0  0  0  0  0  0  0  0  0  0  0
  -24.2500  -31.6370   23.0080 C   0  0  0  0  0  0  0  0  0  0  0  0
  -26.7040  -28.2730   18.6750 C   0  0  0  0  0  0  0  0  0  0  0  0
  -22.9080  -30.4720   21.2880 C   0  0  0  0  0  3  0  0  0  0  0  0
  -24.2310  -29.4330   19.3680 C   0  0  0  0  0  0  0  0  0  0  0  0
  -25.3280  -31.1490   20.8170 C   0  0  0  0  0  2  0  0  0  0  0  0
  -25.4200  -29.9530   19.8960 C   0  0  0  0  0  0  0  0  0  0  0  0
  -26.6630  -29.3740   19.5570 C   0  0  0  0  0  3  0  0  0  0  0  0
  -25.5060  -27.7660   18.1390 C   0  0  0  0  0  3  0  0  0  0  0  0
  -24.2670  -28.3310   18.4930 C   0  0  0  0  0  3  0  0  0  0  0  0
  -22.9430  -30.1130   19.7770 C   0  0  0  0  0  2  0  0  0  0  0  0
  -24.1880  -31.0910   21.7610 N   0  0  0  0  0  0  0  0  0  0  0  0
  -23.2560  -31.6680   23.7440 O   0  0  0  0  0  0  0  0  0  0  0  0
  -22.5110  -29.2070   22.0800 C   0  0  0  0  0  0  0  0  0  0  0  0
  -21.2410  -28.7930   21.9500 N   0  0  0  0  0  0  0  0  0  0  0  0
  -23.3400  -28.6070   22.7700 O   0  0  0  0  0  0  0  0  0  0  0  0
  -20.6230  -29.3470   21.3720 H   0  0  0  0  0  0  0  0  0  0  0  0
  -18.2460  -26.7850   22.1200 C   0  0  0  0  0  0  0  0  0  0  0  0
  -20.6530  -27.6060   22.5700 C   0  0  0  0  0  3  0  0  0  0  0  0
  -21.1160  -26.3140   21.8590 C   0  0  0  0  0  2  0  0  0  0  0  0
  -20.1580  -25.8560   20.7530 C   0  0  0  0  0  2  0  0  0  0  0  0
  -18.7630  -25.5980   21.3250 C   0  0  0  0  0  2  0  0  0  0  0  0
  -19.1320  -27.7360   22.6910 C   0  0  0  0  0  0  0  0  0  0  0  0
  -18.5940  -28.8370   23.3920 C   0  0  0  0  0  3  0  0  0  0  0  0
  -17.2010  -28.9930   23.5270 C   0  0  0  0  0  3  0  0  0  0  0  0
  -16.3300  -28.0390   22.9750 C   0  0  0  0  0  3  0  0  0  0  0  0
  -16.8520  -26.9360   22.2770 C   0  0  0  0  0  3  0  0  0  0  0  0
  -25.5680  -32.2690   23.5580 C   0  0  0  0  0  3  0  0  0  0  0  0
  -25.2470  -33.6230   24.0300 N   0  0  0  0  0  0  0  0  0  0  0  0
  -25.5370  -34.7490   23.3640 C   0  0  0  0  0  0  0  0  0  0  0  0
  -26.1750  -34.7570   22.3080 O   0  0  0  0  0  0  0  0  0  0  0  0
  -24.6770  -33.6860   24.8610 H   0  0  0  0  0  0  0  0  0  0  0  0
  -23.7830  -36.5420   23.2060 C   0  0  0  0  0  1  0  0  0  0  0  0
  -25.0350  -36.0760   23.9650 C   0  0  0  0  0  3  0  0  0  0  0  0
  -27.1690  -36.8920   24.8610 C   0  0  0  0  0  1  0  0  0  0  0  0
  -26.0530  -37.1480   23.9550 N   0  0  0  0  0  0  0  0  0  0  0  0
  -25.6390  -38.0410   24.2050 H   0  0  0  0  0  0  0  0  0  0  0  0
  -26.2340  -31.4180   24.7090 C   0  0  1  0  0  0  0  0  0  0  0  0
  -25.2580  -31.0470   25.8510 C   0  0  0  0  0  1  0  0  0  0  0  0
  -26.8230  -30.1030   24.1440 C   0  0  0  0  0  1  0  0  0  0  0  0
  -27.4180  -32.2040   25.3230 C   0  0  0  0  0  1  0  0  0  0  0  0
  -27.3000  -20.2790   21.0260 C   0  0  0  0  0  2  0  0  0  0  0  0
  -28.8150  -20.3110   20.7030 C   0  0  0  0  0  2  0  0  0  0  0  0
  -29.2010  -19.4570   19.5530 N   0  0  0  0  0  4  0  0  0  0  0  0
  -28.7770  -18.5480   19.6650 H   0  0  0  0  0  0  0  0  0  0  0  0
  -28.8590  -19.8490   18.6910 H   0  0  0  0  0  0  0  0  0  0  0  0
  -30.6620  -19.2440   19.4130 C   0  0  0  0  0  2  0  0  0  0  0  0
  -31.0290  -18.3680   18.1930 C   0  0  0  0  0  2  0  0  0  0  0  0
  -31.0610  -16.8600   18.5100 C   0  0  0  0  0  2  0  0  0  0  0  0
  -32.4650  -16.2210   18.6570 C   0  0  0  0  0  2  0  0  0  0  0  0
  -33.1440  -14.2420   20.1340 C   0  0  0  0  0  0  0  0  0  0  0  0
  -33.0930  -12.2460   21.6050 C   0  0  0  0  0  2  0  0  0  0  0  0
  -32.5550  -10.9860   20.8950 C   0  0  0  0  0  2  0  0  0  0  0  0
  -31.0120  -10.9500   20.8780 C   0  0  0  0  0  2  0  0  0  0  0  0
  -30.3910  -12.2960   20.4200 C   0  0  0  0  0  3  0  0  0  0  0  0
  -31.0200  -13.4500   21.2240 C   0  0  0  0  0  2  0  0  0  0  0  0
  -32.4830  -13.4350   21.0030 N   0  0  0  0  0  0  0  0  0  0  0  0
  -34.3000  -14.0470   19.7410 O   0  0  0  0  0  0  0  0  0  0  0  0
  -32.4000  -15.2970   19.7830 N   0  0  0  0  0  0  0  0  0  0  0  0
  -31.5440  -15.3460   20.3150 H   0  0  0  0  0  0  0  0  0  0  0  0
  -28.0210  -13.3020   20.2720 C   0  0  0  0  0  0  0  0  0  0  0  0
  -26.7840  -12.7540   20.4970 C   0  0  0  0  0  0  0  0  0  0  0  0
  -27.0180  -11.4060   20.9030 C   0  0  0  0  0  0  0  0  0  0  0  0
  -28.9330  -12.2920   20.5460 N   0  0  0  0  0  0  0  0  0  0  0  0
  -28.3170  -11.1630   20.9790 N   0  0  0  0  0  0  0  0  0  0  0  0
  -26.0770  -10.3100   21.1690 C   0  0  0  0  0  0  0  0  0  0  0  0
  -25.9150   -9.7790   22.4660 C   0  0  0  0  0  3  0  0  0  0  0  0
  -24.9930   -8.7370   22.7030 C   0  0  0  0  0  3  0  0  0  0  0  0
  -24.2270   -8.2160   21.6350 C   0  0  0  0  0  0  0  0  0  0  0  0
  -24.4110   -8.7300   20.3380 C   0  0  0  0  0  3  0  0  0  0  0  0
  -25.3330   -9.7640   20.1060 C   0  0  0  0  0  3  0  0  0  0  0  0
  -23.3270   -7.1860   21.7640 O   0  0  0  0  0  0  0  0  0  0  0  0
  -22.5140   -7.0730   22.8620 C   0  0  0  0  0  0  0  0  0  0  0  0
  -21.5870   -8.0780   23.2130 C   0  0  0  0  0  3  0  0  0  0  0  0
  -20.7240   -7.8900   24.3110 C   0  0  0  0  0  3  0  0  0  0  0  0
  -20.7750   -6.6950   25.0540 C   0  0  0  0  0  0  0  0  0  0  0  0
  -21.6930   -5.6930   24.7030 C   0  0  0  0  0  3  0  0  0  0  0  0
  -22.5570   -5.8780   23.6080 C   0  0  0  0  0  0  0  0  0  0  0  0
  -23.4220   -4.8960   23.2640 F   0  0  0  0  0  0  0  0  0  0  0  0
  -19.9410   -6.5110   26.1060 F   0  0  0  0  0  0  0  0  0  0  0  0
  -25.4580  -13.4120   20.2460 C   0  0  0  0  0  0  0  0  0  0  0  0
  -24.4400  -13.0500   21.0190 N   0  0  0  0  0  0  0  0  0  0  0  0
  -25.3310  -14.2820   19.3840 O   0  0  0  0  0  0  0  0  0  0  0  0
  -24.5500  -12.3460   21.7340 H   0  0  0  0  0  0  0  0  0  0  0  0
  -23.5370  -13.4820   20.8900 H   0  0  0  0  0  0  0  0  0  0  0  0
  -28.4390  -14.5600   19.8440 N   0  0  0  0  0  0  0  0  0  0  0  0
  -27.7770  -15.2650   19.5320 H   0  0  0  0  0  0  0  0  0  0  0  0
  -29.4020  -14.7900   19.6270 H   0  0  0  0  0  0  0  0  0  0  0  0
  1  2  1  0
  1 50  1  0
  2  3  1  0
  2  4  1  0
  5  6  1  0
  5  2  1  0
  7  8  1  0
  7  6  1  0
  9 11  1  0
  9  8  1  0
 10 21  2  0
 11 16  1  0
 12 20  1  0
 12 22  1  0
 13 19  1  0
 13 15  1  0
 14 20  1  0
 15 14  1  0
 16 15  2  0
 17 18  1  0
 17 11  2  0
 18 13  2  0
 19 12  1  0
 20 10  1  0
 22 24  2  0
 23 22  1  0
 25 23  1  0
 26 35  2  0
 26 31  1  0
 27 23  1  0
 27 31  1  0
 28 27  1  0
 29 30  1  0
 29 28  1  0
 30 26  1  0
 31 32  2  0
 32 33  1  0
 34 33  2  0
 35 34  1  0
 36 10  1  0
 36 37  1  0
 36 46  1  0
 37 40  1  0
 38 42  1  0
 38 37  1  0
 39 38  2  0
 42 41  1  0
 44 42  1  0
 44 45  1  0
 44 43  1  0
 46 49  1  1
 46 47  1  0
 48 46  1  0
 51 50  1  0
 52 53  1  0
 52 51  1  0
 54 52  1  0
 55 52  1  0
 56 57  1  0
 56 55  1  0
 57 58  1  0
 58 67  1  0
 59 65  1  0
 61 60  1  0
 62 61  1  0
 63 72  1  0
 63 62  1  0
 63 64  1  0
 65 64  1  0
 65 60  1  0
 66 59  2  0
 67 59  1  0
 67 68  1  0
 69 70  2  0
 69 72  1  0
 70 71  1  0
 71 73  2  0
 71 74  1  0
 72 73  1  0
 74 75  1  0
 75 76  2  0
 77 80  1  0
 77 76  1  0
 78 77  2  0
 79 78  1  0
 79 74  2  0
 80 81  1  0
 81 82  2  0
 81 86  1  0
 82 83  1  0
 83 84  2  0
 84 88  1  0
 85 84  1  0
 86 85  2  0
 87 86  1  0
 89 70  1  0
 89 90  1  0
 90 92  1  0
 91 89  2  0
 93 90  1  0
 94 69  1  0
 95 94  1  0
 96 94  1  0
M  ISO  4   8 101   9 101  59 100  67 100
M  END
>  <TORSDO>  (94) 
F 28

>  <SCORE>  (94) 
-4.867

>  <name>  (94) 
94

>  <ligand_id>  (94) 
94

>  <original_smiles>  (94) 
[H]c1c([H])c([H])c2c(c1[H])C([H])([H])C([H])([H])C([H])([H])C2([H])N([H])C(=O)C1([H])N(C(=O)C([H])(N([H])C(=O)C([H])(N([H])C([H])([H])[H])C([H])([H])[H])C(C([H])([H])[H])(C([H])([H])[H])C([H])([H])[H])C([H])([H])c2c([H])c(OC([H])([H])C([H])([H])C([H])([H])C([H])([H])[N+]([H])([H])C([H])([H])C([H])([H])C([H])([H])[N+]([H])([H])C([H])([H])C([H])([H])C([H])([H])C([H])([H])N([H])C(=O)N3C([H])([H])C([H])([H])C([H])([H])C([H])(n4nc(-c5c([H])c([H])c(Oc6c([H])c([H])c(F)c([H])c6F)c([H])c5[H])c(C(=O)N([H])[H])c4N([H])[H])C3([H])[H])c([H])c([H])c2C1([H])[H]

>  <smiles>  (94) 
[H]c1c([H])c([H])c2c(c1[H])C([H])([H])C([H])([H])C([H])([H])C2([H])N([H])C(=O)C1([H])N(C(=O)C([H])(N([H])C(=O)C([H])(N([H])C([H])([H])[H])C([H])([H])[H])C(C([H])([H])[H])(C([H])([H])[H])C([H])([H])[H])C([H])([H])c2c([H])c(OC([H])([H])C([H])([H])C([H])([H])C([H])([H])[N+]([H])([H])C([H])([H])C([H])([H])C([H])([H])[N+]([H])([H])C([H])([H])C([H])([H])C([H])([H])C([H])([H])N([H])C(=O)N3C([H])([H])C([H])([H])C([H])([H])C([H])(n4nc(-c5c([H])c([H])c(Oc6c([H])c([H])c(F)c([H])c6F)c([H])c5[H])c(C(=O)N([H])[H])c4N([H])[H])C3([H])[H])c([H])c([H])c2C1([H])[H]

$$$$
95:0:0
     RDKit          3D

101101  0  0  1  0  0  0  0  0999 V2000
  -21.0550  -19.5370   21.2570 C   0  0  0  0  0  2  0  0  0  0  0  0
  -20.1100  -21.9420   20.9130 C   0  0  0  0  0  3  0  0  0  0  0  0
  -20.6740  -20.9790   21.7030 C   0  0  0  0  0  3  0  0  0  0  0  0
  -19.6150  -23.2560   21.3940 C   0  0  0  0  0  0  0  0  0  0  0  0
  -19.9200  -24.2900   20.5680 N   0  0  0  0  0  0  0  0  0  0  0  0
  -18.9270  -23.4190   22.4020 O   0  0  0  0  0  0  0  0  0  0  0  0
  -20.5330  -24.0250   19.7940 H   0  0  0  0  0  0  0  0  0  0  0  0
  -19.3350  -25.6570   20.4220 C   0  0  0  0  0  2  0  0  0  0  0  0
  -20.2490  -26.8630   20.8590 C   0  0  0  0  0  2  0  0  0  0  0  0
  -20.8530  -27.8810   19.7830 C   0  0  0  0  0  2  0  0  0  0  0  0
  -21.9670  -28.7930   20.4230 C   0  0  0  0  0  2  0  0  0  0  0  0
  -23.3030  -29.3770   19.7830 C   0  0  0  0  0  2  0  0  0  0  0  0
  -24.6180  -29.8670   20.6390 C   0  0  0  0  0  2  0  0  0  0  0  0
  -26.1770  -28.4250   22.8960 C   0  0  2  0  0  0  0  0  0  0  0  0
  -26.1190  -29.9400   23.4390 C   0  0  0  0  0  1  0  0  0  0  0  0
  -24.2270  -29.6300   23.4170 C   0  0  0  0  0  1  0  0  0  0  0  0
  -23.6640  -28.0890   22.6710 C   0  0  0  0  0  2  0  0  0  0  0  0
  -24.7440  -26.8240   21.9000 C   0  0  0  0  0  2  0  0  0  0  0  0
  -26.5900  -27.0950   22.0860 C   0  0  0  0  0  1  0  0  0  0  0  0
  -27.1370  -28.6270   22.7600 N   0  0  0  0  0  1  0  0  0  0  0  0
  -25.9320  -27.8560   24.1470 O   0  0  0  0  0  1  0  0  0  0  0  0
  -25.7220  -29.0680   21.4130 N   0  0  0  0  0  2  0  0  0  0  0  0
  -26.5660  -29.1040   20.8610 H   0  0  0  0  0  0  0  0  0  0  0  0
  -23.7080  -25.1690   20.2520 C   0  0  0  0  0  0  0  0  0  0  0  0
  -23.6480  -25.0330   18.8930 C   0  0  0  0  0  0  0  0  0  0  0  0
  -24.3220  -26.1580   18.3390 C   0  0  0  0  0  0  0  0  0  0  0  0
  -24.4420  -26.2990   20.5260 N   0  0  0  0  0  0  0  0  0  0  0  0
  -24.9090  -26.8290   19.3420 N   0  0  0  0  0  0  0  0  0  0  0  0
  -24.4060  -26.5900   16.9140 C   0  0  0  0  0  0  0  0  0  0  0  0
  -25.6420  -26.7950   16.2620 C   0  0  0  0  0  3  0  0  0  0  0  0
  -25.6950  -27.1320   14.8880 C   0  0  0  0  0  3  0  0  0  0  0  0
  -24.5040  -27.2810   14.1370 C   0  0  0  0  0  0  0  0  0  0  0  0
  -23.2720  -27.1050   14.7890 C   0  0  0  0  0  3  0  0  0  0  0  0
  -23.2240  -26.7630   16.1530 C   0  0  0  0  0  3  0  0  0  0  0  0
  -24.4630  -27.6380   12.8080 O   0  0  0  0  0  0  0  0  0  0  0  0
  -25.4730  -27.3070   11.9380 C   0  0  0  0  0  0  0  0  0  0  0  0
  -25.8450  -25.9640   11.7090 C   0  0  0  0  0  3  0  0  0  0  0  0
  -26.8410  -25.6610   10.7580 C   0  0  0  0  0  3  0  0  0  0  0  0
  -27.4600  -26.6940   10.0310 C   0  0  0  0  0  0  0  0  0  0  0  0
  -27.0860  -28.0310   10.2530 C   0  0  0  0  0  3  0  0  0  0  0  0
  -26.0940  -28.3360   11.2010 C   0  0  0  0  0  0  0  0  0  0  0  0
  -25.7240  -29.6250   11.3930 F   0  0  0  0  0  0  0  0  0  0  0  0
  -28.4150  -26.4030    9.1160 F   0  0  0  0  0  0  0  0  0  0  0  0
  -22.9420  -23.9410   18.1570 C   0  0  0  0  0  0  0  0  0  0  0  0
  -23.4480  -23.5320   17.0030 N   0  0  0  0  0  0  0  0  0  0  0  0
  -21.9690  -23.3790   18.6400 O   0  0  0  0  0  0  0  0  0  0  0  0
  -24.2740  -23.9590   16.6120 H   0  0  0  0  0  0  0  0  0  0  0  0
  -23.0070  -22.7720   16.5040 H   0  0  0  0  0  0  0  0  0  0  0  0
  -23.1980  -24.4020   21.2930 N   0  0  0  0  0  0  0  0  0  0  0  0
  -22.6570  -23.5660   21.1100 H   0  0  0  0  0  0  0  0  0  0  0  0
  -23.3110  -24.5960   22.2790 H   0  0  0  0  0  0  0  0  0  0  0  0
  -22.3650  -19.3000   20.4130 C   0  0  0  0  0  3  0  0  0  0  0  0
  -23.1500  -17.9570   20.7220 C   0  0  0  0  0  3  0  0  0  0  0  0
  -24.3620  -17.5520   19.7890 C   0  0  0  0  0  3  0  0  0  0  0  0
  -25.4740  -16.5700   20.3840 C   0  0  0  0  0  3  0  0  0  0  0  0
  -26.7150  -16.3780   19.5250 N   0  0  0  0  0  4  0  0  0  0  0  0
  -26.5220  -16.7720   18.6180 H   0  0  0  0  0  0  0  0  0  0  0  0
  -26.7580  -15.3800   19.3800 H   0  0  0  0  0  0  0  0  0  0  0  0
  -28.1910  -16.7640   19.9150 C   0  0  0  0  0  1  0  0  0  0  0  0
  -29.3450  -19.6560   19.8990 C   0  0  0  0  0 15  0  0  0  0  0  0
  -28.8310  -21.1700   18.5930 O   0  0  0  0  0  1  0  0  0  0  0  0
  -33.7420  -22.3080   17.0810 C   0  0  0  0  0  0  0  0  0  0  0  0
  -28.4580  -22.6310   18.2060 C   0  0  0  0  0  3  0  0  0  0  0  0
  -32.3250  -21.7940   18.9710 C   0  0  0  0  0  3  0  0  0  0  0  0
  -30.3500  -23.3620   19.5630 C   0  0  0  0  0  3  0  0  0  0  0  0
  -31.9070  -23.9200   17.6760 C   0  0  0  0  0  2  0  0  0  0  0  0
  -30.5030  -23.7620   18.2310 C   0  0  0  0  0  3  0  0  0  0  0  0
  -29.3610  -23.4990   17.4600 C   0  0  0  0  0  2  0  0  0  0  0  0
  -27.9430  -23.3520   19.2600 C   0  0  0  0  0  2  0  0  0  0  0  0
  -29.0370  -23.3290   20.1270 C   0  0  0  0  0  2  0  0  0  0  0  0
  -31.4790  -22.5300   20.0900 C   0  0  0  0  0  2  0  0  0  0  0  0
  -32.7300  -22.7110   17.8920 N   0  0  0  0  0  0  0  0  0  0  0  0
  -34.3720  -21.2580   17.2950 O   0  0  0  0  0  0  0  0  0  0  0  0
  -31.7010  -20.5830   18.2370 C   0  0  0  0  0  0  0  0  0  0  0  0
  -32.4400  -19.5330   18.0830 N   0  0  0  0  0  0  0  0  0  0  0  0
  -30.5630  -20.5460   17.7810 O   0  0  0  0  0  0  0  0  0  0  0  0
  -33.4210  -19.5770   18.3330 H   0  0  0  0  0  0  0  0  0  0  0  0
  -34.3730  -16.7120   17.9030 C   0  0  0  0  0  0  0  0  0  0  0  0
  -31.8770  -18.2120   17.8570 C   0  0  0  0  0  2  0  0  0  0  0  0
  -30.6840  -17.1190   19.2640 C   0  0  0  0  0 15  0  0  0  0  0  0
  -32.2320  -15.8660   20.3360 C   0  0  0  0  0  1  0  0  0  0  0  0
  -33.9980  -16.0080   19.4950 C   0  0  0  0  0  2  0  0  0  0  0  0
  -33.4670  -17.7400   17.2740 C   0  0  0  0  0  0  0  0  0  0  0  0
  -33.8660  -18.2440   15.9840 C   0  0  0  0  0  3  0  0  0  0  0  0
  -34.9310  -17.7340   15.2020 C   0  0  0  0  0  3  0  0  0  0  0  0
  -35.6040  -16.5900   15.6500 C   0  0  0  0  0  3  0  0  0  0  0  0
  -35.3080  -16.0870   16.9550 C   0  0  0  0  0  3  0  0  0  0  0  0
  -34.1640  -23.1580   15.8670 C   0  0  0  0  0  3  0  0  0  0  0  0
  -35.6290  -23.1960   15.9060 N   0  0  0  0  0  0  0  0  0  0  0  0
  -36.3380  -24.1740   16.4790 C   0  0  0  0  0  0  0  0  0  0  0  0
  -35.8180  -25.1930   16.9390 O   0  0  0  0  0  0  0  0  0  0  0  0
  -36.1150  -22.3690   15.5930 H   0  0  0  0  0  0  0  0  0  0  0  0
  -38.2870  -23.5860   17.9570 C   0  0  0  0  0  1  0  0  0  0  0  0
  -37.8650  -23.9970   16.5370 C   0  0  0  0  0  3  0  0  0  0  0  0
  -38.4650  -25.5110   14.7020 C   0  0  0  0  0  1  0  0  0  0  0  0
  -38.6050  -25.2070   16.1240 N   0  0  0  0  0  0  0  0  0  0  0  0
  -39.5960  -25.1160   16.3340 H   0  0  0  0  0  0  0  0  0  0  0  0
  -33.6520  -22.5820   14.4940 C   0  0  1  0  0  0  0  0  0  0  0  0
  -33.9790  -21.0860   14.2710 C   0  0  0  0  0  1  0  0  0  0  0  0
  -32.1210  -22.7470   14.3620 C   0  0  0  0  0  1  0  0  0  0  0  0
  -34.2840  -23.3980   13.3440 C   0  0  0  0  0  1  0  0  0  0  0  0
  1  3  1  0
  2  4  1  0
  2  3  2  0
  4  6  2  0
  5  4  1  0
  7  5  1  0
  8  5  1  0
  8  9  1  0
 10 11  1  0
 10  9  1  0
 12 11  1  0
 12 13  1  0
 13 22  1  0
 14 15  1  1
 14 21  1  0
 17 16  1  0
 18 17  1  0
 19 14  1  0
 20 14  1  0
 23 22  1  0
 24 27  1  0
 24 49  1  0
 25 24  2  0
 26 25  1  0
 26 28  2  0
 27 18  1  0
 28 27  1  0
 29 26  1  0
 30 29  1  0
 31 30  2  0
 32 33  2  0
 32 31  1  0
 33 34  1  0
 34 29  2  0
 35 32  1  0
 36 35  1  0
 37 36  1  0
 38 37  2  0
 39 40  2  0
 39 38  1  0
 40 41  1  0
 41 42  1  0
 41 36  2  0
 43 39  1  0
 44 46  2  0
 44 25  1  0
 45 44  1  0
 47 45  1  0
 48 45  1  0
 49 51  1  0
 50 49  1  0
 52 53  2  0
 52  1  1  0
 54 55  2  0
 54 53  1  0
 56 59  1  0
 56 55  1  0
 57 56  1  0
 58 56  1  0
 62 73  2  0
 62 72  1  0
 63 61  1  0
 63 69  1  0
 64 74  1  0
 64 71  1  0
 65 71  1  0
 65 70  1  0
 66 72  1  0
 66 67  1  0
 67 68  1  0
 67 65  1  0
 68 63  1  0
 69 70  1  0
 72 64  1  0
 75 74  1  0
 75 77  1  0
 76 74  2  0
 78 82  1  0
 79 75  1  0
 82 81  1  0
 83 79  1  0
 83 78  1  0
 84 83  2  0
 85 86  2  0
 85 84  1  0
 86 87  1  0
 87 78  2  0
 88 89  1  0
 88 62  1  0
 89 90  1  0
 90 94  1  0
 90 91  2  0
 92 89  1  0
 94 93  1  0
 95 96  1  0
 96 97  1  0
 96 94  1  0
 98 88  1  0
 98 99  1  6
100 98  1  0
101 98  1  0
M  ISO  4  14 100  22 100  60 101  61 101
M  END
>  <TORSDO>  (95) 
F 31

>  <SCORE>  (95) 
14.038

>  <name>  (95) 
95

>  <ligand_id>  (95) 
95

>  <original_smiles>  (95) 
[H]C(C(=O)N([H])C([H])([H])C([H])([H])C([H])([H])C([H])([H])C([H])([H])C([H])([H])N([H])C(=O)N1C([H])([H])C([H])([H])C([H])([H])C([H])(n2nc(-c3c([H])c([H])c(Oc4c([H])c([H])c(F)c([H])c4F)c([H])c3[H])c(C(=O)N([H])[H])c2N([H])[H])C1([H])[H])=C([H])C([H])([H])C([H])([H])C([H])([H])C([H])([H])C([H])([H])[N+]([H])([H])C([H])([H])C([H])([H])Oc1c([H])c([H])c2c(c1[H])C([H])([H])N(C(=O)C([H])(N([H])C(=O)C([H])(N([H])C([H])([H])[H])C([H])([H])[H])C(C([H])([H])[H])(C([H])([H])[H])C([H])([H])[H])C([H])(C(=O)N([H])C1([H])c3c([H])c([H])c([H])c([H])c3C([H])([H])C([H])([H])C1([H])[H])C2([H])[H]

>  <smiles>  (95) 
[H]C(C(=O)N([H])C([H])([H])C([H])([H])C([H])([H])C([H])([H])C([H])([H])C([H])([H])N([H])C(=O)N1C([H])([H])C([H])([H])C([H])([H])C([H])(n2nc(-c3c([H])c([H])c(Oc4c([H])c([H])c(F)c([H])c4F)c([H])c3[H])c(C(=O)N([H])[H])c2N([H])[H])C1([H])[H])=C([H])C([H])([H])C([H])([H])C([H])([H])C([H])([H])C([H])([H])[N+]([H])([H])C([H])([H])C([H])([H])Oc1c([H])c([H])c2c(c1[H])C([H])([H])N(C(=O)C([H])(N([H])C(=O)C([H])(N([H])C([H])([H])[H])C([H])([H])[H])C(C([H])([H])[H])(C([H])([H])[H])C([H])([H])[H])C([H])(C(=O)N([H])C1([H])c3c([H])c([H])c([H])c([H])c3C([H])([H])C([H])([H])C1([H])[H])C2([H])[H]

$$$$
