0:0:0
     RDKit          3D

 96103  0  0  1  0  0  0  0  0999 V2000
  -29.7290  -22.6680   23.9640 C   0  0  0  0  0  2  0  0  0  0  0  0
  -30.2770  -21.2340   24.0430 C   0  0  0  0  0  2  0  0  0  0  0  0
  -31.6240  -21.0770   23.3060 C   0  0  0  0  0  2  0  0  0  0  0  0
  -31.9120  -19.6690   22.9580 N   0  0  0  0  0  4  0  0  0  0  0  0
  -32.9040  -19.5200   23.0540 H   0  0  0  0  0  0  0  0  0  0  0  0
  -31.4500  -19.0620   23.6170 H   0  0  0  0  0  0  0  0  0  0  0  0
  -31.5200  -19.3060   21.5780 C   0  0  0  0  0  2  0  0  0  0  0  0
  -31.4170  -17.7850   21.3800 C   0  0  0  0  0  2  0  0  0  0  0  0
  -31.5240  -17.3800   19.9000 C   0  0  0  0  0  2  0  0  0  0  0  0
  -32.1120  -15.9780   19.7090 C   0  0  0  0  0  2  0  0  0  0  0  0
  -31.0760  -13.9650   18.6840 C   0  0  0  0  0  0  0  0  0  0  0  0
  -30.9420  -11.5150   18.8140 C   0  0  0  0  0  2  0  0  0  0  0  0
  -29.9160  -10.8540   17.8870 C   0  0  0  0  0  2  0  0  0  0  0  0
  -28.5380  -10.8080   18.5680 C   0  0  0  0  0  2  0  0  0  0  0  0
  -28.1030  -12.1950   19.1060 C   0  0  0  0  0  3  0  0  0  0  0  0
  -29.2220  -12.8490   19.9470 C   0  0  0  0  0  2  0  0  0  0  0  0
  -30.4700  -12.8600   19.1630 N   0  0  0  0  0  0  0  0  0  0  0  0
  -31.8090  -13.9800   17.6880 O   0  0  0  0  0  0  0  0  0  0  0  0
  -31.0770  -14.9590   19.5780 N   0  0  0  0  0  0  0  0  0  0  0  0
  -30.4710  -14.8190   20.3750 H   0  0  0  0  0  0  0  0  0  0  0  0
  -26.0710  -13.1170   20.3910 C   0  0  0  0  0  0  0  0  0  0  0  0
  -24.9740  -12.5010   20.9280 C   0  0  0  0  0  0  0  0  0  0  0  0
  -25.1490  -11.1020   20.6880 C   0  0  0  0  0  0  0  0  0  0  0  0
  -26.8540  -12.1030   19.8590 N   0  0  0  0  0  0  0  0  0  0  0  0
  -26.3130  -10.8800   20.0930 N   0  0  0  0  0  0  0  0  0  0  0  0
  -24.2480   -9.9700   20.9380 C   0  0  0  0  0  0  0  0  0  0  0  0
  -24.4210   -9.1190   22.0520 C   0  0  0  0  0  3  0  0  0  0  0  0
  -23.5300   -8.0470   22.2780 C   0  0  0  0  0  3  0  0  0  0  0  0
  -22.4510   -7.8200   21.3910 C   0  0  0  0  0  0  0  0  0  0  0  0
  -22.2970   -8.6570   20.2720 C   0  0  0  0  0  3  0  0  0  0  0  0
  -23.1870   -9.7200   20.0450 C   0  0  0  0  0  3  0  0  0  0  0  0
  -21.5510   -6.7900   21.5180 O   0  0  0  0  0  0  0  0  0  0  0  0
  -20.9370   -6.5160   22.7130 C   0  0  0  0  0  0  0  0  0  0  0  0
  -20.1080   -7.4590   23.3600 C   0  0  0  0  0  3  0  0  0  0  0  0
  -19.4390   -7.1110   24.5490 C   0  0  0  0  0  3  0  0  0  0  0  0
  -19.5900   -5.8190   25.0900 C   0  0  0  0  0  0  0  0  0  0  0  0
  -20.4100   -4.8770   24.4460 C   0  0  0  0  0  3  0  0  0  0  0  0
  -21.0780   -5.2240   23.2590 C   0  0  0  0  0  0  0  0  0  0  0  0
  -21.8510   -4.3050   22.6290 F   0  0  0  0  0  0  0  0  0  0  0  0
  -18.9410   -5.4810   26.2290 F   0  0  0  0  0  0  0  0  0  0  0  0
  -23.7840  -13.1740   21.5470 C   0  0  0  0  0  0  0  0  0  0  0  0
  -23.1590  -12.5370   22.5320 N   0  0  0  0  0  0  0  0  0  0  0  0
  -23.4260  -14.2950   21.1880 O   0  0  0  0  0  0  0  0  0  0  0  0
  -23.4600  -11.6250   22.8400 H   0  0  0  0  0  0  0  0  0  0  0  0
  -22.3660  -12.9690   22.9860 H   0  0  0  0  0  0  0  0  0  0  0  0
  -26.4580  -14.4490   20.2900 N   0  0  0  0  0  0  0  0  0  0  0  0
  -25.8720  -15.2100   20.6180 H   0  0  0  0  0  0  0  0  0  0  0  0
  -27.2990  -14.7710   19.8290 H   0  0  0  0  0  0  0  0  0  0  0  0
  -28.3830  -22.7570   23.2150 C   0  0  0  0  0  2  0  0  0  0  0  0
  -28.1770  -24.0670   22.5580 N   0  0  0  0  0  4  0  0  0  0  0  0
  -28.4680  -24.8050   23.1820 H   0  0  0  0  0  0  0  0  0  0  0  0
  -27.1840  -24.1730   22.4220 H   0  0  0  0  0  0  0  0  0  0  0  0
  -28.8440  -24.2120   21.2410 C   0  0  0  0  0  2  0  0  0  0  0  0
  -28.4890  -25.5350   20.5470 C   0  0  0  0  0  2  0  0  0  0  0  0
  -29.0790  -25.6390   19.1190 C   0  0  0  0  0  2  0  0  0  0  0  0
  -28.8720  -26.9230   18.5220 O   0  0  0  0  0  0  0  0  0  0  0  0
  -24.7270  -30.8190   22.7160 C   0  0  0  0  0  0  0  0  0  0  0  0
  -27.6210  -27.4600   18.6820 C   0  0  0  0  0  0  0  0  0  0  0  0
  -23.5570  -29.5550   20.9380 C   0  0  0  0  0  3  0  0  0  0  0  0
  -25.0540  -28.5310   19.1400 C   0  0  0  0  0  0  0  0  0  0  0  0
  -25.9670  -30.3370   20.6110 C   0  0  0  0  0  2  0  0  0  0  0  0
  -26.1770  -29.1270   19.7290 C   0  0  0  0  0  0  0  0  0  0  0  0
  -27.4630  -28.5950   19.5010 C   0  0  0  0  0  3  0  0  0  0  0  0
  -26.4850  -26.8740   18.0790 C   0  0  0  0  0  3  0  0  0  0  0  0
  -25.2010  -27.4020   18.3130 C   0  0  0  0  0  3  0  0  0  0  0  0
  -23.7130  -29.1630   19.4420 C   0  0  0  0  0  2  0  0  0  0  0  0
  -24.7730  -30.2410   21.4820 N   0  0  0  0  0  0  0  0  0  0  0  0
  -23.6840  -30.8200   23.3830 O   0  0  0  0  0  0  0  0  0  0  0  0
  -23.1580  -28.2940   21.7390 C   0  0  0  0  0  0  0  0  0  0  0  0
  -21.8900  -27.8710   21.6010 N   0  0  0  0  0  0  0  0  0  0  0  0
  -23.9840  -27.7020   22.4390 O   0  0  0  0  0  0  0  0  0  0  0  0
  -21.2720  -28.4160   21.0170 H   0  0  0  0  0  0  0  0  0  0  0  0
  -18.8550  -25.9360   21.8870 C   0  0  0  0  0  0  0  0  0  0  0  0
  -21.3040  -26.6870   22.2270 C   0  0  0  0  0  3  0  0  0  0  0  0
  -21.6980  -25.4000   21.4660 C   0  0  0  0  0  2  0  0  0  0  0  0
  -20.6750  -24.9930   20.4020 C   0  0  0  0  0  2  0  0  0  0  0  0
  -19.3020  -24.7560   21.0400 C   0  0  0  0  0  2  0  0  0  0  0  0
  -19.7940  -26.8510   22.4300 C   0  0  0  0  0  0  0  0  0  0  0  0
  -19.3250  -27.9510   23.1810 C   0  0  0  0  0  3  0  0  0  0  0  0
  -17.9460  -28.1420   23.3910 C   0  0  0  0  0  3  0  0  0  0  0  0
  -17.0200  -27.2240   22.8650 C   0  0  0  0  0  3  0  0  0  0  0  0
  -17.4760  -26.1220   22.1190 C   0  0  0  0  0  3  0  0  0  0  0  0
  -25.9730  -31.5280   23.3350 C   0  0  0  0  0  3  0  0  0  0  0  0
  -25.5190  -32.8090   23.8910 N   0  0  0  0  0  0  0  0  0  0  0  0
  -25.7130  -34.0010   23.3110 C   0  0  0  0  0  0  0  0  0  0  0  0
  -26.3600  -34.1430   22.2710 O   0  0  0  0  0  0  0  0  0  0  0  0
  -24.9420  -32.7610   24.7170 H   0  0  0  0  0  0  0  0  0  0  0  0
  -23.8230  -35.6610   23.2280 C   0  0  0  0  0  1  0  0  0  0  0  0
  -25.0860  -35.2330   23.9930 C   0  0  0  0  0  3  0  0  0  0  0  0
  -27.1100  -36.1520   25.0360 C   0  0  0  0  0  1  0  0  0  0  0  0
  -26.0120  -36.3820   24.1020 N   0  0  0  0  0  0  0  0  0  0  0  0
  -25.5160  -37.2190   24.3980 H   0  0  0  0  0  0  0  0  0  0  0  0
  -26.6940  -30.6600   24.4390 C   0  0  1  0  0  0  0  0  0  0  0  0
  -25.7410  -30.1210   25.5290 C   0  0  0  0  0  1  0  0  0  0  0  0
  -27.4110  -29.4490   23.7950 C   0  0  0  0  0  1  0  0  0  0  0  0
  -27.7860  -31.5010   25.1400 C   0  0  0  0  0  1  0  0  0  0  0  0
  1  2  1  0
  3  2  1  0
  4  5  1  0
  4  3  1  0
  4  6  1  0
  7  4  1  0
  8  7  1  0
  9  8  1  0
 10  9  1  0
 11 17  1  0
 11 19  1  0
 12 17  1  0
 13 14  1  0
 13 12  1  0
 15 14  1  0
 15 24  1  0
 15 16  1  0
 17 16  1  0
 18 11  2  0
 19 10  1  0
 19 20  1  0
 21 22  2  0
 22 41  1  0
 23 22  1  0
 23 26  1  0
 24 25  1  0
 24 21  1  0
 25 23  2  0
 26 27  1  0
 27 28  2  0
 29 32  1  0
 29 28  1  0
 30 29  2  0
 31 30  1  0
 31 26  2  0
 32 33  1  0
 33 38  2  0
 33 34  1  0
 34 35  2  0
 35 36  1  0
 36 40  1  0
 37 36  2  0
 38 37  1  0
 39 38  1  0
 41 42  1  0
 42 44  1  0
 42 45  1  0
 43 41  2  0
 46 21  1  0
 46 47  1  0
 48 46  1  0
 49  1  1  0
 50 51  1  0
 50 49  1  0
 52 50  1  0
 53 50  1  0
 54 53  1  0
 55 54  1  0
 56 58  1  0
 56 55  1  0
 57 68  2  0
 58 63  1  0
 59 67  1  0
 59 69  1  0
 60 66  1  0
 60 62  1  0
 61 67  1  0
 62 61  1  0
 63 62  2  0
 64 65  1  0
 64 58  2  0
 65 60  2  0
 66 59  1  0
 67 57  1  0
 69 71  2  0
 70 69  1  0
 72 70  1  0
 73 82  2  0
 73 78  1  0
 74 70  1  0
 74 78  1  0
 75 74  1  0
 76 77  1  0
 76 75  1  0
 77 73  1  0
 78 79  2  0
 79 80  1  0
 81 80  2  0
 82 81  1  0
 83 57  1  0
 83 84  1  0
 83 93  1  0
 84 87  1  0
 85 84  1  0
 85 89  1  0
 86 85  2  0
 89 88  1  0
 89 91  1  0
 91 92  1  0
 91 90  1  0
 93 96  1  1
 93 94  1  0
 95 93  1  0
M  ISO  4  11 100  19 100  55 101  56 101
M  END
>  <TORSDO>  (1) 
F 28

>  <SCORE>  (1) 
-5.237

>  <name>  (1) 
0

>  <ligand_id>  (1) 
0

>  <original_smiles>  (1) 
[H]c1c([H])c([H])c2c(c1[H])C([H])([H])C([H])([H])C([H])([H])C2([H])N([H])C(=O)C1([H])N(C(=O)C([H])(N([H])C(=O)C([H])(N([H])C([H])([H])[H])C([H])([H])[H])C(C([H])([H])[H])(C([H])([H])[H])C([H])([H])[H])C([H])([H])c2c([H])c(OC([H])([H])C([H])([H])C([H])([H])[N+]([H])([H])C([H])([H])C([H])([H])C([H])([H])C([H])([H])[N+]([H])([H])C([H])([H])C([H])([H])C([H])([H])C([H])([H])N([H])C(=O)N3C([H])([H])C([H])([H])C([H])([H])C([H])(n4nc(-c5c([H])c([H])c(Oc6c([H])c([H])c(F)c([H])c6F)c([H])c5[H])c(C(=O)N([H])[H])c4N([H])[H])C3([H])[H])c([H])c([H])c2C1([H])[H]

>  <smiles>  (1) 
[H]c1c([H])c([H])c2c(c1[H])C([H])([H])C([H])([H])C([H])([H])C2([H])N([H])C(=O)C1([H])N(C(=O)C([H])(N([H])C(=O)C([H])(N([H])C([H])([H])[H])C([H])([H])[H])C(C([H])([H])[H])(C([H])([H])[H])C([H])([H])[H])C([H])([H])c2c([H])c(OC([H])([H])C([H])([H])C([H])([H])[N+]([H])([H])C([H])([H])C([H])([H])C([H])([H])C([H])([H])[N+]([H])([H])C([H])([H])C([H])([H])C([H])([H])C([H])([H])N([H])C(=O)N3C([H])([H])C([H])([H])C([H])([H])C([H])(n4nc(-c5c([H])c([H])c(Oc6c([H])c([H])c(F)c([H])c6F)c([H])c5[H])c(C(=O)N([H])[H])c4N([H])[H])C3([H])[H])c([H])c([H])c2C1([H])[H]

$$$$
1:0:0
     RDKit          3D

100107  0  0  1  0  0  0  0  0999 V2000
  -23.2610  -22.6520   18.2900 C   0  0  0  0  0  2  0  0  0  0  0  0
  -23.9620  -22.2870   16.9620 C   0  0  0  0  0  2  0  0  0  0  0  0
  -25.4510  -21.9020   17.0770 C   0  0  0  0  0  2  0  0  0  0  0  0
  -25.6840  -20.7200   17.9380 N   0  0  0  0  0  4  0  0  0  0  0  0
  -25.2130  -20.8680   18.8160 H   0  0  0  0  0  0  0  0  0  0  0  0
  -25.2780  -19.9060   17.5030 H   0  0  0  0  0  0  0  0  0  0  0  0
  -27.1150  -20.4700   18.2160 C   0  0  0  0  0  2  0  0  0  0  0  0
  -27.3450  -19.2990   19.1920 C   0  0  0  0  0  2  0  0  0  0  0  0
  -28.8340  -19.1330   19.5500 C   0  0  0  0  0  2  0  0  0  0  0  0
  -29.1090  -17.9850   20.5360 C   0  0  0  0  0  2  0  0  0  0  0  0
  -30.6020  -17.8750   20.8990 C   0  0  0  0  0  2  0  0  0  0  0  0
  -30.9300  -16.7680   21.9200 C   0  0  0  0  0  2  0  0  0  0  0  0
  -30.9670  -14.6530   20.5890 C   0  0  0  0  0  0  0  0  0  0  0  0
  -30.6440  -12.5770   19.2950 C   0  0  0  0  0  2  0  0  0  0  0  0
  -29.7080  -12.8220   18.0960 C   0  0  0  0  0  2  0  0  0  0  0  0
  -28.2310  -12.6750   18.5130 C   0  0  0  0  0  2  0  0  0  0  0  0
  -27.8880  -13.4850   19.7910 C   0  0  0  0  0  3  0  0  0  0  0  0
  -28.9260  -13.2040   20.8990 C   0  0  0  0  0  2  0  0  0  0  0  0
  -30.2690  -13.5110   20.3660 N   0  0  0  0  0  0  0  0  0  0  0  0
  -32.0080  -14.9450   19.9930 O   0  0  0  0  0  0  0  0  0  0  0  0
  -30.4320  -15.4580   21.5140 N   0  0  0  0  0  0  0  0  0  0  0  0
  -29.5960  -15.1240   21.9680 H   0  0  0  0  0  0  0  0  0  0  0  0
  -25.4770  -14.0930   20.4630 C   0  0  0  0  0  0  0  0  0  0  0  0
  -24.4050  -13.3190   20.8190 C   0  0  0  0  0  0  0  0  0  0  0  0
  -24.8680  -11.9680   20.7930 C   0  0  0  0  0  0  0  0  0  0  0  0
  -26.5270  -13.2140   20.2470 N   0  0  0  0  0  0  0  0  0  0  0  0
  -26.1610  -11.9300   20.4990 N   0  0  0  0  0  0  0  0  0  0  0  0
  -24.1420  -10.7040   20.9740 C   0  0  0  0  0  0  0  0  0  0  0  0
  -24.5400   -9.7590   21.9440 C   0  0  0  0  0  3  0  0  0  0  0  0
  -23.8150   -8.5580   22.1120 C   0  0  0  0  0  3  0  0  0  0  0  0
  -22.6810   -8.2960   21.3090 C   0  0  0  0  0  0  0  0  0  0  0  0
  -22.3020   -9.2320   20.3290 C   0  0  0  0  0  3  0  0  0  0  0  0
  -23.0280  -10.4230   20.1600 C   0  0  0  0  0  3  0  0  0  0  0  0
  -21.9320   -7.1460   21.3840 O   0  0  0  0  0  0  0  0  0  0  0  0
  -21.7940   -6.4520   22.5590 C   0  0  0  0  0  0  0  0  0  0  0  0
  -21.2440   -7.0460   23.7150 C   0  0  0  0  0  3  0  0  0  0  0  0
  -21.0570   -6.2760   24.8810 C   0  0  0  0  0  3  0  0  0  0  0  0
  -21.4100   -4.9130   24.8900 C   0  0  0  0  0  0  0  0  0  0  0  0
  -21.9530   -4.3190   23.7370 C   0  0  0  0  0  3  0  0  0  0  0  0
  -22.1420   -5.0860   22.5740 C   0  0  0  0  0  0  0  0  0  0  0  0
  -22.6460   -4.5040   21.4590 F   0  0  0  0  0  0  0  0  0  0  0  0
  -21.2220   -4.1710   26.0060 F   0  0  0  0  0  0  0  0  0  0  0  0
  -23.0040  -13.7940   21.0780 C   0  0  0  0  0  0  0  0  0  0  0  0
  -22.2740  -13.1050   21.9480 N   0  0  0  0  0  0  0  0  0  0  0  0
  -22.5630  -14.8110   20.5430 O   0  0  0  0  0  0  0  0  0  0  0  0
  -22.6400  -12.2820   22.4030 H   0  0  0  0  0  0  0  0  0  0  0  0
  -21.3330  -13.4040   22.1630 H   0  0  0  0  0  0  0  0  0  0  0  0
  -25.6430  -15.4630   20.2890 N   0  0  0  0  0  0  0  0  0  0  0  0
  -24.8780  -16.1210   20.3970 H   0  0  0  0  0  0  0  0  0  0  0  0
  -26.5060  -15.9030   19.9970 H   0  0  0  0  0  0  0  0  0  0  0  0
  -23.9340  -23.7850   19.0910 C   0  0  0  0  0  2  0  0  0  0  0  0
  -23.1710  -24.1240   20.3850 C   0  0  0  0  0  2  0  0  0  0  0  0
  -23.9780  -24.9650   21.3870 C   0  0  0  0  0  2  0  0  0  0  0  0
  -25.1850  -24.2740   21.6900 O   0  0  0  0  0  0  0  0  0  0  0  0
  -25.7440  -24.5360   22.9750 C   0  0  0  0  0  2  0  0  0  0  0  0
  -26.1650  -26.0020   23.2020 C   0  0  0  0  0  2  0  0  0  0  0  0
  -26.9070  -26.5820   22.1370 O   0  0  0  0  0  0  0  0  0  0  0  0
  -28.0640  -25.8740   21.7110 C   0  0  0  0  0  2  0  0  0  0  0  0
  -28.8860  -26.7540   20.7490 C   0  0  0  0  0  2  0  0  0  0  0  0
  -28.1760  -27.0050   19.5340 O   0  0  0  0  0  0  0  0  0  0  0  0
  -24.4840  -31.9060   23.1640 C   0  0  0  0  0  0  0  0  0  0  0  0
  -27.0310  -27.7540   19.6610 C   0  0  0  0  0  0  0  0  0  0  0  0
  -23.2170  -30.6220   21.4660 C   0  0  0  0  0  3  0  0  0  0  0  0
  -24.6210  -29.2050   19.8760 C   0  0  0  0  0  0  0  0  0  0  0  0
  -25.7270  -31.0180   21.2020 C   0  0  0  0  0  2  0  0  0  0  0  0
  -25.7920  -29.7010   20.4620 C   0  0  0  0  0  0  0  0  0  0  0  0
  -26.9980  -28.9800   20.3630 C   0  0  0  0  0  3  0  0  0  0  0  0
  -25.8520  -27.2710   19.0620 C   0  0  0  0  0  3  0  0  0  0  0  0
  -24.6430  -27.9850   19.1760 C   0  0  0  0  0  3  0  0  0  0  0  0
  -23.3740  -30.0450   20.0320 C   0  0  0  0  0  2  0  0  0  0  0  0
  -24.4960  -31.1940   22.0020 N   0  0  0  0  0  0  0  0  0  0  0  0
  -23.4250  -32.1330   23.7640 O   0  0  0  0  0  0  0  0  0  0  0  0
  -22.6080  -29.5300   22.3710 C   0  0  0  0  0  0  0  0  0  0  0  0
  -21.2800  -29.3510   22.2790 N   0  0  0  0  0  0  0  0  0  0  0  0
  -23.3230  -28.8490   23.1120 O   0  0  0  0  0  0  0  0  0  0  0  0
  -20.7620  -29.9550   21.6570 H   0  0  0  0  0  0  0  0  0  0  0  0
  -17.9350  -28.1000   22.7780 C   0  0  0  0  0  0  0  0  0  0  0  0
  -20.4960  -28.3540   23.0060 C   0  0  0  0  0  3  0  0  0  0  0  0
  -20.5930  -26.9660   22.3300 C   0  0  0  0  0  2  0  0  0  0  0  0
  -19.4690  -26.7100   21.3220 C   0  0  0  0  0  2  0  0  0  0  0  0
  -18.0990  -26.8050   22.0000 C   0  0  0  0  0  2  0  0  0  0  0  0
  -19.0590  -28.8360   23.2340 C   0  0  0  0  0  0  0  0  0  0  0  0
  -18.8500  -30.0550   23.9160 C   0  0  0  0  0  3  0  0  0  0  0  0
  -17.5470  -30.5380   24.1430 C   0  0  0  0  0  3  0  0  0  0  0  0
  -16.4360  -29.7970   23.7050 C   0  0  0  0  0  3  0  0  0  0  0  0
  -16.6310  -28.5770   23.0300 C   0  0  0  0  0  3  0  0  0  0  0  0
  -25.7950  -32.4900   23.7780 C   0  0  0  0  0  3  0  0  0  0  0  0
  -25.5300  -33.8920   24.1260 N   0  0  0  0  0  0  0  0  0  0  0  0
  -25.9110  -34.9450   23.3900 C   0  0  0  0  0  0  0  0  0  0  0  0
  -26.5960  -34.8360   22.3690 O   0  0  0  0  0  0  0  0  0  0  0  0
  -24.9280  -34.0540   24.9200 H   0  0  0  0  0  0  0  0  0  0  0  0
  -24.2660  -36.8100   23.0210 C   0  0  0  0  0  1  0  0  0  0  0  0
  -25.4640  -36.3410   23.8630 C   0  0  0  0  0  3  0  0  0  0  0  0
  -27.6020  -37.1240   24.7800 C   0  0  0  0  0  1  0  0  0  0  0  0
  -26.5390  -37.3550   23.8060 N   0  0  0  0  0  0  0  0  0  0  0  0
  -26.1640  -38.2870   23.9620 H   0  0  0  0  0  0  0  0  0  0  0  0
  -26.3070  -31.6860   25.0360 C   0  0  1  0  0  0  0  0  0  0  0  0
  -25.2230  -31.4720   26.1160 C   0  0  0  0  0  1  0  0  0  0  0  0
  -26.8360  -30.2950   24.6150 C   0  0  0  0  0  1  0  0  0  0  0  0
  -27.4940  -32.4330   25.6900 C   0  0  0  0  0  1  0  0  0  0  0  0
  1 51  1  0
  2  3  1  0
  2  1  1  0
  3  4  1  0
  4  7  1  0
  4  5  1  0
  6  4  1  0
  7  8  1  0
  8  9  1  0
  9 10  1  0
 10 11  1  0
 11 12  1  0
 13 21  1  0
 14 19  1  0
 15 16  1  0
 15 14  1  0
 17 16  1  0
 17 26  1  0
 17 18  1  0
 19 13  1  0
 19 18  1  0
 20 13  2  0
 21 12  1  0
 21 22  1  0
 23 24  2  0
 24 43  1  0
 25 24  1  0
 25 28  1  0
 26 23  1  0
 26 27  1  0
 27 25  2  0
 28 29  1  0
 29 30  2  0
 31 34  1  0
 31 30  1  0
 32 31  2  0
 33 32  1  0
 33 28  2  0
 34 35  1  0
 35 40  2  0
 35 36  1  0
 36 37  2  0
 37 38  1  0
 38 42  1  0
 39 38  2  0
 40 39  1  0
 41 40  1  0
 43 44  1  0
 44 47  1  0
 44 46  1  0
 45 43  2  0
 48 49  1  0
 48 23  1  0
 50 48  1  0
 51 52  1  0
 52 53  1  0
 53 54  1  0
 54 55  1  0
 55 56  1  0
 57 56  1  0
 58 57  1  0
 59 58  1  0
 60 62  1  0
 60 59  1  0
 61 72  2  0
 62 67  1  0
 63 71  1  0
 63 73  1  0
 64 70  1  0
 64 66  1  0
 65 71  1  0
 66 65  1  0
 67 66  2  0
 68 69  1  0
 68 62  2  0
 69 64  2  0
 70 63  1  0
 71 61  1  0
 73 75  2  0
 74 73  1  0
 76 74  1  0
 77 86  2  0
 77 82  1  0
 78 74  1  0
 78 82  1  0
 79 78  1  0
 80 81  1  0
 80 79  1  0
 81 77  1  0
 82 83  2  0
 83 84  1  0
 85 84  2  0
 86 85  1  0
 87 61  1  0
 87 88  1  0
 87 97  1  0
 88 91  1  0
 89 93  1  0
 89 88  1  0
 90 89  2  0
 93 92  1  0
 95 93  1  0
 95 96  1  0
 95 94  1  0
 97100  1  1
 97 98  1  0
 99 97  1  0
M  ISO  4  13 100  21 100  59 101  60 101
M  END
>  <TORSDO>  (2) 
F 34

>  <SCORE>  (2) 
-9.717

>  <name>  (2) 
1

>  <ligand_id>  (2) 
1

>  <original_smiles>  (2) 
[H]c1c([H])c([H])c2c(c1[H])C([H])([H])C([H])([H])C([H])([H])C2([H])N([H])C(=O)C1([H])N(C(=O)C([H])(N([H])C(=O)C([H])(N([H])C([H])([H])[H])C([H])([H])[H])C(C([H])([H])[H])(C([H])([H])[H])C([H])([H])[H])C([H])([H])c2c([H])c(OC([H])([H])C([H])([H])OC([H])([H])C([H])([H])OC([H])([H])C([H])([H])C([H])([H])C([H])([H])C([H])([H])C([H])([H])[N+]([H])([H])C([H])([H])C([H])([H])C([H])([H])C([H])([H])C([H])([H])C([H])([H])N([H])C(=O)N3C([H])([H])C([H])([H])C([H])([H])C([H])(n4nc(-c5c([H])c([H])c(Oc6c([H])c([H])c(F)c([H])c6F)c([H])c5[H])c(C(=O)N([H])[H])c4N([H])[H])C3([H])[H])c([H])c([H])c2C1([H])[H]

>  <smiles>  (2) 
[H]c1c([H])c([H])c2c(c1[H])C([H])([H])C([H])([H])C([H])([H])C2([H])N([H])C(=O)C1([H])N(C(=O)C([H])(N([H])C(=O)C([H])(N([H])C([H])([H])[H])C([H])([H])[H])C(C([H])([H])[H])(C([H])([H])[H])C([H])([H])[H])C([H])([H])c2c([H])c(OC([H])([H])C([H])([H])OC([H])([H])C([H])([H])OC([H])([H])C([H])([H])C([H])([H])C([H])([H])C([H])([H])C([H])([H])[N+]([H])([H])C([H])([H])C([H])([H])C([H])([H])C([H])([H])C([H])([H])C([H])([H])N([H])C(=O)N3C([H])([H])C([H])([H])C([H])([H])C([H])(n4nc(-c5c([H])c([H])c(Oc6c([H])c([H])c(F)c([H])c6F)c([H])c5[H])c(C(=O)N([H])[H])c4N([H])[H])C3([H])[H])c([H])c([H])c2C1([H])[H]

$$$$
2:0:0
     RDKit          3D

 98105  0  0  1  0  0  0  0  0999 V2000
  -24.9020  -22.5840   17.0520 C   0  0  0  0  0  2  0  0  0  0  0  0
  -25.0190  -23.6020   15.9800 N   0  0  0  0  0  4  0  0  0  0  0  0
  -24.1590  -23.5340   15.4580 H   0  0  0  0  0  0  0  0  0  0  0  0
  -25.7510  -23.3520   15.3340 H   0  0  0  0  0  0  0  0  0  0  0  0
  -25.1290  -25.0250   16.3890 C   0  0  0  0  0  2  0  0  0  0  0  0
  -26.5760  -25.5520   16.4680 C   0  0  0  0  0  2  0  0  0  0  0  0
  -27.0520  -25.2790   17.7710 O   0  0  0  0  0  0  0  0  0  0  0  0
  -28.3330  -25.8030   18.0850 C   0  0  0  0  0  2  0  0  0  0  0  0
  -28.5560  -25.6570   19.6070 C   0  0  0  0  0  2  0  0  0  0  0  0
  -28.4230  -26.8770   20.3480 O   0  0  0  0  0  0  0  0  0  0  0  0
  -24.6500  -32.0060   23.5110 C   0  0  0  0  0  0  0  0  0  0  0  0
  -27.2160  -27.5440   20.3960 C   0  0  0  0  0  0  0  0  0  0  0  0
  -23.4120  -30.6300   21.8740 C   0  0  0  0  0  3  0  0  0  0  0  0
  -24.8310  -29.0730   20.4450 C   0  0  0  0  0  0  0  0  0  0  0  0
  -25.9410  -30.9550   21.6560 C   0  0  0  0  0  2  0  0  0  0  0  0
  -26.0000  -29.5830   21.0180 C   0  0  0  0  0  0  0  0  0  0  0  0
  -27.1910  -28.8210   20.9940 C   0  0  0  0  0  3  0  0  0  0  0  0
  -26.0090  -27.0260   19.8690 C   0  0  0  0  0  3  0  0  0  0  0  0
  -24.8290  -27.7890   19.8740 C   0  0  0  0  0  3  0  0  0  0  0  0
  -23.6020  -29.9530   20.4920 C   0  0  0  0  0  2  0  0  0  0  0  0
  -24.6880  -31.2090   22.4070 N   0  0  0  0  0  0  0  0  0  0  0  0
  -23.5750  -32.2900   24.0590 O   0  0  0  0  0  0  0  0  0  0  0  0
  -22.7530  -29.6140   22.8320 C   0  0  0  0  0  0  0  0  0  0  0  0
  -21.4480  -29.3650   22.6290 N   0  0  0  0  0  0  0  0  0  0  0  0
  -23.4110  -29.0530   23.7120 O   0  0  0  0  0  0  0  0  0  0  0  0
  -20.9830  -29.8610   21.8810 H   0  0  0  0  0  0  0  0  0  0  0  0
  -18.1310  -27.9570   22.8860 C   0  0  0  0  0  0  0  0  0  0  0  0
  -20.6250  -28.4220   23.3850 C   0  0  0  0  0  3  0  0  0  0  0  0
  -20.8840  -26.9690   22.9250 C   0  0  0  0  0  2  0  0  0  0  0  0
  -19.9130  -26.4990   21.8390 C   0  0  0  0  0  2  0  0  0  0  0  0
  -18.4650  -26.5820   22.3340 C   0  0  0  0  0  2  0  0  0  0  0  0
  -19.1460  -28.8250   23.3650 C   0  0  0  0  0  0  0  0  0  0  0  0
  -18.7850  -30.1050   23.8390 C   0  0  0  0  0  3  0  0  0  0  0  0
  -17.4400  -30.5190   23.8440 C   0  0  0  0  0  3  0  0  0  0  0  0
  -16.4380  -29.6480   23.3830 C   0  0  0  0  0  3  0  0  0  0  0  0
  -16.7830  -28.3700   22.9080 C   0  0  0  0  0  3  0  0  0  0  0  0
  -25.9500  -32.6150   24.1280 C   0  0  0  0  0  3  0  0  0  0  0  0
  -25.6900  -34.0360   24.3880 N   0  0  0  0  0  0  0  0  0  0  0  0
  -26.0580  -35.0360   23.5760 C   0  0  0  0  0  0  0  0  0  0  0  0
  -26.7220  -34.8550   22.5510 O   0  0  0  0  0  0  0  0  0  0  0  0
  -25.1030  -34.2500   25.1810 H   0  0  0  0  0  0  0  0  0  0  0  0
  -24.3800  -36.8550   23.1340 C   0  0  0  0  0  1  0  0  0  0  0  0
  -25.6160  -36.4620   23.9590 C   0  0  0  0  0  3  0  0  0  0  0  0
  -27.7800  -37.3250   24.7290 C   0  0  0  0  0  1  0  0  0  0  0  0
  -26.6790  -37.4750   23.7810 N   0  0  0  0  0  0  0  0  0  0  0  0
  -26.3010  -38.4140   23.8830 H   0  0  0  0  0  0  0  0  0  0  0  0
  -26.4120  -31.8810   25.4440 C   0  0  1  0  0  0  0  0  0  0  0  0
  -25.2850  -31.7060   26.4890 C   0  0  0  0  0  1  0  0  0  0  0  0
  -26.9750  -30.4790   25.1140 C   0  0  0  0  0  1  0  0  0  0  0  0
  -27.5610  -32.6770   26.1060 C   0  0  0  0  0  1  0  0  0  0  0  0
  -26.2050  -22.3810   17.8500 C   0  0  0  0  0  2  0  0  0  0  0  0
  -26.3290  -21.0060   18.5310 C   0  0  0  0  0  2  0  0  0  0  0  0
  -27.7040  -20.8340   19.1990 C   0  0  0  0  0  2  0  0  0  0  0  0
  -27.9430  -19.4250   19.7630 C   0  0  0  0  0  2  0  0  0  0  0  0
  -29.4010  -19.2240   20.2130 C   0  0  0  0  0  2  0  0  0  0  0  0
  -29.6310  -17.9050   20.8440 N   0  0  0  0  0  4  0  0  0  0  0  0
  -29.2590  -17.1830   20.2510 H   0  0  0  0  0  0  0  0  0  0  0  0
  -29.1360  -17.8750   21.7200 H   0  0  0  0  0  0  0  0  0  0  0  0
  -31.0600  -17.6130   21.0900 C   0  0  0  0  0  2  0  0  0  0  0  0
  -31.2740  -16.3160   21.8970 C   0  0  0  0  0  2  0  0  0  0  0  0
  -30.9140  -14.4420   20.2990 C   0  0  0  0  0  0  0  0  0  0  0  0
  -30.4750  -12.4090   18.9740 C   0  0  0  0  0  2  0  0  0  0  0  0
  -29.4760  -12.6700   17.8340 C   0  0  0  0  0  2  0  0  0  0  0  0
  -28.0260  -12.5250   18.3350 C   0  0  0  0  0  2  0  0  0  0  0  0
  -27.7630  -13.3250   19.6370 C   0  0  0  0  0  3  0  0  0  0  0  0
  -28.8590  -13.0320   20.6850 C   0  0  0  0  0  2  0  0  0  0  0  0
  -30.1720  -13.3280   20.0810 N   0  0  0  0  0  0  0  0  0  0  0  0
  -31.8850  -14.7670   19.6100 O   0  0  0  0  0  0  0  0  0  0  0  0
  -30.5420  -15.1680   21.3610 N   0  0  0  0  0  0  0  0  0  0  0  0
  -29.7770  -14.8020   21.9100 H   0  0  0  0  0  0  0  0  0  0  0  0
  -25.4030  -13.9400   20.4720 C   0  0  0  0  0  0  0  0  0  0  0  0
  -24.3440  -13.1680   20.8720 C   0  0  0  0  0  0  0  0  0  0  0  0
  -24.7860  -11.8130   20.7750 C   0  0  0  0  0  0  0  0  0  0  0  0
  -26.4260  -13.0540   20.1660 N   0  0  0  0  0  0  0  0  0  0  0  0
  -26.0590  -11.7690   20.4020 N   0  0  0  0  0  0  0  0  0  0  0  0
  -24.0540  -10.5540   20.9590 C   0  0  0  0  0  0  0  0  0  0  0  0
  -24.4750   -9.5880   21.9010 C   0  0  0  0  0  3  0  0  0  0  0  0
  -23.7460   -8.3920   22.0740 C   0  0  0  0  0  3  0  0  0  0  0  0
  -22.5840   -8.1530   21.3050 C   0  0  0  0  0  0  0  0  0  0  0  0
  -22.1820   -9.1060   20.3540 C   0  0  0  0  0  3  0  0  0  0  0  0
  -22.9100  -10.2940   20.1780 C   0  0  0  0  0  3  0  0  0  0  0  0
  -21.8260   -7.0080   21.3860 O   0  0  0  0  0  0  0  0  0  0  0  0
  -21.7200   -6.2990   22.5540 C   0  0  0  0  0  0  0  0  0  0  0  0
  -21.1950   -6.8750   23.7320 C   0  0  0  0  0  3  0  0  0  0  0  0
  -21.0390   -6.0890   24.8910 C   0  0  0  0  0  3  0  0  0  0  0  0
  -21.3950   -4.7280   24.8730 C   0  0  0  0  0  0  0  0  0  0  0  0
  -21.9120   -4.1500   23.7000 C   0  0  0  0  0  3  0  0  0  0  0  0
  -22.0720   -4.9330   22.5430 C   0  0  0  0  0  0  0  0  0  0  0  0
  -22.5490   -4.3660   21.4100 F   0  0  0  0  0  0  0  0  0  0  0  0
  -21.2380   -3.9700   25.9840 F   0  0  0  0  0  0  0  0  0  0  0  0
  -22.9670  -13.6510   21.2260 C   0  0  0  0  0  0  0  0  0  0  0  0
  -22.2710  -12.9350   22.1010 N   0  0  0  0  0  0  0  0  0  0  0  0
  -22.5190  -14.6990   20.7610 O   0  0  0  0  0  0  0  0  0  0  0  0
  -22.6460  -12.0860   22.4990 H   0  0  0  0  0  0  0  0  0  0  0  0
  -21.3490  -13.2400   22.3770 H   0  0  0  0  0  0  0  0  0  0  0  0
  -25.5770  -15.3130   20.3260 N   0  0  0  0  0  0  0  0  0  0  0  0
  -24.8160  -15.9680   20.4710 H   0  0  0  0  0  0  0  0  0  0  0  0
  -26.3950  -15.7380   19.9110 H   0  0  0  0  0  0  0  0  0  0  0  0
  1 51  1  0
  2  5  1  0
  2  1  1  0
  3  2  1  0
  4  2  1  0
  5  6  1  0
  6  7  1  0
  7  8  1  0
  8  9  1  0
  9 10  1  0
 10 12  1  0
 11 22  2  0
 12 17  1  0
 13 21  1  0
 13 23  1  0
 14 20  1  0
 14 16  1  0
 15 21  1  0
 16 15  1  0
 17 16  2  0
 18 19  1  0
 18 12  2  0
 19 14  2  0
 20 13  1  0
 21 11  1  0
 23 25  2  0
 24 23  1  0
 26 24  1  0
 27 36  2  0
 27 32  1  0
 28 24  1  0
 29 28  1  0
 30 31  1  0
 30 29  1  0
 31 27  1  0
 32 28  1  0
 32 33  2  0
 33 34  1  0
 35 34  2  0
 36 35  1  0
 37 11  1  0
 37 38  1  0
 37 47  1  0
 38 41  1  0
 39 43  1  0
 39 38  1  0
 40 39  2  0
 43 42  1  0
 45 46  1  0
 45 43  1  0
 45 44  1  0
 47 50  1  1
 47 48  1  0
 49 47  1  0
 51 52  1  0
 52 53  1  0
 53 54  1  0
 54 55  1  0
 55 56  1  0
 56 59  1  0
 56 58  1  0
 57 56  1  0
 59 60  1  0
 61 69  1  0
 62 67  1  0
 63 64  1  0
 63 62  1  0
 65 64  1  0
 65 74  1  0
 65 66  1  0
 67 61  1  0
 67 66  1  0
 68 61  2  0
 69 60  1  0
 69 70  1  0
 71 72  2  0
 72 91  1  0
 73 72  1  0
 73 76  1  0
 74 75  1  0
 74 71  1  0
 75 73  2  0
 76 77  1  0
 77 78  2  0
 79 82  1  0
 79 78  1  0
 80 79  2  0
 81 80  1  0
 81 76  2  0
 82 83  1  0
 83 84  1  0
 84 85  2  0
 86 85  1  0
 86 90  1  0
 87 86  2  0
 88 83  2  0
 88 87  1  0
 89 88  1  0
 91 92  1  0
 92 95  1  0
 92 94  1  0
 93 91  2  0
 96 97  1  0
 96 71  1  0
 98 96  1  0
M  ISO  4   9 101  10 101  61 100  69 100
M  END
>  <TORSDO>  (3) 
F 30

>  <SCORE>  (3) 
-10.208

>  <name>  (3) 
2

>  <ligand_id>  (3) 
2

>  <original_smiles>  (3) 
[H]c1c([H])c([H])c2c(c1[H])C([H])([H])C([H])([H])C([H])([H])C2([H])N([H])C(=O)C1([H])N(C(=O)C([H])(N([H])C(=O)C([H])(N([H])C([H])([H])[H])C([H])([H])[H])C(C([H])([H])[H])(C([H])([H])[H])C([H])([H])[H])C([H])([H])c2c([H])c(OC([H])([H])C([H])([H])OC([H])([H])C([H])([H])[N+]([H])([H])C([H])([H])C([H])([H])C([H])([H])C([H])([H])C([H])([H])C([H])([H])[N+]([H])([H])C([H])([H])C([H])([H])N([H])C(=O)N3C([H])([H])C([H])([H])C([H])([H])C([H])(n4nc(-c5c([H])c([H])c(Oc6c([H])c([H])c(F)c([H])c6F)c([H])c5[H])c(C(=O)N([H])[H])c4N([H])[H])C3([H])[H])c([H])c([H])c2C1([H])[H]

>  <smiles>  (3) 
[H]c1c([H])c([H])c2c(c1[H])C([H])([H])C([H])([H])C([H])([H])C2([H])N([H])C(=O)C1([H])N(C(=O)C([H])(N([H])C(=O)C([H])(N([H])C([H])([H])[H])C([H])([H])[H])C(C([H])([H])[H])(C([H])([H])[H])C([H])([H])[H])C([H])([H])c2c([H])c(OC([H])([H])C([H])([H])OC([H])([H])C([H])([H])[N+]([H])([H])C([H])([H])C([H])([H])C([H])([H])C([H])([H])C([H])([H])C([H])([H])[N+]([H])([H])C([H])([H])C([H])([H])N([H])C(=O)N3C([H])([H])C([H])([H])C([H])([H])C([H])(n4nc(-c5c([H])c([H])c(Oc6c([H])c([H])c(F)c([H])c6F)c([H])c5[H])c(C(=O)N([H])[H])c4N([H])[H])C3([H])[H])c([H])c([H])c2C1([H])[H]

$$$$
3:0:0
     RDKit          3D

 94101  0  0  1  0  0  0  0  0999 V2000
  -28.4010  -21.5370   22.7540 C   0  0  0  0  0  2  0  0  0  0  0  0
  -28.0480  -23.0260   22.5670 C   0  0  0  0  0  2  0  0  0  0  0  0
  -28.8470  -23.7050   21.5230 N   0  0  0  0  0  4  0  0  0  0  0  0
  -28.7530  -23.2180   20.6480 H   0  0  0  0  0  0  0  0  0  0  0  0
  -29.8170  -23.6580   21.7990 H   0  0  0  0  0  0  0  0  0  0  0  0
  -28.4720  -25.1290   21.3310 C   0  0  0  0  0  2  0  0  0  0  0  0
  -29.1930  -25.8100   20.1470 C   0  0  0  0  0  2  0  0  0  0  0  0
  -29.0870  -27.2340   20.2310 O   0  0  0  0  0  0  0  0  0  0  0  0
  -24.8110  -31.9810   23.3310 C   0  0  0  0  0  0  0  0  0  0  0  0
  -27.8470  -27.8320   20.1990 C   0  0  0  0  0  0  0  0  0  0  0  0
  -23.7770  -30.5740   21.5950 C   0  0  0  0  0  3  0  0  0  0  0  0
  -25.3610  -29.1750   20.1750 C   0  0  0  0  0  0  0  0  0  0  0  0
  -26.2690  -31.0940   21.5070 C   0  0  0  0  0  2  0  0  0  0  0  0
  -26.4590  -29.7530   20.8250 C   0  0  0  0  0  0  0  0  0  0  0  0
  -27.7000  -29.0880   20.8260 C   0  0  0  0  0  3  0  0  0  0  0  0
  -26.7310  -27.2610   19.5440 C   0  0  0  0  0  3  0  0  0  0  0  0
  -25.4900  -27.9310   19.5310 C   0  0  0  0  0  3  0  0  0  0  0  0
  -24.0680  -29.9500   20.2000 C   0  0  0  0  0  2  0  0  0  0  0  0
  -24.9700  -31.2310   22.2050 N   0  0  0  0  0  0  0  0  0  0  0  0
  -23.6900  -32.1640   23.8260 O   0  0  0  0  0  0  0  0  0  0  0  0
  -23.1490  -29.4940   22.5000 C   0  0  0  0  0  0  0  0  0  0  0  0
  -21.8400  -29.3710   22.3200 N   0  0  0  0  0  0  0  0  0  0  0  0
  -23.8160  -28.7950   23.2640 O   0  0  0  0  0  0  0  0  0  0  0  0
  -21.4330  -30.0990   21.7500 H   0  0  0  0  0  0  0  0  0  0  0  0
  -18.4720  -27.7720   22.5710 C   0  0  0  0  0  0  0  0  0  0  0  0
  -20.9240  -28.2990   22.6060 C   0  0  0  0  0  3  0  0  0  0  0  0
  -21.2630  -26.8290   22.3210 C   0  0  0  0  0  2  0  0  0  0  0  0
  -20.2090  -26.2740   21.3390 C   0  0  0  0  0  2  0  0  0  0  0  0
  -18.7660  -26.4440   21.8670 C   0  0  0  0  0  2  0  0  0  0  0  0
  -19.5120  -28.6140   23.0330 C   0  0  0  0  0  0  0  0  0  0  0  0
  -19.2100  -29.8250   23.6880 C   0  0  0  0  0  3  0  0  0  0  0  0
  -17.8660  -30.2290   23.8360 C   0  0  0  0  0  3  0  0  0  0  0  0
  -16.8320  -29.4090   23.3490 C   0  0  0  0  0  3  0  0  0  0  0  0
  -17.1350  -28.1770   22.7410 C   0  0  0  0  0  3  0  0  0  0  0  0
  -26.0250  -32.6570   24.0350 C   0  0  0  0  0  3  0  0  0  0  0  0
  -26.4890  -31.8930   25.3340 C   0  0  1  0  0  0  0  0  0  0  0  0
  -25.3390  -31.5910   26.3210 C   0  0  0  0  0  1  0  0  0  0  0  0
  -27.1550  -30.5480   24.9650 C   0  0  0  0  0  1  0  0  0  0  0  0
  -27.5570  -32.7270   26.0790 C   0  0  0  0  0  1  0  0  0  0  0  0
  -25.6340  -34.0350   24.3500 N   0  0  0  0  0  0  0  0  0  0  0  0
  -25.9680  -35.1050   23.6170 C   0  0  0  0  0  0  0  0  0  0  0  0
  -26.7060  -35.0370   22.6300 O   0  0  0  0  0  0  0  0  0  0  0  0
  -24.9860  -34.1590   25.1130 H   0  0  0  0  0  0  0  0  0  0  0  0
  -24.1960  -36.8250   23.1520 C   0  0  0  0  0  1  0  0  0  0  0  0
  -25.3960  -36.4680   24.0430 C   0  0  0  0  0  3  0  0  0  0  0  0
  -27.4370  -37.4250   25.0150 C   0  0  0  0  0  1  0  0  0  0  0  0
  -26.3910  -37.5620   24.0070 N   0  0  0  0  0  0  0  0  0  0  0  0
  -25.9390  -38.4630   24.1380 H   0  0  0  0  0  0  0  0  0  0  0  0
  -27.7790  -20.5380   21.7480 C   0  0  0  0  0  2  0  0  0  0  0  0
  -28.4700  -20.3720   20.3770 C   0  0  0  0  0  2  0  0  0  0  0  0
  -30.0040  -20.1760   20.4180 C   0  0  0  0  0  2  0  0  0  0  0  0
  -30.4950  -19.2410   21.4600 N   0  0  0  0  0  4  0  0  0  0  0  0
  -30.0010  -19.3890   22.3300 H   0  0  0  0  0  0  0  0  0  0  0  0
  -31.4530  -19.5100   21.6250 H   0  0  0  0  0  0  0  0  0  0  0  0
  -30.5210  -17.8120   21.0780 C   0  0  0  0  0  2  0  0  0  0  0  0
  -31.4560  -16.9600   21.9740 C   0  0  0  0  0  2  0  0  0  0  0  0
  -31.7490  -14.8500   20.6300 C   0  0  0  0  0  0  0  0  0  0  0  0
  -31.3810  -12.7520   19.3600 C   0  0  0  0  0  2  0  0  0  0  0  0
  -30.5200  -12.9960   18.1080 C   0  0  0  0  0  2  0  0  0  0  0  0
  -29.0190  -12.9250   18.4610 C   0  0  0  0  0  2  0  0  0  0  0  0
  -28.6620  -13.8360   19.6640 C   0  0  0  0  0  3  0  0  0  0  0  0
  -29.6160  -13.5440   20.8410 C   0  0  0  0  0  2  0  0  0  0  0  0
  -31.0140  -13.7360   20.3860 N   0  0  0  0  0  0  0  0  0  0  0  0
  -32.7480  -15.1870   19.9830 O   0  0  0  0  0  0  0  0  0  0  0  0
  -31.2900  -15.5400   21.6800 N   0  0  0  0  0  0  0  0  0  0  0  0
  -30.5600  -15.0570   22.1880 H   0  0  0  0  0  0  0  0  0  0  0  0
  -26.2820  -14.6480   20.2410 C   0  0  0  0  0  0  0  0  0  0  0  0
  -25.1430  -13.9680   20.5680 C   0  0  0  0  0  0  0  0  0  0  0  0
  -25.4960  -12.5830   20.5610 C   0  0  0  0  0  0  0  0  0  0  0  0
  -27.2640  -13.6850   20.0650 N   0  0  0  0  0  0  0  0  0  0  0  0
  -26.7900  -12.4390   20.3110 N   0  0  0  0  0  0  0  0  0  0  0  0
  -24.6660  -11.3870   20.7280 C   0  0  0  0  0  0  0  0  0  0  0  0
  -24.9680  -10.4010   21.6920 C   0  0  0  0  0  3  0  0  0  0  0  0
  -24.1410   -9.2660   21.8380 C   0  0  0  0  0  3  0  0  0  0  0  0
  -22.9970   -9.1100   21.0210 C   0  0  0  0  0  0  0  0  0  0  0  0
  -22.7140  -10.0840   20.0480 C   0  0  0  0  0  3  0  0  0  0  0  0
  -23.5400  -11.2100   19.9020 C   0  0  0  0  0  3  0  0  0  0  0  0
  -22.1570   -8.0230   21.0700 O   0  0  0  0  0  0  0  0  0  0  0  0
  -21.9570   -7.3210   22.2300 C   0  0  0  0  0  0  0  0  0  0  0  0
  -21.4950   -7.9480   23.4060 C   0  0  0  0  0  3  0  0  0  0  0  0
  -21.2360   -7.1780   24.5590 C   0  0  0  0  0  3  0  0  0  0  0  0
  -21.4300   -5.7840   24.5320 C   0  0  0  0  0  0  0  0  0  0  0  0
  -21.8810   -5.1580   23.3580 C   0  0  0  0  0  3  0  0  0  0  0  0
  -22.1420   -5.9240   22.2080 C   0  0  0  0  0  0  0  0  0  0  0  0
  -22.5580   -5.3150   21.0720 F   0  0  0  0  0  0  0  0  0  0  0  0
  -21.1750   -5.0400   25.6340 F   0  0  0  0  0  0  0  0  0  0  0  0
  -23.7760  -14.5570   20.7860 C   0  0  0  0  0  0  0  0  0  0  0  0
  -22.9620  -13.9340   21.6280 N   0  0  0  0  0  0  0  0  0  0  0  0
  -23.4430  -15.6070   20.2410 O   0  0  0  0  0  0  0  0  0  0  0  0
  -23.2390  -13.0810   22.0940 H   0  0  0  0  0  0  0  0  0  0  0  0
  -22.0520  -14.3270   21.8190 H   0  0  0  0  0  0  0  0  0  0  0  0
  -26.5730  -15.9980   20.0600 N   0  0  0  0  0  0  0  0  0  0  0  0
  -25.8410  -16.7010   20.0600 H   0  0  0  0  0  0  0  0  0  0  0  0
  -27.4710  -16.3480   19.7510 H   0  0  0  0  0  0  0  0  0  0  0  0
  2  1  1  0
  3  5  1  0
  3  2  1  0
  4  3  1  0
  6  3  1  0
  7  8  1  0
  7  6  1  0
  9 20  2  0
 10  8  1  0
 10 15  1  0
 11 19  1  0
 11 21  1  0
 12 18  1  0
 12 14  1  0
 13 19  1  0
 14 15  2  0
 14 13  1  0
 16 10  2  0
 17 16  1  0
 17 12  2  0
 18 11  1  0
 19  9  1  0
 21 23  2  0
 22 21  1  0
 24 22  1  0
 25 34  2  0
 25 30  1  0
 26 22  1  0
 26 30  1  0
 27 26  1  0
 28 29  1  0
 28 27  1  0
 29 25  1  0
 30 31  2  0
 31 32  1  0
 33 32  2  0
 34 33  1  0
 35  9  1  0
 35 40  1  0
 35 36  1  0
 36 39  1  1
 36 37  1  0
 38 36  1  0
 40 43  1  0
 41 45  1  0
 41 40  1  0
 42 41  2  0
 45 44  1  0
 47 45  1  0
 47 48  1  0
 47 46  1  0
 49  1  1  0
 50 51  1  0
 50 49  1  0
 51 52  1  0
 52 54  1  0
 52 53  1  0
 55 52  1  0
 55 56  1  0
 57 65  1  0
 58 63  1  0
 59 60  1  0
 59 58  1  0
 61 60  1  0
 61 70  1  0
 61 62  1  0
 63 57  1  0
 63 62  1  0
 64 57  2  0
 65 56  1  0
 65 66  1  0
 67 68  2  0
 68 87  1  0
 69 68  1  0
 69 72  1  0
 70 67  1  0
 70 71  1  0
 71 69  2  0
 72 73  1  0
 73 74  2  0
 75 78  1  0
 75 74  1  0
 76 75  2  0
 77 76  1  0
 77 72  2  0
 78 79  1  0
 79 80  1  0
 80 81  2  0
 82 81  1  0
 82 86  1  0
 83 82  2  0
 84 79  2  0
 84 83  1  0
 85 84  1  0
 87 88  1  0
 88 91  1  0
 88 90  1  0
 89 87  2  0
 92 93  1  0
 92 67  1  0
 94 92  1  0
M  ISO  4   7 101   8 101  57 100  65 100
M  END
>  <TORSDO>  (4) 
F 26

>  <SCORE>  (4) 
-7.198

>  <name>  (4) 
3

>  <ligand_id>  (4) 
3

>  <original_smiles>  (4) 
[H]c1c([H])c([H])c2c(c1[H])C([H])([H])C([H])([H])C([H])([H])C2([H])N([H])C(=O)C1([H])N(C(=O)C([H])(N([H])C(=O)C([H])(N([H])C([H])([H])[H])C([H])([H])[H])C(C([H])([H])[H])(C([H])([H])[H])C([H])([H])[H])C([H])([H])c2c([H])c(OC([H])([H])C([H])([H])[N+]([H])([H])C([H])([H])C([H])([H])C([H])([H])C([H])([H])C([H])([H])[N+]([H])([H])C([H])([H])C([H])([H])N([H])C(=O)N3C([H])([H])C([H])([H])C([H])([H])C([H])(n4nc(-c5c([H])c([H])c(Oc6c([H])c([H])c(F)c([H])c6F)c([H])c5[H])c(C(=O)N([H])[H])c4N([H])[H])C3([H])[H])c([H])c([H])c2C1([H])[H]

>  <smiles>  (4) 
[H]c1c([H])c([H])c2c(c1[H])C([H])([H])C([H])([H])C([H])([H])C2([H])N([H])C(=O)C1([H])N(C(=O)C([H])(N([H])C(=O)C([H])(N([H])C([H])([H])[H])C([H])([H])[H])C(C([H])([H])[H])(C([H])([H])[H])C([H])([H])[H])C([H])([H])c2c([H])c(OC([H])([H])C([H])([H])[N+]([H])([H])C([H])([H])C([H])([H])C([H])([H])C([H])([H])C([H])([H])[N+]([H])([H])C([H])([H])C([H])([H])N([H])C(=O)N3C([H])([H])C([H])([H])C([H])([H])C([H])(n4nc(-c5c([H])c([H])c(Oc6c([H])c([H])c(F)c([H])c6F)c([H])c5[H])c(C(=O)N([H])[H])c4N([H])[H])C3([H])[H])c([H])c([H])c2C1([H])[H]

$$$$
4:0:0
     RDKit          3D

 98105  0  0  1  0  0  0  0  0999 V2000
  -30.1370  -22.1670   21.4040 C   0  0  0  0  0  2  0  0  0  0  0  0
  -30.7520  -20.8520   20.8980 C   0  0  0  0  0  2  0  0  0  0  0  0
  -30.6570  -19.7060   21.9210 C   0  0  0  0  0  2  0  0  0  0  0  0
  -31.6640  -18.6740   21.6170 N   0  0  0  0  0  4  0  0  0  0  0  0
  -32.5280  -19.1500   21.4130 H   0  0  0  0  0  0  0  0  0  0  0  0
  -31.3920  -18.1620   20.7920 H   0  0  0  0  0  0  0  0  0  0  0  0
  -31.9440  -17.7290   22.7110 C   0  0  0  0  0  2  0  0  0  0  0  0
  -33.2520  -16.9760   22.4250 C   0  0  0  0  0  2  0  0  0  0  0  0
  -33.5770  -15.8700   23.4360 C   0  0  0  0  0  2  0  0  0  0  0  0
  -33.1280  -14.4630   23.0080 C   0  0  0  0  0  2  0  0  0  0  0  0
  -31.6220  -14.1550   23.1470 C   0  0  0  0  0  2  0  0  0  0  0  0
  -30.8610  -14.2420   20.7940 C   0  0  0  0  0  0  0  0  0  0  0  0
  -30.4040  -12.3090   19.3460 C   0  0  0  0  0  2  0  0  0  0  0  0
  -29.4530  -12.5480   18.1630 C   0  0  0  0  0  2  0  0  0  0  0  0
  -27.9900  -12.3790   18.6020 C   0  0  0  0  0  2  0  0  0  0  0  0
  -27.6600  -13.2010   19.8720 C   0  0  0  0  0  3  0  0  0  0  0  0
  -28.7020  -12.9540   20.9820 C   0  0  0  0  0  2  0  0  0  0  0  0
  -30.0440  -13.2260   20.4350 N   0  0  0  0  0  0  0  0  0  0  0  0
  -31.7950  -14.6550   20.1020 O   0  0  0  0  0  0  0  0  0  0  0  0
  -30.7160  -14.5950   22.0780 N   0  0  0  0  0  0  0  0  0  0  0  0
  -29.7550  -14.5030   22.3730 H   0  0  0  0  0  0  0  0  0  0  0  0
  -25.2590  -13.8150   20.5670 C   0  0  0  0  0  0  0  0  0  0  0  0
  -24.1840  -13.0440   20.9190 C   0  0  0  0  0  0  0  0  0  0  0  0
  -24.6380  -11.6900   20.8740 C   0  0  0  0  0  0  0  0  0  0  0  0
  -26.3020  -12.9310   20.3380 N   0  0  0  0  0  0  0  0  0  0  0  0
  -25.9290  -11.6480   20.5750 N   0  0  0  0  0  0  0  0  0  0  0  0
  -23.9040  -10.4300   21.0400 C   0  0  0  0  0  0  0  0  0  0  0  0
  -24.3600   -9.4210   21.9170 C   0  0  0  0  0  3  0  0  0  0  0  0
  -23.6290   -8.2240   22.0730 C   0  0  0  0  0  3  0  0  0  0  0  0
  -22.4270   -8.0280   21.3520 C   0  0  0  0  0  0  0  0  0  0  0  0
  -21.9910   -9.0250   20.4630 C   0  0  0  0  0  3  0  0  0  0  0  0
  -22.7220  -10.2130   20.3040 C   0  0  0  0  0  3  0  0  0  0  0  0
  -21.6630   -6.8880   21.4230 O   0  0  0  0  0  0  0  0  0  0  0  0
  -21.6840   -6.0740   22.5270 C   0  0  0  0  0  0  0  0  0  0  0  0
  -21.4000   -6.5650   23.8200 C   0  0  0  0  0  3  0  0  0  0  0  0
  -21.3660   -5.6800   24.9160 C   0  0  0  0  0  3  0  0  0  0  0  0
  -21.6050   -4.3070   24.7210 C   0  0  0  0  0  0  0  0  0  0  0  0
  -21.8820   -3.8150   23.4330 C   0  0  0  0  0  3  0  0  0  0  0  0
  -21.9180   -4.6980   22.3390 C   0  0  0  0  0  0  0  0  0  0  0  0
  -22.1660   -4.2160   21.0960 F   0  0  0  0  0  0  0  0  0  0  0  0
  -21.5640   -3.4550   25.7730 F   0  0  0  0  0  0  0  0  0  0  0  0
  -22.7870  -13.5230   21.1890 C   0  0  0  0  0  0  0  0  0  0  0  0
  -22.0520  -12.8180   22.0430 N   0  0  0  0  0  0  0  0  0  0  0  0
  -22.3550  -14.5550   20.6760 O   0  0  0  0  0  0  0  0  0  0  0  0
  -22.4150  -11.9810   22.4740 H   0  0  0  0  0  0  0  0  0  0  0  0
  -21.1140  -13.1180   22.2690 H   0  0  0  0  0  0  0  0  0  0  0  0
  -25.4340  -15.1850   20.4020 N   0  0  0  0  0  0  0  0  0  0  0  0
  -24.6780  -15.8510   20.5150 H   0  0  0  0  0  0  0  0  0  0  0  0
  -26.3020  -15.6110   20.0980 H   0  0  0  0  0  0  0  0  0  0  0  0
  -30.9920  -23.3840   21.0300 C   0  0  0  0  0  2  0  0  0  0  0  0
  -30.3820  -24.6860   21.5500 C   0  0  0  0  0  2  0  0  0  0  0  0
  -31.3560  -25.8730   21.4460 C   0  0  0  0  0  2  0  0  0  0  0  0
  -30.6700  -27.1600   21.6800 N   0  0  0  0  0  4  0  0  0  0  0  0
  -31.2140  -27.6740   22.3550 H   0  0  0  0  0  0  0  0  0  0  0  0
  -29.7730  -26.9810   22.1020 H   0  0  0  0  0  0  0  0  0  0  0  0
  -30.4940  -28.0200   20.4830 C   0  0  0  0  0  2  0  0  0  0  0  0
  -29.5430  -27.4150   19.4290 C   0  0  0  0  0  2  0  0  0  0  0  0
  -28.4050  -26.7720   20.0080 O   0  0  0  0  0  0  0  0  0  0  0  0
  -24.6040  -31.8730   23.2120 C   0  0  0  0  0  0  0  0  0  0  0  0
  -27.2500  -27.5080   20.0740 C   0  0  0  0  0  0  0  0  0  0  0  0
  -23.3910  -30.4920   21.5530 C   0  0  0  0  0  3  0  0  0  0  0  0
  -24.8390  -28.9640   20.1150 C   0  0  0  0  0  0  0  0  0  0  0  0
  -25.9070  -30.8600   21.3520 C   0  0  0  0  0  2  0  0  0  0  0  0
  -25.9890  -29.4960   20.7090 C   0  0  0  0  0  0  0  0  0  0  0  0
  -27.1930  -28.7690   20.6990 C   0  0  0  0  0  3  0  0  0  0  0  0
  -26.0810  -26.9650   19.5040 C   0  0  0  0  0  3  0  0  0  0  0  0
  -24.8750  -27.6920   19.5150 C   0  0  0  0  0  3  0  0  0  0  0  0
  -23.5960  -29.8220   20.1660 C   0  0  0  0  0  2  0  0  0  0  0  0
  -24.6520  -31.0860   22.1010 N   0  0  0  0  0  0  0  0  0  0  0  0
  -23.5240  -32.1440   23.7540 O   0  0  0  0  0  0  0  0  0  0  0  0
  -22.7360  -29.4650   22.5010 C   0  0  0  0  0  0  0  0  0  0  0  0
  -21.4090  -29.3020   22.3750 N   0  0  0  0  0  0  0  0  0  0  0  0
  -23.4160  -28.8190   23.3020 O   0  0  0  0  0  0  0  0  0  0  0  0
  -20.9240  -29.8770   21.7000 H   0  0  0  0  0  0  0  0  0  0  0  0
  -18.0250  -28.1350   22.8480 C   0  0  0  0  0  0  0  0  0  0  0  0
  -20.5830  -28.3640   23.1330 C   0  0  0  0  0  3  0  0  0  0  0  0
  -20.6740  -26.9390   22.5430 C   0  0  0  0  0  2  0  0  0  0  0  0
  -19.5730  -26.6370   21.5220 C   0  0  0  0  0  2  0  0  0  0  0  0
  -18.1910  -26.7900   22.1620 C   0  0  0  0  0  2  0  0  0  0  0  0
  -19.1490  -28.8810   23.2900 C   0  0  0  0  0  0  0  0  0  0  0  0
  -18.9440  -30.1410   23.8920 C   0  0  0  0  0  3  0  0  0  0  0  0
  -17.6450  -30.6570   24.0550 C   0  0  0  0  0  3  0  0  0  0  0  0
  -16.5340  -29.9090   23.6290 C   0  0  0  0  0  3  0  0  0  0  0  0
  -16.7240  -28.6490   23.0320 C   0  0  0  0  0  3  0  0  0  0  0  0
  -25.8950  -32.4860   23.8410 C   0  0  0  0  0  3  0  0  0  0  0  0
  -25.5820  -33.8660   24.2330 N   0  0  0  0  0  0  0  0  0  0  0  0
  -25.9020  -34.9510   23.5150 C   0  0  0  0  0  0  0  0  0  0  0  0
  -26.5610  -34.8940   22.4730 O   0  0  0  0  0  0  0  0  0  0  0  0
  -24.9880  -33.9850   25.0410 H   0  0  0  0  0  0  0  0  0  0  0  0
  -24.1470  -36.7370   23.2630 C   0  0  0  0  0  1  0  0  0  0  0  0
  -25.4100  -36.3170   24.0330 C   0  0  0  0  0  3  0  0  0  0  0  0
  -27.5590  -37.1830   24.8460 C   0  0  0  0  0  1  0  0  0  0  0  0
  -26.4300  -37.3840   23.9400 N   0  0  0  0  0  0  0  0  0  0  0  0
  -26.0190  -38.2910   24.1440 H   0  0  0  0  0  0  0  0  0  0  0  0
  -26.4420  -31.6620   25.0700 C   0  0  1  0  0  0  0  0  0  0  0  0
  -25.3710  -31.3720   26.1480 C   0  0  0  0  0  1  0  0  0  0  0  0
  -27.0210  -30.3060   24.5990 C   0  0  0  0  0  1  0  0  0  0  0  0
  -27.6030  -32.4310   25.7440 C   0  0  0  0  0  1  0  0  0  0  0  0
  2  1  1  0
  2  3  1  0
  4  3  1  0
  4  7  1  0
  5  4  1  0
  6  4  1  0
  8  7  1  0
  8  9  1  0
 10 11  1  0
 10  9  1  0
 12 20  1  0
 13 18  1  0
 14 15  1  0
 14 13  1  0
 16 15  1  0
 16 25  1  0
 16 17  1  0
 18 12  1  0
 18 17  1  0
 19 12  2  0
 20 21  1  0
 20 11  1  0
 22 23  2  0
 23 42  1  0
 24 23  1  0
 24 27  1  0
 25 22  1  0
 25 26  1  0
 26 24  2  0
 27 28  1  0
 28 29  2  0
 30 33  1  0
 30 29  1  0
 31 30  2  0
 32 31  1  0
 32 27  2  0
 33 34  1  0
 34 35  1  0
 35 36  2  0
 37 36  1  0
 37 41  1  0
 38 37  2  0
 39 34  2  0
 39 38  1  0
 40 39  1  0
 42 43  1  0
 43 46  1  0
 43 45  1  0
 44 42  2  0
 47 48  1  0
 47 22  1  0
 49 47  1  0
 50  1  1  0
 50 51  1  0
 52 51  1  0
 52 53  1  0
 53 55  1  0
 53 54  1  0
 56 53  1  0
 57 58  1  0
 57 56  1  0
 58 60  1  0
 59 70  2  0
 60 65  1  0
 61 69  1  0
 61 71  1  0
 62 68  1  0
 62 64  1  0
 63 69  1  0
 64 63  1  0
 65 64  2  0
 66 67  1  0
 66 60  2  0
 67 62  2  0
 68 61  1  0
 69 59  1  0
 71 73  2  0
 72 71  1  0
 74 72  1  0
 75 84  2  0
 75 80  1  0
 76 72  1  0
 76 80  1  0
 77 76  1  0
 78 79  1  0
 78 77  1  0
 79 75  1  0
 80 81  2  0
 81 82  1  0
 83 82  2  0
 84 83  1  0
 85 59  1  0
 85 86  1  0
 85 95  1  0
 86 89  1  0
 87 91  1  0
 87 86  1  0
 88 87  2  0
 91 90  1  0
 93 91  1  0
 93 94  1  0
 93 92  1  0
 95 98  1  1
 95 96  1  0
 97 95  1  0
M  ISO  4  12 100  20 100  57 101  58 101
M  END
>  <TORSDO>  (5) 
F 30

>  <SCORE>  (5) 
8.289

>  <name>  (5) 
4

>  <ligand_id>  (5) 
4

>  <original_smiles>  (5) 
[H]c1c([H])c([H])c2c(c1[H])C([H])([H])C([H])([H])C([H])([H])C2([H])N([H])C(=O)C1([H])N(C(=O)C([H])(N([H])C(=O)C([H])(N([H])C([H])([H])[H])C([H])([H])[H])C(C([H])([H])[H])(C([H])([H])[H])C([H])([H])[H])C([H])([H])c2c([H])c(OC([H])([H])C([H])([H])[N+]([H])([H])C([H])([H])C([H])([H])C([H])([H])C([H])([H])C([H])([H])C([H])([H])[N+]([H])([H])C([H])([H])C([H])([H])C([H])([H])C([H])([H])C([H])([H])N([H])C(=O)N3C([H])([H])C([H])([H])C([H])([H])C([H])(n4nc(-c5c([H])c([H])c(Oc6c([H])c([H])c(F)c([H])c6F)c([H])c5[H])c(C(=O)N([H])[H])c4N([H])[H])C3([H])[H])c([H])c([H])c2C1([H])[H]

>  <smiles>  (5) 
[H]c1c([H])c([H])c2c(c1[H])C([H])([H])C([H])([H])C([H])([H])C2([H])N([H])C(=O)C1([H])N(C(=O)C([H])(N([H])C(=O)C([H])(N([H])C([H])([H])[H])C([H])([H])[H])C(C([H])([H])[H])(C([H])([H])[H])C([H])([H])[H])C([H])([H])c2c([H])c(OC([H])([H])C([H])([H])[N+]([H])([H])C([H])([H])C([H])([H])C([H])([H])C([H])([H])C([H])([H])C([H])([H])[N+]([H])([H])C([H])([H])C([H])([H])C([H])([H])C([H])([H])C([H])([H])N([H])C(=O)N3C([H])([H])C([H])([H])C([H])([H])C([H])(n4nc(-c5c([H])c([H])c(Oc6c([H])c([H])c(F)c([H])c6F)c([H])c5[H])c(C(=O)N([H])[H])c4N([H])[H])C3([H])[H])c([H])c([H])c2C1([H])[H]

$$$$
5:0:0
     RDKit          3D

 98105  0  0  1  0  0  0  0  0999 V2000
  -30.1370  -22.1670   21.4040 C   0  0  0  0  0  2  0  0  0  0  0  0
  -30.7520  -20.8520   20.8980 C   0  0  0  0  0  2  0  0  0  0  0  0
  -30.6570  -19.7060   21.9210 C   0  0  0  0  0  2  0  0  0  0  0  0
  -31.6640  -18.6740   21.6170 N   0  0  0  0  0  4  0  0  0  0  0  0
  -32.5280  -19.1500   21.4130 H   0  0  0  0  0  0  0  0  0  0  0  0
  -31.3920  -18.1620   20.7920 H   0  0  0  0  0  0  0  0  0  0  0  0
  -31.9440  -17.7290   22.7110 C   0  0  0  0  0  2  0  0  0  0  0  0
  -33.2520  -16.9760   22.4250 C   0  0  0  0  0  2  0  0  0  0  0  0
  -33.5770  -15.8700   23.4360 C   0  0  0  0  0  2  0  0  0  0  0  0
  -33.1280  -14.4630   23.0080 C   0  0  0  0  0  2  0  0  0  0  0  0
  -31.6220  -14.1550   23.1470 C   0  0  0  0  0  2  0  0  0  0  0  0
  -30.8610  -14.2420   20.7940 C   0  0  0  0  0  0  0  0  0  0  0  0
  -30.4040  -12.3090   19.3460 C   0  0  0  0  0  2  0  0  0  0  0  0
  -29.4530  -12.5480   18.1630 C   0  0  0  0  0  2  0  0  0  0  0  0
  -27.9900  -12.3790   18.6020 C   0  0  0  0  0  2  0  0  0  0  0  0
  -27.6600  -13.2010   19.8720 C   0  0  0  0  0  3  0  0  0  0  0  0
  -28.7020  -12.9540   20.9820 C   0  0  0  0  0  2  0  0  0  0  0  0
  -30.0440  -13.2260   20.4350 N   0  0  0  0  0  0  0  0  0  0  0  0
  -31.7950  -14.6550   20.1020 O   0  0  0  0  0  0  0  0  0  0  0  0
  -30.7160  -14.5950   22.0780 N   0  0  0  0  0  0  0  0  0  0  0  0
  -29.7550  -14.5030   22.3730 H   0  0  0  0  0  0  0  0  0  0  0  0
  -25.2590  -13.8150   20.5670 C   0  0  0  0  0  0  0  0  0  0  0  0
  -24.1840  -13.0440   20.9190 C   0  0  0  0  0  0  0  0  0  0  0  0
  -24.6380  -11.6900   20.8740 C   0  0  0  0  0  0  0  0  0  0  0  0
  -26.3020  -12.9310   20.3380 N   0  0  0  0  0  0  0  0  0  0  0  0
  -25.9290  -11.6480   20.5750 N   0  0  0  0  0  0  0  0  0  0  0  0
  -23.9040  -10.4300   21.0400 C   0  0  0  0  0  0  0  0  0  0  0  0
  -24.3600   -9.4210   21.9170 C   0  0  0  0  0  3  0  0  0  0  0  0
  -23.6290   -8.2240   22.0730 C   0  0  0  0  0  3  0  0  0  0  0  0
  -22.4270   -8.0280   21.3520 C   0  0  0  0  0  0  0  0  0  0  0  0
  -21.9910   -9.0250   20.4630 C   0  0  0  0  0  3  0  0  0  0  0  0
  -22.7220  -10.2130   20.3040 C   0  0  0  0  0  3  0  0  0  0  0  0
  -21.6630   -6.8880   21.4230 O   0  0  0  0  0  0  0  0  0  0  0  0
  -21.6840   -6.0740   22.5270 C   0  0  0  0  0  0  0  0  0  0  0  0
  -21.4000   -6.5650   23.8200 C   0  0  0  0  0  3  0  0  0  0  0  0
  -21.3660   -5.6800   24.9160 C   0  0  0  0  0  3  0  0  0  0  0  0
  -21.6050   -4.3070   24.7210 C   0  0  0  0  0  0  0  0  0  0  0  0
  -21.8820   -3.8150   23.4330 C   0  0  0  0  0  3  0  0  0  0  0  0
  -21.9180   -4.6980   22.3390 C   0  0  0  0  0  0  0  0  0  0  0  0
  -22.1660   -4.2160   21.0960 F   0  0  0  0  0  0  0  0  0  0  0  0
  -21.5640   -3.4550   25.7730 F   0  0  0  0  0  0  0  0  0  0  0  0
  -22.7870  -13.5230   21.1890 C   0  0  0  0  0  0  0  0  0  0  0  0
  -22.0520  -12.8180   22.0430 N   0  0  0  0  0  0  0  0  0  0  0  0
  -22.3550  -14.5550   20.6760 O   0  0  0  0  0  0  0  0  0  0  0  0
  -22.4150  -11.9810   22.4740 H   0  0  0  0  0  0  0  0  0  0  0  0
  -21.1140  -13.1180   22.2690 H   0  0  0  0  0  0  0  0  0  0  0  0
  -25.4340  -15.1850   20.4020 N   0  0  0  0  0  0  0  0  0  0  0  0
  -24.6780  -15.8510   20.5150 H   0  0  0  0  0  0  0  0  0  0  0  0
  -26.3020  -15.6110   20.0980 H   0  0  0  0  0  0  0  0  0  0  0  0
  -30.9920  -23.3840   21.0300 C   0  0  0  0  0  2  0  0  0  0  0  0
  -30.3820  -24.6860   21.5500 C   0  0  0  0  0  2  0  0  0  0  0  0
  -31.3560  -25.8730   21.4460 C   0  0  0  0  0  2  0  0  0  0  0  0
  -30.6700  -27.1600   21.6800 N   0  0  0  0  0  4  0  0  0  0  0  0
  -31.2140  -27.6740   22.3550 H   0  0  0  0  0  0  0  0  0  0  0  0
  -29.7730  -26.9810   22.1020 H   0  0  0  0  0  0  0  0  0  0  0  0
  -30.4940  -28.0200   20.4830 C   0  0  0  0  0  2  0  0  0  0  0  0
  -29.5430  -27.4150   19.4290 C   0  0  0  0  0  2  0  0  0  0  0  0
  -28.4050  -26.7720   20.0080 O   0  0  0  0  0  0  0  0  0  0  0  0
  -24.6040  -31.8730   23.2120 C   0  0  0  0  0  0  0  0  0  0  0  0
  -27.2500  -27.5080   20.0740 C   0  0  0  0  0  0  0  0  0  0  0  0
  -23.3910  -30.4920   21.5530 C   0  0  0  0  0  3  0  0  0  0  0  0
  -24.8390  -28.9640   20.1150 C   0  0  0  0  0  0  0  0  0  0  0  0
  -25.9070  -30.8600   21.3520 C   0  0  0  0  0  2  0  0  0  0  0  0
  -25.9890  -29.4960   20.7090 C   0  0  0  0  0  0  0  0  0  0  0  0
  -27.1930  -28.7690   20.6990 C   0  0  0  0  0  3  0  0  0  0  0  0
  -26.0810  -26.9650   19.5040 C   0  0  0  0  0  3  0  0  0  0  0  0
  -24.8750  -27.6920   19.5150 C   0  0  0  0  0  3  0  0  0  0  0  0
  -23.5960  -29.8220   20.1660 C   0  0  0  0  0  2  0  0  0  0  0  0
  -24.6520  -31.0860   22.1010 N   0  0  0  0  0  0  0  0  0  0  0  0
  -23.5240  -32.1440   23.7540 O   0  0  0  0  0  0  0  0  0  0  0  0
  -22.7360  -29.4650   22.5010 C   0  0  0  0  0  0  0  0  0  0  0  0
  -21.4090  -29.3020   22.3750 N   0  0  0  0  0  0  0  0  0  0  0  0
  -23.4160  -28.8190   23.3020 O   0  0  0  0  0  0  0  0  0  0  0  0
  -20.9240  -29.8770   21.7000 H   0  0  0  0  0  0  0  0  0  0  0  0
  -18.0250  -28.1350   22.8480 C   0  0  0  0  0  0  0  0  0  0  0  0
  -20.5830  -28.3640   23.1330 C   0  0  0  0  0  3  0  0  0  0  0  0
  -20.6740  -26.9390   22.5430 C   0  0  0  0  0  2  0  0  0  0  0  0
  -19.5730  -26.6370   21.5220 C   0  0  0  0  0  2  0  0  0  0  0  0
  -18.1910  -26.7900   22.1620 C   0  0  0  0  0  2  0  0  0  0  0  0
  -19.1490  -28.8810   23.2900 C   0  0  0  0  0  0  0  0  0  0  0  0
  -18.9440  -30.1410   23.8920 C   0  0  0  0  0  3  0  0  0  0  0  0
  -17.6450  -30.6570   24.0550 C   0  0  0  0  0  3  0  0  0  0  0  0
  -16.5340  -29.9090   23.6290 C   0  0  0  0  0  3  0  0  0  0  0  0
  -16.7240  -28.6490   23.0320 C   0  0  0  0  0  3  0  0  0  0  0  0
  -25.8950  -32.4860   23.8410 C   0  0  0  0  0  3  0  0  0  0  0  0
  -25.5820  -33.8660   24.2330 N   0  0  0  0  0  0  0  0  0  0  0  0
  -25.9020  -34.9510   23.5150 C   0  0  0  0  0  0  0  0  0  0  0  0
  -26.5610  -34.8940   22.4730 O   0  0  0  0  0  0  0  0  0  0  0  0
  -24.9880  -33.9850   25.0410 H   0  0  0  0  0  0  0  0  0  0  0  0
  -24.1470  -36.7370   23.2630 C   0  0  0  0  0  1  0  0  0  0  0  0
  -25.4100  -36.3170   24.0330 C   0  0  0  0  0  3  0  0  0  0  0  0
  -27.5590  -37.1830   24.8460 C   0  0  0  0  0  1  0  0  0  0  0  0
  -26.4300  -37.3840   23.9400 N   0  0  0  0  0  0  0  0  0  0  0  0
  -26.0190  -38.2910   24.1440 H   0  0  0  0  0  0  0  0  0  0  0  0
  -26.4420  -31.6620   25.0700 C   0  0  1  0  0  0  0  0  0  0  0  0
  -25.3710  -31.3720   26.1480 C   0  0  0  0  0  1  0  0  0  0  0  0
  -27.0210  -30.3060   24.5990 C   0  0  0  0  0  1  0  0  0  0  0  0
  -27.6030  -32.4310   25.7440 C   0  0  0  0  0  1  0  0  0  0  0  0
  2  1  1  0
  2  3  1  0
  4  3  1  0
  4  7  1  0
  5  4  1  0
  6  4  1  0
  8  7  1  0
  8  9  1  0
 10 11  1  0
 10  9  1  0
 12 20  1  0
 13 18  1  0
 14 15  1  0
 14 13  1  0
 16 15  1  0
 16 25  1  0
 16 17  1  0
 18 12  1  0
 18 17  1  0
 19 12  2  0
 20 21  1  0
 20 11  1  0
 22 23  2  0
 23 42  1  0
 24 23  1  0
 24 27  1  0
 25 22  1  0
 25 26  1  0
 26 24  2  0
 27 28  1  0
 28 29  2  0
 30 33  1  0
 30 29  1  0
 31 30  2  0
 32 31  1  0
 32 27  2  0
 33 34  1  0
 34 35  1  0
 35 36  2  0
 37 36  1  0
 37 41  1  0
 38 37  2  0
 39 34  2  0
 39 38  1  0
 40 39  1  0
 42 43  1  0
 43 46  1  0
 43 45  1  0
 44 42  2  0
 47 48  1  0
 47 22  1  0
 49 47  1  0
 50  1  1  0
 50 51  1  0
 52 51  1  0
 52 53  1  0
 53 55  1  0
 53 54  1  0
 56 53  1  0
 57 58  1  0
 57 56  1  0
 58 60  1  0
 59 70  2  0
 60 65  1  0
 61 69  1  0
 61 71  1  0
 62 68  1  0
 62 64  1  0
 63 69  1  0
 64 63  1  0
 65 64  2  0
 66 67  1  0
 66 60  2  0
 67 62  2  0
 68 61  1  0
 69 59  1  0
 71 73  2  0
 72 71  1  0
 74 72  1  0
 75 84  2  0
 75 80  1  0
 76 72  1  0
 76 80  1  0
 77 76  1  0
 78 79  1  0
 78 77  1  0
 79 75  1  0
 80 81  2  0
 81 82  1  0
 83 82  2  0
 84 83  1  0
 85 59  1  0
 85 86  1  0
 85 95  1  0
 86 89  1  0
 87 91  1  0
 87 86  1  0
 88 87  2  0
 91 90  1  0
 93 91  1  0
 93 94  1  0
 93 92  1  0
 95 98  1  1
 95 96  1  0
 97 95  1  0
M  ISO  4  12 100  20 100  57 101  58 101
M  END
>  <TORSDO>  (6) 
F 30

>  <SCORE>  (6) 
8.289

>  <name>  (6) 
5

>  <ligand_id>  (6) 
5

>  <original_smiles>  (6) 
[H]c1c([H])c([H])c2c(c1[H])C([H])([H])C([H])([H])C([H])([H])C2([H])N([H])C(=O)C1([H])N(C(=O)C([H])(N([H])C(=O)C([H])(N([H])C([H])([H])[H])C([H])([H])[H])C(C([H])([H])[H])(C([H])([H])[H])C([H])([H])[H])C([H])([H])c2c([H])c(OC([H])([H])C([H])([H])[N+]([H])([H])C([H])([H])C([H])([H])C([H])([H])C([H])([H])C([H])([H])C([H])([H])[N+]([H])([H])C([H])([H])C([H])([H])C([H])([H])C([H])([H])C([H])([H])N([H])C(=O)N3C([H])([H])C([H])([H])C([H])([H])C([H])(n4nc(-c5c([H])c([H])c(Oc6c([H])c([H])c(F)c([H])c6F)c([H])c5[H])c(C(=O)N([H])[H])c4N([H])[H])C3([H])[H])c([H])c([H])c2C1([H])[H]

>  <smiles>  (6) 
[H]c1c([H])c([H])c2c(c1[H])C([H])([H])C([H])([H])C([H])([H])C2([H])N([H])C(=O)C1([H])N(C(=O)C([H])(N([H])C(=O)C([H])(N([H])C([H])([H])[H])C([H])([H])[H])C(C([H])([H])[H])(C([H])([H])[H])C([H])([H])[H])C([H])([H])c2c([H])c(OC([H])([H])C([H])([H])[N+]([H])([H])C([H])([H])C([H])([H])C([H])([H])C([H])([H])C([H])([H])C([H])([H])[N+]([H])([H])C([H])([H])C([H])([H])C([H])([H])C([H])([H])C([H])([H])N([H])C(=O)N3C([H])([H])C([H])([H])C([H])([H])C([H])(n4nc(-c5c([H])c([H])c(Oc6c([H])c([H])c(F)c([H])c6F)c([H])c5[H])c(C(=O)N([H])[H])c4N([H])[H])C3([H])[H])c([H])c([H])c2C1([H])[H]

$$$$
6:0:0
     RDKit          3D

 97104  0  0  1  0  0  0  0  0999 V2000
  -28.5620  -19.9940   15.3540 N   0  0  0  0  0  4  0  0  0  0  0  0
  -28.1720  -20.8320   14.9540 H   0  0  0  0  0  0  0  0  0  0  0  0
  -28.9060  -19.4240   14.5980 H   0  0  0  0  0  0  0  0  0  0  0  0
  -29.7130  -20.3060   16.2320 C   0  0  0  0  0  2  0  0  0  0  0  0
  -30.7170  -21.2780   15.5820 C   0  0  0  0  0  2  0  0  0  0  0  0
  -30.2740  -22.7500   15.5850 C   0  0  0  0  0  2  0  0  0  0  0  0
  -29.9900  -23.1610   16.9180 O   0  0  0  0  0  0  0  0  0  0  0  0
  -29.7240  -24.5550   17.0150 C   0  0  0  0  0  2  0  0  0  0  0  0
  -29.2180  -24.8920   18.4270 C   0  0  0  0  0  2  0  0  0  0  0  0
  -29.0560  -26.4070   18.6250 C   0  0  0  0  0  2  0  0  0  0  0  0
  -28.5630  -26.7260   19.9290 O   0  0  0  0  0  0  0  0  0  0  0  0
  -24.6190  -31.7230   23.1100 C   0  0  0  0  0  0  0  0  0  0  0  0
  -27.3670  -27.4030   19.9590 C   0  0  0  0  0  0  0  0  0  0  0  0
  -23.4510  -30.3420   21.4190 C   0  0  0  0  0  3  0  0  0  0  0  0
  -24.9440  -28.8480   19.9880 C   0  0  0  0  0  0  0  0  0  0  0  0
  -25.9730  -30.7330   21.2690 C   0  0  0  0  0  2  0  0  0  0  0  0
  -26.0810  -29.3760   20.6110 C   0  0  0  0  0  0  0  0  0  0  0  0
  -27.2910  -28.6500   20.6140 C   0  0  0  0  0  3  0  0  0  0  0  0
  -26.2130  -26.8730   19.3460 C   0  0  0  0  0  3  0  0  0  0  0  0
  -24.9990  -27.5880   19.3650 C   0  0  0  0  0  3  0  0  0  0  0  0
  -23.6880  -29.6880   20.0310 C   0  0  0  0  0  2  0  0  0  0  0  0
  -24.6970  -30.9460   21.9920 N   0  0  0  0  0  0  0  0  0  0  0  0
  -23.5270  -31.9730   23.6400 O   0  0  0  0  0  0  0  0  0  0  0  0
  -22.7990  -29.2940   22.3500 C   0  0  0  0  0  0  0  0  0  0  0  0
  -21.4720  -29.1320   22.2260 N   0  0  0  0  0  0  0  0  0  0  0  0
  -23.4820  -28.6330   23.1360 O   0  0  0  0  0  0  0  0  0  0  0  0
  -20.9830  -29.7170   21.5640 H   0  0  0  0  0  0  0  0  0  0  0  0
  -18.0830  -27.9890   22.7280 C   0  0  0  0  0  0  0  0  0  0  0  0
  -20.6490  -28.1760   22.9670 C   0  0  0  0  0  3  0  0  0  0  0  0
  -20.7110  -26.7720   22.3230 C   0  0  0  0  0  2  0  0  0  0  0  0
  -19.5850  -26.5220   21.3140 C   0  0  0  0  0  2  0  0  0  0  0  0
  -18.2180  -26.6680   21.9880 C   0  0  0  0  0  2  0  0  0  0  0  0
  -19.2260  -28.7040   23.1730 C   0  0  0  0  0  0  0  0  0  0  0  0
  -19.0460  -29.9440   23.8220 C   0  0  0  0  0  3  0  0  0  0  0  0
  -17.7570  -30.4680   24.0320 C   0  0  0  0  0  3  0  0  0  0  0  0
  -16.6290  -29.7470   23.6040 C   0  0  0  0  0  3  0  0  0  0  0  0
  -16.7920  -28.5080   22.9580 C   0  0  0  0  0  3  0  0  0  0  0  0
  -25.8910  -32.3510   23.7610 C   0  0  0  0  0  3  0  0  0  0  0  0
  -25.5660  -33.7400   24.1150 N   0  0  0  0  0  0  0  0  0  0  0  0
  -25.9020  -34.8080   23.3810 C   0  0  0  0  0  0  0  0  0  0  0  0
  -26.5900  -34.7310   22.3590 O   0  0  0  0  0  0  0  0  0  0  0  0
  -24.9560  -33.8740   24.9080 H   0  0  0  0  0  0  0  0  0  0  0  0
  -24.1610  -36.5880   23.0340 C   0  0  0  0  0  1  0  0  0  0  0  0
  -25.3940  -36.1830   23.8560 C   0  0  0  0  0  3  0  0  0  0  0  0
  -27.5070  -37.0730   24.7330 C   0  0  0  0  0  1  0  0  0  0  0  0
  -26.4180  -37.2470   23.7760 N   0  0  0  0  0  0  0  0  0  0  0  0
  -26.0010  -38.1610   23.9330 H   0  0  0  0  0  0  0  0  0  0  0  0
  -26.3990  -31.5570   25.0270 C   0  0  1  0  0  0  0  0  0  0  0  0
  -25.2950  -31.2900   26.0770 C   0  0  0  0  0  1  0  0  0  0  0  0
  -26.9940  -30.1920   24.6100 C   0  0  0  0  0  1  0  0  0  0  0  0
  -27.5380  -32.3430   25.7170 C   0  0  0  0  0  1  0  0  0  0  0  0
  -27.4890  -19.2230   16.0140 C   0  0  0  0  0  2  0  0  0  0  0  0
  -26.6090  -20.0880   16.9380 C   0  0  0  0  0  2  0  0  0  0  0  0
  -26.0030  -19.2730   18.0910 C   0  0  0  0  0  2  0  0  0  0  0  0
  -26.8540  -19.2250   19.3720 C   0  0  0  0  0  2  0  0  0  0  0  0
  -28.0950  -18.5440   19.1780 O   0  0  0  0  0  0  0  0  0  0  0  0
  -28.8110  -18.3860   20.4050 C   0  0  0  0  0  2  0  0  0  0  0  0
  -29.8460  -17.2460   20.3010 C   0  0  0  0  0  2  0  0  0  0  0  0
  -29.8840  -16.3690   21.5740 C   0  0  0  0  0  2  0  0  0  0  0  0
  -31.4020  -14.5900   20.6560 C   0  0  0  0  0  0  0  0  0  0  0  0
  -30.9490  -12.6210   19.2340 C   0  0  0  0  0  2  0  0  0  0  0  0
  -30.0170  -12.9560   18.0570 C   0  0  0  0  0  2  0  0  0  0  0  0
  -28.5430  -12.8590   18.4760 C   0  0  0  0  0  2  0  0  0  0  0  0
  -28.2490  -13.5960   19.8080 C   0  0  0  0  0  3  0  0  0  0  0  0
  -29.2810  -13.2140   20.8950 C   0  0  0  0  0  2  0  0  0  0  0  0
  -30.6200  -13.5090   20.3650 N   0  0  0  0  0  0  0  0  0  0  0  0
  -32.4900  -14.7830   20.1160 O   0  0  0  0  0  0  0  0  0  0  0  0
  -31.0170  -15.4320   21.6270 N   0  0  0  0  0  0  0  0  0  0  0  0
  -31.8300  -15.9050   21.9950 H   0  0  0  0  0  0  0  0  0  0  0  0
  -25.8370  -14.2730   20.3900 C   0  0  0  0  0  0  0  0  0  0  0  0
  -24.7350  -13.5320   20.7200 C   0  0  0  0  0  0  0  0  0  0  0  0
  -25.1620  -12.1680   20.7360 C   0  0  0  0  0  0  0  0  0  0  0  0
  -26.8720  -13.3650   20.2350 N   0  0  0  0  0  0  0  0  0  0  0  0
  -26.4660  -12.0950   20.4980 N   0  0  0  0  0  0  0  0  0  0  0  0
  -24.3970  -10.9270   20.9160 C   0  0  0  0  0  0  0  0  0  0  0  0
  -24.7450   -9.9860   21.9090 C   0  0  0  0  0  3  0  0  0  0  0  0
  -23.9900   -8.8030   22.0730 C   0  0  0  0  0  3  0  0  0  0  0  0
  -22.8690   -8.5580   21.2450 C   0  0  0  0  0  0  0  0  0  0  0  0
  -22.5400   -9.4880   20.2430 C   0  0  0  0  0  3  0  0  0  0  0  0
  -23.2960  -10.6620   20.0790 C   0  0  0  0  0  3  0  0  0  0  0  0
  -22.0930   -7.4260   21.3190 O   0  0  0  0  0  0  0  0  0  0  0  0
  -21.9100   -6.7520   22.5020 C   0  0  0  0  0  0  0  0  0  0  0  0
  -21.3810   -7.3860   23.6480 C   0  0  0  0  0  3  0  0  0  0  0  0
  -21.1440   -6.6400   24.8200 C   0  0  0  0  0  3  0  0  0  0  0  0
  -21.4260   -5.2600   24.8450 C   0  0  0  0  0  0  0  0  0  0  0  0
  -21.9450   -4.6270   23.7030 C   0  0  0  0  0  3  0  0  0  0  0  0
  -22.1820   -5.3700   22.5330 C   0  0  0  0  0  0  0  0  0  0  0  0
  -22.6640   -4.7490   21.4290 F   0  0  0  0  0  0  0  0  0  0  0  0
  -21.1920   -4.5410   25.9680 F   0  0  0  0  0  0  0  0  0  0  0  0
  -23.3360  -14.0420   20.9190 C   0  0  0  0  0  0  0  0  0  0  0  0
  -22.5660  -13.3900   21.7820 N   0  0  0  0  0  0  0  0  0  0  0  0
  -22.9370  -15.0570   20.3450 O   0  0  0  0  0  0  0  0  0  0  0  0
  -22.8990  -12.5610   22.2520 H   0  0  0  0  0  0  0  0  0  0  0  0
  -21.6270  -13.7140   21.9590 H   0  0  0  0  0  0  0  0  0  0  0  0
  -26.0390  -15.6320   20.1810 N   0  0  0  0  0  0  0  0  0  0  0  0
  -25.2770  -16.2980   20.2300 H   0  0  0  0  0  0  0  0  0  0  0  0
  -26.8890  -16.0220   19.7940 H   0  0  0  0  0  0  0  0  0  0  0  0
  1 52  1  0
  1  4  1  0
  2  1  1  0
  3  1  1  0
  5  6  1  0
  5  4  1  0
  6  7  1  0
  7  8  1  0
  8  9  1  0
  9 10  1  0
 10 11  1  0
 11 13  1  0
 12 23  2  0
 13 18  1  0
 14 22  1  0
 14 24  1  0
 15 21  1  0
 15 17  1  0
 16 22  1  0
 17 18  2  0
 17 16  1  0
 19 20  1  0
 19 13  2  0
 20 15  2  0
 21 14  1  0
 22 12  1  0
 24 26  2  0
 25 24  1  0
 27 25  1  0
 28 37  2  0
 28 33  1  0
 29 25  1  0
 29 33  1  0
 30 29  1  0
 31 32  1  0
 31 30  1  0
 32 28  1  0
 33 34  2  0
 34 35  1  0
 36 35  2  0
 37 36  1  0
 38 12  1  0
 38 39  1  0
 38 48  1  0
 39 42  1  0
 40 44  1  0
 40 39  1  0
 41 40  2  0
 44 43  1  0
 46 44  1  0
 46 47  1  0
 46 45  1  0
 48 51  1  1
 48 49  1  0
 50 48  1  0
 52 53  1  0
 53 54  1  0
 54 55  1  0
 56 55  1  0
 56 57  1  0
 58 57  1  0
 58 59  1  0
 59 68  1  0
 60 68  1  0
 61 66  1  0
 62 63  1  0
 62 61  1  0
 64 63  1  0
 64 73  1  0
 64 65  1  0
 66 60  1  0
 66 65  1  0
 67 60  2  0
 68 69  1  0
 70 71  2  0
 71 72  1  0
 71 90  1  0
 72 75  1  0
 73 70  1  0
 73 74  1  0
 74 72  2  0
 75 76  1  0
 76 77  2  0
 78 81  1  0
 78 77  1  0
 79 78  2  0
 80 79  1  0
 80 75  2  0
 81 82  1  0
 82 87  2  0
 82 83  1  0
 83 84  2  0
 84 85  1  0
 85 89  1  0
 86 85  2  0
 87 86  1  0
 88 87  1  0
 90 91  1  0
 91 94  1  0
 91 93  1  0
 92 90  2  0
 95 96  1  0
 95 70  1  0
 97 95  1  0
M  ISO  4  10 101  11 101  60 100  68 100
M  END
>  <TORSDO>  (7) 
F 31

>  <SCORE>  (7) 
-9.001

>  <name>  (7) 
6

>  <ligand_id>  (7) 
6

>  <original_smiles>  (7) 
[H]c1c([H])c([H])c2c(c1[H])C([H])([H])C([H])([H])C([H])([H])C2([H])N([H])C(=O)C1([H])N(C(=O)C([H])(N([H])C(=O)C([H])(N([H])C([H])([H])[H])C([H])([H])[H])C(C([H])([H])[H])(C([H])([H])[H])C([H])([H])[H])C([H])([H])c2c([H])c(OC([H])([H])C([H])([H])C([H])([H])OC([H])([H])C([H])([H])C([H])([H])[N+]([H])([H])C([H])([H])C([H])([H])C([H])([H])C([H])([H])OC([H])([H])C([H])([H])C([H])([H])N([H])C(=O)N3C([H])([H])C([H])([H])C([H])([H])C([H])(n4nc(-c5c([H])c([H])c(Oc6c([H])c([H])c(F)c([H])c6F)c([H])c5[H])c(C(=O)N([H])[H])c4N([H])[H])C3([H])[H])c([H])c([H])c2C1([H])[H]

>  <smiles>  (7) 
[H]c1c([H])c([H])c2c(c1[H])C([H])([H])C([H])([H])C([H])([H])C2([H])N([H])C(=O)C1([H])N(C(=O)C([H])(N([H])C(=O)C([H])(N([H])C([H])([H])[H])C([H])([H])[H])C(C([H])([H])[H])(C([H])([H])[H])C([H])([H])[H])C([H])([H])c2c([H])c(OC([H])([H])C([H])([H])C([H])([H])OC([H])([H])C([H])([H])C([H])([H])[N+]([H])([H])C([H])([H])C([H])([H])C([H])([H])C([H])([H])OC([H])([H])C([H])([H])C([H])([H])N([H])C(=O)N3C([H])([H])C([H])([H])C([H])([H])C([H])(n4nc(-c5c([H])c([H])c(Oc6c([H])c([H])c(F)c([H])c6F)c([H])c5[H])c(C(=O)N([H])[H])c4N([H])[H])C3([H])[H])c([H])c([H])c2C1([H])[H]

$$$$
7:0:0
     RDKit          3D

 98105  0  0  1  0  0  0  0  0999 V2000
  -24.2680  -23.4970   25.6650 C   0  0  0  0  0  2  0  0  0  0  0  0
  -24.9090  -23.8280   24.3740 N   0  0  0  0  0  4  0  0  0  0  0  0
  -25.2000  -24.7940   24.4100 H   0  0  0  0  0  0  0  0  0  0  0  0
  -25.7410  -23.2690   24.2830 H   0  0  0  0  0  0  0  0  0  0  0  0
  -24.0750  -23.6050   23.1750 C   0  0  0  0  0  2  0  0  0  0  0  0
  -24.8540  -23.9450   21.8900 C   0  0  0  0  0  2  0  0  0  0  0  0
  -26.0660  -23.0260   21.6510 C   0  0  0  0  0  2  0  0  0  0  0  0
  -26.4390  -22.8950   20.1680 C   0  0  0  0  0  2  0  0  0  0  0  0
  -27.7030  -22.0440   19.9730 C   0  0  0  0  0  2  0  0  0  0  0  0
  -27.6580  -21.1850   18.7010 C   0  0  0  0  0  2  0  0  0  0  0  0
  -29.0500  -20.7140   18.2390 C   0  0  0  0  0  2  0  0  0  0  0  0
  -30.0670  -20.4770   19.3720 C   0  0  0  0  0  2  0  0  0  0  0  0
  -30.9290  -18.1890   19.8430 C   0  0  0  0  0  0  0  0  0  0  0  0
  -31.5400  -15.8690   20.4100 C   0  0  0  0  0  2  0  0  0  0  0  0
  -31.1230  -14.8900   19.2980 C   0  0  0  0  0  2  0  0  0  0  0  0
  -29.6640  -14.4350   19.4880 C   0  0  0  0  0  2  0  0  0  0  0  0
  -28.6950  -15.6250   19.7110 C   0  0  0  0  0  3  0  0  0  0  0  0
  -29.2410  -16.5760   20.7960 C   0  0  0  0  0  2  0  0  0  0  0  0
  -30.6010  -17.0000   20.4070 N   0  0  0  0  0  0  0  0  0  0  0  0
  -32.0270  -18.4210   19.3260 O   0  0  0  0  0  0  0  0  0  0  0  0
  -29.9790  -19.1270   19.9170 N   0  0  0  0  0  0  0  0  0  0  0  0
  -29.1250  -18.8700   20.3880 H   0  0  0  0  0  0  0  0  0  0  0  0
  -26.1580  -15.8690   20.0930 C   0  0  0  0  0  0  0  0  0  0  0  0
  -25.1830  -14.9490   20.3690 C   0  0  0  0  0  0  0  0  0  0  0  0
  -25.8460  -13.6860   20.4570 C   0  0  0  0  0  0  0  0  0  0  0  0
  -27.3470  -15.1580   20.0330 N   0  0  0  0  0  0  0  0  0  0  0  0
  -27.1540  -13.8420   20.3060 N   0  0  0  0  0  0  0  0  0  0  0  0
  -25.3030  -12.3310   20.6210 C   0  0  0  0  0  0  0  0  0  0  0  0
  -25.5040  -11.5930   21.8090 C   0  0  0  0  0  3  0  0  0  0  0  0
  -24.9580  -10.2990   21.9480 C   0  0  0  0  0  3  0  0  0  0  0  0
  -24.2000   -9.7300   20.8960 C   0  0  0  0  0  0  0  0  0  0  0  0
  -24.0240  -10.4600   19.7070 C   0  0  0  0  0  3  0  0  0  0  0  0
  -24.5730  -11.7460   19.5670 C   0  0  0  0  0  3  0  0  0  0  0  0
  -23.6540   -8.4700   20.9320 O   0  0  0  0  0  0  0  0  0  0  0  0
  -22.9810   -8.0090   22.0350 C   0  0  0  0  0  0  0  0  0  0  0  0
  -21.8160   -8.6460   22.5170 C   0  0  0  0  0  3  0  0  0  0  0  0
  -21.1170   -8.0980   23.6110 C   0  0  0  0  0  3  0  0  0  0  0  0
  -21.5720   -6.9130   24.2170 C   0  0  0  0  0  0  0  0  0  0  0  0
  -22.7290   -6.2740   23.7340 C   0  0  0  0  0  3  0  0  0  0  0  0
  -23.4290   -6.8200   22.6440 C   0  0  0  0  0  0  0  0  0  0  0  0
  -24.5300   -6.1890   22.1710 F   0  0  0  0  0  0  0  0  0  0  0  0
  -20.8960   -6.3820   25.2630 F   0  0  0  0  0  0  0  0  0  0  0  0
  -23.7050  -15.2060   20.4540 C   0  0  0  0  0  0  0  0  0  0  0  0
  -22.9900  -14.4150   21.2460 N   0  0  0  0  0  0  0  0  0  0  0  0
  -23.1840  -16.1450   19.8540 O   0  0  0  0  0  0  0  0  0  0  0  0
  -23.4190  -13.6570   21.7550 H   0  0  0  0  0  0  0  0  0  0  0  0
  -21.9960  -14.5700   21.3450 H   0  0  0  0  0  0  0  0  0  0  0  0
  -26.1320  -17.2420   19.8710 N   0  0  0  0  0  0  0  0  0  0  0  0
  -25.2690  -17.7740   19.8630 H   0  0  0  0  0  0  0  0  0  0  0  0
  -26.9460  -17.8000   19.6490 H   0  0  0  0  0  0  0  0  0  0  0  0
  -25.1020  -24.0620   26.8190 C   0  0  0  0  0  2  0  0  0  0  0  0
  -25.6810  -25.2860   26.3830 O   0  0  0  0  0  0  0  0  0  0  0  0
  -26.7500  -25.7090   27.2200 C   0  0  0  0  0  2  0  0  0  0  0  0
  -27.8000  -26.4360   26.3740 C   0  0  0  0  0  2  0  0  0  0  0  0
  -28.4710  -25.5180   25.5120 O   0  0  0  0  0  0  0  0  0  0  0  0
  -29.2390  -26.2000   24.5270 C   0  0  0  0  0  2  0  0  0  0  0  0
  -29.6490  -25.2590   23.3710 C   0  0  0  0  0  2  0  0  0  0  0  0
  -29.7700  -25.9590   22.1260 O   0  0  0  0  0  0  0  0  0  0  0  0
  -25.3320  -31.1130   24.0760 C   0  0  0  0  0  0  0  0  0  0  0  0
  -28.6460  -26.6710   21.7980 C   0  0  0  0  0  0  0  0  0  0  0  0
  -24.5320  -29.6400   22.2530 C   0  0  0  0  0  3  0  0  0  0  0  0
  -26.2840  -28.0940   21.2310 C   0  0  0  0  0  0  0  0  0  0  0  0
  -27.0310  -30.0580   22.5920 C   0  0  0  0  0  2  0  0  0  0  0  0
  -27.2770  -28.6760   22.0300 C   0  0  0  0  0  0  0  0  0  0  0  0
  -28.4680  -27.9760   22.3000 C   0  0  0  0  0  3  0  0  0  0  0  0
  -27.6450  -26.0910   20.9940 C   0  0  0  0  0  3  0  0  0  0  0  0
  -26.4630  -26.8010   20.7050 C   0  0  0  0  0  3  0  0  0  0  0  0
  -25.0450  -28.9220   20.9760 C   0  0  0  0  0  2  0  0  0  0  0  0
  -25.6370  -30.2850   23.0360 N   0  0  0  0  0  0  0  0  0  0  0  0
  -24.1550  -31.3800   24.3580 O   0  0  0  0  0  0  0  0  0  0  0  0
  -23.7000  -28.6360   23.0810 C   0  0  0  0  0  0  0  0  0  0  0  0
  -22.4950  -28.3100   22.5870 N   0  0  0  0  0  0  0  0  0  0  0  0
  -24.1490  -28.1490   24.1230 O   0  0  0  0  0  0  0  0  0  0  0  0
  -22.1980  -28.7600   21.7320 H   0  0  0  0  0  0  0  0  0  0  0  0
  -19.2230  -26.8330   22.1840 C   0  0  0  0  0  0  0  0  0  0  0  0
  -21.5530  -27.3560   23.1720 C   0  0  0  0  0  3  0  0  0  0  0  0
  -21.9270  -25.9050   22.7960 C   0  0  0  0  0  2  0  0  0  0  0  0
  -21.2090  -25.4030   21.5390 C   0  0  0  0  0  2  0  0  0  0  0  0
  -19.6900  -25.4610   21.7280 C   0  0  0  0  0  2  0  0  0  0  0  0
  -20.1030  -27.7300   22.8460 C   0  0  0  0  0  0  0  0  0  0  0  0
  -19.6300  -29.0070   23.2160 C   0  0  0  0  0  3  0  0  0  0  0  0
  -18.3050  -29.3930   22.9370 C   0  0  0  0  0  3  0  0  0  0  0  0
  -17.4330  -28.4960   22.2950 C   0  0  0  0  0  3  0  0  0  0  0  0
  -17.8910  -27.2180   21.9240 C   0  0  0  0  0  3  0  0  0  0  0  0
  -26.4440  -31.7820   24.9430 C   0  0  0  0  0  3  0  0  0  0  0  0
  -26.0230  -33.1630   25.2140 N   0  0  0  0  0  0  0  0  0  0  0  0
  -26.4540  -34.2350   24.5360 C   0  0  0  0  0  0  0  0  0  0  0  0
  -27.3160  -34.1700   23.6550 O   0  0  0  0  0  0  0  0  0  0  0  0
  -25.2780  -33.2860   25.8840 H   0  0  0  0  0  0  0  0  0  0  0  0
  -24.7180  -35.9340   23.8860 C   0  0  0  0  0  1  0  0  0  0  0  0
  -25.8300  -35.5980   24.8930 C   0  0  0  0  0  3  0  0  0  0  0  0
  -27.7720  -36.5780   26.0310 C   0  0  0  0  0  1  0  0  0  0  0  0
  -26.8130  -36.7020   24.9370 N   0  0  0  0  0  0  0  0  0  0  0  0
  -26.3440  -37.5990   25.0270 H   0  0  0  0  0  0  0  0  0  0  0  0
  -26.7330  -31.0100   26.2890 C   0  0  1  0  0  0  0  0  0  0  0  0
  -25.4570  -30.6530   27.0870 C   0  0  0  0  0  1  0  0  0  0  0  0
  -27.5010  -29.6960   26.0100 C   0  0  0  0  0  1  0  0  0  0  0  0
  -27.6410  -31.8690   27.2010 C   0  0  0  0  0  1  0  0  0  0  0  0
  1 51  1  0
  2  3  1  0
  2  1  1  0
  4  2  1  0
  5  2  1  0
  6  5  1  0
  7  6  1  0
  8  7  1  0
  9  8  1  0
 10  9  1  0
 11 10  1  0
 11 12  1  0
 12 21  1  0
 13 21  1  0
 13 19  1  0
 15 16  1  0
 15 14  1  0
 17 16  1  0
 17 26  1  0
 17 18  1  0
 19 14  1  0
 19 18  1  0
 20 13  2  0
 21 22  1  0
 23 24  2  0
 24 43  1  0
 24 25  1  0
 25 28  1  0
 26 23  1  0
 26 27  1  0
 27 25  2  0
 28 29  1  0
 29 30  2  0
 31 34  1  0
 31 30  1  0
 32 31  2  0
 33 32  1  0
 33 28  2  0
 34 35  1  0
 35 36  2  0
 35 40  1  0
 36 37  1  0
 37 38  2  0
 38 42  1  0
 39 38  1  0
 40 39  2  0
 41 40  1  0
 43 44  1  0
 44 47  1  0
 44 46  1  0
 45 43  2  0
 48 23  1  0
 49 48  1  0
 50 48  1  0
 52 51  1  0
 52 53  1  0
 54 53  1  0
 55 54  1  0
 56 55  1  0
 57 56  1  0
 58 57  1  0
 59 70  2  0
 60 58  1  0
 60 65  1  0
 61 69  1  0
 61 71  1  0
 62 64  1  0
 63 69  1  0
 64 65  2  0
 64 63  1  0
 66 60  2  0
 67 66  1  0
 67 62  2  0
 68 62  1  0
 68 61  1  0
 69 59  1  0
 71 73  2  0
 72 71  1  0
 74 72  1  0
 75 80  1  0
 76 72  1  0
 77 76  1  0
 78 79  1  0
 78 77  1  0
 79 75  1  0
 80 76  1  0
 80 81  2  0
 82 81  1  0
 83 82  2  0
 84 75  2  0
 84 83  1  0
 85 59  1  0
 85 86  1  0
 85 95  1  0
 86 89  1  0
 87 91  1  0
 87 86  1  0
 88 87  2  0
 91 90  1  0
 91 93  1  0
 93 94  1  0
 93 92  1  0
 95 96  1  1
 95 98  1  0
 97 95  1  0
M  ISO  4  13 100  21 100  57 101  58 101
M  END
>  <TORSDO>  (8) 
F 32

>  <SCORE>  (8) 
2.871

>  <name>  (8) 
7

>  <ligand_id>  (8) 
7

>  <original_smiles>  (8) 
[H]c1c([H])c([H])c2c(c1[H])C([H])([H])C([H])([H])C([H])([H])C2([H])N([H])C(=O)C1([H])N(C(=O)C([H])(N([H])C(=O)C([H])(N([H])C([H])([H])[H])C([H])([H])[H])C(C([H])([H])[H])(C([H])([H])[H])C([H])([H])[H])C([H])([H])c2c([H])c(OC([H])([H])C([H])([H])OC([H])([H])C([H])([H])OC([H])([H])C([H])([H])[N+]([H])([H])C([H])([H])C([H])([H])C([H])([H])C([H])([H])C([H])([H])C([H])([H])C([H])([H])C([H])([H])N([H])C(=O)N3C([H])([H])C([H])([H])C([H])([H])C([H])(n4nc(-c5c([H])c([H])c(Oc6c([H])c([H])c(F)c([H])c6F)c([H])c5[H])c(C(=O)N([H])[H])c4N([H])[H])C3([H])[H])c([H])c([H])c2C1([H])[H]

>  <smiles>  (8) 
[H]c1c([H])c([H])c2c(c1[H])C([H])([H])C([H])([H])C([H])([H])C2([H])N([H])C(=O)C1([H])N(C(=O)C([H])(N([H])C(=O)C([H])(N([H])C([H])([H])[H])C([H])([H])[H])C(C([H])([H])[H])(C([H])([H])[H])C([H])([H])[H])C([H])([H])c2c([H])c(OC([H])([H])C([H])([H])OC([H])([H])C([H])([H])OC([H])([H])C([H])([H])[N+]([H])([H])C([H])([H])C([H])([H])C([H])([H])C([H])([H])C([H])([H])C([H])([H])C([H])([H])C([H])([H])N([H])C(=O)N3C([H])([H])C([H])([H])C([H])([H])C([H])(n4nc(-c5c([H])c([H])c(Oc6c([H])c([H])c(F)c([H])c6F)c([H])c5[H])c(C(=O)N([H])[H])c4N([H])[H])C3([H])[H])c([H])c([H])c2C1([H])[H]

$$$$
8:0:0
     RDKit          3D

 91 98  0  0  1  0  0  0  0  0999 V2000
  -27.8120  -22.2430   20.6990 O   0  0  0  0  0  0  0  0  0  0  0  0
  -27.6070  -20.8450   20.8630 C   0  0  0  0  0  2  0  0  0  0  0  0
  -28.8820  -20.1070   20.4330 C   0  0  0  0  0  2  0  0  0  0  0  0
  -28.6830  -18.6410   20.4480 N   0  0  0  0  0  4  0  0  0  0  0  0
  -27.9800  -18.4130   21.1340 H   0  0  0  0  0  0  0  0  0  0  0  0
  -28.3240  -18.3640   19.5460 H   0  0  0  0  0  0  0  0  0  0  0  0
  -29.8820  -17.8370   20.7610 C   0  0  0  0  0  2  0  0  0  0  0  0
  -29.5140  -16.3440   20.8110 C   0  0  0  0  0  2  0  0  0  0  0  0
  -31.1090  -14.5530   20.3540 C   0  0  0  0  0  0  0  0  0  0  0  0
  -30.7550  -12.3790   19.2440 C   0  0  0  0  0  2  0  0  0  0  0  0
  -29.8120  -12.5180   18.0340 C   0  0  0  0  0  2  0  0  0  0  0  0
  -28.3440  -12.3780   18.4790 C   0  0  0  0  0  2  0  0  0  0  0  0
  -27.9990  -13.2930   19.6830 C   0  0  0  0  0  3  0  0  0  0  0  0
  -29.0540  -13.1410   20.8040 C   0  0  0  0  0  2  0  0  0  0  0  0
  -30.3860  -13.4070   20.2280 N   0  0  0  0  0  0  0  0  0  0  0  0
  -32.1810  -14.7500   19.7810 O   0  0  0  0  0  0  0  0  0  0  0  0
  -30.6320  -15.4790   21.1930 N   0  0  0  0  0  0  0  0  0  0  0  0
  -31.3770  -16.0000   21.6320 H   0  0  0  0  0  0  0  0  0  0  0  0
  -25.6230  -13.9630   20.4150 C   0  0  0  0  0  0  0  0  0  0  0  0
  -24.5420  -13.2150   20.7970 C   0  0  0  0  0  0  0  0  0  0  0  0
  -24.9710  -11.8530   20.7580 C   0  0  0  0  0  0  0  0  0  0  0  0
  -26.6450  -13.0560   20.1740 N   0  0  0  0  0  0  0  0  0  0  0  0
  -26.2570  -11.7830   20.4370 N   0  0  0  0  0  0  0  0  0  0  0  0
  -24.2210  -10.6070   20.9540 C   0  0  0  0  0  0  0  0  0  0  0  0
  -24.6040   -9.6620   21.9300 C   0  0  0  0  0  3  0  0  0  0  0  0
  -23.8560   -8.4790   22.1120 C   0  0  0  0  0  3  0  0  0  0  0  0
  -22.7130   -8.2330   21.3160 C   0  0  0  0  0  0  0  0  0  0  0  0
  -22.3500   -9.1670   20.3300 C   0  0  0  0  0  3  0  0  0  0  0  0
  -23.0980  -10.3410   20.1470 C   0  0  0  0  0  3  0  0  0  0  0  0
  -21.9420   -7.0990   21.4040 O   0  0  0  0  0  0  0  0  0  0  0  0
  -21.7920   -6.4220   22.5870 C   0  0  0  0  0  0  0  0  0  0  0  0
  -21.2570   -7.0410   23.7370 C   0  0  0  0  0  3  0  0  0  0  0  0
  -21.0550   -6.2910   24.9120 C   0  0  0  0  0  3  0  0  0  0  0  0
  -21.3770   -4.9210   24.9380 C   0  0  0  0  0  0  0  0  0  0  0  0
  -21.9030   -4.3000   23.7910 C   0  0  0  0  0  3  0  0  0  0  0  0
  -22.1080   -5.0480   22.6190 C   0  0  0  0  0  0  0  0  0  0  0  0
  -22.5970   -4.4410   21.5110 F   0  0  0  0  0  0  0  0  0  0  0  0
  -21.1750   -4.1970   26.0630 F   0  0  0  0  0  0  0  0  0  0  0  0
  -23.1570  -13.7210   21.0800 C   0  0  0  0  0  0  0  0  0  0  0  0
  -22.4220  -13.0430   21.9540 N   0  0  0  0  0  0  0  0  0  0  0  0
  -22.7340  -14.7540   20.5610 O   0  0  0  0  0  0  0  0  0  0  0  0
  -22.7730  -12.2070   22.3970 H   0  0  0  0  0  0  0  0  0  0  0  0
  -21.4940  -13.3670   22.1860 H   0  0  0  0  0  0  0  0  0  0  0  0
  -25.8140  -15.3300   20.2350 N   0  0  0  0  0  0  0  0  0  0  0  0
  -25.0430  -15.9850   20.3180 H   0  0  0  0  0  0  0  0  0  0  0  0
  -26.6250  -15.7250   19.7800 H   0  0  0  0  0  0  0  0  0  0  0  0
  -26.8500  -23.0410   21.3760 C   0  0  0  0  0  2  0  0  0  0  0  0
  -27.6220  -23.9970   22.2990 C   0  0  0  0  0  2  0  0  0  0  0  0
  -27.7400  -25.4290   21.7620 C   0  0  0  0  0  2  0  0  0  0  0  0
  -28.3780  -25.5620   20.3580 C   0  0  0  0  0  2  0  0  0  0  0  0
  -28.4540  -26.9300   19.9590 O   0  0  0  0  0  0  0  0  0  0  0  0
  -24.6220  -31.9310   23.2030 C   0  0  0  0  0  0  0  0  0  0  0  0
  -27.2670  -27.6250   19.9610 C   0  0  0  0  0  0  0  0  0  0  0  0
  -23.3990  -30.5550   21.5500 C   0  0  0  0  0  3  0  0  0  0  0  0
  -24.8450  -29.0660   20.0680 C   0  0  0  0  0  0  0  0  0  0  0  0
  -25.9150  -30.9560   21.3130 C   0  0  0  0  0  2  0  0  0  0  0  0
  -26.0050  -29.6030   20.6400 C   0  0  0  0  0  0  0  0  0  0  0  0
  -27.2200  -28.8870   20.5850 C   0  0  0  0  0  3  0  0  0  0  0  0
  -26.0910  -27.0940   19.3830 C   0  0  0  0  0  3  0  0  0  0  0  0
  -24.8800  -27.8080   19.4420 C   0  0  0  0  0  3  0  0  0  0  0  0
  -23.5910  -29.9050   20.1530 C   0  0  0  0  0  2  0  0  0  0  0  0
  -24.6650  -31.1590   22.0810 N   0  0  0  0  0  0  0  0  0  0  0  0
  -23.5500  -32.1820   23.7690 O   0  0  0  0  0  0  0  0  0  0  0  0
  -22.7740  -29.5060   22.4960 C   0  0  0  0  0  0  0  0  0  0  0  0
  -21.4510  -29.3030   22.3770 N   0  0  0  0  0  0  0  0  0  0  0  0
  -23.4730  -28.8770   23.2940 O   0  0  0  0  0  0  0  0  0  0  0  0
  -20.9500  -29.8340   21.6780 H   0  0  0  0  0  0  0  0  0  0  0  0
  -18.0980  -28.0810   22.9260 C   0  0  0  0  0  0  0  0  0  0  0  0
  -20.6580  -28.3550   23.1570 C   0  0  0  0  0  3  0  0  0  0  0  0
  -20.7570  -26.9290   22.5690 C   0  0  0  0  0  2  0  0  0  0  0  0
  -19.6440  -26.6190   21.5640 C   0  0  0  0  0  2  0  0  0  0  0  0
  -18.2730  -26.7400   22.2370 C   0  0  0  0  0  2  0  0  0  0  0  0
  -19.2180  -28.8450   23.3460 C   0  0  0  0  0  0  0  0  0  0  0  0
  -19.0010  -30.0970   23.9620 C   0  0  0  0  0  3  0  0  0  0  0  0
  -17.6960  -30.5870   24.1570 C   0  0  0  0  0  3  0  0  0  0  0  0
  -16.5890  -29.8220   23.7470 C   0  0  0  0  0  3  0  0  0  0  0  0
  -16.7920  -28.5700   23.1400 C   0  0  0  0  0  3  0  0  0  0  0  0
  -25.9160  -32.5590   23.8150 C   0  0  0  0  0  3  0  0  0  0  0  0
  -26.4490  -31.7780   25.0780 C   0  0  1  0  0  0  0  0  0  0  0  0
  -25.3720  -31.5310   26.1590 C   0  0  0  0  0  1  0  0  0  0  0  0
  -27.0290  -30.4060   24.6630 C   0  0  0  0  0  1  0  0  0  0  0  0
  -27.6070  -32.5690   25.7300 C   0  0  0  0  0  1  0  0  0  0  0  0
  -25.6130  -33.9550   24.1540 N   0  0  0  0  0  0  0  0  0  0  0  0
  -25.9430  -35.0100   23.3950 C   0  0  0  0  0  0  0  0  0  0  0  0
  -26.6080  -34.9090   22.3610 O   0  0  0  0  0  0  0  0  0  0  0  0
  -25.0240  -34.1090   24.9590 H   0  0  0  0  0  0  0  0  0  0  0  0
  -24.2190  -36.8060   23.0460 C   0  0  0  0  0  1  0  0  0  0  0  0
  -25.4580  -36.3960   23.8570 C   0  0  0  0  0  3  0  0  0  0  0  0
  -27.5920  -37.2730   24.6960 C   0  0  0  0  0  1  0  0  0  0  0  0
  -26.4930  -37.4480   23.7500 N   0  0  0  0  0  0  0  0  0  0  0  0
  -26.0900  -38.3690   23.8990 H   0  0  0  0  0  0  0  0  0  0  0  0
  1  2  1  0
  1 47  1  0
  3  4  1  0
  3  2  1  0
  4  7  1  0
  4  5  1  0
  6  4  1  0
  7  8  1  0
  8 17  1  0
  9 17  1  0
 10 15  1  0
 11 12  1  0
 11 10  1  0
 13 12  1  0
 13 22  1  0
 13 14  1  0
 15  9  1  0
 15 14  1  0
 16  9  2  0
 17 18  1  0
 19 20  2  0
 20 39  1  0
 21 20  1  0
 21 24  1  0
 22 19  1  0
 22 23  1  0
 23 21  2  0
 24 25  1  0
 25 26  2  0
 27 30  1  0
 27 26  1  0
 28 27  2  0
 29 28  1  0
 29 24  2  0
 30 31  1  0
 31 36  2  0
 31 32  1  0
 32 33  2  0
 33 34  1  0
 34 38  1  0
 35 34  2  0
 36 35  1  0
 37 36  1  0
 39 40  1  0
 40 43  1  0
 40 42  1  0
 41 39  2  0
 44 45  1  0
 44 19  1  0
 46 44  1  0
 47 48  1  0
 49 48  1  0
 50 49  1  0
 51 53  1  0
 51 50  1  0
 52 63  2  0
 53 58  1  0
 54 62  1  0
 54 64  1  0
 55 61  1  0
 55 57  1  0
 56 62  1  0
 57 56  1  0
 58 57  2  0
 59 60  1  0
 59 53  2  0
 60 55  2  0
 61 54  1  0
 62 52  1  0
 64 66  2  0
 65 64  1  0
 67 65  1  0
 68 77  2  0
 68 73  1  0
 69 65  1  0
 69 73  1  0
 70 69  1  0
 71 72  1  0
 71 70  1  0
 72 68  1  0
 73 74  2  0
 74 75  1  0
 76 75  2  0
 77 76  1  0
 78 52  1  0
 78 83  1  0
 78 79  1  0
 79 82  1  1
 79 80  1  0
 81 79  1  0
 83 86  1  0
 84 88  1  0
 84 83  1  0
 85 84  2  0
 88 87  1  0
 90 88  1  0
 90 91  1  0
 90 89  1  0
M  ISO  4   9 100  17 100  50 101  51 101
M  END
>  <TORSDO>  (9) 
F 25

>  <SCORE>  (9) 
-11.553

>  <name>  (9) 
8

>  <ligand_id>  (9) 
8

>  <original_smiles>  (9) 
[H]c1c([H])c([H])c2c(c1[H])C([H])([H])C([H])([H])C([H])([H])C2([H])N([H])C(=O)C1([H])N(C(=O)C([H])(N([H])C(=O)C([H])(N([H])C([H])([H])[H])C([H])([H])[H])C(C([H])([H])[H])(C([H])([H])[H])C([H])([H])[H])C([H])([H])c2c([H])c(OC([H])([H])C([H])([H])C([H])([H])C([H])([H])OC([H])([H])C([H])([H])[N+]([H])([H])C([H])([H])C([H])([H])N([H])C(=O)N3C([H])([H])C([H])([H])C([H])([H])C([H])(n4nc(-c5c([H])c([H])c(Oc6c([H])c([H])c(F)c([H])c6F)c([H])c5[H])c(C(=O)N([H])[H])c4N([H])[H])C3([H])[H])c([H])c([H])c2C1([H])[H]

>  <smiles>  (9) 
[H]c1c([H])c([H])c2c(c1[H])C([H])([H])C([H])([H])C([H])([H])C2([H])N([H])C(=O)C1([H])N(C(=O)C([H])(N([H])C(=O)C([H])(N([H])C([H])([H])[H])C([H])([H])[H])C(C([H])([H])[H])(C([H])([H])[H])C([H])([H])[H])C([H])([H])c2c([H])c(OC([H])([H])C([H])([H])C([H])([H])C([H])([H])OC([H])([H])C([H])([H])[N+]([H])([H])C([H])([H])C([H])([H])N([H])C(=O)N3C([H])([H])C([H])([H])C([H])([H])C([H])(n4nc(-c5c([H])c([H])c(Oc6c([H])c([H])c(F)c([H])c6F)c([H])c5[H])c(C(=O)N([H])[H])c4N([H])[H])C3([H])[H])c([H])c([H])c2C1([H])[H]

$$$$
9:0:0
     RDKit          3D

 97104  0  0  1  0  0  0  0  0999 V2000
  -26.6240  -21.6000   16.8700 C   0  0  0  0  0  2  0  0  0  0  0  0
  -27.9630  -22.1340   16.3060 C   0  0  0  0  0  2  0  0  0  0  0  0
  -28.1770  -23.6420   16.5440 C   0  0  0  0  0  2  0  0  0  0  0  0
  -28.4590  -23.8930   17.9730 N   0  0  0  0  0  4  0  0  0  0  0  0
  -29.3450  -23.4710   18.2110 H   0  0  0  0  0  0  0  0  0  0  0  0
  -27.7400  -23.4200   18.4970 H   0  0  0  0  0  0  0  0  0  0  0  0
  -28.4710  -25.3080   18.4080 C   0  0  0  0  0  2  0  0  0  0  0  0
  -28.3910  -25.3840   19.9480 C   0  0  0  0  0  2  0  0  0  0  0  0
  -28.3350  -26.7170   20.4530 O   0  0  0  0  0  0  0  0  0  0  0  0
  -24.5190  -31.9180   23.4190 C   0  0  0  0  0  0  0  0  0  0  0  0
  -27.1400  -27.4020   20.4350 C   0  0  0  0  0  0  0  0  0  0  0  0
  -23.3260  -30.5390   21.7490 C   0  0  0  0  0  3  0  0  0  0  0  0
  -24.7740  -28.9530   20.3850 C   0  0  0  0  0  0  0  0  0  0  0  0
  -25.8640  -30.8330   21.6250 C   0  0  0  0  0  2  0  0  0  0  0  0
  -25.9290  -29.4550   20.9990 C   0  0  0  0  0  0  0  0  0  0  0  0
  -27.1110  -28.6870   21.0220 C   0  0  0  0  0  3  0  0  0  0  0  0
  -25.9520  -26.8980   19.8520 C   0  0  0  0  0  3  0  0  0  0  0  0
  -24.7790  -27.6710   19.8130 C   0  0  0  0  0  3  0  0  0  0  0  0
  -23.5570  -29.8470   20.3800 C   0  0  0  0  0  2  0  0  0  0  0  0
  -24.5870  -31.1110   22.3230 N   0  0  0  0  0  0  0  0  0  0  0  0
  -23.4300  -32.2210   23.9230 O   0  0  0  0  0  0  0  0  0  0  0  0
  -22.6230  -29.5380   22.6950 C   0  0  0  0  0  0  0  0  0  0  0  0
  -21.2990  -29.3930   22.5300 N   0  0  0  0  0  0  0  0  0  0  0  0
  -23.2670  -28.8980   23.5300 O   0  0  0  0  0  0  0  0  0  0  0  0
  -20.8460  -29.9610   21.8270 H   0  0  0  0  0  0  0  0  0  0  0  0
  -17.8760  -28.3110   22.9450 C   0  0  0  0  0  0  0  0  0  0  0  0
  -20.4340  -28.4840   23.2820 C   0  0  0  0  0  3  0  0  0  0  0  0
  -20.5030  -27.0500   22.7090 C   0  0  0  0  0  2  0  0  0  0  0  0
  -19.4160  -26.7600   21.6690 C   0  0  0  0  0  2  0  0  0  0  0  0
  -18.0250  -26.9550   22.2790 C   0  0  0  0  0  2  0  0  0  0  0  0
  -19.0090  -29.0360   23.4030 C   0  0  0  0  0  0  0  0  0  0  0  0
  -18.8180  -30.3080   23.9850 C   0  0  0  0  0  3  0  0  0  0  0  0
  -17.5270  -30.8530   24.1160 C   0  0  0  0  0  3  0  0  0  0  0  0
  -16.4080  -30.1250   23.6750 C   0  0  0  0  0  3  0  0  0  0  0  0
  -16.5840  -28.8560   23.0940 C   0  0  0  0  0  3  0  0  0  0  0  0
  -25.8020  -32.5190   24.0720 C   0  0  0  0  0  3  0  0  0  0  0  0
  -25.5220  -33.9260   24.3810 N   0  0  0  0  0  0  0  0  0  0  0  0
  -25.8980  -34.9610   23.6170 C   0  0  0  0  0  0  0  0  0  0  0  0
  -26.5900  -34.8300   22.6040 O   0  0  0  0  0  0  0  0  0  0  0  0
  -24.9180  -34.1040   25.1690 H   0  0  0  0  0  0  0  0  0  0  0  0
  -24.2200  -36.7890   23.2000 C   0  0  0  0  0  1  0  0  0  0  0  0
  -25.4320  -36.3660   24.0460 C   0  0  0  0  0  3  0  0  0  0  0  0
  -27.5670  -37.2110   24.9170 C   0  0  0  0  0  1  0  0  0  0  0  0
  -26.4900  -37.3950   23.9470 N   0  0  0  0  0  0  0  0  0  0  0  0
  -26.1020  -38.3250   24.0760 H   0  0  0  0  0  0  0  0  0  0  0  0
  -26.2620  -31.7450   25.3690 C   0  0  1  0  0  0  0  0  0  0  0  0
  -25.1320  -31.5430   26.4040 C   0  0  0  0  0  1  0  0  0  0  0  0
  -26.8210  -30.3510   24.9980 C   0  0  0  0  0  1  0  0  0  0  0  0
  -27.4130  -32.5140   26.0580 C   0  0  0  0  0  1  0  0  0  0  0  0
  -26.7020  -20.1550   17.3970 C   0  0  0  0  0  2  0  0  0  0  0  0
  -27.5560  -19.3650   19.6100 C   0  0  0  0  0  0  0  0  0  0  0  0
  -27.6880  -20.0580   18.4720 N   0  0  0  0  0  0  0  0  0  0  0  0
  -26.6220  -18.5940   19.8290 O   0  0  0  0  0  0  0  0  0  0  0  0
  -28.5450  -20.5770   18.3590 H   0  0  0  0  0  0  0  0  0  0  0  0
  -28.6030  -19.6410   20.6910 C   0  0  0  0  0  2  0  0  0  0  0  0
  -29.9590  -18.9490   20.4580 C   0  0  0  0  0  2  0  0  0  0  0  0
  -30.0380  -17.5040   20.9780 C   0  0  0  0  0  2  0  0  0  0  0  0
  -31.4820  -16.9730   20.9270 C   0  0  0  0  0  2  0  0  0  0  0  0
  -31.7020  -15.6570   21.6910 C   0  0  0  0  0  2  0  0  0  0  0  0
  -31.1890  -13.7880   20.1250 C   0  0  0  0  0  0  0  0  0  0  0  0
  -30.6300  -11.7160   18.9110 C   0  0  0  0  0  2  0  0  0  0  0  0
  -29.6620  -11.9750   17.7430 C   0  0  0  0  0  2  0  0  0  0  0  0
  -28.2020  -11.9400   18.2300 C   0  0  0  0  0  2  0  0  0  0  0  0
  -27.9730  -12.8300   19.4800 C   0  0  0  0  0  3  0  0  0  0  0  0
  -29.0370  -12.5430   20.5590 C   0  0  0  0  0  2  0  0  0  0  0  0
  -30.3750  -12.7160   19.9570 N   0  0  0  0  0  0  0  0  0  0  0  0
  -32.1800  -14.0110   19.4230 O   0  0  0  0  0  0  0  0  0  0  0  0
  -30.8920  -14.5550   21.1820 N   0  0  0  0  0  0  0  0  0  0  0  0
  -30.0850  -14.2830   21.7230 H   0  0  0  0  0  0  0  0  0  0  0  0
  -25.6510  -13.6300   20.2580 C   0  0  0  0  0  0  0  0  0  0  0  0
  -24.5400  -12.9460   20.6750 C   0  0  0  0  0  0  0  0  0  0  0  0
  -24.8960  -11.5630   20.6500 C   0  0  0  0  0  0  0  0  0  0  0  0
  -26.6180  -12.6700   20.0050 N   0  0  0  0  0  0  0  0  0  0  0  0
  -26.1680  -11.4220   20.2960 N   0  0  0  0  0  0  0  0  0  0  0  0
  -24.0860  -10.3610   20.8860 C   0  0  0  0  0  0  0  0  0  0  0  0
  -24.4700   -9.3850   21.8320 C   0  0  0  0  0  3  0  0  0  0  0  0
  -23.6650   -8.2470   22.0530 C   0  0  0  0  0  3  0  0  0  0  0  0
  -22.4610   -8.0780   21.3280 C   0  0  0  0  0  0  0  0  0  0  0  0
  -22.0950   -9.0420   20.3720 C   0  0  0  0  0  3  0  0  0  0  0  0
  -22.9010  -10.1710   20.1490 C   0  0  0  0  0  3  0  0  0  0  0  0
  -21.6290   -6.9930   21.4580 O   0  0  0  0  0  0  0  0  0  0  0  0
  -21.5460   -6.2860   22.6310 C   0  0  0  0  0  0  0  0  0  0  0  0
  -21.1890   -6.9030   23.8490 C   0  0  0  0  0  3  0  0  0  0  0  0
  -21.0470   -6.1270   25.0170 C   0  0  0  0  0  3  0  0  0  0  0  0
  -21.2530   -4.7350   24.9670 C   0  0  0  0  0  0  0  0  0  0  0  0
  -21.6020   -4.1180   23.7540 C   0  0  0  0  0  3  0  0  0  0  0  0
  -21.7450   -4.8910   22.5880 C   0  0  0  0  0  0  0  0  0  0  0  0
  -22.0620   -4.2890   21.4160 F   0  0  0  0  0  0  0  0  0  0  0  0
  -21.1090   -3.9880   26.0860 F   0  0  0  0  0  0  0  0  0  0  0  0
  -23.1940  -13.5300   20.9920 C   0  0  0  0  0  0  0  0  0  0  0  0
  -22.4530  -12.9080   21.9020 N   0  0  0  0  0  0  0  0  0  0  0  0
  -22.8100  -14.5740   20.4650 O   0  0  0  0  0  0  0  0  0  0  0  0
  -22.7770  -12.0630   22.3500 H   0  0  0  0  0  0  0  0  0  0  0  0
  -21.5510  -13.2820   22.1570 H   0  0  0  0  0  0  0  0  0  0  0  0
  -25.9110  -14.9820   20.0540 N   0  0  0  0  0  0  0  0  0  0  0  0
  -25.2080  -15.7000   20.1860 H   0  0  0  0  0  0  0  0  0  0  0  0
  -26.7900  -15.3540   19.7150 H   0  0  0  0  0  0  0  0  0  0  0  0
  1 50  1  0
  2  3  1  0
  2  1  1  0
  3  4  1  0
  4  5  1  0
  4  7  1  0
  4  6  1  0
  7  8  1  0
  8  9  1  0
 10 21  2  0
 11  9  1  0
 11 16  1  0
 12 20  1  0
 12 22  1  0
 13 15  1  0
 14 20  1  0
 15 16  2  0
 15 14  1  0
 17 11  2  0
 18 17  1  0
 18 13  2  0
 19 13  1  0
 19 12  1  0
 20 10  1  0
 22 24  2  0
 23 22  1  0
 25 23  1  0
 26 35  2  0
 26 31  1  0
 27 23  1  0
 27 31  1  0
 28 27  1  0
 29 30  1  0
 29 28  1  0
 30 26  1  0
 31 32  2  0
 32 33  1  0
 34 33  2  0
 35 34  1  0
 36 10  1  0
 36 37  1  0
 36 46  1  0
 37 40  1  0
 38 42  1  0
 38 37  1  0
 39 38  2  0
 42 41  1  0
 44 42  1  0
 44 45  1  0
 44 43  1  0
 46 49  1  1
 46 47  1  0
 48 46  1  0
 50 52  1  0
 51 53  2  0
 51 55  1  0
 52 51  1  0
 54 52  1  0
 56 55  1  0
 56 57  1  0
 58 57  1  0
 58 59  1  0
 60 68  1  0
 61 66  1  0
 62 63  1  0
 62 61  1  0
 64 63  1  0
 64 73  1  0
 64 65  1  0
 66 60  1  0
 66 65  1  0
 67 60  2  0
 68 59  1  0
 68 69  1  0
 70 71  2  0
 71 90  1  0
 72 71  1  0
 72 75  1  0
 73 70  1  0
 73 74  1  0
 74 72  2  0
 75 76  1  0
 76 77  2  0
 78 81  1  0
 78 77  1  0
 79 78  2  0
 80 79  1  0
 80 75  2  0
 81 82  1  0
 82 83  1  0
 83 84  2  0
 85 84  1  0
 85 89  1  0
 86 85  2  0
 87 82  2  0
 87 86  1  0
 88 87  1  0
 90 91  1  0
 91 94  1  0
 91 93  1  0
 92 90  2  0
 95 96  1  0
 95 70  1  0
 97 95  1  0
M  ISO  4   8 101   9 101  60 100  68 100
M  END
>  <TORSDO>  (10) 
F 28

>  <SCORE>  (10) 
-8.325

>  <name>  (10) 
9

>  <ligand_id>  (10) 
9

>  <original_smiles>  (10) 
[H]c1c([H])c([H])c2c(c1[H])C([H])([H])C([H])([H])C([H])([H])C2([H])N([H])C(=O)C1([H])N(C(=O)C([H])(N([H])C(=O)C([H])(N([H])C([H])([H])[H])C([H])([H])[H])C(C([H])([H])[H])(C([H])([H])[H])C([H])([H])[H])C([H])([H])c2c([H])c(OC([H])([H])C([H])([H])[N+]([H])([H])C([H])([H])C([H])([H])C([H])([H])C([H])([H])N([H])C(=O)C([H])([H])C([H])([H])C([H])([H])C([H])([H])C([H])([H])N([H])C(=O)N3C([H])([H])C([H])([H])C([H])([H])C([H])(n4nc(-c5c([H])c([H])c(Oc6c([H])c([H])c(F)c([H])c6F)c([H])c5[H])c(C(=O)N([H])[H])c4N([H])[H])C3([H])[H])c([H])c([H])c2C1([H])[H]

>  <smiles>  (10) 
[H]c1c([H])c([H])c2c(c1[H])C([H])([H])C([H])([H])C([H])([H])C2([H])N([H])C(=O)C1([H])N(C(=O)C([H])(N([H])C(=O)C([H])(N([H])C([H])([H])[H])C([H])([H])[H])C(C([H])([H])[H])(C([H])([H])[H])C([H])([H])[H])C([H])([H])c2c([H])c(OC([H])([H])C([H])([H])[N+]([H])([H])C([H])([H])C([H])([H])C([H])([H])C([H])([H])N([H])C(=O)C([H])([H])C([H])([H])C([H])([H])C([H])([H])C([H])([H])N([H])C(=O)N3C([H])([H])C([H])([H])C([H])([H])C([H])(n4nc(-c5c([H])c([H])c(Oc6c([H])c([H])c(F)c([H])c6F)c([H])c5[H])c(C(=O)N([H])[H])c4N([H])[H])C3([H])[H])c([H])c([H])c2C1([H])[H]

$$$$
10:0:0
     RDKit          3D

 89 96  0  0  1  0  0  0  0  0999 V2000
  -29.8410  -21.8340   20.3130 C   0  0  0  0  0  2  0  0  0  0  0  0
  -29.2140  -20.4330   20.0330 C   0  0  0  0  0  2  0  0  0  0  0  0
  -29.6010  -18.0220   20.6600 C   0  0  0  0  0  0  0  0  0  0  0  0
  -30.0450  -19.2850   20.4650 N   0  0  0  0  0  0  0  0  0  0  0  0
  -28.4160  -17.7140   20.5170 O   0  0  0  0  0  0  0  0  0  0  0  0
  -31.0340  -19.4580   20.6060 H   0  0  0  0  0  0  0  0  0  0  0  0
  -30.6140  -16.9430   21.1070 C   0  0  0  0  0  2  0  0  0  0  0  0
  -30.7070  -14.5110   20.4540 C   0  0  0  0  0  0  0  0  0  0  0  0
  -30.3510  -12.3670   19.2820 C   0  0  0  0  0  2  0  0  0  0  0  0
  -29.4040  -12.5940   18.0880 C   0  0  0  0  0  2  0  0  0  0  0  0
  -27.9410  -12.4250   18.5360 C   0  0  0  0  0  2  0  0  0  0  0  0
  -27.6060  -13.2550   19.8040 C   0  0  0  0  0  3  0  0  0  0  0  0
  -28.6780  -13.0600   20.9010 C   0  0  0  0  0  2  0  0  0  0  0  0
  -29.9970  -13.3530   20.3180 N   0  0  0  0  0  0  0  0  0  0  0  0
  -31.8280  -14.6550   19.9590 O   0  0  0  0  0  0  0  0  0  0  0  0
  -30.0860  -15.5540   21.0380 N   0  0  0  0  0  0  0  0  0  0  0  0
  -29.1400  -15.4130   21.3640 H   0  0  0  0  0  0  0  0  0  0  0  0
  -25.2110  -13.8410   20.5410 C   0  0  0  0  0  0  0  0  0  0  0  0
  -24.1510  -13.0610   20.9180 C   0  0  0  0  0  0  0  0  0  0  0  0
  -24.6200  -11.7120   20.8770 C   0  0  0  0  0  0  0  0  0  0  0  0
  -26.2610  -12.9670   20.2960 N   0  0  0  0  0  0  0  0  0  0  0  0
  -25.9090  -11.6810   20.5570 N   0  0  0  0  0  0  0  0  0  0  0  0
  -23.9020  -10.4430   21.0660 C   0  0  0  0  0  0  0  0  0  0  0  0
  -24.3600   -9.4630   21.9730 C   0  0  0  0  0  3  0  0  0  0  0  0
  -23.6400   -8.2620   22.1520 C   0  0  0  0  0  3  0  0  0  0  0  0
  -22.4480   -8.0340   21.4240 C   0  0  0  0  0  0  0  0  0  0  0  0
  -22.0080   -9.0030   20.5060 C   0  0  0  0  0  3  0  0  0  0  0  0
  -22.7270  -10.1970   20.3270 C   0  0  0  0  0  3  0  0  0  0  0  0
  -21.7010   -6.8850   21.5110 O   0  0  0  0  0  0  0  0  0  0  0  0
  -21.6750   -6.1270   22.6530 C   0  0  0  0  0  0  0  0  0  0  0  0
  -21.2720   -6.6640   23.8960 C   0  0  0  0  0  3  0  0  0  0  0  0
  -21.1960   -5.8300   25.0300 C   0  0  0  0  0  3  0  0  0  0  0  0
  -21.5190   -4.4640   24.9270 C   0  0  0  0  0  0  0  0  0  0  0  0
  -21.9190   -3.9300   23.6890 C   0  0  0  0  0  3  0  0  0  0  0  0
  -21.9940   -4.7570   22.5550 C   0  0  0  0  0  0  0  0  0  0  0  0
  -22.3590   -4.2320   21.3590 F   0  0  0  0  0  0  0  0  0  0  0  0
  -21.4390   -3.6610   26.0140 F   0  0  0  0  0  0  0  0  0  0  0  0
  -22.7570  -13.5330   21.2160 C   0  0  0  0  0  0  0  0  0  0  0  0
  -22.0610  -12.8420   22.1120 N   0  0  0  0  0  0  0  0  0  0  0  0
  -22.2990  -14.5510   20.6980 O   0  0  0  0  0  0  0  0  0  0  0  0
  -22.4620  -12.0430   22.5820 H   0  0  0  0  0  0  0  0  0  0  0  0
  -21.1320  -13.1460   22.3690 H   0  0  0  0  0  0  0  0  0  0  0  0
  -25.3610  -15.2130   20.3760 N   0  0  0  0  0  0  0  0  0  0  0  0
  -24.5890  -15.8530   20.5190 H   0  0  0  0  0  0  0  0  0  0  0  0
  -26.2210  -15.6730   20.0970 H   0  0  0  0  0  0  0  0  0  0  0  0
  -28.9540  -22.8890   19.8970 O   0  0  0  0  0  0  0  0  0  0  0  0
  -29.3770  -24.2430   20.1620 C   0  0  0  0  0  2  0  0  0  0  0  0
  -28.2270  -25.2310   19.8020 C   0  0  0  0  0  2  0  0  0  0  0  0
  -28.3780  -26.6230   20.1920 O   0  0  0  0  0  0  0  0  0  0  0  0
  -24.6170  -31.9170   23.2470 C   0  0  0  0  0  0  0  0  0  0  0  0
  -27.2270  -27.4120   20.1640 C   0  0  0  0  0  0  0  0  0  0  0  0
  -23.4030  -30.5240   21.6040 C   0  0  0  0  0  3  0  0  0  0  0  0
  -24.8490  -28.9780   20.1850 C   0  0  0  0  0  0  0  0  0  0  0  0
  -25.9410  -30.8500   21.4210 C   0  0  0  0  0  2  0  0  0  0  0  0
  -26.0170  -29.4770   20.7750 C   0  0  0  0  0  0  0  0  0  0  0  0
  -27.2070  -28.7010   20.7640 C   0  0  0  0  0  3  0  0  0  0  0  0
  -26.0310  -26.9550   19.5580 C   0  0  0  0  0  3  0  0  0  0  0  0
  -24.8520  -27.7170   19.5780 C   0  0  0  0  0  3  0  0  0  0  0  0
  -23.6140  -29.8470   20.2260 C   0  0  0  0  0  2  0  0  0  0  0  0
  -24.6720  -31.1130   22.1480 N   0  0  0  0  0  0  0  0  0  0  0  0
  -23.5380  -32.2000   23.7850 O   0  0  0  0  0  0  0  0  0  0  0  0
  -22.7390  -29.5070   22.5640 C   0  0  0  0  0  0  0  0  0  0  0  0
  -21.4120  -29.3400   22.4400 N   0  0  0  0  0  0  0  0  0  0  0  0
  -23.4160  -28.8720   23.3780 O   0  0  0  0  0  0  0  0  0  0  0  0
  -20.9260  -29.9010   21.7540 H   0  0  0  0  0  0  0  0  0  0  0  0
  -18.0240  -28.1870   22.9510 C   0  0  0  0  0  0  0  0  0  0  0  0
  -20.5860  -28.4090   23.2110 C   0  0  0  0  0  3  0  0  0  0  0  0
  -20.6680  -26.9780   22.6300 C   0  0  0  0  0  2  0  0  0  0  0  0
  -19.5580  -26.6740   21.6190 C   0  0  0  0  0  2  0  0  0  0  0  0
  -18.1820  -26.8360   22.2700 C   0  0  0  0  0  2  0  0  0  0  0  0
  -19.1550  -28.9310   23.3790 C   0  0  0  0  0  0  0  0  0  0  0  0
  -18.9580  -30.1950   23.9760 C   0  0  0  0  0  3  0  0  0  0  0  0
  -17.6620  -30.7160   24.1470 C   0  0  0  0  0  3  0  0  0  0  0  0
  -16.5440  -29.9680   23.7370 C   0  0  0  0  0  3  0  0  0  0  0  0
  -16.7260  -28.7040   23.1450 C   0  0  0  0  0  3  0  0  0  0  0  0
  -25.9060  -32.5390   23.8680 C   0  0  0  0  0  3  0  0  0  0  0  0
  -25.6080  -33.9370   24.2000 N   0  0  0  0  0  0  0  0  0  0  0  0
  -25.9360  -34.9880   23.4370 C   0  0  0  0  0  0  0  0  0  0  0  0
  -26.5940  -34.8820   22.3980 O   0  0  0  0  0  0  0  0  0  0  0  0
  -25.0240  -34.0950   25.0080 H   0  0  0  0  0  0  0  0  0  0  0  0
  -24.2100  -36.7850   23.0970 C   0  0  0  0  0  1  0  0  0  0  0  0
  -25.4570  -36.3770   23.8970 C   0  0  0  0  0  3  0  0  0  0  0  0
  -27.6000  -37.2560   24.7110 C   0  0  0  0  0  1  0  0  0  0  0  0
  -26.4900  -37.4270   23.7750 N   0  0  0  0  0  0  0  0  0  0  0  0
  -26.0900  -38.3490   23.9280 H   0  0  0  0  0  0  0  0  0  0  0  0
  -26.4240  -31.7600   25.1390 C   0  0  1  0  0  0  0  0  0  0  0  0
  -25.3290  -31.5280   26.2060 C   0  0  0  0  0  1  0  0  0  0  0  0
  -27.0000  -30.3800   24.7430 C   0  0  0  0  0  1  0  0  0  0  0  0
  -27.5800  -32.5470   25.8020 C   0  0  0  0  0  1  0  0  0  0  0  0
  2  1  1  0
  2  4  1  0
  3  7  1  0
  4  6  1  0
  4  3  1  0
  5  3  2  0
  8 16  1  0
  9 14  1  0
 10 11  1  0
 10  9  1  0
 12 11  1  0
 12 21  1  0
 12 13  1  0
 14  8  1  0
 14 13  1  0
 15  8  2  0
 16  7  1  0
 16 17  1  0
 18 19  2  0
 19 38  1  0
 20 19  1  0
 20 23  1  0
 21 18  1  0
 21 22  1  0
 22 20  2  0
 23 24  1  0
 24 25  2  0
 26 29  1  0
 26 25  1  0
 27 26  2  0
 28 27  1  0
 28 23  2  0
 29 30  1  0
 30 31  1  0
 31 32  2  0
 33 32  1  0
 33 37  1  0
 34 33  2  0
 35 30  2  0
 35 34  1  0
 36 35  1  0
 38 39  1  0
 39 42  1  0
 39 41  1  0
 40 38  2  0
 43 44  1  0
 43 18  1  0
 45 43  1  0
 46 47  1  0
 46  1  1  0
 48 47  1  0
 48 49  1  0
 50 61  2  0
 51 49  1  0
 51 56  1  0
 52 60  1  0
 52 62  1  0
 53 59  1  0
 53 55  1  0
 54 60  1  0
 55 54  1  0
 56 55  2  0
 57 58  1  0
 57 51  2  0
 58 53  2  0
 59 52  1  0
 60 50  1  0
 62 64  2  0
 63 62  1  0
 65 63  1  0
 66 75  2  0
 66 71  1  0
 67 63  1  0
 67 71  1  0
 68 67  1  0
 69 70  1  0
 69 68  1  0
 70 66  1  0
 71 72  2  0
 72 73  1  0
 74 73  2  0
 75 74  1  0
 76 50  1  0
 76 77  1  0
 76 86  1  0
 77 80  1  0
 78 82  1  0
 78 77  1  0
 79 78  2  0
 82 81  1  0
 84 82  1  0
 84 85  1  0
 84 83  1  0
 86 89  1  1
 86 87  1  0
 88 86  1  0
M  ISO  4   8 100  16 100  48 101  49 101
M  END
>  <TORSDO>  (11) 
F 22

>  <SCORE>  (11) 
-13.116

>  <name>  (11) 
10

>  <ligand_id>  (11) 
10

>  <original_smiles>  (11) 
[H]c1c([H])c([H])c2c(c1[H])C([H])([H])C([H])([H])C([H])([H])C2([H])N([H])C(=O)C1([H])N(C(=O)C([H])(N([H])C(=O)C([H])(N([H])C([H])([H])[H])C([H])([H])[H])C(C([H])([H])[H])(C([H])([H])[H])C([H])([H])[H])C([H])([H])c2c([H])c(OC([H])([H])C([H])([H])OC([H])([H])C([H])([H])N([H])C(=O)C([H])([H])N([H])C(=O)N3C([H])([H])C([H])([H])C([H])([H])C([H])(n4nc(-c5c([H])c([H])c(Oc6c([H])c([H])c(F)c([H])c6F)c([H])c5[H])c(C(=O)N([H])[H])c4N([H])[H])C3([H])[H])c([H])c([H])c2C1([H])[H]

>  <smiles>  (11) 
[H]c1c([H])c([H])c2c(c1[H])C([H])([H])C([H])([H])C([H])([H])C2([H])N([H])C(=O)C1([H])N(C(=O)C([H])(N([H])C(=O)C([H])(N([H])C([H])([H])[H])C([H])([H])[H])C(C([H])([H])[H])(C([H])([H])[H])C([H])([H])[H])C([H])([H])c2c([H])c(OC([H])([H])C([H])([H])OC([H])([H])C([H])([H])N([H])C(=O)C([H])([H])N([H])C(=O)N3C([H])([H])C([H])([H])C([H])([H])C([H])(n4nc(-c5c([H])c([H])c(Oc6c([H])c([H])c(F)c([H])c6F)c([H])c5[H])c(C(=O)N([H])[H])c4N([H])[H])C3([H])[H])c([H])c([H])c2C1([H])[H]

$$$$
11:0:0
     RDKit          3D

 91 98  0  0  1  0  0  0  0  0999 V2000
  -30.6830  -21.4710   21.0150 N   0  0  0  0  0  4  0  0  0  0  0  0
  -30.8680  -21.4360   20.0260 H   0  0  0  0  0  0  0  0  0  0  0  0
  -31.5570  -21.6380   21.4860 H   0  0  0  0  0  0  0  0  0  0  0  0
  -29.7970  -22.6150   21.2930 C   0  0  0  0  0  2  0  0  0  0  0  0
  -30.4950  -23.9120   20.8590 C   0  0  0  0  0  2  0  0  0  0  0  0
  -29.7300  -25.2000   21.1740 C   0  0  0  0  0  2  0  0  0  0  0  0
  -28.4680  -25.4500   20.3320 C   0  0  0  0  0  2  0  0  0  0  0  0
  -28.3770  -26.8620   20.2830 O   0  0  0  0  0  0  0  0  0  0  0  0
  -24.5030  -31.9510   23.2710 C   0  0  0  0  0  0  0  0  0  0  0  0
  -27.1540  -27.4790   20.2880 C   0  0  0  0  0  0  0  0  0  0  0  0
  -23.2920  -30.5160   21.6560 C   0  0  0  0  0  3  0  0  0  0  0  0
  -24.7430  -28.9390   20.2720 C   0  0  0  0  0  0  0  0  0  0  0  0
  -25.8110  -30.8800   21.4460 C   0  0  0  0  0  2  0  0  0  0  0  0
  -25.8940  -29.4960   20.8400 C   0  0  0  0  0  0  0  0  0  0  0  0
  -27.1010  -28.7710   20.8400 C   0  0  0  0  0  3  0  0  0  0  0  0
  -25.9860  -26.9110   19.7300 C   0  0  0  0  0  3  0  0  0  0  0  0
  -24.7800  -27.6440   19.7190 C   0  0  0  0  0  3  0  0  0  0  0  0
  -23.4980  -29.7980   20.2950 C   0  0  0  0  0  2  0  0  0  0  0  0
  -24.5540  -31.1310   22.1840 N   0  0  0  0  0  0  0  0  0  0  0  0
  -23.4230  -32.2370   23.8060 O   0  0  0  0  0  0  0  0  0  0  0  0
  -22.6400  -29.5190   22.6390 C   0  0  0  0  0  0  0  0  0  0  0  0
  -21.3190  -29.3260   22.5010 N   0  0  0  0  0  0  0  0  0  0  0  0
  -23.3200  -28.9200   23.4760 O   0  0  0  0  0  0  0  0  0  0  0  0
  -20.8340  -29.8600   21.7930 H   0  0  0  0  0  0  0  0  0  0  0  0
  -17.9480  -28.1220   22.9790 C   0  0  0  0  0  0  0  0  0  0  0  0
  -20.4980  -28.4060   23.2860 C   0  0  0  0  0  3  0  0  0  0  0  0
  -20.6200  -26.9600   22.7550 C   0  0  0  0  0  2  0  0  0  0  0  0
  -19.5390  -26.6000   21.7320 C   0  0  0  0  0  2  0  0  0  0  0  0
  -18.1440  -26.7560   22.3440 C   0  0  0  0  0  2  0  0  0  0  0  0
  -19.0540  -28.9050   23.4050 C   0  0  0  0  0  0  0  0  0  0  0  0
  -18.8180  -30.1850   23.9520 C   0  0  0  0  0  3  0  0  0  0  0  0
  -17.5080  -30.6810   24.0810 C   0  0  0  0  0  3  0  0  0  0  0  0
  -16.4160  -29.8970   23.6720 C   0  0  0  0  0  3  0  0  0  0  0  0
  -16.6370  -28.6190   23.1290 C   0  0  0  0  0  3  0  0  0  0  0  0
  -25.7930  -32.5890   23.8790 C   0  0  0  0  0  3  0  0  0  0  0  0
  -26.3150  -31.8350   25.1630 C   0  0  1  0  0  0  0  0  0  0  0  0
  -25.2220  -31.6050   26.2330 C   0  0  0  0  0  1  0  0  0  0  0  0
  -26.9020  -30.4560   24.7830 C   0  0  0  0  0  1  0  0  0  0  0  0
  -27.4660  -32.6380   25.8130 C   0  0  0  0  0  1  0  0  0  0  0  0
  -25.4900  -33.9920   24.1880 N   0  0  0  0  0  0  0  0  0  0  0  0
  -25.8240  -35.0300   23.4090 C   0  0  0  0  0  0  0  0  0  0  0  0
  -26.4910  -34.9060   22.3790 O   0  0  0  0  0  0  0  0  0  0  0  0
  -24.9030  -34.1630   24.9910 H   0  0  0  0  0  0  0  0  0  0  0  0
  -24.0980  -36.8160   23.0200 C   0  0  0  0  0  1  0  0  0  0  0  0
  -25.3380  -36.4270   23.8420 C   0  0  0  0  0  3  0  0  0  0  0  0
  -27.4720  -37.3210   24.6600 C   0  0  0  0  0  1  0  0  0  0  0  0
  -26.3730  -37.4760   23.7110 N   0  0  0  0  0  0  0  0  0  0  0  0
  -25.9700  -38.3990   23.8410 H   0  0  0  0  0  0  0  0  0  0  0  0
  -30.1830  -20.1550   21.4520 C   0  0  0  0  0  2  0  0  0  0  0  0
  -31.2300  -19.0740   21.1470 C   0  0  0  0  0  2  0  0  0  0  0  0
  -30.7800  -17.6590   21.5260 C   0  0  0  0  0  2  0  0  0  0  0  0
  -31.9320  -16.6600   21.3610 C   0  0  0  0  0  2  0  0  0  0  0  0
  -31.6140  -15.2480   21.8760 C   0  0  0  0  0  2  0  0  0  0  0  0
  -30.5570  -14.1360   19.9020 C   0  0  0  0  0  0  0  0  0  0  0  0
  -29.9500  -12.1690   18.5540 C   0  0  0  0  0  2  0  0  0  0  0  0
  -28.8850  -12.4250   17.4760 C   0  0  0  0  0  2  0  0  0  0  0  0
  -27.4730  -12.2780   18.0690 C   0  0  0  0  0  2  0  0  0  0  0  0
  -27.2890  -13.1020   19.3690 C   0  0  0  0  0  3  0  0  0  0  0  0
  -28.4440  -12.8460   20.3610 C   0  0  0  0  0  2  0  0  0  0  0  0
  -29.7270  -13.0920   19.6740 N   0  0  0  0  0  0  0  0  0  0  0  0
  -31.4140  -14.5150   19.0980 O   0  0  0  0  0  0  0  0  0  0  0  0
  -30.5270  -14.5750   21.1660 N   0  0  0  0  0  0  0  0  0  0  0  0
  -29.7920  -14.1850   21.7380 H   0  0  0  0  0  0  0  0  0  0  0  0
  -24.9670  -13.7220   20.2970 C   0  0  0  0  0  0  0  0  0  0  0  0
  -23.9430  -12.9540   20.7850 C   0  0  0  0  0  0  0  0  0  0  0  0
  -24.4040  -11.6040   20.7360 C   0  0  0  0  0  0  0  0  0  0  0  0
  -25.9890  -12.8390   19.9840 N   0  0  0  0  0  0  0  0  0  0  0  0
  -25.6560  -11.5610   20.3020 N   0  0  0  0  0  0  0  0  0  0  0  0
  -23.7060  -10.3440   21.0200 C   0  0  0  0  0  0  0  0  0  0  0  0
  -24.2140   -9.4120   21.9520 C   0  0  0  0  0  3  0  0  0  0  0  0
  -23.5150   -8.2150   22.2210 C   0  0  0  0  0  3  0  0  0  0  0  0
  -22.2950   -7.9400   21.5580 C   0  0  0  0  0  0  0  0  0  0  0  0
  -21.8070   -8.8600   20.6140 C   0  0  0  0  0  3  0  0  0  0  0  0
  -22.5050  -10.0490   20.3440 C   0  0  0  0  0  3  0  0  0  0  0  0
  -21.5630   -6.7920   21.7370 O   0  0  0  0  0  0  0  0  0  0  0  0
  -21.5920   -6.0960   22.9180 C   0  0  0  0  0  0  0  0  0  0  0  0
  -21.2440   -6.7000   24.1470 C   0  0  0  0  0  3  0  0  0  0  0  0
  -21.2200   -5.9310   25.3270 C   0  0  0  0  0  3  0  0  0  0  0  0
  -21.5330   -4.5590   25.2810 C   0  0  0  0  0  0  0  0  0  0  0  0
  -21.8730   -3.9550   24.0580 C   0  0  0  0  0  3  0  0  0  0  0  0
  -21.8990   -4.7210   22.8790 C   0  0  0  0  0  0  0  0  0  0  0  0
  -22.2070   -4.1300   21.7000 F   0  0  0  0  0  0  0  0  0  0  0  0
  -21.5020   -3.8170   26.4140 F   0  0  0  0  0  0  0  0  0  0  0  0
  -22.5760  -13.4330   21.1810 C   0  0  0  0  0  0  0  0  0  0  0  0
  -21.9450  -12.7610   22.1370 N   0  0  0  0  0  0  0  0  0  0  0  0
  -22.0810  -14.4400   20.6760 O   0  0  0  0  0  0  0  0  0  0  0  0
  -22.3590  -11.9450   22.5630 H   0  0  0  0  0  0  0  0  0  0  0  0
  -21.0310  -13.0650   22.4440 H   0  0  0  0  0  0  0  0  0  0  0  0
  -25.1100  -15.0880   20.0770 N   0  0  0  0  0  0  0  0  0  0  0  0
  -24.3600  -15.7490   20.2530 H   0  0  0  0  0  0  0  0  0  0  0  0
  -25.9280  -15.5190   19.6640 H   0  0  0  0  0  0  0  0  0  0  0  0
  1  4  1  0
  1 49  1  0
  1  3  1  0
  2  1  1  0
  5  6  1  0
  5  4  1  0
  7  6  1  0
  8 10  1  0
  8  7  1  0
  9 20  2  0
 10 15  1  0
 11 19  1  0
 11 21  1  0
 12 18  1  0
 12 14  1  0
 13 19  1  0
 14 13  1  0
 15 14  2  0
 16 10  2  0
 17 16  1  0
 17 12  2  0
 18 11  1  0
 19  9  1  0
 21 23  2  0
 22 21  1  0
 24 22  1  0
 25 34  2  0
 25 30  1  0
 26 22  1  0
 26 30  1  0
 27 26  1  0
 28 29  1  0
 28 27  1  0
 29 25  1  0
 30 31  2  0
 31 32  1  0
 33 32  2  0
 34 33  1  0
 35  9  1  0
 35 40  1  0
 35 36  1  0
 36 39  1  1
 36 37  1  0
 38 36  1  0
 40 43  1  0
 41 45  1  0
 41 40  1  0
 42 41  2  0
 45 44  1  0
 47 48  1  0
 47 45  1  0
 47 46  1  0
 50 49  1  0
 50 51  1  0
 52 51  1  0
 52 53  1  0
 54 62  1  0
 55 60  1  0
 56 57  1  0
 56 55  1  0
 58 57  1  0
 58 67  1  0
 58 59  1  0
 60 54  1  0
 60 59  1  0
 61 54  2  0
 62 63  1  0
 62 53  1  0
 64 65  2  0
 65 84  1  0
 66 65  1  0
 66 69  1  0
 67 64  1  0
 67 68  1  0
 68 66  2  0
 69 70  1  0
 70 71  2  0
 72 75  1  0
 72 71  1  0
 73 72  2  0
 74 73  1  0
 74 69  2  0
 75 76  1  0
 76 77  1  0
 77 78  2  0
 79 78  1  0
 79 83  1  0
 80 79  2  0
 81 76  2  0
 81 80  1  0
 82 81  1  0
 84 85  1  0
 85 88  1  0
 85 87  1  0
 86 84  2  0
 89 90  1  0
 89 64  1  0
 91 89  1  0
M  ISO  4   7 101   8 101  54 100  62 100
M  END
>  <TORSDO>  (12) 
F 25

>  <SCORE>  (12) 
-10.507

>  <name>  (12) 
11

>  <ligand_id>  (12) 
11

>  <original_smiles>  (12) 
[H]c1c([H])c([H])c2c(c1[H])C([H])([H])C([H])([H])C([H])([H])C2([H])N([H])C(=O)C1([H])N(C(=O)C([H])(N([H])C(=O)C([H])(N([H])C([H])([H])[H])C([H])([H])[H])C(C([H])([H])[H])(C([H])([H])[H])C([H])([H])[H])C([H])([H])c2c([H])c(OC([H])([H])C([H])([H])C([H])([H])C([H])([H])[N+]([H])([H])C([H])([H])C([H])([H])C([H])([H])C([H])([H])C([H])([H])N([H])C(=O)N3C([H])([H])C([H])([H])C([H])([H])C([H])(n4nc(-c5c([H])c([H])c(Oc6c([H])c([H])c(F)c([H])c6F)c([H])c5[H])c(C(=O)N([H])[H])c4N([H])[H])C3([H])[H])c([H])c([H])c2C1([H])[H]

>  <smiles>  (12) 
[H]c1c([H])c([H])c2c(c1[H])C([H])([H])C([H])([H])C([H])([H])C2([H])N([H])C(=O)C1([H])N(C(=O)C([H])(N([H])C(=O)C([H])(N([H])C([H])([H])[H])C([H])([H])[H])C(C([H])([H])[H])(C([H])([H])[H])C([H])([H])[H])C([H])([H])c2c([H])c(OC([H])([H])C([H])([H])C([H])([H])C([H])([H])[N+]([H])([H])C([H])([H])C([H])([H])C([H])([H])C([H])([H])C([H])([H])N([H])C(=O)N3C([H])([H])C([H])([H])C([H])([H])C([H])(n4nc(-c5c([H])c([H])c(Oc6c([H])c([H])c(F)c([H])c6F)c([H])c5[H])c(C(=O)N([H])[H])c4N([H])[H])C3([H])[H])c([H])c([H])c2C1([H])[H]

$$$$
12:0:0
     RDKit          3D

101106  0  0  1  0  0  0  0  0999 V2000
  -21.0400  -19.8700   21.0170 C   0  0  0  0  0  2  0  0  0  0  0  0
  -22.3250  -19.9820   20.1440 C   0  0  0  0  0  2  0  0  0  0  0  0
  -23.3290  -18.9210   20.4050 N   0  0  0  0  0  4  0  0  0  0  0  0
  -22.8630  -18.0270   20.3930 H   0  0  0  0  0  0  0  0  0  0  0  0
  -23.6950  -19.0520   21.3300 H   0  0  0  0  0  0  0  0  0  0  0  0
  -24.4720  -18.8640   19.4450 C   0  0  0  0  0  2  0  0  0  0  0  0
  -25.7370  -18.3050   20.1210 C   0  0  0  0  0  2  0  0  0  0  0  0
  -26.9580  -17.9790   19.2110 C   0  0  0  0  0  2  0  0  0  0  0  0
  -28.0110  -17.2130   19.9400 N   0  0  0  0  0  4  0  0  0  0  0  0
  -27.5400  -16.4280   20.3770 H   0  0  0  0  0  0  0  0  0  0  0  0
  -28.3790  -17.8050   20.6670 H   0  0  0  0  0  0  0  0  0  0  0  0
  -29.1610  -16.7130   19.1380 C   0  0  0  0  0  2  0  0  0  0  0  0
  -30.3520  -16.1960   20.0120 C   0  0  0  0  0  2  0  0  0  0  0  0
  -31.0040  -13.7480   20.2040 C   0  0  0  0  0  0  0  0  0  0  0  0
  -30.4690  -11.8400   18.7860 C   0  0  0  0  0  2  0  0  0  0  0  0
  -29.4910  -12.3930   17.7300 C   0  0  0  0  0  2  0  0  0  0  0  0
  -28.0350  -12.3220   18.2390 C   0  0  0  0  0  2  0  0  0  0  0  0
  -27.8690  -12.9310   19.6610 C   0  0  0  0  0  3  0  0  0  0  0  0
  -28.9530  -12.3890   20.6220 C   0  0  0  0  0  2  0  0  0  0  0  0
  -30.2740  -12.6260   20.0080 N   0  0  0  0  0  0  0  0  0  0  0  0
  -32.1780  -13.8720   19.8510 O   0  0  0  0  0  0  0  0  0  0  0  0
  -30.2050  -14.8020   20.4660 N   0  0  0  0  0  0  0  0  0  0  0  0
  -29.2690  -14.5140   20.7130 H   0  0  0  0  0  0  0  0  0  0  0  0
  -25.5670  -13.7010   20.4810 C   0  0  0  0  0  0  0  0  0  0  0  0
  -24.4320  -13.0140   20.8230 C   0  0  0  0  0  0  0  0  0  0  0  0
  -24.7960  -11.6360   20.7670 C   0  0  0  0  0  0  0  0  0  0  0  0
  -26.5230  -12.7480   20.1820 N   0  0  0  0  0  0  0  0  0  0  0  0
  -26.0670  -11.4980   20.4200 N   0  0  0  0  0  0  0  0  0  0  0  0
  -23.9980  -10.4270   20.9730 C   0  0  0  0  0  0  0  0  0  0  0  0
  -24.4140   -9.4110   21.8640 C   0  0  0  0  0  3  0  0  0  0  0  0
  -23.6200   -8.2590   22.0530 C   0  0  0  0  0  3  0  0  0  0  0  0
  -22.4010   -8.1180   21.3480 C   0  0  0  0  0  0  0  0  0  0  0  0
  -22.0060   -9.1170   20.4420 C   0  0  0  0  0  3  0  0  0  0  0  0
  -22.7970  -10.2610   20.2540 C   0  0  0  0  0  3  0  0  0  0  0  0
  -21.5720   -7.0290   21.4520 O   0  0  0  0  0  0  0  0  0  0  0  0
  -21.5300   -6.2670   22.5920 C   0  0  0  0  0  0  0  0  0  0  0  0
  -21.2150   -6.8220   23.8510 C   0  0  0  0  0  3  0  0  0  0  0  0
  -21.1220   -5.9900   24.9860 C   0  0  0  0  0  3  0  0  0  0  0  0
  -21.3270   -4.6030   24.8590 C   0  0  0  0  0  0  0  0  0  0  0  0
  -21.6300   -4.0470   23.6040 C   0  0  0  0  0  3  0  0  0  0  0  0
  -21.7350   -4.8770   22.4750 C   0  0  0  0  0  0  0  0  0  0  0  0
  -22.0110   -4.3340   21.2650 F   0  0  0  0  0  0  0  0  0  0  0  0
  -21.2210   -3.8010   25.9430 F   0  0  0  0  0  0  0  0  0  0  0  0
  -23.0800  -13.5910   21.1320 C   0  0  0  0  0  0  0  0  0  0  0  0
  -22.3270  -12.9480   22.0240 N   0  0  0  0  0  0  0  0  0  0  0  0
  -22.7050  -14.6460   20.6160 O   0  0  0  0  0  0  0  0  0  0  0  0
  -22.6460  -12.1040   22.4780 H   0  0  0  0  0  0  0  0  0  0  0  0
  -21.4140  -13.3050   22.2670 H   0  0  0  0  0  0  0  0  0  0  0  0
  -25.9000  -15.0470   20.4280 N   0  0  0  0  0  0  0  0  0  0  0  0
  -25.0550  -15.5450   20.6870 H   0  0  0  0  0  0  0  0  0  0  0  0
  -26.5310  -15.1550   21.2140 H   0  0  0  0  0  0  0  0  0  0  0  0
  -20.1220  -21.0950   20.7900 C   0  0  0  0  0  2  0  0  0  0  0  0
  -19.1480  -21.5990   21.9130 C   0  0  0  0  0  2  0  0  0  0  0  0
  -19.1480  -23.1450   21.8030 C   0  0  0  0  0  2  0  0  0  0  0  0
  -18.2760  -24.2070   22.5760 C   0  0  0  0  0  2  0  0  0  0  0  0
  -19.0120  -25.4750   23.0170 N   0  0  0  0  0  4  0  0  0  0  0  0
  -19.9660  -25.2320   23.2370 H   0  0  0  0  0  0  0  0  0  0  0  0
  -18.5890  -25.6650   23.9140 H   0  0  0  0  0  0  0  0  0  0  0  0
  -19.0150  -26.8830   22.3050 C   0  0  0  0  0  2  0  0  0  0  0  0
  -21.2150  -27.8660   20.3250 C   0  0  0  0  0  1  0  0  0  0  0  0
  -23.2360  -27.4540   20.4380 O   0  0  0  0  0  1  0  0  0  0  0  0
  -24.3710  -31.7340   23.2700 C   0  0  0  0  0  0  0  0  0  0  0  0
  -24.7150  -27.4960   19.9450 C   0  0  0  0  0  3  0  0  0  0  0  0
  -23.1050  -30.8840   21.3940 C   0  0  0  0  0  3  0  0  0  0  0  0
  -24.3510  -29.8380   19.3760 C   0  0  0  0  0  3  0  0  0  0  0  0
  -25.6260  -30.8270   21.2950 C   0  0  0  0  0  2  0  0  0  0  0  0
  -25.3810  -29.6970   20.3140 C   0  0  0  0  0  3  0  0  0  0  0  0
  -25.7260  -28.3560   20.5420 C   0  0  0  0  0  2  0  0  0  0  0  0
  -24.8160  -27.5960   18.5760 C   0  0  0  0  0  2  0  0  0  0  0  0
  -24.1880  -28.8260   18.3770 C   0  0  0  0  0  2  0  0  0  0  0  0
  -23.2260  -30.7220   19.8200 C   0  0  0  0  0  2  0  0  0  0  0  0
  -24.3930  -31.2210   22.0130 N   0  0  0  0  0  0  0  0  0  0  0  0
  -23.3030  -32.0110   23.8400 O   0  0  0  0  0  0  0  0  0  0  0  0
  -22.5650  -29.7020   22.2370 C   0  0  0  0  0  0  0  0  0  0  0  0
  -21.2990  -29.6840   22.5120 N   0  0  0  0  0  0  0  0  0  0  0  0
  -23.2520  -28.7840   22.6650 O   0  0  0  0  0  0  0  0  0  0  0  0
  -20.7290  -30.4980   22.3030 H   0  0  0  0  0  0  0  0  0  0  0  0
  -17.9010  -29.3770   22.2110 C   0  0  0  0  0  0  0  0  0  0  0  0
  -20.5900  -28.4580   22.8360 C   0  0  0  0  0  2  0  0  0  0  0  0
  -20.6990  -26.6430   21.7210 C   0  0  0  0  0  2  0  0  0  0  0  0
  -18.9600  -26.8310   20.3140 C   0  0  0  0  0  1  0  0  0  0  0  0
  -17.8220  -28.3710   20.7390 C   0  0  0  0  0  2  0  0  0  0  0  0
  -19.1560  -29.4480   23.0430 C   0  0  0  0  0  0  0  0  0  0  0  0
  -19.1050  -30.2710   24.2240 C   0  0  0  0  0  3  0  0  0  0  0  0
  -17.9370  -30.8780   24.7450 C   0  0  0  0  0  3  0  0  0  0  0  0
  -16.7090  -30.5830   24.1410 C   0  0  0  0  0  3  0  0  0  0  0  0
  -16.7030  -29.8330   22.9230 C   0  0  0  0  0  3  0  0  0  0  0  0
  -25.6810  -32.0130   24.0320 C   0  0  0  0  0  3  0  0  0  0  0  0
  -25.5980  -33.4160   24.4460 N   0  0  0  0  0  0  0  0  0  0  0  0
  -26.1490  -34.4280   23.7690 C   0  0  0  0  0  0  0  0  0  0  0  0
  -26.8720  -34.2580   22.7840 O   0  0  0  0  0  0  0  0  0  0  0  0
  -24.9690  -33.6320   25.2060 H   0  0  0  0  0  0  0  0  0  0  0  0
  -24.8420  -36.5370   23.3480 C   0  0  0  0  0  1  0  0  0  0  0  0
  -25.8620  -35.8530   24.2720 C   0  0  0  0  0  3  0  0  0  0  0  0
  -27.9900  -36.2400   25.4300 C   0  0  0  0  0  1  0  0  0  0  0  0
  -27.0780  -36.6870   24.3810 N   0  0  0  0  0  0  0  0  0  0  0  0
  -26.8330  -37.6560   24.5660 H   0  0  0  0  0  0  0  0  0  0  0  0
  -25.8950  -31.0700   25.2760 C   0  0  1  0  0  0  0  0  0  0  0  0
  -24.6800  -30.9890   26.2290 C   0  0  0  0  0  1  0  0  0  0  0  0
  -26.2290  -29.6280   24.8300 C   0  0  0  0  0  1  0  0  0  0  0  0
  -27.1120  -31.5770   26.0830 C   0  0  0  0  0  1  0  0  0  0  0  0
  2  3  1  0
  2  1  1  0
  3  5  1  0
  4  3  1  0
  6  7  1  0
  6  3  1  0
  8  9  1  0
  8  7  1  0
  9 10  1  0
  9 11  1  0
 12  9  1  0
 12 13  1  0
 13 22  1  0
 14 22  1  0
 15 20  1  0
 16 17  1  0
 16 15  1  0
 18 17  1  0
 18 27  1  0
 18 19  1  0
 20 14  1  0
 20 19  1  0
 21 14  2  0
 22 23  1  0
 24 25  2  0
 25 44  1  0
 26 25  1  0
 26 29  1  0
 27 28  1  0
 27 24  1  0
 28 26  2  0
 29 30  1  0
 30 31  2  0
 32 35  1  0
 32 31  1  0
 33 32  2  0
 34 33  1  0
 34 29  2  0
 35 36  1  0
 36 37  1  0
 37 38  2  0
 39 38  1  0
 39 43  1  0
 40 39  2  0
 41 36  2  0
 41 40  1  0
 42 41  1  0
 44 45  1  0
 45 48  1  0
 45 47  1  0
 46 44  2  0
 49 24  1  0
 49 50  1  0
 49 51  1  0
 52  1  1  0
 52 53  1  0
 54 53  1  0
 54 55  1  0
 55 56  1  0
 56 57  1  0
 56 58  1  0
 59 56  1  0
 60 80  1  0
 62 73  2  0
 63 61  1  0
 63 68  1  0
 64 72  1  0
 64 74  1  0
 65 70  1  0
 65 71  1  0
 65 67  1  0
 66 72  1  0
 67 68  1  0
 67 66  1  0
 69 63  1  0
 70 69  1  0
 71 64  1  0
 72 62  1  0
 74 75  1  0
 74 76  2  0
 75 79  1  0
 77 75  1  0
 78 87  2  0
 78 83  1  0
 79 83  1  0
 80 59  1  0
 81 82  1  0
 82 78  1  0
 83 84  2  0
 84 85  1  0
 86 85  2  0
 87 86  1  0
 88 62  1  0
 88 89  1  0
 88 98  1  0
 89 92  1  0
 90 94  1  0
 90 89  1  0
 91 90  2  0
 94 93  1  0
 94 96  1  0
 96 97  1  0
 96 95  1  0
 98101  1  1
 98 99  1  0
100 98  1  0
M  ISO  4  14 100  22 100  60 101  61 101
M  END
>  <TORSDO>  (13) 
F 31

>  <SCORE>  (13) 
8.848

>  <name>  (13) 
12

>  <ligand_id>  (13) 
12

>  <original_smiles>  (13) 
[H]c1c([H])c([H])c2c(c1[H])C([H])([H])C([H])([H])C([H])([H])C2([H])N([H])C(=O)C1([H])N(C(=O)C([H])(N([H])C(=O)C([H])(N([H])C([H])([H])[H])C([H])([H])[H])C(C([H])([H])[H])(C([H])([H])[H])C([H])([H])[H])C([H])([H])c2c([H])c(OC([H])([H])C([H])([H])[N+]([H])([H])C([H])([H])C([H])([H])C([H])([H])C([H])([H])C([H])([H])C([H])([H])[N+]([H])([H])C([H])([H])C([H])([H])C([H])([H])[N+]([H])([H])C([H])([H])C([H])([H])N([H])C(=O)N3C([H])([H])C([H])([H])C([H])([H])C([H])(n4nc(-c5c([H])c([H])c(Oc6c([H])c([H])c(F)c([H])c6F)c([H])c5[H])c(C(=O)N([H])[H])c4N([H])[H])C3([H])[H])c([H])c([H])c2C1([H])[H]

>  <smiles>  (13) 
[H]c1c([H])c([H])c2c(c1[H])C([H])([H])C([H])([H])C([H])([H])C2([H])N([H])C(=O)C1([H])N(C(=O)C([H])(N([H])C(=O)C([H])(N([H])C([H])([H])[H])C([H])([H])[H])C(C([H])([H])[H])(C([H])([H])[H])C([H])([H])[H])C([H])([H])c2c([H])c(OC([H])([H])C([H])([H])[N+]([H])([H])C([H])([H])C([H])([H])C([H])([H])C([H])([H])C([H])([H])C([H])([H])[N+]([H])([H])C([H])([H])C([H])([H])C([H])([H])[N+]([H])([H])C([H])([H])C([H])([H])N([H])C(=O)N3C([H])([H])C([H])([H])C([H])([H])C([H])(n4nc(-c5c([H])c([H])c(Oc6c([H])c([H])c(F)c([H])c6F)c([H])c5[H])c(C(=O)N([H])[H])c4N([H])[H])C3([H])[H])c([H])c([H])c2C1([H])[H]

$$$$
13:0:0
     RDKit          3D

 94101  0  0  1  0  0  0  0  0999 V2000
  -26.6810  -22.1530   17.3220 N   0  0  0  0  0  4  0  0  0  0  0  0
  -26.8630  -21.1860   17.0910 H   0  0  0  0  0  0  0  0  0  0  0  0
  -26.3760  -22.5950   16.4700 H   0  0  0  0  0  0  0  0  0  0  0  0
  -25.5510  -22.1880   18.2870 C   0  0  0  0  0  2  0  0  0  0  0  0
  -25.8850  -21.5160   19.6270 C   0  0  0  0  0  2  0  0  0  0  0  0
  -26.4150  -20.2270   19.3290 O   0  0  0  0  0  0  0  0  0  0  0  0
  -27.3650  -19.7820   20.2840 C   0  0  0  0  0  2  0  0  0  0  0  0
  -27.7630  -18.3410   19.9350 C   0  0  0  0  0  2  0  0  0  0  0  0
  -28.9880  -17.8500   20.7240 C   0  0  0  0  0  2  0  0  0  0  0  0
  -29.0930  -16.3180   20.7070 C   0  0  0  0  0  2  0  0  0  0  0  0
  -30.4810  -15.7550   21.0690 C   0  0  0  0  0  2  0  0  0  0  0  0
  -31.6040  -13.8550   19.8810 C   0  0  0  0  0  0  0  0  0  0  0  0
  -31.0490  -11.6320   19.0050 C   0  0  0  0  0  2  0  0  0  0  0  0
  -30.0960  -11.7920   17.8050 C   0  0  0  0  0  2  0  0  0  0  0  0
  -28.6270  -11.8490   18.2740 C   0  0  0  0  0  2  0  0  0  0  0  0
  -28.3990  -12.8440   19.4430 C   0  0  0  0  0  3  0  0  0  0  0  0
  -29.4680  -12.6530   20.5400 C   0  0  0  0  0  2  0  0  0  0  0  0
  -30.7950  -12.7610   19.9130 N   0  0  0  0  0  0  0  0  0  0  0  0
  -32.7350  -13.8400   19.3990 O   0  0  0  0  0  0  0  0  0  0  0  0
  -31.0010  -15.0420   19.9090 N   0  0  0  0  0  0  0  0  0  0  0  0
  -31.4770  -15.6720   19.2800 H   0  0  0  0  0  0  0  0  0  0  0  0
  -26.1170  -13.7500   20.2350 C   0  0  0  0  0  0  0  0  0  0  0  0
  -24.9830  -13.1240   20.6700 C   0  0  0  0  0  0  0  0  0  0  0  0
  -25.2700  -11.7240   20.6270 C   0  0  0  0  0  0  0  0  0  0  0  0
  -27.0410  -12.7460   19.9790 N   0  0  0  0  0  0  0  0  0  0  0  0
  -26.5300  -11.5200   20.2630 N   0  0  0  0  0  0  0  0  0  0  0  0
  -24.3990  -10.5650   20.8540 C   0  0  0  0  0  0  0  0  0  0  0  0
  -24.7400   -9.5480   21.7730 C   0  0  0  0  0  3  0  0  0  0  0  0
  -23.8720   -8.4540   21.9830 C   0  0  0  0  0  3  0  0  0  0  0  0
  -22.6510   -8.3710   21.2740 C   0  0  0  0  0  0  0  0  0  0  0  0
  -22.3300   -9.3740   20.3420 C   0  0  0  0  0  3  0  0  0  0  0  0
  -23.1960  -10.4570   20.1290 C   0  0  0  0  0  3  0  0  0  0  0  0
  -21.7570   -7.3350   21.3950 O   0  0  0  0  0  0  0  0  0  0  0  0
  -21.6540   -6.6100   22.5550 C   0  0  0  0  0  0  0  0  0  0  0  0
  -21.3560   -7.2210   23.7920 C   0  0  0  0  0  3  0  0  0  0  0  0
  -21.1910   -6.4310   24.9470 C   0  0  0  0  0  3  0  0  0  0  0  0
  -21.3110   -5.0310   24.8660 C   0  0  0  0  0  0  0  0  0  0  0  0
  -21.6000   -4.4190   23.6340 C   0  0  0  0  0  3  0  0  0  0  0  0
  -21.7700   -5.2070   22.4800 C   0  0  0  0  0  0  0  0  0  0  0  0
  -22.0300   -4.6120   21.2920 F   0  0  0  0  0  0  0  0  0  0  0  0
  -21.1420   -4.2690   25.9720 F   0  0  0  0  0  0  0  0  0  0  0  0
  -23.6710  -13.7750   21.0030 C   0  0  0  0  0  0  0  0  0  0  0  0
  -22.9080  -13.1910   21.9200 N   0  0  0  0  0  0  0  0  0  0  0  0
  -23.3370  -14.8400   20.4830 O   0  0  0  0  0  0  0  0  0  0  0  0
  -23.1870  -12.3290   22.3630 H   0  0  0  0  0  0  0  0  0  0  0  0
  -22.0320  -13.6140   22.1860 H   0  0  0  0  0  0  0  0  0  0  0  0
  -26.4190  -15.0880   20.0090 N   0  0  0  0  0  0  0  0  0  0  0  0
  -25.7280  -15.8230   20.1110 H   0  0  0  0  0  0  0  0  0  0  0  0
  -27.2970  -15.4170   19.6310 H   0  0  0  0  0  0  0  0  0  0  0  0
  -27.9750  -22.7590   17.7340 C   0  0  0  0  0  2  0  0  0  0  0  0
  -27.8370  -24.2110   18.2290 C   0  0  0  0  0  2  0  0  0  0  0  0
  -29.1590  -24.9780   18.4120 C   0  0  0  0  0  2  0  0  0  0  0  0
  -28.9340  -26.4800   18.6560 C   0  0  0  0  0  2  0  0  0  0  0  0
  -28.4370  -26.7300   19.9730 O   0  0  0  0  0  0  0  0  0  0  0  0
  -24.7330  -31.7440   23.4110 C   0  0  0  0  0  0  0  0  0  0  0  0
  -27.2740  -27.4580   20.0460 C   0  0  0  0  0  0  0  0  0  0  0  0
  -23.4960  -30.4800   21.6810 C   0  0  0  0  0  3  0  0  0  0  0  0
  -24.9130  -28.9970   20.1710 C   0  0  0  0  0  0  0  0  0  0  0  0
  -26.0300  -30.7800   21.5190 C   0  0  0  0  0  2  0  0  0  0  0  0
  -26.0780  -29.4490   20.8050 C   0  0  0  0  0  0  0  0  0  0  0  0
  -27.2580  -28.6780   20.7570 C   0  0  0  0  0  3  0  0  0  0  0  0
  -26.0870  -27.0160   19.4210 C   0  0  0  0  0  3  0  0  0  0  0  0
  -24.9070  -27.7730   19.4880 C   0  0  0  0  0  3  0  0  0  0  0  0
  -23.6880  -29.8740   20.2670 C   0  0  0  0  0  2  0  0  0  0  0  0
  -24.7690  -31.0140   22.2620 N   0  0  0  0  0  0  0  0  0  0  0  0
  -23.6560  -32.0140   23.9620 O   0  0  0  0  0  0  0  0  0  0  0  0
  -22.8130  -29.4200   22.5770 C   0  0  0  0  0  0  0  0  0  0  0  0
  -21.4870  -29.2820   22.4270 N   0  0  0  0  0  0  0  0  0  0  0  0
  -23.4760  -28.7280   23.3540 O   0  0  0  0  0  0  0  0  0  0  0  0
  -21.0190  -29.8870   21.7670 H   0  0  0  0  0  0  0  0  0  0  0  0
  -18.0820  -28.1500   22.8100 C   0  0  0  0  0  0  0  0  0  0  0  0
  -20.6370  -28.3250   23.1360 C   0  0  0  0  0  3  0  0  0  0  0  0
  -20.7140  -26.9250   22.4850 C   0  0  0  0  0  2  0  0  0  0  0  0
  -19.6240  -26.6880   21.4360 C   0  0  0  0  0  2  0  0  0  0  0  0
  -18.2350  -26.8350   22.0650 C   0  0  0  0  0  2  0  0  0  0  0  0
  -19.2100  -28.8590   23.2960 C   0  0  0  0  0  0  0  0  0  0  0  0
  -19.0150  -30.0960   23.9500 C   0  0  0  0  0  3  0  0  0  0  0  0
  -17.7220  -30.6220   24.1230 C   0  0  0  0  0  3  0  0  0  0  0  0
  -16.6050  -29.9080   23.6540 C   0  0  0  0  0  3  0  0  0  0  0  0
  -16.7840  -28.6740   23.0030 C   0  0  0  0  0  3  0  0  0  0  0  0
  -26.0350  -32.2960   24.0720 C   0  0  0  0  0  3  0  0  0  0  0  0
  -26.5330  -31.4290   25.2920 C   0  0  1  0  0  0  0  0  0  0  0  0
  -25.4360  -31.1470   26.3460 C   0  0  0  0  0  1  0  0  0  0  0  0
  -27.0800  -30.0670   24.8050 C   0  0  0  0  0  1  0  0  0  0  0  0
  -27.7080  -32.1450   25.9970 C   0  0  0  0  0  1  0  0  0  0  0  0
  -25.7660  -33.6790   24.4860 N   0  0  0  0  0  0  0  0  0  0  0  0
  -26.1390  -34.7650   23.7960 C   0  0  0  0  0  0  0  0  0  0  0  0
  -26.8150  -34.7050   22.7660 O   0  0  0  0  0  0  0  0  0  0  0  0
  -25.1660  -33.8010   25.2880 H   0  0  0  0  0  0  0  0  0  0  0  0
  -24.4630  -36.6200   23.5390 C   0  0  0  0  0  1  0  0  0  0  0  0
  -25.6870  -36.1360   24.3330 C   0  0  0  0  0  3  0  0  0  0  0  0
  -27.8410  -36.9030   25.2240 C   0  0  0  0  0  1  0  0  0  0  0  0
  -26.7490  -37.1630   24.2900 N   0  0  0  0  0  0  0  0  0  0  0  0
  -26.3700  -38.0830   24.4960 H   0  0  0  0  0  0  0  0  0  0  0  0
  1 50  1  0
  1  4  1  0
  2  1  1  0
  3  1  1  0
  4  5  1  0
  6  5  1  0
  6  7  1  0
  8  7  1  0
  8  9  1  0
 10  9  1  0
 10 11  1  0
 12 20  1  0
 12 18  1  0
 13 18  1  0
 14 15  1  0
 14 13  1  0
 16 15  1  0
 16 25  1  0
 16 17  1  0
 18 17  1  0
 19 12  2  0
 20 11  1  0
 21 20  1  0
 22 23  2  0
 23 42  1  0
 24 23  1  0
 24 27  1  0
 25 22  1  0
 25 26  1  0
 26 24  2  0
 27 28  1  0
 28 29  2  0
 30 33  1  0
 30 29  1  0
 31 30  2  0
 32 31  1  0
 32 27  2  0
 33 34  1  0
 34 35  1  0
 35 36  2  0
 37 36  1  0
 37 41  1  0
 38 37  2  0
 39 34  2  0
 39 38  1  0
 40 39  1  0
 42 43  1  0
 43 46  1  0
 43 45  1  0
 44 42  2  0
 47 48  1  0
 47 22  1  0
 49 47  1  0
 50 51  1  0
 51 52  1  0
 52 53  1  0
 53 54  1  0
 54 56  1  0
 55 66  2  0
 56 61  1  0
 57 65  1  0
 57 67  1  0
 58 64  1  0
 58 60  1  0
 59 65  1  0
 60 59  1  0
 61 60  2  0
 62 63  1  0
 62 56  2  0
 63 58  2  0
 64 57  1  0
 65 55  1  0
 67 69  2  0
 68 67  1  0
 70 68  1  0
 71 80  2  0
 71 76  1  0
 72 68  1  0
 72 76  1  0
 73 72  1  0
 74 75  1  0
 74 73  1  0
 75 71  1  0
 76 77  2  0
 77 78  1  0
 79 78  2  0
 80 79  1  0
 81 55  1  0
 81 86  1  0
 81 82  1  0
 82 85  1  1
 82 83  1  0
 84 82  1  0
 86 89  1  0
 87 91  1  0
 87 86  1  0
 88 87  2  0
 91 90  1  0
 93 91  1  0
 93 94  1  0
 93 92  1  0
M  ISO  4  12 100  20 100  53 101  54 101
M  END
>  <TORSDO>  (14) 
F 28

>  <SCORE>  (14) 
-9.308

>  <name>  (14) 
13

>  <ligand_id>  (14) 
13

>  <original_smiles>  (14) 
[H]c1c([H])c([H])c2c(c1[H])C([H])([H])C([H])([H])C([H])([H])C2([H])N([H])C(=O)C1([H])N(C(=O)C([H])(N([H])C(=O)C([H])(N([H])C([H])([H])[H])C([H])([H])[H])C(C([H])([H])[H])(C([H])([H])[H])C([H])([H])[H])C([H])([H])c2c([H])c(OC([H])([H])C([H])([H])C([H])([H])C([H])([H])[N+]([H])([H])C([H])([H])C([H])([H])OC([H])([H])C([H])([H])C([H])([H])C([H])([H])C([H])([H])N([H])C(=O)N3C([H])([H])C([H])([H])C([H])([H])C([H])(n4nc(-c5c([H])c([H])c(Oc6c([H])c([H])c(F)c([H])c6F)c([H])c5[H])c(C(=O)N([H])[H])c4N([H])[H])C3([H])[H])c([H])c([H])c2C1([H])[H]

>  <smiles>  (14) 
[H]c1c([H])c([H])c2c(c1[H])C([H])([H])C([H])([H])C([H])([H])C2([H])N([H])C(=O)C1([H])N(C(=O)C([H])(N([H])C(=O)C([H])(N([H])C([H])([H])[H])C([H])([H])[H])C(C([H])([H])[H])(C([H])([H])[H])C([H])([H])[H])C([H])([H])c2c([H])c(OC([H])([H])C([H])([H])C([H])([H])C([H])([H])[N+]([H])([H])C([H])([H])C([H])([H])OC([H])([H])C([H])([H])C([H])([H])C([H])([H])C([H])([H])N([H])C(=O)N3C([H])([H])C([H])([H])C([H])([H])C([H])(n4nc(-c5c([H])c([H])c(Oc6c([H])c([H])c(F)c([H])c6F)c([H])c5[H])c(C(=O)N([H])[H])c4N([H])[H])C3([H])[H])c([H])c([H])c2C1([H])[H]

$$$$
14:0:0
     RDKit          3D

 97104  0  0  1  0  0  0  0  0999 V2000
  -29.5280  -24.3770   25.4400 C   0  0  0  0  0  2  0  0  0  0  0  0
  -28.6070  -23.1420   25.5410 C   0  0  0  0  0  2  0  0  0  0  0  0
  -28.6960  -22.1750   24.3510 C   0  0  0  0  0  2  0  0  0  0  0  0
  -30.0090  -21.6350   24.2980 O   0  0  0  0  0  0  0  0  0  0  0  0
  -30.3240  -21.0850   23.0280 C   0  0  0  0  0  2  0  0  0  0  0  0
  -31.4450  -20.0530   23.1980 C   0  0  0  0  0  2  0  0  0  0  0  0
  -31.6590  -19.2710   21.9560 N   0  0  0  0  0  4  0  0  0  0  0  0
  -31.0560  -19.6330   21.2340 H   0  0  0  0  0  0  0  0  0  0  0  0
  -32.6090  -19.4160   21.6520 H   0  0  0  0  0  0  0  0  0  0  0  0
  -31.4070  -17.8180   22.0690 C   0  0  0  0  0  2  0  0  0  0  0  0
  -31.8140  -17.0760   20.7780 C   0  0  0  0  0  2  0  0  0  0  0  0
  -31.8590  -14.7040   20.0390 C   0  0  0  0  0  0  0  0  0  0  0  0
  -31.3760  -12.5260   18.9780 C   0  0  0  0  0  2  0  0  0  0  0  0
  -30.4730  -12.7270   17.7450 C   0  0  0  0  0  2  0  0  0  0  0  0
  -28.9870  -12.7480   18.1530 C   0  0  0  0  0  2  0  0  0  0  0  0
  -28.7110  -13.7080   19.3400 C   0  0  0  0  0  3  0  0  0  0  0  0
  -29.7160  -13.4540   20.4860 C   0  0  0  0  0  2  0  0  0  0  0  0
  -31.0780  -13.5960   19.9420 N   0  0  0  0  0  0  0  0  0  0  0  0
  -32.9370  -14.8350   19.4520 O   0  0  0  0  0  0  0  0  0  0  0  0
  -31.3360  -15.6960   20.7680 N   0  0  0  0  0  0  0  0  0  0  0  0
  -30.4540  -15.5020   21.2160 H   0  0  0  0  0  0  0  0  0  0  0  0
  -26.3570  -14.5850   19.9100 C   0  0  0  0  0  0  0  0  0  0  0  0
  -25.2170  -13.9470   20.3210 C   0  0  0  0  0  0  0  0  0  0  0  0
  -25.5610  -12.5650   20.4330 C   0  0  0  0  0  0  0  0  0  0  0  0
  -27.3280  -13.6020   19.7990 N   0  0  0  0  0  0  0  0  0  0  0  0
  -26.8490  -12.3870   20.1680 N   0  0  0  0  0  0  0  0  0  0  0  0
  -24.7280  -11.3920   20.7230 C   0  0  0  0  0  0  0  0  0  0  0  0
  -25.0640  -10.4800   21.7490 C   0  0  0  0  0  3  0  0  0  0  0  0
  -24.2360   -9.3690   22.0200 C   0  0  0  0  0  3  0  0  0  0  0  0
  -23.0580   -9.1600   21.2640 C   0  0  0  0  0  0  0  0  0  0  0  0
  -22.7400  -10.0570   20.2310 C   0  0  0  0  0  3  0  0  0  0  0  0
  -23.5660  -11.1600   19.9580 C   0  0  0  0  0  3  0  0  0  0  0  0
  -22.2080   -8.0960   21.4410 O   0  0  0  0  0  0  0  0  0  0  0  0
  -22.0410   -7.5030   22.6670 C   0  0  0  0  0  0  0  0  0  0  0  0
  -21.6470   -8.2430   23.8030 C   0  0  0  0  0  3  0  0  0  0  0  0
  -21.4190   -7.5830   25.0280 C   0  0  0  0  0  3  0  0  0  0  0  0
  -21.5750   -6.1870   25.1160 C   0  0  0  0  0  0  0  0  0  0  0  0
  -21.9630   -5.4490   23.9840 C   0  0  0  0  0  3  0  0  0  0  0  0
  -22.1920   -6.1060   22.7630 C   0  0  0  0  0  0  0  0  0  0  0  0
  -22.5450   -5.3860   21.6700 F   0  0  0  0  0  0  0  0  0  0  0  0
  -21.3490   -5.5510   26.2900 F   0  0  0  0  0  0  0  0  0  0  0  0
  -23.8610  -14.5610   20.5110 C   0  0  0  0  0  0  0  0  0  0  0  0
  -23.0730  -14.0320   21.4410 N   0  0  0  0  0  0  0  0  0  0  0  0
  -23.5100  -15.5500   19.8690 O   0  0  0  0  0  0  0  0  0  0  0  0
  -23.3710  -13.2270   21.9760 H   0  0  0  0  0  0  0  0  0  0  0  0
  -22.1640  -14.4330   21.6230 H   0  0  0  0  0  0  0  0  0  0  0  0
  -26.6520  -15.9110   19.6020 N   0  0  0  0  0  0  0  0  0  0  0  0
  -25.9600  -16.6520   19.6240 H   0  0  0  0  0  0  0  0  0  0  0  0
  -27.5460  -16.2130   19.2370 H   0  0  0  0  0  0  0  0  0  0  0  0
  -29.3690  -25.2290   24.1580 C   0  0  0  0  0  2  0  0  0  0  0  0
  -30.3550  -26.4200   24.1380 C   0  0  0  0  0  2  0  0  0  0  0  0
  -30.8160  -26.8520   22.7960 N   0  0  0  0  0  4  0  0  0  0  0  0
  -31.4890  -27.5840   22.9700 H   0  0  0  0  0  0  0  0  0  0  0  0
  -31.3320  -26.1060   22.3520 H   0  0  0  0  0  0  0  0  0  0  0  0
  -29.8190  -27.4130   21.8510 C   0  0  0  0  0  2  0  0  0  0  0  0
  -29.0910  -26.3290   21.0300 C   0  0  0  0  0  2  0  0  0  0  0  0
  -28.6000  -26.8350   19.7910 O   0  0  0  0  0  0  0  0  0  0  0  0
  -24.6510  -31.7050   23.1390 C   0  0  0  0  0  0  0  0  0  0  0  0
  -27.4150  -27.5140   19.8770 C   0  0  0  0  0  0  0  0  0  0  0  0
  -23.4680  -30.3150   21.4650 C   0  0  0  0  0  3  0  0  0  0  0  0
  -24.9570  -28.8800   19.9740 C   0  0  0  0  0  0  0  0  0  0  0  0
  -25.9670  -30.7890   21.2370 C   0  0  0  0  0  2  0  0  0  0  0  0
  -26.0960  -29.4430   20.5630 C   0  0  0  0  0  0  0  0  0  0  0  0
  -27.3290  -28.7660   20.5190 C   0  0  0  0  0  3  0  0  0  0  0  0
  -26.2680  -26.9570   19.2770 C   0  0  0  0  0  3  0  0  0  0  0  0
  -25.0340  -27.6320   19.3290 C   0  0  0  0  0  3  0  0  0  0  0  0
  -23.6780  -29.6810   20.0620 C   0  0  0  0  0  2  0  0  0  0  0  0
  -24.7130  -30.9490   22.0060 N   0  0  0  0  0  0  0  0  0  0  0  0
  -23.5710  -31.9140   23.7090 O   0  0  0  0  0  0  0  0  0  0  0  0
  -22.8730  -29.2380   22.4010 C   0  0  0  0  0  0  0  0  0  0  0  0
  -21.5560  -29.0040   22.2770 N   0  0  0  0  0  0  0  0  0  0  0  0
  -23.5920  -28.6160   23.1880 O   0  0  0  0  0  0  0  0  0  0  0  0
  -21.0360  -29.5570   21.6110 H   0  0  0  0  0  0  0  0  0  0  0  0
  -18.2470  -27.6480   22.7570 C   0  0  0  0  0  0  0  0  0  0  0  0
  -20.7900  -28.0100   23.0270 C   0  0  0  0  0  3  0  0  0  0  0  0
  -20.9530  -26.6020   22.4090 C   0  0  0  0  0  2  0  0  0  0  0  0
  -19.8620  -26.2590   21.3910 C   0  0  0  0  0  2  0  0  0  0  0  0
  -18.4790  -26.3260   22.0450 C   0  0  0  0  0  2  0  0  0  0  0  0
  -19.3310  -28.4450   23.2050 C   0  0  0  0  0  0  0  0  0  0  0  0
  -19.0590  -29.6830   23.8280 C   0  0  0  0  0  3  0  0  0  0  0  0
  -17.7350  -30.1210   24.0120 C   0  0  0  0  0  3  0  0  0  0  0  0
  -16.6640  -29.3200   23.5800 C   0  0  0  0  0  3  0  0  0  0  0  0
  -16.9210  -28.0860   22.9570 C   0  0  0  0  0  3  0  0  0  0  0  0
  -25.9270  -32.3620   23.7590 C   0  0  0  0  0  3  0  0  0  0  0  0
  -26.4660  -31.5860   25.0240 C   0  0  1  0  0  0  0  0  0  0  0  0
  -25.3700  -31.3030   26.0780 C   0  0  0  0  0  1  0  0  0  0  0  0
  -27.0970  -30.2330   24.6120 C   0  0  0  0  0  1  0  0  0  0  0  0
  -27.5890  -32.4050   25.7010 C   0  0  0  0  0  1  0  0  0  0  0  0
  -25.5830  -33.7480   24.1060 N   0  0  0  0  0  0  0  0  0  0  0  0
  -25.9060  -34.8210   23.3730 C   0  0  0  0  0  0  0  0  0  0  0  0
  -26.5980  -34.7510   22.3540 O   0  0  0  0  0  0  0  0  0  0  0  0
  -24.9780  -33.8740   24.9040 H   0  0  0  0  0  0  0  0  0  0  0  0
  -24.1430  -36.5830   23.0160 C   0  0  0  0  0  1  0  0  0  0  0  0
  -25.3780  -36.1900   23.8440 C   0  0  0  0  0  3  0  0  0  0  0  0
  -27.4850  -37.1040   24.7170 C   0  0  0  0  0  1  0  0  0  0  0  0
  -26.3850  -37.2710   23.7700 N   0  0  0  0  0  0  0  0  0  0  0  0
  -25.9520  -38.1750   23.9410 H   0  0  0  0  0  0  0  0  0  0  0  0
  1  2  1  0
  3  2  1  0
  4  3  1  0
  5  6  1  0
  5  4  1  0
  7 10  1  0
  7  6  1  0
  8  7  1  0
  9  7  1  0
 11 10  1  0
 12 20  1  0
 13 18  1  0
 14 15  1  0
 14 13  1  0
 16 15  1  0
 16 25  1  0
 16 17  1  0
 18 12  1  0
 18 17  1  0
 19 12  2  0
 20 11  1  0
 20 21  1  0
 22 23  2  0
 23 24  1  0
 23 42  1  0
 24 27  1  0
 25 22  1  0
 25 26  1  0
 26 24  2  0
 27 28  1  0
 28 29  2  0
 30 33  1  0
 30 29  1  0
 31 30  2  0
 32 31  1  0
 32 27  2  0
 33 34  1  0
 34 39  2  0
 34 35  1  0
 35 36  2  0
 36 37  1  0
 37 41  1  0
 38 37  2  0
 39 38  1  0
 40 39  1  0
 42 43  1  0
 43 46  1  0
 43 45  1  0
 44 42  2  0
 47 48  1  0
 47 22  1  0
 49 47  1  0
 50  1  1  0
 51 50  1  0
 52 53  1  0
 52 51  1  0
 54 52  1  0
 55 52  1  0
 56 55  1  0
 57 59  1  0
 57 56  1  0
 58 69  2  0
 59 64  1  0
 60 68  1  0
 60 70  1  0
 61 67  1  0
 61 63  1  0
 62 68  1  0
 63 62  1  0
 64 63  2  0
 65 66  1  0
 65 59  2  0
 66 61  2  0
 67 60  1  0
 68 58  1  0
 70 72  2  0
 71 70  1  0
 73 71  1  0
 74 83  2  0
 74 79  1  0
 75 71  1  0
 75 79  1  0
 76 75  1  0
 77 78  1  0
 77 76  1  0
 78 74  1  0
 79 80  2  0
 80 81  1  0
 82 81  2  0
 83 82  1  0
 84 58  1  0
 84 89  1  0
 84 85  1  0
 85 88  1  1
 85 86  1  0
 87 85  1  0
 89 92  1  0
 90 94  1  0
 90 89  1  0
 91 90  2  0
 94 93  1  0
 96 94  1  0
 96 97  1  0
 96 95  1  0
M  ISO  4  12 100  20 100  56 101  57 101
M  END
>  <TORSDO>  (15) 
F 29

>  <SCORE>  (15) 
-2.198

>  <name>  (15) 
14

>  <ligand_id>  (15) 
14

>  <original_smiles>  (15) 
[H]c1c([H])c([H])c2c(c1[H])C([H])([H])C([H])([H])C([H])([H])C2([H])N([H])C(=O)C1([H])N(C(=O)C([H])(N([H])C(=O)C([H])(N([H])C([H])([H])[H])C([H])([H])[H])C(C([H])([H])[H])(C([H])([H])[H])C([H])([H])[H])C([H])([H])c2c([H])c(OC([H])([H])C([H])([H])[N+]([H])([H])C([H])([H])C([H])([H])C([H])([H])C([H])([H])C([H])([H])OC([H])([H])C([H])([H])[N+]([H])([H])C([H])([H])C([H])([H])N([H])C(=O)N3C([H])([H])C([H])([H])C([H])([H])C([H])(n4nc(-c5c([H])c([H])c(Oc6c([H])c([H])c(F)c([H])c6F)c([H])c5[H])c(C(=O)N([H])[H])c4N([H])[H])C3([H])[H])c([H])c([H])c2C1([H])[H]

>  <smiles>  (15) 
[H]c1c([H])c([H])c2c(c1[H])C([H])([H])C([H])([H])C([H])([H])C2([H])N([H])C(=O)C1([H])N(C(=O)C([H])(N([H])C(=O)C([H])(N([H])C([H])([H])[H])C([H])([H])[H])C(C([H])([H])[H])(C([H])([H])[H])C([H])([H])[H])C([H])([H])c2c([H])c(OC([H])([H])C([H])([H])[N+]([H])([H])C([H])([H])C([H])([H])C([H])([H])C([H])([H])C([H])([H])OC([H])([H])C([H])([H])[N+]([H])([H])C([H])([H])C([H])([H])N([H])C(=O)N3C([H])([H])C([H])([H])C([H])([H])C([H])(n4nc(-c5c([H])c([H])c(Oc6c([H])c([H])c(F)c([H])c6F)c([H])c5[H])c(C(=O)N([H])[H])c4N([H])[H])C3([H])[H])c([H])c([H])c2C1([H])[H]

$$$$
15:0:0
     RDKit          3D

 97104  0  0  1  0  0  0  0  0999 V2000
  -29.9010  -20.9520   24.7790 C   0  0  0  0  0  2  0  0  0  0  0  0
  -30.4120  -22.4070   24.7400 C   0  0  0  0  0  2  0  0  0  0  0  0
  -29.5380  -23.2820   23.9210 N   0  0  0  0  0  4  0  0  0  0  0  0
  -28.7300  -23.5200   24.4740 H   0  0  0  0  0  0  0  0  0  0  0  0
  -29.2240  -22.7600   23.1190 H   0  0  0  0  0  0  0  0  0  0  0  0
  -30.1960  -24.5300   23.4630 C   0  0  0  0  0  2  0  0  0  0  0  0
  -29.2740  -25.4810   22.6590 C   0  0  0  0  0  2  0  0  0  0  0  0
  -29.0220  -25.0810   21.1900 C   0  0  0  0  0  2  0  0  0  0  0  0
  -28.9310  -26.2440   20.3620 O   0  0  0  0  0  0  0  0  0  0  0  0
  -24.7480  -31.1790   23.2820 C   0  0  0  0  0  0  0  0  0  0  0  0
  -27.7130  -26.8760   20.3470 C   0  0  0  0  0  0  0  0  0  0  0  0
  -23.6590  -29.6950   21.6260 C   0  0  0  0  0  3  0  0  0  0  0  0
  -25.2330  -28.2210   20.2600 C   0  0  0  0  0  0  0  0  0  0  0  0
  -26.1600  -30.2020   21.4770 C   0  0  0  0  0  2  0  0  0  0  0  0
  -26.3410  -28.8290   20.8650 C   0  0  0  0  0  0  0  0  0  0  0  0
  -27.5840  -28.1670   20.9010 C   0  0  0  0  0  3  0  0  0  0  0  0
  -26.5940  -26.2720   19.7360 C   0  0  0  0  0  3  0  0  0  0  0  0
  -25.3550  -26.9410   19.6910 C   0  0  0  0  0  3  0  0  0  0  0  0
  -23.9410  -29.0060   20.2620 C   0  0  0  0  0  2  0  0  0  0  0  0
  -24.8720  -30.3760   22.1890 N   0  0  0  0  0  0  0  0  0  0  0  0
  -23.6420  -31.3940   23.7960 O   0  0  0  0  0  0  0  0  0  0  0  0
  -23.0420  -28.6530   22.5860 C   0  0  0  0  0  0  0  0  0  0  0  0
  -21.7870  -28.2610   22.3140 N   0  0  0  0  0  0  0  0  0  0  0  0
  -23.6970  -28.1930   23.5250 O   0  0  0  0  0  0  0  0  0  0  0  0
  -21.3160  -28.6920   21.5300 H   0  0  0  0  0  0  0  0  0  0  0  0
  -18.6370  -26.4970   22.4100 C   0  0  0  0  0  0  0  0  0  0  0  0
  -21.0190  -27.2610   23.0550 C   0  0  0  0  0  3  0  0  0  0  0  0
  -21.4690  -25.8280   22.6830 C   0  0  0  0  0  2  0  0  0  0  0  0
  -20.6400  -25.2090   21.5540 C   0  0  0  0  0  2  0  0  0  0  0  0
  -19.1610  -25.1500   21.9440 C   0  0  0  0  0  2  0  0  0  0  0  0
  -19.5110  -27.4940   22.9160 C   0  0  0  0  0  0  0  0  0  0  0  0
  -18.9780  -28.7440   23.3010 C   0  0  0  0  0  3  0  0  0  0  0  0
  -17.5990  -29.0020   23.1900 C   0  0  0  0  0  3  0  0  0  0  0  0
  -16.7340  -28.0060   22.7010 C   0  0  0  0  0  3  0  0  0  0  0  0
  -17.2530  -26.7570   22.3170 C   0  0  0  0  0  3  0  0  0  0  0  0
  -25.9840  -31.8840   23.9260 C   0  0  0  0  0  3  0  0  0  0  0  0
  -26.4660  -31.1960   25.2610 C   0  0  1  0  0  0  0  0  0  0  0  0
  -25.3280  -30.9330   26.2730 C   0  0  0  0  0  1  0  0  0  0  0  0
  -27.1500  -29.8420   24.9560 C   0  0  0  0  0  1  0  0  0  0  0  0
  -27.5270  -32.0820   25.9530 C   0  0  0  0  0  1  0  0  0  0  0  0
  -25.6190  -33.2860   24.1640 N   0  0  0  0  0  0  0  0  0  0  0  0
  -26.0120  -34.3150   23.4010 C   0  0  0  0  0  0  0  0  0  0  0  0
  -26.7870  -34.1840   22.4500 O   0  0  0  0  0  0  0  0  0  0  0  0
  -24.9410  -33.4600   24.8920 H   0  0  0  0  0  0  0  0  0  0  0  0
  -24.3190  -36.0640   22.7740 C   0  0  0  0  0  1  0  0  0  0  0  0
  -25.4550  -35.7080   23.7460 C   0  0  0  0  0  3  0  0  0  0  0  0
  -27.4470  -36.6630   24.8140 C   0  0  0  0  0  1  0  0  0  0  0  0
  -26.4810  -36.7720   23.7250 N   0  0  0  0  0  0  0  0  0  0  0  0
  -26.0490  -37.6910   23.7730 H   0  0  0  0  0  0  0  0  0  0  0  0
  -31.0250  -19.9030   24.9280 C   0  0  0  0  0  2  0  0  0  0  0  0
  -30.9030  -18.7150   23.9500 C   0  0  0  0  0  2  0  0  0  0  0  0
  -31.6580  -18.9080   22.7580 O   0  0  0  0  0  0  0  0  0  0  0  0
  -30.9280  -19.4810   21.6810 C   0  0  0  0  0  2  0  0  0  0  0  0
  -31.8830  -19.6450   20.4960 C   0  0  0  0  0  2  0  0  0  0  0  0
  -32.4790  -21.0040   20.4860 N   0  0  0  0  0  4  0  0  0  0  0  0
  -31.7240  -21.6720   20.4830 H   0  0  0  0  0  0  0  0  0  0  0  0
  -32.9910  -21.1460   21.3450 H   0  0  0  0  0  0  0  0  0  0  0  0
  -33.3430  -21.2660   19.3190 C   0  0  0  0  0  2  0  0  0  0  0  0
  -34.5470  -22.1900   19.6060 C   0  0  0  0  0  2  0  0  0  0  0  0
  -36.6980  -20.8610   19.6450 C   0  0  0  0  0  0  0  0  0  0  0  0
  -37.3840  -18.5400   20.1080 C   0  0  0  0  0  2  0  0  0  0  0  0
  -37.2940  -17.7030   18.8150 C   0  0  0  0  0  2  0  0  0  0  0  0
  -35.8730  -17.1320   18.6290 C   0  0  0  0  0  2  0  0  0  0  0  0
  -34.7690  -18.2100   18.8030 C   0  0  0  0  0  3  0  0  0  0  0  0
  -35.0170  -19.0120   20.1000 C   0  0  0  0  0  2  0  0  0  0  0  0
  -36.3650  -19.6000   20.0310 N   0  0  0  0  0  0  0  0  0  0  0  0
  -37.8640  -21.2470   19.5470 O   0  0  0  0  0  0  0  0  0  0  0  0
  -35.7540  -21.5910   19.0370 N   0  0  0  0  0  0  0  0  0  0  0  0
  -36.1920  -22.2220   18.3810 H   0  0  0  0  0  0  0  0  0  0  0  0
  -32.2300  -18.1520   18.3560 C   0  0  0  0  0  0  0  0  0  0  0  0
  -31.3010  -17.1590   18.5040 C   0  0  0  0  0  0  0  0  0  0  0  0
  -32.0070  -16.0310   19.0200 C   0  0  0  0  0  0  0  0  0  0  0  0
  -33.4340  -17.6150   18.7900 N   0  0  0  0  0  0  0  0  0  0  0  0
  -33.2770  -16.3440   19.2390 N   0  0  0  0  0  0  0  0  0  0  0  0
  -31.5530  -14.6550   19.2710 C   0  0  0  0  0  0  0  0  0  0  0  0
  -31.2680  -14.2030   20.5770 C   0  0  0  0  0  3  0  0  0  0  0  0
  -30.8210  -12.8840   20.7960 C   0  0  0  0  0  3  0  0  0  0  0  0
  -30.6480  -12.0030   19.7020 C   0  0  0  0  0  0  0  0  0  0  0  0
  -30.9530  -12.4500   18.4060 C   0  0  0  0  0  3  0  0  0  0  0  0
  -31.4030  -13.7640   18.1890 C   0  0  0  0  0  3  0  0  0  0  0  0
  -30.2440  -10.6950   19.8200 O   0  0  0  0  0  0  0  0  0  0  0  0
  -29.1590  -10.3430   20.5790 C   0  0  0  0  0  0  0  0  0  0  0  0
  -27.8680  -10.8530   20.3180 C   0  0  0  0  0  3  0  0  0  0  0  0
  -26.7690  -10.4120   21.0800 C   0  0  0  0  0  3  0  0  0  0  0  0
  -26.9550   -9.4550   22.0960 C   0  0  0  0  0  0  0  0  0  0  0  0
  -28.2390   -8.9420   22.3550 C   0  0  0  0  0  3  0  0  0  0  0  0
  -29.3370   -9.3820   21.5950 C   0  0  0  0  0  0  0  0  0  0  0  0
  -30.5680   -8.8700   21.8320 F   0  0  0  0  0  0  0  0  0  0  0  0
  -25.8980   -9.0230   22.8220 F   0  0  0  0  0  0  0  0  0  0  0  0
  -29.8600  -17.2190   18.0920 C   0  0  0  0  0  0  0  0  0  0  0  0
  -28.9930  -16.4920   18.7860 N   0  0  0  0  0  0  0  0  0  0  0  0
  -29.4880  -17.9500   17.1760 O   0  0  0  0  0  0  0  0  0  0  0  0
  -29.2970  -15.9030   19.5490 H   0  0  0  0  0  0  0  0  0  0  0  0
  -28.0120  -16.5230   18.5540 H   0  0  0  0  0  0  0  0  0  0  0  0
  -32.1430  -19.4530   17.8680 N   0  0  0  0  0  0  0  0  0  0  0  0
  -31.2810  -19.7650   17.4330 H   0  0  0  0  0  0  0  0  0  0  0  0
  -32.9350  -20.0420   17.6510 H   0  0  0  0  0  0  0  0  0  0  0  0
  1 50  1  0
  2  1  1  0
  3  4  1  0
  3  2  1  0
  5  3  1  0
  6  3  1  0
  7  6  1  0
  8  7  1  0
  9  8  1  0
 10 21  2  0
 11  9  1  0
 11 16  1  0
 12 20  1  0
 12 22  1  0
 13 19  1  0
 13 15  1  0
 14 20  1  0
 15 16  2  0
 15 14  1  0
 17 11  2  0
 18 17  1  0
 18 13  2  0
 19 12  1  0
 20 10  1  0
 22 24  2  0
 23 22  1  0
 25 23  1  0
 26 31  1  0
 27 23  1  0
 28 27  1  0
 29 30  1  0
 29 28  1  0
 30 26  1  0
 31 27  1  0
 31 32  2  0
 33 32  1  0
 34 33  2  0
 35 26  2  0
 35 34  1  0
 36 10  1  0
 36 41  1  0
 36 37  1  0
 37 40  1  1
 37 38  1  0
 39 37  1  0
 41 44  1  0
 42 46  1  0
 42 41  1  0
 43 42  2  0
 46 45  1  0
 48 46  1  0
 48 49  1  0
 48 47  1  0
 51 50  1  0
 52 51  1  0
 53 52  1  0
 54 53  1  0
 55 54  1  0
 55 57  1  0
 56 55  1  0
 58 59  1  0
 58 55  1  0
 60 66  1  0
 62 61  1  0
 63 62  1  0
 64 63  1  0
 64 65  1  0
 66 65  1  0
 66 61  1  0
 67 60  2  0
 68 59  1  0
 68 60  1  0
 69 68  1  0
 70 71  2  0
 70 73  1  0
 71 72  1  0
 72 74  2  0
 72 75  1  0
 73 64  1  0
 73 74  1  0
 75 76  1  0
 76 77  2  0
 78 81  1  0
 78 77  1  0
 79 78  2  0
 80 79  1  0
 80 75  2  0
 81 82  1  0
 82 87  1  0
 83 82  2  0
 83 84  1  0
 84 85  2  0
 85 86  1  0
 85 89  1  0
 87 88  1  0
 87 86  2  0
 90 71  1  0
 90 91  1  0
 91 93  1  0
 92 90  2  0
 94 91  1  0
 95 70  1  0
 96 95  1  0
 97 95  1  0
M  ISO  4   8 101   9 101  60 100  68 100
M  END
>  <TORSDO>  (16) 
F 29

>  <SCORE>  (16) 
-4.743

>  <name>  (16) 
15

>  <ligand_id>  (16) 
15

>  <original_smiles>  (16) 
[H]c1c([H])c([H])c2c(c1[H])C([H])([H])C([H])([H])C([H])([H])C2([H])N([H])C(=O)C1([H])N(C(=O)C([H])(N([H])C(=O)C([H])(N([H])C([H])([H])[H])C([H])([H])[H])C(C([H])([H])[H])(C([H])([H])[H])C([H])([H])[H])C([H])([H])c2c([H])c(OC([H])([H])C([H])([H])C([H])([H])[N+]([H])([H])C([H])([H])C([H])([H])C([H])([H])C([H])([H])OC([H])([H])C([H])([H])[N+]([H])([H])C([H])([H])C([H])([H])N([H])C(=O)N3C([H])([H])C([H])([H])C([H])([H])C([H])(n4nc(-c5c([H])c([H])c(Oc6c([H])c([H])c(F)c([H])c6F)c([H])c5[H])c(C(=O)N([H])[H])c4N([H])[H])C3([H])[H])c([H])c([H])c2C1([H])[H]

>  <smiles>  (16) 
[H]c1c([H])c([H])c2c(c1[H])C([H])([H])C([H])([H])C([H])([H])C2([H])N([H])C(=O)C1([H])N(C(=O)C([H])(N([H])C(=O)C([H])(N([H])C([H])([H])[H])C([H])([H])[H])C(C([H])([H])[H])(C([H])([H])[H])C([H])([H])[H])C([H])([H])c2c([H])c(OC([H])([H])C([H])([H])C([H])([H])[N+]([H])([H])C([H])([H])C([H])([H])C([H])([H])C([H])([H])OC([H])([H])C([H])([H])[N+]([H])([H])C([H])([H])C([H])([H])N([H])C(=O)N3C([H])([H])C([H])([H])C([H])([H])C([H])(n4nc(-c5c([H])c([H])c(Oc6c([H])c([H])c(F)c([H])c6F)c([H])c5[H])c(C(=O)N([H])[H])c4N([H])[H])C3([H])[H])c([H])c([H])c2C1([H])[H]

$$$$
16:0:0
     RDKit          3D

 86 93  0  0  1  0  0  0  0  0999 V2000
  -28.5650  -23.7590   19.9470 C   0  0  0  0  0  2  0  0  0  0  0  0
  -28.9360  -22.4110   20.7550 C   0  0  0  0  0  3  0  0  0  0  0  0
  -28.9450  -20.9740   20.0290 C   0  0  0  0  0  3  0  0  0  0  0  0
  -29.5300  -19.8170   20.7480 O   0  0  0  0  0  0  0  0  0  0  0  0
  -29.2830  -18.4370   20.2600 C   0  0  0  0  0  3  0  0  0  0  0  0
  -30.2080  -17.2580   20.8460 C   0  0  0  0  0  3  0  0  0  0  0  0
  -30.5610  -14.6960   20.4030 C   0  0  0  0  0  0  0  0  0  0  0  0
  -30.3500  -12.4400   19.3610 C   0  0  0  0  0  2  0  0  0  0  0  0
  -29.4000  -12.5290   18.1480 C   0  0  0  0  0  2  0  0  0  0  0  0
  -27.9320  -12.3610   18.5880 C   0  0  0  0  0  2  0  0  0  0  0  0
  -27.5710  -13.2430   19.8150 C   0  0  0  0  0  3  0  0  0  0  0  0
  -28.6370  -13.1320   20.9260 C   0  0  0  0  0  2  0  0  0  0  0  0
  -29.9310  -13.4790   20.3260 N   0  0  0  0  0  0  0  0  0  0  0  0
  -31.7390  -14.8190   20.0600 O   0  0  0  0  0  0  0  0  0  0  0  0
  -29.7920  -15.8040   20.6850 N   0  0  0  0  0  0  0  0  0  0  0  0
  -28.8230  -15.6080   20.8910 H   0  0  0  0  0  0  0  0  0  0  0  0
  -25.1890  -13.8380   20.5600 C   0  0  0  0  0  0  0  0  0  0  0  0
  -24.1260  -13.0640   20.9390 C   0  0  0  0  0  0  0  0  0  0  0  0
  -24.5870  -11.7120   20.9030 C   0  0  0  0  0  0  0  0  0  0  0  0
  -26.2300  -12.9570   20.3140 N   0  0  0  0  0  0  0  0  0  0  0  0
  -25.8750  -11.6740   20.5830 N   0  0  0  0  0  0  0  0  0  0  0  0
  -23.8620  -10.4500   21.0950 C   0  0  0  0  0  0  0  0  0  0  0  0
  -24.3160   -9.4680   22.0020 C   0  0  0  0  0  3  0  0  0  0  0  0
  -23.5890   -8.2720   22.1840 C   0  0  0  0  0  3  0  0  0  0  0  0
  -22.3940   -8.0480   21.4590 C   0  0  0  0  0  0  0  0  0  0  0  0
  -21.9580   -9.0210   20.5420 C   0  0  0  0  0  3  0  0  0  0  0  0
  -22.6850  -10.2090   20.3570 C   0  0  0  0  0  3  0  0  0  0  0  0
  -21.6380   -6.9060   21.5530 O   0  0  0  0  0  0  0  0  0  0  0  0
  -21.6380   -6.1320   22.6860 C   0  0  0  0  0  0  0  0  0  0  0  0
  -21.2910   -6.6620   23.9490 C   0  0  0  0  0  3  0  0  0  0  0  0
  -21.2360   -5.8170   25.0750 C   0  0  0  0  0  3  0  0  0  0  0  0
  -21.5160   -4.4440   24.9400 C   0  0  0  0  0  0  0  0  0  0  0  0
  -21.8560   -3.9140   23.6830 C   0  0  0  0  0  3  0  0  0  0  0  0
  -21.9140   -4.7560   22.5590 C   0  0  0  0  0  0  0  0  0  0  0  0
  -22.2200   -4.2360   21.3450 F   0  0  0  0  0  0  0  0  0  0  0  0
  -21.4560   -3.6300   26.0210 F   0  0  0  0  0  0  0  0  0  0  0  0
  -22.7300  -13.5420   21.2190 C   0  0  0  0  0  0  0  0  0  0  0  0
  -22.0080  -12.8490   22.0920 N   0  0  0  0  0  0  0  0  0  0  0  0
  -22.2890  -14.5660   20.7000 O   0  0  0  0  0  0  0  0  0  0  0  0
  -22.3770  -12.0220   22.5370 H   0  0  0  0  0  0  0  0  0  0  0  0
  -21.0710  -13.1510   22.3190 H   0  0  0  0  0  0  0  0  0  0  0  0
  -25.3520  -15.2080   20.3810 N   0  0  0  0  0  0  0  0  0  0  0  0
  -24.5810  -15.8580   20.4880 H   0  0  0  0  0  0  0  0  0  0  0  0
  -26.1870  -15.6450   20.0110 H   0  0  0  0  0  0  0  0  0  0  0  0
  -28.2510  -25.1080   20.7680 C   0  0  0  0  0  2  0  0  0  0  0  0
  -28.3420  -26.4610   20.1500 O   0  0  0  0  0  0  0  0  0  0  0  0
  -24.6250  -31.8680   23.2190 C   0  0  0  0  0  0  0  0  0  0  0  0
  -27.2190  -27.3010   20.1670 C   0  0  0  0  0  0  0  0  0  0  0  0
  -23.4100  -30.4670   21.5870 C   0  0  0  0  0  3  0  0  0  0  0  0
  -24.8530  -28.9080   20.1590 C   0  0  0  0  0  0  0  0  0  0  0  0
  -25.9470  -30.7880   21.3840 C   0  0  0  0  0  2  0  0  0  0  0  0
  -26.0250  -29.4060   20.7430 C   0  0  0  0  0  0  0  0  0  0  0  0
  -27.2140  -28.6150   20.7300 C   0  0  0  0  0  3  0  0  0  0  0  0
  -26.0260  -26.8500   19.5670 C   0  0  0  0  0  3  0  0  0  0  0  0
  -24.8550  -27.6360   19.5600 C   0  0  0  0  0  3  0  0  0  0  0  0
  -23.6170  -29.7840   20.2080 C   0  0  0  0  0  2  0  0  0  0  0  0
  -24.6810  -31.0590   22.1210 N   0  0  0  0  0  0  0  0  0  0  0  0
  -23.5450  -32.1450   23.7620 O   0  0  0  0  0  0  0  0  0  0  0  0
  -22.7530  -29.4550   22.5550 C   0  0  0  0  0  0  0  0  0  0  0  0
  -21.4260  -29.2760   22.4340 N   0  0  0  0  0  0  0  0  0  0  0  0
  -23.4350  -28.8310   23.3710 O   0  0  0  0  0  0  0  0  0  0  0  0
  -20.9330  -29.8310   21.7480 H   0  0  0  0  0  0  0  0  0  0  0  0
  -18.0560  -28.0630   22.9360 C   0  0  0  0  0  0  0  0  0  0  0  0
  -20.6120  -28.3390   23.2100 C   0  0  0  0  0  3  0  0  0  0  0  0
  -20.7240  -26.9040   22.6450 C   0  0  0  0  0  2  0  0  0  0  0  0
  -19.6260  -26.5680   21.6310 C   0  0  0  0  0  2  0  0  0  0  0  0
  -18.2410  -26.7090   22.2710 C   0  0  0  0  0  2  0  0  0  0  0  0
  -19.1680  -28.8350   23.3630 C   0  0  0  0  0  0  0  0  0  0  0  0
  -18.9410  -30.1000   23.9450 C   0  0  0  0  0  3  0  0  0  0  0  0
  -17.6330  -30.5940   24.1050 C   0  0  0  0  0  3  0  0  0  0  0  0
  -16.5340  -29.8200   23.6940 C   0  0  0  0  0  3  0  0  0  0  0  0
  -16.7470  -28.5560   23.1150 C   0  0  0  0  0  3  0  0  0  0  0  0
  -25.9110  -32.5000   23.8350 C   0  0  0  0  0  3  0  0  0  0  0  0
  -26.4400  -31.7260   25.1040 C   0  0  1  0  0  0  0  0  0  0  0  0
  -25.3580  -31.4850   26.1820 C   0  0  0  0  0  1  0  0  0  0  0  0
  -27.0180  -30.3490   24.7000 C   0  0  0  0  0  1  0  0  0  0  0  0
  -27.5970  -32.5170   25.7580 C   0  0  0  0  0  1  0  0  0  0  0  0
  -25.6010  -33.8960   24.1760 N   0  0  0  0  0  0  0  0  0  0  0  0
  -25.9220  -34.9560   23.4190 C   0  0  0  0  0  0  0  0  0  0  0  0
  -26.5800  -34.8590   22.3800 O   0  0  0  0  0  0  0  0  0  0  0  0
  -25.0170  -34.0450   24.9850 H   0  0  0  0  0  0  0  0  0  0  0  0
  -24.1830  -36.7450   23.1010 C   0  0  0  0  0  1  0  0  0  0  0  0
  -25.4370  -36.3400   23.8920 C   0  0  0  0  0  3  0  0  0  0  0  0
  -27.5830  -37.2260   24.6910 C   0  0  0  0  0  1  0  0  0  0  0  0
  -26.4650  -37.3970   23.7680 N   0  0  0  0  0  0  0  0  0  0  0  0
  -26.0580  -38.3150   23.9270 H   0  0  0  0  0  0  0  0  0  0  0  0
  1  2  1  0
  1 45  1  0
  3  4  1  0
  3  2  2  0
  5  4  1  0
  5  6  2  0
  7 15  1  0
  8 13  1  0
  9 10  1  0
  9  8  1  0
 11 10  1  0
 11 20  1  0
 11 12  1  0
 13  7  1  0
 13 12  1  0
 14  7  2  0
 15  6  1  0
 15 16  1  0
 17 18  2  0
 18 37  1  0
 19 18  1  0
 19 22  1  0
 20 17  1  0
 20 21  1  0
 21 19  2  0
 22 23  1  0
 23 24  2  0
 25 28  1  0
 25 24  1  0
 26 25  2  0
 27 26  1  0
 27 22  2  0
 28 29  1  0
 29 30  1  0
 30 31  2  0
 32 31  1  0
 32 36  1  0
 33 32  2  0
 34 29  2  0
 34 33  1  0
 35 34  1  0
 37 38  1  0
 38 41  1  0
 38 40  1  0
 39 37  2  0
 42 43  1  0
 42 17  1  0
 44 42  1  0
 46 48  1  0
 46 45  1  0
 47 58  2  0
 48 53  1  0
 49 57  1  0
 49 59  1  0
 50 56  1  0
 50 52  1  0
 51 57  1  0
 52 51  1  0
 53 52  2  0
 54 48  2  0
 55 54  1  0
 55 50  2  0
 56 49  1  0
 57 47  1  0
 59 61  2  0
 60 59  1  0
 62 60  1  0
 63 72  2  0
 63 68  1  0
 64 60  1  0
 64 68  1  0
 65 64  1  0
 66 67  1  0
 66 65  1  0
 67 63  1  0
 68 69  2  0
 69 70  1  0
 71 70  2  0
 72 71  1  0
 73 47  1  0
 73 78  1  0
 73 74  1  0
 74 77  1  1
 74 75  1  0
 76 74  1  0
 78 81  1  0
 79 83  1  0
 79 78  1  0
 80 79  2  0
 83 82  1  0
 85 83  1  0
 85 86  1  0
 85 84  1  0
M  ISO  4   7 100  15 100  45 101  46 101
M  END
>  <TORSDO>  (17) 
F 22

>  <SCORE>  (17) 
-12.875

>  <name>  (17) 
16

>  <ligand_id>  (17) 
16

>  <original_smiles>  (17) 
[H]c1c([H])c([H])c2c(c1[H])C([H])([H])C([H])([H])C([H])([H])C2([H])N([H])C(=O)C1([H])N(C(=O)C([H])(N([H])C(=O)C([H])(N([H])C([H])([H])[H])C([H])([H])[H])C(C([H])([H])[H])(C([H])([H])[H])C([H])([H])[H])C([H])([H])c2c([H])c(OC([H])([H])C([H])([H])C([H])([H])C([H])([H])OC([H])([H])C([H])([H])N([H])C(=O)N3C([H])([H])C([H])([H])C([H])([H])C([H])(n4nc(-c5c([H])c([H])c(Oc6c([H])c([H])c(F)c([H])c6F)c([H])c5[H])c(C(=O)N([H])[H])c4N([H])[H])C3([H])[H])c([H])c([H])c2C1([H])[H]

>  <smiles>  (17) 
[H]c1c([H])c([H])c2c(c1[H])C([H])([H])C([H])([H])C([H])([H])C2([H])N([H])C(=O)C1([H])N(C(=O)C([H])(N([H])C(=O)C([H])(N([H])C([H])([H])[H])C([H])([H])[H])C(C([H])([H])[H])(C([H])([H])[H])C([H])([H])[H])C([H])([H])c2c([H])c(OC([H])([H])C([H])([H])C([H])([H])C([H])([H])OC([H])([H])C([H])([H])N([H])C(=O)N3C([H])([H])C([H])([H])C([H])([H])C([H])(n4nc(-c5c([H])c([H])c(Oc6c([H])c([H])c(F)c([H])c6F)c([H])c5[H])c(C(=O)N([H])[H])c4N([H])[H])C3([H])[H])c([H])c([H])c2C1([H])[H]

$$$$
17:0:0
     RDKit          3D

100107  0  0  1  0  0  0  0  0999 V2000
  -31.1200  -20.0700   22.4340 C   0  0  0  0  0  2  0  0  0  0  0  0
  -30.9280  -18.6540   21.8770 C   0  0  0  0  0  2  0  0  0  0  0  0
  -31.9900  -17.6250   22.2850 C   0  0  0  0  0  2  0  0  0  0  0  0
  -32.0200  -16.5880   21.2970 O   0  0  0  0  0  0  0  0  0  0  0  0
  -33.1810  -16.5630   20.4640 C   0  0  0  0  0  2  0  0  0  0  0  0
  -32.8070  -16.6240   18.9680 C   0  0  0  0  0  2  0  0  0  0  0  0
  -32.1730  -17.9690   18.5780 C   0  0  0  0  0  2  0  0  0  0  0  0
  -31.9780  -18.0950   17.1700 O   0  0  0  0  0  0  0  0  0  0  0  0
  -31.3090  -19.2940   16.7640 C   0  0  0  0  0  2  0  0  0  0  0  0
  -29.8610  -19.4330   17.3010 C   0  0  0  0  0  2  0  0  0  0  0  0
  -28.9800  -18.1750   17.1080 C   0  0  0  0  0  2  0  0  0  0  0  0
  -27.7030  -18.1240   17.9860 C   0  0  0  0  0  2  0  0  0  0  0  0
  -27.9430  -18.0440   19.5200 C   0  0  0  0  0  2  0  0  0  0  0  0
  -28.9340  -15.8700   20.2620 C   0  0  0  0  0  0  0  0  0  0  0  0
  -29.1720  -13.6360   19.3370 C   0  0  0  0  0  2  0  0  0  0  0  0
  -28.1810  -13.5420   18.1590 C   0  0  0  0  0  2  0  0  0  0  0  0
  -26.7980  -13.0750   18.6450 C   0  0  0  0  0  2  0  0  0  0  0  0
  -26.2860  -13.8510   19.8880 C   0  0  0  0  0  3  0  0  0  0  0  0
  -27.3910  -14.0150   20.9570 C   0  0  0  0  0  2  0  0  0  0  0  0
  -28.5900  -14.5650   20.3110 N   0  0  0  0  0  0  0  0  0  0  0  0
  -30.0670  -16.2730   20.0390 O   0  0  0  0  0  0  0  0  0  0  0  0
  -27.8870  -16.6860   20.0740 N   0  0  0  0  0  0  0  0  0  0  0  0
  -26.9760  -16.2690   20.1770 H   0  0  0  0  0  0  0  0  0  0  0  0
  -23.8730  -13.8490   20.7840 C   0  0  0  0  0  0  0  0  0  0  0  0
  -23.0390  -12.8270   21.1530 C   0  0  0  0  0  0  0  0  0  0  0  0
  -23.7890  -11.6240   20.9880 C   0  0  0  0  0  0  0  0  0  0  0  0
  -25.0700  -13.2450   20.4280 N   0  0  0  0  0  0  0  0  0  0  0  0
  -25.0300  -11.9000   20.6130 N   0  0  0  0  0  0  0  0  0  0  0  0
  -23.3830  -10.2160   21.1160 C   0  0  0  0  0  0  0  0  0  0  0  0
  -23.9860   -9.3530   22.0580 C   0  0  0  0  0  3  0  0  0  0  0  0
  -23.5600   -8.0120   22.1760 C   0  0  0  0  0  3  0  0  0  0  0  0
  -22.5240   -7.5190   21.3500 C   0  0  0  0  0  0  0  0  0  0  0  0
  -21.9410   -8.3770   20.3990 C   0  0  0  0  0  3  0  0  0  0  0  0
  -22.3700   -9.7100   20.2790 C   0  0  0  0  0  3  0  0  0  0  0  0
  -22.0750   -6.2200   21.3750 O   0  0  0  0  0  0  0  0  0  0  0  0
  -22.0340   -5.4950   22.5390 C   0  0  0  0  0  0  0  0  0  0  0  0
  -21.3260   -5.9460   23.6750 C   0  0  0  0  0  3  0  0  0  0  0  0
  -21.2480   -5.1370   24.8250 C   0  0  0  0  0  3  0  0  0  0  0  0
  -21.8720   -3.8740   24.8420 C   0  0  0  0  0  0  0  0  0  0  0  0
  -22.5810   -3.4250   23.7140 C   0  0  0  0  0  3  0  0  0  0  0  0
  -22.6570   -4.2310   22.5650 C   0  0  0  0  0  0  0  0  0  0  0  0
  -23.3160   -3.7820   21.4680 F   0  0  0  0  0  0  0  0  0  0  0  0
  -21.7950   -3.0880   25.9410 F   0  0  0  0  0  0  0  0  0  0  0  0
  -21.5910  -12.9490   21.5400 C   0  0  0  0  0  0  0  0  0  0  0  0
  -21.1120  -12.0640   22.4110 N   0  0  0  0  0  0  0  0  0  0  0  0
  -20.8910  -13.8640   21.1150 O   0  0  0  0  0  0  0  0  0  0  0  0
  -21.6910  -11.3210   22.7710 H   0  0  0  0  0  0  0  0  0  0  0  0
  -20.1550  -12.1400   22.7270 H   0  0  0  0  0  0  0  0  0  0  0  0
  -23.7150  -15.2270   20.7040 N   0  0  0  0  0  0  0  0  0  0  0  0
  -22.8270  -15.6770   20.9110 H   0  0  0  0  0  0  0  0  0  0  0  0
  -24.4140  -15.8690   20.3540 H   0  0  0  0  0  0  0  0  0  0  0  0
  -30.3370  -21.0620   21.5600 C   0  0  0  0  0  2  0  0  0  0  0  0
  -30.7500  -22.5330   21.7290 C   0  0  0  0  0  2  0  0  0  0  0  0
  -30.1300  -23.4050   20.6200 C   0  0  0  0  0  2  0  0  0  0  0  0
  -30.5620  -24.8170   20.6650 N   0  0  0  0  0  4  0  0  0  0  0  0
  -31.5710  -24.8500   20.6580 H   0  0  0  0  0  0  0  0  0  0  0  0
  -30.2610  -25.2360   21.5330 H   0  0  0  0  0  0  0  0  0  0  0  0
  -30.0230  -25.6170   19.5350 C   0  0  0  0  0  2  0  0  0  0  0  0
  -30.3900  -27.1070   19.6400 C   0  0  0  0  0  2  0  0  0  0  0  0
  -29.8360  -27.6460   20.8350 O   0  0  0  0  0  0  0  0  0  0  0  0
  -25.3000  -31.9790   24.0970 C   0  0  0  0  0  0  0  0  0  0  0  0
  -28.5780  -28.1940   20.7870 C   0  0  0  0  0  0  0  0  0  0  0  0
  -24.3460  -30.6630   22.2280 C   0  0  0  0  0  3  0  0  0  0  0  0
  -26.0400  -29.4340   20.7580 C   0  0  0  0  0  0  0  0  0  0  0  0
  -26.8260  -31.2690   22.2660 C   0  0  0  0  0  2  0  0  0  0  0  0
  -27.0870  -29.9900   21.5010 C   0  0  0  0  0  0  0  0  0  0  0  0
  -28.3450  -29.3600   21.5390 C   0  0  0  0  0  3  0  0  0  0  0  0
  -27.5160  -27.6380   20.0330 C   0  0  0  0  0  3  0  0  0  0  0  0
  -26.2480  -28.2510   20.0250 C   0  0  0  0  0  3  0  0  0  0  0  0
  -24.7130  -30.1560   20.8020 C   0  0  0  0  0  2  0  0  0  0  0  0
  -25.5030  -31.3120   22.9250 N   0  0  0  0  0  0  0  0  0  0  0  0
  -24.1640  -32.0950   24.5760 O   0  0  0  0  0  0  0  0  0  0  0  0
  -23.7430  -29.4870   23.0230 C   0  0  0  0  0  0  0  0  0  0  0  0
  -22.4920  -29.1240   22.6940 N   0  0  0  0  0  0  0  0  0  0  0  0
  -24.3980  -28.9050   23.8930 O   0  0  0  0  0  0  0  0  0  0  0  0
  -22.0120  -29.6600   21.9850 H   0  0  0  0  0  0  0  0  0  0  0  0
  -19.3410  -27.3750   22.5470 C   0  0  0  0  0  0  0  0  0  0  0  0
  -21.7320  -28.0210   23.2790 C   0  0  0  0  0  3  0  0  0  0  0  0
  -22.1750  -26.6630   22.6840 C   0  0  0  0  0  2  0  0  0  0  0  0
  -21.3320  -26.2290   21.4830 C   0  0  0  0  0  2  0  0  0  0  0  0
  -19.8560  -26.1130   21.8760 C   0  0  0  0  0  2  0  0  0  0  0  0
  -20.2250  -28.2800   23.1920 C   0  0  0  0  0  0  0  0  0  0  0  0
  -19.6990  -29.4570   23.7680 C   0  0  0  0  0  3  0  0  0  0  0  0
  -18.3200  -29.7300   23.7170 C   0  0  0  0  0  3  0  0  0  0  0  0
  -17.4480  -28.8200   23.0950 C   0  0  0  0  0  3  0  0  0  0  0  0
  -17.9570  -27.6470   22.5120 C   0  0  0  0  0  3  0  0  0  0  0  0
  -26.4790  -32.6540   24.8680 C   0  0  0  0  0  3  0  0  0  0  0  0
  -26.0700  -34.0310   25.1810 N   0  0  0  0  0  0  0  0  0  0  0  0
  -26.4520  -35.1140   24.4920 C   0  0  0  0  0  0  0  0  0  0  0  0
  -27.2490  -35.0610   23.5510 O   0  0  0  0  0  0  0  0  0  0  0  0
  -25.3720  -34.1440   25.9030 H   0  0  0  0  0  0  0  0  0  0  0  0
  -24.7050  -36.8430   23.9520 C   0  0  0  0  0  1  0  0  0  0  0  0
  -25.8510  -36.4710   24.9070 C   0  0  0  0  0  3  0  0  0  0  0  0
  -27.8470  -37.3980   25.9960 C   0  0  0  0  0  1  0  0  0  0  0  0
  -26.8430  -37.5650   24.9490 N   0  0  0  0  0  0  0  0  0  0  0  0
  -26.3840  -38.4600   25.0930 H   0  0  0  0  0  0  0  0  0  0  0  0
  -26.8840  -31.8790   26.1830 C   0  0  1  0  0  0  0  0  0  0  0  0
  -25.6790  -31.5270   27.0880 C   0  0  0  0  0  1  0  0  0  0  0  0
  -27.6180  -30.5610   25.8380 C   0  0  0  0  0  1  0  0  0  0  0  0
  -27.8630  -32.7330   27.0200 C   0  0  0  0  0  1  0  0  0  0  0  0
  2  3  1  0
  2  1  1  0
  4  3  1  0
  5  4  1  0
  6  5  1  0
  7  6  1  0
  8  7  1  0
  9  8  1  0
  9 10  1  0
 11 10  1  0
 11 12  1  0
 12 13  1  0
 13 22  1  0
 14 20  1  0
 15 20  1  0
 16 17  1  0
 16 15  1  0
 18 17  1  0
 18 27  1  0
 18 19  1  0
 20 19  1  0
 21 14  2  0
 22 23  1  0
 22 14  1  0
 24 25  2  0
 25 44  1  0
 26 29  1  0
 26 25  1  0
 27 28  1  0
 27 24  1  0
 28 26  2  0
 29 30  1  0
 30 31  2  0
 32 35  1  0
 32 31  1  0
 33 32  2  0
 34 33  1  0
 34 29  2  0
 35 36  1  0
 36 41  2  0
 36 37  1  0
 37 38  2  0
 38 39  1  0
 39 43  1  0
 40 39  2  0
 41 40  1  0
 42 41  1  0
 44 45  1  0
 45 48  1  0
 45 47  1  0
 46 44  2  0
 49 24  1  0
 49 50  1  0
 51 49  1  0
 52 53  1  0
 52  1  1  0
 54 55  1  0
 54 53  1  0
 55 57  1  0
 56 55  1  0
 58 59  1  0
 58 55  1  0
 59 60  1  0
 61 72  2  0
 62 60  1  0
 62 67  1  0
 63 71  1  0
 63 73  1  0
 64 70  1  0
 64 66  1  0
 65 71  1  0
 66 67  2  0
 66 65  1  0
 68 62  2  0
 69 68  1  0
 69 64  2  0
 70 63  1  0
 71 61  1  0
 73 75  2  0
 74 73  1  0
 76 74  1  0
 77 82  1  0
 78 74  1  0
 79 78  1  0
 80 81  1  0
 80 79  1  0
 81 77  1  0
 82 78  1  0
 82 83  2  0
 84 83  1  0
 85 84  2  0
 86 77  2  0
 86 85  1  0
 87 61  1  0
 87 88  1  0
 87 97  1  0
 88 91  1  0
 89 93  1  0
 89 88  1  0
 90 89  2  0
 93 92  1  0
 93 95  1  0
 95 96  1  0
 95 94  1  0
 97100  1  1
 97 98  1  0
 99 97  1  0
M  ISO  4  14 100  22 100  59 101  60 101
M  END
>  <TORSDO>  (18) 
F 34

>  <SCORE>  (18) 
-5.592

>  <name>  (18) 
17

>  <ligand_id>  (18) 
17

>  <original_smiles>  (18) 
[H]c1c([H])c([H])c2c(c1[H])C([H])([H])C([H])([H])C([H])([H])C2([H])N([H])C(=O)C1([H])N(C(=O)C([H])(N([H])C(=O)C([H])(N([H])C([H])([H])[H])C([H])([H])[H])C(C([H])([H])[H])(C([H])([H])[H])C([H])([H])[H])C([H])([H])c2c([H])c(OC([H])([H])C([H])([H])[N+]([H])([H])C([H])([H])C([H])([H])C([H])([H])C([H])([H])C([H])([H])C([H])([H])OC([H])([H])C([H])([H])C([H])([H])OC([H])([H])C([H])([H])C([H])([H])C([H])([H])C([H])([H])N([H])C(=O)N3C([H])([H])C([H])([H])C([H])([H])C([H])(n4nc(-c5c([H])c([H])c(Oc6c([H])c([H])c(F)c([H])c6F)c([H])c5[H])c(C(=O)N([H])[H])c4N([H])[H])C3([H])[H])c([H])c([H])c2C1([H])[H]

>  <smiles>  (18) 
[H]c1c([H])c([H])c2c(c1[H])C([H])([H])C([H])([H])C([H])([H])C2([H])N([H])C(=O)C1([H])N(C(=O)C([H])(N([H])C(=O)C([H])(N([H])C([H])([H])[H])C([H])([H])[H])C(C([H])([H])[H])(C([H])([H])[H])C([H])([H])[H])C([H])([H])c2c([H])c(OC([H])([H])C([H])([H])[N+]([H])([H])C([H])([H])C([H])([H])C([H])([H])C([H])([H])C([H])([H])C([H])([H])OC([H])([H])C([H])([H])C([H])([H])OC([H])([H])C([H])([H])C([H])([H])C([H])([H])C([H])([H])N([H])C(=O)N3C([H])([H])C([H])([H])C([H])([H])C([H])(n4nc(-c5c([H])c([H])c(Oc6c([H])c([H])c(F)c([H])c6F)c([H])c5[H])c(C(=O)N([H])[H])c4N([H])[H])C3([H])[H])c([H])c([H])c2C1([H])[H]

$$$$
18:0:0
     RDKit          3D

 98105  0  0  1  0  0  0  0  0999 V2000
  -33.4790  -23.6540   21.4930 C   0  0  0  0  0  2  0  0  0  0  0  0
  -32.8580  -25.0510   21.3240 C   0  0  0  0  0  2  0  0  0  0  0  0
  -33.4540  -25.8340   20.1350 C   0  0  0  0  0  2  0  0  0  0  0  0
  -32.9060  -27.2040   19.9940 N   0  0  0  0  0  4  0  0  0  0  0  0
  -33.3950  -27.6160   19.2130 H   0  0  0  0  0  0  0  0  0  0  0  0
  -33.1450  -27.7580   20.8000 H   0  0  0  0  0  0  0  0  0  0  0  0
  -31.4540  -27.2920   19.6980 C   0  0  0  0  0  2  0  0  0  0  0  0
  -30.5970  -27.6960   20.9240 C   0  0  0  0  0  2  0  0  0  0  0  0
  -29.3520  -26.8100   21.1620 C   0  0  0  0  0  2  0  0  0  0  0  0
  -28.4430  -26.7470   20.0540 O   0  0  0  0  0  0  0  0  0  0  0  0
  -24.6090  -31.8700   23.2080 C   0  0  0  0  0  0  0  0  0  0  0  0
  -27.2850  -27.4920   20.1130 C   0  0  0  0  0  0  0  0  0  0  0  0
  -23.3970  -30.4800   21.5480 C   0  0  0  0  0  3  0  0  0  0  0  0
  -24.8580  -28.9490   20.1150 C   0  0  0  0  0  0  0  0  0  0  0  0
  -25.9030  -30.8670   21.3250 C   0  0  0  0  0  2  0  0  0  0  0  0
  -26.0010  -29.4860   20.7170 C   0  0  0  0  0  0  0  0  0  0  0  0
  -27.2100  -28.7600   20.7340 C   0  0  0  0  0  3  0  0  0  0  0  0
  -26.1320  -26.9720   19.4880 C   0  0  0  0  0  3  0  0  0  0  0  0
  -24.9170  -27.6840   19.4990 C   0  0  0  0  0  3  0  0  0  0  0  0
  -23.6030  -29.7960   20.1650 C   0  0  0  0  0  2  0  0  0  0  0  0
  -24.6570  -31.0860   22.0910 N   0  0  0  0  0  0  0  0  0  0  0  0
  -23.5310  -32.1390   23.7530 O   0  0  0  0  0  0  0  0  0  0  0  0
  -22.7430  -29.4620   22.5060 C   0  0  0  0  0  0  0  0  0  0  0  0
  -21.4160  -29.2940   22.3810 N   0  0  0  0  0  0  0  0  0  0  0  0
  -23.4220  -28.8200   23.3120 O   0  0  0  0  0  0  0  0  0  0  0  0
  -20.9350  -29.8660   21.7000 H   0  0  0  0  0  0  0  0  0  0  0  0
  -18.0310  -28.1260   22.8450 C   0  0  0  0  0  0  0  0  0  0  0  0
  -20.5870  -28.3560   23.1360 C   0  0  0  0  0  3  0  0  0  0  0  0
  -20.6800  -26.9320   22.5400 C   0  0  0  0  0  2  0  0  0  0  0  0
  -19.5820  -26.6340   21.5150 C   0  0  0  0  0  2  0  0  0  0  0  0
  -18.1980  -26.7830   22.1530 C   0  0  0  0  0  2  0  0  0  0  0  0
  -19.1530  -28.8730   23.2890 C   0  0  0  0  0  0  0  0  0  0  0  0
  -18.9460  -30.1340   23.8880 C   0  0  0  0  0  3  0  0  0  0  0  0
  -17.6460  -30.6480   24.0490 C   0  0  0  0  0  3  0  0  0  0  0  0
  -16.5370  -29.8970   23.6240 C   0  0  0  0  0  3  0  0  0  0  0  0
  -16.7300  -28.6380   23.0280 C   0  0  0  0  0  3  0  0  0  0  0  0
  -25.9010  -32.4840   23.8390 C   0  0  0  0  0  3  0  0  0  0  0  0
  -25.5940  -33.8620   24.2400 N   0  0  0  0  0  0  0  0  0  0  0  0
  -25.9010  -34.9480   23.5170 C   0  0  0  0  0  0  0  0  0  0  0  0
  -26.5500  -34.8960   22.4690 O   0  0  0  0  0  0  0  0  0  0  0  0
  -25.0370  -33.9800   25.0720 H   0  0  0  0  0  0  0  0  0  0  0  0
  -24.1480  -36.7300   23.2640 C   0  0  0  0  0  1  0  0  0  0  0  0
  -25.4060  -36.3100   24.0390 C   0  0  0  0  0  3  0  0  0  0  0  0
  -27.5530  -37.1820   24.8490 C   0  0  0  0  0  1  0  0  0  0  0  0
  -26.4220  -37.3800   23.9470 N   0  0  0  0  0  0  0  0  0  0  0  0
  -26.0110  -38.2870   24.1460 H   0  0  0  0  0  0  0  0  0  0  0  0
  -26.4480  -31.6520   25.0620 C   0  0  1  0  0  0  0  0  0  0  0  0
  -25.3800  -31.3490   26.1410 C   0  0  0  0  0  1  0  0  0  0  0  0
  -27.0250  -30.3070   24.5630 C   0  0  0  0  0  1  0  0  0  0  0  0
  -27.6130  -32.4120   25.7410 C   0  0  0  0  0  1  0  0  0  0  0  0
  -32.7820  -22.8390   22.5900 C   0  0  0  0  0  2  0  0  0  0  0  0
  -33.3960  -21.4470   22.7920 C   0  0  0  0  0  2  0  0  0  0  0  0
  -32.5820  -20.6130   23.7960 C   0  0  0  0  0  2  0  0  0  0  0  0
  -33.0780  -19.2280   23.9010 N   0  0  0  0  0  4  0  0  0  0  0  0
  -34.0530  -19.2410   24.1540 H   0  0  0  0  0  0  0  0  0  0  0  0
  -33.0030  -18.8000   22.9930 H   0  0  0  0  0  0  0  0  0  0  0  0
  -32.3500  -18.3980   24.8840 C   0  0  0  0  0  2  0  0  0  0  0  0
  -32.4930  -16.9020   24.5630 C   0  0  0  0  0  2  0  0  0  0  0  0
  -31.5410  -16.4330   23.4460 C   0  0  0  0  0  2  0  0  0  0  0  0
  -31.8560  -15.0030   22.9840 C   0  0  0  0  0  2  0  0  0  0  0  0
  -30.8630  -14.2200   20.8160 C   0  0  0  0  0  0  0  0  0  0  0  0
  -30.4160  -12.2960   19.3480 C   0  0  0  0  0  2  0  0  0  0  0  0
  -29.4680  -12.5450   18.1670 C   0  0  0  0  0  2  0  0  0  0  0  0
  -28.0050  -12.3700   18.6040 C   0  0  0  0  0  2  0  0  0  0  0  0
  -27.6690  -13.1990   19.8710 C   0  0  0  0  0  3  0  0  0  0  0  0
  -28.7090  -12.9450   20.9850 C   0  0  0  0  0  2  0  0  0  0  0  0
  -30.0590  -13.1970   20.4500 N   0  0  0  0  0  0  0  0  0  0  0  0
  -31.7530  -14.6940   20.1010 O   0  0  0  0  0  0  0  0  0  0  0  0
  -30.8050  -14.4500   22.1340 N   0  0  0  0  0  0  0  0  0  0  0  0
  -30.0730  -13.9470   22.6150 H   0  0  0  0  0  0  0  0  0  0  0  0
  -25.2650  -13.8160   20.5660 C   0  0  0  0  0  0  0  0  0  0  0  0
  -24.1880  -13.0440   20.9150 C   0  0  0  0  0  0  0  0  0  0  0  0
  -24.6420  -11.6910   20.8730 C   0  0  0  0  0  0  0  0  0  0  0  0
  -26.3080  -12.9310   20.3340 N   0  0  0  0  0  0  0  0  0  0  0  0
  -25.9330  -11.6470   20.5740 N   0  0  0  0  0  0  0  0  0  0  0  0
  -23.9090  -10.4300   21.0410 C   0  0  0  0  0  0  0  0  0  0  0  0
  -24.3630   -9.4210   21.9190 C   0  0  0  0  0  3  0  0  0  0  0  0
  -23.6290   -8.2260   22.0770 C   0  0  0  0  0  3  0  0  0  0  0  0
  -22.4270   -8.0290   21.3550 C   0  0  0  0  0  0  0  0  0  0  0  0
  -21.9920   -9.0270   20.4650 C   0  0  0  0  0  3  0  0  0  0  0  0
  -22.7270  -10.2140   20.3040 C   0  0  0  0  0  3  0  0  0  0  0  0
  -21.6620   -6.8900   21.4240 O   0  0  0  0  0  0  0  0  0  0  0  0
  -21.6840   -6.0750   22.5280 C   0  0  0  0  0  0  0  0  0  0  0  0
  -21.4010   -6.5650   23.8220 C   0  0  0  0  0  3  0  0  0  0  0  0
  -21.3650   -5.6800   24.9180 C   0  0  0  0  0  3  0  0  0  0  0  0
  -21.6040   -4.3060   24.7240 C   0  0  0  0  0  0  0  0  0  0  0  0
  -21.8810   -3.8160   23.4350 C   0  0  0  0  0  3  0  0  0  0  0  0
  -21.9190   -4.6980   22.3410 C   0  0  0  0  0  0  0  0  0  0  0  0
  -22.1660   -4.2170   21.0980 F   0  0  0  0  0  0  0  0  0  0  0  0
  -21.5630   -3.4540   25.7740 F   0  0  0  0  0  0  0  0  0  0  0  0
  -22.7910  -13.5250   21.1800 C   0  0  0  0  0  0  0  0  0  0  0  0
  -22.0520  -12.8250   22.0340 N   0  0  0  0  0  0  0  0  0  0  0  0
  -22.3600  -14.5560   20.6660 O   0  0  0  0  0  0  0  0  0  0  0  0
  -22.4090  -11.9870   22.4700 H   0  0  0  0  0  0  0  0  0  0  0  0
  -21.1130  -13.1290   22.2510 H   0  0  0  0  0  0  0  0  0  0  0  0
  -25.4390  -15.1880   20.4080 N   0  0  0  0  0  0  0  0  0  0  0  0
  -24.6790  -15.8490   20.5260 H   0  0  0  0  0  0  0  0  0  0  0  0
  -26.3030  -15.6250   20.1100 H   0  0  0  0  0  0  0  0  0  0  0  0
  1 51  1  0
  2  1  1  0
  3  2  1  0
  4  3  1  0
  4  6  1  0
  5  4  1  0
  7  4  1  0
  7  8  1  0
  8  9  1  0
 10 12  1  0
 10  9  1  0
 11 22  2  0
 12 17  1  0
 13 21  1  0
 13 23  1  0
 14 20  1  0
 14 16  1  0
 15 21  1  0
 16 17  2  0
 16 15  1  0
 18 19  1  0
 18 12  2  0
 19 14  2  0
 20 13  1  0
 21 11  1  0
 23 25  2  0
 24 23  1  0
 26 24  1  0
 27 36  2  0
 27 32  1  0
 28 24  1  0
 28 32  1  0
 29 28  1  0
 30 31  1  0
 30 29  1  0
 31 27  1  0
 32 33  2  0
 33 34  1  0
 35 34  2  0
 36 35  1  0
 37 11  1  0
 37 38  1  0
 37 47  1  0
 38 41  1  0
 39 43  1  0
 39 38  1  0
 40 39  2  0
 43 42  1  0
 45 43  1  0
 45 46  1  0
 45 44  1  0
 47 50  1  1
 47 48  1  0
 49 47  1  0
 51 52  1  0
 52 53  1  0
 53 54  1  0
 54 55  1  0
 54 57  1  0
 56 54  1  0
 58 57  1  0
 59 58  1  0
 60 59  1  0
 61 69  1  0
 62 67  1  0
 63 64  1  0
 63 62  1  0
 65 64  1  0
 65 74  1  0
 65 66  1  0
 67 61  1  0
 67 66  1  0
 68 61  2  0
 69 70  1  0
 69 60  1  0
 71 72  2  0
 72 91  1  0
 73 72  1  0
 73 76  1  0
 74 71  1  0
 74 75  1  0
 75 73  2  0
 76 77  1  0
 77 78  2  0
 79 82  1  0
 79 78  1  0
 80 79  2  0
 81 80  1  0
 81 76  2  0
 82 83  1  0
 83 84  1  0
 84 85  2  0
 86 85  1  0
 86 90  1  0
 87 86  2  0
 88 83  2  0
 88 87  1  0
 89 88  1  0
 91 92  1  0
 92 95  1  0
 92 94  1  0
 93 91  2  0
 96 97  1  0
 96 71  1  0
 98 96  1  0
M  ISO  4   9 101  10 101  61 100  69 100
M  END
>  <TORSDO>  (19) 
F 30

>  <SCORE>  (19) 
10.067

>  <name>  (19) 
18

>  <ligand_id>  (19) 
18

>  <original_smiles>  (19) 
[H]c1c([H])c([H])c2c(c1[H])C([H])([H])C([H])([H])C([H])([H])C2([H])N([H])C(=O)C1([H])N(C(=O)C([H])(N([H])C(=O)C([H])(N([H])C([H])([H])[H])C([H])([H])[H])C(C([H])([H])[H])(C([H])([H])[H])C([H])([H])[H])C([H])([H])c2c([H])c(OC([H])([H])C([H])([H])C([H])([H])[N+]([H])([H])C([H])([H])C([H])([H])C([H])([H])C([H])([H])C([H])([H])C([H])([H])[N+]([H])([H])C([H])([H])C([H])([H])C([H])([H])C([H])([H])N([H])C(=O)N3C([H])([H])C([H])([H])C([H])([H])C([H])(n4nc(-c5c([H])c([H])c(Oc6c([H])c([H])c(F)c([H])c6F)c([H])c5[H])c(C(=O)N([H])[H])c4N([H])[H])C3([H])[H])c([H])c([H])c2C1([H])[H]

>  <smiles>  (19) 
[H]c1c([H])c([H])c2c(c1[H])C([H])([H])C([H])([H])C([H])([H])C2([H])N([H])C(=O)C1([H])N(C(=O)C([H])(N([H])C(=O)C([H])(N([H])C([H])([H])[H])C([H])([H])[H])C(C([H])([H])[H])(C([H])([H])[H])C([H])([H])[H])C([H])([H])c2c([H])c(OC([H])([H])C([H])([H])C([H])([H])[N+]([H])([H])C([H])([H])C([H])([H])C([H])([H])C([H])([H])C([H])([H])C([H])([H])[N+]([H])([H])C([H])([H])C([H])([H])C([H])([H])C([H])([H])N([H])C(=O)N3C([H])([H])C([H])([H])C([H])([H])C([H])(n4nc(-c5c([H])c([H])c(Oc6c([H])c([H])c(F)c([H])c6F)c([H])c5[H])c(C(=O)N([H])[H])c4N([H])[H])C3([H])[H])c([H])c([H])c2C1([H])[H]

$$$$
19:0:0
     RDKit          3D

 92 99  0  0  1  0  0  0  0  0999 V2000
  -32.7690  -21.6160   19.3430 C   0  0  0  0  0  2  0  0  0  0  0  0
  -31.5940  -22.4240   19.4180 O   0  0  0  0  0  0  0  0  0  0  0  0
  -31.3790  -23.1850   18.2400 C   0  0  0  0  0  2  0  0  0  0  0  0
  -29.9880  -23.8230   18.3060 C   0  0  0  0  0  2  0  0  0  0  0  0
  -29.9060  -25.0520   19.2240 C   0  0  0  0  0  2  0  0  0  0  0  0
  -28.4560  -25.5220   19.3940 C   0  0  0  0  0  2  0  0  0  0  0  0
  -28.4090  -26.7550   20.1100 O   0  0  0  0  0  0  0  0  0  0  0  0
  -24.5890  -31.8670   23.2640 C   0  0  0  0  0  0  0  0  0  0  0  0
  -27.2100  -27.4380   20.1420 C   0  0  0  0  0  0  0  0  0  0  0  0
  -23.3710  -30.4760   21.6220 C   0  0  0  0  0  3  0  0  0  0  0  0
  -24.8140  -28.9460   20.1860 C   0  0  0  0  0  0  0  0  0  0  0  0
  -25.8980  -30.8310   21.4150 C   0  0  0  0  0  2  0  0  0  0  0  0
  -25.9770  -29.4650   20.7660 C   0  0  0  0  0  0  0  0  0  0  0  0
  -27.1750  -28.7160   20.7450 C   0  0  0  0  0  3  0  0  0  0  0  0
  -26.0120  -26.9180   19.5920 C   0  0  0  0  0  3  0  0  0  0  0  0
  -24.8260  -27.6710   19.5960 C   0  0  0  0  0  3  0  0  0  0  0  0
  -23.5740  -29.8080   20.2370 C   0  0  0  0  0  2  0  0  0  0  0  0
  -24.6370  -31.0710   22.1600 N   0  0  0  0  0  0  0  0  0  0  0  0
  -23.5090  -32.1410   23.8060 O   0  0  0  0  0  0  0  0  0  0  0  0
  -22.7220  -29.4470   22.5780 C   0  0  0  0  0  0  0  0  0  0  0  0
  -21.3970  -29.2640   22.4510 N   0  0  0  0  0  0  0  0  0  0  0  0
  -23.4070  -28.8200   23.3900 O   0  0  0  0  0  0  0  0  0  0  0  0
  -20.9050  -29.8230   21.7690 H   0  0  0  0  0  0  0  0  0  0  0  0
  -18.0240  -28.0680   22.9400 C   0  0  0  0  0  0  0  0  0  0  0  0
  -20.5800  -28.3270   23.2220 C   0  0  0  0  0  3  0  0  0  0  0  0
  -20.6870  -26.8950   22.6490 C   0  0  0  0  0  2  0  0  0  0  0  0
  -19.5890  -26.5700   21.6320 C   0  0  0  0  0  2  0  0  0  0  0  0
  -18.2030  -26.7180   22.2690 C   0  0  0  0  0  2  0  0  0  0  0  0
  -19.1410  -28.8310   23.3740 C   0  0  0  0  0  0  0  0  0  0  0  0
  -18.9200  -30.0970   23.9570 C   0  0  0  0  0  3  0  0  0  0  0  0
  -17.6140  -30.6000   24.1130 C   0  0  0  0  0  3  0  0  0  0  0  0
  -16.5120  -29.8320   23.6970 C   0  0  0  0  0  3  0  0  0  0  0  0
  -16.7180  -28.5690   23.1160 C   0  0  0  0  0  3  0  0  0  0  0  0
  -25.8800  -32.4920   23.8770 C   0  0  0  0  0  3  0  0  0  0  0  0
  -26.4020  -31.7170   25.1470 C   0  0  1  0  0  0  0  0  0  0  0  0
  -25.3170  -31.4790   26.2190 C   0  0  0  0  0  1  0  0  0  0  0  0
  -26.9760  -30.3370   24.7470 C   0  0  0  0  0  1  0  0  0  0  0  0
  -27.5570  -32.5070   25.8060 C   0  0  0  0  0  1  0  0  0  0  0  0
  -25.5770  -33.8920   24.2060 N   0  0  0  0  0  0  0  0  0  0  0  0
  -25.9120  -34.9410   23.4430 C   0  0  0  0  0  0  0  0  0  0  0  0
  -26.5800  -34.8330   22.4100 O   0  0  0  0  0  0  0  0  0  0  0  0
  -24.9860  -34.0510   25.0080 H   0  0  0  0  0  0  0  0  0  0  0  0
  -24.1900  -36.7370   23.0880 C   0  0  0  0  0  1  0  0  0  0  0  0
  -25.4290  -36.3300   23.8990 C   0  0  0  0  0  3  0  0  0  0  0  0
  -27.5660  -37.2060   24.7300 C   0  0  0  0  0  1  0  0  0  0  0  0
  -26.4640  -37.3800   23.7880 N   0  0  0  0  0  0  0  0  0  0  0  0
  -26.0600  -38.3000   23.9420 H   0  0  0  0  0  0  0  0  0  0  0  0
  -32.6110  -20.4800   20.3590 C   0  0  0  0  0  2  0  0  0  0  0  0
  -31.3010  -19.8110   20.1970 N   0  0  0  0  0  4  0  0  0  0  0  0
  -30.5960  -20.4750   20.4870 H   0  0  0  0  0  0  0  0  0  0  0  0
  -31.1440  -19.6240   19.2180 H   0  0  0  0  0  0  0  0  0  0  0  0
  -31.1530  -18.5530   20.9620 C   0  0  0  0  0  2  0  0  0  0  0  0
  -29.7150  -17.9960   20.9110 C   0  0  0  0  0  2  0  0  0  0  0  0
  -29.5790  -16.6670   20.1400 C   0  0  0  0  0  2  0  0  0  0  0  0
  -30.6290  -14.4710   20.4740 C   0  0  0  0  0  0  0  0  0  0  0  0
  -30.3660  -12.3270   19.3070 C   0  0  0  0  0  2  0  0  0  0  0  0
  -29.4110  -12.5610   18.1110 C   0  0  0  0  0  2  0  0  0  0  0  0
  -27.9380  -12.4250   18.5460 C   0  0  0  0  0  2  0  0  0  0  0  0
  -27.6110  -13.2360   19.8270 C   0  0  0  0  0  3  0  0  0  0  0  0
  -28.6660  -12.9670   20.9270 C   0  0  0  0  0  2  0  0  0  0  0  0
  -29.9950  -13.2710   20.3710 N   0  0  0  0  0  0  0  0  0  0  0  0
  -31.7320  -14.7080   19.9740 O   0  0  0  0  0  0  0  0  0  0  0  0
  -29.8450  -15.4600   20.9280 N   0  0  0  0  0  0  0  0  0  0  0  0
  -29.0550  -15.1310   21.4640 H   0  0  0  0  0  0  0  0  0  0  0  0
  -25.1990  -13.8490   20.4980 C   0  0  0  0  0  0  0  0  0  0  0  0
  -24.1310  -13.0730   20.8660 C   0  0  0  0  0  0  0  0  0  0  0  0
  -24.5980  -11.7250   20.8520 C   0  0  0  0  0  0  0  0  0  0  0  0
  -26.2510  -12.9690   20.2920 N   0  0  0  0  0  0  0  0  0  0  0  0
  -25.8900  -11.6880   20.5570 N   0  0  0  0  0  0  0  0  0  0  0  0
  -23.8750  -10.4620   21.0490 C   0  0  0  0  0  0  0  0  0  0  0  0
  -24.3170   -9.4940   21.9780 C   0  0  0  0  0  3  0  0  0  0  0  0
  -23.5970   -8.2940   22.1590 C   0  0  0  0  0  3  0  0  0  0  0  0
  -22.4190   -8.0540   21.4100 C   0  0  0  0  0  0  0  0  0  0  0  0
  -21.9990   -9.0090   20.4700 C   0  0  0  0  0  3  0  0  0  0  0  0
  -22.7210  -10.2010   20.2870 C   0  0  0  0  0  3  0  0  0  0  0  0
  -21.6690   -6.9070   21.5050 O   0  0  0  0  0  0  0  0  0  0  0  0
  -21.6440   -6.1520   22.6500 C   0  0  0  0  0  0  0  0  0  0  0  0
  -21.2500   -6.6980   23.8920 C   0  0  0  0  0  3  0  0  0  0  0  0
  -21.1680   -5.8710   25.0290 C   0  0  0  0  0  3  0  0  0  0  0  0
  -21.4770   -4.5010   24.9300 C   0  0  0  0  0  0  0  0  0  0  0  0
  -21.8670   -3.9540   23.6940 C   0  0  0  0  0  3  0  0  0  0  0  0
  -21.9450   -4.7770   22.5550 C   0  0  0  0  0  0  0  0  0  0  0  0
  -22.3020   -4.2400   21.3620 F   0  0  0  0  0  0  0  0  0  0  0  0
  -21.3940   -3.7060   26.0210 F   0  0  0  0  0  0  0  0  0  0  0  0
  -22.7300  -13.5460   21.1290 C   0  0  0  0  0  0  0  0  0  0  0  0
  -22.0030  -12.8480   21.9960 N   0  0  0  0  0  0  0  0  0  0  0  0
  -22.2880  -14.5650   20.6010 O   0  0  0  0  0  0  0  0  0  0  0  0
  -22.3770  -12.0210   22.4370 H   0  0  0  0  0  0  0  0  0  0  0  0
  -21.0630  -13.1390   22.2230 H   0  0  0  0  0  0  0  0  0  0  0  0
  -25.3630  -15.2170   20.3080 N   0  0  0  0  0  0  0  0  0  0  0  0
  -24.6010  -15.8800   20.4050 H   0  0  0  0  0  0  0  0  0  0  0  0
  -26.2240  -15.6520   19.9980 H   0  0  0  0  0  0  0  0  0  0  0  0
  1  2  1  0
  1 48  1  0
  3  4  1  0
  3  2  1  0
  4  5  1  0
  5  6  1  0
  6  7  1  0
  7  9  1  0
  8 19  2  0
  9 14  1  0
 10 18  1  0
 10 20  1  0
 11 17  1  0
 11 13  1  0
 12 18  1  0
 13 12  1  0
 14 13  2  0
 15 16  1  0
 15  9  2  0
 16 11  2  0
 17 10  1  0
 18  8  1  0
 20 22  2  0
 21 20  1  0
 23 21  1  0
 24 33  2  0
 24 29  1  0
 25 21  1  0
 25 29  1  0
 26 25  1  0
 27 28  1  0
 27 26  1  0
 28 24  1  0
 29 30  2  0
 30 31  1  0
 32 31  2  0
 33 32  1  0
 34  8  1  0
 34 39  1  0
 34 35  1  0
 35 38  1  1
 35 36  1  0
 37 35  1  0
 39 42  1  0
 40 44  1  0
 40 39  1  0
 41 40  2  0
 44 43  1  0
 46 44  1  0
 46 47  1  0
 46 45  1  0
 49 48  1  0
 49 50  1  0
 49 52  1  0
 51 49  1  0
 53 52  1  0
 54 53  1  0
 54 63  1  0
 55 63  1  0
 56 61  1  0
 57 58  1  0
 57 56  1  0
 59 58  1  0
 59 68  1  0
 59 60  1  0
 61 55  1  0
 61 60  1  0
 62 55  2  0
 63 64  1  0
 65 66  2  0
 66 85  1  0
 67 66  1  0
 67 70  1  0
 68 65  1  0
 68 69  1  0
 69 67  2  0
 70 71  1  0
 71 72  2  0
 73 76  1  0
 73 72  1  0
 74 73  2  0
 75 74  1  0
 75 70  2  0
 76 77  1  0
 77 78  1  0
 78 79  2  0
 80 79  1  0
 80 84  1  0
 81 80  2  0
 82 77  2  0
 82 81  1  0
 83 82  1  0
 85 86  1  0
 86 89  1  0
 86 88  1  0
 87 85  2  0
 90 91  1  0
 90 65  1  0
 92 90  1  0
M  ISO  4   6 101   7 101  55 100  63 100
M  END
>  <TORSDO>  (20) 
F 26

>  <SCORE>  (20) 
-11.697

>  <name>  (20) 
19

>  <ligand_id>  (20) 
19

>  <original_smiles>  (20) 
[H]c1c([H])c([H])c2c(c1[H])C([H])([H])C([H])([H])C([H])([H])C2([H])N([H])C(=O)C1([H])N(C(=O)C([H])(N([H])C(=O)C([H])(N([H])C([H])([H])[H])C([H])([H])[H])C(C([H])([H])[H])(C([H])([H])[H])C([H])([H])[H])C([H])([H])c2c([H])c(OC([H])([H])C([H])([H])C([H])([H])C([H])([H])OC([H])([H])C([H])([H])[N+]([H])([H])C([H])([H])C([H])([H])C([H])([H])N([H])C(=O)N3C([H])([H])C([H])([H])C([H])([H])C([H])(n4nc(-c5c([H])c([H])c(Oc6c([H])c([H])c(F)c([H])c6F)c([H])c5[H])c(C(=O)N([H])[H])c4N([H])[H])C3([H])[H])c([H])c([H])c2C1([H])[H]

>  <smiles>  (20) 
[H]c1c([H])c([H])c2c(c1[H])C([H])([H])C([H])([H])C([H])([H])C2([H])N([H])C(=O)C1([H])N(C(=O)C([H])(N([H])C(=O)C([H])(N([H])C([H])([H])[H])C([H])([H])[H])C(C([H])([H])[H])(C([H])([H])[H])C([H])([H])[H])C([H])([H])c2c([H])c(OC([H])([H])C([H])([H])C([H])([H])C([H])([H])OC([H])([H])C([H])([H])[N+]([H])([H])C([H])([H])C([H])([H])C([H])([H])N([H])C(=O)N3C([H])([H])C([H])([H])C([H])([H])C([H])(n4nc(-c5c([H])c([H])c(Oc6c([H])c([H])c(F)c([H])c6F)c([H])c5[H])c(C(=O)N([H])[H])c4N([H])[H])C3([H])[H])c([H])c([H])c2C1([H])[H]

$$$$
20:0:0
     RDKit          3D

 94101  0  0  1  0  0  0  0  0999 V2000
  -26.3320  -23.7500   18.7940 C   0  0  0  0  0  0  0  0  0  0  0  0
  -26.0350  -24.3660   19.9550 N   0  0  0  0  0  0  0  0  0  0  0  0
  -25.7900  -22.6880   18.5020 O   0  0  0  0  0  0  0  0  0  0  0  0
  -25.3320  -23.8790   20.4940 H   0  0  0  0  0  0  0  0  0  0  0  0
  -27.3070  -24.3830   17.7980 C   0  0  0  0  0  2  0  0  0  0  0  0
  -26.5380  -24.8850   16.7100 O   0  0  0  0  0  0  0  0  0  0  0  0
  -26.2480  -26.2580   16.8390 C   0  0  0  0  0  2  0  0  0  0  0  0
  -24.7490  -26.4880   16.6560 C   0  0  0  0  0  2  0  0  0  0  0  0
  -24.1620  -27.2400   17.8530 C   0  0  0  0  0  2  0  0  0  0  0  0
  -22.6450  -27.1060   17.9130 C   0  0  0  0  0  2  0  0  0  0  0  0
  -21.9810  -27.8100   19.1150 C   0  0  0  0  0  2  0  0  0  0  0  0
  -19.6300  -27.1440   19.6690 C   0  0  0  0  0  0  0  0  0  0  0  0
  -17.4160  -26.0240   19.5090 C   0  0  0  0  0  2  0  0  0  0  0  0
  -17.5820  -24.4990   19.3490 C   0  0  0  0  0  2  0  0  0  0  0  0
  -17.7440  -24.1600   17.8530 C   0  0  0  0  0  2  0  0  0  0  0  0
  -18.8570  -25.0060   17.1710 C   0  0  0  0  0  3  0  0  0  0  0  0
  -18.6250  -26.4990   17.4640 C   0  0  0  0  0  2  0  0  0  0  0  0
  -18.5910  -26.6860   18.9310 N   0  0  0  0  0  0  0  0  0  0  0  0
  -19.7240  -27.0500   20.8990 O   0  0  0  0  0  0  0  0  0  0  0  0
  -20.5480  -27.7290   18.8960 N   0  0  0  0  0  0  0  0  0  0  0  0
  -20.2540  -27.7670   17.9290 H   0  0  0  0  0  0  0  0  0  0  0  0
  -19.9350  -24.2290   14.9680 C   0  0  0  0  0  0  0  0  0  0  0  0
  -19.4470  -24.1750   13.6880 C   0  0  0  0  0  0  0  0  0  0  0  0
  -18.1230  -24.6970   13.7490 C   0  0  0  0  0  0  0  0  0  0  0  0
  -18.9150  -24.7690   15.7320 N   0  0  0  0  0  0  0  0  0  0  0  0
  -17.8360  -25.1000   14.9780 N   0  0  0  0  0  0  0  0  0  0  0  0
  -17.0850  -24.7890   12.7120 C   0  0  0  0  0  0  0  0  0  0  0  0
  -16.9350  -25.9430   11.9130 C   0  0  0  0  0  3  0  0  0  0  0  0
  -15.9350  -25.9940   10.9160 C   0  0  0  0  0  3  0  0  0  0  0  0
  -15.0860  -24.8820   10.7040 C   0  0  0  0  0  0  0  0  0  0  0  0
  -15.2290  -23.7460   11.5190 C   0  0  0  0  0  3  0  0  0  0  0  0
  -16.2190  -23.7000   12.5120 C   0  0  0  0  0  3  0  0  0  0  0  0
  -14.0750  -24.8510    9.7740 O   0  0  0  0  0  0  0  0  0  0  0  0
  -14.0520  -25.7200    8.7120 C   0  0  0  0  0  0  0  0  0  0  0  0
  -14.9080  -25.5650    7.5990 C   0  0  0  0  0  3  0  0  0  0  0  0
  -14.7990  -26.4430    6.5010 C   0  0  0  0  0  3  0  0  0  0  0  0
  -13.8320  -27.4650    6.5100 C   0  0  0  0  0  0  0  0  0  0  0  0
  -12.9740  -27.6140    7.6130 C   0  0  0  0  0  3  0  0  0  0  0  0
  -13.0830  -26.7440    8.7100 C   0  0  0  0  0  0  0  0  0  0  0  0
  -12.2430  -26.8800    9.7660 F   0  0  0  0  0  0  0  0  0  0  0  0
  -13.7180  -28.3000    5.4520 F   0  0  0  0  0  0  0  0  0  0  0  0
  -20.1430  -23.5760   12.5030 C   0  0  0  0  0  0  0  0  0  0  0  0
  -20.1450  -24.2880   11.3780 N   0  0  0  0  0  0  0  0  0  0  0  0
  -20.7290  -22.4980   12.5750 O   0  0  0  0  0  0  0  0  0  0  0  0
  -19.6950  -25.1910   11.3300 H   0  0  0  0  0  0  0  0  0  0  0  0
  -20.6020  -23.9270   10.5550 H   0  0  0  0  0  0  0  0  0  0  0  0
  -21.1460  -23.8460   15.5290 N   0  0  0  0  0  0  0  0  0  0  0  0
  -21.8530  -23.4020   14.9480 H   0  0  0  0  0  0  0  0  0  0  0  0
  -21.4030  -23.9310   16.5050 H   0  0  0  0  0  0  0  0  0  0  0  0
  -26.5390  -25.6250   20.5280 C   0  0  0  0  0  2  0  0  0  0  0  0
  -27.0120  -25.4540   22.0010 C   0  0  0  0  0  2  0  0  0  0  0  0
  -28.4880  -25.0060   22.2320 C   0  0  0  0  0  2  0  0  0  0  0  0
  -28.7690  -23.5800   21.7490 C   0  0  0  0  0  2  0  0  0  0  0  0
  -30.0490  -23.0710   22.1110 O   0  0  0  0  0  0  0  0  0  0  0  0
  -35.5200  -18.9480   20.0960 C   0  0  0  0  0  0  0  0  0  0  0  0
  -30.4590  -21.9100   21.4790 C   0  0  0  0  0  0  0  0  0  0  0  0
  -33.2980  -18.2480   19.2840 C   0  0  0  0  0  3  0  0  0  0  0  0
  -31.3190  -19.4660   20.3190 C   0  0  0  0  0  0  0  0  0  0  0  0
  -33.5410  -19.5930   21.4540 C   0  0  0  0  0  2  0  0  0  0  0  0
  -32.1650  -20.1700   21.1850 C   0  0  0  0  0  0  0  0  0  0  0  0
  -31.7370  -21.3820   21.7740 C   0  0  0  0  0  3  0  0  0  0  0  0
  -29.6400  -21.2040   20.5630 C   0  0  0  0  0  3  0  0  0  0  0  0
  -30.0550  -19.9850   19.9990 C   0  0  0  0  0  3  0  0  0  0  0  0
  -31.8270  -18.1570   19.7620 C   0  0  0  0  0  2  0  0  0  0  0  0
  -34.1710  -18.9600   20.2690 N   0  0  0  0  0  0  0  0  0  0  0  0
  -36.0400  -18.3190   19.1620 O   0  0  0  0  0  0  0  0  0  0  0  0
  -33.3160  -18.8840   17.8750 C   0  0  0  0  0  0  0  0  0  0  0  0
  -33.0040  -18.0750   16.8500 N   0  0  0  0  0  0  0  0  0  0  0  0
  -33.5810  -20.0790   17.7260 O   0  0  0  0  0  0  0  0  0  0  0  0
  -32.8180  -17.1040   17.0500 H   0  0  0  0  0  0  0  0  0  0  0  0
  -32.2790  -16.7960   13.5650 C   0  0  0  0  0  0  0  0  0  0  0  0
  -32.9200  -18.4550   15.4400 C   0  0  0  0  0  3  0  0  0  0  0  0
  -31.5690  -19.1470   15.1350 C   0  0  0  0  0  2  0  0  0  0  0  0
  -30.4930  -18.1380   14.7260 C   0  0  0  0  0  2  0  0  0  0  0  0
  -30.9150  -17.4550   13.4210 C   0  0  0  0  0  2  0  0  0  0  0  0
  -33.2080  -17.2470   14.5360 C   0  0  0  0  0  0  0  0  0  0  0  0
  -34.4280  -16.5500   14.6900 C   0  0  0  0  0  3  0  0  0  0  0  0
  -34.7150  -15.4210   13.9020 C   0  0  0  0  0  3  0  0  0  0  0  0
  -33.8040  -15.0030   12.9170 C   0  0  0  0  0  3  0  0  0  0  0  0
  -32.5970  -15.6990   12.7350 C   0  0  0  0  0  3  0  0  0  0  0  0
  -36.4710  -19.7070   21.0700 C   0  0  0  0  0  3  0  0  0  0  0  0
  -36.9510  -21.1030   20.5070 C   0  0  1  0  0  0  0  0  0  0  0  0
  -38.0370  -20.9750   19.4120 C   0  0  0  0  0  1  0  0  0  0  0  0
  -35.7660  -21.8980   19.9080 C   0  0  0  0  0  1  0  0  0  0  0  0
  -37.5220  -21.9650   21.6580 C   0  0  0  0  0  1  0  0  0  0  0  0
  -37.6200  -18.8300   21.3310 N   0  0  0  0  0  0  0  0  0  0  0  0
  -37.7700  -18.0900   22.4380 C   0  0  0  0  0  0  0  0  0  0  0  0
  -36.9780  -18.1300   23.3840 O   0  0  0  0  0  0  0  0  0  0  0  0
  -38.2790  -18.7000   20.5750 H   0  0  0  0  0  0  0  0  0  0  0  0
  -38.5510  -15.7140   22.2010 C   0  0  0  0  0  1  0  0  0  0  0  0
  -38.9890  -17.1550   22.5030 C   0  0  0  0  0  3  0  0  0  0  0  0
  -40.4720  -18.4260   23.9930 C   0  0  0  0  0  1  0  0  0  0  0  0
  -39.6960  -17.2020   23.8010 N   0  0  0  0  0  0  0  0  0  0  0  0
  -40.3250  -16.4100   23.8970 H   0  0  0  0  0  0  0  0  0  0  0  0
  1  2  1  0
  2  4  1  0
  2 50  1  0
  3  1  2  0
  5  1  1  0
  6  7  1  0
  6  5  1  0
  8  7  1  0
  8  9  1  0
  9 10  1  0
 10 11  1  0
 12 19  2  0
 14 13  1  0
 15 14  1  0
 16 25  1  0
 16 17  1  0
 16 15  1  0
 17 18  1  0
 18 13  1  0
 18 12  1  0
 20 11  1  0
 20 12  1  0
 21 20  1  0
 22 47  1  0
 22 25  1  0
 23 24  1  0
 23 22  2  0
 24 26  2  0
 26 25  1  0
 27 24  1  0
 28 27  2  0
 29 28  1  0
 30 29  2  0
 30 31  1  0
 31 32  2  0
 32 27  1  0
 33 30  1  0
 34 33  1  0
 35 34  2  0
 36 37  2  0
 36 35  1  0
 37 38  1  0
 38 39  2  0
 39 34  1  0
 39 40  1  0
 41 37  1  0
 42 44  2  0
 42 23  1  0
 43 42  1  0
 45 43  1  0
 46 43  1  0
 47 49  1  0
 48 47  1  0
 50 51  1  0
 51 52  1  0
 53 54  1  0
 53 52  1  0
 55 65  1  0
 56 61  1  0
 56 54  1  0
 57 67  1  0
 57 64  1  0
 57 65  1  0
 58 60  1  0
 60 59  1  0
 60 61  2  0
 62 56  2  0
 63 58  2  0
 63 62  1  0
 64 58  1  0
 65 59  1  0
 66 55  2  0
 68 70  1  0
 68 67  1  0
 69 67  2  0
 71 76  1  0
 72 68  1  0
 73 72  1  0
 74 73  1  0
 75 71  1  0
 75 74  1  0
 76 77  2  0
 76 72  1  0
 78 77  1  0
 79 78  2  0
 80 79  1  0
 80 71  2  0
 81 55  1  0
 81 86  1  0
 82 81  1  0
 82 85  1  1
 83 82  1  0
 84 82  1  0
 86 87  1  0
 87 91  1  0
 87 88  2  0
 89 86  1  0
 91 90  1  0
 91 93  1  0
 93 94  1  0
 93 92  1  0
M  ISO  4  12 100  20 100  53 101  54 101
M  END
>  <TORSDO>  (21) 
F 27

>  <SCORE>  (21) 
-5.838

>  <name>  (21) 
20

>  <ligand_id>  (21) 
20

>  <original_smiles>  (21) 
[H]c1c([H])c([H])c2c(c1[H])C([H])([H])C([H])([H])C([H])([H])C2([H])N([H])C(=O)C1([H])N(C(=O)C([H])(N([H])C(=O)C([H])(N([H])C([H])([H])[H])C([H])([H])[H])C(C([H])([H])[H])(C([H])([H])[H])C([H])([H])[H])C([H])([H])c2c([H])c(OC([H])([H])C([H])([H])C([H])([H])C([H])([H])N([H])C(=O)C([H])([H])OC([H])([H])C([H])([H])C([H])([H])C([H])([H])C([H])([H])N([H])C(=O)N3C([H])([H])C([H])([H])C([H])([H])C([H])(n4nc(-c5c([H])c([H])c(Oc6c([H])c([H])c(F)c([H])c6F)c([H])c5[H])c(C(=O)N([H])[H])c4N([H])[H])C3([H])[H])c([H])c([H])c2C1([H])[H]

>  <smiles>  (21) 
[H]c1c([H])c([H])c2c(c1[H])C([H])([H])C([H])([H])C([H])([H])C2([H])N([H])C(=O)C1([H])N(C(=O)C([H])(N([H])C(=O)C([H])(N([H])C([H])([H])[H])C([H])([H])[H])C(C([H])([H])[H])(C([H])([H])[H])C([H])([H])[H])C([H])([H])c2c([H])c(OC([H])([H])C([H])([H])C([H])([H])C([H])([H])N([H])C(=O)C([H])([H])OC([H])([H])C([H])([H])C([H])([H])C([H])([H])C([H])([H])N([H])C(=O)N3C([H])([H])C([H])([H])C([H])([H])C([H])(n4nc(-c5c([H])c([H])c(Oc6c([H])c([H])c(F)c([H])c6F)c([H])c5[H])c(C(=O)N([H])[H])c4N([H])[H])C3([H])[H])c([H])c([H])c2C1([H])[H]

$$$$
21:0:0
     RDKit          3D

 95102  0  0  1  0  0  0  0  0999 V2000
  -28.1990  -22.9180   22.8950 C   0  0  0  0  0  2  0  0  0  0  0  0
  -29.0680  -24.0940   22.8700 N   0  0  0  0  0  0  0  0  0  0  0  0
  -29.9820  -23.7980   23.2080 H   0  0  0  0  0  0  0  0  0  0  0  0
  -29.2190  -24.6030   21.5110 C   0  0  0  0  0  2  0  0  0  0  0  0
  -30.2480  -25.7500   21.4500 C   0  0  0  0  0  2  0  0  0  0  0  0
  -31.3470  -25.4480   20.5030 N   0  0  0  0  0  4  0  0  0  0  0  0
  -32.0950  -26.0920   20.6960 H   0  0  0  0  0  0  0  0  0  0  0  0
  -31.0290  -25.6290   19.5630 H   0  0  0  0  0  0  0  0  0  0  0  0
  -31.8970  -24.0770   20.5920 C   0  0  0  0  0  2  0  0  0  0  0  0
  -33.1080  -23.9060   19.6520 C   0  0  0  0  0  2  0  0  0  0  0  0
  -34.1730  -21.9530   18.4980 C   0  0  0  0  0  0  0  0  0  0  0  0
  -34.4790  -19.9680   17.0720 C   0  0  0  0  0  2  0  0  0  0  0  0
  -33.3390  -19.9200   16.0330 C   0  0  0  0  0  2  0  0  0  0  0  0
  -32.1060  -19.1970   16.6120 C   0  0  0  0  0  2  0  0  0  0  0  0
  -31.7090  -19.7280   18.0140 C   0  0  0  0  0  3  0  0  0  0  0  0
  -32.9430  -19.8000   18.9410 C   0  0  0  0  0  2  0  0  0  0  0  0
  -33.9620  -20.6310   18.2710 N   0  0  0  0  0  0  0  0  0  0  0  0
  -35.0190  -22.6340   17.9060 O   0  0  0  0  0  0  0  0  0  0  0  0
  -33.2850  -22.4930   19.3360 N   0  0  0  0  0  0  0  0  0  0  0  0
  -32.6120  -21.8440   19.7160 H   0  0  0  0  0  0  0  0  0  0  0  0
  -29.3850  -19.3450   19.0460 C   0  0  0  0  0  0  0  0  0  0  0  0
  -28.7320  -18.1990   19.4250 C   0  0  0  0  0  0  0  0  0  0  0  0
  -29.6440  -17.1290   19.1850 C   0  0  0  0  0  0  0  0  0  0  0  0
  -30.6320  -18.9370   18.5980 N   0  0  0  0  0  0  0  0  0  0  0  0
  -30.8030  -17.5980   18.7400 N   0  0  0  0  0  0  0  0  0  0  0  0
  -29.4720  -15.6750   19.3030 C   0  0  0  0  0  0  0  0  0  0  0  0
  -30.1750  -14.9270   20.2730 C   0  0  0  0  0  3  0  0  0  0  0  0
  -29.9750  -13.5340   20.3870 C   0  0  0  0  0  3  0  0  0  0  0  0
  -29.0700  -12.8730   19.5200 C   0  0  0  0  0  0  0  0  0  0  0  0
  -28.3880  -13.6200   18.5440 C   0  0  0  0  0  3  0  0  0  0  0  0
  -28.5900  -15.0060   18.4310 C   0  0  0  0  0  3  0  0  0  0  0  0
  -28.8380  -11.5200   19.5340 O   0  0  0  0  0  0  0  0  0  0  0  0
  -28.6450  -10.8380   20.7070 C   0  0  0  0  0  0  0  0  0  0  0  0
  -27.5840  -11.1520   21.5860 C   0  0  0  0  0  3  0  0  0  0  0  0
  -27.3800  -10.3780   22.7460 C   0  0  0  0  0  3  0  0  0  0  0  0
  -28.2260   -9.2870   23.0210 C   0  0  0  0  0  0  0  0  0  0  0  0
  -29.2790   -8.9730   22.1460 C   0  0  0  0  0  3  0  0  0  0  0  0
  -29.4870   -9.7450   20.9900 C   0  0  0  0  0  0  0  0  0  0  0  0
  -30.4880   -9.4250   20.1350 F   0  0  0  0  0  0  0  0  0  0  0  0
  -28.0280   -8.5360   24.1320 F   0  0  0  0  0  0  0  0  0  0  0  0
  -27.3140  -18.0900   19.9000 C   0  0  0  0  0  0  0  0  0  0  0  0
  -27.0260  -17.1110   20.7540 N   0  0  0  0  0  0  0  0  0  0  0  0
  -26.4600  -18.9040   19.5610 O   0  0  0  0  0  0  0  0  0  0  0  0
  -27.7340  -16.4530   21.0450 H   0  0  0  0  0  0  0  0  0  0  0  0
  -26.0870  -17.0200   21.1190 H   0  0  0  0  0  0  0  0  0  0  0  0
  -29.0150  -20.6850   19.0310 N   0  0  0  0  0  0  0  0  0  0  0  0
  -28.1140  -20.9930   19.3850 H   0  0  0  0  0  0  0  0  0  0  0  0
  -29.6190  -21.4480   18.7430 H   0  0  0  0  0  0  0  0  0  0  0  0
  -26.8470  -23.0810   22.1580 C   0  0  0  0  0  2  0  0  0  0  0  0
  -26.7220  -22.3740   20.7860 C   0  0  0  0  0  2  0  0  0  0  0  0
  -27.7900  -22.7100   19.9010 O   0  0  0  0  0  0  0  0  0  0  0  0
  -27.4960  -23.7430   18.9580 C   0  0  0  0  0  2  0  0  0  0  0  0
  -27.9370  -25.1270   19.4660 C   0  0  0  0  0  2  0  0  0  0  0  0
  -28.0330  -26.1910   18.3530 C   0  0  0  0  0  2  0  0  0  0  0  0
  -27.9960  -27.4940   18.9260 O   0  0  0  0  0  0  0  0  0  0  0  0
  -24.4460  -31.7300   23.3690 C   0  0  0  0  0  0  0  0  0  0  0  0
  -26.7750  -28.0690   19.2110 C   0  0  0  0  0  0  0  0  0  0  0  0
  -23.0700  -30.5860   21.6630 C   0  0  0  0  0  3  0  0  0  0  0  0
  -24.3590  -29.3930   19.8240 C   0  0  0  0  0  0  0  0  0  0  0  0
  -25.5370  -31.1010   21.2230 C   0  0  0  0  0  2  0  0  0  0  0  0
  -25.5670  -29.8730   20.3420 C   0  0  0  0  0  0  0  0  0  0  0  0
  -26.7760  -29.2180   20.0280 C   0  0  0  0  0  3  0  0  0  0  0  0
  -25.5400  -27.5810   18.7210 C   0  0  0  0  0  3  0  0  0  0  0  0
  -24.3360  -28.2450   19.0170 C   0  0  0  0  0  3  0  0  0  0  0  0
  -23.1100  -30.1600   20.1720 C   0  0  0  0  0  2  0  0  0  0  0  0
  -24.3730  -31.1500   22.1410 N   0  0  0  0  0  0  0  0  0  0  0  0
  -23.4350  -31.8540   24.0770 O   0  0  0  0  0  0  0  0  0  0  0  0
  -22.5730  -29.3850   22.5030 C   0  0  0  0  0  0  0  0  0  0  0  0
  -21.3000  -29.0010   22.3050 N   0  0  0  0  0  0  0  0  0  0  0  0
  -23.3320  -28.8030   23.2820 O   0  0  0  0  0  0  0  0  0  0  0  0
  -20.7480  -29.5200   21.6380 H   0  0  0  0  0  0  0  0  0  0  0  0
  -18.2480  -27.0550   22.3640 C   0  0  0  0  0  0  0  0  0  0  0  0
  -20.6330  -27.8690   22.9530 C   0  0  0  0  0  3  0  0  0  0  0  0
  -21.1280  -26.5270   22.3700 C   0  0  0  0  0  2  0  0  0  0  0  0
  -20.2530  -26.0060   21.2240 C   0  0  0  0  0  2  0  0  0  0  0  0
  -18.8090  -25.8090   21.6940 C   0  0  0  0  0  2  0  0  0  0  0  0
  -19.1070  -28.0280   22.9410 C   0  0  0  0  0  0  0  0  0  0  0  0
  -18.5420  -29.1820   23.5250 C   0  0  0  0  0  3  0  0  0  0  0  0
  -17.1490  -29.3760   23.5300 C   0  0  0  0  0  3  0  0  0  0  0  0
  -16.3020  -28.4040   22.9690 C   0  0  0  0  0  3  0  0  0  0  0  0
  -16.8520  -27.2430   22.3970 C   0  0  0  0  0  3  0  0  0  0  0  0
  -25.7850  -32.3000   23.9280 C   0  0  0  0  0  3  0  0  0  0  0  0
  -26.3690  -31.4600   25.1300 C   0  0  1  0  0  0  0  0  0  0  0  0
  -25.3430  -31.1930   26.2560 C   0  0  0  0  0  1  0  0  0  0  0  0
  -26.9020  -30.0920   24.6400 C   0  0  0  0  0  1  0  0  0  0  0  0
  -27.5750  -32.2050   25.7490 C   0  0  0  0  0  1  0  0  0  0  0  0
  -25.5400  -33.6910   24.3330 N   0  0  0  0  0  0  0  0  0  0  0  0
  -25.8930  -34.7650   23.6130 C   0  0  0  0  0  0  0  0  0  0  0  0
  -26.5310  -34.6840   22.5600 O   0  0  0  0  0  0  0  0  0  0  0  0
  -24.9740  -33.8270   25.1570 H   0  0  0  0  0  0  0  0  0  0  0  0
  -24.2390  -36.6420   23.3710 C   0  0  0  0  0  1  0  0  0  0  0  0
  -25.4690  -36.1460   24.1470 C   0  0  0  0  0  3  0  0  0  0  0  0
  -27.6460  -36.9020   24.9950 C   0  0  0  0  0  1  0  0  0  0  0  0
  -26.5460  -37.1570   24.0710 N   0  0  0  0  0  0  0  0  0  0  0  0
  -26.1810  -38.0870   24.2590 H   0  0  0  0  0  0  0  0  0  0  0  0
  2  1  1  0
  2  3  1  0
  4  2  1  0
  5  4  1  0
  6  9  1  0
  6  7  1  0
  6  5  1  0
  8  6  1  0
 10  9  1  0
 11 19  1  0
 12 17  1  0
 13 14  1  0
 13 12  1  0
 15 14  1  0
 15 24  1  0
 15 16  1  0
 17 11  1  0
 17 16  1  0
 18 11  2  0
 19 10  1  0
 19 20  1  0
 21 22  2  0
 22 41  1  0
 23 26  1  0
 23 22  1  0
 24 25  1  0
 24 21  1  0
 25 23  2  0
 26 27  1  0
 27 28  2  0
 29 32  1  0
 29 28  1  0
 30 29  2  0
 31 30  1  0
 31 26  2  0
 32 33  1  0
 33 38  2  0
 33 34  1  0
 34 35  2  0
 35 36  1  0
 36 40  1  0
 37 36  2  0
 38 37  1  0
 39 38  1  0
 41 42  1  0
 42 44  1  0
 42 45  1  0
 43 41  2  0
 46 21  1  0
 46 47  1  0
 48 46  1  0
 49  1  1  0
 50 49  1  0
 51 50  1  0
 52 53  1  0
 52 51  1  0
 54 55  1  0
 54 53  1  0
 55 57  1  0
 56 67  2  0
 57 62  1  0
 58 66  1  0
 58 68  1  0
 59 65  1  0
 59 61  1  0
 60 66  1  0
 61 60  1  0
 62 61  2  0
 63 64  1  0
 63 57  2  0
 64 59  2  0
 65 58  1  0
 66 56  1  0
 68 70  2  0
 69 68  1  0
 71 69  1  0
 72 81  2  0
 72 77  1  0
 73 69  1  0
 74 73  1  0
 75 76  1  0
 75 74  1  0
 76 72  1  0
 77 73  1  0
 77 78  2  0
 78 79  1  0
 80 79  2  0
 81 80  1  0
 82 56  1  0
 82 87  1  0
 82 83  1  0
 83 86  1  1
 83 84  1  0
 85 83  1  0
 87 90  1  0
 88 92  1  0
 88 87  1  0
 89 88  2  0
 92 91  1  0
 94 92  1  0
 94 95  1  0
 94 93  1  0
M  ISO  4  11 100  19 100  54 101  55 101
M  END
>  <TORSDO>  (22) 
F 28

>  <SCORE>  (22) 
-4.378

>  <name>  (22) 
21

>  <ligand_id>  (22) 
21

>  <original_smiles>  (22) 
[H]c1c([H])c([H])c2c(c1[H])C([H])([H])C([H])([H])C([H])([H])C2([H])N([H])C(=O)C1([H])N(C(=O)C([H])(N([H])C(=O)C([H])(N([H])C([H])([H])[H])C([H])([H])[H])C(C([H])([H])[H])(C([H])([H])[H])C([H])([H])[H])C([H])([H])c2c([H])c(OC([H])([H])C([H])([H])C([H])([H])OC([H])([H])C([H])([H])C([H])([H])N([H])C([H])([H])C([H])([H])[N+]([H])([H])C([H])([H])C([H])([H])N([H])C(=O)N3C([H])([H])C([H])([H])C([H])([H])C([H])(n4nc(-c5c([H])c([H])c(Oc6c([H])c([H])c(F)c([H])c6F)c([H])c5[H])c(C(=O)N([H])[H])c4N([H])[H])C3([H])[H])c([H])c([H])c2C1([H])[H]

>  <smiles>  (22) 
[H]c1c([H])c([H])c2c(c1[H])C([H])([H])C([H])([H])C([H])([H])C2([H])N([H])C(=O)C1([H])N(C(=O)C([H])(N([H])C(=O)C([H])(N([H])C([H])([H])[H])C([H])([H])[H])C(C([H])([H])[H])(C([H])([H])[H])C([H])([H])[H])C([H])([H])c2c([H])c(OC([H])([H])C([H])([H])C([H])([H])OC([H])([H])C([H])([H])C([H])([H])N([H])C([H])([H])C([H])([H])[N+]([H])([H])C([H])([H])C([H])([H])N([H])C(=O)N3C([H])([H])C([H])([H])C([H])([H])C([H])(n4nc(-c5c([H])c([H])c(Oc6c([H])c([H])c(F)c([H])c6F)c([H])c5[H])c(C(=O)N([H])[H])c4N([H])[H])C3([H])[H])c([H])c([H])c2C1([H])[H]

$$$$
22:0:0
     RDKit          3D

 94 95  0  0  1  0  0  0  0  0999 V2000
  -23.7020  -26.9770   24.5380 N   0  0  0  0  0  4  0  0  0  0  0  0
  -23.7550  -26.7430   25.5170 H   0  0  0  0  0  0  0  0  0  0  0  0
  -24.3870  -27.7250   24.4000 H   0  0  0  0  0  0  0  0  0  0  0  0
  -24.5750  -25.6520   23.7060 C   0  0  0  0  0  2  0  0  0  0  0  0
  -26.4120  -25.1680   23.1950 C   0  0  0  0  0  1  0  0  0  0  0  0
  -27.4360  -23.8190   22.1790 C   0  0  0  0  0  1  0  0  0  0  0  0
  -29.1310  -23.2800   21.9270 N   0  0  0  0  0  4  0  0  0  0  0  0
  -29.5620  -24.1130   21.5600 H   0  0  0  0  0  0  0  0  0  0  0  0
  -29.4930  -23.2010   22.8610 H   0  0  0  0  0  0  0  0  0  0  0  0
  -30.0040  -21.9870   21.0370 C   0  0  0  0  0  1  0  0  0  0  0  0
  -31.7730  -21.1080   21.0560 C   0  0  0  0  0  1  0  0  0  0  0  0
  -34.0800  -18.9740   20.0450 C   0  0  0  0  0  0  0  0  0  0  0  0
  -35.9460  -17.7380   18.5030 C   0  0  0  0  0  2  0  0  0  0  0  0
  -36.6190  -18.5670   17.3600 C   0  0  0  0  0  2  0  0  0  0  0  0
  -35.6740  -18.7120   16.1560 C   0  0  0  0  0  2  0  0  0  0  0  0
  -34.2310  -18.9730   16.6420 C   0  0  0  0  0  3  0  0  0  0  0  0
  -33.7450  -17.9730   17.6960 C   0  0  0  0  0  2  0  0  0  0  0  0
  -34.5430  -18.2720   18.8680 N   0  0  0  0  0  0  0  0  0  0  0  0
  -34.9630  -18.7910   20.9220 O   0  0  0  0  0  0  0  0  0  0  0  0
  -32.7620  -19.8260   20.2330 N   0  0  0  0  0  0  0  0  0  0  0  0
  -32.5520  -19.2090   21.0090 H   0  0  0  0  0  0  0  0  0  0  0  0
  -32.0680  -19.7450   15.5990 C   0  0  0  0  0  0  0  0  0  0  0  0
  -31.5310  -19.5590   14.3630 C   0  0  0  0  0  0  0  0  0  0  0  0
  -32.4480  -18.7250   13.6490 C   0  0  0  0  0  0  0  0  0  0  0  0
  -33.2630  -19.0570   15.5810 N   0  0  0  0  0  0  0  0  0  0  0  0
  -33.4640  -18.3820   14.4270 N   0  0  0  0  0  0  0  0  0  0  0  0
  -32.4510  -18.2940   12.2510 C   0  0  0  0  0  0  0  0  0  0  0  0
  -32.4780  -16.9280   11.8960 C   0  0  0  0  0  3  0  0  0  0  0  0
  -32.4590  -16.5440   10.5380 C   0  0  0  0  0  3  0  0  0  0  0  0
  -32.4100  -17.5290    9.5240 C   0  0  0  0  0  0  0  0  0  0  0  0
  -32.4070  -18.8890    9.8830 C   0  0  0  0  0  3  0  0  0  0  0  0
  -32.4310  -19.2710   11.2340 C   0  0  0  0  0  3  0  0  0  0  0  0
  -32.4110  -17.2530    8.1800 O   0  0  0  0  0  0  0  0  0  0  0  0
  -31.9170  -16.0710    7.6870 C   0  0  0  0  0  0  0  0  0  0  0  0
  -30.5560  -15.7240    7.8100 C   0  0  0  0  0  3  0  0  0  0  0  0
  -30.0800  -14.5320    7.2300 C   0  0  0  0  0  3  0  0  0  0  0  0
  -30.9580  -13.6930    6.5200 C   0  0  0  0  0  0  0  0  0  0  0  0
  -32.3150  -14.0390    6.3950 C   0  0  0  0  0  3  0  0  0  0  0  0
  -32.7930  -15.2280    6.9750 C   0  0  0  0  0  0  0  0  0  0  0  0
  -34.0980  -15.5670    6.8310 F   0  0  0  0  0  0  0  0  0  0  0  0
  -30.5000  -12.5510    5.9560 F   0  0  0  0  0  0  0  0  0  0  0  0
  -30.2800  -20.2020   13.8450 C   0  0  0  0  0  0  0  0  0  0  0  0
  -29.5400  -19.4980   12.9980 N   0  0  0  0  0  0  0  0  0  0  0  0
  -29.9320  -21.3180   14.2260 O   0  0  0  0  0  0  0  0  0  0  0  0
  -29.8190  -18.5750   12.7030 H   0  0  0  0  0  0  0  0  0  0  0  0
  -28.6790  -19.8870   12.6410 H   0  0  0  0  0  0  0  0  0  0  0  0
  -31.6580  -20.4470   16.7320 N   0  0  0  0  0  0  0  0  0  0  0  0
  -30.8030  -20.9910   16.7460 H   0  0  0  0  0  0  0  0  0  0  0  0
  -32.1710  -20.4860   17.6050 H   0  0  0  0  0  0  0  0  0  0  0  0
  -22.2580  -28.1280   24.3960 C   0  0  0  0  0  1  0  0  0  0  0  0
  -21.4530  -29.2590   22.8160 C   0  0  0  0  0 15  0  0  0  0  0  0
  -21.1290  -28.5660   20.8270 C   0  0  0  0  0 15  0  0  0  0  0  0
  -22.5180  -27.5600   19.6080 C   0  0  0  0  0 15  0  0  0  0  0  0
  -24.3780  -27.5810   19.3940 O   0  0  0  0  0  1  0  0  0  0  0  0
  -24.9660  -31.3200   23.2470 C   0  0  0  0  0  0  0  0  0  0  0  0
  -25.4350  -28.1920   18.5990 C   0  0  0  0  0  3  0  0  0  0  0  0
  -23.7250  -29.8620   21.7050 C   0  0  0  0  0  3  0  0  0  0  0  0
  -24.0150  -30.1630   19.2190 C   0  0  0  0  0  3  0  0  0  0  0  0
  -25.6080  -31.1560   20.8430 C   0  0  0  0  0  2  0  0  0  0  0  0
  -25.3300  -30.2610   19.6530 C   0  0  0  0  0  3  0  0  0  0  0  0
  -26.1770  -29.2570   19.1970 C   0  0  0  0  0  2  0  0  0  0  0  0
  -24.6970  -28.5580   17.5230 C   0  0  0  0  0  2  0  0  0  0  0  0
  -23.7310  -29.4520   18.0110 C   0  0  0  0  0  2  0  0  0  0  0  0
  -23.0740  -30.4320   20.3430 C   0  0  0  0  0  2  0  0  0  0  0  0
  -24.7980  -30.7840   22.0120 N   0  0  0  0  0  0  0  0  0  0  0  0
  -24.1680  -31.1870   24.1850 O   0  0  0  0  0  0  0  0  0  0  0  0
  -24.2560  -28.2070   21.9210 C   0  0  0  0  0  0  0  0  0  0  0  0
  -23.5640  -26.8370   21.5400 N   0  0  0  0  0  0  0  0  0  0  0  0
  -25.1620  -28.1230   22.6910 O   0  0  0  0  0  0  0  0  0  0  0  0
  -24.3100  -26.2130   21.2780 H   0  0  0  0  0  0  0  0  0  0  0  0
  -19.3650  -25.2660   21.3270 C   0  0  0  0  0  0  0  0  0  0  0  0
  -22.0450  -25.9060   21.7210 C   0  0  0  0  0  3  0  0  0  0  0  0
  -22.2850  -24.8020   20.7760 C   0  0  0  0  0  2  0  0  0  0  0  0
  -21.1780  -24.5300   19.7870 C   0  0  0  0  0  2  0  0  0  0  0  0
  -19.9100  -24.1270   20.5130 C   0  0  0  0  0  2  0  0  0  0  0  0
  -20.2980  -26.1390   21.9770 C   0  0  0  0  0  0  0  0  0  0  0  0
  -19.5210  -26.9440   22.9370 C   0  0  0  0  0  3  0  0  0  0  0  0
  -18.1010  -27.0680   23.0280 C   0  0  0  0  0  3  0  0  0  0  0  0
  -17.2860  -26.2350   22.2640 C   0  0  0  0  0  3  0  0  0  0  0  0
  -17.9440  -25.3140   21.4470 C   0  0  0  0  0  3  0  0  0  0  0  0
  -26.2470  -32.1190   23.5220 C   0  0  0  0  0  3  0  0  0  0  0  0
  -27.2220  -31.3560   24.4920 C   0  0  1  0  0  0  0  0  0  0  0  0
  -26.5230  -30.8310   25.7650 C   0  0  0  0  0  1  0  0  0  0  0  0
  -27.9090  -30.1520   23.8100 C   0  0  0  0  0  1  0  0  0  0  0  0
  -28.3650  -32.3040   24.9040 C   0  0  0  0  0  1  0  0  0  0  0  0
  -25.8330  -33.4060   24.0860 N   0  0  0  0  0  0  0  0  0  0  0  0
  -25.8420  -34.5570   23.4050 C   0  0  0  0  0  0  0  0  0  0  0  0
  -26.2550  -34.6470   22.2470 O   0  0  0  0  0  0  0  0  0  0  0  0
  -25.4240  -33.4020   25.0090 H   0  0  0  0  0  0  0  0  0  0  0  0
  -23.9110  -36.1490   23.6470 C   0  0  0  0  0  1  0  0  0  0  0  0
  -25.3270  -35.8100   24.1370 C   0  0  0  0  0  3  0  0  0  0  0  0
  -27.4960  -36.8290   24.6620 C   0  0  0  0  0  1  0  0  0  0  0  0
  -26.2110  -36.9870   23.9840 N   0  0  0  0  0  0  0  0  0  0  0  0
  -25.7590  -37.8240   24.3430 H   0  0  0  0  0  0  0  0  0  0  0  0
  1  2  1  0
  3  1  1  0
  4  1  1  0
  5  4  1  0
  7  6  1  0
  7  9  1  0
  8  7  1  0
 10  7  1  0
 12 20  1  0
 12 19  2  0
 13 18  1  0
 14 13  1  0
 15 16  1  0
 15 14  1  0
 16 25  1  0
 16 17  1  0
 17 18  1  0
 18 12  1  0
 20 21  1  0
 20 11  1  0
 22 47  1  0
 23 22  2  0
 24 23  1  0
 24 26  2  0
 25 22  1  0
 26 25  1  0
 27 24  1  0
 28 27  1  0
 29 28  2  0
 30 31  2  0
 30 29  1  0
 31 32  1  0
 32 27  2  0
 33 30  1  0
 34 35  1  0
 34 33  1  0
 36 35  2  0
 37 36  1  0
 38 37  2  0
 38 39  1  0
 39 34  2  0
 40 39  1  0
 41 37  1  0
 42 44  2  0
 42 23  1  0
 43 42  1  0
 45 43  1  0
 46 43  1  0
 47 48  1  0
 47 49  1  0
 50  1  1  0
 55 66  2  0
 56 61  1  0
 56 54  1  0
 57 67  1  0
 57 65  1  0
 58 63  1  0
 58 60  1  0
 58 64  1  0
 59 65  1  0
 60 61  1  0
 60 59  1  0
 62 63  1  0
 62 56  1  0
 64 57  1  0
 65 55  1  0
 67 69  2  0
 68 67  1  0
 70 68  1  0
 71 80  2  0
 71 76  1  0
 72 68  1  0
 72 76  1  0
 73 72  1  0
 74 75  1  0
 74 73  1  0
 75 71  1  0
 76 77  2  0
 77 78  1  0
 79 78  2  0
 80 79  1  0
 81 55  1  0
 81 86  1  0
 81 82  1  0
 82 85  1  1
 82 83  1  0
 84 82  1  0
 86 89  1  0
 87 86  1  0
 87 91  1  0
 88 87  2  0
 91 90  1  0
 93 91  1  0
 93 94  1  0
 93 92  1  0
M  ISO  4  12 100  20 100  53 101  54 101
M  END
>  <TORSDO>  (23) 
F 26

>  <SCORE>  (23) 
-6.547

>  <name>  (23) 
22

>  <ligand_id>  (23) 
22

>  <original_smiles>  (23) 
[H]c1c([H])c([H])c2c(c1[H])C([H])([H])C([H])([H])C([H])([H])C2([H])N([H])C(=O)C1([H])N(C(=O)C([H])(N([H])C(=O)C([H])(N([H])C([H])([H])[H])C([H])([H])[H])C(C([H])([H])[H])(C([H])([H])[H])C([H])([H])[H])C([H])([H])c2c([H])c(OC([H])([H])C([H])([H])C([H])([H])C([H])([H])[N+]([H])([H])C([H])([H])C([H])([H])C([H])([H])[N+]([H])([H])C([H])([H])C([H])([H])N([H])C(=O)N3C([H])([H])C([H])([H])C([H])([H])C([H])(n4nc(-c5c([H])c([H])c(Oc6c([H])c([H])c(F)c([H])c6F)c([H])c5[H])c(C(=O)N([H])[H])c4N([H])[H])C3([H])[H])c([H])c([H])c2C1([H])[H]

>  <smiles>  (23) 
[H]c1c([H])c([H])c2c(c1[H])C([H])([H])C([H])([H])C([H])([H])C2([H])N([H])C(=O)C1([H])N(C(=O)C([H])(N([H])C(=O)C([H])(N([H])C([H])([H])[H])C([H])([H])[H])C(C([H])([H])[H])(C([H])([H])[H])C([H])([H])[H])C([H])([H])c2c([H])c(OC([H])([H])C([H])([H])C([H])([H])C([H])([H])[N+]([H])([H])C([H])([H])C([H])([H])C([H])([H])[N+]([H])([H])C([H])([H])C([H])([H])N([H])C(=O)N3C([H])([H])C([H])([H])C([H])([H])C([H])(n4nc(-c5c([H])c([H])c(Oc6c([H])c([H])c(F)c([H])c6F)c([H])c5[H])c(C(=O)N([H])[H])c4N([H])[H])C3([H])[H])c([H])c([H])c2C1([H])[H]

$$$$
23:0:0
     RDKit          3D

 96103  0  0  1  0  0  0  0  0999 V2000
  -24.6100  -22.4670   20.9870 C   0  0  0  0  0  2  0  0  0  0  0  0
  -25.4130  -23.6250   21.2270 O   0  0  0  0  0  0  0  0  0  0  0  0
  -26.6350  -23.3650   21.9180 C   0  0  0  0  0  2  0  0  0  0  0  0
  -27.7310  -24.2710   21.3430 C   0  0  0  0  0  2  0  0  0  0  0  0
  -27.9450  -23.9040   19.9830 O   0  0  0  0  0  0  0  0  0  0  0  0
  -29.0620  -24.5370   19.3640 C   0  0  0  0  0  2  0  0  0  0  0  0
  -28.5750  -25.5160   18.2830 C   0  0  0  0  0  2  0  0  0  0  0  0
  -27.8770  -26.7460   18.8770 C   0  0  0  0  0  2  0  0  0  0  0  0
  -27.3840  -27.6080   17.8510 O   0  0  0  0  0  0  0  0  0  0  0  0
  -24.4570  -31.5630   22.9580 C   0  0  0  0  0  0  0  0  0  0  0  0
  -26.2770  -28.2920   18.2740 C   0  0  0  0  0  0  0  0  0  0  0  0
  -22.8880  -30.5840   21.3120 C   0  0  0  0  0  3  0  0  0  0  0  0
  -23.9590  -29.5720   19.2300 C   0  0  0  0  0  0  0  0  0  0  0  0
  -25.2960  -31.1370   20.6530 C   0  0  0  0  0  2  0  0  0  0  0  0
  -25.2230  -29.9960   19.6640 C   0  0  0  0  0  0  0  0  0  0  0  0
  -26.3890  -29.3590   19.1870 C   0  0  0  0  0  3  0  0  0  0  0  0
  -25.0050  -27.8720   17.8390 C   0  0  0  0  0  3  0  0  0  0  0  0
  -23.8440  -28.5080   18.3160 C   0  0  0  0  0  3  0  0  0  0  0  0
  -22.7640  -30.3100   19.7890 C   0  0  0  0  0  2  0  0  0  0  0  0
  -24.2450  -31.0930   21.6950 N   0  0  0  0  0  0  0  0  0  0  0  0
  -23.5350  -31.6210   23.7820 O   0  0  0  0  0  0  0  0  0  0  0  0
  -22.4740  -29.3080   22.0790 C   0  0  0  0  0  0  0  0  0  0  0  0
  -21.1670  -28.9990   22.0620 N   0  0  0  0  0  0  0  0  0  0  0  0
  -23.3180  -28.6080   22.6440 O   0  0  0  0  0  0  0  0  0  0  0  0
  -20.5390  -29.6270   21.5790 H   0  0  0  0  0  0  0  0  0  0  0  0
  -18.0630  -27.1900   22.4210 C   0  0  0  0  0  0  0  0  0  0  0  0
  -20.5540  -27.8270   22.6830 C   0  0  0  0  0  3  0  0  0  0  0  0
  -20.8620  -26.5440   21.8770 C   0  0  0  0  0  2  0  0  0  0  0  0
  -19.7790  -26.2080   20.8450 C   0  0  0  0  0  2  0  0  0  0  0  0
  -18.4250  -26.0140   21.5310 C   0  0  0  0  0  2  0  0  0  0  0  0
  -19.0620  -28.0500   22.9510 C   0  0  0  0  0  0  0  0  0  0  0  0
  -18.6670  -29.1500   23.7440 C   0  0  0  0  0  3  0  0  0  0  0  0
  -17.3070  -29.3930   24.0130 C   0  0  0  0  0  3  0  0  0  0  0  0
  -16.3250  -28.5290   23.4990 C   0  0  0  0  0  3  0  0  0  0  0  0
  -16.7040  -27.4290   22.7100 C   0  0  0  0  0  3  0  0  0  0  0  0
  -25.8580  -32.0760   23.4140 C   0  0  0  0  0  3  0  0  0  0  0  0
  -25.6660  -33.3910   24.0360 N   0  0  0  0  0  0  0  0  0  0  0  0
  -25.9320  -34.5590   23.4370 C   0  0  0  0  0  0  0  0  0  0  0  0
  -26.4400  -34.6380   22.3160 O   0  0  0  0  0  0  0  0  0  0  0  0
  -25.1990  -33.4040   24.9310 H   0  0  0  0  0  0  0  0  0  0  0  0
  -24.2710  -36.4340   23.6510 C   0  0  0  0  0  1  0  0  0  0  0  0
  -25.5780  -35.8470   24.2060 C   0  0  0  0  0  3  0  0  0  0  0  0
  -27.8420  -36.4910   24.9020 C   0  0  0  0  0  1  0  0  0  0  0  0
  -26.6440  -36.8720   24.1590 N   0  0  0  0  0  0  0  0  0  0  0  0
  -26.3110  -37.7580   24.5260 H   0  0  0  0  0  0  0  0  0  0  0  0
  -26.5880  -31.0870   24.4050 C   0  0  1  0  0  0  0  0  0  0  0  0
  -25.7200  -30.6670   25.6150 C   0  0  0  0  0  1  0  0  0  0  0  0
  -27.0270  -29.7980   23.6690 C   0  0  0  0  0  1  0  0  0  0  0  0
  -27.8800  -31.7460   24.9440 C   0  0  0  0  0  1  0  0  0  0  0  0
  -24.9440  -21.8640   19.6110 C   0  0  0  0  0  2  0  0  0  0  0  0
  -27.0880  -20.6520   19.1430 C   0  0  0  0  0  0  0  0  0  0  0  0
  -26.3860  -21.7370   19.4650 N   0  0  0  0  0  0  0  0  0  0  0  0
  -26.5670  -19.5920   18.7950 O   0  0  0  0  0  0  0  0  0  0  0  0
  -26.9210  -22.5580   19.7440 H   0  0  0  0  0  0  0  0  0  0  0  0
  -28.6040  -20.8240   19.2560 C   0  0  0  0  0  2  0  0  0  0  0  0
  -29.4500  -19.5730   18.9770 C   0  0  0  0  0  2  0  0  0  0  0  0
  -29.2780  -18.4380   20.0020 C   0  0  0  0  0  2  0  0  0  0  0  0
  -30.5430  -17.5760   20.0640 C   0  0  0  0  0  2  0  0  0  0  0  0
  -31.0060  -15.1760   20.2320 C   0  0  0  0  0  0  0  0  0  0  0  0
  -30.8550  -12.8200   19.5760 C   0  0  0  0  0  2  0  0  0  0  0  0
  -29.9670  -12.7270   18.3190 C   0  0  0  0  0  2  0  0  0  0  0  0
  -28.4820  -12.5960   18.7100 C   0  0  0  0  0  2  0  0  0  0  0  0
  -28.0400  -13.6610   19.7520 C   0  0  0  0  0  3  0  0  0  0  0  0
  -29.0490  -13.7390   20.9220 C   0  0  0  0  0  2  0  0  0  0  0  0
  -30.3910  -13.9730   20.3560 N   0  0  0  0  0  0  0  0  0  0  0  0
  -32.1190  -15.3280   19.7190 O   0  0  0  0  0  0  0  0  0  0  0  0
  -30.2530  -16.2320   20.5460 N   0  0  0  0  0  0  0  0  0  0  0  0
  -29.3530  -16.0530   20.9680 H   0  0  0  0  0  0  0  0  0  0  0  0
  -25.6740  -14.3100   20.5390 C   0  0  0  0  0  0  0  0  0  0  0  0
  -24.5810  -13.5550   20.8670 C   0  0  0  0  0  0  0  0  0  0  0  0
  -24.9860  -12.1900   20.7280 C   0  0  0  0  0  0  0  0  0  0  0  0
  -26.6790  -13.4080   20.2280 N   0  0  0  0  0  0  0  0  0  0  0  0
  -26.2680  -12.1250   20.3940 N   0  0  0  0  0  0  0  0  0  0  0  0
  -24.2130  -10.9460   20.8370 C   0  0  0  0  0  0  0  0  0  0  0  0
  -24.5910   -9.9160   21.7270 C   0  0  0  0  0  3  0  0  0  0  0  0
  -23.8200   -8.7390   21.8300 C   0  0  0  0  0  3  0  0  0  0  0  0
  -22.6560   -8.5820   21.0390 C   0  0  0  0  0  0  0  0  0  0  0  0
  -22.2980   -9.5990   20.1380 C   0  0  0  0  0  3  0  0  0  0  0  0
  -23.0700  -10.7680   20.0320 C   0  0  0  0  0  3  0  0  0  0  0  0
  -21.8650   -7.4580   21.0470 O   0  0  0  0  0  0  0  0  0  0  0  0
  -21.7200   -6.6870   22.1730 C   0  0  0  0  0  0  0  0  0  0  0  0
  -21.2320   -7.2250   23.3840 C   0  0  0  0  0  3  0  0  0  0  0  0
  -21.0320   -6.3850   24.4990 C   0  0  0  0  0  3  0  0  0  0  0  0
  -21.3140   -5.0080   24.4010 C   0  0  0  0  0  0  0  0  0  0  0  0
  -21.7960   -4.4710   23.1950 C   0  0  0  0  0  3  0  0  0  0  0  0
  -21.9980   -5.3080   22.0830 C   0  0  0  0  0  0  0  0  0  0  0  0
  -22.4420   -4.7830   20.9160 F   0  0  0  0  0  0  0  0  0  0  0  0
  -21.1160   -4.1980   25.4670 F   0  0  0  0  0  0  0  0  0  0  0  0
  -23.2060  -14.0630   21.1990 C   0  0  0  0  0  0  0  0  0  0  0  0
  -22.4670  -13.3380   22.0310 N   0  0  0  0  0  0  0  0  0  0  0  0
  -22.7990  -15.1380   20.7570 O   0  0  0  0  0  0  0  0  0  0  0  0
  -22.8120  -12.4700   22.4110 H   0  0  0  0  0  0  0  0  0  0  0  0
  -21.5460  -13.6600   22.2950 H   0  0  0  0  0  0  0  0  0  0  0  0
  -25.8900  -15.6810   20.4650 N   0  0  0  0  0  0  0  0  0  0  0  0
  -25.1450  -16.3520   20.6260 H   0  0  0  0  0  0  0  0  0  0  0  0
  -26.7520  -16.1170   20.1610 H   0  0  0  0  0  0  0  0  0  0  0  0
  1  2  1  0
  2  3  1  0
  4  3  1  0
  5  4  1  0
  6  5  1  0
  7  8  1  0
  7  6  1  0
  9 11  1  0
  9  8  1  0
 10 21  2  0
 11 16  1  0
 12 20  1  0
 12 22  1  0
 13 15  1  0
 13 19  1  0
 14 20  1  0
 15 14  1  0
 16 15  2  0
 17 11  2  0
 17 18  1  0
 18 13  2  0
 19 12  1  0
 20 10  1  0
 22 24  2  0
 23 22  1  0
 25 23  1  0
 26 35  2  0
 26 31  1  0
 27 23  1  0
 27 31  1  0
 28 27  1  0
 29 30  1  0
 29 28  1  0
 30 26  1  0
 31 32  2  0
 32 33  1  0
 34 33  2  0
 35 34  1  0
 36 10  1  0
 36 37  1  0
 36 46  1  0
 37 40  1  0
 38 37  1  0
 38 42  1  0
 39 38  2  0
 42 41  1  0
 44 42  1  0
 44 45  1  0
 44 43  1  0
 46 49  1  1
 46 47  1  0
 48 46  1  0
 50  1  1  0
 51 55  1  0
 51 52  1  0
 52 50  1  0
 52 54  1  0
 53 51  2  0
 56 55  1  0
 56 57  1  0
 57 58  1  0
 58 67  1  0
 59 65  1  0
 59 67  1  0
 60 65  1  0
 61 62  1  0
 61 60  1  0
 63 62  1  0
 63 72  1  0
 63 64  1  0
 65 64  1  0
 66 59  2  0
 67 68  1  0
 69 70  2  0
 70 89  1  0
 71 74  1  0
 71 70  1  0
 72 73  1  0
 72 69  1  0
 73 71  2  0
 74 75  1  0
 75 76  2  0
 77 80  1  0
 77 76  1  0
 78 77  2  0
 79 78  1  0
 79 74  2  0
 80 81  1  0
 81 82  1  0
 82 83  2  0
 84 83  1  0
 84 88  1  0
 85 84  2  0
 86 81  2  0
 86 85  1  0
 87 86  1  0
 89 90  1  0
 90 93  1  0
 90 92  1  0
 91 89  2  0
 94 69  1  0
 94 95  1  0
 96 94  1  0
M  ISO  4   8 101   9 101  59 100  67 100
M  END
>  <TORSDO>  (24) 
F 29

>  <SCORE>  (24) 
-6.638

>  <name>  (24) 
23

>  <ligand_id>  (24) 
23

>  <original_smiles>  (24) 
[H]c1c([H])c([H])c2c(c1[H])C([H])([H])C([H])([H])C([H])([H])C2([H])N([H])C(=O)C1([H])N(C(=O)C([H])(N([H])C(=O)C([H])(N([H])C([H])([H])[H])C([H])([H])[H])C(C([H])([H])[H])(C([H])([H])[H])C([H])([H])[H])C([H])([H])c2c([H])c(OC([H])([H])C([H])([H])C([H])([H])OC([H])([H])C([H])([H])OC([H])([H])C([H])([H])N([H])C(=O)C([H])([H])C([H])([H])C([H])([H])C([H])([H])N([H])C(=O)N3C([H])([H])C([H])([H])C([H])([H])C([H])(n4nc(-c5c([H])c([H])c(Oc6c([H])c([H])c(F)c([H])c6F)c([H])c5[H])c(C(=O)N([H])[H])c4N([H])[H])C3([H])[H])c([H])c([H])c2C1([H])[H]

>  <smiles>  (24) 
[H]c1c([H])c([H])c2c(c1[H])C([H])([H])C([H])([H])C([H])([H])C2([H])N([H])C(=O)C1([H])N(C(=O)C([H])(N([H])C(=O)C([H])(N([H])C([H])([H])[H])C([H])([H])[H])C(C([H])([H])[H])(C([H])([H])[H])C([H])([H])[H])C([H])([H])c2c([H])c(OC([H])([H])C([H])([H])C([H])([H])OC([H])([H])C([H])([H])OC([H])([H])C([H])([H])N([H])C(=O)C([H])([H])C([H])([H])C([H])([H])C([H])([H])N([H])C(=O)N3C([H])([H])C([H])([H])C([H])([H])C([H])(n4nc(-c5c([H])c([H])c(Oc6c([H])c([H])c(F)c([H])c6F)c([H])c5[H])c(C(=O)N([H])[H])c4N([H])[H])C3([H])[H])c([H])c([H])c2C1([H])[H]

$$$$
24:0:0
     RDKit          3D

 96103  0  0  1  0  0  0  0  0999 V2000
  -29.7290  -22.6680   23.9640 C   0  0  0  0  0  2  0  0  0  0  0  0
  -30.2770  -21.2340   24.0430 C   0  0  0  0  0  2  0  0  0  0  0  0
  -31.6240  -21.0770   23.3060 C   0  0  0  0  0  2  0  0  0  0  0  0
  -31.9120  -19.6690   22.9580 N   0  0  0  0  0  4  0  0  0  0  0  0
  -32.9040  -19.5200   23.0540 H   0  0  0  0  0  0  0  0  0  0  0  0
  -31.4500  -19.0620   23.6170 H   0  0  0  0  0  0  0  0  0  0  0  0
  -31.5200  -19.3060   21.5780 C   0  0  0  0  0  2  0  0  0  0  0  0
  -31.4170  -17.7850   21.3800 C   0  0  0  0  0  2  0  0  0  0  0  0
  -31.5240  -17.3800   19.9000 C   0  0  0  0  0  2  0  0  0  0  0  0
  -32.1120  -15.9780   19.7090 C   0  0  0  0  0  2  0  0  0  0  0  0
  -31.0760  -13.9650   18.6840 C   0  0  0  0  0  0  0  0  0  0  0  0
  -30.9420  -11.5150   18.8140 C   0  0  0  0  0  2  0  0  0  0  0  0
  -29.9160  -10.8540   17.8870 C   0  0  0  0  0  2  0  0  0  0  0  0
  -28.5380  -10.8080   18.5680 C   0  0  0  0  0  2  0  0  0  0  0  0
  -28.1030  -12.1950   19.1060 C   0  0  0  0  0  3  0  0  0  0  0  0
  -29.2220  -12.8490   19.9470 C   0  0  0  0  0  2  0  0  0  0  0  0
  -30.4700  -12.8600   19.1630 N   0  0  0  0  0  0  0  0  0  0  0  0
  -31.8090  -13.9800   17.6880 O   0  0  0  0  0  0  0  0  0  0  0  0
  -31.0770  -14.9590   19.5780 N   0  0  0  0  0  0  0  0  0  0  0  0
  -30.4710  -14.8190   20.3750 H   0  0  0  0  0  0  0  0  0  0  0  0
  -26.0710  -13.1170   20.3910 C   0  0  0  0  0  0  0  0  0  0  0  0
  -24.9740  -12.5010   20.9280 C   0  0  0  0  0  0  0  0  0  0  0  0
  -25.1490  -11.1020   20.6880 C   0  0  0  0  0  0  0  0  0  0  0  0
  -26.8540  -12.1030   19.8590 N   0  0  0  0  0  0  0  0  0  0  0  0
  -26.3130  -10.8800   20.0930 N   0  0  0  0  0  0  0  0  0  0  0  0
  -24.2480   -9.9700   20.9380 C   0  0  0  0  0  0  0  0  0  0  0  0
  -24.4210   -9.1190   22.0520 C   0  0  0  0  0  3  0  0  0  0  0  0
  -23.5300   -8.0470   22.2780 C   0  0  0  0  0  3  0  0  0  0  0  0
  -22.4510   -7.8200   21.3910 C   0  0  0  0  0  0  0  0  0  0  0  0
  -22.2970   -8.6570   20.2720 C   0  0  0  0  0  3  0  0  0  0  0  0
  -23.1870   -9.7200   20.0450 C   0  0  0  0  0  3  0  0  0  0  0  0
  -21.5510   -6.7900   21.5180 O   0  0  0  0  0  0  0  0  0  0  0  0
  -20.9370   -6.5160   22.7130 C   0  0  0  0  0  0  0  0  0  0  0  0
  -20.1080   -7.4590   23.3600 C   0  0  0  0  0  3  0  0  0  0  0  0
  -19.4390   -7.1110   24.5490 C   0  0  0  0  0  3  0  0  0  0  0  0
  -19.5900   -5.8190   25.0900 C   0  0  0  0  0  0  0  0  0  0  0  0
  -20.4100   -4.8770   24.4460 C   0  0  0  0  0  3  0  0  0  0  0  0
  -21.0780   -5.2240   23.2590 C   0  0  0  0  0  0  0  0  0  0  0  0
  -21.8510   -4.3050   22.6290 F   0  0  0  0  0  0  0  0  0  0  0  0
  -18.9410   -5.4810   26.2290 F   0  0  0  0  0  0  0  0  0  0  0  0
  -23.7840  -13.1740   21.5470 C   0  0  0  0  0  0  0  0  0  0  0  0
  -23.1590  -12.5370   22.5320 N   0  0  0  0  0  0  0  0  0  0  0  0
  -23.4260  -14.2950   21.1880 O   0  0  0  0  0  0  0  0  0  0  0  0
  -23.4600  -11.6250   22.8400 H   0  0  0  0  0  0  0  0  0  0  0  0
  -22.3660  -12.9690   22.9860 H   0  0  0  0  0  0  0  0  0  0  0  0
  -26.4580  -14.4490   20.2900 N   0  0  0  0  0  0  0  0  0  0  0  0
  -25.8720  -15.2100   20.6180 H   0  0  0  0  0  0  0  0  0  0  0  0
  -27.2990  -14.7710   19.8290 H   0  0  0  0  0  0  0  0  0  0  0  0
  -28.3830  -22.7570   23.2150 C   0  0  0  0  0  2  0  0  0  0  0  0
  -28.1770  -24.0670   22.5580 N   0  0  0  0  0  4  0  0  0  0  0  0
  -28.4680  -24.8050   23.1820 H   0  0  0  0  0  0  0  0  0  0  0  0
  -27.1840  -24.1730   22.4220 H   0  0  0  0  0  0  0  0  0  0  0  0
  -28.8440  -24.2120   21.2410 C   0  0  0  0  0  2  0  0  0  0  0  0
  -28.4890  -25.5350   20.5470 C   0  0  0  0  0  2  0  0  0  0  0  0
  -29.0790  -25.6390   19.1190 C   0  0  0  0  0  2  0  0  0  0  0  0
  -28.8720  -26.9230   18.5220 O   0  0  0  0  0  0  0  0  0  0  0  0
  -24.7270  -30.8190   22.7160 C   0  0  0  0  0  0  0  0  0  0  0  0
  -27.6210  -27.4600   18.6820 C   0  0  0  0  0  0  0  0  0  0  0  0
  -23.5570  -29.5550   20.9380 C   0  0  0  0  0  3  0  0  0  0  0  0
  -25.0540  -28.5310   19.1400 C   0  0  0  0  0  0  0  0  0  0  0  0
  -25.9670  -30.3370   20.6110 C   0  0  0  0  0  2  0  0  0  0  0  0
  -26.1770  -29.1270   19.7290 C   0  0  0  0  0  0  0  0  0  0  0  0
  -27.4630  -28.5950   19.5010 C   0  0  0  0  0  3  0  0  0  0  0  0
  -26.4850  -26.8740   18.0790 C   0  0  0  0  0  3  0  0  0  0  0  0
  -25.2010  -27.4020   18.3130 C   0  0  0  0  0  3  0  0  0  0  0  0
  -23.7130  -29.1630   19.4420 C   0  0  0  0  0  2  0  0  0  0  0  0
  -24.7730  -30.2410   21.4820 N   0  0  0  0  0  0  0  0  0  0  0  0
  -23.6840  -30.8200   23.3830 O   0  0  0  0  0  0  0  0  0  0  0  0
  -23.1580  -28.2940   21.7390 C   0  0  0  0  0  0  0  0  0  0  0  0
  -21.8900  -27.8710   21.6010 N   0  0  0  0  0  0  0  0  0  0  0  0
  -23.9840  -27.7020   22.4390 O   0  0  0  0  0  0  0  0  0  0  0  0
  -21.2720  -28.4160   21.0170 H   0  0  0  0  0  0  0  0  0  0  0  0
  -18.8550  -25.9360   21.8870 C   0  0  0  0  0  0  0  0  0  0  0  0
  -21.3040  -26.6870   22.2270 C   0  0  0  0  0  3  0  0  0  0  0  0
  -21.6980  -25.4000   21.4660 C   0  0  0  0  0  2  0  0  0  0  0  0
  -20.6750  -24.9930   20.4020 C   0  0  0  0  0  2  0  0  0  0  0  0
  -19.3020  -24.7560   21.0400 C   0  0  0  0  0  2  0  0  0  0  0  0
  -19.7940  -26.8510   22.4300 C   0  0  0  0  0  0  0  0  0  0  0  0
  -19.3250  -27.9510   23.1810 C   0  0  0  0  0  3  0  0  0  0  0  0
  -17.9460  -28.1420   23.3910 C   0  0  0  0  0  3  0  0  0  0  0  0
  -17.0200  -27.2240   22.8650 C   0  0  0  0  0  3  0  0  0  0  0  0
  -17.4760  -26.1220   22.1190 C   0  0  0  0  0  3  0  0  0  0  0  0
  -25.9730  -31.5280   23.3350 C   0  0  0  0  0  3  0  0  0  0  0  0
  -25.5190  -32.8090   23.8910 N   0  0  0  0  0  0  0  0  0  0  0  0
  -25.7130  -34.0010   23.3110 C   0  0  0  0  0  0  0  0  0  0  0  0
  -26.3600  -34.1430   22.2710 O   0  0  0  0  0  0  0  0  0  0  0  0
  -24.9420  -32.7610   24.7170 H   0  0  0  0  0  0  0  0  0  0  0  0
  -23.8230  -35.6610   23.2280 C   0  0  0  0  0  1  0  0  0  0  0  0
  -25.0860  -35.2330   23.9930 C   0  0  0  0  0  3  0  0  0  0  0  0
  -27.1100  -36.1520   25.0360 C   0  0  0  0  0  1  0  0  0  0  0  0
  -26.0120  -36.3820   24.1020 N   0  0  0  0  0  0  0  0  0  0  0  0
  -25.5160  -37.2190   24.3980 H   0  0  0  0  0  0  0  0  0  0  0  0
  -26.6940  -30.6600   24.4390 C   0  0  1  0  0  0  0  0  0  0  0  0
  -25.7410  -30.1210   25.5290 C   0  0  0  0  0  1  0  0  0  0  0  0
  -27.4110  -29.4490   23.7950 C   0  0  0  0  0  1  0  0  0  0  0  0
  -27.7860  -31.5010   25.1400 C   0  0  0  0  0  1  0  0  0  0  0  0
  1  2  1  0
  3  2  1  0
  4  5  1  0
  4  3  1  0
  4  6  1  0
  7  4  1  0
  8  7  1  0
  9  8  1  0
 10  9  1  0
 11 17  1  0
 11 19  1  0
 12 17  1  0
 13 14  1  0
 13 12  1  0
 15 14  1  0
 15 24  1  0
 15 16  1  0
 17 16  1  0
 18 11  2  0
 19 10  1  0
 19 20  1  0
 21 22  2  0
 22 41  1  0
 23 22  1  0
 23 26  1  0
 24 25  1  0
 24 21  1  0
 25 23  2  0
 26 27  1  0
 27 28  2  0
 29 32  1  0
 29 28  1  0
 30 29  2  0
 31 30  1  0
 31 26  2  0
 32 33  1  0
 33 38  2  0
 33 34  1  0
 34 35  2  0
 35 36  1  0
 36 40  1  0
 37 36  2  0
 38 37  1  0
 39 38  1  0
 41 42  1  0
 42 44  1  0
 42 45  1  0
 43 41  2  0
 46 21  1  0
 46 47  1  0
 48 46  1  0
 49  1  1  0
 50 51  1  0
 50 49  1  0
 52 50  1  0
 53 50  1  0
 54 53  1  0
 55 54  1  0
 56 58  1  0
 56 55  1  0
 57 68  2  0
 58 63  1  0
 59 67  1  0
 59 69  1  0
 60 66  1  0
 60 62  1  0
 61 67  1  0
 62 61  1  0
 63 62  2  0
 64 65  1  0
 64 58  2  0
 65 60  2  0
 66 59  1  0
 67 57  1  0
 69 71  2  0
 70 69  1  0
 72 70  1  0
 73 82  2  0
 73 78  1  0
 74 70  1  0
 74 78  1  0
 75 74  1  0
 76 77  1  0
 76 75  1  0
 77 73  1  0
 78 79  2  0
 79 80  1  0
 81 80  2  0
 82 81  1  0
 83 57  1  0
 83 84  1  0
 83 93  1  0
 84 87  1  0
 85 84  1  0
 85 89  1  0
 86 85  2  0
 89 88  1  0
 89 91  1  0
 91 92  1  0
 91 90  1  0
 93 96  1  1
 93 94  1  0
 95 93  1  0
M  ISO  4  11 100  19 100  55 101  56 101
M  END
>  <TORSDO>  (25) 
F 28

>  <SCORE>  (25) 
-5.237

>  <name>  (25) 
24

>  <ligand_id>  (25) 
24

>  <original_smiles>  (25) 
[H]c1c([H])c([H])c2c(c1[H])C([H])([H])C([H])([H])C([H])([H])C2([H])N([H])C(=O)C1([H])N(C(=O)C([H])(N([H])C(=O)C([H])(N([H])C([H])([H])[H])C([H])([H])[H])C(C([H])([H])[H])(C([H])([H])[H])C([H])([H])[H])C([H])([H])c2c([H])c(OC([H])([H])C([H])([H])C([H])([H])[N+]([H])([H])C([H])([H])C([H])([H])C([H])([H])C([H])([H])[N+]([H])([H])C([H])([H])C([H])([H])C([H])([H])C([H])([H])N([H])C(=O)N3C([H])([H])C([H])([H])C([H])([H])C([H])(n4nc(-c5c([H])c([H])c(Oc6c([H])c([H])c(F)c([H])c6F)c([H])c5[H])c(C(=O)N([H])[H])c4N([H])[H])C3([H])[H])c([H])c([H])c2C1([H])[H]

>  <smiles>  (25) 
[H]c1c([H])c([H])c2c(c1[H])C([H])([H])C([H])([H])C([H])([H])C2([H])N([H])C(=O)C1([H])N(C(=O)C([H])(N([H])C(=O)C([H])(N([H])C([H])([H])[H])C([H])([H])[H])C(C([H])([H])[H])(C([H])([H])[H])C([H])([H])[H])C([H])([H])c2c([H])c(OC([H])([H])C([H])([H])C([H])([H])[N+]([H])([H])C([H])([H])C([H])([H])C([H])([H])C([H])([H])[N+]([H])([H])C([H])([H])C([H])([H])C([H])([H])C([H])([H])N([H])C(=O)N3C([H])([H])C([H])([H])C([H])([H])C([H])(n4nc(-c5c([H])c([H])c(Oc6c([H])c([H])c(F)c([H])c6F)c([H])c5[H])c(C(=O)N([H])[H])c4N([H])[H])C3([H])[H])c([H])c([H])c2C1([H])[H]

$$$$
25:0:0
     RDKit          3D

 95102  0  0  1  0  0  0  0  0999 V2000
  -28.7200  -23.1600   24.5240 C   0  0  0  0  0  2  0  0  0  0  0  0
  -28.8400  -21.7770   23.8280 C   0  0  0  0  0  2  0  0  0  0  0  0
  -30.2210  -21.2250   23.8740 N   0  0  0  0  0  4  0  0  0  0  0  0
  -30.6120  -21.3890   24.7890 H   0  0  0  0  0  0  0  0  0  0  0  0
  -30.1680  -20.2240   23.7580 H   0  0  0  0  0  0  0  0  0  0  0  0
  -31.1170  -21.7390   22.8040 C   0  0  0  0  0  2  0  0  0  0  0  0
  -32.5890  -21.3060   22.9690 C   0  0  0  0  0  2  0  0  0  0  0  0
  -33.2940  -21.0200   21.6190 C   0  0  0  0  0  2  0  0  0  0  0  0
  -34.7840  -20.6580   21.7860 C   0  0  0  0  0  2  0  0  0  0  0  0
  -35.3680  -19.7010   20.7240 C   0  0  0  0  0  2  0  0  0  0  0  0
  -34.8960  -17.5630   19.5820 C   0  0  0  0  0  0  0  0  0  0  0  0
  -34.4310  -15.3140   18.6800 C   0  0  0  0  0  2  0  0  0  0  0  0
  -33.5760  -15.3340   17.3990 C   0  0  0  0  0  2  0  0  0  0  0  0
  -32.0810  -15.3490   17.7520 C   0  0  0  0  0  2  0  0  0  0  0  0
  -31.7290  -16.4400   18.7960 C   0  0  0  0  0  3  0  0  0  0  0  0
  -32.6930  -16.3980   20.0060 C   0  0  0  0  0  2  0  0  0  0  0  0
  -34.0800  -16.4780   19.5080 N   0  0  0  0  0  0  0  0  0  0  0  0
  -35.9620  -17.6420   18.9620 O   0  0  0  0  0  0  0  0  0  0  0  0
  -34.5230  -18.5420   20.4200 N   0  0  0  0  0  0  0  0  0  0  0  0
  -33.6430  -18.4390   20.9030 H   0  0  0  0  0  0  0  0  0  0  0  0
  -29.4220  -17.3420   19.4910 C   0  0  0  0  0  0  0  0  0  0  0  0
  -28.2350  -16.7140   19.7620 C   0  0  0  0  0  0  0  0  0  0  0  0
  -28.4910  -15.3160   19.6280 C   0  0  0  0  0  0  0  0  0  0  0  0
  -30.3320  -16.3370   19.2150 N   0  0  0  0  0  0  0  0  0  0  0  0
  -29.7720  -15.1070   19.3550 N   0  0  0  0  0  0  0  0  0  0  0  0
  -27.5770  -14.1650   19.6890 C   0  0  0  0  0  0  0  0  0  0  0  0
  -27.7450  -13.1390   20.6450 C   0  0  0  0  0  3  0  0  0  0  0  0
  -26.8430  -12.0550   20.6970 C   0  0  0  0  0  3  0  0  0  0  0  0
  -25.7570  -11.9900   19.7910 C   0  0  0  0  0  0  0  0  0  0  0  0
  -25.6070  -13.0020   18.8280 C   0  0  0  0  0  3  0  0  0  0  0  0
  -26.5080  -14.0790   18.7740 C   0  0  0  0  0  3  0  0  0  0  0  0
  -24.8490  -10.9580   19.7500 O   0  0  0  0  0  0  0  0  0  0  0  0
  -24.4250  -10.3250   20.8890 C   0  0  0  0  0  0  0  0  0  0  0  0
  -23.7760  -11.0250   21.9300 C   0  0  0  0  0  3  0  0  0  0  0  0
  -23.2960  -10.3280   23.0570 C   0  0  0  0  0  3  0  0  0  0  0  0
  -23.4490   -8.9300   23.1390 C   0  0  0  0  0  0  0  0  0  0  0  0
  -24.0880   -8.2310   22.1000 C   0  0  0  0  0  3  0  0  0  0  0  0
  -24.5690   -8.9250   20.9770 C   0  0  0  0  0  0  0  0  0  0  0  0
  -25.1670   -8.2430   19.9690 F   0  0  0  0  0  0  0  0  0  0  0  0
  -22.9770   -8.2590   24.2150 F   0  0  0  0  0  0  0  0  0  0  0  0
  -26.9150  -17.3740   20.0390 C   0  0  0  0  0  0  0  0  0  0  0  0
  -26.0660  -16.7270   20.8310 N   0  0  0  0  0  0  0  0  0  0  0  0
  -26.6500  -18.4930   19.6000 O   0  0  0  0  0  0  0  0  0  0  0  0
  -26.2960  -15.8170   21.2020 H   0  0  0  0  0  0  0  0  0  0  0  0
  -25.1770  -17.1430   21.0690 H   0  0  0  0  0  0  0  0  0  0  0  0
  -29.7960  -18.6810   19.4270 N   0  0  0  0  0  0  0  0  0  0  0  0
  -29.1450  -19.4390   19.5960 H   0  0  0  0  0  0  0  0  0  0  0  0
  -30.7160  -18.9960   19.1470 H   0  0  0  0  0  0  0  0  0  0  0  0
  -28.0620  -24.2780   23.6760 C   0  0  0  0  0  2  0  0  0  0  0  0
  -28.8720  -24.6230   22.4830 N   0  0  0  0  0  4  0  0  0  0  0  0
  -28.6280  -23.9810   21.7450 H   0  0  0  0  0  0  0  0  0  0  0  0
  -29.8470  -24.4870   22.7030 H   0  0  0  0  0  0  0  0  0  0  0  0
  -28.7080  -26.0020   21.9600 C   0  0  0  0  0  2  0  0  0  0  0  0
  -29.2150  -26.0970   20.5020 C   0  0  0  0  0  2  0  0  0  0  0  0
  -29.1110  -27.4160   19.9660 O   0  0  0  0  0  0  0  0  0  0  0  0
  -24.5790  -31.7610   23.2310 C   0  0  0  0  0  0  0  0  0  0  0  0
  -27.8490  -27.9540   19.9590 C   0  0  0  0  0  0  0  0  0  0  0  0
  -23.6010  -30.3670   21.4360 C   0  0  0  0  0  3  0  0  0  0  0  0
  -25.2780  -29.1230   19.9690 C   0  0  0  0  0  0  0  0  0  0  0  0
  -26.0650  -31.0430   21.3680 C   0  0  0  0  0  2  0  0  0  0  0  0
  -26.3400  -29.7490   20.6370 C   0  0  0  0  0  0  0  0  0  0  0  0
  -27.6260  -29.1740   20.6250 C   0  0  0  0  0  3  0  0  0  0  0  0
  -26.7760  -27.3300   19.2850 C   0  0  0  0  0  3  0  0  0  0  0  0
  -25.4910  -27.9050   19.2920 C   0  0  0  0  0  3  0  0  0  0  0  0
  -23.9350  -29.8170   20.0220 C   0  0  0  0  0  2  0  0  0  0  0  0
  -24.7640  -31.0680   22.0720 N   0  0  0  0  0  0  0  0  0  0  0  0
  -23.4570  -31.8640   23.7440 O   0  0  0  0  0  0  0  0  0  0  0  0
  -23.0440  -29.2060   22.2900 C   0  0  0  0  0  0  0  0  0  0  0  0
  -21.7590  -28.8770   22.0830 N   0  0  0  0  0  0  0  0  0  0  0  0
  -23.7650  -28.6030   23.0880 O   0  0  0  0  0  0  0  0  0  0  0  0
  -21.2300  -29.4200   21.4140 H   0  0  0  0  0  0  0  0  0  0  0  0
  -18.5430  -27.2560   22.3110 C   0  0  0  0  0  0  0  0  0  0  0  0
  -21.0340  -27.7910   22.7380 C   0  0  0  0  0  3  0  0  0  0  0  0
  -21.3360  -26.4330   22.0620 C   0  0  0  0  0  2  0  0  0  0  0  0
  -20.3260  -26.0620   20.9710 C   0  0  0  0  0  2  0  0  0  0  0  0
  -18.9110  -25.9940   21.5510 C   0  0  0  0  0  2  0  0  0  0  0  0
  -19.5410  -28.1070   22.8530 C   0  0  0  0  0  0  0  0  0  0  0  0
  -19.1450  -29.2870   23.5200 C   0  0  0  0  0  3  0  0  0  0  0  0
  -17.7830  -29.6170   23.6510 C   0  0  0  0  0  3  0  0  0  0  0  0
  -16.7980  -28.7630   23.1280 C   0  0  0  0  0  3  0  0  0  0  0  0
  -17.1800  -27.5840   22.4620 C   0  0  0  0  0  3  0  0  0  0  0  0
  -25.7610  -32.4800   23.9540 C   0  0  0  0  0  3  0  0  0  0  0  0
  -25.3370  -33.8560   24.2390 N   0  0  0  0  0  0  0  0  0  0  0  0
  -25.6820  -34.9220   23.5040 C   0  0  0  0  0  0  0  0  0  0  0  0
  -26.4640  -34.8550   22.5520 O   0  0  0  0  0  0  0  0  0  0  0  0
  -24.6590  -33.9770   24.9770 H   0  0  0  0  0  0  0  0  0  0  0  0
  -23.8940  -36.5960   22.9430 C   0  0  0  0  0  1  0  0  0  0  0  0
  -25.0630  -36.2770   23.8890 C   0  0  0  0  0  3  0  0  0  0  0  0
  -27.0530  -37.2850   24.9180 C   0  0  0  0  0  1  0  0  0  0  0  0
  -26.0370  -37.3910   23.8730 N   0  0  0  0  0  0  0  0  0  0  0  0
  -25.5650  -38.2860   23.9760 H   0  0  0  0  0  0  0  0  0  0  0  0
  -26.2130  -31.7520   25.2790 C   0  0  1  0  0  0  0  0  0  0  0  0
  -25.0440  -31.4250   26.2360 C   0  0  0  0  0  1  0  0  0  0  0  0
  -26.9410  -30.4280   24.9500 C   0  0  0  0  0  1  0  0  0  0  0  0
  -27.2290  -32.6320   26.0430 C   0  0  0  0  0  1  0  0  0  0  0  0
  2  3  1  0
  2  1  1  0
  3  4  1  0
  5  3  1  0
  6  7  1  0
  6  3  1  0
  8  9  1  0
  8  7  1  0
 10  9  1  0
 11 19  1  0
 12 17  1  0
 13 14  1  0
 13 12  1  0
 15 14  1  0
 15 24  1  0
 15 16  1  0
 17 11  1  0
 17 16  1  0
 18 11  2  0
 19 10  1  0
 19 20  1  0
 21 22  2  0
 22 41  1  0
 23 26  1  0
 23 22  1  0
 24 25  1  0
 24 21  1  0
 25 23  2  0
 26 27  1  0
 27 28  2  0
 29 28  1  0
 30 29  2  0
 31 30  1  0
 31 26  2  0
 32 29  1  0
 32 33  1  0
 33 38  2  0
 33 34  1  0
 34 35  2  0
 35 36  1  0
 36 40  1  0
 37 36  2  0
 38 37  1  0
 39 38  1  0
 41 42  1  0
 42 45  1  0
 42 44  1  0
 43 41  2  0
 46 21  1  0
 46 47  1  0
 48 46  1  0
 49  1  1  0
 50 52  1  0
 50 49  1  0
 51 50  1  0
 53 50  1  0
 54 53  1  0
 55 54  1  0
 56 67  2  0
 57 55  1  0
 57 62  1  0
 58 66  1  0
 58 68  1  0
 59 65  1  0
 59 61  1  0
 60 66  1  0
 61 60  1  0
 62 61  2  0
 63 64  1  0
 63 57  2  0
 64 59  2  0
 65 58  1  0
 66 56  1  0
 68 70  2  0
 69 68  1  0
 71 69  1  0
 72 81  2  0
 72 77  1  0
 73 69  1  0
 73 77  1  0
 74 73  1  0
 75 76  1  0
 75 74  1  0
 76 72  1  0
 77 78  2  0
 78 79  1  0
 80 79  2  0
 81 80  1  0
 82 56  1  0
 82 83  1  0
 82 92  1  0
 83 86  1  0
 84 88  1  0
 84 83  1  0
 85 84  2  0
 88 87  1  0
 90 88  1  0
 90 91  1  0
 90 89  1  0
 92 95  1  1
 92 93  1  0
 94 92  1  0
M  ISO  4  11 100  19 100  54 101  55 101
M  END
>  <TORSDO>  (26) 
F 27

>  <SCORE>  (26) 
-0.220

>  <name>  (26) 
25

>  <ligand_id>  (26) 
25

>  <original_smiles>  (26) 
[H]c1c([H])c([H])c2c(c1[H])C([H])([H])C([H])([H])C([H])([H])C2([H])N([H])C(=O)C1([H])N(C(=O)C([H])(N([H])C(=O)C([H])(N([H])C([H])([H])[H])C([H])([H])[H])C(C([H])([H])[H])(C([H])([H])[H])C([H])([H])[H])C([H])([H])c2c([H])c(OC([H])([H])C([H])([H])[N+]([H])([H])C([H])([H])C([H])([H])C([H])([H])[N+]([H])([H])C([H])([H])C([H])([H])C([H])([H])C([H])([H])C([H])([H])N([H])C(=O)N3C([H])([H])C([H])([H])C([H])([H])C([H])(n4nc(-c5c([H])c([H])c(Oc6c([H])c([H])c(F)c([H])c6F)c([H])c5[H])c(C(=O)N([H])[H])c4N([H])[H])C3([H])[H])c([H])c([H])c2C1([H])[H]

>  <smiles>  (26) 
[H]c1c([H])c([H])c2c(c1[H])C([H])([H])C([H])([H])C([H])([H])C2([H])N([H])C(=O)C1([H])N(C(=O)C([H])(N([H])C(=O)C([H])(N([H])C([H])([H])[H])C([H])([H])[H])C(C([H])([H])[H])(C([H])([H])[H])C([H])([H])[H])C([H])([H])c2c([H])c(OC([H])([H])C([H])([H])[N+]([H])([H])C([H])([H])C([H])([H])C([H])([H])[N+]([H])([H])C([H])([H])C([H])([H])C([H])([H])C([H])([H])C([H])([H])N([H])C(=O)N3C([H])([H])C([H])([H])C([H])([H])C([H])(n4nc(-c5c([H])c([H])c(Oc6c([H])c([H])c(F)c([H])c6F)c([H])c5[H])c(C(=O)N([H])[H])c4N([H])[H])C3([H])[H])c([H])c([H])c2C1([H])[H]

$$$$
26:0:0
     RDKit          3D

 98105  0  0  1  0  0  0  0  0999 V2000
  -24.3790  -24.4250   22.3800 N   0  0  0  0  0  4  0  0  0  0  0  0
  -23.8960  -25.1150   21.8250 H   0  0  0  0  0  0  0  0  0  0  0  0
  -25.2870  -24.2710   21.9660 H   0  0  0  0  0  0  0  0  0  0  0  0
  -24.6710  -24.9750   23.7210 C   0  0  0  0  0  2  0  0  0  0  0  0
  -25.8440  -25.9520   23.6300 C   0  0  0  0  0  2  0  0  0  0  0  0
  -26.8630  -25.2560   22.9200 O   0  0  0  0  0  0  0  0  0  0  0  0
  -28.1000  -25.9510   22.9040 C   0  0  0  0  0  2  0  0  0  0  0  0
  -29.0110  -25.3240   21.8400 C   0  0  0  0  0  2  0  0  0  0  0  0
  -28.4670  -25.4370   20.4060 C   0  0  0  0  0  2  0  0  0  0  0  0
  -28.4460  -26.8070   20.0150 O   0  0  0  0  0  0  0  0  0  0  0  0
  -24.6100  -31.8680   23.2120 C   0  0  0  0  0  0  0  0  0  0  0  0
  -27.2440  -27.4720   20.0700 C   0  0  0  0  0  0  0  0  0  0  0  0
  -23.3960  -30.4900   21.5540 C   0  0  0  0  0  3  0  0  0  0  0  0
  -24.8410  -28.9530   20.1210 C   0  0  0  0  0  0  0  0  0  0  0  0
  -25.9220  -30.8410   21.3600 C   0  0  0  0  0  2  0  0  0  0  0  0
  -25.9990  -29.4790   20.7060 C   0  0  0  0  0  0  0  0  0  0  0  0
  -27.2040  -28.7480   20.6700 C   0  0  0  0  0  3  0  0  0  0  0  0
  -26.0670  -26.9470   19.4910 C   0  0  0  0  0  3  0  0  0  0  0  0
  -24.8670  -27.6840   19.5140 C   0  0  0  0  0  3  0  0  0  0  0  0
  -23.6010  -29.8170   20.1710 C   0  0  0  0  0  2  0  0  0  0  0  0
  -24.6620  -31.0790   22.1020 N   0  0  0  0  0  0  0  0  0  0  0  0
  -23.5310  -32.1440   23.7530 O   0  0  0  0  0  0  0  0  0  0  0  0
  -22.7400  -29.4630   22.5020 C   0  0  0  0  0  0  0  0  0  0  0  0
  -21.4120  -29.3020   22.3780 N   0  0  0  0  0  0  0  0  0  0  0  0
  -23.4210  -28.8070   23.2960 O   0  0  0  0  0  0  0  0  0  0  0  0
  -20.9270  -29.8830   21.7090 H   0  0  0  0  0  0  0  0  0  0  0  0
  -18.0260  -28.1350   22.8470 C   0  0  0  0  0  0  0  0  0  0  0  0
  -20.5840  -28.3640   23.1340 C   0  0  0  0  0  3  0  0  0  0  0  0
  -20.6760  -26.9380   22.5420 C   0  0  0  0  0  2  0  0  0  0  0  0
  -19.5750  -26.6370   21.5190 C   0  0  0  0  0  2  0  0  0  0  0  0
  -18.1920  -26.7910   22.1590 C   0  0  0  0  0  2  0  0  0  0  0  0
  -19.1510  -28.8810   23.2900 C   0  0  0  0  0  0  0  0  0  0  0  0
  -18.9440  -30.1410   23.8920 C   0  0  0  0  0  3  0  0  0  0  0  0
  -17.6450  -30.6580   24.0550 C   0  0  0  0  0  3  0  0  0  0  0  0
  -16.5340  -29.9080   23.6310 C   0  0  0  0  0  3  0  0  0  0  0  0
  -16.7250  -28.6480   23.0340 C   0  0  0  0  0  3  0  0  0  0  0  0
  -25.9010  -32.4810   23.8410 C   0  0  0  0  0  3  0  0  0  0  0  0
  -25.5860  -33.8610   24.2330 N   0  0  0  0  0  0  0  0  0  0  0  0
  -25.9020  -34.9480   23.5150 C   0  0  0  0  0  0  0  0  0  0  0  0
  -26.5590  -34.8930   22.4710 O   0  0  0  0  0  0  0  0  0  0  0  0
  -24.9980  -33.9760   25.0460 H   0  0  0  0  0  0  0  0  0  0  0  0
  -24.1470  -36.7330   23.2640 C   0  0  0  0  0  1  0  0  0  0  0  0
  -25.4090  -36.3110   24.0340 C   0  0  0  0  0  3  0  0  0  0  0  0
  -27.5600  -37.1800   24.8440 C   0  0  0  0  0  1  0  0  0  0  0  0
  -26.4270  -37.3800   23.9430 N   0  0  0  0  0  0  0  0  0  0  0  0
  -26.0160  -38.2860   24.1510 H   0  0  0  0  0  0  0  0  0  0  0  0
  -26.4440  -31.6590   25.0740 C   0  0  1  0  0  0  0  0  0  0  0  0
  -25.3700  -31.3720   26.1500 C   0  0  0  0  0  1  0  0  0  0  0  0
  -27.0260  -30.3020   24.6110 C   0  0  0  0  0  1  0  0  0  0  0  0
  -27.6020  -32.4310   25.7500 C   0  0  0  0  0  1  0  0  0  0  0  0
  -23.6310  -23.1480   22.3920 C   0  0  0  0  0  2  0  0  0  0  0  0
  -23.4680  -22.5300   20.9900 C   0  0  0  0  0  2  0  0  0  0  0  0
  -24.7820  -22.0580   20.3410 C   0  0  0  0  0  2  0  0  0  0  0  0
  -25.3530  -21.0000   21.1000 O   0  0  0  0  0  0  0  0  0  0  0  0
  -26.6500  -20.6380   20.6410 C   0  0  0  0  0  2  0  0  0  0  0  0
  -27.1310  -19.3980   21.4070 C   0  0  0  0  0  2  0  0  0  0  0  0
  -28.5860  -19.0250   21.0760 C   0  0  0  0  0  2  0  0  0  0  0  0
  -29.0470  -17.7430   21.7880 C   0  0  0  0  0  2  0  0  0  0  0  0
  -30.5530  -17.4830   21.6070 C   0  0  0  0  0  2  0  0  0  0  0  0
  -31.0500  -16.2140   22.3220 C   0  0  0  0  0  2  0  0  0  0  0  0
  -30.7850  -14.3290   20.7130 C   0  0  0  0  0  0  0  0  0  0  0  0
  -30.4160  -12.2840   19.3830 C   0  0  0  0  0  2  0  0  0  0  0  0
  -29.4800  -12.5310   18.1860 C   0  0  0  0  0  2  0  0  0  0  0  0
  -28.0060  -12.3870   18.6050 C   0  0  0  0  0  2  0  0  0  0  0  0
  -27.6690  -13.2020   19.8810 C   0  0  0  0  0  3  0  0  0  0  0  0
  -28.7060  -12.9290   20.9930 C   0  0  0  0  0  2  0  0  0  0  0  0
  -30.0540  -13.2140   20.4610 N   0  0  0  0  0  0  0  0  0  0  0  0
  -31.7690  -14.6660   20.0470 O   0  0  0  0  0  0  0  0  0  0  0  0
  -30.4120  -15.0070   21.8040 N   0  0  0  0  0  0  0  0  0  0  0  0
  -29.6340  -14.6310   22.3260 H   0  0  0  0  0  0  0  0  0  0  0  0
  -25.2620  -13.8170   20.5680 C   0  0  0  0  0  0  0  0  0  0  0  0
  -24.1860  -13.0440   20.9160 C   0  0  0  0  0  0  0  0  0  0  0  0
  -24.6400  -11.6910   20.8720 C   0  0  0  0  0  0  0  0  0  0  0  0
  -26.3060  -12.9330   20.3390 N   0  0  0  0  0  0  0  0  0  0  0  0
  -25.9320  -11.6490   20.5750 N   0  0  0  0  0  0  0  0  0  0  0  0
  -23.9060  -10.4300   21.0400 C   0  0  0  0  0  0  0  0  0  0  0  0
  -24.3610   -9.4220   21.9180 C   0  0  0  0  0  3  0  0  0  0  0  0
  -23.6290   -8.2250   22.0750 C   0  0  0  0  0  3  0  0  0  0  0  0
  -22.4270   -8.0280   21.3540 C   0  0  0  0  0  0  0  0  0  0  0  0
  -21.9900   -9.0260   20.4640 C   0  0  0  0  0  3  0  0  0  0  0  0
  -22.7230  -10.2140   20.3050 C   0  0  0  0  0  3  0  0  0  0  0  0
  -21.6640   -6.8880   21.4240 O   0  0  0  0  0  0  0  0  0  0  0  0
  -21.6850   -6.0740   22.5280 C   0  0  0  0  0  0  0  0  0  0  0  0
  -21.4010   -6.5640   23.8210 C   0  0  0  0  0  3  0  0  0  0  0  0
  -21.3660   -5.6800   24.9170 C   0  0  0  0  0  3  0  0  0  0  0  0
  -21.6040   -4.3060   24.7230 C   0  0  0  0  0  0  0  0  0  0  0  0
  -21.8820   -3.8150   23.4350 C   0  0  0  0  0  3  0  0  0  0  0  0
  -21.9200   -4.6970   22.3400 C   0  0  0  0  0  0  0  0  0  0  0  0
  -22.1660   -4.2150   21.0980 F   0  0  0  0  0  0  0  0  0  0  0  0
  -21.5630   -3.4540   25.7740 F   0  0  0  0  0  0  0  0  0  0  0  0
  -22.7880  -13.5250   21.1820 C   0  0  0  0  0  0  0  0  0  0  0  0
  -22.0520  -12.8240   22.0380 N   0  0  0  0  0  0  0  0  0  0  0  0
  -22.3560  -14.5560   20.6680 O   0  0  0  0  0  0  0  0  0  0  0  0
  -22.4120  -11.9890   22.4770 H   0  0  0  0  0  0  0  0  0  0  0  0
  -21.1130  -13.1260   22.2580 H   0  0  0  0  0  0  0  0  0  0  0  0
  -25.4360  -15.1880   20.4090 N   0  0  0  0  0  0  0  0  0  0  0  0
  -24.6740  -15.8480   20.5210 H   0  0  0  0  0  0  0  0  0  0  0  0
  -26.2990  -15.6240   20.1110 H   0  0  0  0  0  0  0  0  0  0  0  0
  1 51  1  0
  1  4  1  0
  2  1  1  0
  3  1  1  0
  5  4  1  0
  6  5  1  0
  7  6  1  0
  8  7  1  0
  9  8  1  0
 10 12  1  0
 10  9  1  0
 11 22  2  0
 12 17  1  0
 13 21  1  0
 13 23  1  0
 14 20  1  0
 14 16  1  0
 15 21  1  0
 16 15  1  0
 17 16  2  0
 18 19  1  0
 18 12  2  0
 19 14  2  0
 20 13  1  0
 21 11  1  0
 23 25  2  0
 24 23  1  0
 26 24  1  0
 27 36  2  0
 27 32  1  0
 28 24  1  0
 28 32  1  0
 29 28  1  0
 30 31  1  0
 30 29  1  0
 31 27  1  0
 32 33  2  0
 33 34  1  0
 35 34  2  0
 36 35  1  0
 37 11  1  0
 37 38  1  0
 37 47  1  0
 38 41  1  0
 39 43  1  0
 39 38  1  0
 40 39  2  0
 43 42  1  0
 45 43  1  0
 45 46  1  0
 45 44  1  0
 47 50  1  1
 47 48  1  0
 49 47  1  0
 52 51  1  0
 53 52  1  0
 53 54  1  0
 55 54  1  0
 55 56  1  0
 57 56  1  0
 57 58  1  0
 59 58  1  0
 59 60  1  0
 61 69  1  0
 62 67  1  0
 63 64  1  0
 63 62  1  0
 65 64  1  0
 65 74  1  0
 65 66  1  0
 67 61  1  0
 67 66  1  0
 68 61  2  0
 69 60  1  0
 69 70  1  0
 71 72  2  0
 72 91  1  0
 73 72  1  0
 73 76  1  0
 74 71  1  0
 74 75  1  0
 75 73  2  0
 76 77  1  0
 77 78  2  0
 79 82  1  0
 79 78  1  0
 80 79  2  0
 81 80  1  0
 81 76  2  0
 82 83  1  0
 83 84  1  0
 84 85  2  0
 86 85  1  0
 86 90  1  0
 87 86  2  0
 88 83  2  0
 88 87  1  0
 89 88  1  0
 91 92  1  0
 92 95  1  0
 92 94  1  0
 93 91  2  0
 96 97  1  0
 96 71  1  0
 98 96  1  0
M  ISO  4   9 101  10 101  61 100  69 100
M  END
>  <TORSDO>  (27) 
F 32

>  <SCORE>  (27) 
0.527

>  <name>  (27) 
26

>  <ligand_id>  (27) 
26

>  <original_smiles>  (27) 
[H]c1c([H])c([H])c2c(c1[H])C([H])([H])C([H])([H])C([H])([H])C2([H])N([H])C(=O)C1([H])N(C(=O)C([H])(N([H])C(=O)C([H])(N([H])C([H])([H])[H])C([H])([H])[H])C(C([H])([H])[H])(C([H])([H])[H])C([H])([H])[H])C([H])([H])c2c([H])c(OC([H])([H])C([H])([H])C([H])([H])OC([H])([H])C([H])([H])[N+]([H])([H])C([H])([H])C([H])([H])C([H])([H])OC([H])([H])C([H])([H])C([H])([H])C([H])([H])C([H])([H])C([H])([H])N([H])C(=O)N3C([H])([H])C([H])([H])C([H])([H])C([H])(n4nc(-c5c([H])c([H])c(Oc6c([H])c([H])c(F)c([H])c6F)c([H])c5[H])c(C(=O)N([H])[H])c4N([H])[H])C3([H])[H])c([H])c([H])c2C1([H])[H]

>  <smiles>  (27) 
[H]c1c([H])c([H])c2c(c1[H])C([H])([H])C([H])([H])C([H])([H])C2([H])N([H])C(=O)C1([H])N(C(=O)C([H])(N([H])C(=O)C([H])(N([H])C([H])([H])[H])C([H])([H])[H])C(C([H])([H])[H])(C([H])([H])[H])C([H])([H])[H])C([H])([H])c2c([H])c(OC([H])([H])C([H])([H])C([H])([H])OC([H])([H])C([H])([H])[N+]([H])([H])C([H])([H])C([H])([H])C([H])([H])OC([H])([H])C([H])([H])C([H])([H])C([H])([H])C([H])([H])C([H])([H])N([H])C(=O)N3C([H])([H])C([H])([H])C([H])([H])C([H])(n4nc(-c5c([H])c([H])c(Oc6c([H])c([H])c(F)c([H])c6F)c([H])c5[H])c(C(=O)N([H])[H])c4N([H])[H])C3([H])[H])c([H])c([H])c2C1([H])[H]

$$$$
27:0:0
     RDKit          3D

 93100  0  0  1  0  0  0  0  0999 V2000
  -28.4100  -22.4390   23.5330 C   0  0  0  0  0  2  0  0  0  0  0  0
  -29.8610  -22.0870   23.8520 C   0  0  0  0  0  2  0  0  0  0  0  0
  -30.7360  -22.8960   22.9780 N   0  0  0  0  0  4  0  0  0  0  0  0
  -30.1190  -23.5700   22.5440 H   0  0  0  0  0  0  0  0  0  0  0  0
  -31.4070  -23.4020   23.5330 H   0  0  0  0  0  0  0  0  0  0  0  0
  -31.4090  -22.1360   21.9130 C   0  0  0  0  0  2  0  0  0  0  0  0
  -32.7350  -22.7900   21.4930 C   0  0  0  0  0  2  0  0  0  0  0  0
  -33.3980  -21.9680   20.3890 C   0  0  0  0  0  2  0  0  0  0  0  0
  -34.8940  -21.7020   20.5880 C   0  0  0  0  0  2  0  0  0  0  0  0
  -35.7790  -19.5470   19.6680 C   0  0  0  0  0  0  0  0  0  0  0  0
  -36.1070  -17.2680   18.7830 C   0  0  0  0  0  2  0  0  0  0  0  0
  -35.3570  -17.0490   17.4550 C   0  0  0  0  0  2  0  0  0  0  0  0
  -33.8860  -16.6570   17.6910 C   0  0  0  0  0  2  0  0  0  0  0  0
  -33.1730  -17.5940   18.7040 C   0  0  0  0  0  3  0  0  0  0  0  0
  -34.0370  -17.7530   19.9760 C   0  0  0  0  0  2  0  0  0  0  0  0
  -35.3720  -18.2560   19.5820 N   0  0  0  0  0  0  0  0  0  0  0  0
  -36.7430  -20.0190   19.0600 O   0  0  0  0  0  0  0  0  0  0  0  0
  -35.0540  -20.2610   20.5280 N   0  0  0  0  0  0  0  0  0  0  0  0
  -34.3790  -19.7230   21.0490 H   0  0  0  0  0  0  0  0  0  0  0  0
  -30.6370  -17.8170   19.1290 C   0  0  0  0  0  0  0  0  0  0  0  0
  -29.6630  -16.8790   19.3580 C   0  0  0  0  0  0  0  0  0  0  0  0
  -30.3260  -15.6150   19.3580 C   0  0  0  0  0  0  0  0  0  0  0  0
  -31.8270  -17.1120   19.0130 N   0  0  0  0  0  0  0  0  0  0  0  0
  -31.6340  -15.7800   19.2020 N   0  0  0  0  0  0  0  0  0  0  0  0
  -29.7870  -14.2520   19.4380 C   0  0  0  0  0  0  0  0  0  0  0  0
  -29.9700  -13.4500   20.5860 C   0  0  0  0  0  3  0  0  0  0  0  0
  -29.4270  -12.1490   20.6460 C   0  0  0  0  0  3  0  0  0  0  0  0
  -28.6890  -11.6370   19.5520 C   0  0  0  0  0  0  0  0  0  0  0  0
  -28.5310  -12.4300   18.4000 C   0  0  0  0  0  3  0  0  0  0  0  0
  -29.0770  -13.7220   18.3410 C   0  0  0  0  0  3  0  0  0  0  0  0
  -28.1460  -10.3760   19.5120 O   0  0  0  0  0  0  0  0  0  0  0  0
  -27.3440   -9.9050   20.5210 C   0  0  0  0  0  0  0  0  0  0  0  0
  -26.1580  -10.5700   20.9040 C   0  0  0  0  0  3  0  0  0  0  0  0
  -25.3290  -10.0150   21.8980 C   0  0  0  0  0  3  0  0  0  0  0  0
  -25.6760   -8.7930   22.5030 C   0  0  0  0  0  0  0  0  0  0  0  0
  -26.8540   -8.1260   22.1200 C   0  0  0  0  0  3  0  0  0  0  0  0
  -27.6830   -8.6810   21.1290 C   0  0  0  0  0  0  0  0  0  0  0  0
  -28.8050   -8.0230   20.7480 F   0  0  0  0  0  0  0  0  0  0  0  0
  -24.8770   -8.2540   23.4510 F   0  0  0  0  0  0  0  0  0  0  0  0
  -28.1860  -17.1300   19.4760 C   0  0  0  0  0  0  0  0  0  0  0  0
  -27.4860  -16.3250   20.2690 N   0  0  0  0  0  0  0  0  0  0  0  0
  -27.6510  -18.0770   18.9010 O   0  0  0  0  0  0  0  0  0  0  0  0
  -27.9230  -15.5610   20.7620 H   0  0  0  0  0  0  0  0  0  0  0  0
  -26.4950  -16.4820   20.3870 H   0  0  0  0  0  0  0  0  0  0  0  0
  -30.6030  -19.2010   18.9890 N   0  0  0  0  0  0  0  0  0  0  0  0
  -29.7300  -19.7180   19.0050 H   0  0  0  0  0  0  0  0  0  0  0  0
  -31.4010  -19.7790   18.7600 H   0  0  0  0  0  0  0  0  0  0  0  0
  -28.4650  -22.7500   22.1480 O   0  0  0  0  0  0  0  0  0  0  0  0
  -27.5340  -23.7160   21.7140 C   0  0  0  0  0  2  0  0  0  0  0  0
  -28.1740  -24.3260   20.4630 C   0  0  0  0  0  2  0  0  0  0  0  0
  -27.7130  -25.7540   20.1840 C   0  0  0  0  0  2  0  0  0  0  0  0
  -28.2640  -26.2960   18.8510 C   0  0  0  0  0  2  0  0  0  0  0  0
  -28.1580  -27.7170   18.7950 O   0  0  0  0  0  0  0  0  0  0  0  0
  -24.3320  -31.6620   23.2640 C   0  0  0  0  0  0  0  0  0  0  0  0
  -26.9180  -28.2450   19.0630 C   0  0  0  0  0  0  0  0  0  0  0  0
  -23.0400  -30.4180   21.5610 C   0  0  0  0  0  3  0  0  0  0  0  0
  -24.4050  -29.3630   19.6900 C   0  0  0  0  0  0  0  0  0  0  0  0
  -25.4480  -31.1490   21.0970 C   0  0  0  0  0  2  0  0  0  0  0  0
  -25.5760  -29.9390   20.1990 C   0  0  0  0  0  0  0  0  0  0  0  0
  -26.8340  -29.3890   19.8810 C   0  0  0  0  0  3  0  0  0  0  0  0
  -25.7290  -27.6680   18.5580 C   0  0  0  0  0  3  0  0  0  0  0  0
  -24.4740  -28.2230   18.8710 C   0  0  0  0  0  3  0  0  0  0  0  0
  -23.0980  -30.0240   20.0630 C   0  0  0  0  0  2  0  0  0  0  0  0
  -24.2990  -31.0820   22.0310 N   0  0  0  0  0  0  0  0  0  0  0  0
  -23.3270  -31.6900   23.9860 O   0  0  0  0  0  0  0  0  0  0  0  0
  -22.6610  -29.1670   22.3860 C   0  0  0  0  0  0  0  0  0  0  0  0
  -21.3990  -28.7270   22.2550 N   0  0  0  0  0  0  0  0  0  0  0  0
  -23.4940  -28.6020   23.0980 O   0  0  0  0  0  0  0  0  0  0  0  0
  -20.7740  -29.2490   21.6550 H   0  0  0  0  0  0  0  0  0  0  0  0
  -18.4310  -26.6790   22.4720 C   0  0  0  0  0  0  0  0  0  0  0  0
  -20.8250  -27.5490   22.9040 C   0  0  0  0  0  3  0  0  0  0  0  0
  -21.3140  -26.2480   22.2270 C   0  0  0  0  0  2  0  0  0  0  0  0
  -20.3670  -25.7490   21.1310 C   0  0  0  0  0  2  0  0  0  0  0  0
  -18.9710  -25.4840   21.7050 C   0  0  0  0  0  2  0  0  0  0  0  0
  -19.3020  -27.6590   23.0200 C   0  0  0  0  0  0  0  0  0  0  0  0
  -18.7460  -28.7710   23.6900 C   0  0  0  0  0  3  0  0  0  0  0  0
  -17.3520  -28.9110   23.8210 C   0  0  0  0  0  3  0  0  0  0  0  0
  -16.4950  -27.9290   23.2920 C   0  0  0  0  0  3  0  0  0  0  0  0
  -17.0350  -26.8170   22.6220 C   0  0  0  0  0  3  0  0  0  0  0  0
  -25.6260  -32.3420   23.8130 C   0  0  0  0  0  3  0  0  0  0  0  0
  -26.2320  -31.6010   25.0690 C   0  0  1  0  0  0  0  0  0  0  0  0
  -25.1980  -31.3140   26.1830 C   0  0  0  0  0  1  0  0  0  0  0  0
  -26.8660  -30.2520   24.6530 C   0  0  0  0  0  1  0  0  0  0  0  0
  -27.3710  -32.4520   25.6780 C   0  0  0  0  0  1  0  0  0  0  0  0
  -25.2890  -33.7330   24.1440 N   0  0  0  0  0  0  0  0  0  0  0  0
  -25.6090  -34.7910   23.3880 C   0  0  0  0  0  0  0  0  0  0  0  0
  -26.2930  -34.7010   22.3630 O   0  0  0  0  0  0  0  0  0  0  0  0
  -24.6870  -33.8760   24.9420 H   0  0  0  0  0  0  0  0  0  0  0  0
  -23.8710  -36.5620   22.9910 C   0  0  0  0  0  1  0  0  0  0  0  0
  -25.0910  -36.1700   23.8390 C   0  0  0  0  0  3  0  0  0  0  0  0
  -27.1820  -37.0790   24.7490 C   0  0  0  0  0  1  0  0  0  0  0  0
  -26.1140  -37.2360   23.7660 N   0  0  0  0  0  0  0  0  0  0  0  0
  -25.6900  -38.1500   23.9030 H   0  0  0  0  0  0  0  0  0  0  0  0
  1  2  1  0
  3  5  1  0
  3  2  1  0
  4  3  1  0
  6  3  1  0
  7  6  1  0
  8  9  1  0
  8  7  1  0
 10 18  1  0
 11 16  1  0
 12 13  1  0
 12 11  1  0
 14 13  1  0
 14 23  1  0
 14 15  1  0
 16 10  1  0
 16 15  1  0
 17 10  2  0
 18  9  1  0
 18 19  1  0
 20 21  2  0
 21 22  1  0
 21 40  1  0
 22 25  1  0
 23 20  1  0
 23 24  1  0
 24 22  2  0
 25 26  1  0
 26 27  2  0
 28 27  1  0
 29 28  2  0
 30 29  1  0
 30 25  2  0
 31 28  1  0
 31 32  1  0
 32 33  2  0
 32 37  1  0
 33 34  1  0
 34 35  2  0
 35 39  1  0
 36 35  1  0
 37 36  2  0
 38 37  1  0
 40 41  1  0
 41 44  1  0
 41 43  1  0
 42 40  2  0
 45 46  1  0
 45 20  1  0
 47 45  1  0
 48  1  1  0
 49 48  1  0
 50 49  1  0
 51 50  1  0
 52 51  1  0
 53 52  1  0
 53 55  1  0
 54 65  2  0
 55 60  1  0
 56 64  1  0
 56 66  1  0
 57 63  1  0
 57 59  1  0
 58 64  1  0
 59 58  1  0
 60 59  2  0
 61 62  1  0
 61 55  2  0
 62 57  2  0
 63 56  1  0
 64 54  1  0
 66 68  2  0
 67 66  1  0
 69 67  1  0
 70 79  2  0
 70 75  1  0
 71 67  1  0
 71 75  1  0
 72 71  1  0
 73 74  1  0
 73 72  1  0
 74 70  1  0
 75 76  2  0
 76 77  1  0
 78 77  2  0
 79 78  1  0
 80 54  1  0
 80 85  1  0
 80 81  1  0
 81 84  1  1
 81 82  1  0
 83 81  1  0
 85 88  1  0
 86 90  1  0
 86 85  1  0
 87 86  2  0
 90 89  1  0
 92 90  1  0
 92 93  1  0
 92 91  1  0
M  ISO  4  10 100  18 100  52 101  53 101
M  END
>  <TORSDO>  (28) 
F 27

>  <SCORE>  (28) 
-4.283

>  <name>  (28) 
27

>  <ligand_id>  (28) 
27

>  <original_smiles>  (28) 
[H]c1c([H])c([H])c2c(c1[H])C([H])([H])C([H])([H])C([H])([H])C2([H])N([H])C(=O)C1([H])N(C(=O)C([H])(N([H])C(=O)C([H])(N([H])C([H])([H])[H])C([H])([H])[H])C(C([H])([H])[H])(C([H])([H])[H])C([H])([H])[H])C([H])([H])c2c([H])c(OC([H])([H])C([H])([H])C([H])([H])C([H])([H])OC([H])([H])C([H])([H])[N+]([H])([H])C([H])([H])C([H])([H])C([H])([H])C([H])([H])N([H])C(=O)N3C([H])([H])C([H])([H])C([H])([H])C([H])(n4nc(-c5c([H])c([H])c(Oc6c([H])c([H])c(F)c([H])c6F)c([H])c5[H])c(C(=O)N([H])[H])c4N([H])[H])C3([H])[H])c([H])c([H])c2C1([H])[H]

>  <smiles>  (28) 
[H]c1c([H])c([H])c2c(c1[H])C([H])([H])C([H])([H])C([H])([H])C2([H])N([H])C(=O)C1([H])N(C(=O)C([H])(N([H])C(=O)C([H])(N([H])C([H])([H])[H])C([H])([H])[H])C(C([H])([H])[H])(C([H])([H])[H])C([H])([H])[H])C([H])([H])c2c([H])c(OC([H])([H])C([H])([H])C([H])([H])C([H])([H])OC([H])([H])C([H])([H])[N+]([H])([H])C([H])([H])C([H])([H])C([H])([H])C([H])([H])N([H])C(=O)N3C([H])([H])C([H])([H])C([H])([H])C([H])(n4nc(-c5c([H])c([H])c(Oc6c([H])c([H])c(F)c([H])c6F)c([H])c5[H])c(C(=O)N([H])[H])c4N([H])[H])C3([H])[H])c([H])c([H])c2C1([H])[H]

$$$$
28:0:0
     RDKit          3D

105112  0  0  1  0  0  0  0  0999 V2000
  -30.1090  -22.4800   20.8970 C   0  0  0  0  0  2  0  0  0  0  0  0
  -30.1500  -21.8000   19.6030 N   0  0  0  0  0  0  0  0  0  0  0  0
  -29.4830  -21.0380   19.5850 H   0  0  0  0  0  0  0  0  0  0  0  0
  -31.4490  -21.1730   19.3890 C   0  0  0  0  0  2  0  0  0  0  0  0
  -32.5380  -22.1580   18.9190 C   0  0  0  0  0  2  0  0  0  0  0  0
  -32.3390  -22.7120   17.4950 C   0  0  0  0  0  2  0  0  0  0  0  0
  -31.2480  -23.7910   17.3970 C   0  0  0  0  0  2  0  0  0  0  0  0
  -31.2470  -24.5340   16.0490 C   0  0  0  0  0  2  0  0  0  0  0  0
  -30.1930  -25.4910   15.9390 O   0  0  0  0  0  0  0  0  0  0  0  0
  -30.2780  -26.5810   16.8550 C   0  0  0  0  0  2  0  0  0  0  0  0
  -29.2160  -26.3990   17.9510 C   0  0  0  0  0  2  0  0  0  0  0  0
  -29.4760  -27.2470   19.2040 C   0  0  0  0  0  2  0  0  0  0  0  0
  -28.5860  -26.8470   20.2400 O   0  0  0  0  0  0  0  0  0  0  0  0
  -24.5940  -31.9020   23.2470 C   0  0  0  0  0  0  0  0  0  0  0  0
  -27.4020  -27.5340   20.2460 C   0  0  0  0  0  0  0  0  0  0  0  0
  -23.4560  -30.4690   21.5790 C   0  0  0  0  0  3  0  0  0  0  0  0
  -24.9740  -28.9520   20.2070 C   0  0  0  0  0  0  0  0  0  0  0  0
  -25.9720  -30.8880   21.4360 C   0  0  0  0  0  2  0  0  0  0  0  0
  -26.1030  -29.5130   20.8180 C   0  0  0  0  0  0  0  0  0  0  0  0
  -27.3220  -28.8070   20.8440 C   0  0  0  0  0  3  0  0  0  0  0  0
  -26.2600  -26.9650   19.6500 C   0  0  0  0  0  3  0  0  0  0  0  0
  -25.0440  -27.6730   19.6240 C   0  0  0  0  0  3  0  0  0  0  0  0
  -23.7130  -29.7820   20.2120 C   0  0  0  0  0  2  0  0  0  0  0  0
  -24.6920  -31.1000   22.1480 N   0  0  0  0  0  0  0  0  0  0  0  0
  -23.4940  -32.1560   23.7580 O   0  0  0  0  0  0  0  0  0  0  0  0
  -22.8000  -29.4420   22.5280 C   0  0  0  0  0  0  0  0  0  0  0  0
  -21.4740  -29.2690   22.3940 N   0  0  0  0  0  0  0  0  0  0  0  0
  -23.4780  -28.8040   23.3360 O   0  0  0  0  0  0  0  0  0  0  0  0
  -20.9890  -29.8350   21.7110 H   0  0  0  0  0  0  0  0  0  0  0  0
  -18.0850  -28.1330   22.9000 C   0  0  0  0  0  0  0  0  0  0  0  0
  -20.6490  -28.3270   23.1480 C   0  0  0  0  0  3  0  0  0  0  0  0
  -20.7170  -26.9110   22.5300 C   0  0  0  0  0  2  0  0  0  0  0  0
  -19.5960  -26.6410   21.5220 C   0  0  0  0  0  2  0  0  0  0  0  0
  -18.2250  -26.7990   22.1870 C   0  0  0  0  0  2  0  0  0  0  0  0
  -19.2240  -28.8580   23.3370 C   0  0  0  0  0  0  0  0  0  0  0  0
  -19.0400  -30.1110   23.9630 C   0  0  0  0  0  3  0  0  0  0  0  0
  -17.7480  -30.6380   24.1530 C   0  0  0  0  0  3  0  0  0  0  0  0
  -16.6220  -29.9070   23.7340 C   0  0  0  0  0  3  0  0  0  0  0  0
  -16.7930  -28.6550   23.1140 C   0  0  0  0  0  3  0  0  0  0  0  0
  -25.8530  -32.5550   23.8990 C   0  0  0  0  0  3  0  0  0  0  0  0
  -26.3480  -31.7970   25.1910 C   0  0  1  0  0  0  0  0  0  0  0  0
  -25.2310  -31.5450   26.2310 C   0  0  0  0  0  1  0  0  0  0  0  0
  -26.9590  -30.4280   24.8140 C   0  0  0  0  0  1  0  0  0  0  0  0
  -27.4740  -32.6060   25.8760 C   0  0  0  0  0  1  0  0  0  0  0  0
  -25.5190  -33.9510   24.2070 N   0  0  0  0  0  0  0  0  0  0  0  0
  -25.8610  -34.9980   23.4450 C   0  0  0  0  0  0  0  0  0  0  0  0
  -26.5620  -34.8920   22.4340 O   0  0  0  0  0  0  0  0  0  0  0  0
  -24.8960  -34.1070   24.9860 H   0  0  0  0  0  0  0  0  0  0  0  0
  -24.1150  -36.7580   23.0220 C   0  0  0  0  0  1  0  0  0  0  0  0
  -25.3410  -36.3840   23.8710 C   0  0  0  0  0  3  0  0  0  0  0  0
  -27.4420  -37.3090   24.7400 C   0  0  0  0  0  1  0  0  0  0  0  0
  -26.3610  -37.4510   23.7680 N   0  0  0  0  0  0  0  0  0  0  0  0
  -25.9380  -38.3660   23.8990 H   0  0  0  0  0  0  0  0  0  0  0  0
  -28.9490  -23.4900   20.9550 C   0  0  0  0  0  2  0  0  0  0  0  0
  -27.6560  -22.8260   20.7130 N   0  0  0  0  0  4  0  0  0  0  0  0
  -27.4480  -22.2160   21.4900 H   0  0  0  0  0  0  0  0  0  0  0  0
  -27.7790  -22.2620   19.8900 H   0  0  0  0  0  0  0  0  0  0  0  0
  -26.5120  -23.7310   20.4570 C   0  0  0  0  0  2  0  0  0  0  0  0
  -25.3860  -22.9760   19.7320 C   0  0  0  0  0  2  0  0  0  0  0  0
  -25.8710  -22.6490   18.4300 O   0  0  0  0  0  0  0  0  0  0  0  0
  -25.7360  -21.2870   18.0460 C   0  0  0  0  0  2  0  0  0  0  0  0
  -26.9140  -20.4710   18.6050 C   0  0  0  0  0  2  0  0  0  0  0  0
  -26.9980  -19.0350   18.0640 C   0  0  0  0  0  2  0  0  0  0  0  0
  -28.3690  -18.3810   18.3270 C   0  0  0  0  0  2  0  0  0  0  0  0
  -28.6520  -18.0280   19.7990 C   0  0  0  0  0  2  0  0  0  0  0  0
  -30.1570  -17.8830   20.0760 C   0  0  0  0  0  2  0  0  0  0  0  0
  -30.4840  -17.2780   21.4540 C   0  0  0  0  0  2  0  0  0  0  0  0
  -30.8700  -14.9280   20.7590 C   0  0  0  0  0  0  0  0  0  0  0  0
  -30.7030  -12.7250   19.6770 C   0  0  0  0  0  2  0  0  0  0  0  0
  -29.8260  -12.8180   18.4110 C   0  0  0  0  0  2  0  0  0  0  0  0
  -28.3330  -12.6630   18.7560 C   0  0  0  0  0  2  0  0  0  0  0  0
  -27.8930  -13.5690   19.9360 C   0  0  0  0  0  3  0  0  0  0  0  0
  -28.8780  -13.4270   21.1180 C   0  0  0  0  0  2  0  0  0  0  0  0
  -30.2350  -13.7350   20.6320 N   0  0  0  0  0  0  0  0  0  0  0  0
  -31.9450  -15.1890   20.2120 O   0  0  0  0  0  0  0  0  0  0  0  0
  -30.1990  -15.8470   21.4630 N   0  0  0  0  0  0  0  0  0  0  0  0
  -29.3460  -15.5450   21.9100 H   0  0  0  0  0  0  0  0  0  0  0  0
  -25.4520  -14.1590   20.5140 C   0  0  0  0  0  0  0  0  0  0  0  0
  -24.3740  -13.3770   20.8300 C   0  0  0  0  0  0  0  0  0  0  0  0
  -24.8490  -12.0300   20.8230 C   0  0  0  0  0  0  0  0  0  0  0  0
  -26.5170  -13.2870   20.3400 N   0  0  0  0  0  0  0  0  0  0  0  0
  -26.1530  -12.0010   20.5780 N   0  0  0  0  0  0  0  0  0  0  0  0
  -24.1270  -10.7610   20.9750 C   0  0  0  0  0  0  0  0  0  0  0  0
  -24.5380   -9.7840   21.9100 C   0  0  0  0  0  3  0  0  0  0  0  0
  -23.8160   -8.5790   22.0490 C   0  0  0  0  0  3  0  0  0  0  0  0
  -22.6700   -8.3440   21.2540 C   0  0  0  0  0  0  0  0  0  0  0  0
  -22.2790   -9.3090   20.3090 C   0  0  0  0  0  3  0  0  0  0  0  0
  -23.0010  -10.5060   20.1680 C   0  0  0  0  0  3  0  0  0  0  0  0
  -21.9230   -7.1910   21.3040 O   0  0  0  0  0  0  0  0  0  0  0  0
  -21.8370   -6.4380   22.4480 C   0  0  0  0  0  0  0  0  0  0  0  0
  -21.3890   -6.9870   23.6700 C   0  0  0  0  0  3  0  0  0  0  0  0
  -21.2490   -6.1630   24.8040 C   0  0  0  0  0  3  0  0  0  0  0  0
  -21.5470   -4.7890   24.7170 C   0  0  0  0  0  0  0  0  0  0  0  0
  -21.9900   -4.2400   23.5010 C   0  0  0  0  0  3  0  0  0  0  0  0
  -22.1330   -5.0610   22.3700 C   0  0  0  0  0  0  0  0  0  0  0  0
  -22.5380   -4.5240   21.1940 F   0  0  0  0  0  0  0  0  0  0  0  0
  -21.4070   -3.9950   25.8040 F   0  0  0  0  0  0  0  0  0  0  0  0
  -22.9600  -13.8410   21.0330 C   0  0  0  0  0  0  0  0  0  0  0  0
  -22.2030  -13.1490   21.8780 N   0  0  0  0  0  0  0  0  0  0  0  0
  -22.5330  -14.8530   20.4810 O   0  0  0  0  0  0  0  0  0  0  0  0
  -22.5600  -12.3300   22.3480 H   0  0  0  0  0  0  0  0  0  0  0  0
  -21.2530  -13.4420   22.0550 H   0  0  0  0  0  0  0  0  0  0  0  0
  -25.6100  -15.5290   20.3410 N   0  0  0  0  0  0  0  0  0  0  0  0
  -24.8310  -16.1750   20.4110 H   0  0  0  0  0  0  0  0  0  0  0  0
  -26.4650  -15.9720   20.0320 H   0  0  0  0  0  0  0  0  0  0  0  0
  1 54  1  0
  2  1  1  0
  3  2  1  0
  4  2  1  0
  5  4  1  0
  6  5  1  0
  7  6  1  0
  8  7  1  0
  9  8  1  0
  9 10  1  0
 10 11  1  0
 11 12  1  0
 12 13  1  0
 13 15  1  0
 14 25  2  0
 15 20  1  0
 16 24  1  0
 16 26  1  0
 17 23  1  0
 17 19  1  0
 18 24  1  0
 19 20  2  0
 19 18  1  0
 21 15  2  0
 22 21  1  0
 22 17  2  0
 23 16  1  0
 24 14  1  0
 26 28  2  0
 27 26  1  0
 29 27  1  0
 30 39  2  0
 30 35  1  0
 31 27  1  0
 31 35  1  0
 32 31  1  0
 33 34  1  0
 33 32  1  0
 34 30  1  0
 35 36  2  0
 36 37  1  0
 38 37  2  0
 39 38  1  0
 40 14  1  0
 40 45  1  0
 40 41  1  0
 41 44  1  1
 41 42  1  0
 43 41  1  0
 45 48  1  0
 46 50  1  0
 46 45  1  0
 47 46  2  0
 50 49  1  0
 52 50  1  0
 52 53  1  0
 52 51  1  0
 55 54  1  0
 55 56  1  0
 57 55  1  0
 58 55  1  0
 59 58  1  0
 60 59  1  0
 61 60  1  0
 61 62  1  0
 63 64  1  0
 63 62  1  0
 64 65  1  0
 65 66  1  0
 66 67  1  0
 67 76  1  0
 68 76  1  0
 69 74  1  0
 70 71  1  0
 70 69  1  0
 72 71  1  0
 72 81  1  0
 72 73  1  0
 74 68  1  0
 74 73  1  0
 75 68  2  0
 76 77  1  0
 78 79  2  0
 79 98  1  0
 80 79  1  0
 80 83  1  0
 81 78  1  0
 81 82  1  0
 82 80  2  0
 83 84  1  0
 84 85  2  0
 86 89  1  0
 86 85  1  0
 87 86  2  0
 88 87  1  0
 88 83  2  0
 89 90  1  0
 90 91  1  0
 91 92  2  0
 93 92  1  0
 93 97  1  0
 94 93  2  0
 95 90  2  0
 95 94  1  0
 96 95  1  0
 98 99  1  0
 99102  1  0
 99101  1  0
100 98  2  0
103104  1  0
103 78  1  0
105103  1  0
M  ISO  4  12 101  13 101  68 100  76 100
M  END
>  <TORSDO>  (29) 
F 38

>  <SCORE>  (29) 
-9.556

>  <name>  (29) 
28

>  <ligand_id>  (29) 
28

>  <original_smiles>  (29) 
[H]c1c([H])c([H])c2c(c1[H])C([H])([H])C([H])([H])C([H])([H])C2([H])N([H])C(=O)C1([H])N(C(=O)C([H])(N([H])C(=O)C([H])(N([H])C([H])([H])[H])C([H])([H])[H])C(C([H])([H])[H])(C([H])([H])[H])C([H])([H])[H])C([H])([H])c2c([H])c(OC([H])([H])C([H])([H])C([H])([H])OC([H])([H])C([H])([H])C([H])([H])C([H])([H])C([H])([H])N([H])C([H])([H])C([H])([H])[N+]([H])([H])C([H])([H])C([H])([H])OC([H])([H])C([H])([H])C([H])([H])C([H])([H])C([H])([H])C([H])([H])C([H])([H])N([H])C(=O)N3C([H])([H])C([H])([H])C([H])([H])C([H])(n4nc(-c5c([H])c([H])c(Oc6c([H])c([H])c(F)c([H])c6F)c([H])c5[H])c(C(=O)N([H])[H])c4N([H])[H])C3([H])[H])c([H])c([H])c2C1([H])[H]

>  <smiles>  (29) 
[H]c1c([H])c([H])c2c(c1[H])C([H])([H])C([H])([H])C([H])([H])C2([H])N([H])C(=O)C1([H])N(C(=O)C([H])(N([H])C(=O)C([H])(N([H])C([H])([H])[H])C([H])([H])[H])C(C([H])([H])[H])(C([H])([H])[H])C([H])([H])[H])C([H])([H])c2c([H])c(OC([H])([H])C([H])([H])C([H])([H])OC([H])([H])C([H])([H])C([H])([H])C([H])([H])C([H])([H])N([H])C([H])([H])C([H])([H])[N+]([H])([H])C([H])([H])C([H])([H])OC([H])([H])C([H])([H])C([H])([H])C([H])([H])C([H])([H])C([H])([H])C([H])([H])N([H])C(=O)N3C([H])([H])C([H])([H])C([H])([H])C([H])(n4nc(-c5c([H])c([H])c(Oc6c([H])c([H])c(F)c([H])c6F)c([H])c5[H])c(C(=O)N([H])[H])c4N([H])[H])C3([H])[H])c([H])c([H])c2C1([H])[H]

$$$$
29:0:0
     RDKit          3D

 96103  0  0  1  0  0  0  0  0999 V2000
  -31.8780  -23.8130   22.4340 C   0  0  0  0  0  2  0  0  0  0  0  0
  -31.2210  -22.6140   21.7340 C   0  0  0  0  0  2  0  0  0  0  0  0
  -32.1200  -21.9270   20.6970 C   0  0  0  0  0  2  0  0  0  0  0  0
  -31.3720  -21.7130   19.3680 C   0  0  0  0  0  2  0  0  0  0  0  0
  -32.0800  -22.3240   18.2270 N   0  0  0  0  0  4  0  0  0  0  0  0
  -32.6450  -21.6240   17.7710 H   0  0  0  0  0  0  0  0  0  0  0  0
  -32.6970  -23.0300   18.5910 H   0  0  0  0  0  0  0  0  0  0  0  0
  -31.1870  -22.9510   17.2290 C   0  0  0  0  0  2  0  0  0  0  0  0
  -31.6380  -24.3850   16.9110 C   0  0  0  0  0  2  0  0  0  0  0  0
  -30.6280  -25.2090   16.0930 C   0  0  0  0  0  2  0  0  0  0  0  0
  -28.8030  -25.8150   17.6780 C   0  0  0  0  0  0  0  0  0  0  0  0
  -27.3610  -27.7510   18.1480 C   0  0  0  0  0  2  0  0  0  0  0  0
  -26.2470  -27.5300   19.1790 C   0  0  0  0  0  2  0  0  0  0  0  0
  -24.9930  -26.9670   18.4950 C   0  0  0  0  0  2  0  0  0  0  0  0
  -25.3080  -25.7260   17.6200 C   0  0  0  0  0  3  0  0  0  0  0  0
  -26.5020  -25.9880   16.6760 C   0  0  0  0  0  2  0  0  0  0  0  0
  -27.6440  -26.4800   17.4680 N   0  0  0  0  0  0  0  0  0  0  0  0
  -29.5410  -26.0080   18.6500 O   0  0  0  0  0  0  0  0  0  0  0  0
  -29.2410  -25.1940   16.5740 N   0  0  0  0  0  0  0  0  0  0  0  0
  -28.5380  -25.1000   15.8540 H   0  0  0  0  0  0  0  0  0  0  0  0
  -23.4060  -24.1040   16.9990 C   0  0  0  0  0  0  0  0  0  0  0  0
  -22.3450  -24.2230   16.1420 C   0  0  0  0  0  0  0  0  0  0  0  0
  -22.4670  -25.5130   15.5400 C   0  0  0  0  0  0  0  0  0  0  0  0
  -24.1220  -25.2860   16.8860 N   0  0  0  0  0  0  0  0  0  0  0  0
  -23.5750  -26.1140   15.9580 N   0  0  0  0  0  0  0  0  0  0  0  0
  -21.5660  -26.2310   14.6290 C   0  0  0  0  0  0  0  0  0  0  0  0
  -22.0170  -26.7350   13.3880 C   0  0  0  0  0  3  0  0  0  0  0  0
  -21.1270  -27.4060   12.5220 C   0  0  0  0  0  3  0  0  0  0  0  0
  -19.7710  -27.5770   12.8910 C   0  0  0  0  0  0  0  0  0  0  0  0
  -19.3340  -27.0940   14.1370 C   0  0  0  0  0  3  0  0  0  0  0  0
  -20.2210  -26.4300   14.9990 C   0  0  0  0  0  3  0  0  0  0  0  0
  -18.8410  -28.2390   12.1250 O   0  0  0  0  0  0  0  0  0  0  0  0
  -18.9370  -28.2850   10.7570 C   0  0  0  0  0  0  0  0  0  0  0  0
  -18.9590  -27.1120    9.9720 C   0  0  0  0  0  3  0  0  0  0  0  0
  -18.9860  -27.2070    8.5670 C   0  0  0  0  0  3  0  0  0  0  0  0
  -18.9840  -28.4690    7.9450 C   0  0  0  0  0  0  0  0  0  0  0  0
  -18.9570  -29.6390    8.7250 C   0  0  0  0  0  3  0  0  0  0  0  0
  -18.9320  -29.5470   10.1280 C   0  0  0  0  0  0  0  0  0  0  0  0
  -18.8850  -30.6750   10.8750 F   0  0  0  0  0  0  0  0  0  0  0  0
  -19.0040  -28.5620    6.5950 F   0  0  0  0  0  0  0  0  0  0  0  0
  -21.2260  -23.2370   15.9600 C   0  0  0  0  0  0  0  0  0  0  0  0
  -20.6770  -23.1500   14.7540 N   0  0  0  0  0  0  0  0  0  0  0  0
  -20.8670  -22.5030   16.8790 O   0  0  0  0  0  0  0  0  0  0  0  0
  -20.9820  -23.7430   13.9960 H   0  0  0  0  0  0  0  0  0  0  0  0
  -19.9380  -22.4820   14.5860 H   0  0  0  0  0  0  0  0  0  0  0  0
  -23.8140  -23.1030   17.8770 N   0  0  0  0  0  0  0  0  0  0  0  0
  -23.2810  -22.2520   18.0230 H   0  0  0  0  0  0  0  0  0  0  0  0
  -24.6250  -23.1690   18.4800 H   0  0  0  0  0  0  0  0  0  0  0  0
  -30.9270  -25.0180   22.4440 C   0  0  0  0  0  2  0  0  0  0  0  0
  -31.6440  -26.3720   22.3050 C   0  0  0  0  0  2  0  0  0  0  0  0
  -30.7390  -27.5040   22.5990 N   0  0  0  0  0  4  0  0  0  0  0  0
  -31.2770  -28.3540   22.5250 H   0  0  0  0  0  0  0  0  0  0  0  0
  -30.4340  -27.4250   23.5560 H   0  0  0  0  0  0  0  0  0  0  0  0
  -29.5540  -27.6210   21.7130 C   0  0  0  0  0  2  0  0  0  0  0  0
  -28.3630  -28.2390   22.4580 C   0  0  0  0  0  2  0  0  0  0  0  0
  -27.9470  -27.3190   23.4690 O   0  0  0  0  0  0  0  0  0  0  0  0
  -27.7640  -31.7010   29.0870 C   0  0  0  0  0  0  0  0  0  0  0  0
  -27.2330  -27.8530   24.5130 C   0  0  0  0  0  0  0  0  0  0  0  0
  -25.8480  -30.1480   28.8620 C   0  0  0  0  0  3  0  0  0  0  0  0
  -25.7030  -28.8900   26.6460 C   0  0  0  0  0  0  0  0  0  0  0  0
  -27.1460  -30.9290   26.8060 C   0  0  0  0  0  2  0  0  0  0  0  0
  -26.8070  -29.6010   26.1640 C   0  0  0  0  0  0  0  0  0  0  0  0
  -27.5780  -29.0870   25.1050 C   0  0  0  0  0  3  0  0  0  0  0  0
  -26.1380  -27.1270   25.0250 C   0  0  0  0  0  3  0  0  0  0  0  0
  -25.3660  -27.6430   26.0870 C   0  0  0  0  0  3  0  0  0  0  0  0
  -24.9250  -29.5270   27.7760 C   0  0  0  0  0  2  0  0  0  0  0  0
  -26.9770  -30.9410   28.2750 N   0  0  0  0  0  0  0  0  0  0  0  0
  -27.5380  -31.7860   30.3020 O   0  0  0  0  0  0  0  0  0  0  0  0
  -26.3180  -29.0220   29.8080 C   0  0  0  0  0  0  0  0  0  0  0  0
  -25.5030  -28.7250   30.8340 N   0  0  0  0  0  0  0  0  0  0  0  0
  -27.3750  -28.4200   29.6000 O   0  0  0  0  0  0  0  0  0  0  0  0
  -24.6590  -29.2710   30.9380 H   0  0  0  0  0  0  0  0  0  0  0  0
  -24.1400  -27.2290   33.8260 C   0  0  0  0  0  0  0  0  0  0  0  0
  -25.7200  -27.6760   31.8290 C   0  0  0  0  0  3  0  0  0  0  0  0
  -25.2690  -26.3000   31.2920 C   0  0  0  0  0  2  0  0  0  0  0  0
  -23.8230  -25.9520   31.6620 C   0  0  0  0  0  2  0  0  0  0  0  0
  -23.6430  -25.9440   33.1830 C   0  0  0  0  0  2  0  0  0  0  0  0
  -25.1030  -28.0510   33.1820 C   0  0  0  0  0  0  0  0  0  0  0  0
  -25.5040  -29.2520   33.8030 C   0  0  0  0  0  3  0  0  0  0  0  0
  -24.9630  -29.6360   35.0450 C   0  0  0  0  0  3  0  0  0  0  0  0
  -24.0240  -28.8100   35.6870 C   0  0  0  0  0  3  0  0  0  0  0  0
  -23.6170  -27.6080   35.0790 C   0  0  0  0  0  3  0  0  0  0  0  0
  -28.9730  -32.5180   28.5260 C   0  0  0  0  0  3  0  0  0  0  0  0
  -29.1650  -33.6810   29.4010 N   0  0  0  0  0  0  0  0  0  0  0  0
  -28.7190  -34.9150   29.1310 C   0  0  0  0  0  0  0  0  0  0  0  0
  -28.1610  -35.2090   28.0700 O   0  0  0  0  0  0  0  0  0  0  0  0
  -29.5620  -33.5030   30.3120 H   0  0  0  0  0  0  0  0  0  0  0  0
  -27.6040  -36.2320   30.9600 C   0  0  0  0  0  1  0  0  0  0  0  0
  -28.9240  -35.9980   30.2090 C   0  0  0  0  0  3  0  0  0  0  0  0
  -30.7650  -37.1780   29.0940 C   0  0  0  0  0  1  0  0  0  0  0  0
  -29.4260  -37.2800   29.6690 N   0  0  0  0  0  0  0  0  0  0  0  0
  -29.4460  -37.9930   30.3930 H   0  0  0  0  0  0  0  0  0  0  0  0
  -30.3010  -31.6730   28.4200 C   0  0  1  0  0  0  0  0  0  0  0  0
  -30.6770  -30.9430   29.7310 C   0  0  0  0  0  1  0  0  0  0  0  0
  -30.1830  -30.6090   27.3030 C   0  0  0  0  0  1  0  0  0  0  0  0
  -31.4800  -32.5940   28.0300 C   0  0  0  0  0  1  0  0  0  0  0  0
  1 49  1  0
  2  1  1  0
  3  2  1  0
  4  3  1  0
  5  7  1  0
  5  4  1  0
  6  5  1  0
  8  5  1  0
  9  8  1  0
 10 19  1  0
 10  9  1  0
 11 18  2  0
 12 13  1  0
 14 13  1  0
 15 16  1  0
 15 14  1  0
 16 17  1  0
 17 11  1  0
 17 12  1  0
 19 11  1  0
 20 19  1  0
 21 46  1  0
 22 21  2  0
 23 25  2  0
 23 22  1  0
 24 21  1  0
 24 15  1  0
 25 24  1  0
 26 31  1  0
 26 23  1  0
 27 26  2  0
 28 29  2  0
 28 27  1  0
 29 30  1  0
 30 31  2  0
 32 29  1  0
 33 32  1  0
 34 33  2  0
 35 34  1  0
 36 35  2  0
 36 37  1  0
 37 38  2  0
 38 33  1  0
 38 39  1  0
 40 36  1  0
 41 22  1  0
 41 43  2  0
 42 41  1  0
 44 42  1  0
 45 42  1  0
 46 47  1  0
 46 48  1  0
 50 49  1  0
 50 51  1  0
 51 53  1  0
 52 51  1  0
 54 55  1  0
 54 51  1  0
 55 56  1  0
 56 58  1  0
 57 68  2  0
 58 64  2  0
 58 63  1  0
 59 69  1  0
 60 66  1  0
 61 67  1  0
 62 60  1  0
 62 61  1  0
 63 62  2  0
 64 65  1  0
 65 60  2  0
 66 59  1  0
 67 59  1  0
 67 57  1  0
 69 70  1  0
 70 72  1  0
 71 69  2  0
 73 82  1  0
 74 70  1  0
 74 78  1  0
 75 76  1  0
 75 74  1  0
 76 77  1  0
 77 73  1  0
 78 79  1  0
 78 73  2  0
 79 80  2  0
 80 81  1  0
 82 81  2  0
 83 57  1  0
 83 84  1  0
 84 87  1  0
 85 84  1  0
 85 89  1  0
 86 85  2  0
 89 88  1  0
 90 91  1  0
 91 89  1  0
 91 92  1  0
 93 83  1  0
 93 94  1  1
 95 93  1  0
 96 93  1  0
M  ISO  4  11 100  19 100  55 101  56 101
M  END
>  <TORSDO>  (30) 
F 28

>  <SCORE>  (30) 
-0.045

>  <name>  (30) 
29

>  <ligand_id>  (30) 
29

>  <original_smiles>  (30) 
[H]c1c([H])c([H])c2c(c1[H])C([H])([H])C([H])([H])C([H])([H])C2([H])N([H])C(=O)C1([H])N(C(=O)C([H])(N([H])C(=O)C([H])(N([H])C([H])([H])[H])C([H])([H])[H])C(C([H])([H])[H])(C([H])([H])[H])C([H])([H])[H])C([H])([H])c2c([H])c(OC([H])([H])C([H])([H])[N+]([H])([H])C([H])([H])C([H])([H])C([H])([H])C([H])([H])C([H])([H])C([H])([H])[N+]([H])([H])C([H])([H])C([H])([H])C([H])([H])N([H])C(=O)N3C([H])([H])C([H])([H])C([H])([H])C([H])(n4nc(-c5c([H])c([H])c(Oc6c([H])c([H])c(F)c([H])c6F)c([H])c5[H])c(C(=O)N([H])[H])c4N([H])[H])C3([H])[H])c([H])c([H])c2C1([H])[H]

>  <smiles>  (30) 
[H]c1c([H])c([H])c2c(c1[H])C([H])([H])C([H])([H])C([H])([H])C2([H])N([H])C(=O)C1([H])N(C(=O)C([H])(N([H])C(=O)C([H])(N([H])C([H])([H])[H])C([H])([H])[H])C(C([H])([H])[H])(C([H])([H])[H])C([H])([H])[H])C([H])([H])c2c([H])c(OC([H])([H])C([H])([H])[N+]([H])([H])C([H])([H])C([H])([H])C([H])([H])C([H])([H])C([H])([H])C([H])([H])[N+]([H])([H])C([H])([H])C([H])([H])C([H])([H])N([H])C(=O)N3C([H])([H])C([H])([H])C([H])([H])C([H])(n4nc(-c5c([H])c([H])c(Oc6c([H])c([H])c(F)c([H])c6F)c([H])c5[H])c(C(=O)N([H])[H])c4N([H])[H])C3([H])[H])c([H])c([H])c2C1([H])[H]

$$$$
30:0:0
     RDKit          3D

103110  0  0  1  0  0  0  0  0999 V2000
  -22.0730  -24.4920   15.4430 C   0  0  0  0  0  2  0  0  0  0  0  0
  -22.4120  -25.8920   16.0020 C   0  0  0  0  0  2  0  0  0  0  0  0
  -23.1040  -26.7330   14.9970 N   0  0  0  0  0  4  0  0  0  0  0  0
  -22.4540  -27.4380   14.6870 H   0  0  0  0  0  0  0  0  0  0  0  0
  -23.3210  -26.1690   14.1910 H   0  0  0  0  0  0  0  0  0  0  0  0
  -24.3410  -27.4120   15.4560 C   0  0  0  0  0  2  0  0  0  0  0  0
  -25.4840  -26.4260   15.7800 C   0  0  0  0  0  2  0  0  0  0  0  0
  -26.7640  -27.0950   16.2950 C   0  0  0  0  0  2  0  0  0  0  0  0
  -27.5500  -26.0680   16.8850 O   0  0  0  0  0  0  0  0  0  0  0  0
  -28.6830  -26.5200   17.6180 C   0  0  0  0  0  2  0  0  0  0  0  0
  -28.6880  -25.8510   19.0130 C   0  0  0  0  0  2  0  0  0  0  0  0
  -28.4100  -26.7560   20.0840 O   0  0  0  0  0  0  0  0  0  0  0  0
  -24.5990  -31.8620   23.2200 C   0  0  0  0  0  0  0  0  0  0  0  0
  -27.1970  -27.4080   20.1270 C   0  0  0  0  0  0  0  0  0  0  0  0
  -23.3680  -30.4580   21.5960 C   0  0  0  0  0  3  0  0  0  0  0  0
  -24.7980  -28.8960   20.1760 C   0  0  0  0  0  0  0  0  0  0  0  0
  -25.8920  -30.8000   21.3740 C   0  0  0  0  0  2  0  0  0  0  0  0
  -25.9610  -29.4250   20.7470 C   0  0  0  0  0  0  0  0  0  0  0  0
  -27.1600  -28.6830   20.7280 C   0  0  0  0  0  3  0  0  0  0  0  0
  -26.0060  -26.8660   19.5950 C   0  0  0  0  0  3  0  0  0  0  0  0
  -24.8110  -27.6110   19.6070 C   0  0  0  0  0  3  0  0  0  0  0  0
  -23.5610  -29.7640   20.2200 C   0  0  0  0  0  2  0  0  0  0  0  0
  -24.6390  -31.0540   22.1230 N   0  0  0  0  0  0  0  0  0  0  0  0
  -23.5240  -32.1490   23.7650 O   0  0  0  0  0  0  0  0  0  0  0  0
  -22.7170  -29.4500   22.5670 C   0  0  0  0  0  0  0  0  0  0  0  0
  -21.3890  -29.2860   22.4510 N   0  0  0  0  0  0  0  0  0  0  0  0
  -23.4000  -28.8180   23.3780 O   0  0  0  0  0  0  0  0  0  0  0  0
  -20.9020  -29.8480   21.7680 H   0  0  0  0  0  0  0  0  0  0  0  0
  -18.0060  -28.1340   22.9770 C   0  0  0  0  0  0  0  0  0  0  0  0
  -20.5670  -28.3630   23.2320 C   0  0  0  0  0  3  0  0  0  0  0  0
  -20.6500  -26.9280   22.6630 C   0  0  0  0  0  2  0  0  0  0  0  0
  -19.5390  -26.6120   21.6570 C   0  0  0  0  0  2  0  0  0  0  0  0
  -18.1640  -26.7780   22.3080 C   0  0  0  0  0  2  0  0  0  0  0  0
  -19.1350  -28.8860   23.3960 C   0  0  0  0  0  0  0  0  0  0  0  0
  -18.9370  -30.1550   23.9790 C   0  0  0  0  0  3  0  0  0  0  0  0
  -17.6410  -30.6770   24.1460 C   0  0  0  0  0  3  0  0  0  0  0  0
  -16.5230  -29.9220   23.7430 C   0  0  0  0  0  3  0  0  0  0  0  0
  -16.7070  -28.6530   23.1670 C   0  0  0  0  0  3  0  0  0  0  0  0
  -25.8960  -32.4830   23.8270 C   0  0  0  0  0  3  0  0  0  0  0  0
  -25.5960  -33.8780   24.1740 N   0  0  0  0  0  0  0  0  0  0  0  0
  -25.9200  -34.9360   23.4190 C   0  0  0  0  0  0  0  0  0  0  0  0
  -26.5750  -34.8440   22.3780 O   0  0  0  0  0  0  0  0  0  0  0  0
  -25.0110  -34.0240   24.9850 H   0  0  0  0  0  0  0  0  0  0  0  0
  -24.1840  -36.7300   23.1090 C   0  0  0  0  0  1  0  0  0  0  0  0
  -25.4390  -36.3200   23.8950 C   0  0  0  0  0  3  0  0  0  0  0  0
  -27.5930  -37.1930   24.6890 C   0  0  0  0  0  1  0  0  0  0  0  0
  -26.4680  -37.3750   23.7740 N   0  0  0  0  0  0  0  0  0  0  0  0
  -26.0660  -38.2920   23.9460 H   0  0  0  0  0  0  0  0  0  0  0  0
  -26.4360  -31.6970   25.0840 C   0  0  1  0  0  0  0  0  0  0  0  0
  -25.3640  -31.4500   26.1700 C   0  0  0  0  0  1  0  0  0  0  0  0
  -27.0070  -30.3220   24.6650 C   0  0  0  0  0  1  0  0  0  0  0  0
  -27.6010  -32.4820   25.7340 C   0  0  0  0  0  1  0  0  0  0  0  0
  -22.2590  -23.3390   16.4500 C   0  0  0  0  0  2  0  0  0  0  0  0
  -23.7420  -22.9920   16.6740 C   0  0  0  0  0  2  0  0  0  0  0  0
  -23.9890  -21.7600   17.5580 C   0  0  0  0  0  2  0  0  0  0  0  0
  -25.4990  -21.4910   17.6950 C   0  0  0  0  0  2  0  0  0  0  0  0
  -25.8120  -20.3740   18.6090 N   0  0  0  0  0  4  0  0  0  0  0  0
  -25.4390  -20.5820   19.5210 H   0  0  0  0  0  0  0  0  0  0  0  0
  -25.3600  -19.5390   18.2720 H   0  0  0  0  0  0  0  0  0  0  0  0
  -27.2620  -20.1230   18.7320 C   0  0  0  0  0  2  0  0  0  0  0  0
  -27.5840  -18.9870   19.7160 C   0  0  0  0  0  2  0  0  0  0  0  0
  -29.0980  -18.7550   19.8410 C   0  0  0  0  0  2  0  0  0  0  0  0
  -29.4430  -17.5780   20.7610 C   0  0  0  0  0  2  0  0  0  0  0  0
  -30.9580  -17.3180   20.8230 C   0  0  0  0  0  2  0  0  0  0  0  0
  -31.3420  -16.0910   21.6720 C   0  0  0  0  0  2  0  0  0  0  0  0
  -30.9850  -14.1260   20.1700 C   0  0  0  0  0  0  0  0  0  0  0  0
  -30.4890  -12.0410   18.9500 C   0  0  0  0  0  2  0  0  0  0  0  0
  -29.5180  -12.2680   17.7760 C   0  0  0  0  0  2  0  0  0  0  0  0
  -28.0570  -12.1950   18.2550 C   0  0  0  0  0  2  0  0  0  0  0  0
  -27.7960  -13.0830   19.4990 C   0  0  0  0  0  3  0  0  0  0  0  0
  -28.8640  -12.8270   20.5860 C   0  0  0  0  0  2  0  0  0  0  0  0
  -30.2010  -13.0320   19.9950 N   0  0  0  0  0  0  0  0  0  0  0  0
  -31.9600  -14.3890   19.4610 O   0  0  0  0  0  0  0  0  0  0  0  0
  -30.6660  -14.8740   21.2330 N   0  0  0  0  0  0  0  0  0  0  0  0
  -29.8830  -14.5550   21.7850 H   0  0  0  0  0  0  0  0  0  0  0  0
  -25.4490  -13.8230   20.2630 C   0  0  0  0  0  0  0  0  0  0  0  0
  -24.3550  -13.1110   20.6770 C   0  0  0  0  0  0  0  0  0  0  0  0
  -24.7480  -11.7370   20.6540 C   0  0  0  0  0  0  0  0  0  0  0  0
  -26.4430  -12.8880   20.0180 N   0  0  0  0  0  0  0  0  0  0  0  0
  -26.0240  -11.6290   20.3080 N   0  0  0  0  0  0  0  0  0  0  0  0
  -23.9670  -10.5160   20.8880 C   0  0  0  0  0  0  0  0  0  0  0  0
  -24.3910   -9.5330   21.8090 C   0  0  0  0  0  3  0  0  0  0  0  0
  -23.6140   -8.3760   22.0290 C   0  0  0  0  0  3  0  0  0  0  0  0
  -22.3980   -8.1930   21.3290 C   0  0  0  0  0  0  0  0  0  0  0  0
  -21.9920   -9.1640   20.3960 C   0  0  0  0  0  3  0  0  0  0  0  0
  -22.7690  -10.3120   20.1740 C   0  0  0  0  0  3  0  0  0  0  0  0
  -21.5920   -7.0890   21.4580 O   0  0  0  0  0  0  0  0  0  0  0  0
  -21.5660   -6.3480   22.6130 C   0  0  0  0  0  0  0  0  0  0  0  0
  -21.2680   -6.9280   23.8650 C   0  0  0  0  0  3  0  0  0  0  0  0
  -21.1850   -6.1170   25.0150 C   0  0  0  0  0  3  0  0  0  0  0  0
  -21.3890   -4.7290   24.9140 C   0  0  0  0  0  0  0  0  0  0  0  0
  -21.6800   -4.1480   23.6670 C   0  0  0  0  0  3  0  0  0  0  0  0
  -21.7660   -4.9560   22.5190 C   0  0  0  0  0  0  0  0  0  0  0  0
  -22.0260   -4.3880   21.3170 F   0  0  0  0  0  0  0  0  0  0  0  0
  -21.3010   -3.9480   26.0170 F   0  0  0  0  0  0  0  0  0  0  0  0
  -22.9930  -13.6610   20.9850 C   0  0  0  0  0  0  0  0  0  0  0  0
  -22.2620  -13.0180   21.8890 N   0  0  0  0  0  0  0  0  0  0  0  0
  -22.5860  -14.6970   20.4600 O   0  0  0  0  0  0  0  0  0  0  0  0
  -22.6030  -12.1790   22.3350 H   0  0  0  0  0  0  0  0  0  0  0  0
  -21.3480  -13.3690   22.1390 H   0  0  0  0  0  0  0  0  0  0  0  0
  -25.6770  -15.1810   20.0580 N   0  0  0  0  0  0  0  0  0  0  0  0
  -24.9520  -15.8770   20.1890 H   0  0  0  0  0  0  0  0  0  0  0  0
  -26.5490  -15.5690   19.7250 H   0  0  0  0  0  0  0  0  0  0  0  0
  1  2  1  0
  1 53  1  0
  3  6  1  0
  3  2  1  0
  4  3  1  0
  5  3  1  0
  6  7  1  0
  7  8  1  0
  8  9  1  0
  9 10  1  0
 10 11  1  0
 11 12  1  0
 12 14  1  0
 13 24  2  0
 14 19  1  0
 15 23  1  0
 15 25  1  0
 16 22  1  0
 16 18  1  0
 17 23  1  0
 18 17  1  0
 19 18  2  0
 20 21  1  0
 20 14  2  0
 21 16  2  0
 22 15  1  0
 23 13  1  0
 25 27  2  0
 26 25  1  0
 28 26  1  0
 29 38  2  0
 29 34  1  0
 30 26  1  0
 30 34  1  0
 31 30  1  0
 32 33  1  0
 32 31  1  0
 33 29  1  0
 34 35  2  0
 35 36  1  0
 37 36  2  0
 38 37  1  0
 39 13  1  0
 39 40  1  0
 39 49  1  0
 40 43  1  0
 41 45  1  0
 41 40  1  0
 42 41  2  0
 45 44  1  0
 47 45  1  0
 47 48  1  0
 47 46  1  0
 49 52  1  1
 49 50  1  0
 51 49  1  0
 53 54  1  0
 54 55  1  0
 55 56  1  0
 56 57  1  0
 57 60  1  0
 57 58  1  0
 59 57  1  0
 60 61  1  0
 61 62  1  0
 62 63  1  0
 63 64  1  0
 64 65  1  0
 66 74  1  0
 67 72  1  0
 68 69  1  0
 68 67  1  0
 70 69  1  0
 70 79  1  0
 70 71  1  0
 72 66  1  0
 72 71  1  0
 73 66  2  0
 74 65  1  0
 74 75  1  0
 76 77  2  0
 77 96  1  0
 78 77  1  0
 78 81  1  0
 79 76  1  0
 79 80  1  0
 80 78  2  0
 81 82  1  0
 82 83  2  0
 84 87  1  0
 84 83  1  0
 85 84  2  0
 86 85  1  0
 86 81  2  0
 87 88  1  0
 88 89  1  0
 89 90  2  0
 91 90  1  0
 91 95  1  0
 92 91  2  0
 93 88  2  0
 93 92  1  0
 94 93  1  0
 96 97  1  0
 97100  1  0
 97 99  1  0
 98 96  2  0
101102  1  0
101 76  1  0
103101  1  0
M  ISO  4  11 101  12 101  66 100  74 100
M  END
>  <TORSDO>  (31) 
F 35

>  <SCORE>  (31) 
-10.114

>  <name>  (31) 
30

>  <ligand_id>  (31) 
30

>  <original_smiles>  (31) 
[H]c1c([H])c([H])c2c(c1[H])C([H])([H])C([H])([H])C([H])([H])C2([H])N([H])C(=O)C1([H])N(C(=O)C([H])(N([H])C(=O)C([H])(N([H])C([H])([H])[H])C([H])([H])[H])C(C([H])([H])[H])(C([H])([H])[H])C([H])([H])[H])C([H])([H])c2c([H])c(OC([H])([H])C([H])([H])OC([H])([H])C([H])([H])C([H])([H])[N+]([H])([H])C([H])([H])C([H])([H])C([H])([H])C([H])([H])C([H])([H])C([H])([H])[N+]([H])([H])C([H])([H])C([H])([H])C([H])([H])C([H])([H])C([H])([H])C([H])([H])N([H])C(=O)N3C([H])([H])C([H])([H])C([H])([H])C([H])(n4nc(-c5c([H])c([H])c(Oc6c([H])c([H])c(F)c([H])c6F)c([H])c5[H])c(C(=O)N([H])[H])c4N([H])[H])C3([H])[H])c([H])c([H])c2C1([H])[H]

>  <smiles>  (31) 
[H]c1c([H])c([H])c2c(c1[H])C([H])([H])C([H])([H])C([H])([H])C2([H])N([H])C(=O)C1([H])N(C(=O)C([H])(N([H])C(=O)C([H])(N([H])C([H])([H])[H])C([H])([H])[H])C(C([H])([H])[H])(C([H])([H])[H])C([H])([H])[H])C([H])([H])c2c([H])c(OC([H])([H])C([H])([H])OC([H])([H])C([H])([H])C([H])([H])[N+]([H])([H])C([H])([H])C([H])([H])C([H])([H])C([H])([H])C([H])([H])C([H])([H])[N+]([H])([H])C([H])([H])C([H])([H])C([H])([H])C([H])([H])C([H])([H])C([H])([H])N([H])C(=O)N3C([H])([H])C([H])([H])C([H])([H])C([H])(n4nc(-c5c([H])c([H])c(Oc6c([H])c([H])c(F)c([H])c6F)c([H])c5[H])c(C(=O)N([H])[H])c4N([H])[H])C3([H])[H])c([H])c([H])c2C1([H])[H]

$$$$
31:0:0
     RDKit          3D

 98105  0  0  1  0  0  0  0  0999 V2000
  -25.2590  -23.2180   20.4210 C   0  0  0  0  0  2  0  0  0  0  0  0
  -25.9530  -24.1510   21.4360 C   0  0  0  0  0  2  0  0  0  0  0  0
  -27.4770  -23.9340   21.5700 C   0  0  0  0  0  2  0  0  0  0  0  0
  -28.1330  -25.0270   22.3230 N   0  0  0  0  0  4  0  0  0  0  0  0
  -27.8990  -24.9350   23.2990 H   0  0  0  0  0  0  0  0  0  0  0  0
  -27.7660  -25.9120   22.0050 H   0  0  0  0  0  0  0  0  0  0  0  0
  -29.6090  -25.0510   22.1930 C   0  0  0  0  0  2  0  0  0  0  0  0
  -30.1730  -26.4850   22.1330 C   0  0  0  0  0  2  0  0  0  0  0  0
  -29.8680  -27.0720   20.8670 O   0  0  0  0  0  0  0  0  0  0  0  0
  -24.9940  -31.6030   23.4390 C   0  0  0  0  0  0  0  0  0  0  0  0
  -28.6190  -27.6280   20.7650 C   0  0  0  0  0  0  0  0  0  0  0  0
  -24.2290  -30.0710   21.6530 C   0  0  0  0  0  3  0  0  0  0  0  0
  -26.0610  -28.7650   20.4520 C   0  0  0  0  0  0  0  0  0  0  0  0
  -26.6810  -30.7760   21.8030 C   0  0  0  0  0  2  0  0  0  0  0  0
  -27.0380  -29.4360   21.1980 C   0  0  0  0  0  0  0  0  0  0  0  0
  -28.3190  -28.8700   21.3640 C   0  0  0  0  0  3  0  0  0  0  0  0
  -27.6370  -26.9700   19.9970 C   0  0  0  0  0  3  0  0  0  0  0  0
  -26.3540  -27.5280   19.8500 C   0  0  0  0  0  3  0  0  0  0  0  0
  -24.7180  -29.4460   20.3190 C   0  0  0  0  0  2  0  0  0  0  0  0
  -25.3110  -30.8330   22.3600 N   0  0  0  0  0  0  0  0  0  0  0  0
  -23.8230  -31.7180   23.8220 O   0  0  0  0  0  0  0  0  0  0  0  0
  -23.5980  -28.9580   22.5190 C   0  0  0  0  0  0  0  0  0  0  0  0
  -22.3870  -28.5200   22.1410 N   0  0  0  0  0  0  0  0  0  0  0  0
  -24.2060  -28.4880   23.4840 O   0  0  0  0  0  0  0  0  0  0  0  0
  -21.9520  -28.9650   21.3450 H   0  0  0  0  0  0  0  0  0  0  0  0
  -19.2400  -26.7450   22.0580 C   0  0  0  0  0  0  0  0  0  0  0  0
  -21.6190  -27.4530   22.7800 C   0  0  0  0  0  3  0  0  0  0  0  0
  -22.0760  -26.0610   22.2790 C   0  0  0  0  0  2  0  0  0  0  0  0
  -21.2500  -25.5410   21.0990 C   0  0  0  0  0  2  0  0  0  0  0  0
  -19.7700  -25.4450   21.4780 C   0  0  0  0  0  2  0  0  0  0  0  0
  -20.1110  -27.6940   22.6570 C   0  0  0  0  0  0  0  0  0  0  0  0
  -19.5700  -28.9010   23.1490 C   0  0  0  0  0  3  0  0  0  0  0  0
  -18.1900  -29.1640   23.0570 C   0  0  0  0  0  3  0  0  0  0  0  0
  -17.3320  -28.2140   22.4810 C   0  0  0  0  0  3  0  0  0  0  0  0
  -17.8560  -27.0070   21.9870 C   0  0  0  0  0  3  0  0  0  0  0  0
  -26.0860  -32.3930   24.2270 C   0  0  0  0  0  3  0  0  0  0  0  0
  -25.5980  -33.7670   24.4060 N   0  0  0  0  0  0  0  0  0  0  0  0
  -25.9180  -34.7950   23.6090 C   0  0  0  0  0  0  0  0  0  0  0  0
  -26.7220  -34.6950   22.6770 O   0  0  0  0  0  0  0  0  0  0  0  0
  -24.8940  -33.9120   25.1150 H   0  0  0  0  0  0  0  0  0  0  0  0
  -24.0370  -36.3230   22.9450 C   0  0  0  0  0  1  0  0  0  0  0  0
  -25.2390  -36.1480   23.8880 C   0  0  0  0  0  3  0  0  0  0  0  0
  -27.1640  -37.3660   24.8040 C   0  0  0  0  0  1  0  0  0  0  0  0
  -26.1530  -37.3040   23.7530 N   0  0  0  0  0  0  0  0  0  0  0  0
  -25.6320  -38.1780   23.7610 H   0  0  0  0  0  0  0  0  0  0  0  0
  -26.4450  -31.7400   25.6180 C   0  0  1  0  0  0  0  0  0  0  0  0
  -25.2110  -31.2780   26.4280 C   0  0  0  0  0  1  0  0  0  0  0  0
  -27.3620  -30.5100   25.4200 C   0  0  0  0  0  1  0  0  0  0  0  0
  -27.2430  -32.7470   26.4800 C   0  0  0  0  0  1  0  0  0  0  0  0
  -26.0510  -22.9950   19.1160 C   0  0  0  0  0  2  0  0  0  0  0  0
  -25.7140  -21.6620   18.4040 C   0  0  0  0  0  2  0  0  0  0  0  0
  -26.8160  -21.1830   17.5310 N   0  0  0  0  0  4  0  0  0  0  0  0
  -26.4890  -21.2490   16.5800 H   0  0  0  0  0  0  0  0  0  0  0  0
  -27.6040  -21.8050   17.6100 H   0  0  0  0  0  0  0  0  0  0  0  0
  -27.2600  -19.7790   17.7170 C   0  0  0  0  0  2  0  0  0  0  0  0
  -28.0880  -19.5600   19.0000 C   0  0  0  0  0  2  0  0  0  0  0  0
  -29.1570  -18.4520   18.9150 C   0  0  0  0  0  2  0  0  0  0  0  0
  -29.3470  -17.7410   20.2670 C   0  0  0  0  0  2  0  0  0  0  0  0
  -30.6970  -17.0210   20.4000 C   0  0  0  0  0  2  0  0  0  0  0  0
  -30.8970  -16.3650   21.7780 C   0  0  0  0  0  2  0  0  0  0  0  0
  -31.0660  -13.9740   21.1070 C   0  0  0  0  0  0  0  0  0  0  0  0
  -30.5050  -12.4340   19.2900 C   0  0  0  0  0  2  0  0  0  0  0  0
  -29.6810  -13.2020   18.2230 C   0  0  0  0  0  2  0  0  0  0  0  0
  -28.2390  -13.5440   18.6720 C   0  0  0  0  0  2  0  0  0  0  0  0
  -27.8660  -12.8900   20.0020 C   0  0  0  0  0  3  0  0  0  0  0  0
  -28.8860  -12.7580   21.1320 C   0  0  0  0  0  2  0  0  0  0  0  0
  -30.2360  -13.0280   20.6100 N   0  0  0  0  0  0  0  0  0  0  0  0
  -32.2450  -14.0840   20.7810 O   0  0  0  0  0  0  0  0  0  0  0  0
  -30.4400  -14.9740   21.7430 N   0  0  0  0  0  0  0  0  0  0  0  0
  -29.4680  -14.8130   21.9480 H   0  0  0  0  0  0  0  0  0  0  0  0
  -25.4730  -13.8760   20.6240 C   0  0  0  0  0  0  0  0  0  0  0  0
  -24.3470  -13.1520   20.9510 C   0  0  0  0  0  0  0  0  0  0  0  0
  -24.7320  -11.7850   20.8740 C   0  0  0  0  0  0  0  0  0  0  0  0
  -26.4610  -12.9140   20.3910 N   0  0  0  0  0  0  0  0  0  0  0  0
  -25.9930  -11.6760   20.5760 N   0  0  0  0  0  0  0  0  0  0  0  0
  -24.0020  -10.5360   21.0080 C   0  0  0  0  0  0  0  0  0  0  0  0
  -24.4940   -9.4910   21.8200 C   0  0  0  0  0  3  0  0  0  0  0  0
  -23.7820   -8.2820   21.9240 C   0  0  0  0  0  3  0  0  0  0  0  0
  -22.5710   -8.1170   21.2110 C   0  0  0  0  0  0  0  0  0  0  0  0
  -22.1080   -9.1500   20.3780 C   0  0  0  0  0  3  0  0  0  0  0  0
  -22.8200  -10.3530   20.2710 C   0  0  0  0  0  3  0  0  0  0  0  0
  -21.8120   -6.9750   21.2440 O   0  0  0  0  0  0  0  0  0  0  0  0
  -21.6860   -6.2350   22.3900 C   0  0  0  0  0  0  0  0  0  0  0  0
  -21.1920   -6.7920   23.5900 C   0  0  0  0  0  3  0  0  0  0  0  0
  -21.0180   -5.9720   24.7230 C   0  0  0  0  0  3  0  0  0  0  0  0
  -21.3260   -4.5990   24.6550 C   0  0  0  0  0  0  0  0  0  0  0  0
  -21.8120   -4.0460   23.4570 C   0  0  0  0  0  3  0  0  0  0  0  0
  -21.9890   -4.8610   22.3270 C   0  0  0  0  0  0  0  0  0  0  0  0
  -22.4400   -4.3210   21.1690 F   0  0  0  0  0  0  0  0  0  0  0  0
  -21.1490   -3.8070   25.7380 F   0  0  0  0  0  0  0  0  0  0  0  0
  -22.9650  -13.6590   21.2420 C   0  0  0  0  0  0  0  0  0  0  0  0
  -22.2180  -12.9440   22.0790 N   0  0  0  0  0  0  0  0  0  0  0  0
  -22.5510  -14.7130   20.7620 O   0  0  0  0  0  0  0  0  0  0  0  0
  -22.5620  -12.0860   22.4870 H   0  0  0  0  0  0  0  0  0  0  0  0
  -21.2870  -13.2590   22.3180 H   0  0  0  0  0  0  0  0  0  0  0  0
  -25.7160  -15.2390   20.5190 N   0  0  0  0  0  0  0  0  0  0  0  0
  -26.6200  -15.6330   20.2990 H   0  0  0  0  0  0  0  0  0  0  0  0
  -25.0090  -15.9300   20.7360 H   0  0  0  0  0  0  0  0  0  0  0  0
  1  2  1  0
  2  3  1  0
  3  4  1  0
  4  5  1  0
  6  4  1  0
  7  4  1  0
  8  7  1  0
  9  8  1  0
 10 21  2  0
 11  9  1  0
 11 16  1  0
 12 20  1  0
 12 22  1  0
 13 15  1  0
 14 20  1  0
 15 16  2  0
 15 14  1  0
 17 11  2  0
 18 17  1  0
 18 13  2  0
 19 13  1  0
 19 12  1  0
 20 10  1  0
 22 24  2  0
 23 22  1  0
 25 23  1  0
 26 31  1  0
 27 23  1  0
 28 27  1  0
 29 30  1  0
 29 28  1  0
 30 26  1  0
 31 27  1  0
 31 32  2  0
 33 32  1  0
 34 33  2  0
 35 26  2  0
 35 34  1  0
 36 10  1  0
 36 37  1  0
 36 46  1  0
 37 40  1  0
 38 42  1  0
 38 37  1  0
 39 38  2  0
 42 41  1  0
 44 45  1  0
 44 42  1  0
 44 43  1  0
 46 47  1  1
 46 49  1  0
 48 46  1  0
 50  1  1  0
 51 50  1  0
 52 54  1  0
 52 55  1  0
 52 51  1  0
 53 52  1  0
 55 56  1  0
 57 56  1  0
 57 58  1  0
 58 59  1  0
 59 60  1  0
 61 69  1  0
 62 67  1  0
 63 64  1  0
 63 62  1  0
 65 64  1  0
 65 74  1  0
 65 66  1  0
 67 61  1  0
 67 66  1  0
 68 61  2  0
 69 60  1  0
 69 70  1  0
 71 72  2  0
 72 91  1  0
 73 72  1  0
 73 76  1  0
 74 75  1  0
 74 71  1  0
 75 73  2  0
 76 77  1  0
 77 78  2  0
 79 82  1  0
 79 78  1  0
 80 79  2  0
 81 80  1  0
 81 76  2  0
 82 83  1  0
 83 84  1  0
 84 85  2  0
 86 85  1  0
 86 90  1  0
 87 86  2  0
 88 83  2  0
 88 87  1  0
 89 88  1  0
 91 92  1  0
 92 95  1  0
 92 94  1  0
 93 91  2  0
 96 71  1  0
 96 98  1  0
 97 96  1  0
M  ISO  4   8 101   9 101  61 100  69 100
M  END
>  <TORSDO>  (32) 
F 30

>  <SCORE>  (32) 
-9.795

>  <name>  (32) 
31

>  <ligand_id>  (32) 
31

>  <original_smiles>  (32) 
[H]c1c([H])c([H])c2c(c1[H])C([H])([H])C([H])([H])C([H])([H])C2([H])N([H])C(=O)C1([H])N(C(=O)C([H])(N([H])C(=O)C([H])(N([H])C([H])([H])[H])C([H])([H])[H])C(C([H])([H])[H])(C([H])([H])[H])C([H])([H])[H])C([H])([H])c2c([H])c(OC([H])([H])C([H])([H])[N+]([H])([H])C([H])([H])C([H])([H])C([H])([H])C([H])([H])C([H])([H])[N+]([H])([H])C([H])([H])C([H])([H])C([H])([H])C([H])([H])C([H])([H])C([H])([H])N([H])C(=O)N3C([H])([H])C([H])([H])C([H])([H])C([H])(n4nc(-c5c([H])c([H])c(Oc6c([H])c([H])c(F)c([H])c6F)c([H])c5[H])c(C(=O)N([H])[H])c4N([H])[H])C3([H])[H])c([H])c([H])c2C1([H])[H]

>  <smiles>  (32) 
[H]c1c([H])c([H])c2c(c1[H])C([H])([H])C([H])([H])C([H])([H])C2([H])N([H])C(=O)C1([H])N(C(=O)C([H])(N([H])C(=O)C([H])(N([H])C([H])([H])[H])C([H])([H])[H])C(C([H])([H])[H])(C([H])([H])[H])C([H])([H])[H])C([H])([H])c2c([H])c(OC([H])([H])C([H])([H])[N+]([H])([H])C([H])([H])C([H])([H])C([H])([H])C([H])([H])C([H])([H])[N+]([H])([H])C([H])([H])C([H])([H])C([H])([H])C([H])([H])C([H])([H])C([H])([H])N([H])C(=O)N3C([H])([H])C([H])([H])C([H])([H])C([H])(n4nc(-c5c([H])c([H])c(Oc6c([H])c([H])c(F)c([H])c6F)c([H])c5[H])c(C(=O)N([H])[H])c4N([H])[H])C3([H])[H])c([H])c([H])c2C1([H])[H]

$$$$
32:0:0
     RDKit          3D

 95102  0  0  1  0  0  0  0  0999 V2000
  -23.5990  -21.2330   19.1400 C   0  0  0  0  0  2  0  0  0  0  0  0
  -24.2070  -19.8810   19.0230 N   0  0  0  0  0  4  0  0  0  0  0  0
  -24.2030  -19.4130   19.9150 H   0  0  0  0  0  0  0  0  0  0  0  0
  -23.5870  -19.3570   18.4270 H   0  0  0  0  0  0  0  0  0  0  0  0
  -25.5570  -19.7890   18.4090 C   0  0  0  0  0  2  0  0  0  0  0  0
  -26.6370  -19.2930   19.4030 C   0  0  0  0  0  2  0  0  0  0  0  0
  -27.9410  -18.8230   18.7200 C   0  0  0  0  0  2  0  0  0  0  0  0
  -28.9680  -18.2060   19.6970 C   0  0  0  0  0  2  0  0  0  0  0  0
  -30.2380  -17.6680   19.0030 C   0  0  0  0  0  2  0  0  0  0  0  0
  -31.2820  -17.0520   19.9650 C   0  0  0  0  0  2  0  0  0  0  0  0
  -31.4500  -14.5440   19.8790 C   0  0  0  0  0  0  0  0  0  0  0  0
  -30.9330  -12.2230   19.2040 C   0  0  0  0  0  2  0  0  0  0  0  0
  -29.9970  -12.1890   17.9690 C   0  0  0  0  0  2  0  0  0  0  0  0
  -28.5540  -12.6670   18.2640 C   0  0  0  0  0  2  0  0  0  0  0  0
  -28.2930  -12.8430   19.7590 C   0  0  0  0  0  3  0  0  0  0  0  0
  -29.3610  -13.4290   20.6810 C   0  0  0  0  0  2  0  0  0  0  0  0
  -30.6680  -13.4400   19.9960 N   0  0  0  0  0  0  0  0  0  0  0  0
  -32.5220  -14.5420   19.2720 O   0  0  0  0  0  0  0  0  0  0  0  0
  -30.9200  -15.6850   20.3520 N   0  0  0  0  0  0  0  0  0  0  0  0
  -30.0890  -15.5780   20.9140 H   0  0  0  0  0  0  0  0  0  0  0  0
  -26.0520  -14.0780   20.4860 C   0  0  0  0  0  0  0  0  0  0  0  0
  -24.8620  -13.4780   20.8310 C   0  0  0  0  0  0  0  0  0  0  0  0
  -25.0800  -12.0760   20.6970 C   0  0  0  0  0  0  0  0  0  0  0  0
  -26.9140  -13.0160   20.1890 N   0  0  0  0  0  0  0  0  0  0  0  0
  -26.3090  -11.8320   20.3530 N   0  0  0  0  0  0  0  0  0  0  0  0
  -24.2090  -10.9160   20.7990 C   0  0  0  0  0  0  0  0  0  0  0  0
  -24.5030   -9.8610   21.6900 C   0  0  0  0  0  3  0  0  0  0  0  0
  -23.6560   -8.7400   21.7630 C   0  0  0  0  0  3  0  0  0  0  0  0
  -22.5050   -8.6740   20.9440 C   0  0  0  0  0  0  0  0  0  0  0  0
  -22.2440   -9.7100   20.0330 C   0  0  0  0  0  3  0  0  0  0  0  0
  -23.0910  -10.8250   19.9550 C   0  0  0  0  0  3  0  0  0  0  0  0
  -21.6290   -7.6210   20.9370 O   0  0  0  0  0  0  0  0  0  0  0  0
  -21.3580   -6.9140   22.0770 C   0  0  0  0  0  0  0  0  0  0  0  0
  -20.8180   -7.5290   23.2270 C   0  0  0  0  0  3  0  0  0  0  0  0
  -20.4960   -6.7480   24.3550 C   0  0  0  0  0  3  0  0  0  0  0  0
  -20.6980   -5.3550   24.3290 C   0  0  0  0  0  0  0  0  0  0  0  0
  -21.2310   -4.7420   23.1820 C   0  0  0  0  0  3  0  0  0  0  0  0
  -21.5590   -5.5200   22.0590 C   0  0  0  0  0  0  0  0  0  0  0  0
  -22.0550   -4.9270   20.9460 F   0  0  0  0  0  0  0  0  0  0  0  0
  -20.3750   -4.6020   25.4050 F   0  0  0  0  0  0  0  0  0  0  0  0
  -23.5570  -14.1280   21.1850 C   0  0  0  0  0  0  0  0  0  0  0  0
  -22.7490  -13.4570   22.0000 N   0  0  0  0  0  0  0  0  0  0  0  0
  -23.2620  -15.2450   20.7670 O   0  0  0  0  0  0  0  0  0  0  0  0
  -22.9970  -12.5430   22.3520 H   0  0  0  0  0  0  0  0  0  0  0  0
  -21.8590  -13.8590   22.2630 H   0  0  0  0  0  0  0  0  0  0  0  0
  -26.4530  -15.4060   20.3890 N   0  0  0  0  0  0  0  0  0  0  0  0
  -27.3460  -15.6740   19.9970 H   0  0  0  0  0  0  0  0  0  0  0  0
  -25.7880  -16.1680   20.4350 H   0  0  0  0  0  0  0  0  0  0  0  0
  -24.4450  -22.2490   19.9210 C   0  0  0  0  0  2  0  0  0  0  0  0
  -25.4200  -22.7990   19.0430 O   0  0  0  0  0  0  0  0  0  0  0  0
  -26.3930  -23.5890   19.7070 C   0  0  0  0  0  2  0  0  0  0  0  0
  -27.2170  -24.3170   18.6390 C   0  0  0  0  0  2  0  0  0  0  0  0
  -28.0610  -25.4670   19.2150 C   0  0  0  0  0  2  0  0  0  0  0  0
  -28.4340  -26.5230   18.1540 C   0  0  0  0  0  2  0  0  0  0  0  0
  -28.3340  -27.8490   18.6710 O   0  0  0  0  0  0  0  0  0  0  0  0
  -24.5260  -31.6080   23.3240 C   0  0  0  0  0  0  0  0  0  0  0  0
  -27.0860  -28.3750   18.9460 C   0  0  0  0  0  0  0  0  0  0  0  0
  -23.2230  -30.5020   21.5360 C   0  0  0  0  0  3  0  0  0  0  0  0
  -24.5870  -29.5190   19.6160 C   0  0  0  0  0  0  0  0  0  0  0  0
  -25.6540  -31.1880   21.1440 C   0  0  0  0  0  2  0  0  0  0  0  0
  -25.7630  -30.0210   20.1850 C   0  0  0  0  0  0  0  0  0  0  0  0
  -27.0090  -29.4490   19.8570 C   0  0  0  0  0  3  0  0  0  0  0  0
  -25.8870  -27.8920   18.3650 C   0  0  0  0  0  3  0  0  0  0  0  0
  -24.6410  -28.4510   18.7050 C   0  0  0  0  0  3  0  0  0  0  0  0
  -23.2920  -30.1900   20.0160 C   0  0  0  0  0  2  0  0  0  0  0  0
  -24.4930  -31.1010   22.0600 N   0  0  0  0  0  0  0  0  0  0  0  0
  -23.5120  -31.6200   24.0360 O   0  0  0  0  0  0  0  0  0  0  0  0
  -22.8010  -29.2170   22.2810 C   0  0  0  0  0  0  0  0  0  0  0  0
  -21.5130  -28.8540   22.1680 N   0  0  0  0  0  0  0  0  0  0  0  0
  -23.6240  -28.5570   22.9200 O   0  0  0  0  0  0  0  0  0  0  0  0
  -20.9000  -29.4600   21.6390 H   0  0  0  0  0  0  0  0  0  0  0  0
  -18.4360  -26.9800   22.3800 C   0  0  0  0  0  0  0  0  0  0  0  0
  -20.8990  -27.6630   22.7510 C   0  0  0  0  0  3  0  0  0  0  0  0
  -21.2660  -26.3970   21.9430 C   0  0  0  0  0  2  0  0  0  0  0  0
  -20.2360  -26.0570   20.8610 C   0  0  0  0  0  2  0  0  0  0  0  0
  -18.8580  -25.8250   21.4860 C   0  0  0  0  0  2  0  0  0  0  0  0
  -19.3940  -27.8520   22.9610 C   0  0  0  0  0  0  0  0  0  0  0  0
  -18.9450  -28.9330   23.7510 C   0  0  0  0  0  3  0  0  0  0  0  0
  -17.5700  -29.1450   23.9660 C   0  0  0  0  0  3  0  0  0  0  0  0
  -16.6270  -28.2680   23.4020 C   0  0  0  0  0  3  0  0  0  0  0  0
  -17.0600  -27.1870   22.6140 C   0  0  0  0  0  3  0  0  0  0  0  0
  -25.8290  -32.2170   23.9280 C   0  0  0  0  0  3  0  0  0  0  0  0
  -26.4330  -31.3520   25.1010 C   0  0  1  0  0  0  0  0  0  0  0  0
  -25.4060  -31.0040   26.2030 C   0  0  0  0  0  1  0  0  0  0  0  0
  -27.0090  -30.0240   24.5560 C   0  0  0  0  0  1  0  0  0  0  0  0
  -27.6120  -32.1070   25.7590 C   0  0  0  0  0  1  0  0  0  0  0  0
  -25.5080  -33.5730   24.3940 N   0  0  0  0  0  0  0  0  0  0  0  0
  -25.8250  -34.6950   23.7370 C   0  0  0  0  0  0  0  0  0  0  0  0
  -26.4900  -34.6990   22.6970 O   0  0  0  0  0  0  0  0  0  0  0  0
  -24.9130  -33.6430   25.2050 H   0  0  0  0  0  0  0  0  0  0  0  0
  -24.1010  -36.5140   23.5360 C   0  0  0  0  0  1  0  0  0  0  0  0
  -25.3250  -36.0250   24.3260 C   0  0  0  0  0  3  0  0  0  0  0  0
  -27.4370  -36.8200   25.2960 C   0  0  0  0  0  1  0  0  0  0  0  0
  -26.3570  -37.0840   24.3480 N   0  0  0  0  0  0  0  0  0  0  0  0
  -25.9460  -37.9860   24.5760 H   0  0  0  0  0  0  0  0  0  0  0  0
  1 49  1  0
  2  1  1  0
  2  3  1  0
  4  2  1  0
  5  2  1  0
  5  6  1  0
  7  6  1  0
  7  8  1  0
  9  8  1  0
  9 10  1  0
 10 19  1  0
 11 17  1  0
 11 19  1  0
 12 17  1  0
 13 14  1  0
 13 12  1  0
 15 14  1  0
 15 24  1  0
 15 16  1  0
 17 16  1  0
 18 11  2  0
 19 20  1  0
 21 22  2  0
 22 41  1  0
 23 26  1  0
 23 22  1  0
 24 25  1  0
 24 21  1  0
 25 23  2  0
 26 27  1  0
 27 28  2  0
 29 28  1  0
 30 29  2  0
 31 30  1  0
 31 26  2  0
 32 29  1  0
 32 33  1  0
 33 34  1  0
 34 35  2  0
 36 35  1  0
 36 40  1  0
 37 36  2  0
 38 33  2  0
 38 37  1  0
 39 38  1  0
 41 42  1  0
 42 45  1  0
 42 44  1  0
 43 41  2  0
 46 48  1  0
 46 21  1  0
 47 46  1  0
 50 51  1  0
 50 49  1  0
 52 53  1  0
 52 51  1  0
 54 55  1  0
 54 53  1  0
 55 57  1  0
 56 67  2  0
 57 62  1  0
 58 66  1  0
 58 68  1  0
 59 65  1  0
 59 61  1  0
 60 66  1  0
 61 60  1  0
 62 61  2  0
 63 64  1  0
 63 57  2  0
 64 59  2  0
 65 58  1  0
 66 56  1  0
 68 70  2  0
 69 68  1  0
 71 69  1  0
 72 81  2  0
 72 77  1  0
 73 69  1  0
 73 77  1  0
 74 73  1  0
 75 76  1  0
 75 74  1  0
 76 72  1  0
 77 78  2  0
 78 79  1  0
 80 79  2  0
 81 80  1  0
 82 56  1  0
 82 87  1  0
 82 83  1  0
 83 86  1  1
 83 84  1  0
 85 83  1  0
 87 90  1  0
 88 92  1  0
 88 87  1  0
 89 88  2  0
 92 91  1  0
 92 94  1  0
 94 95  1  0
 94 93  1  0
M  ISO  4  11 100  19 100  54 101  55 101
M  END
>  <TORSDO>  (33) 
F 29

>  <SCORE>  (33) 
-5.384

>  <name>  (33) 
32

>  <ligand_id>  (33) 
32

>  <original_smiles>  (33) 
[H]c1c([H])c([H])c2c(c1[H])C([H])([H])C([H])([H])C([H])([H])C2([H])N([H])C(=O)C1([H])N(C(=O)C([H])(N([H])C(=O)C([H])(N([H])C([H])([H])[H])C([H])([H])[H])C(C([H])([H])[H])(C([H])([H])[H])C([H])([H])[H])C([H])([H])c2c([H])c(OC([H])([H])C([H])([H])C([H])([H])C([H])([H])OC([H])([H])C([H])([H])[N+]([H])([H])C([H])([H])C([H])([H])C([H])([H])C([H])([H])C([H])([H])C([H])([H])N([H])C(=O)N3C([H])([H])C([H])([H])C([H])([H])C([H])(n4nc(-c5c([H])c([H])c(Oc6c([H])c([H])c(F)c([H])c6F)c([H])c5[H])c(C(=O)N([H])[H])c4N([H])[H])C3([H])[H])c([H])c([H])c2C1([H])[H]

>  <smiles>  (33) 
[H]c1c([H])c([H])c2c(c1[H])C([H])([H])C([H])([H])C([H])([H])C2([H])N([H])C(=O)C1([H])N(C(=O)C([H])(N([H])C(=O)C([H])(N([H])C([H])([H])[H])C([H])([H])[H])C(C([H])([H])[H])(C([H])([H])[H])C([H])([H])[H])C([H])([H])c2c([H])c(OC([H])([H])C([H])([H])C([H])([H])C([H])([H])OC([H])([H])C([H])([H])[N+]([H])([H])C([H])([H])C([H])([H])C([H])([H])C([H])([H])C([H])([H])C([H])([H])N([H])C(=O)N3C([H])([H])C([H])([H])C([H])([H])C([H])(n4nc(-c5c([H])c([H])c(Oc6c([H])c([H])c(F)c([H])c6F)c([H])c5[H])c(C(=O)N([H])[H])c4N([H])[H])C3([H])[H])c([H])c([H])c2C1([H])[H]

$$$$
33:0:0
     RDKit          3D

 98105  0  0  1  0  0  0  0  0999 V2000
  -26.5320  -22.9020   20.6040 C   0  0  0  0  0  0  0  0  0  0  0  0
  -25.5150  -22.6020   19.7830 N   0  0  0  0  0  0  0  0  0  0  0  0
  -27.3620  -22.0660   20.9660 O   0  0  0  0  0  0  0  0  0  0  0  0
  -24.8730  -23.3540   19.5590 H   0  0  0  0  0  0  0  0  0  0  0  0
  -26.6700  -24.3420   21.0780 C   0  0  0  0  0  2  0  0  0  0  0  0
  -28.0730  -24.7950   20.9670 N   0  0  0  0  0  4  0  0  0  0  0  0
  -28.2430  -25.0000   19.9940 H   0  0  0  0  0  0  0  0  0  0  0  0
  -28.6710  -24.0180   21.2120 H   0  0  0  0  0  0  0  0  0  0  0  0
  -28.3820  -25.9800   21.8020 C   0  0  0  0  0  2  0  0  0  0  0  0
  -29.6320  -26.7550   21.3270 C   0  0  0  0  0  2  0  0  0  0  0  0
  -29.8740  -27.8680   22.1970 O   0  0  0  0  0  0  0  0  0  0  0  0
  -25.8190  -30.1510   27.5650 C   0  0  0  0  0  0  0  0  0  0  0  0
  -28.7760  -28.6170   22.5580 C   0  0  0  0  0  0  0  0  0  0  0  0
  -24.9130  -30.5350   25.2970 C   0  0  0  0  0  3  0  0  0  0  0  0
  -26.5310  -30.1190   23.3740 C   0  0  0  0  0  0  0  0  0  0  0  0
  -27.4380  -30.3990   25.6890 C   0  0  0  0  0  2  0  0  0  0  0  0
  -27.5660  -29.8580   24.2810 C   0  0  0  0  0  0  0  0  0  0  0  0
  -28.6930  -29.1120   23.8760 C   0  0  0  0  0  3  0  0  0  0  0  0
  -27.7240  -28.8910   21.6530 C   0  0  0  0  0  3  0  0  0  0  0  0
  -26.6000  -29.6320   22.0600 C   0  0  0  0  0  3  0  0  0  0  0  0
  -25.3740  -30.9490   23.8770 C   0  0  0  0  0  2  0  0  0  0  0  0
  -26.0630  -30.3260   26.2360 N   0  0  0  0  0  0  0  0  0  0  0  0
  -24.6670  -30.2000   28.0160 O   0  0  0  0  0  0  0  0  0  0  0  0
  -23.9950  -29.2990   25.1720 C   0  0  0  0  0  0  0  0  0  0  0  0
  -22.8640  -29.4660   24.4680 N   0  0  0  0  0  0  0  0  0  0  0  0
  -24.3170  -28.2180   25.6730 O   0  0  0  0  0  0  0  0  0  0  0  0
  -22.6730  -30.3830   24.0930 H   0  0  0  0  0  0  0  0  0  0  0  0
  -19.8370  -28.7720   22.6210 C   0  0  0  0  0  0  0  0  0  0  0  0
  -21.8650  -28.4350   24.1870 C   0  0  0  0  0  3  0  0  0  0  0  0
  -22.3840  -27.4290   23.1320 C   0  0  0  0  0  2  0  0  0  0  0  0
  -21.9830  -27.7950   21.6980 C   0  0  0  0  0  2  0  0  0  0  0  0
  -20.4590  -27.8660   21.5720 C   0  0  0  0  0  2  0  0  0  0  0  0
  -20.5050  -29.0490   23.8420 C   0  0  0  0  0  0  0  0  0  0  0  0
  -19.8980  -29.9220   24.7720 C   0  0  0  0  0  3  0  0  0  0  0  0
  -18.6500  -30.5090   24.4990 C   0  0  0  0  0  3  0  0  0  0  0  0
  -17.9850  -30.2180   23.2950 C   0  0  0  0  0  3  0  0  0  0  0  0
  -18.5760  -29.3490   22.3610 C   0  0  0  0  0  3  0  0  0  0  0  0
  -26.9770  -29.9040   28.5840 C   0  0  0  0  0  3  0  0  0  0  0  0
  -26.9980  -31.0420   29.5100 N   0  0  0  0  0  0  0  0  0  0  0  0
  -27.8630  -32.0630   29.4410 C   0  0  0  0  0  0  0  0  0  0  0  0
  -28.7840  -32.1060   28.6200 O   0  0  0  0  0  0  0  0  0  0  0  0
  -26.2390  -31.1000   30.1750 H   0  0  0  0  0  0  0  0  0  0  0  0
  -26.9890  -34.4010   29.7400 C   0  0  0  0  0  1  0  0  0  0  0  0
  -27.6790  -33.2180   30.4410 C   0  0  0  0  0  3  0  0  0  0  0  0
  -29.5420  -32.6860   31.9490 C   0  0  0  0  0  1  0  0  0  0  0  0
  -28.9460  -33.6750   31.0530 N   0  0  0  0  0  0  0  0  0  0  0  0
  -28.8050  -34.5340   31.5770 H   0  0  0  0  0  0  0  0  0  0  0  0
  -26.8320  -28.5430   29.3680 C   0  0  1  0  0  0  0  0  0  0  0  0
  -25.4200  -28.3080   29.9530 C   0  0  0  0  0  1  0  0  0  0  0  0
  -27.1680  -27.3460   28.4490 C   0  0  0  0  0  1  0  0  0  0  0  0
  -27.8490  -28.5010   30.5350 C   0  0  0  0  0  1  0  0  0  0  0  0
  -25.1730  -21.2950   19.2040 C   0  0  0  0  0  2  0  0  0  0  0  0
  -25.4470  -21.1760   17.6870 C   0  0  0  0  0  2  0  0  0  0  0  0
  -26.7880  -21.6880   17.3530 N   0  0  0  0  0  4  0  0  0  0  0  0
  -26.6990  -22.7010   17.3000 H   0  0  0  0  0  0  0  0  0  0  0  0
  -27.4000  -21.4930   18.1260 H   0  0  0  0  0  0  0  0  0  0  0  0
  -27.4040  -21.1710   16.1160 C   0  0  0  0  0  2  0  0  0  0  0  0
  -28.8100  -21.7790   15.9280 C   0  0  0  0  0  2  0  0  0  0  0  0
  -29.9400  -20.9500   16.5470 C   0  0  0  0  0  2  0  0  0  0  0  0
  -31.0580  -21.8210   17.1660 C   0  0  0  0  0  2  0  0  0  0  0  0
  -31.9860  -21.1200   19.3760 C   0  0  0  0  0  0  0  0  0  0  0  0
  -32.3370  -19.7370   21.3950 C   0  0  0  0  0  2  0  0  0  0  0  0
  -32.5170  -18.2550   21.0120 C   0  0  0  0  0  2  0  0  0  0  0  0
  -31.1540  -17.5470   20.8800 C   0  0  0  0  0  2  0  0  0  0  0  0
  -30.1730  -18.3300   19.9690 C   0  0  0  0  0  3  0  0  0  0  0  0
  -30.1130  -19.8070   20.4110 C   0  0  0  0  0  2  0  0  0  0  0  0
  -31.4780  -20.3780   20.3900 N   0  0  0  0  0  0  0  0  0  0  0  0
  -33.1940  -21.3080   19.1810 O   0  0  0  0  0  0  0  0  0  0  0  0
  -31.0370  -21.6630   18.6130 N   0  0  0  0  0  0  0  0  0  0  0  0
  -30.1180  -21.6260   19.0290 H   0  0  0  0  0  0  0  0  0  0  0  0
  -27.6250  -18.2630   19.5860 C   0  0  0  0  0  0  0  0  0  0  0  0
  -26.7110  -17.2520   19.7030 C   0  0  0  0  0  0  0  0  0  0  0  0
  -27.4450  -16.1060   20.1370 C   0  0  0  0  0  0  0  0  0  0  0  0
  -28.8460  -17.7180   19.9560 N   0  0  0  0  0  0  0  0  0  0  0  0
  -28.7180  -16.4220   20.3340 N   0  0  0  0  0  0  0  0  0  0  0  0
  -27.0220  -14.7130   20.3190 C   0  0  0  0  0  0  0  0  0  0  0  0
  -26.6690  -14.2100   21.5900 C   0  0  0  0  0  3  0  0  0  0  0  0
  -26.2470  -12.8710   21.7390 C   0  0  0  0  0  3  0  0  0  0  0  0
  -26.1710  -12.0220   20.6090 C   0  0  0  0  0  0  0  0  0  0  0  0
  -26.5460  -12.5210   19.3490 C   0  0  0  0  0  3  0  0  0  0  0  0
  -26.9710  -13.8530   19.2040 C   0  0  0  0  0  3  0  0  0  0  0  0
  -25.7970  -10.7000   20.6610 O   0  0  0  0  0  0  0  0  0  0  0  0
  -24.6300  -10.3050   21.2620 C   0  0  0  0  0  0  0  0  0  0  0  0
  -23.3680  -10.7270   20.7910 C   0  0  0  0  0  3  0  0  0  0  0  0
  -22.1900  -10.2410   21.3940 C   0  0  0  0  0  3  0  0  0  0  0  0
  -22.2730   -9.3290   22.4640 C   0  0  0  0  0  0  0  0  0  0  0  0
  -23.5280   -8.9030   22.9310 C   0  0  0  0  0  3  0  0  0  0  0  0
  -24.7030   -9.3880   22.3300 C   0  0  0  0  0  0  0  0  0  0  0  0
  -25.9100   -8.9570   22.7720 F   0  0  0  0  0  0  0  0  0  0  0  0
  -21.1430   -8.8560   23.0400 F   0  0  0  0  0  0  0  0  0  0  0  0
  -25.2560  -17.3160   19.3390 C   0  0  0  0  0  0  0  0  0  0  0  0
  -24.4200  -16.5450   20.0250 N   0  0  0  0  0  0  0  0  0  0  0  0
  -24.8460  -18.0850   18.4700 O   0  0  0  0  0  0  0  0  0  0  0  0
  -24.7540  -15.9290   20.7500 H   0  0  0  0  0  0  0  0  0  0  0  0
  -23.4320  -16.5750   19.8170 H   0  0  0  0  0  0  0  0  0  0  0  0
  -27.5270  -19.5900   19.1780 N   0  0  0  0  0  0  0  0  0  0  0  0
  -26.6750  -19.9370   18.7530 H   0  0  0  0  0  0  0  0  0  0  0  0
  -28.3350  -20.1710   18.9860 H   0  0  0  0  0  0  0  0  0  0  0  0
  1  3  2  0
  1  5  1  0
  2  1  1  0
  4  2  1  0
  6  5  1  0
  6  8  1  0
  6  9  1  0
  7  6  1  0
 10  9  1  0
 10 11  1  0
 11 13  1  0
 12 23  2  0
 13 18  1  0
 14 24  1  0
 14 22  1  0
 15 21  1  0
 15 17  1  0
 16 22  1  0
 17 16  1  0
 18 17  2  0
 19 20  1  0
 19 13  2  0
 20 15  2  0
 21 14  1  0
 22 12  1  0
 24 26  2  0
 25 24  1  0
 27 25  1  0
 28 33  1  0
 29 25  1  0
 30 29  1  0
 31 30  1  0
 32 31  1  0
 32 28  1  0
 33 29  1  0
 33 34  2  0
 35 34  1  0
 36 35  2  0
 37 28  2  0
 37 36  1  0
 38 12  1  0
 38 48  1  0
 38 39  1  0
 39 42  1  0
 40 39  1  0
 40 44  1  0
 41 40  2  0
 44 43  1  0
 44 46  1  0
 46 47  1  0
 46 45  1  0
 48 49  1  1
 48 51  1  0
 50 48  1  0
 52  2  1  0
 53 52  1  0
 54 53  1  0
 54 56  1  0
 55 54  1  0
 57 54  1  0
 58 57  1  0
 58 59  1  0
 59 60  1  0
 60 69  1  0
 61 67  1  0
 63 62  1  0
 64 63  1  0
 65 74  1  0
 65 66  1  0
 65 64  1  0
 67 66  1  0
 67 62  1  0
 68 61  2  0
 69 70  1  0
 69 61  1  0
 71 72  2  0
 71 74  1  0
 72 73  1  0
 73 76  1  0
 73 75  2  0
 74 75  1  0
 76 77  1  0
 77 78  2  0
 79 82  1  0
 79 78  1  0
 80 79  2  0
 81 80  1  0
 81 76  2  0
 82 83  1  0
 83 88  1  0
 84 83  2  0
 84 85  1  0
 85 86  2  0
 86 87  1  0
 86 90  1  0
 88 89  1  0
 88 87  2  0
 91 72  1  0
 91 92  1  0
 92 94  1  0
 93 91  2  0
 95 92  1  0
 96 71  1  0
 97 96  1  0
 98 96  1  0
M  ISO  4  10 101  11 101  61 100  69 100
M  END
>  <TORSDO>  (34) 
F 27

>  <SCORE>  (34) 
1.675

>  <name>  (34) 
33

>  <ligand_id>  (34) 
33

>  <original_smiles>  (34) 
[H]c1c([H])c([H])c2c(c1[H])C([H])([H])C([H])([H])C([H])([H])C2([H])N([H])C(=O)C1([H])N(C(=O)C([H])(N([H])C(=O)C([H])(N([H])C([H])([H])[H])C([H])([H])[H])C(C([H])([H])[H])(C([H])([H])[H])C([H])([H])[H])C([H])([H])c2c([H])c(OC([H])([H])C([H])([H])[N+]([H])([H])C([H])([H])C(=O)N([H])C([H])([H])C([H])([H])[N+]([H])([H])C([H])([H])C([H])([H])C([H])([H])C([H])([H])N([H])C(=O)N3C([H])([H])C([H])([H])C([H])([H])C([H])(n4nc(-c5c([H])c([H])c(Oc6c([H])c([H])c(F)c([H])c6F)c([H])c5[H])c(C(=O)N([H])[H])c4N([H])[H])C3([H])[H])c([H])c([H])c2C1([H])[H]

>  <smiles>  (34) 
[H]c1c([H])c([H])c2c(c1[H])C([H])([H])C([H])([H])C([H])([H])C2([H])N([H])C(=O)C1([H])N(C(=O)C([H])(N([H])C(=O)C([H])(N([H])C([H])([H])[H])C([H])([H])[H])C(C([H])([H])[H])(C([H])([H])[H])C([H])([H])[H])C([H])([H])c2c([H])c(OC([H])([H])C([H])([H])[N+]([H])([H])C([H])([H])C(=O)N([H])C([H])([H])C([H])([H])[N+]([H])([H])C([H])([H])C([H])([H])C([H])([H])C([H])([H])N([H])C(=O)N3C([H])([H])C([H])([H])C([H])([H])C([H])(n4nc(-c5c([H])c([H])c(Oc6c([H])c([H])c(F)c([H])c6F)c([H])c5[H])c(C(=O)N([H])[H])c4N([H])[H])C3([H])[H])c([H])c([H])c2C1([H])[H]

$$$$
34:0:0
     RDKit          3D

 96103  0  0  1  0  0  0  0  0999 V2000
  -28.9000  -21.2830   23.4880 C   0  0  0  0  0  2  0  0  0  0  0  0
  -30.1740  -20.9870   24.3040 C   0  0  0  0  0  2  0  0  0  0  0  0
  -31.3480  -20.4090   23.4900 C   0  0  0  0  0  2  0  0  0  0  0  0
  -31.0940  -18.9960   22.9390 C   0  0  0  0  0  2  0  0  0  0  0  0
  -31.9650  -18.6810   21.7110 C   0  0  0  0  0  2  0  0  0  0  0  0
  -32.1720  -17.2270   21.5560 N   0  0  0  0  0  4  0  0  0  0  0  0
  -31.3550  -16.7460   21.8870 H   0  0  0  0  0  0  0  0  0  0  0  0
  -32.9490  -16.9590   22.1390 H   0  0  0  0  0  0  0  0  0  0  0  0
  -32.4310  -16.7800   20.1720 C   0  0  0  0  0  2  0  0  0  0  0  0
  -33.0240  -15.3600   20.1240 C   0  0  0  0  0  2  0  0  0  0  0  0
  -32.1460  -13.0800   19.6440 C   0  0  0  0  0  0  0  0  0  0  0  0
  -31.9000  -10.7530   20.3930 C   0  0  0  0  0  2  0  0  0  0  0  0
  -31.0420   -9.8530   19.4930 C   0  0  0  0  0  2  0  0  0  0  0  0
  -29.5580   -9.9730   19.8690 C   0  0  0  0  0  2  0  0  0  0  0  0
  -29.0840  -11.4470   19.9340 C   0  0  0  0  0  3  0  0  0  0  0  0
  -30.0450  -12.3100   20.7840 C   0  0  0  0  0  2  0  0  0  0  0  0
  -31.4230  -12.1370   20.2890 N   0  0  0  0  0  0  0  0  0  0  0  0
  -33.0440  -12.8290   18.8350 O   0  0  0  0  0  0  0  0  0  0  0  0
  -32.0160  -14.2950   20.1920 N   0  0  0  0  0  0  0  0  0  0  0  0
  -31.3400  -14.3420   20.9410 H   0  0  0  0  0  0  0  0  0  0  0  0
  -26.9220  -12.6540   20.6470 C   0  0  0  0  0  0  0  0  0  0  0  0
  -25.6890  -12.1840   21.0150 C   0  0  0  0  0  0  0  0  0  0  0  0
  -25.7850  -10.7590   20.9770 C   0  0  0  0  0  0  0  0  0  0  0  0
  -27.7040  -11.5340   20.4150 N   0  0  0  0  0  0  0  0  0  0  0  0
  -27.0200  -10.3880   20.6680 N   0  0  0  0  0  0  0  0  0  0  0  0
  -24.7550   -9.7270   21.1640 C   0  0  0  0  0  0  0  0  0  0  0  0
  -24.7220   -8.9180   22.3220 C   0  0  0  0  0  3  0  0  0  0  0  0
  -23.7120   -7.9460   22.4850 C   0  0  0  0  0  3  0  0  0  0  0  0
  -22.7200   -7.7770   21.4890 C   0  0  0  0  0  0  0  0  0  0  0  0
  -22.7720   -8.5690   20.3300 C   0  0  0  0  0  3  0  0  0  0  0  0
  -23.7810   -9.5330   20.1650 C   0  0  0  0  0  3  0  0  0  0  0  0
  -21.7160   -6.8400   21.5510 O   0  0  0  0  0  0  0  0  0  0  0  0
  -21.0160   -6.6110   22.7090 C   0  0  0  0  0  0  0  0  0  0  0  0
  -20.2700   -7.6300   23.3410 C   0  0  0  0  0  3  0  0  0  0  0  0
  -19.5090   -7.3350   24.4890 C   0  0  0  0  0  3  0  0  0  0  0  0
  -19.4840   -6.0230   25.0010 C   0  0  0  0  0  0  0  0  0  0  0  0
  -20.2230   -5.0070   24.3700 C   0  0  0  0  0  3  0  0  0  0  0  0
  -20.9840   -5.3000   23.2250 C   0  0  0  0  0  0  0  0  0  0  0  0
  -21.6770   -4.3130   22.6080 F   0  0  0  0  0  0  0  0  0  0  0  0
  -18.7470   -5.7370   26.1000 F   0  0  0  0  0  0  0  0  0  0  0  0
  -24.4640  -13.0060   21.2910 C   0  0  0  0  0  0  0  0  0  0  0  0
  -23.6210  -12.5590   22.2170 N   0  0  0  0  0  0  0  0  0  0  0  0
  -24.2710  -14.0800   20.7220 O   0  0  0  0  0  0  0  0  0  0  0  0
  -23.7880  -11.6880   22.6990 H   0  0  0  0  0  0  0  0  0  0  0  0
  -22.7960  -13.0950   22.4450 H   0  0  0  0  0  0  0  0  0  0  0  0
  -27.4360  -13.9360   20.4740 N   0  0  0  0  0  0  0  0  0  0  0  0
  -26.8680  -14.7680   20.5880 H   0  0  0  0  0  0  0  0  0  0  0  0
  -28.3730  -14.1380   20.1480 H   0  0  0  0  0  0  0  0  0  0  0  0
  -29.1590  -22.0240   22.1620 C   0  0  0  0  0  2  0  0  0  0  0  0
  -27.9410  -22.1140   21.3330 N   0  0  0  0  0  4  0  0  0  0  0  0
  -27.2810  -22.7080   21.8100 H   0  0  0  0  0  0  0  0  0  0  0  0
  -27.5270  -21.1970   21.2540 H   0  0  0  0  0  0  0  0  0  0  0  0
  -28.1710  -22.6610   19.9790 C   0  0  0  0  0  2  0  0  0  0  0  0
  -26.8510  -22.8980   19.2250 C   0  0  0  0  0  2  0  0  0  0  0  0
  -27.0260  -23.7600   17.9650 C   0  0  0  0  0  2  0  0  0  0  0  0
  -25.7680  -23.9600   17.3340 O   0  0  0  0  0  0  0  0  0  0  0  0
  -24.1260  -27.2750   23.4300 C   0  0  0  0  0  0  0  0  0  0  0  0
  -24.8670  -24.7010   18.0570 C   0  0  0  0  0  0  0  0  0  0  0  0
  -22.3070  -27.1070   21.7580 C   0  0  0  0  0  3  0  0  0  0  0  0
  -23.0060  -26.2980   19.4430 C   0  0  0  0  0  0  0  0  0  0  0  0
  -24.7570  -27.1260   21.0280 C   0  0  0  0  0  2  0  0  0  0  0  0
  -24.3470  -26.2740   19.8490 C   0  0  0  0  0  0  0  0  0  0  0  0
  -25.2820  -25.4720   19.1610 C   0  0  0  0  0  3  0  0  0  0  0  0
  -23.5190  -24.7360   17.6510 C   0  0  0  0  0  3  0  0  0  0  0  0
  -22.5820  -25.5220   18.3490 C   0  0  0  0  0  3  0  0  0  0  0  0
  -22.0730  -27.1930   20.2270 C   0  0  0  0  0  2  0  0  0  0  0  0
  -23.7610  -27.1520   22.1220 N   0  0  0  0  0  0  0  0  0  0  0  0
  -23.2760  -27.3970   24.3230 O   0  0  0  0  0  0  0  0  0  0  0  0
  -21.5820  -25.8540   22.2950 C   0  0  0  0  0  0  0  0  0  0  0  0
  -20.2640  -25.7760   22.0490 N   0  0  0  0  0  0  0  0  0  0  0  0
  -22.2030  -24.9680   22.8890 O   0  0  0  0  0  0  0  0  0  0  0  0
  -19.8290  -26.5490   21.5650 H   0  0  0  0  0  0  0  0  0  0  0  0
  -16.9930  -24.3510   21.4890 C   0  0  0  0  0  0  0  0  0  0  0  0
  -19.3810  -24.6730   22.4240 C   0  0  0  0  0  3  0  0  0  0  0  0
  -19.7460  -23.3810   21.6540 C   0  0  0  0  0  2  0  0  0  0  0  0
  -18.9440  -23.2020   20.3610 C   0  0  0  0  0  2  0  0  0  0  0  0
  -17.4430  -23.1590   20.6590 C   0  0  0  0  0  2  0  0  0  0  0  0
  -17.9060  -25.0700   22.3050 C   0  0  0  0  0  0  0  0  0  0  0  0
  -17.4420  -26.1900   23.0280 C   0  0  0  0  0  3  0  0  0  0  0  0
  -16.0940  -26.5880   22.9520 C   0  0  0  0  0  3  0  0  0  0  0  0
  -15.1910  -25.8630   22.1560 C   0  0  0  0  0  3  0  0  0  0  0  0
  -15.6400  -24.7460   21.4300 C   0  0  0  0  0  3  0  0  0  0  0  0
  -25.6270  -27.2940   23.8620 C   0  0  0  0  0  3  0  0  0  0  0  0
  -25.7320  -28.1420   25.0550 N   0  0  0  0  0  0  0  0  0  0  0  0
  -26.3440  -29.3330   25.0900 C   0  0  0  0  0  0  0  0  0  0  0  0
  -26.9500  -29.8030   24.1230 O   0  0  0  0  0  0  0  0  0  0  0  0
  -25.2100  -27.8450   25.8670 H   0  0  0  0  0  0  0  0  0  0  0  0
  -25.2870  -31.3010   26.2490 C   0  0  0  0  0  1  0  0  0  0  0  0
  -26.2710  -30.1310   26.4060 C   0  0  0  0  0  3  0  0  0  0  0  0
  -28.4940  -29.5850   27.2910 C   0  0  0  0  0  1  0  0  0  0  0  0
  -27.5840  -30.6410   26.8570 N   0  0  0  0  0  0  0  0  0  0  0  0
  -27.4710  -31.2980   27.6250 H   0  0  0  0  0  0  0  0  0  0  0  0
  -26.2120  -25.8550   24.1450 C   0  0  1  0  0  0  0  0  0  0  0  0
  -25.3570  -25.0190   25.1270 C   0  0  0  0  0  1  0  0  0  0  0  0
  -26.3460  -25.0490   22.8320 C   0  0  0  0  0  1  0  0  0  0  0  0
  -27.6370  -25.9760   24.7360 C   0  0  0  0  0  1  0  0  0  0  0  0
  1  2  1  0
  3  2  1  0
  4  3  1  0
  5  4  1  0
  6  5  1  0
  6  7  1  0
  6  8  1  0
  9  6  1  0
 10  9  1  0
 10 19  1  0
 11 19  1  0
 11 17  1  0
 13 14  1  0
 13 12  1  0
 15 14  1  0
 15 24  1  0
 15 16  1  0
 17 12  1  0
 17 16  1  0
 18 11  2  0
 19 20  1  0
 21 22  2  0
 22 41  1  0
 23 22  1  0
 23 26  1  0
 24 21  1  0
 24 25  1  0
 25 23  2  0
 26 27  1  0
 27 28  2  0
 29 32  1  0
 29 28  1  0
 30 29  2  0
 31 30  1  0
 31 26  2  0
 32 33  1  0
 33 38  2  0
 33 34  1  0
 34 35  2  0
 35 36  1  0
 36 40  1  0
 37 36  2  0
 38 37  1  0
 39 38  1  0
 41 42  1  0
 42 45  1  0
 42 44  1  0
 43 41  2  0
 46 47  1  0
 46 21  1  0
 48 46  1  0
 49  1  1  0
 50 51  1  0
 50 49  1  0
 52 50  1  0
 53 50  1  0
 54 53  1  0
 55 54  1  0
 56 55  1  0
 56 58  1  0
 57 68  2  0
 58 63  1  0
 59 67  1  0
 59 69  1  0
 60 62  1  0
 60 66  1  0
 61 67  1  0
 62 61  1  0
 63 62  2  0
 64 58  2  0
 64 65  1  0
 65 60  2  0
 66 59  1  0
 67 57  1  0
 69 71  2  0
 70 69  1  0
 72 70  1  0
 73 78  1  0
 74 70  1  0
 75 74  1  0
 76 77  1  0
 76 75  1  0
 77 73  1  0
 78 74  1  0
 78 79  2  0
 80 79  1  0
 81 80  2  0
 82 73  2  0
 82 81  1  0
 83 57  1  0
 83 93  1  0
 83 84  1  0
 84 85  1  0
 84 87  1  0
 85 89  1  0
 86 85  2  0
 89 88  1  0
 89 91  1  0
 91 90  1  0
 91 92  1  0
 93 96  1  1
 93 94  1  0
 95 93  1  0
M  ISO  4  11 100  19 100  55 101  56 101
M  END
>  <TORSDO>  (35) 
F 28

>  <SCORE>  (35) 
-2.289

>  <name>  (35) 
34

>  <ligand_id>  (35) 
34

>  <original_smiles>  (35) 
[H]c1c([H])c([H])c2c(c1[H])C([H])([H])C([H])([H])C([H])([H])C2([H])N([H])C(=O)C1([H])N(C(=O)C([H])(N([H])C(=O)C([H])(N([H])C([H])([H])[H])C([H])([H])[H])C(C([H])([H])[H])(C([H])([H])[H])C([H])([H])[H])C([H])([H])c2c([H])c(OC([H])([H])C([H])([H])C([H])([H])[N+]([H])([H])C([H])([H])C([H])([H])C([H])([H])C([H])([H])C([H])([H])C([H])([H])[N+]([H])([H])C([H])([H])C([H])([H])N([H])C(=O)N3C([H])([H])C([H])([H])C([H])([H])C([H])(n4nc(-c5c([H])c([H])c(Oc6c([H])c([H])c(F)c([H])c6F)c([H])c5[H])c(C(=O)N([H])[H])c4N([H])[H])C3([H])[H])c([H])c([H])c2C1([H])[H]

>  <smiles>  (35) 
[H]c1c([H])c([H])c2c(c1[H])C([H])([H])C([H])([H])C([H])([H])C2([H])N([H])C(=O)C1([H])N(C(=O)C([H])(N([H])C(=O)C([H])(N([H])C([H])([H])[H])C([H])([H])[H])C(C([H])([H])[H])(C([H])([H])[H])C([H])([H])[H])C([H])([H])c2c([H])c(OC([H])([H])C([H])([H])C([H])([H])[N+]([H])([H])C([H])([H])C([H])([H])C([H])([H])C([H])([H])C([H])([H])C([H])([H])[N+]([H])([H])C([H])([H])C([H])([H])N([H])C(=O)N3C([H])([H])C([H])([H])C([H])([H])C([H])(n4nc(-c5c([H])c([H])c(Oc6c([H])c([H])c(F)c([H])c6F)c([H])c5[H])c(C(=O)N([H])[H])c4N([H])[H])C3([H])[H])c([H])c([H])c2C1([H])[H]

$$$$
35:0:0
     RDKit          3D

 94101  0  0  1  0  0  0  0  0999 V2000
  -29.7130  -21.8030   24.1200 C   0  0  0  0  0  2  0  0  0  0  0  0
  -29.8200  -23.2380   23.8880 N   0  0  0  0  0  0  0  0  0  0  0  0
  -29.1350  -23.7350   24.4570 H   0  0  0  0  0  0  0  0  0  0  0  0
  -29.5840  -23.5680   22.4880 C   0  0  0  0  0  2  0  0  0  0  0  0
  -30.4620  -24.7670   22.1080 C   0  0  0  0  0  2  0  0  0  0  0  0
  -30.1430  -25.2630   20.6950 C   0  0  0  0  0  2  0  0  0  0  0  0
  -30.9520  -26.5070   20.2940 C   0  0  0  0  0  2  0  0  0  0  0  0
  -30.4060  -27.0750   19.1060 O   0  0  0  0  0  0  0  0  0  0  0  0
  -25.5390  -30.3850   23.0940 C   0  0  0  0  0  0  0  0  0  0  0  0
  -29.1090  -27.4980   19.2380 C   0  0  0  0  0  0  0  0  0  0  0  0
  -24.6710  -29.1210   21.1480 C   0  0  0  0  0  3  0  0  0  0  0  0
  -26.4260  -28.3170   19.4800 C   0  0  0  0  0  0  0  0  0  0  0  0
  -27.0250  -30.1120   21.1180 C   0  0  0  0  0  2  0  0  0  0  0  0
  -27.4260  -28.9690   20.2130 C   0  0  0  0  0  0  0  0  0  0  0  0
  -28.7690  -28.5610   20.1010 C   0  0  0  0  0  3  0  0  0  0  0  0
  -28.1020  -26.8540   18.4950 C   0  0  0  0  0  3  0  0  0  0  0  0
  -26.7570  -27.2530   18.6200 C   0  0  0  0  0  3  0  0  0  0  0  0
  -25.0120  -28.8200   19.6630 C   0  0  0  0  0  2  0  0  0  0  0  0
  -25.7600  -29.8760   21.8490 N   0  0  0  0  0  0  0  0  0  0  0  0
  -24.4350  -30.2690   23.6450 O   0  0  0  0  0  0  0  0  0  0  0  0
  -24.3010  -27.7940   21.8480 C   0  0  0  0  0  0  0  0  0  0  0  0
  -23.0820  -27.2990   21.5800 N   0  0  0  0  0  0  0  0  0  0  0  0
  -25.1060  -27.2220   22.5860 O   0  0  0  0  0  0  0  0  0  0  0  0
  -22.4820  -27.8310   20.9640 H   0  0  0  0  0  0  0  0  0  0  0  0
  -20.1560  -25.1800   21.5510 C   0  0  0  0  0  0  0  0  0  0  0  0
  -22.5280  -26.0480   22.0970 C   0  0  0  0  0  3  0  0  0  0  0  0
  -23.0480  -24.8390   21.2860 C   0  0  0  0  0  2  0  0  0  0  0  0
  -22.1200  -24.4400   20.1350 C   0  0  0  0  0  2  0  0  0  0  0  0
  -20.7270  -24.0840   20.6650 C   0  0  0  0  0  2  0  0  0  0  0  0
  -21.0020  -26.1120   22.2090 C   0  0  0  0  0  0  0  0  0  0  0  0
  -20.4190  -27.1300   22.9950 C   0  0  0  0  0  3  0  0  0  0  0  0
  -19.0220  -27.2270   23.1260 C   0  0  0  0  0  3  0  0  0  0  0  0
  -18.1890  -26.2930   22.4850 C   0  0  0  0  0  3  0  0  0  0  0  0
  -18.7560  -25.2710   21.7040 C   0  0  0  0  0  3  0  0  0  0  0  0
  -26.6510  -31.1530   23.8740 C   0  0  0  0  0  3  0  0  0  0  0  0
  -27.2210  -30.3430   25.1020 C   0  0  1  0  0  0  0  0  0  0  0  0
  -26.1280  -29.7910   26.0480 C   0  0  0  0  0  1  0  0  0  0  0  0
  -28.0720  -29.1450   24.6180 C   0  0  0  0  0  1  0  0  0  0  0  0
  -28.1640  -31.2450   25.9320 C   0  0  0  0  0  1  0  0  0  0  0  0
  -26.0800  -32.4320   24.3130 N   0  0  0  0  0  0  0  0  0  0  0  0
  -26.2760  -33.6030   23.6910 C   0  0  0  0  0  0  0  0  0  0  0  0
  -27.0270  -33.7280   22.7200 O   0  0  0  0  0  0  0  0  0  0  0  0
  -25.4140  -32.3940   25.0710 H   0  0  0  0  0  0  0  0  0  0  0  0
  -24.2900  -35.1060   23.3480 C   0  0  0  0  0  1  0  0  0  0  0  0
  -25.5170  -34.8300   24.2320 C   0  0  0  0  0  3  0  0  0  0  0  0
  -27.3880  -35.9620   25.3460 C   0  0  0  0  0  1  0  0  0  0  0  0
  -26.3540  -36.0480   24.3200 N   0  0  0  0  0  0  0  0  0  0  0  0
  -25.7800  -36.8640   24.5160 H   0  0  0  0  0  0  0  0  0  0  0  0
  -30.9500  -21.0830   23.5460 C   0  0  0  0  0  2  0  0  0  0  0  0
  -30.7510  -19.6270   23.4300 N   0  0  0  0  0  4  0  0  0  0  0  0
  -31.0820  -19.1890   24.2750 H   0  0  0  0  0  0  0  0  0  0  0  0
  -29.7650  -19.4380   23.3450 H   0  0  0  0  0  0  0  0  0  0  0  0
  -31.4560  -19.0450   22.2700 C   0  0  0  0  0  2  0  0  0  0  0  0
  -31.1740  -17.5450   22.0920 C   0  0  0  0  0  2  0  0  0  0  0  0
  -31.8820  -16.9880   20.8480 C   0  0  0  0  0  2  0  0  0  0  0  0
  -32.2150  -15.4940   20.9510 C   0  0  0  0  0  2  0  0  0  0  0  0
  -31.0040  -14.0830   19.3060 C   0  0  0  0  0  0  0  0  0  0  0  0
  -30.4640  -11.8880   18.3410 C   0  0  0  0  0  2  0  0  0  0  0  0
  -29.3430  -11.8930   17.2930 C   0  0  0  0  0  2  0  0  0  0  0  0
  -27.9710  -11.7690   17.9720 C   0  0  0  0  0  2  0  0  0  0  0  0
  -27.7830  -12.7970   19.1160 C   0  0  0  0  0  3  0  0  0  0  0  0
  -28.9920  -12.7910   20.0780 C   0  0  0  0  0  2  0  0  0  0  0  0
  -30.2310  -12.9740   19.3000 N   0  0  0  0  0  0  0  0  0  0  0  0
  -31.7440  -14.4130   18.3730 O   0  0  0  0  0  0  0  0  0  0  0  0
  -31.1130  -14.6390   20.5160 N   0  0  0  0  0  0  0  0  0  0  0  0
  -30.5170  -14.2520   21.2350 H   0  0  0  0  0  0  0  0  0  0  0  0
  -25.5910  -13.4920   20.2820 C   0  0  0  0  0  0  0  0  0  0  0  0
  -24.5640  -12.7550   20.8110 C   0  0  0  0  0  0  0  0  0  0  0  0
  -24.9320  -11.3850   20.6400 C   0  0  0  0  0  0  0  0  0  0  0  0
  -26.5250  -12.5710   19.8280 N   0  0  0  0  0  0  0  0  0  0  0  0
  -26.1390  -11.2970   20.0970 N   0  0  0  0  0  0  0  0  0  0  0  0
  -24.1790  -10.1530   20.9110 C   0  0  0  0  0  0  0  0  0  0  0  0
  -24.6270   -9.2070   21.8590 C   0  0  0  0  0  3  0  0  0  0  0  0
  -23.8760   -8.0390   22.1140 C   0  0  0  0  0  3  0  0  0  0  0  0
  -22.6640   -7.8090   21.4210 C   0  0  0  0  0  0  0  0  0  0  0  0
  -22.2360   -8.7420   20.4610 C   0  0  0  0  0  3  0  0  0  0  0  0
  -22.9860   -9.9010   20.2040 C   0  0  0  0  0  3  0  0  0  0  0  0
  -21.8820   -6.6910   21.5850 O   0  0  0  0  0  0  0  0  0  0  0  0
  -21.7630   -6.0680   22.8010 C   0  0  0  0  0  0  0  0  0  0  0  0
  -21.2770   -6.7450   23.9410 C   0  0  0  0  0  3  0  0  0  0  0  0
  -21.1030   -6.0490   25.1540 C   0  0  0  0  0  3  0  0  0  0  0  0
  -21.4080   -4.6760   25.2280 C   0  0  0  0  0  0  0  0  0  0  0  0
  -21.8880   -3.9990   24.0920 C   0  0  0  0  0  3  0  0  0  0  0  0
  -22.0610   -4.6930   22.8830 C   0  0  0  0  0  0  0  0  0  0  0  0
  -22.5040   -4.0310   21.7860 F   0  0  0  0  0  0  0  0  0  0  0  0
  -21.2350   -4.0040   26.3900 F   0  0  0  0  0  0  0  0  0  0  0  0
  -23.2720  -13.2880   21.3580 C   0  0  0  0  0  0  0  0  0  0  0  0
  -22.6900  -12.5990   22.3340 N   0  0  0  0  0  0  0  0  0  0  0  0
  -22.7940  -14.3480   20.9560 O   0  0  0  0  0  0  0  0  0  0  0  0
  -23.0910  -11.7390   22.6780 H   0  0  0  0  0  0  0  0  0  0  0  0
  -21.8300  -12.9370   22.7430 H   0  0  0  0  0  0  0  0  0  0  0  0
  -25.8000  -14.8590   20.1310 N   0  0  0  0  0  0  0  0  0  0  0  0
  -25.1080  -15.5470   20.4060 H   0  0  0  0  0  0  0  0  0  0  0  0
  -26.6070  -15.2690   19.6760 H   0  0  0  0  0  0  0  0  0  0  0  0
  2  1  1  0
  2  3  1  0
  4  2  1  0
  5  4  1  0
  6  5  1  0
  7  6  1  0
  8 10  1  0
  8  7  1  0
  9 20  2  0
 10 15  1  0
 11 21  1  0
 11 19  1  0
 12 18  1  0
 12 14  1  0
 13 19  1  0
 14 13  1  0
 15 14  2  0
 16 17  1  0
 16 10  2  0
 17 12  2  0
 18 11  1  0
 19  9  1  0
 21 23  2  0
 22 21  1  0
 24 22  1  0
 25 34  2  0
 25 30  1  0
 26 22  1  0
 26 30  1  0
 27 26  1  0
 28 29  1  0
 28 27  1  0
 29 25  1  0
 30 31  2  0
 31 32  1  0
 33 32  2  0
 34 33  1  0
 35  9  1  0
 35 40  1  0
 35 36  1  0
 36 39  1  1
 36 37  1  0
 38 36  1  0
 40 43  1  0
 41 45  1  0
 41 40  1  0
 42 41  2  0
 45 44  1  0
 45 47  1  0
 47 48  1  0
 47 46  1  0
 49  1  1  0
 50 49  1  0
 50 51  1  0
 52 50  1  0
 53 50  1  0
 54 53  1  0
 55 56  1  0
 55 54  1  0
 57 65  1  0
 58 63  1  0
 59 60  1  0
 59 58  1  0
 61 60  1  0
 61 70  1  0
 61 62  1  0
 63 57  1  0
 63 62  1  0
 64 57  2  0
 65 56  1  0
 65 66  1  0
 67 68  2  0
 68 87  1  0
 69 68  1  0
 69 72  1  0
 70 71  1  0
 70 67  1  0
 71 69  2  0
 72 73  1  0
 73 74  2  0
 75 78  1  0
 75 74  1  0
 76 75  2  0
 77 76  1  0
 77 72  2  0
 78 79  1  0
 79 84  2  0
 79 80  1  0
 80 81  2  0
 81 82  1  0
 82 86  1  0
 83 82  2  0
 84 83  1  0
 85 84  1  0
 87 88  1  0
 88 90  1  0
 88 91  1  0
 89 87  2  0
 92 67  1  0
 92 93  1  0
 94 92  1  0
M  ISO  4   7 101   8 101  57 100  65 100
M  END
>  <TORSDO>  (36) 
F 27

>  <SCORE>  (36) 
-6.592

>  <name>  (36) 
35

>  <ligand_id>  (36) 
35

>  <original_smiles>  (36) 
[H]c1c([H])c([H])c2c(c1[H])C([H])([H])C([H])([H])C([H])([H])C2([H])N([H])C(=O)C1([H])N(C(=O)C([H])(N([H])C(=O)C([H])(N([H])C([H])([H])[H])C([H])([H])[H])C(C([H])([H])[H])(C([H])([H])[H])C([H])([H])[H])C([H])([H])c2c([H])c(OC([H])([H])C([H])([H])C([H])([H])C([H])([H])N([H])C([H])([H])C([H])([H])[N+]([H])([H])C([H])([H])C([H])([H])C([H])([H])C([H])([H])N([H])C(=O)N3C([H])([H])C([H])([H])C([H])([H])C([H])(n4nc(-c5c([H])c([H])c(Oc6c([H])c([H])c(F)c([H])c6F)c([H])c5[H])c(C(=O)N([H])[H])c4N([H])[H])C3([H])[H])c([H])c([H])c2C1([H])[H]

>  <smiles>  (36) 
[H]c1c([H])c([H])c2c(c1[H])C([H])([H])C([H])([H])C([H])([H])C2([H])N([H])C(=O)C1([H])N(C(=O)C([H])(N([H])C(=O)C([H])(N([H])C([H])([H])[H])C([H])([H])[H])C(C([H])([H])[H])(C([H])([H])[H])C([H])([H])[H])C([H])([H])c2c([H])c(OC([H])([H])C([H])([H])C([H])([H])C([H])([H])N([H])C([H])([H])C([H])([H])[N+]([H])([H])C([H])([H])C([H])([H])C([H])([H])C([H])([H])N([H])C(=O)N3C([H])([H])C([H])([H])C([H])([H])C([H])(n4nc(-c5c([H])c([H])c(Oc6c([H])c([H])c(F)c([H])c6F)c([H])c5[H])c(C(=O)N([H])[H])c4N([H])[H])C3([H])[H])c([H])c([H])c2C1([H])[H]

$$$$
36:0:0
     RDKit          3D

 97104  0  0  1  0  0  0  0  0999 V2000
  -25.9100  -23.2920   16.3640 C   0  0  0  0  0  2  0  0  0  0  0  0
  -26.2150  -24.7950   16.2170 C   0  0  0  0  0  2  0  0  0  0  0  0
  -27.6520  -25.0460   15.9570 N   0  0  0  0  0  4  0  0  0  0  0  0
  -27.7370  -25.2750   14.9800 H   0  0  0  0  0  0  0  0  0  0  0  0
  -28.1840  -24.2070   16.1080 H   0  0  0  0  0  0  0  0  0  0  0  0
  -28.2540  -26.1500   16.7330 C   0  0  0  0  0  2  0  0  0  0  0  0
  -28.7650  -25.6790   18.1060 C   0  0  0  0  0  2  0  0  0  0  0  0
  -29.1440  -26.8360   19.0440 C   0  0  0  0  0  2  0  0  0  0  0  0
  -28.3820  -26.7760   20.2470 O   0  0  0  0  0  0  0  0  0  0  0  0
  -24.5920  -31.9400   23.2870 C   0  0  0  0  0  0  0  0  0  0  0  0
  -27.2150  -27.4950   20.2320 C   0  0  0  0  0  0  0  0  0  0  0  0
  -23.3700  -30.5310   21.6560 C   0  0  0  0  0  3  0  0  0  0  0  0
  -24.8150  -28.9720   20.2440 C   0  0  0  0  0  0  0  0  0  0  0  0
  -25.8920  -30.8820   21.4510 C   0  0  0  0  0  2  0  0  0  0  0  0
  -25.9730  -29.5100   20.8210 C   0  0  0  0  0  0  0  0  0  0  0  0
  -27.1760  -28.7760   20.8150 C   0  0  0  0  0  3  0  0  0  0  0  0
  -26.0400  -26.9500   19.6790 C   0  0  0  0  0  3  0  0  0  0  0  0
  -24.8380  -27.6850   19.6770 C   0  0  0  0  0  3  0  0  0  0  0  0
  -23.5710  -29.8320   20.2840 C   0  0  0  0  0  2  0  0  0  0  0  0
  -24.6350  -31.1290   22.1920 N   0  0  0  0  0  0  0  0  0  0  0  0
  -23.5150  -32.2240   23.8270 O   0  0  0  0  0  0  0  0  0  0  0  0
  -22.7120  -29.5260   22.6290 C   0  0  0  0  0  0  0  0  0  0  0  0
  -21.3880  -29.3510   22.5010 N   0  0  0  0  0  0  0  0  0  0  0  0
  -23.3930  -28.9040   23.4480 O   0  0  0  0  0  0  0  0  0  0  0  0
  -20.9050  -29.9110   21.8130 H   0  0  0  0  0  0  0  0  0  0  0  0
  -18.0080  -28.1730   22.9900 C   0  0  0  0  0  0  0  0  0  0  0  0
  -20.5660  -28.4250   23.2770 C   0  0  0  0  0  3  0  0  0  0  0  0
  -20.6680  -26.9870   22.7230 C   0  0  0  0  0  2  0  0  0  0  0  0
  -19.5720  -26.6540   21.7040 C   0  0  0  0  0  2  0  0  0  0  0  0
  -18.1890  -26.8140   22.3370 C   0  0  0  0  0  2  0  0  0  0  0  0
  -19.1270  -28.9350   23.4190 C   0  0  0  0  0  0  0  0  0  0  0  0
  -18.9110  -30.2080   23.9890 C   0  0  0  0  0  3  0  0  0  0  0  0
  -17.6100  -30.7210   24.1370 C   0  0  0  0  0  3  0  0  0  0  0  0
  -16.5040  -29.9540   23.7340 C   0  0  0  0  0  3  0  0  0  0  0  0
  -16.7040  -28.6830   23.1630 C   0  0  0  0  0  3  0  0  0  0  0  0
  -25.8870  -32.5630   23.8960 C   0  0  0  0  0  3  0  0  0  0  0  0
  -25.6010  -33.9690   24.2040 N   0  0  0  0  0  0  0  0  0  0  0  0
  -25.9520  -35.0020   23.4280 C   0  0  0  0  0  0  0  0  0  0  0  0
  -26.6260  -34.8730   22.4020 O   0  0  0  0  0  0  0  0  0  0  0  0
  -25.0110  -34.1460   25.0020 H   0  0  0  0  0  0  0  0  0  0  0  0
  -24.2500  -36.8120   23.0390 C   0  0  0  0  0  1  0  0  0  0  0  0
  -25.4800  -36.4010   23.8630 C   0  0  0  0  0  3  0  0  0  0  0  0
  -27.6230  -37.2680   24.6920 C   0  0  0  0  0  1  0  0  0  0  0  0
  -26.5260  -37.4400   23.7450 N   0  0  0  0  0  0  0  0  0  0  0  0
  -26.1310  -38.3670   23.8830 H   0  0  0  0  0  0  0  0  0  0  0  0
  -26.3980  -31.8030   25.1820 C   0  0  1  0  0  0  0  0  0  0  0  0
  -25.3080  -31.5910   26.2590 C   0  0  0  0  0  1  0  0  0  0  0  0
  -26.9700  -30.4160   24.8060 C   0  0  0  0  0  1  0  0  0  0  0  0
  -27.5580  -32.5940   25.8330 C   0  0  0  0  0  1  0  0  0  0  0  0
  -26.3470  -22.6870   17.7180 C   0  0  0  0  0  2  0  0  0  0  0  0
  -26.4200  -21.1480   17.7080 C   0  0  0  0  0  2  0  0  0  0  0  0
  -26.8360  -20.5750   19.0770 C   0  0  0  0  0  2  0  0  0  0  0  0
  -27.3940  -19.1410   19.0080 C   0  0  0  0  0  2  0  0  0  0  0  0
  -27.9860  -18.7230   20.3020 N   0  0  0  0  0  4  0  0  0  0  0  0
  -27.2530  -18.4030   20.9170 H   0  0  0  0  0  0  0  0  0  0  0  0
  -28.4060  -19.5340   20.7290 H   0  0  0  0  0  0  0  0  0  0  0  0
  -29.0360  -17.6870   20.1840 C   0  0  0  0  0  2  0  0  0  0  0  0
  -29.7820  -17.4430   21.5140 C   0  0  0  0  0  2  0  0  0  0  0  0
  -30.9670  -16.4620   21.3790 C   0  0  0  0  0  2  0  0  0  0  0  0
  -31.0540  -14.2440   20.1990 C   0  0  0  0  0  0  0  0  0  0  0  0
  -30.6300  -12.1520   18.9540 C   0  0  0  0  0  2  0  0  0  0  0  0
  -29.6520  -12.4160   17.7890 C   0  0  0  0  0  2  0  0  0  0  0  0
  -28.1860  -12.3440   18.2600 C   0  0  0  0  0  2  0  0  0  0  0  0
  -27.9350  -13.1840   19.5390 C   0  0  0  0  0  3  0  0  0  0  0  0
  -28.9990  -12.8480   20.6060 C   0  0  0  0  0  2  0  0  0  0  0  0
  -30.3280  -13.1100   20.0240 N   0  0  0  0  0  0  0  0  0  0  0  0
  -32.1020  -14.4870   19.5880 O   0  0  0  0  0  0  0  0  0  0  0  0
  -30.5100  -15.1090   21.0710 N   0  0  0  0  0  0  0  0  0  0  0  0
  -29.6760  -14.7880   21.5420 H   0  0  0  0  0  0  0  0  0  0  0  0
  -25.5920  -13.9410   20.2940 C   0  0  0  0  0  0  0  0  0  0  0  0
  -24.4890  -13.2330   20.6990 C   0  0  0  0  0  0  0  0  0  0  0  0
  -24.8700  -11.8570   20.6560 C   0  0  0  0  0  0  0  0  0  0  0  0
  -26.5770  -12.9980   20.0450 N   0  0  0  0  0  0  0  0  0  0  0  0
  -26.1470  -11.7410   20.3160 N   0  0  0  0  0  0  0  0  0  0  0  0
  -24.0760  -10.6400   20.8700 C   0  0  0  0  0  0  0  0  0  0  0  0
  -24.4710   -9.6620   21.8090 C   0  0  0  0  0  3  0  0  0  0  0  0
  -23.6860   -8.5060   22.0100 C   0  0  0  0  0  3  0  0  0  0  0  0
  -22.4920   -8.3220   21.2720 C   0  0  0  0  0  0  0  0  0  0  0  0
  -22.1160   -9.2890   20.3220 C   0  0  0  0  0  3  0  0  0  0  0  0
  -22.9010  -10.4370   20.1200 C   0  0  0  0  0  3  0  0  0  0  0  0
  -21.6800   -7.2200   21.3820 O   0  0  0  0  0  0  0  0  0  0  0  0
  -21.5880   -6.5110   22.5530 C   0  0  0  0  0  0  0  0  0  0  0  0
  -21.2030   -7.1200   23.7680 C   0  0  0  0  0  3  0  0  0  0  0  0
  -21.0540   -6.3370   24.9310 C   0  0  0  0  0  3  0  0  0  0  0  0
  -21.2800   -4.9490   24.8790 C   0  0  0  0  0  0  0  0  0  0  0  0
  -21.6570   -4.3400   23.6700 C   0  0  0  0  0  3  0  0  0  0  0  0
  -21.8090   -5.1200   22.5090 C   0  0  0  0  0  0  0  0  0  0  0  0
  -22.1530   -4.5250   21.3420 F   0  0  0  0  0  0  0  0  0  0  0  0
  -21.1290   -4.1960   25.9940 F   0  0  0  0  0  0  0  0  0  0  0  0
  -23.1310  -13.7930   21.0070 C   0  0  0  0  0  0  0  0  0  0  0  0
  -22.3970  -13.1470   21.9060 N   0  0  0  0  0  0  0  0  0  0  0  0
  -22.7320  -14.8350   20.4880 O   0  0  0  0  0  0  0  0  0  0  0  0
  -22.7350  -12.3050   22.3440 H   0  0  0  0  0  0  0  0  0  0  0  0
  -21.4860  -13.5000   22.1620 H   0  0  0  0  0  0  0  0  0  0  0  0
  -25.8280  -15.2970   20.0940 N   0  0  0  0  0  0  0  0  0  0  0  0
  -25.0610  -15.9600   20.1200 H   0  0  0  0  0  0  0  0  0  0  0  0
  -26.6290  -15.6290   19.5740 H   0  0  0  0  0  0  0  0  0  0  0  0
  1 50  1  0
  2  1  1  0
  3  5  1  0
  3  2  1  0
  3  6  1  0
  4  3  1  0
  6  7  1  0
  7  8  1  0
  8  9  1  0
 10 21  2  0
 11  9  1  0
 11 16  1  0
 12 20  1  0
 12 22  1  0
 13 19  1  0
 13 15  1  0
 14 20  1  0
 15 14  1  0
 16 15  2  0
 17 11  2  0
 18 17  1  0
 18 13  2  0
 19 12  1  0
 20 10  1  0
 22 24  2  0
 23 22  1  0
 25 23  1  0
 26 35  2  0
 26 31  1  0
 27 23  1  0
 27 31  1  0
 28 27  1  0
 29 30  1  0
 29 28  1  0
 30 26  1  0
 31 32  2  0
 32 33  1  0
 34 33  2  0
 35 34  1  0
 36 10  1  0
 36 37  1  0
 36 46  1  0
 37 40  1  0
 38 42  1  0
 38 37  1  0
 39 38  2  0
 42 41  1  0
 44 42  1  0
 44 45  1  0
 44 43  1  0
 46 49  1  1
 46 47  1  0
 48 46  1  0
 51 50  1  0
 51 52  1  0
 53 52  1  0
 53 54  1  0
 54 56  1  0
 54 55  1  0
 57 54  1  0
 57 58  1  0
 59 58  1  0
 60 68  1  0
 61 66  1  0
 62 63  1  0
 62 61  1  0
 64 63  1  0
 64 73  1  0
 64 65  1  0
 66 60  1  0
 66 65  1  0
 67 60  2  0
 68 59  1  0
 68 69  1  0
 70 71  2  0
 71 90  1  0
 72 71  1  0
 72 75  1  0
 73 70  1  0
 73 74  1  0
 74 72  2  0
 75 76  1  0
 76 77  2  0
 78 81  1  0
 78 77  1  0
 79 78  2  0
 80 79  1  0
 80 75  2  0
 81 82  1  0
 82 83  1  0
 83 84  2  0
 85 84  1  0
 85 89  1  0
 86 85  2  0
 87 82  2  0
 87 86  1  0
 88 87  1  0
 90 91  1  0
 91 94  1  0
 91 93  1  0
 92 90  2  0
 95 96  1  0
 95 70  1  0
 97 95  1  0
M  ISO  4   8 101   9 101  60 100  68 100
M  END
>  <TORSDO>  (37) 
F 29

>  <SCORE>  (37) 
-9.757

>  <name>  (37) 
36

>  <ligand_id>  (37) 
36

>  <original_smiles>  (37) 
[H]c1c([H])c([H])c2c(c1[H])C([H])([H])C([H])([H])C([H])([H])C2([H])N([H])C(=O)C1([H])N(C(=O)C([H])(N([H])C(=O)C([H])(N([H])C([H])([H])[H])C([H])([H])[H])C(C([H])([H])[H])(C([H])([H])[H])C([H])([H])[H])C([H])([H])c2c([H])c(OC([H])([H])C([H])([H])C([H])([H])[N+]([H])([H])C([H])([H])C([H])([H])C([H])([H])C([H])([H])C([H])([H])C([H])([H])[N+]([H])([H])C([H])([H])C([H])([H])C([H])([H])N([H])C(=O)N3C([H])([H])C([H])([H])C([H])([H])C([H])(n4nc(-c5c([H])c([H])c(Oc6c([H])c([H])c(F)c([H])c6F)c([H])c5[H])c(C(=O)N([H])[H])c4N([H])[H])C3([H])[H])c([H])c([H])c2C1([H])[H]

>  <smiles>  (37) 
[H]c1c([H])c([H])c2c(c1[H])C([H])([H])C([H])([H])C([H])([H])C2([H])N([H])C(=O)C1([H])N(C(=O)C([H])(N([H])C(=O)C([H])(N([H])C([H])([H])[H])C([H])([H])[H])C(C([H])([H])[H])(C([H])([H])[H])C([H])([H])[H])C([H])([H])c2c([H])c(OC([H])([H])C([H])([H])C([H])([H])[N+]([H])([H])C([H])([H])C([H])([H])C([H])([H])C([H])([H])C([H])([H])C([H])([H])[N+]([H])([H])C([H])([H])C([H])([H])C([H])([H])N([H])C(=O)N3C([H])([H])C([H])([H])C([H])([H])C([H])(n4nc(-c5c([H])c([H])c(Oc6c([H])c([H])c(F)c([H])c6F)c([H])c5[H])c(C(=O)N([H])[H])c4N([H])[H])C3([H])[H])c([H])c([H])c2C1([H])[H]

$$$$
37:0:0
     RDKit          3D

 97104  0  0  1  0  0  0  0  0999 V2000
  -35.0120  -20.7290   19.6130 C   0  0  0  0  0  2  0  0  0  0  0  0
  -35.2900  -19.6300   18.5680 C   0  0  0  0  0  2  0  0  0  0  0  0
  -34.1250  -18.7360   18.3950 N   0  0  0  0  0  4  0  0  0  0  0  0
  -34.1150  -18.0470   19.1300 H   0  0  0  0  0  0  0  0  0  0  0  0
  -33.2880  -19.2880   18.4790 H   0  0  0  0  0  0  0  0  0  0  0  0
  -34.0350  -18.0860   17.0720 C   0  0  0  0  0  2  0  0  0  0  0  0
  -33.0520  -18.8690   16.1800 C   0  0  0  0  0  2  0  0  0  0  0  0
  -31.5360  -18.6470   16.3990 C   0  0  0  0  0  2  0  0  0  0  0  0
  -30.9910  -18.6490   17.8520 C   0  0  0  0  0  2  0  0  0  0  0  0
  -30.9660  -17.2340   18.4820 C   0  0  0  0  0  2  0  0  0  0  0  0
  -30.3000  -17.1330   19.8840 C   0  0  0  0  0  2  0  0  0  0  0  0
  -30.6810  -14.6770   20.3900 C   0  0  0  0  0  0  0  0  0  0  0  0
  -30.4300  -12.4440   19.4410 C   0  0  0  0  0  2  0  0  0  0  0  0
  -29.5160  -12.5580   18.2030 C   0  0  0  0  0  2  0  0  0  0  0  0
  -28.0280  -12.4520   18.5930 C   0  0  0  0  0  2  0  0  0  0  0  0
  -27.6450  -13.3350   19.8120 C   0  0  0  0  0  3  0  0  0  0  0  0
  -28.6880  -13.2290   20.9510 C   0  0  0  0  0  2  0  0  0  0  0  0
  -30.0170  -13.4910   20.3770 N   0  0  0  0  0  0  0  0  0  0  0  0
  -31.8910  -14.7780   20.2010 O   0  0  0  0  0  0  0  0  0  0  0  0
  -29.8940  -15.7600   20.2630 N   0  0  0  0  0  0  0  0  0  0  0  0
  -28.9010  -15.5850   20.3010 H   0  0  0  0  0  0  0  0  0  0  0  0
  -25.2310  -13.9110   20.4770 C   0  0  0  0  0  0  0  0  0  0  0  0
  -24.1640  -13.1240   20.8290 C   0  0  0  0  0  0  0  0  0  0  0  0
  -24.6450  -11.7820   20.8260 C   0  0  0  0  0  0  0  0  0  0  0  0
  -26.2930  -13.0410   20.2840 N   0  0  0  0  0  0  0  0  0  0  0  0
  -25.9440  -11.7570   20.5530 N   0  0  0  0  0  0  0  0  0  0  0  0
  -23.9300  -10.5080   21.0060 C   0  0  0  0  0  0  0  0  0  0  0  0
  -24.3430   -9.5560   21.9650 C   0  0  0  0  0  3  0  0  0  0  0  0
  -23.6240   -8.3520   22.1320 C   0  0  0  0  0  3  0  0  0  0  0  0
  -22.4790   -8.0930   21.3420 C   0  0  0  0  0  0  0  0  0  0  0  0
  -22.0840   -9.0330   20.3740 C   0  0  0  0  0  3  0  0  0  0  0  0
  -22.8040  -10.2290   20.2060 C   0  0  0  0  0  3  0  0  0  0  0  0
  -21.7330   -6.9420   21.4170 O   0  0  0  0  0  0  0  0  0  0  0  0
  -21.6460   -6.2160   22.5790 C   0  0  0  0  0  0  0  0  0  0  0  0
  -21.1680   -6.7840   23.7780 C   0  0  0  0  0  3  0  0  0  0  0  0
  -21.0320   -5.9860   24.9310 C   0  0  0  0  0  3  0  0  0  0  0  0
  -21.3630   -4.6170   24.8830 C   0  0  0  0  0  0  0  0  0  0  0  0
  -21.8390   -4.0500   23.6860 C   0  0  0  0  0  3  0  0  0  0  0  0
  -21.9740   -4.8470   22.5370 C   0  0  0  0  0  0  0  0  0  0  0  0
  -22.4090   -4.2910   21.3810 F   0  0  0  0  0  0  0  0  0  0  0  0
  -21.2280   -3.8430   25.9860 F   0  0  0  0  0  0  0  0  0  0  0  0
  -22.7550  -13.5880   21.0550 C   0  0  0  0  0  0  0  0  0  0  0  0
  -22.0150  -12.8860   21.9070 N   0  0  0  0  0  0  0  0  0  0  0  0
  -22.3170  -14.6030   20.5180 O   0  0  0  0  0  0  0  0  0  0  0  0
  -22.3820  -12.0630   22.3570 H   0  0  0  0  0  0  0  0  0  0  0  0
  -21.0710  -13.1780   22.1140 H   0  0  0  0  0  0  0  0  0  0  0  0
  -25.3870  -15.2790   20.2810 N   0  0  0  0  0  0  0  0  0  0  0  0
  -24.6160  -15.9330   20.3510 H   0  0  0  0  0  0  0  0  0  0  0  0
  -26.2470  -15.7110   19.9720 H   0  0  0  0  0  0  0  0  0  0  0  0
  -34.0470  -21.8090   19.0890 C   0  0  0  0  0  2  0  0  0  0  0  0
  -33.7980  -22.9590   20.0780 C   0  0  0  0  0  2  0  0  0  0  0  0
  -32.7230  -23.9090   19.5370 C   0  0  0  0  0  2  0  0  0  0  0  0
  -32.3520  -25.0450   20.4880 C   0  0  0  0  0  2  0  0  0  0  0  0
  -31.2620  -25.7130   19.8820 O   0  0  0  0  0  0  0  0  0  0  0  0
  -30.7740  -26.8020   20.6440 C   0  0  0  0  0  2  0  0  0  0  0  0
  -29.6880  -27.5000   19.8220 C   0  0  0  0  0  2  0  0  0  0  0  0
  -28.4490  -26.7920   19.9600 O   0  0  0  0  0  0  0  0  0  0  0  0
  -24.6640  -31.9130   23.1670 C   0  0  0  0  0  0  0  0  0  0  0  0
  -27.2890  -27.5280   20.0420 C   0  0  0  0  0  0  0  0  0  0  0  0
  -23.4230  -30.4980   21.5540 C   0  0  0  0  0  3  0  0  0  0  0  0
  -24.8530  -28.9640   20.1030 C   0  0  0  0  0  0  0  0  0  0  0  0
  -25.9300  -30.8870   21.2930 C   0  0  0  0  0  2  0  0  0  0  0  0
  -26.0080  -29.5130   20.6680 C   0  0  0  0  0  0  0  0  0  0  0  0
  -27.2150  -28.7980   20.6610 C   0  0  0  0  0  3  0  0  0  0  0  0
  -26.1140  -26.9720   19.4940 C   0  0  0  0  0  3  0  0  0  0  0  0
  -24.8960  -27.6840   19.5210 C   0  0  0  0  0  3  0  0  0  0  0  0
  -23.6020  -29.8070   20.1720 C   0  0  0  0  0  2  0  0  0  0  0  0
  -24.6900  -31.1140   22.0640 N   0  0  0  0  0  0  0  0  0  0  0  0
  -23.5960  -32.1840   23.7320 O   0  0  0  0  0  0  0  0  0  0  0  0
  -22.8030  -29.4790   22.5330 C   0  0  0  0  0  0  0  0  0  0  0  0
  -21.4800  -29.2850   22.4290 N   0  0  0  0  0  0  0  0  0  0  0  0
  -23.5070  -28.8640   23.3400 O   0  0  0  0  0  0  0  0  0  0  0  0
  -20.9760  -29.8320   21.7440 H   0  0  0  0  0  0  0  0  0  0  0  0
  -18.1230  -28.0770   22.9770 C   0  0  0  0  0  0  0  0  0  0  0  0
  -20.6810  -28.3480   23.2150 C   0  0  0  0  0  3  0  0  0  0  0  0
  -20.7840  -26.9150   22.6440 C   0  0  0  0  0  2  0  0  0  0  0  0
  -19.6710  -26.5810   21.6480 C   0  0  0  0  0  2  0  0  0  0  0  0
  -18.2970  -26.7230   22.3090 C   0  0  0  0  0  2  0  0  0  0  0  0
  -19.2420  -28.8470   23.3870 C   0  0  0  0  0  0  0  0  0  0  0  0
  -19.0240  -30.1150   23.9700 C   0  0  0  0  0  3  0  0  0  0  0  0
  -17.7190  -30.6120   24.1460 C   0  0  0  0  0  3  0  0  0  0  0  0
  -16.6130  -29.8370   23.7540 C   0  0  0  0  0  3  0  0  0  0  0  0
  -16.8160  -28.5710   23.1750 C   0  0  0  0  0  3  0  0  0  0  0  0
  -25.9660  -32.5460   23.7550 C   0  0  0  0  0  3  0  0  0  0  0  0
  -25.6540  -33.9320   24.1240 N   0  0  0  0  0  0  0  0  0  0  0  0
  -25.9580  -35.0020   23.3770 C   0  0  0  0  0  0  0  0  0  0  0  0
  -26.6020  -34.9270   22.3270 O   0  0  0  0  0  0  0  0  0  0  0  0
  -25.0780  -34.0650   24.9420 H   0  0  0  0  0  0  0  0  0  0  0  0
  -24.2080  -36.7860   23.0950 C   0  0  0  0  0  1  0  0  0  0  0  0
  -25.4670  -36.3750   23.8750 C   0  0  0  0  0  3  0  0  0  0  0  0
  -27.6100  -37.2560   24.6850 C   0  0  0  0  0  1  0  0  0  0  0  0
  -26.4890  -37.4400   23.7670 N   0  0  0  0  0  0  0  0  0  0  0  0
  -26.0790  -38.3520   23.9470 H   0  0  0  0  0  0  0  0  0  0  0  0
  -26.5420  -31.7520   24.9910 C   0  0  1  0  0  0  0  0  0  0  0  0
  -25.4850  -31.4490   26.0790 C   0  0  0  0  0  1  0  0  0  0  0  0
  -27.1500  -30.4060   24.5350 C   0  0  0  0  0  1  0  0  0  0  0  0
  -27.6870  -32.5600   25.6450 C   0  0  0  0  0  1  0  0  0  0  0  0
  2  1  1  0
  3  5  1  0
  3  2  1  0
  3  4  1  0
  6  3  1  0
  7  8  1  0
  7  6  1  0
  8  9  1  0
  9 10  1  0
 10 11  1  0
 11 20  1  0
 13 18  1  0
 14 15  1  0
 14 13  1  0
 16 15  1  0
 16 25  1  0
 16 17  1  0
 18 12  1  0
 18 17  1  0
 19 12  2  0
 20 21  1  0
 20 12  1  0
 22 23  2  0
 23 42  1  0
 24 23  1  0
 24 27  1  0
 25 22  1  0
 25 26  1  0
 26 24  2  0
 27 28  1  0
 28 29  2  0
 30 33  1  0
 30 29  1  0
 31 30  2  0
 32 31  1  0
 32 27  2  0
 33 34  1  0
 34 35  1  0
 35 36  2  0
 37 36  1  0
 37 41  1  0
 38 37  2  0
 39 34  2  0
 39 38  1  0
 40 39  1  0
 42 43  1  0
 43 46  1  0
 43 45  1  0
 44 42  2  0
 47 48  1  0
 47 22  1  0
 49 47  1  0
 50  1  1  0
 50 51  1  0
 52 51  1  0
 52 53  1  0
 54 53  1  0
 54 55  1  0
 56 57  1  0
 56 55  1  0
 57 59  1  0
 58 69  2  0
 59 64  1  0
 60 68  1  0
 60 70  1  0
 61 67  1  0
 61 63  1  0
 62 68  1  0
 63 62  1  0
 64 63  2  0
 65 66  1  0
 65 59  2  0
 66 61  2  0
 67 60  1  0
 68 58  1  0
 70 72  2  0
 71 70  1  0
 73 71  1  0
 74 83  2  0
 74 79  1  0
 75 71  1  0
 75 79  1  0
 76 75  1  0
 77 78  1  0
 77 76  1  0
 78 74  1  0
 79 80  2  0
 80 81  1  0
 82 81  2  0
 83 82  1  0
 84 58  1  0
 84 85  1  0
 84 94  1  0
 85 88  1  0
 86 90  1  0
 86 85  1  0
 87 86  2  0
 90 89  1  0
 92 90  1  0
 92 93  1  0
 92 91  1  0
 94 97  1  1
 94 95  1  0
 96 94  1  0
M  ISO  4  12 100  20 100  56 101  57 101
M  END
>  <TORSDO>  (38) 
F 31

>  <SCORE>  (38) 
-10.238

>  <name>  (38) 
37

>  <ligand_id>  (38) 
37

>  <original_smiles>  (38) 
[H]c1c([H])c([H])c2c(c1[H])C([H])([H])C([H])([H])C([H])([H])C2([H])N([H])C(=O)C1([H])N(C(=O)C([H])(N([H])C(=O)C([H])(N([H])C([H])([H])[H])C([H])([H])[H])C(C([H])([H])[H])(C([H])([H])[H])C([H])([H])[H])C([H])([H])c2c([H])c(OC([H])([H])C([H])([H])OC([H])([H])C([H])([H])C([H])([H])C([H])([H])C([H])([H])C([H])([H])[N+]([H])([H])C([H])([H])C([H])([H])C([H])([H])C([H])([H])C([H])([H])C([H])([H])N([H])C(=O)N3C([H])([H])C([H])([H])C([H])([H])C([H])(n4nc(-c5c([H])c([H])c(Oc6c([H])c([H])c(F)c([H])c6F)c([H])c5[H])c(C(=O)N([H])[H])c4N([H])[H])C3([H])[H])c([H])c([H])c2C1([H])[H]

>  <smiles>  (38) 
[H]c1c([H])c([H])c2c(c1[H])C([H])([H])C([H])([H])C([H])([H])C2([H])N([H])C(=O)C1([H])N(C(=O)C([H])(N([H])C(=O)C([H])(N([H])C([H])([H])[H])C([H])([H])[H])C(C([H])([H])[H])(C([H])([H])[H])C([H])([H])[H])C([H])([H])c2c([H])c(OC([H])([H])C([H])([H])OC([H])([H])C([H])([H])C([H])([H])C([H])([H])C([H])([H])C([H])([H])[N+]([H])([H])C([H])([H])C([H])([H])C([H])([H])C([H])([H])C([H])([H])C([H])([H])N([H])C(=O)N3C([H])([H])C([H])([H])C([H])([H])C([H])(n4nc(-c5c([H])c([H])c(Oc6c([H])c([H])c(F)c([H])c6F)c([H])c5[H])c(C(=O)N([H])[H])c4N([H])[H])C3([H])[H])c([H])c([H])c2C1([H])[H]

$$$$
38:0:0
     RDKit          3D

 98105  0  0  1  0  0  0  0  0999 V2000
  -26.6340  -22.4250   21.3950 C   0  0  0  0  0  3  0  0  0  0  0  0
  -26.1850  -23.6910   21.2800 C   0  0  0  0  0  3  0  0  0  0  0  0
  -27.3660  -21.8080   20.3040 C   0  0  0  0  0  0  0  0  0  0  0  0
  -27.4010  -20.4730   20.4040 N   0  0  0  0  0  0  0  0  0  0  0  0
  -27.9030  -22.4130   19.3730 O   0  0  0  0  0  0  0  0  0  0  0  0
  -26.8910  -20.0490   21.1680 H   0  0  0  0  0  0  0  0  0  0  0  0
  -27.9680  -19.5870   19.3830 C   0  0  0  0  0  2  0  0  0  0  0  0
  -29.4770  -19.3460   19.5740 C   0  0  0  0  0  2  0  0  0  0  0  0
  -29.7650  -18.5830   20.8070 N   0  0  0  0  0  4  0  0  0  0  0  0
  -29.2530  -17.7180   20.7720 H   0  0  0  0  0  0  0  0  0  0  0  0
  -29.4300  -19.1050   21.6010 H   0  0  0  0  0  0  0  0  0  0  0  0
  -31.1940  -18.2690   21.0200 C   0  0  0  0  0  2  0  0  0  0  0  0
  -31.3870  -17.1770   22.0930 C   0  0  0  0  0  2  0  0  0  0  0  0
  -31.3100  -15.0960   20.7340 C   0  0  0  0  0  0  0  0  0  0  0  0
  -31.0210  -12.9970   19.4730 C   0  0  0  0  0  2  0  0  0  0  0  0
  -30.1270  -13.2060   18.2350 C   0  0  0  0  0  2  0  0  0  0  0  0
  -28.6390  -13.0680   18.6030 C   0  0  0  0  0  2  0  0  0  0  0  0
  -28.2520  -13.9140   19.8430 C   0  0  0  0  0  3  0  0  0  0  0  0
  -29.2470  -13.6700   20.9990 C   0  0  0  0  0  2  0  0  0  0  0  0
  -30.6100  -13.9560   20.5090 N   0  0  0  0  0  0  0  0  0  0  0  0
  -32.3460  -15.3930   20.1310 O   0  0  0  0  0  0  0  0  0  0  0  0
  -30.8050  -15.8970   21.6840 N   0  0  0  0  0  0  0  0  0  0  0  0
  -30.0070  -15.5430   22.1930 H   0  0  0  0  0  0  0  0  0  0  0  0
  -25.8350  -14.5470   20.4710 C   0  0  0  0  0  0  0  0  0  0  0  0
  -24.7390  -13.7850   20.7780 C   0  0  0  0  0  0  0  0  0  0  0  0
  -25.1770  -12.4260   20.7160 C   0  0  0  0  0  0  0  0  0  0  0  0
  -26.8730  -13.6540   20.2520 N   0  0  0  0  0  0  0  0  0  0  0  0
  -26.4770  -12.3710   20.4520 N   0  0  0  0  0  0  0  0  0  0  0  0
  -24.4240  -11.1730   20.8320 C   0  0  0  0  0  0  0  0  0  0  0  0
  -24.7900  -10.1740   21.7610 C   0  0  0  0  0  3  0  0  0  0  0  0
  -24.0380   -8.9840   21.8680 C   0  0  0  0  0  3  0  0  0  0  0  0
  -22.9060   -8.7840   21.0430 C   0  0  0  0  0  0  0  0  0  0  0  0
  -22.5590   -9.7720   20.1040 C   0  0  0  0  0  3  0  0  0  0  0  0
  -23.3110  -10.9530   19.9960 C   0  0  0  0  0  3  0  0  0  0  0  0
  -22.1310   -7.6500   21.0590 O   0  0  0  0  0  0  0  0  0  0  0  0
  -21.9040   -6.9510   22.2170 C   0  0  0  0  0  0  0  0  0  0  0  0
  -21.3040   -7.5510   23.3460 C   0  0  0  0  0  3  0  0  0  0  0  0
  -21.0250   -6.7780   24.4900 C   0  0  0  0  0  3  0  0  0  0  0  0
  -21.3370   -5.4060   24.5060 C   0  0  0  0  0  0  0  0  0  0  0  0
  -21.9290   -4.8040   23.3820 C   0  0  0  0  0  3  0  0  0  0  0  0
  -22.2090   -5.5740   22.2400 C   0  0  0  0  0  0  0  0  0  0  0  0
  -22.7610   -4.9850   21.1510 F   0  0  0  0  0  0  0  0  0  0  0  0
  -21.0610   -4.6600   25.6030 F   0  0  0  0  0  0  0  0  0  0  0  0
  -23.3420  -14.2790   21.0130 C   0  0  0  0  0  0  0  0  0  0  0  0
  -22.5760  -13.5800   21.8440 N   0  0  0  0  0  0  0  0  0  0  0  0
  -22.9360  -15.3190   20.4940 O   0  0  0  0  0  0  0  0  0  0  0  0
  -22.9160  -12.7380   22.2840 H   0  0  0  0  0  0  0  0  0  0  0  0
  -21.6360  -13.8930   22.0430 H   0  0  0  0  0  0  0  0  0  0  0  0
  -26.0310  -15.9180   20.3370 N   0  0  0  0  0  0  0  0  0  0  0  0
  -25.2390  -16.5520   20.3520 H   0  0  0  0  0  0  0  0  0  0  0  0
  -26.8340  -16.2950   19.8550 H   0  0  0  0  0  0  0  0  0  0  0  0
  -25.4530  -24.4500   22.3730 C   0  0  0  0  0  2  0  0  0  0  0  0
  -26.1650  -25.7620   22.7190 C   0  0  0  0  0  2  0  0  0  0  0  0
  -27.5370  -25.4600   22.9190 O   0  0  0  0  0  0  0  0  0  0  0  0
  -28.3840  -26.5970   22.9540 C   0  0  0  0  0  2  0  0  0  0  0  0
  -29.7190  -26.1800   22.3200 C   0  0  0  0  0  2  0  0  0  0  0  0
  -29.5900  -25.6630   20.8690 C   0  0  0  0  0  2  0  0  0  0  0  0
  -29.4040  -26.7180   19.9250 O   0  0  0  0  0  0  0  0  0  0  0  0
  -25.1390  -31.1990   23.3930 C   0  0  0  0  0  0  0  0  0  0  0  0
  -28.1820  -27.3330   19.9730 C   0  0  0  0  0  0  0  0  0  0  0  0
  -24.0830  -29.9140   21.5580 C   0  0  0  0  0  3  0  0  0  0  0  0
  -25.6850  -28.6370   20.0420 C   0  0  0  0  0  0  0  0  0  0  0  0
  -26.5780  -30.4680   21.4970 C   0  0  0  0  0  2  0  0  0  0  0  0
  -26.7810  -29.1850   20.7220 C   0  0  0  0  0  0  0  0  0  0  0  0
  -28.0360  -28.5450   20.6760 C   0  0  0  0  0  3  0  0  0  0  0  0
  -27.0760  -26.7820   19.2940 C   0  0  0  0  0  3  0  0  0  0  0  0
  -25.8260  -27.4340   19.3230 C   0  0  0  0  0  3  0  0  0  0  0  0
  -24.3830  -29.4010   20.1240 C   0  0  0  0  0  2  0  0  0  0  0  0
  -25.2820  -30.5360   22.2120 N   0  0  0  0  0  0  0  0  0  0  0  0
  -24.0250  -31.3400   23.9170 O   0  0  0  0  0  0  0  0  0  0  0  0
  -23.4740  -28.7520   22.3750 C   0  0  0  0  0  0  0  0  0  0  0  0
  -22.1930  -28.4470   22.1110 N   0  0  0  0  0  0  0  0  0  0  0  0
  -24.1540  -28.1310   23.1960 O   0  0  0  0  0  0  0  0  0  0  0  0
  -21.7050  -29.0100   21.4290 H   0  0  0  0  0  0  0  0  0  0  0  0
  -18.9510  -26.8540   22.1580 C   0  0  0  0  0  0  0  0  0  0  0  0
  -21.4200  -27.3680   22.7240 C   0  0  0  0  0  3  0  0  0  0  0  0
  -21.7480  -26.0060   22.0690 C   0  0  0  0  0  2  0  0  0  0  0  0
  -20.7990  -25.6430   20.9220 C   0  0  0  0  0  2  0  0  0  0  0  0
  -19.3520  -25.5870   21.4200 C   0  0  0  0  0  2  0  0  0  0  0  0
  -19.9240  -27.6980   22.7560 C   0  0  0  0  0  0  0  0  0  0  0  0
  -19.5030  -28.8840   23.3980 C   0  0  0  0  0  3  0  0  0  0  0  0
  -18.1380  -29.2270   23.4510 C   0  0  0  0  0  3  0  0  0  0  0  0
  -17.1780  -28.3780   22.8740 C   0  0  0  0  0  3  0  0  0  0  0  0
  -17.5840  -27.1940   22.2330 C   0  0  0  0  0  3  0  0  0  0  0  0
  -26.3600  -31.8330   24.1300 C   0  0  0  0  0  3  0  0  0  0  0  0
  -25.9810  -33.1970   24.5180 N   0  0  0  0  0  0  0  0  0  0  0  0
  -26.3520  -34.3050   23.8610 C   0  0  0  0  0  0  0  0  0  0  0  0
  -27.1190  -34.2850   22.8950 O   0  0  0  0  0  0  0  0  0  0  0  0
  -25.3040  -33.2830   25.2620 H   0  0  0  0  0  0  0  0  0  0  0  0
  -24.6240  -36.0840   23.4430 C   0  0  0  0  0  1  0  0  0  0  0  0
  -25.7810  -35.6470   24.3540 C   0  0  0  0  0  3  0  0  0  0  0  0
  -27.7990  -36.5120   25.4590 C   0  0  0  0  0  1  0  0  0  0  0  0
  -26.7910  -36.7260   24.4240 N   0  0  0  0  0  0  0  0  0  0  0  0
  -26.3460  -37.6230   24.5960 H   0  0  0  0  0  0  0  0  0  0  0  0
  -26.8260  -31.0020   25.3880 C   0  0  1  0  0  0  0  0  0  0  0  0
  -25.6750  -30.6350   26.3520 C   0  0  0  0  0  1  0  0  0  0  0  0
  -27.5130  -29.6880   24.9480 C   0  0  0  0  0  1  0  0  0  0  0  0
  -27.8760  -31.8080   26.1880 C   0  0  0  0  0  1  0  0  0  0  0  0
  2  1  2  0
  2 52  1  0
  3  4  1  0
  3  1  1  0
  4  6  1  0
  5  3  2  0
  7  8  1  0
  7  4  1  0
  8  9  1  0
  9 12  1  0
  9 11  1  0
 10  9  1  0
 12 13  1  0
 14 22  1  0
 15 20  1  0
 16 17  1  0
 16 15  1  0
 18 17  1  0
 18 27  1  0
 18 19  1  0
 20 14  1  0
 20 19  1  0
 21 14  2  0
 22 13  1  0
 22 23  1  0
 24 25  2  0
 25 44  1  0
 26 25  1  0
 26 29  1  0
 27 28  1  0
 27 24  1  0
 28 26  2  0
 29 30  1  0
 30 31  2  0
 32 35  1  0
 32 31  1  0
 33 32  2  0
 34 33  1  0
 34 29  2  0
 35 36  1  0
 36 41  2  0
 36 37  1  0
 37 38  2  0
 38 39  1  0
 39 43  1  0
 40 39  2  0
 41 40  1  0
 42 41  1  0
 44 45  1  0
 45 48  1  0
 45 47  1  0
 46 44  2  0
 49 50  1  0
 49 24  1  0
 51 49  1  0
 52 53  1  0
 53 54  1  0
 54 55  1  0
 56 55  1  0
 57 56  1  0
 58 60  1  0
 58 57  1  0
 59 70  2  0
 60 65  1  0
 61 69  1  0
 61 71  1  0
 62 68  1  0
 62 64  1  0
 63 69  1  0
 64 63  1  0
 65 64  2  0
 66 67  1  0
 66 60  2  0
 67 62  2  0
 68 61  1  0
 69 59  1  0
 71 73  2  0
 72 71  1  0
 74 72  1  0
 75 84  2  0
 75 80  1  0
 76 72  1  0
 76 80  1  0
 77 76  1  0
 78 79  1  0
 78 77  1  0
 79 75  1  0
 80 81  2  0
 81 82  1  0
 83 82  2  0
 84 83  1  0
 85 59  1  0
 85 86  1  0
 85 95  1  0
 86 89  1  0
 87 91  1  0
 87 86  1  0
 88 87  2  0
 91 90  1  0
 91 93  1  0
 93 94  1  0
 93 92  1  0
 95 98  1  1
 95 96  1  0
 97 95  1  0
M  ISO  4  14 100  22 100  57 101  58 101
M  END
>  <TORSDO>  (39) 
F 28

>  <SCORE>  (39) 
-8.791

>  <name>  (39) 
38

>  <ligand_id>  (39) 
38

>  <original_smiles>  (39) 
[H]C(C(=O)N([H])C([H])([H])C([H])([H])[N+]([H])([H])C([H])([H])C([H])([H])N([H])C(=O)N1C([H])([H])C([H])([H])C([H])([H])C([H])(n2nc(-c3c([H])c([H])c(Oc4c([H])c([H])c(F)c([H])c4F)c([H])c3[H])c(C(=O)N([H])[H])c2N([H])[H])C1([H])[H])=C([H])C([H])([H])C([H])([H])OC([H])([H])C([H])([H])C([H])([H])Oc1c([H])c([H])c2c(c1[H])C([H])([H])N(C(=O)C([H])(N([H])C(=O)C([H])(N([H])C([H])([H])[H])C([H])([H])[H])C(C([H])([H])[H])(C([H])([H])[H])C([H])([H])[H])C([H])(C(=O)N([H])C1([H])c3c([H])c([H])c([H])c([H])c3C([H])([H])C([H])([H])C1([H])[H])C2([H])[H]

>  <smiles>  (39) 
[H]C(C(=O)N([H])C([H])([H])C([H])([H])[N+]([H])([H])C([H])([H])C([H])([H])N([H])C(=O)N1C([H])([H])C([H])([H])C([H])([H])C([H])(n2nc(-c3c([H])c([H])c(Oc4c([H])c([H])c(F)c([H])c4F)c([H])c3[H])c(C(=O)N([H])[H])c2N([H])[H])C1([H])[H])=C([H])C([H])([H])C([H])([H])OC([H])([H])C([H])([H])C([H])([H])Oc1c([H])c([H])c2c(c1[H])C([H])([H])N(C(=O)C([H])(N([H])C(=O)C([H])(N([H])C([H])([H])[H])C([H])([H])[H])C(C([H])([H])[H])(C([H])([H])[H])C([H])([H])[H])C([H])(C(=O)N([H])C1([H])c3c([H])c([H])c([H])c([H])c3C([H])([H])C([H])([H])C1([H])[H])C2([H])[H]

$$$$
39:0:0
     RDKit          3D

 93100  0  0  1  0  0  0  0  0999 V2000
  -28.7060  -21.6470   17.2980 N   0  0  0  0  0  4  0  0  0  0  0  0
  -28.4150  -22.2000   18.0860 H   0  0  0  0  0  0  0  0  0  0  0  0
  -27.9160  -21.0920   17.0060 H   0  0  0  0  0  0  0  0  0  0  0  0
  -29.7970  -20.7530   17.7330 C   0  0  0  0  0  2  0  0  0  0  0  0
  -29.3600  -19.8140   18.8740 C   0  0  0  0  0  2  0  0  0  0  0  0
  -30.5460  -19.0480   19.4810 C   0  0  0  0  0  2  0  0  0  0  0  0
  -30.1370  -18.0570   20.5840 C   0  0  0  0  0  2  0  0  0  0  0  0
  -31.3630  -17.4240   21.2640 C   0  0  0  0  0  2  0  0  0  0  0  0
  -31.0420  -16.2160   22.1710 C   0  0  0  0  0  2  0  0  0  0  0  0
  -30.6560  -14.4630   20.4250 C   0  0  0  0  0  0  0  0  0  0  0  0
  -30.1750  -12.5510   18.9480 C   0  0  0  0  0  2  0  0  0  0  0  0
  -29.1630  -12.9140   17.8470 C   0  0  0  0  0  2  0  0  0  0  0  0
  -27.7200  -12.7310   18.3510 C   0  0  0  0  0  2  0  0  0  0  0  0
  -27.4770  -13.4160   19.7220 C   0  0  0  0  0  3  0  0  0  0  0  0
  -28.5890  -13.0410   20.7270 C   0  0  0  0  0  2  0  0  0  0  0  0
  -29.8930  -13.3810   20.1280 N   0  0  0  0  0  0  0  0  0  0  0  0
  -31.6530  -14.7830   19.7740 O   0  0  0  0  0  0  0  0  0  0  0  0
  -30.2830  -15.1480   21.5140 N   0  0  0  0  0  0  0  0  0  0  0  0
  -29.4530  -14.8170   21.9850 H   0  0  0  0  0  0  0  0  0  0  0  0
  -25.0880  -13.9480   20.5290 C   0  0  0  0  0  0  0  0  0  0  0  0
  -24.0550  -13.1410   20.9210 C   0  0  0  0  0  0  0  0  0  0  0  0
  -24.5510  -11.8020   20.8470 C   0  0  0  0  0  0  0  0  0  0  0  0
  -26.1470  -13.1000   20.2440 N   0  0  0  0  0  0  0  0  0  0  0  0
  -25.8270  -11.8030   20.4890 N   0  0  0  0  0  0  0  0  0  0  0  0
  -23.8650  -10.5180   21.0370 C   0  0  0  0  0  0  0  0  0  0  0  0
  -24.3290   -9.5640   21.9710 C   0  0  0  0  0  3  0  0  0  0  0  0
  -23.6430   -8.3440   22.1500 C   0  0  0  0  0  3  0  0  0  0  0  0
  -22.4780   -8.0680   21.3940 C   0  0  0  0  0  0  0  0  0  0  0  0
  -22.0340   -9.0100   20.4490 C   0  0  0  0  0  3  0  0  0  0  0  0
  -22.7220  -10.2220   20.2700 C   0  0  0  0  0  3  0  0  0  0  0  0
  -21.7620   -6.8980   21.4820 O   0  0  0  0  0  0  0  0  0  0  0  0
  -21.7210   -6.1650   22.6400 C   0  0  0  0  0  0  0  0  0  0  0  0
  -21.2200   -6.7030   23.8460 C   0  0  0  0  0  3  0  0  0  0  0  0
  -21.1300   -5.8910   24.9940 C   0  0  0  0  0  3  0  0  0  0  0  0
  -21.5350   -4.5440   24.9390 C   0  0  0  0  0  0  0  0  0  0  0  0
  -22.0300   -4.0060   23.7390 C   0  0  0  0  0  3  0  0  0  0  0  0
  -22.1200   -4.8140   22.5920 C   0  0  0  0  0  0  0  0  0  0  0  0
  -22.5780   -4.2850   21.4310 F   0  0  0  0  0  0  0  0  0  0  0  0
  -21.4410   -3.7620   26.0400 F   0  0  0  0  0  0  0  0  0  0  0  0
  -22.6580  -13.5740   21.2550 C   0  0  0  0  0  0  0  0  0  0  0  0
  -21.9790  -12.8380   22.1300 N   0  0  0  0  0  0  0  0  0  0  0  0
  -22.1750  -14.6000   20.7780 O   0  0  0  0  0  0  0  0  0  0  0  0
  -22.3830  -12.0080   22.5380 H   0  0  0  0  0  0  0  0  0  0  0  0
  -21.0430  -13.1100   22.3940 H   0  0  0  0  0  0  0  0  0  0  0  0
  -25.2120  -15.3270   20.3730 N   0  0  0  0  0  0  0  0  0  0  0  0
  -24.4370  -15.9610   20.5290 H   0  0  0  0  0  0  0  0  0  0  0  0
  -26.0460  -15.7930   20.0370 H   0  0  0  0  0  0  0  0  0  0  0  0
  -29.0670  -22.5590   16.1910 C   0  0  0  0  0  2  0  0  0  0  0  0
  -28.5430  -23.9850   16.4380 C   0  0  0  0  0  2  0  0  0  0  0  0
  -29.3660  -24.7890   17.4710 C   0  0  0  0  0  2  0  0  0  0  0  0
  -28.4800  -25.4630   18.5270 C   0  0  0  0  0  2  0  0  0  0  0  0
  -29.2060  -26.4790   19.4300 C   0  0  0  0  0  2  0  0  0  0  0  0
  -28.5390  -26.7310   20.6720 O   0  0  0  0  0  0  0  0  0  0  0  0
  -24.5670  -31.9900   23.3810 C   0  0  0  0  0  0  0  0  0  0  0  0
  -27.3630  -27.4400   20.6130 C   0  0  0  0  0  0  0  0  0  0  0  0
  -23.4360  -30.5020   21.7640 C   0  0  0  0  0  3  0  0  0  0  0  0
  -24.9530  -28.9050   20.4910 C   0  0  0  0  0  0  0  0  0  0  0  0
  -25.9670  -30.8690   21.6530 C   0  0  0  0  0  2  0  0  0  0  0  0
  -26.0870  -29.4710   21.0880 C   0  0  0  0  0  0  0  0  0  0  0  0
  -27.2970  -28.7440   21.1530 C   0  0  0  0  0  3  0  0  0  0  0  0
  -26.1950  -26.8660   20.0680 C   0  0  0  0  0  3  0  0  0  0  0  0
  -24.9980  -27.5960   19.9860 C   0  0  0  0  0  3  0  0  0  0  0  0
  -23.7070  -29.7540   20.4330 C   0  0  0  0  0  2  0  0  0  0  0  0
  -24.6730  -31.1350   22.3260 N   0  0  0  0  0  0  0  0  0  0  0  0
  -23.4600  -32.2870   23.8550 O   0  0  0  0  0  0  0  0  0  0  0  0
  -22.7480  -29.5280   22.7450 C   0  0  0  0  0  0  0  0  0  0  0  0
  -21.4360  -29.3170   22.5520 N   0  0  0  0  0  0  0  0  0  0  0  0
  -23.3930  -28.9570   23.6290 O   0  0  0  0  0  0  0  0  0  0  0  0
  -20.9810  -29.8240   21.8060 H   0  0  0  0  0  0  0  0  0  0  0  0
  -18.0480  -28.1220   22.9420 C   0  0  0  0  0  0  0  0  0  0  0  0
  -20.5880  -28.4130   23.3270 C   0  0  0  0  0  3  0  0  0  0  0  0
  -20.7280  -26.9560   22.8290 C   0  0  0  0  0  2  0  0  0  0  0  0
  -19.6810  -26.5720   21.7810 C   0  0  0  0  0  2  0  0  0  0  0  0
  -18.2670  -26.7410   22.3460 C   0  0  0  0  0  2  0  0  0  0  0  0
  -19.1400  -28.9140   23.3880 C   0  0  0  0  0  0  0  0  0  0  0  0
  -18.8870  -30.2040   23.9020 C   0  0  0  0  0  3  0  0  0  0  0  0
  -17.5740  -30.7070   23.9690 C   0  0  0  0  0  3  0  0  0  0  0  0
  -16.4960  -29.9130   23.5420 C   0  0  0  0  0  3  0  0  0  0  0  0
  -16.7320  -28.6230   23.0350 C   0  0  0  0  0  3  0  0  0  0  0  0
  -25.8220  -32.6560   24.0240 C   0  0  0  0  0  3  0  0  0  0  0  0
  -26.2970  -31.9410   25.3490 C   0  0  1  0  0  0  0  0  0  0  0  0
  -25.1560  -31.7010   26.3660 C   0  0  0  0  0  1  0  0  0  0  0  0
  -26.9430  -30.5730   25.0310 C   0  0  0  0  0  1  0  0  0  0  0  0
  -27.3900  -32.7920   26.0410 C   0  0  0  0  0  1  0  0  0  0  0  0
  -25.4900  -34.0620   24.2820 N   0  0  0  0  0  0  0  0  0  0  0  0
  -25.8430  -35.0840   23.4890 C   0  0  0  0  0  0  0  0  0  0  0  0
  -26.5520  -34.9410   22.4880 O   0  0  0  0  0  0  0  0  0  0  0  0
  -24.8590  -34.2460   25.0480 H   0  0  0  0  0  0  0  0  0  0  0  0
  -24.1160  -36.8430   22.9910 C   0  0  0  0  0  1  0  0  0  0  0  0
  -25.3280  -36.4860   23.8660 C   0  0  0  0  0  3  0  0  0  0  0  0
  -27.4190  -37.4260   24.7440 C   0  0  0  0  0  1  0  0  0  0  0  0
  -26.3580  -37.5420   23.7480 N   0  0  0  0  0  0  0  0  0  0  0  0
  -25.9410  -38.4640   23.8340 H   0  0  0  0  0  0  0  0  0  0  0  0
  1  4  1  0
  1  2  1  0
  3  1  1  0
  4  5  1  0
  5  6  1  0
  6  7  1  0
  7  8  1  0
  8  9  1  0
 10 18  1  0
 11 16  1  0
 12 13  1  0
 12 11  1  0
 14 13  1  0
 14 23  1  0
 14 15  1  0
 16 10  1  0
 16 15  1  0
 17 10  2  0
 18 19  1  0
 18  9  1  0
 20 21  2  0
 21 40  1  0
 22 21  1  0
 22 25  1  0
 23 24  1  0
 23 20  1  0
 24 22  2  0
 25 26  1  0
 26 27  2  0
 28 31  1  0
 28 27  1  0
 29 28  2  0
 30 29  1  0
 30 25  2  0
 31 32  1  0
 32 33  1  0
 33 34  2  0
 35 34  1  0
 35 39  1  0
 36 35  2  0
 37 32  2  0
 37 36  1  0
 38 37  1  0
 40 41  1  0
 41 44  1  0
 41 43  1  0
 42 40  2  0
 45 20  1  0
 45 46  1  0
 47 45  1  0
 48 49  1  0
 48  1  1  0
 49 50  1  0
 50 51  1  0
 51 52  1  0
 52 53  1  0
 54 65  2  0
 55 53  1  0
 55 60  1  0
 56 64  1  0
 56 66  1  0
 57 59  1  0
 58 64  1  0
 59 60  2  0
 59 58  1  0
 61 55  2  0
 62 61  1  0
 62 57  2  0
 63 57  1  0
 63 56  1  0
 64 54  1  0
 66 68  2  0
 67 66  1  0
 69 67  1  0
 70 79  2  0
 70 75  1  0
 71 67  1  0
 71 75  1  0
 72 71  1  0
 73 74  1  0
 73 72  1  0
 74 70  1  0
 75 76  2  0
 76 77  1  0
 78 77  2  0
 79 78  1  0
 80 54  1  0
 80 85  1  0
 80 81  1  0
 81 84  1  1
 81 82  1  0
 83 81  1  0
 85 88  1  0
 86 90  1  0
 86 85  1  0
 87 86  2  0
 90 89  1  0
 92 93  1  0
 92 90  1  0
 92 91  1  0
M  ISO  4  10 100  18 100  52 101  53 101
M  END
>  <TORSDO>  (40) 
F 27

>  <SCORE>  (40) 
-10.747

>  <name>  (40) 
39

>  <ligand_id>  (40) 
39

>  <original_smiles>  (40) 
[H]c1c([H])c([H])c2c(c1[H])C([H])([H])C([H])([H])C([H])([H])C2([H])N([H])C(=O)C1([H])N(C(=O)C([H])(N([H])C(=O)C([H])(N([H])C([H])([H])[H])C([H])([H])[H])C(C([H])([H])[H])(C([H])([H])[H])C([H])([H])[H])C([H])([H])c2c([H])c(OC([H])([H])C([H])([H])C([H])([H])C([H])([H])C([H])([H])[N+]([H])([H])C([H])([H])C([H])([H])C([H])([H])C([H])([H])C([H])([H])C([H])([H])N([H])C(=O)N3C([H])([H])C([H])([H])C([H])([H])C([H])(n4nc(-c5c([H])c([H])c(Oc6c([H])c([H])c(F)c([H])c6F)c([H])c5[H])c(C(=O)N([H])[H])c4N([H])[H])C3([H])[H])c([H])c([H])c2C1([H])[H]

>  <smiles>  (40) 
[H]c1c([H])c([H])c2c(c1[H])C([H])([H])C([H])([H])C([H])([H])C2([H])N([H])C(=O)C1([H])N(C(=O)C([H])(N([H])C(=O)C([H])(N([H])C([H])([H])[H])C([H])([H])[H])C(C([H])([H])[H])(C([H])([H])[H])C([H])([H])[H])C([H])([H])c2c([H])c(OC([H])([H])C([H])([H])C([H])([H])C([H])([H])C([H])([H])[N+]([H])([H])C([H])([H])C([H])([H])C([H])([H])C([H])([H])C([H])([H])C([H])([H])N([H])C(=O)N3C([H])([H])C([H])([H])C([H])([H])C([H])(n4nc(-c5c([H])c([H])c(Oc6c([H])c([H])c(F)c([H])c6F)c([H])c5[H])c(C(=O)N([H])[H])c4N([H])[H])C3([H])[H])c([H])c([H])c2C1([H])[H]

$$$$
40:0:0
     RDKit          3D

 99106  0  0  1  0  0  0  0  0999 V2000
  -24.6470  -22.8830   17.6430 C   0  0  0  0  0  2  0  0  0  0  0  0
  -24.2350  -22.4890   19.0100 N   0  0  0  0  0  4  0  0  0  0  0  0
  -24.7980  -21.7110   19.3100 H   0  0  0  0  0  0  0  0  0  0  0  0
  -23.2810  -22.1680   18.9590 H   0  0  0  0  0  0  0  0  0  0  0  0
  -24.3190  -23.5500   20.0410 C   0  0  0  0  0  2  0  0  0  0  0  0
  -25.6950  -23.6020   20.7350 C   0  0  0  0  0  2  0  0  0  0  0  0
  -26.6170  -24.1800   19.8270 O   0  0  0  0  0  0  0  0  0  0  0  0
  -27.8820  -24.5130   20.3820 C   0  0  0  0  0  2  0  0  0  0  0  0
  -28.5020  -25.6670   19.5680 C   0  0  0  0  0  2  0  0  0  0  0  0
  -28.4060  -26.9360   20.2250 O   0  0  0  0  0  0  0  0  0  0  0  0
  -24.6160  -31.9910   23.4750 C   0  0  0  0  0  0  0  0  0  0  0  0
  -27.2120  -27.6280   20.2360 C   0  0  0  0  0  0  0  0  0  0  0  0
  -23.3970  -30.6600   21.7880 C   0  0  0  0  0  3  0  0  0  0  0  0
  -24.8290  -29.1530   20.3160 C   0  0  0  0  0  0  0  0  0  0  0  0
  -25.9280  -30.9840   21.6140 C   0  0  0  0  0  2  0  0  0  0  0  0
  -25.9890  -29.6350   20.9310 C   0  0  0  0  0  0  0  0  0  0  0  0
  -27.1760  -28.8710   20.9030 C   0  0  0  0  0  3  0  0  0  0  0  0
  -26.0330  -27.1730   19.6010 C   0  0  0  0  0  3  0  0  0  0  0  0
  -24.8420  -27.9150   19.6550 C   0  0  0  0  0  3  0  0  0  0  0  0
  -23.5980  -30.0250   20.3870 C   0  0  0  0  0  2  0  0  0  0  0  0
  -24.6660  -31.2240   22.3500 N   0  0  0  0  0  0  0  0  0  0  0  0
  -23.5370  -32.2630   24.0190 O   0  0  0  0  0  0  0  0  0  0  0  0
  -22.7300  -29.6150   22.7110 C   0  0  0  0  0  0  0  0  0  0  0  0
  -21.4100  -29.4300   22.5480 N   0  0  0  0  0  0  0  0  0  0  0  0
  -23.3960  -28.9710   23.5250 O   0  0  0  0  0  0  0  0  0  0  0  0
  -20.9320  -30.0010   21.8630 H   0  0  0  0  0  0  0  0  0  0  0  0
  -18.0340  -28.2070   22.9300 C   0  0  0  0  0  0  0  0  0  0  0  0
  -20.5800  -28.4740   23.2790 C   0  0  0  0  0  3  0  0  0  0  0  0
  -20.7090  -27.0540   22.6820 C   0  0  0  0  0  2  0  0  0  0  0  0
  -19.6390  -26.7410   21.6320 C   0  0  0  0  0  2  0  0  0  0  0  0
  -18.2390  -26.8690   22.2380 C   0  0  0  0  0  2  0  0  0  0  0  0
  -19.1350  -28.9680   23.4050 C   0  0  0  0  0  0  0  0  0  0  0  0
  -18.8920  -30.2220   24.0060 C   0  0  0  0  0  3  0  0  0  0  0  0
  -17.5800  -30.7150   24.1410 C   0  0  0  0  0  3  0  0  0  0  0  0
  -16.4940  -29.9480   23.6860 C   0  0  0  0  0  3  0  0  0  0  0  0
  -16.7210  -28.6970   23.0880 C   0  0  0  0  0  3  0  0  0  0  0  0
  -25.9100  -32.5810   24.1170 C   0  0  0  0  0  3  0  0  0  0  0  0
  -25.6400  -33.9860   24.4440 N   0  0  0  0  0  0  0  0  0  0  0  0
  -26.0120  -35.0290   23.6880 C   0  0  0  0  0  0  0  0  0  0  0  0
  -26.6940  -34.9060   22.6660 O   0  0  0  0  0  0  0  0  0  0  0  0
  -25.0460  -34.1610   25.2410 H   0  0  0  0  0  0  0  0  0  0  0  0
  -24.3470  -36.8690   23.2960 C   0  0  0  0  0  1  0  0  0  0  0  0
  -25.5560  -36.4300   24.1370 C   0  0  0  0  0  3  0  0  0  0  0  0
  -27.6930  -37.2510   25.0230 C   0  0  0  0  0  1  0  0  0  0  0  0
  -26.6230  -37.4510   24.0500 N   0  0  0  0  0  0  0  0  0  0  0  0
  -26.2400  -38.3820   24.1830 H   0  0  0  0  0  0  0  0  0  0  0  0
  -26.3880  -31.7900   25.3960 C   0  0  1  0  0  0  0  0  0  0  0  0
  -25.2740  -31.5760   26.4470 C   0  0  0  0  0  1  0  0  0  0  0  0
  -26.9410  -30.4000   25.0010 C   0  0  0  0  0  1  0  0  0  0  0  0
  -27.5510  -32.5490   26.0770 C   0  0  0  0  0  1  0  0  0  0  0  0
  -25.1260  -21.6860   16.7940 C   0  0  0  0  0  2  0  0  0  0  0  0
  -26.5650  -21.2200   17.1040 C   0  0  0  0  0  2  0  0  0  0  0  0
  -26.6620  -20.1990   18.2540 C   0  0  0  0  0  2  0  0  0  0  0  0
  -28.1080  -19.9130   18.6880 C   0  0  0  0  0  2  0  0  0  0  0  0
  -28.1670  -18.9520   19.8890 C   0  0  0  0  0  2  0  0  0  0  0  0
  -29.5540  -18.6500   20.2920 N   0  0  0  0  0  4  0  0  0  0  0  0
  -29.9600  -19.4610   20.7330 H   0  0  0  0  0  0  0  0  0  0  0  0
  -30.0880  -18.4520   19.4620 H   0  0  0  0  0  0  0  0  0  0  0  0
  -29.6680  -17.4940   21.2050 C   0  0  0  0  0  2  0  0  0  0  0  0
  -31.1300  -17.0420   21.3820 C   0  0  0  0  0  2  0  0  0  0  0  0
  -31.2850  -15.6960   22.1210 C   0  0  0  0  0  2  0  0  0  0  0  0
  -30.7620  -14.0440   20.3080 C   0  0  0  0  0  0  0  0  0  0  0  0
  -30.2090  -12.1300   18.8580 C   0  0  0  0  0  2  0  0  0  0  0  0
  -29.2040  -12.4880   17.7520 C   0  0  0  0  0  2  0  0  0  0  0  0
  -27.7600  -12.3530   18.2650 C   0  0  0  0  0  2  0  0  0  0  0  0
  -27.5370  -13.0950   19.6070 C   0  0  0  0  0  3  0  0  0  0  0  0
  -28.6370  -12.7270   20.6260 C   0  0  0  0  0  2  0  0  0  0  0  0
  -29.9580  -12.9910   20.0210 N   0  0  0  0  0  0  0  0  0  0  0  0
  -31.6870  -14.4200   19.5830 O   0  0  0  0  0  0  0  0  0  0  0  0
  -30.5330  -14.6040   21.5020 N   0  0  0  0  0  0  0  0  0  0  0  0
  -29.8040  -14.1730   22.0550 H   0  0  0  0  0  0  0  0  0  0  0  0
  -25.1700  -13.7250   20.4090 C   0  0  0  0  0  0  0  0  0  0  0  0
  -24.1140  -12.9620   20.8270 C   0  0  0  0  0  0  0  0  0  0  0  0
  -24.5650  -11.6060   20.7820 C   0  0  0  0  0  0  0  0  0  0  0  0
  -26.2010  -12.8370   20.1400 N   0  0  0  0  0  0  0  0  0  0  0  0
  -25.8390  -11.5570   20.4170 N   0  0  0  0  0  0  0  0  0  0  0  0
  -23.8400  -10.3490   21.0070 C   0  0  0  0  0  0  0  0  0  0  0  0
  -24.2710   -9.4110   21.9710 C   0  0  0  0  0  3  0  0  0  0  0  0
  -23.5480   -8.2180   22.1820 C   0  0  0  0  0  3  0  0  0  0  0  0
  -22.3800   -7.9540   21.4280 C   0  0  0  0  0  0  0  0  0  0  0  0
  -21.9680   -8.8790   20.4530 C   0  0  0  0  0  3  0  0  0  0  0  0
  -22.6910  -10.0640   20.2410 C   0  0  0  0  0  3  0  0  0  0  0  0
  -21.6270   -6.8100   21.5460 O   0  0  0  0  0  0  0  0  0  0  0  0
  -21.5460   -6.1210   22.7300 C   0  0  0  0  0  0  0  0  0  0  0  0
  -21.0570   -6.7230   23.9110 C   0  0  0  0  0  3  0  0  0  0  0  0
  -20.9250   -5.9600   25.0880 C   0  0  0  0  0  3  0  0  0  0  0  0
  -21.2700   -4.5950   25.0850 C   0  0  0  0  0  0  0  0  0  0  0  0
  -21.7520   -3.9920   23.9100 C   0  0  0  0  0  3  0  0  0  0  0  0
  -21.8860   -4.7530   22.7340 C   0  0  0  0  0  0  0  0  0  0  0  0
  -22.3300   -4.1630   21.5990 F   0  0  0  0  0  0  0  0  0  0  0  0
  -21.1370   -3.8590   26.2130 F   0  0  0  0  0  0  0  0  0  0  0  0
  -22.7320  -13.4470   21.1590 C   0  0  0  0  0  0  0  0  0  0  0  0
  -22.0380  -12.7550   22.0560 N   0  0  0  0  0  0  0  0  0  0  0  0
  -22.2790  -14.4770   20.6610 O   0  0  0  0  0  0  0  0  0  0  0  0
  -22.4180  -11.9210   22.4810 H   0  0  0  0  0  0  0  0  0  0  0  0
  -21.1140  -13.0630   22.3230 H   0  0  0  0  0  0  0  0  0  0  0  0
  -25.3360  -15.0940   20.2180 N   0  0  0  0  0  0  0  0  0  0  0  0
  -24.5790  -15.7540   20.3510 H   0  0  0  0  0  0  0  0  0  0  0  0
  -26.1720  -15.5170   19.8370 H   0  0  0  0  0  0  0  0  0  0  0  0
  1  2  1  0
  2  3  1  0
  2  5  1  0
  4  2  1  0
  5  6  1  0
  7  8  1  0
  7  6  1  0
  9 10  1  0
  9  8  1  0
 10 12  1  0
 11 22  2  0
 12 17  1  0
 13 21  1  0
 13 23  1  0
 14 20  1  0
 14 16  1  0
 15 21  1  0
 16 15  1  0
 17 16  2  0
 18 19  1  0
 18 12  2  0
 19 14  2  0
 20 13  1  0
 21 11  1  0
 23 25  2  0
 24 23  1  0
 26 24  1  0
 27 36  2  0
 27 32  1  0
 28 24  1  0
 28 32  1  0
 29 28  1  0
 30 31  1  0
 30 29  1  0
 31 27  1  0
 32 33  2  0
 33 34  1  0
 35 34  2  0
 36 35  1  0
 37 11  1  0
 37 38  1  0
 37 47  1  0
 38 41  1  0
 39 43  1  0
 39 38  1  0
 40 39  2  0
 43 42  1  0
 45 43  1  0
 45 46  1  0
 45 44  1  0
 47 50  1  1
 47 48  1  0
 49 47  1  0
 51 52  1  0
 51  1  1  0
 52 53  1  0
 53 54  1  0
 54 55  1  0
 55 56  1  0
 56 57  1  0
 56 59  1  0
 58 56  1  0
 59 60  1  0
 60 61  1  0
 62 70  1  0
 63 68  1  0
 64 65  1  0
 64 63  1  0
 66 65  1  0
 66 75  1  0
 66 67  1  0
 68 62  1  0
 68 67  1  0
 69 62  2  0
 70 71  1  0
 70 61  1  0
 72 73  2  0
 73 92  1  0
 74 73  1  0
 74 77  1  0
 75 72  1  0
 75 76  1  0
 76 74  2  0
 77 78  1  0
 78 79  2  0
 80 83  1  0
 80 79  1  0
 81 80  2  0
 82 81  1  0
 82 77  2  0
 83 84  1  0
 84 89  2  0
 84 85  1  0
 85 86  2  0
 87 86  1  0
 87 91  1  0
 88 87  2  0
 89 88  1  0
 90 89  1  0
 92 93  1  0
 93 96  1  0
 93 95  1  0
 94 92  2  0
 97 98  1  0
 97 72  1  0
 99 97  1  0
M  ISO  4   9 101  10 101  62 100  70 100
M  END
>  <TORSDO>  (41) 
F 31

>  <SCORE>  (41) 
-9.939

>  <name>  (41) 
40

>  <ligand_id>  (41) 
40

>  <original_smiles>  (41) 
[H]c1c([H])c([H])c2c(c1[H])C([H])([H])C([H])([H])C([H])([H])C2([H])N([H])C(=O)C1([H])N(C(=O)C([H])(N([H])C(=O)C([H])(N([H])C([H])([H])[H])C([H])([H])[H])C(C([H])([H])[H])(C([H])([H])[H])C([H])([H])[H])C([H])([H])c2c([H])c(OC([H])([H])C([H])([H])OC([H])([H])C([H])([H])[N+]([H])([H])C([H])([H])C([H])([H])C([H])([H])C([H])([H])C([H])([H])C([H])([H])[N+]([H])([H])C([H])([H])C([H])([H])C([H])([H])N([H])C(=O)N3C([H])([H])C([H])([H])C([H])([H])C([H])(n4nc(-c5c([H])c([H])c(Oc6c([H])c([H])c(F)c([H])c6F)c([H])c5[H])c(C(=O)N([H])[H])c4N([H])[H])C3([H])[H])c([H])c([H])c2C1([H])[H]

>  <smiles>  (41) 
[H]c1c([H])c([H])c2c(c1[H])C([H])([H])C([H])([H])C([H])([H])C2([H])N([H])C(=O)C1([H])N(C(=O)C([H])(N([H])C(=O)C([H])(N([H])C([H])([H])[H])C([H])([H])[H])C(C([H])([H])[H])(C([H])([H])[H])C([H])([H])[H])C([H])([H])c2c([H])c(OC([H])([H])C([H])([H])OC([H])([H])C([H])([H])[N+]([H])([H])C([H])([H])C([H])([H])C([H])([H])C([H])([H])C([H])([H])C([H])([H])[N+]([H])([H])C([H])([H])C([H])([H])C([H])([H])N([H])C(=O)N3C([H])([H])C([H])([H])C([H])([H])C([H])(n4nc(-c5c([H])c([H])c(Oc6c([H])c([H])c(F)c([H])c6F)c([H])c5[H])c(C(=O)N([H])[H])c4N([H])[H])C3([H])[H])c([H])c([H])c2C1([H])[H]

$$$$
41:0:0
     RDKit          3D

 94101  0  0  1  0  0  0  0  0999 V2000
  -28.9040  -22.5470   18.6130 C   0  0  0  0  0  2  0  0  0  0  0  0
  -29.3660  -23.9030   18.0520 C   0  0  0  0  0  2  0  0  0  0  0  0
  -28.2280  -24.8390   17.9310 N   0  0  0  0  0  4  0  0  0  0  0  0
  -27.6890  -24.7930   18.7810 H   0  0  0  0  0  0  0  0  0  0  0  0
  -27.6370  -24.5120   17.1820 H   0  0  0  0  0  0  0  0  0  0  0  0
  -28.5740  -26.2600   17.6800 C   0  0  0  0  0  2  0  0  0  0  0  0
  -29.1250  -26.9790   18.9330 C   0  0  0  0  0  2  0  0  0  0  0  0
  -28.3210  -26.7540   20.0940 O   0  0  0  0  0  0  0  0  0  0  0  0
  -24.5550  -31.9110   23.2690 C   0  0  0  0  0  0  0  0  0  0  0  0
  -27.1640  -27.4870   20.1480 C   0  0  0  0  0  0  0  0  0  0  0  0
  -23.3290  -30.5100   21.6410 C   0  0  0  0  0  3  0  0  0  0  0  0
  -24.7700  -28.9680   20.2100 C   0  0  0  0  0  0  0  0  0  0  0  0
  -25.8540  -30.8680   21.4180 C   0  0  0  0  0  2  0  0  0  0  0  0
  -25.9330  -29.4980   20.7820 C   0  0  0  0  0  0  0  0  0  0  0  0
  -27.1390  -28.7620   20.7550 C   0  0  0  0  0  3  0  0  0  0  0  0
  -25.9770  -26.9490   19.6100 C   0  0  0  0  0  3  0  0  0  0  0  0
  -24.7820  -27.6900   19.6280 C   0  0  0  0  0  3  0  0  0  0  0  0
  -23.5250  -29.8230   20.2630 C   0  0  0  0  0  2  0  0  0  0  0  0
  -24.5980  -31.1110   22.1660 N   0  0  0  0  0  0  0  0  0  0  0  0
  -23.4790  -32.1900   23.8170 O   0  0  0  0  0  0  0  0  0  0  0  0
  -22.6870  -29.4920   22.6080 C   0  0  0  0  0  0  0  0  0  0  0  0
  -21.3650  -29.3020   22.4800 N   0  0  0  0  0  0  0  0  0  0  0  0
  -23.3760  -28.8750   23.4240 O   0  0  0  0  0  0  0  0  0  0  0  0
  -20.8720  -29.8490   21.7880 H   0  0  0  0  0  0  0  0  0  0  0  0
  -17.9960  -28.0980   22.9730 C   0  0  0  0  0  0  0  0  0  0  0  0
  -20.5500  -28.3690   23.2560 C   0  0  0  0  0  3  0  0  0  0  0  0
  -20.6630  -26.9340   22.6920 C   0  0  0  0  0  2  0  0  0  0  0  0
  -19.5680  -26.5970   21.6740 C   0  0  0  0  0  2  0  0  0  0  0  0
  -18.1820  -26.7440   22.3080 C   0  0  0  0  0  2  0  0  0  0  0  0
  -19.1100  -28.8680   23.4020 C   0  0  0  0  0  0  0  0  0  0  0  0
  -18.8830  -30.1380   23.9780 C   0  0  0  0  0  3  0  0  0  0  0  0
  -17.5750  -30.6370   24.1300 C   0  0  0  0  0  3  0  0  0  0  0  0
  -16.4770  -29.8620   23.7190 C   0  0  0  0  0  3  0  0  0  0  0  0
  -16.6870  -28.5960   23.1450 C   0  0  0  0  0  3  0  0  0  0  0  0
  -25.8490  -32.5360   23.8760 C   0  0  0  0  0  3  0  0  0  0  0  0
  -26.3790  -31.7680   25.1520 C   0  0  1  0  0  0  0  0  0  0  0  0
  -25.2910  -31.5410   26.2300 C   0  0  0  0  0  1  0  0  0  0  0  0
  -26.9530  -30.3860   24.7630 C   0  0  0  0  0  1  0  0  0  0  0  0
  -27.5390  -32.5630   25.7980 C   0  0  0  0  0  1  0  0  0  0  0  0
  -25.5540  -33.9390   24.1960 N   0  0  0  0  0  0  0  0  0  0  0  0
  -25.9000  -34.9810   23.4280 C   0  0  0  0  0  0  0  0  0  0  0  0
  -26.5710  -34.8650   22.3990 O   0  0  0  0  0  0  0  0  0  0  0  0
  -24.9490  -34.1050   24.9870 H   0  0  0  0  0  0  0  0  0  0  0  0
  -24.1910  -36.7860   23.0510 C   0  0  0  0  0  1  0  0  0  0  0  0
  -25.4210  -36.3750   23.8740 C   0  0  0  0  0  3  0  0  0  0  0  0
  -27.5580  -37.2420   24.7170 C   0  0  0  0  0  1  0  0  0  0  0  0
  -26.4650  -37.4170   23.7650 N   0  0  0  0  0  0  0  0  0  0  0  0
  -26.0660  -38.3420   23.9060 H   0  0  0  0  0  0  0  0  0  0  0  0
  -30.0550  -21.5370   18.7550 C   0  0  0  0  0  2  0  0  0  0  0  0
  -29.6040  -20.2270   19.4250 C   0  0  0  0  0  2  0  0  0  0  0  0
  -30.7350  -19.3180   19.7120 N   0  0  0  0  0  4  0  0  0  0  0  0
  -31.4020  -19.8130   20.2830 H   0  0  0  0  0  0  0  0  0  0  0  0
  -31.1980  -19.0620   18.8520 H   0  0  0  0  0  0  0  0  0  0  0  0
  -30.3310  -18.0950   20.4350 C   0  0  0  0  0  2  0  0  0  0  0  0
  -31.5360  -17.3360   21.0180 C   0  0  0  0  0  2  0  0  0  0  0  0
  -31.1420  -16.1570   21.9390 C   0  0  0  0  0  2  0  0  0  0  0  0
  -30.7370  -14.3080   20.2960 C   0  0  0  0  0  0  0  0  0  0  0  0
  -30.2780  -12.2760   18.9810 C   0  0  0  0  0  2  0  0  0  0  0  0
  -29.2890  -12.5390   17.8310 C   0  0  0  0  0  2  0  0  0  0  0  0
  -27.8360  -12.4040   18.3200 C   0  0  0  0  0  2  0  0  0  0  0  0
  -27.5670  -13.2090   19.6180 C   0  0  0  0  0  3  0  0  0  0  0  0
  -28.6550  -12.9250   20.6770 C   0  0  0  0  0  2  0  0  0  0  0  0
  -29.9740  -13.2080   20.0770 N   0  0  0  0  0  0  0  0  0  0  0  0
  -31.7510  -14.5660   19.6420 O   0  0  0  0  0  0  0  0  0  0  0  0
  -30.3490  -15.0940   21.3090 N   0  0  0  0  0  0  0  0  0  0  0  0
  -29.5040  -14.8120   21.7850 H   0  0  0  0  0  0  0  0  0  0  0  0
  -25.1930  -13.8330   20.3980 C   0  0  0  0  0  0  0  0  0  0  0  0
  -24.1330  -13.0650   20.8020 C   0  0  0  0  0  0  0  0  0  0  0  0
  -24.5870  -11.7120   20.7610 C   0  0  0  0  0  0  0  0  0  0  0  0
  -26.2260  -12.9460   20.1380 N   0  0  0  0  0  0  0  0  0  0  0  0
  -25.8660  -11.6650   20.4120 N   0  0  0  0  0  0  0  0  0  0  0  0
  -23.8620  -10.4540   20.9800 C   0  0  0  0  0  0  0  0  0  0  0  0
  -24.3170   -9.4900   21.9060 C   0  0  0  0  0  3  0  0  0  0  0  0
  -23.5950   -8.2960   22.1110 C   0  0  0  0  0  3  0  0  0  0  0  0
  -22.4030   -8.0550   21.3880 C   0  0  0  0  0  0  0  0  0  0  0  0
  -21.9640   -9.0070   20.4500 C   0  0  0  0  0  3  0  0  0  0  0  0
  -22.6880  -10.1940   20.2450 C   0  0  0  0  0  3  0  0  0  0  0  0
  -21.6500   -6.9120   21.5010 O   0  0  0  0  0  0  0  0  0  0  0  0
  -21.6350   -6.1700   22.6550 C   0  0  0  0  0  0  0  0  0  0  0  0
  -21.2510   -6.7280   23.8930 C   0  0  0  0  0  3  0  0  0  0  0  0
  -21.1840   -5.9140   25.0410 C   0  0  0  0  0  3  0  0  0  0  0  0
  -21.4920   -4.5430   24.9520 C   0  0  0  0  0  0  0  0  0  0  0  0
  -21.8690   -3.9850   23.7190 C   0  0  0  0  0  3  0  0  0  0  0  0
  -21.9380   -4.7960   22.5730 C   0  0  0  0  0  0  0  0  0  0  0  0
  -22.2820   -4.2490   21.3820 F   0  0  0  0  0  0  0  0  0  0  0  0
  -21.4200   -3.7580   26.0530 F   0  0  0  0  0  0  0  0  0  0  0  0
  -22.7470  -13.5510   21.1170 C   0  0  0  0  0  0  0  0  0  0  0  0
  -22.0430  -12.8580   22.0070 N   0  0  0  0  0  0  0  0  0  0  0  0
  -22.2960  -14.5760   20.6090 O   0  0  0  0  0  0  0  0  0  0  0  0
  -22.4210  -12.0290   22.4420 H   0  0  0  0  0  0  0  0  0  0  0  0
  -21.1120  -13.1630   22.2570 H   0  0  0  0  0  0  0  0  0  0  0  0
  -25.3610  -15.2020   20.2120 N   0  0  0  0  0  0  0  0  0  0  0  0
  -24.6050  -15.8640   20.3500 H   0  0  0  0  0  0  0  0  0  0  0  0
  -26.2090  -15.6320   19.8670 H   0  0  0  0  0  0  0  0  0  0  0  0
  1 49  1  0
  2  1  1  0
  3  2  1  0
  3  4  1  0
  5  3  1  0
  6  3  1  0
  6  7  1  0
  7  8  1  0
  8 10  1  0
  9 20  2  0
 10 15  1  0
 11 19  1  0
 11 21  1  0
 12 18  1  0
 12 14  1  0
 13 19  1  0
 14 13  1  0
 15 14  2  0
 16 17  1  0
 16 10  2  0
 17 12  2  0
 18 11  1  0
 19  9  1  0
 21 23  2  0
 22 21  1  0
 24 22  1  0
 25 34  2  0
 25 30  1  0
 26 22  1  0
 26 30  1  0
 27 26  1  0
 28 29  1  0
 28 27  1  0
 29 25  1  0
 30 31  2  0
 31 32  1  0
 33 32  2  0
 34 33  1  0
 35  9  1  0
 35 40  1  0
 35 36  1  0
 36 39  1  1
 36 37  1  0
 38 36  1  0
 40 43  1  0
 41 45  1  0
 41 40  1  0
 42 41  2  0
 45 44  1  0
 47 45  1  0
 47 48  1  0
 47 46  1  0
 49 50  1  0
 50 51  1  0
 51 52  1  0
 51 54  1  0
 53 51  1  0
 54 55  1  0
 55 56  1  0
 57 65  1  0
 58 63  1  0
 59 60  1  0
 59 58  1  0
 61 60  1  0
 61 70  1  0
 61 62  1  0
 63 57  1  0
 63 62  1  0
 64 57  2  0
 65 66  1  0
 65 56  1  0
 67 68  2  0
 68 87  1  0
 69 68  1  0
 69 72  1  0
 70 67  1  0
 70 71  1  0
 71 69  2  0
 72 73  1  0
 73 74  2  0
 75 78  1  0
 75 74  1  0
 76 75  2  0
 77 76  1  0
 77 72  2  0
 78 79  1  0
 79 80  1  0
 80 81  2  0
 82 81  1  0
 82 86  1  0
 83 82  2  0
 84 79  2  0
 84 83  1  0
 85 84  1  0
 87 88  1  0
 88 91  1  0
 88 90  1  0
 89 87  2  0
 92 93  1  0
 92 67  1  0
 94 92  1  0
M  ISO  4   7 101   8 101  57 100  65 100
M  END
>  <TORSDO>  (42) 
F 26

>  <SCORE>  (42) 
-11.668

>  <name>  (42) 
41

>  <ligand_id>  (42) 
41

>  <original_smiles>  (42) 
[H]c1c([H])c([H])c2c(c1[H])C([H])([H])C([H])([H])C([H])([H])C2([H])N([H])C(=O)C1([H])N(C(=O)C([H])(N([H])C(=O)C([H])(N([H])C([H])([H])[H])C([H])([H])[H])C(C([H])([H])[H])(C([H])([H])[H])C([H])([H])[H])C([H])([H])c2c([H])c(OC([H])([H])C([H])([H])[N+]([H])([H])C([H])([H])C([H])([H])C([H])([H])C([H])([H])[N+]([H])([H])C([H])([H])C([H])([H])C([H])([H])N([H])C(=O)N3C([H])([H])C([H])([H])C([H])([H])C([H])(n4nc(-c5c([H])c([H])c(Oc6c([H])c([H])c(F)c([H])c6F)c([H])c5[H])c(C(=O)N([H])[H])c4N([H])[H])C3([H])[H])c([H])c([H])c2C1([H])[H]

>  <smiles>  (42) 
[H]c1c([H])c([H])c2c(c1[H])C([H])([H])C([H])([H])C([H])([H])C2([H])N([H])C(=O)C1([H])N(C(=O)C([H])(N([H])C(=O)C([H])(N([H])C([H])([H])[H])C([H])([H])[H])C(C([H])([H])[H])(C([H])([H])[H])C([H])([H])[H])C([H])([H])c2c([H])c(OC([H])([H])C([H])([H])[N+]([H])([H])C([H])([H])C([H])([H])C([H])([H])C([H])([H])[N+]([H])([H])C([H])([H])C([H])([H])C([H])([H])N([H])C(=O)N3C([H])([H])C([H])([H])C([H])([H])C([H])(n4nc(-c5c([H])c([H])c(Oc6c([H])c([H])c(F)c([H])c6F)c([H])c5[H])c(C(=O)N([H])[H])c4N([H])[H])C3([H])[H])c([H])c([H])c2C1([H])[H]

$$$$
42:0:0
     RDKit          3D

 95102  0  0  1  0  0  0  0  0999 V2000
  -27.4220  -20.7950   21.0250 C   0  0  0  0  0  2  0  0  0  0  0  0
  -28.1050  -23.1870   21.2480 C   0  0  0  0  0  0  0  0  0  0  0  0
  -27.1760  -22.2300   21.1350 N   0  0  0  0  0  0  0  0  0  0  0  0
  -29.2840  -22.9670   21.5330 O   0  0  0  0  0  0  0  0  0  0  0  0
  -26.2430  -22.5460   20.8990 H   0  0  0  0  0  0  0  0  0  0  0  0
  -27.5980  -24.5820   20.8880 C   0  0  0  0  0  2  0  0  0  0  0  0
  -28.5390  -25.7790   21.1620 C   0  0  0  0  0  2  0  0  0  0  0  0
  -28.4510  -26.7650   20.1240 O   0  0  0  0  0  0  0  0  0  0  0  0
  -24.6520  -31.9050   23.2170 C   0  0  0  0  0  0  0  0  0  0  0  0
  -27.2890  -27.4950   20.1300 C   0  0  0  0  0  0  0  0  0  0  0  0
  -23.4390  -30.5020   21.5800 C   0  0  0  0  0  3  0  0  0  0  0  0
  -24.8910  -28.9710   20.1490 C   0  0  0  0  0  0  0  0  0  0  0  0
  -25.9620  -30.8750   21.3660 C   0  0  0  0  0  2  0  0  0  0  0  0
  -26.0450  -29.5020   20.7380 C   0  0  0  0  0  0  0  0  0  0  0  0
  -27.2480  -28.7650   20.7400 C   0  0  0  0  0  3  0  0  0  0  0  0
  -26.1320  -26.9800   19.5130 C   0  0  0  0  0  3  0  0  0  0  0  0
  -24.9240  -27.7010   19.5480 C   0  0  0  0  0  3  0  0  0  0  0  0
  -23.6440  -29.8230   20.1990 C   0  0  0  0  0  2  0  0  0  0  0  0
  -24.7020  -31.1100   22.1130 N   0  0  0  0  0  0  0  0  0  0  0  0
  -23.5750  -32.1700   23.7680 O   0  0  0  0  0  0  0  0  0  0  0  0
  -22.7990  -29.4740   22.5430 C   0  0  0  0  0  0  0  0  0  0  0  0
  -21.4760  -29.2860   22.4240 N   0  0  0  0  0  0  0  0  0  0  0  0
  -23.4910  -28.8480   23.3500 O   0  0  0  0  0  0  0  0  0  0  0  0
  -20.9790  -29.8420   21.7460 H   0  0  0  0  0  0  0  0  0  0  0  0
  -18.1070  -28.0800   22.9370 C   0  0  0  0  0  0  0  0  0  0  0  0
  -20.6670  -28.3430   23.1970 C   0  0  0  0  0  3  0  0  0  0  0  0
  -20.7730  -26.9130   22.6190 C   0  0  0  0  0  2  0  0  0  0  0  0
  -19.6670  -26.5900   21.6100 C   0  0  0  0  0  2  0  0  0  0  0  0
  -18.2860  -26.7300   22.2590 C   0  0  0  0  0  2  0  0  0  0  0  0
  -19.2270  -28.8440   23.3630 C   0  0  0  0  0  0  0  0  0  0  0  0
  -19.0060  -30.1060   23.9530 C   0  0  0  0  0  3  0  0  0  0  0  0
  -17.7030  -30.6060   24.1210 C   0  0  0  0  0  3  0  0  0  0  0  0
  -16.5980  -29.8360   23.7170 C   0  0  0  0  0  3  0  0  0  0  0  0
  -16.8020  -28.5770   23.1260 C   0  0  0  0  0  3  0  0  0  0  0  0
  -25.9410  -32.5390   23.8260 C   0  0  0  0  0  3  0  0  0  0  0  0
  -26.4790  -31.7600   25.0880 C   0  0  1  0  0  0  0  0  0  0  0  0
  -25.4000  -31.5080   26.1690 C   0  0  0  0  0  1  0  0  0  0  0  0
  -27.0660  -30.3900   24.6770 C   0  0  0  0  0  1  0  0  0  0  0  0
  -27.6350  -32.5540   25.7390 C   0  0  0  0  0  1  0  0  0  0  0  0
  -25.6300  -33.9330   24.1670 N   0  0  0  0  0  0  0  0  0  0  0  0
  -25.9440  -34.9890   23.4070 C   0  0  0  0  0  0  0  0  0  0  0  0
  -26.5970  -34.8900   22.3630 O   0  0  0  0  0  0  0  0  0  0  0  0
  -25.0550  -34.0810   24.9830 H   0  0  0  0  0  0  0  0  0  0  0  0
  -24.1910  -36.7620   23.0870 C   0  0  0  0  0  1  0  0  0  0  0  0
  -25.4520  -36.3710   23.8760 C   0  0  0  0  0  3  0  0  0  0  0  0
  -27.5960  -37.2660   24.6660 C   0  0  0  0  0  1  0  0  0  0  0  0
  -26.4720  -37.4320   23.7490 N   0  0  0  0  0  0  0  0  0  0  0  0
  -26.0620  -38.3480   23.9070 H   0  0  0  0  0  0  0  0  0  0  0  0
  -26.9490  -20.2740   19.6520 C   0  0  0  0  0  2  0  0  0  0  0  0
  -27.4530  -21.0740   18.4200 C   0  0  0  0  0  2  0  0  0  0  0  0
  -28.7750  -20.5680   17.8230 C   0  0  0  0  0  2  0  0  0  0  0  0
  -29.8260  -20.7240   18.7730 O   0  0  0  0  0  0  0  0  0  0  0  0
  -31.0380  -20.0350   18.4640 C   0  0  0  0  0  2  0  0  0  0  0  0
  -31.3590  -19.0890   19.6320 C   0  0  0  0  0  2  0  0  0  0  0  0
  -30.3180  -17.9580   19.7210 C   0  0  0  0  0  2  0  0  0  0  0  0
  -29.8550  -17.6130   21.1390 C   0  0  0  0  0  2  0  0  0  0  0  0
  -30.7380  -16.5650   21.8320 C   0  0  0  0  0  2  0  0  0  0  0  0
  -30.9210  -14.4550   20.4740 C   0  0  0  0  0  0  0  0  0  0  0  0
  -30.5800  -12.3990   19.1490 C   0  0  0  0  0  2  0  0  0  0  0  0
  -29.6350  -12.6520   17.9610 C   0  0  0  0  0  2  0  0  0  0  0  0
  -28.1550  -12.5390   18.3840 C   0  0  0  0  0  2  0  0  0  0  0  0
  -27.8350  -13.3360   19.6760 C   0  0  0  0  0  3  0  0  0  0  0  0
  -28.8730  -13.0160   20.7680 C   0  0  0  0  0  2  0  0  0  0  0  0
  -30.2150  -13.3250   20.2300 N   0  0  0  0  0  0  0  0  0  0  0  0
  -31.9800  -14.7490   19.9040 O   0  0  0  0  0  0  0  0  0  0  0  0
  -30.3440  -15.2400   21.3860 N   0  0  0  0  0  0  0  0  0  0  0  0
  -29.4460  -14.9080   21.7110 H   0  0  0  0  0  0  0  0  0  0  0  0
  -25.4310  -13.9820   20.3350 C   0  0  0  0  0  0  0  0  0  0  0  0
  -24.3540  -13.2310   20.7140 C   0  0  0  0  0  0  0  0  0  0  0  0
  -24.8010  -11.8730   20.7230 C   0  0  0  0  0  0  0  0  0  0  0  0
  -26.4710  -13.0880   20.1410 N   0  0  0  0  0  0  0  0  0  0  0  0
  -26.0910  -11.8120   20.4220 N   0  0  0  0  0  0  0  0  0  0  0  0
  -24.0650  -10.6240   20.9420 C   0  0  0  0  0  0  0  0  0  0  0  0
  -24.4910   -9.6770   21.8990 C   0  0  0  0  0  3  0  0  0  0  0  0
  -23.7590   -8.4880   22.1060 C   0  0  0  0  0  3  0  0  0  0  0  0
  -22.5860   -8.2380   21.3540 C   0  0  0  0  0  0  0  0  0  0  0  0
  -22.1790   -9.1740   20.3870 C   0  0  0  0  0  3  0  0  0  0  0  0
  -22.9110  -10.3540   20.1800 C   0  0  0  0  0  3  0  0  0  0  0  0
  -21.8250   -7.0990   21.4640 O   0  0  0  0  0  0  0  0  0  0  0  0
  -21.7690   -6.3820   22.6320 C   0  0  0  0  0  0  0  0  0  0  0  0
  -21.3640   -6.9720   23.8500 C   0  0  0  0  0  3  0  0  0  0  0  0
  -21.2580   -6.1840   25.0120 C   0  0  0  0  0  3  0  0  0  0  0  0
  -21.5400   -4.8040   24.9560 C   0  0  0  0  0  0  0  0  0  0  0  0
  -21.9350   -4.2150   23.7420 C   0  0  0  0  0  3  0  0  0  0  0  0
  -22.0460   -5.0020   22.5830 C   0  0  0  0  0  0  0  0  0  0  0  0
  -22.4070   -4.4240   21.4110 F   0  0  0  0  0  0  0  0  0  0  0  0
  -21.4290   -4.0450   26.0700 F   0  0  0  0  0  0  0  0  0  0  0  0
  -22.9570  -13.7260   20.9640 C   0  0  0  0  0  0  0  0  0  0  0  0
  -22.2200  -13.0620   21.8440 N   0  0  0  0  0  0  0  0  0  0  0  0
  -22.5280  -14.7380   20.4070 O   0  0  0  0  0  0  0  0  0  0  0  0
  -22.5800  -12.2470   22.3200 H   0  0  0  0  0  0  0  0  0  0  0  0
  -21.2820  -13.3750   22.0470 H   0  0  0  0  0  0  0  0  0  0  0  0
  -25.6120  -15.3480   20.1240 N   0  0  0  0  0  0  0  0  0  0  0  0
  -24.8560  -16.0190   20.2140 H   0  0  0  0  0  0  0  0  0  0  0  0
  -26.4800  -15.7650   19.8090 H   0  0  0  0  0  0  0  0  0  0  0  0
  1  3  1  0
  2  4  2  0
  3  2  1  0
  5  3  1  0
  6  7  1  0
  6  2  1  0
  8 10  1  0
  8  7  1  0
  9 20  2  0
 10 15  1  0
 11 19  1  0
 11 21  1  0
 12 18  1  0
 12 14  1  0
 13 19  1  0
 14 15  2  0
 14 13  1  0
 16 17  1  0
 16 10  2  0
 17 12  2  0
 18 11  1  0
 19  9  1  0
 21 23  2  0
 22 21  1  0
 24 22  1  0
 25 34  2  0
 25 30  1  0
 26 22  1  0
 26 30  1  0
 27 26  1  0
 28 29  1  0
 28 27  1  0
 29 25  1  0
 30 31  2  0
 31 32  1  0
 33 32  2  0
 34 33  1  0
 35  9  1  0
 35 40  1  0
 35 36  1  0
 36 39  1  1
 36 37  1  0
 38 36  1  0
 40 43  1  0
 41 45  1  0
 41 40  1  0
 42 41  2  0
 45 44  1  0
 47 45  1  0
 47 48  1  0
 47 46  1  0
 49  1  1  0
 50 49  1  0
 51 50  1  0
 51 52  1  0
 53 52  1  0
 53 54  1  0
 54 55  1  0
 55 56  1  0
 56 57  1  0
 58 66  1  0
 59 64  1  0
 60 61  1  0
 60 59  1  0
 62 61  1  0
 62 71  1  0
 62 63  1  0
 64 58  1  0
 64 63  1  0
 65 58  2  0
 66 67  1  0
 66 57  1  0
 68 69  2  0
 69 70  1  0
 69 88  1  0
 70 73  1  0
 71 68  1  0
 71 72  1  0
 72 70  2  0
 73 74  1  0
 74 75  2  0
 76 79  1  0
 76 75  1  0
 77 76  2  0
 78 77  1  0
 78 73  2  0
 79 80  1  0
 80 81  1  0
 81 82  2  0
 83 82  1  0
 83 87  1  0
 84 83  2  0
 85 80  2  0
 85 84  1  0
 86 85  1  0
 88 89  1  0
 89 92  1  0
 89 91  1  0
 90 88  2  0
 93 94  1  0
 93 68  1  0
 95 93  1  0
M  ISO  4   7 101   8 101  58 100  66 100
M  END
>  <TORSDO>  (43) 
F 28

>  <SCORE>  (43) 
-10.700

>  <name>  (43) 
42

>  <ligand_id>  (43) 
42

>  <original_smiles>  (43) 
[H]c1c([H])c([H])c2c(c1[H])C([H])([H])C([H])([H])C([H])([H])C2([H])N([H])C(=O)C1([H])N(C(=O)C([H])(N([H])C(=O)C([H])(N([H])C([H])([H])[H])C([H])([H])[H])C(C([H])([H])[H])(C([H])([H])[H])C([H])([H])[H])C([H])([H])c2c([H])c(OC([H])([H])C([H])([H])C(=O)N([H])C([H])([H])C([H])([H])C([H])([H])C([H])([H])OC([H])([H])C([H])([H])C([H])([H])C([H])([H])C([H])([H])N([H])C(=O)N3C([H])([H])C([H])([H])C([H])([H])C([H])(n4nc(-c5c([H])c([H])c(Oc6c([H])c([H])c(F)c([H])c6F)c([H])c5[H])c(C(=O)N([H])[H])c4N([H])[H])C3([H])[H])c([H])c([H])c2C1([H])[H]

>  <smiles>  (43) 
[H]c1c([H])c([H])c2c(c1[H])C([H])([H])C([H])([H])C([H])([H])C2([H])N([H])C(=O)C1([H])N(C(=O)C([H])(N([H])C(=O)C([H])(N([H])C([H])([H])[H])C([H])([H])[H])C(C([H])([H])[H])(C([H])([H])[H])C([H])([H])[H])C([H])([H])c2c([H])c(OC([H])([H])C([H])([H])C(=O)N([H])C([H])([H])C([H])([H])C([H])([H])C([H])([H])OC([H])([H])C([H])([H])C([H])([H])C([H])([H])C([H])([H])N([H])C(=O)N3C([H])([H])C([H])([H])C([H])([H])C([H])(n4nc(-c5c([H])c([H])c(Oc6c([H])c([H])c(F)c([H])c6F)c([H])c5[H])c(C(=O)N([H])[H])c4N([H])[H])C3([H])[H])c([H])c([H])c2C1([H])[H]

$$$$
43:0:0
     RDKit          3D

100107  0  0  1  0  0  0  0  0999 V2000
  -29.6170  -22.9230   17.2910 C   0  0  0  0  0  0  0  0  0  0  0  0
  -30.1740  -21.8600   16.6980 N   0  0  0  0  0  0  0  0  0  0  0  0
  -28.4170  -22.9720   17.5710 O   0  0  0  0  0  0  0  0  0  0  0  0
  -31.1540  -21.9240   16.4450 H   0  0  0  0  0  0  0  0  0  0  0  0
  -30.5350  -24.0850   17.6680 C   0  0  0  0  0  2  0  0  0  0  0  0
  -29.7350  -25.2300   18.1470 N   0  0  0  0  0  4  0  0  0  0  0  0
  -28.9460  -24.8220   18.6290 H   0  0  0  0  0  0  0  0  0  0  0  0
  -29.3550  -25.7180   17.3510 H   0  0  0  0  0  0  0  0  0  0  0  0
  -30.4350  -26.1670   19.0570 C   0  0  0  0  0  2  0  0  0  0  0  0
  -29.4920  -27.2770   19.5390 C   0  0  0  0  0  2  0  0  0  0  0  0
  -28.3980  -26.6540   20.2070 O   0  0  0  0  0  0  0  0  0  0  0  0
  -24.5590  -31.8800   23.1920 C   0  0  0  0  0  0  0  0  0  0  0  0
  -27.2470  -27.4010   20.2360 C   0  0  0  0  0  0  0  0  0  0  0  0
  -23.3750  -30.4510   21.5540 C   0  0  0  0  0  3  0  0  0  0  0  0
  -24.8500  -28.8780   20.1950 C   0  0  0  0  0  0  0  0  0  0  0  0
  -25.9020  -30.8060   21.3910 C   0  0  0  0  0  2  0  0  0  0  0  0
  -25.9970  -29.4230   20.7850 C   0  0  0  0  0  0  0  0  0  0  0  0
  -27.2020  -28.6910   20.8080 C   0  0  0  0  0  3  0  0  0  0  0  0
  -26.0810  -26.8480   19.6720 C   0  0  0  0  0  3  0  0  0  0  0  0
  -24.8830  -27.5850   19.6400 C   0  0  0  0  0  3  0  0  0  0  0  0
  -23.6070  -29.7390   20.1940 C   0  0  0  0  0  2  0  0  0  0  0  0
  -24.6290  -31.0600   22.1050 N   0  0  0  0  0  0  0  0  0  0  0  0
  -23.4700  -32.1670   23.7070 O   0  0  0  0  0  0  0  0  0  0  0  0
  -22.7010  -29.4530   22.5210 C   0  0  0  0  0  0  0  0  0  0  0  0
  -21.3780  -29.2830   22.3780 N   0  0  0  0  0  0  0  0  0  0  0  0
  -23.3680  -28.8320   23.3550 O   0  0  0  0  0  0  0  0  0  0  0  0
  -20.9040  -29.8330   21.6750 H   0  0  0  0  0  0  0  0  0  0  0  0
  -17.9820  -28.1480   22.8480 C   0  0  0  0  0  0  0  0  0  0  0  0
  -20.5390  -28.3690   23.1500 C   0  0  0  0  0  3  0  0  0  0  0  0
  -20.6270  -26.9300   22.5940 C   0  0  0  0  0  2  0  0  0  0  0  0
  -19.5330  -26.6100   21.5700 C   0  0  0  0  0  2  0  0  0  0  0  0
  -18.1460  -26.7860   22.1940 C   0  0  0  0  0  2  0  0  0  0  0  0
  -19.1070  -28.8980   23.2830 C   0  0  0  0  0  0  0  0  0  0  0  0
  -18.9010  -30.1730   23.8520 C   0  0  0  0  0  3  0  0  0  0  0  0
  -17.6030  -30.6980   23.9930 C   0  0  0  0  0  3  0  0  0  0  0  0
  -16.4910  -29.9450   23.5760 C   0  0  0  0  0  3  0  0  0  0  0  0
  -16.6820  -28.6720   23.0090 C   0  0  0  0  0  3  0  0  0  0  0  0
  -25.8370  -32.5130   23.8240 C   0  0  0  0  0  3  0  0  0  0  0  0
  -25.5220  -33.9100   24.1520 N   0  0  0  0  0  0  0  0  0  0  0  0
  -25.8660  -34.9630   23.3970 C   0  0  0  0  0  0  0  0  0  0  0  0
  -26.5530  -34.8610   22.3780 O   0  0  0  0  0  0  0  0  0  0  0  0
  -24.9150  -34.0630   24.9430 H   0  0  0  0  0  0  0  0  0  0  0  0
  -24.1480  -36.7560   23.0050 C   0  0  0  0  0  1  0  0  0  0  0  0
  -25.3680  -36.3490   23.8470 C   0  0  0  0  0  3  0  0  0  0  0  0
  -27.4800  -37.2290   24.7370 C   0  0  0  0  0  1  0  0  0  0  0  0
  -26.4040  -37.4010   23.7660 N   0  0  0  0  0  0  0  0  0  0  0  0
  -25.9940  -38.3210   23.9070 H   0  0  0  0  0  0  0  0  0  0  0  0
  -26.3500  -31.7400   25.1010 C   0  0  1  0  0  0  0  0  0  0  0  0
  -25.2500  -31.4910   26.1590 C   0  0  0  0  0  1  0  0  0  0  0  0
  -26.9440  -30.3690   24.7040 C   0  0  0  0  0  1  0  0  0  0  0  0
  -27.4910  -32.5380   25.7740 C   0  0  0  0  0  1  0  0  0  0  0  0
  -29.4530  -20.6450   16.3030 C   0  0  0  0  0  2  0  0  0  0  0  0
  -29.2120  -19.6840   17.4870 C   0  0  0  0  0  2  0  0  0  0  0  0
  -30.4470  -19.4440   18.2660 N   0  0  0  0  0  4  0  0  0  0  0  0
  -31.0360  -18.8040   17.7550 H   0  0  0  0  0  0  0  0  0  0  0  0
  -30.9340  -20.3220   18.3340 H   0  0  0  0  0  0  0  0  0  0  0  0
  -30.2150  -18.9280   19.6300 C   0  0  0  0  0  2  0  0  0  0  0  0
  -31.5330  -18.6950   20.3980 C   0  0  0  0  0  2  0  0  0  0  0  0
  -31.3450  -18.4360   21.9060 C   0  0  0  0  0  2  0  0  0  0  0  0
  -30.5630  -17.1610   22.2920 C   0  0  0  0  0  2  0  0  0  0  0  0
  -31.4460  -15.9600   22.6900 C   0  0  0  0  0  2  0  0  0  0  0  0
  -32.0190  -15.1460   21.5200 C   0  0  0  0  0  2  0  0  0  0  0  0
  -31.0090  -13.7910   19.6870 C   0  0  0  0  0  0  0  0  0  0  0  0
  -30.3610  -11.7540   18.4580 C   0  0  0  0  0  2  0  0  0  0  0  0
  -29.2750  -11.9740   17.3920 C   0  0  0  0  0  2  0  0  0  0  0  0
  -27.8690  -11.9020   18.0160 C   0  0  0  0  0  2  0  0  0  0  0  0
  -27.7320  -12.7840   19.2850 C   0  0  0  0  0  3  0  0  0  0  0  0
  -28.9040  -12.5350   20.2590 C   0  0  0  0  0  2  0  0  0  0  0  0
  -30.1760  -12.7330   19.5360 N   0  0  0  0  0  0  0  0  0  0  0  0
  -31.8470  -14.1360   18.8480 O   0  0  0  0  0  0  0  0  0  0  0  0
  -30.9920  -14.3050   20.9210 N   0  0  0  0  0  0  0  0  0  0  0  0
  -30.3030  -13.9070   21.5430 H   0  0  0  0  0  0  0  0  0  0  0  0
  -25.4820  -13.5140   20.3110 C   0  0  0  0  0  0  0  0  0  0  0  0
  -24.4330  -12.7950   20.8170 C   0  0  0  0  0  0  0  0  0  0  0  0
  -24.8100  -11.4220   20.7130 C   0  0  0  0  0  0  0  0  0  0  0  0
  -26.4380  -12.5820   19.9350 N   0  0  0  0  0  0  0  0  0  0  0  0
  -26.0410  -11.3170   20.2300 N   0  0  0  0  0  0  0  0  0  0  0  0
  -24.0480  -10.1970   20.9890 C   0  0  0  0  0  0  0  0  0  0  0  0
  -24.5030   -9.2380   21.9200 C   0  0  0  0  0  3  0  0  0  0  0  0
  -23.7420   -8.0770   22.1820 C   0  0  0  0  0  3  0  0  0  0  0  0
  -22.5130   -7.8700   21.5140 C   0  0  0  0  0  0  0  0  0  0  0  0
  -22.0750   -8.8160   20.5710 C   0  0  0  0  0  3  0  0  0  0  0  0
  -22.8370   -9.9680   20.3070 C   0  0  0  0  0  3  0  0  0  0  0  0
  -21.7190   -6.7600   21.6860 O   0  0  0  0  0  0  0  0  0  0  0  0
  -21.6850   -6.0770   22.8760 C   0  0  0  0  0  0  0  0  0  0  0  0
  -21.2930   -6.7000   24.0800 C   0  0  0  0  0  3  0  0  0  0  0  0
  -21.2020   -5.9430   25.2660 C   0  0  0  0  0  3  0  0  0  0  0  0
  -21.4950   -4.5670   25.2480 C   0  0  0  0  0  0  0  0  0  0  0  0
  -21.8800   -3.9440   24.0480 C   0  0  0  0  0  3  0  0  0  0  0  0
  -21.9720   -4.6970   22.8640 C   0  0  0  0  0  0  0  0  0  0  0  0
  -22.3220   -4.0880   21.7060 F   0  0  0  0  0  0  0  0  0  0  0  0
  -21.4010   -3.8390   26.3850 F   0  0  0  0  0  0  0  0  0  0  0  0
  -23.1120  -13.3400   21.2820 C   0  0  0  0  0  0  0  0  0  0  0  0
  -22.4770  -12.6770   22.2430 N   0  0  0  0  0  0  0  0  0  0  0  0
  -22.6560  -14.3880   20.8260 O   0  0  0  0  0  0  0  0  0  0  0  0
  -22.8580  -11.8240   22.6260 H   0  0  0  0  0  0  0  0  0  0  0  0
  -21.6010  -13.0280   22.6020 H   0  0  0  0  0  0  0  0  0  0  0  0
  -25.6960  -14.8760   20.1250 N   0  0  0  0  0  0  0  0  0  0  0  0
  -24.9960  -15.5690   20.3650 H   0  0  0  0  0  0  0  0  0  0  0  0
  -26.5190  -15.2740   19.6880 H   0  0  0  0  0  0  0  0  0  0  0  0
  1  3  2  0
  1  5  1  0
  2  1  1  0
  4  2  1  0
  5  6  1  0
  6  7  1  0
  6  9  1  0
  8  6  1  0
  9 10  1  0
 10 11  1  0
 11 13  1  0
 12 23  2  0
 13 18  1  0
 14 22  1  0
 14 24  1  0
 15 17  1  0
 16 22  1  0
 17 18  2  0
 17 16  1  0
 19 13  2  0
 20 19  1  0
 20 15  2  0
 21 15  1  0
 21 14  1  0
 22 12  1  0
 24 26  2  0
 25 24  1  0
 27 25  1  0
 28 37  2  0
 28 33  1  0
 29 25  1  0
 29 33  1  0
 30 29  1  0
 31 32  1  0
 31 30  1  0
 32 28  1  0
 33 34  2  0
 34 35  1  0
 36 35  2  0
 37 36  1  0
 38 12  1  0
 38 39  1  0
 38 48  1  0
 39 42  1  0
 40 44  1  0
 40 39  1  0
 41 40  2  0
 44 43  1  0
 46 44  1  0
 46 47  1  0
 46 45  1  0
 48 51  1  1
 48 49  1  0
 50 48  1  0
 52  2  1  0
 52 53  1  0
 53 54  1  0
 54 56  1  0
 54 57  1  0
 55 54  1  0
 57 58  1  0
 58 59  1  0
 59 60  1  0
 60 61  1  0
 62 61  1  0
 63 71  1  0
 64 69  1  0
 65 66  1  0
 65 64  1  0
 67 66  1  0
 67 76  1  0
 67 68  1  0
 69 63  1  0
 69 68  1  0
 70 63  2  0
 71 62  1  0
 71 72  1  0
 73 74  2  0
 74 93  1  0
 75 74  1  0
 75 78  1  0
 76 77  1  0
 76 73  1  0
 77 75  2  0
 78 79  1  0
 79 80  2  0
 81 84  1  0
 81 80  1  0
 82 81  2  0
 83 82  1  0
 83 78  2  0
 84 85  1  0
 85 86  1  0
 86 87  2  0
 88 87  1  0
 88 92  1  0
 89 88  2  0
 90 85  2  0
 90 89  1  0
 91 90  1  0
 93 94  1  0
 94 97  1  0
 94 96  1  0
 95 93  2  0
 98 73  1  0
 98 99  1  0
100 98  1  0
M  ISO  4  10 101  11 101  63 100  71 100
M  END
>  <TORSDO>  (44) 
F 29

>  <SCORE>  (44) 
-9.207

>  <name>  (44) 
43

>  <ligand_id>  (44) 
43

>  <original_smiles>  (44) 
[H]c1c([H])c([H])c2c(c1[H])C([H])([H])C([H])([H])C([H])([H])C2([H])N([H])C(=O)C1([H])N(C(=O)C([H])(N([H])C(=O)C([H])(N([H])C([H])([H])[H])C([H])([H])[H])C(C([H])([H])[H])(C([H])([H])[H])C([H])([H])[H])C([H])([H])c2c([H])c(OC([H])([H])C([H])([H])[N+]([H])([H])C([H])([H])C(=O)N([H])C([H])([H])C([H])([H])[N+]([H])([H])C([H])([H])C([H])([H])C([H])([H])C([H])([H])C([H])([H])C([H])([H])N([H])C(=O)N3C([H])([H])C([H])([H])C([H])([H])C([H])(n4nc(-c5c([H])c([H])c(Oc6c([H])c([H])c(F)c([H])c6F)c([H])c5[H])c(C(=O)N([H])[H])c4N([H])[H])C3([H])[H])c([H])c([H])c2C1([H])[H]

>  <smiles>  (44) 
[H]c1c([H])c([H])c2c(c1[H])C([H])([H])C([H])([H])C([H])([H])C2([H])N([H])C(=O)C1([H])N(C(=O)C([H])(N([H])C(=O)C([H])(N([H])C([H])([H])[H])C([H])([H])[H])C(C([H])([H])[H])(C([H])([H])[H])C([H])([H])[H])C([H])([H])c2c([H])c(OC([H])([H])C([H])([H])[N+]([H])([H])C([H])([H])C(=O)N([H])C([H])([H])C([H])([H])[N+]([H])([H])C([H])([H])C([H])([H])C([H])([H])C([H])([H])C([H])([H])C([H])([H])N([H])C(=O)N3C([H])([H])C([H])([H])C([H])([H])C([H])(n4nc(-c5c([H])c([H])c(Oc6c([H])c([H])c(F)c([H])c6F)c([H])c5[H])c(C(=O)N([H])[H])c4N([H])[H])C3([H])[H])c([H])c([H])c2C1([H])[H]

$$$$
44:0:0
     RDKit          3D

 98105  0  0  1  0  0  0  0  0999 V2000
  -31.8430  -24.1450   20.1740 N   0  0  0  0  0  4  0  0  0  0  0  0
  -31.9980  -25.1010   20.4610 H   0  0  0  0  0  0  0  0  0  0  0  0
  -30.8610  -24.0720   19.9530 H   0  0  0  0  0  0  0  0  0  0  0  0
  -32.6310  -23.9150   18.9360 C   0  0  0  0  0  2  0  0  0  0  0  0
  -32.1490  -24.8340   17.8080 C   0  0  0  0  0  2  0  0  0  0  0  0
  -30.7410  -24.6510   17.7330 O   0  0  0  0  0  0  0  0  0  0  0  0
  -30.0570  -25.6100   16.9360 C   0  0  0  0  0  2  0  0  0  0  0  0
  -28.8190  -26.0270   17.7440 C   0  0  0  0  0  2  0  0  0  0  0  0
  -29.1910  -26.9980   18.8820 C   0  0  0  0  0  2  0  0  0  0  0  0
  -28.3740  -26.8130   20.0310 O   0  0  0  0  0  0  0  0  0  0  0  0
  -24.5370  -31.8660   23.2330 C   0  0  0  0  0  0  0  0  0  0  0  0
  -27.2100  -27.5330   20.0430 C   0  0  0  0  0  0  0  0  0  0  0  0
  -23.3370  -30.4970   21.5570 C   0  0  0  0  0  3  0  0  0  0  0  0
  -24.8000  -28.9900   20.1060 C   0  0  0  0  0  0  0  0  0  0  0  0
  -25.8580  -30.8730   21.3690 C   0  0  0  0  0  2  0  0  0  0  0  0
  -25.9530  -29.5160   20.7060 C   0  0  0  0  0  0  0  0  0  0  0  0
  -27.1620  -28.7900   20.6770 C   0  0  0  0  0  3  0  0  0  0  0  0
  -26.0440  -27.0010   19.4560 C   0  0  0  0  0  3  0  0  0  0  0  0
  -24.8370  -27.7280   19.4830 C   0  0  0  0  0  3  0  0  0  0  0  0
  -23.5510  -29.8420   20.1660 C   0  0  0  0  0  2  0  0  0  0  0  0
  -24.5960  -31.0910   22.1150 N   0  0  0  0  0  0  0  0  0  0  0  0
  -23.4530  -32.1250   23.7750 O   0  0  0  0  0  0  0  0  0  0  0  0
  -22.6860  -29.4550   22.4910 C   0  0  0  0  0  0  0  0  0  0  0  0
  -21.3640  -29.2710   22.3490 N   0  0  0  0  0  0  0  0  0  0  0  0
  -23.3670  -28.8130   23.2950 O   0  0  0  0  0  0  0  0  0  0  0  0
  -20.8760  -29.8510   21.6810 H   0  0  0  0  0  0  0  0  0  0  0  0
  -17.9950  -28.0470   22.7840 C   0  0  0  0  0  0  0  0  0  0  0  0
  -20.5460  -28.3130   23.0910 C   0  0  0  0  0  3  0  0  0  0  0  0
  -20.6620  -26.8930   22.4910 C   0  0  0  0  0  2  0  0  0  0  0  0
  -19.5750  -26.5800   21.4580 C   0  0  0  0  0  2  0  0  0  0  0  0
  -18.1850  -26.7090   22.0870 C   0  0  0  0  0  2  0  0  0  0  0  0
  -19.1050  -28.8070   23.2410 C   0  0  0  0  0  0  0  0  0  0  0  0
  -18.8730  -30.0580   23.8510 C   0  0  0  0  0  3  0  0  0  0  0  0
  -17.5630  -30.5520   24.0070 C   0  0  0  0  0  3  0  0  0  0  0  0
  -16.4680  -29.7920   23.5620 C   0  0  0  0  0  3  0  0  0  0  0  0
  -16.6850  -28.5390   22.9590 C   0  0  0  0  0  3  0  0  0  0  0  0
  -25.8200  -32.4810   23.8740 C   0  0  0  0  0  3  0  0  0  0  0  0
  -25.5330  -33.8880   24.1860 N   0  0  0  0  0  0  0  0  0  0  0  0
  -25.9050  -34.9260   23.4250 C   0  0  0  0  0  0  0  0  0  0  0  0
  -26.5960  -34.7970   22.4110 O   0  0  0  0  0  0  0  0  0  0  0  0
  -24.9370  -34.0660   24.9810 H   0  0  0  0  0  0  0  0  0  0  0  0
  -24.2280  -36.7490   22.9950 C   0  0  0  0  0  1  0  0  0  0  0  0
  -25.4320  -36.3270   23.8550 C   0  0  0  0  0  3  0  0  0  0  0  0
  -27.5530  -37.1710   24.7580 C   0  0  0  0  0  1  0  0  0  0  0  0
  -26.4890  -37.3580   23.7740 N   0  0  0  0  0  0  0  0  0  0  0  0
  -26.1020  -38.2900   23.8990 H   0  0  0  0  0  0  0  0  0  0  0  0
  -26.3030  -31.7130   25.1640 C   0  0  1  0  0  0  0  0  0  0  0  0
  -25.1880  -31.4960   26.2140 C   0  0  0  0  0  1  0  0  0  0  0  0
  -26.8800  -30.3300   24.7820 C   0  0  0  0  0  1  0  0  0  0  0  0
  -27.4530  -32.5000   25.8400 C   0  0  0  0  0  1  0  0  0  0  0  0
  -32.1950  -23.2690   21.3170 C   0  0  0  0  0  2  0  0  0  0  0  0
  -31.7180  -21.8040   21.1630 C   0  0  0  0  0  2  0  0  0  0  0  0
  -30.2380  -21.5560   21.5450 C   0  0  0  0  0  2  0  0  0  0  0  0
  -29.9100  -20.1160   21.6870 N   0  0  0  0  0  4  0  0  0  0  0  0
  -30.5680  -19.6920   22.3210 H   0  0  0  0  0  0  0  0  0  0  0  0
  -29.0050  -20.0590   22.1280 H   0  0  0  0  0  0  0  0  0  0  0  0
  -29.8430  -19.3320   20.4310 C   0  0  0  0  0  2  0  0  0  0  0  0
  -29.8880  -17.8120   20.6890 C   0  0  0  0  0  2  0  0  0  0  0  0
  -31.3200  -17.2620   20.8470 C   0  0  0  0  0  2  0  0  0  0  0  0
  -31.3970  -15.8810   21.5270 C   0  0  0  0  0  2  0  0  0  0  0  0
  -30.7830  -14.1090   19.8770 C   0  0  0  0  0  0  0  0  0  0  0  0
  -30.2670  -11.9720   18.7490 C   0  0  0  0  0  2  0  0  0  0  0  0
  -29.2210  -12.1220   17.6310 C   0  0  0  0  0  2  0  0  0  0  0  0
  -27.7960  -12.0240   18.2050 C   0  0  0  0  0  2  0  0  0  0  0  0
  -27.5850  -12.9510   19.4300 C   0  0  0  0  0  3  0  0  0  0  0  0
  -28.7240  -12.7690   20.4560 C   0  0  0  0  0  2  0  0  0  0  0  0
  -30.0110  -12.9980   19.7710 N   0  0  0  0  0  0  0  0  0  0  0  0
  -31.7260  -14.3600   19.1220 O   0  0  0  0  0  0  0  0  0  0  0  0
  -30.5160  -14.8720   20.9440 N   0  0  0  0  0  0  0  0  0  0  0  0
  -29.7170  -14.5920   21.4940 H   0  0  0  0  0  0  0  0  0  0  0  0
  -25.2950  -13.6600   20.3740 C   0  0  0  0  0  0  0  0  0  0  0  0
  -24.2370  -12.9320   20.8440 C   0  0  0  0  0  0  0  0  0  0  0  0
  -24.6320  -11.5600   20.7620 C   0  0  0  0  0  0  0  0  0  0  0  0
  -26.2730  -12.7360   20.0390 N   0  0  0  0  0  0  0  0  0  0  0  0
  -25.8820  -11.4680   20.3280 N   0  0  0  0  0  0  0  0  0  0  0  0
  -23.8760  -10.3290   21.0170 C   0  0  0  0  0  0  0  0  0  0  0  0
  -24.3390   -9.3550   21.9300 C   0  0  0  0  0  3  0  0  0  0  0  0
  -23.5850   -8.1860   22.1710 C   0  0  0  0  0  3  0  0  0  0  0  0
  -22.3540   -7.9830   21.5000 C   0  0  0  0  0  0  0  0  0  0  0  0
  -21.9110   -8.9460   20.5760 C   0  0  0  0  0  3  0  0  0  0  0  0
  -22.6640  -10.1060   20.3340 C   0  0  0  0  0  3  0  0  0  0  0  0
  -21.5680   -6.8680   21.6530 O   0  0  0  0  0  0  0  0  0  0  0  0
  -21.5660   -6.1420   22.8170 C   0  0  0  0  0  0  0  0  0  0  0  0
  -21.2290   -6.7240   24.0580 C   0  0  0  0  0  3  0  0  0  0  0  0
  -21.1720   -5.9260   25.2180 C   0  0  0  0  0  3  0  0  0  0  0  0
  -21.4430   -4.5480   25.1400 C   0  0  0  0  0  0  0  0  0  0  0  0
  -21.7740   -3.9640   23.9030 C   0  0  0  0  0  3  0  0  0  0  0  0
  -21.8330   -4.7590   22.7450 C   0  0  0  0  0  0  0  0  0  0  0  0
  -22.1310   -4.1890   21.5530 F   0  0  0  0  0  0  0  0  0  0  0  0
  -21.3810   -3.7790   26.2520 F   0  0  0  0  0  0  0  0  0  0  0  0
  -22.8950  -13.4650   21.2560 C   0  0  0  0  0  0  0  0  0  0  0  0
  -22.2280  -12.7930   22.1880 N   0  0  0  0  0  0  0  0  0  0  0  0
  -22.4500  -14.5110   20.7850 O   0  0  0  0  0  0  0  0  0  0  0  0
  -22.5980  -11.9440   22.5870 H   0  0  0  0  0  0  0  0  0  0  0  0
  -21.3310  -13.1340   22.5080 H   0  0  0  0  0  0  0  0  0  0  0  0
  -25.5060  -15.0230   20.1860 N   0  0  0  0  0  0  0  0  0  0  0  0
  -24.7950  -15.7190   20.3820 H   0  0  0  0  0  0  0  0  0  0  0  0
  -26.3460  -15.4170   19.7810 H   0  0  0  0  0  0  0  0  0  0  0  0
  1  2  1  0
  1 51  1  0
  3  1  1  0
  4  1  1  0
  5  4  1  0
  6  5  1  0
  7  6  1  0
  7  8  1  0
  8  9  1  0
  9 10  1  0
 10 12  1  0
 11 22  2  0
 12 17  1  0
 13 21  1  0
 13 23  1  0
 14 20  1  0
 14 16  1  0
 15 21  1  0
 16 15  1  0
 17 16  2  0
 18 19  1  0
 18 12  2  0
 19 14  2  0
 20 13  1  0
 21 11  1  0
 23 25  2  0
 24 23  1  0
 26 24  1  0
 27 36  2  0
 27 32  1  0
 28 24  1  0
 28 32  1  0
 29 28  1  0
 30 31  1  0
 30 29  1  0
 31 27  1  0
 32 33  2  0
 33 34  1  0
 35 34  2  0
 36 35  1  0
 37 11  1  0
 37 38  1  0
 37 47  1  0
 38 41  1  0
 39 43  1  0
 39 38  1  0
 40 39  2  0
 43 42  1  0
 45 43  1  0
 45 46  1  0
 45 44  1  0
 47 50  1  1
 47 48  1  0
 49 47  1  0
 52 51  1  0
 52 53  1  0
 53 54  1  0
 54 56  1  0
 54 55  1  0
 57 58  1  0
 57 54  1  0
 58 59  1  0
 59 60  1  0
 61 69  1  0
 62 67  1  0
 63 64  1  0
 63 62  1  0
 65 64  1  0
 65 74  1  0
 65 66  1  0
 67 61  1  0
 67 66  1  0
 68 61  2  0
 69 70  1  0
 69 60  1  0
 71 72  2  0
 72 91  1  0
 73 72  1  0
 73 76  1  0
 74 75  1  0
 74 71  1  0
 75 73  2  0
 76 77  1  0
 77 78  2  0
 79 82  1  0
 79 78  1  0
 80 79  2  0
 81 80  1  0
 81 76  2  0
 82 83  1  0
 83 84  1  0
 84 85  2  0
 86 85  1  0
 86 90  1  0
 87 86  2  0
 88 83  2  0
 88 87  1  0
 89 88  1  0
 91 92  1  0
 92 95  1  0
 92 94  1  0
 93 91  2  0
 96 71  1  0
 96 97  1  0
 98 96  1  0
M  ISO  4   9 101  10 101  61 100  69 100
M  END
>  <TORSDO>  (45) 
F 30

>  <SCORE>  (45) 
-10.027

>  <name>  (45) 
44

>  <ligand_id>  (45) 
44

>  <original_smiles>  (45) 
[H]c1c([H])c([H])c2c(c1[H])C([H])([H])C([H])([H])C([H])([H])C2([H])N([H])C(=O)C1([H])N(C(=O)C([H])(N([H])C(=O)C([H])(N([H])C([H])([H])[H])C([H])([H])[H])C(C([H])([H])[H])(C([H])([H])[H])C([H])([H])[H])C([H])([H])c2c([H])c(OC([H])([H])C([H])([H])C([H])([H])OC([H])([H])C([H])([H])[N+]([H])([H])C([H])([H])C([H])([H])C([H])([H])[N+]([H])([H])C([H])([H])C([H])([H])C([H])([H])C([H])([H])N([H])C(=O)N3C([H])([H])C([H])([H])C([H])([H])C([H])(n4nc(-c5c([H])c([H])c(Oc6c([H])c([H])c(F)c([H])c6F)c([H])c5[H])c(C(=O)N([H])[H])c4N([H])[H])C3([H])[H])c([H])c([H])c2C1([H])[H]

>  <smiles>  (45) 
[H]c1c([H])c([H])c2c(c1[H])C([H])([H])C([H])([H])C([H])([H])C2([H])N([H])C(=O)C1([H])N(C(=O)C([H])(N([H])C(=O)C([H])(N([H])C([H])([H])[H])C([H])([H])[H])C(C([H])([H])[H])(C([H])([H])[H])C([H])([H])[H])C([H])([H])c2c([H])c(OC([H])([H])C([H])([H])C([H])([H])OC([H])([H])C([H])([H])[N+]([H])([H])C([H])([H])C([H])([H])C([H])([H])[N+]([H])([H])C([H])([H])C([H])([H])C([H])([H])C([H])([H])N([H])C(=O)N3C([H])([H])C([H])([H])C([H])([H])C([H])(n4nc(-c5c([H])c([H])c(Oc6c([H])c([H])c(F)c([H])c6F)c([H])c5[H])c(C(=O)N([H])[H])c4N([H])[H])C3([H])[H])c([H])c([H])c2C1([H])[H]

$$$$
45:0:0
     RDKit          3D

105112  0  0  1  0  0  0  0  0999 V2000
  -28.6020  -17.4290   16.5130 N   0  0  0  0  0  4  0  0  0  0  0  0
  -28.2630  -16.9250   17.3160 H   0  0  0  0  0  0  0  0  0  0  0  0
  -27.8240  -17.6380   15.9060 H   0  0  0  0  0  0  0  0  0  0  0  0
  -29.2470  -18.6750   16.9960 C   0  0  0  0  0  2  0  0  0  0  0  0
  -28.3680  -19.6730   17.8030 C   0  0  0  0  0  2  0  0  0  0  0  0
  -29.1530  -21.0020   18.0180 C   0  0  0  0  0  3  0  0  0  0  0  0
  -28.6040  -21.9620   19.1070 C   0  0  0  0  0  3  0  0  0  0  0  0
  -29.4070  -23.2800   19.3020 C   0  0  0  0  0  2  0  0  0  0  0  0
  -28.7790  -24.1400   20.3380 N   0  0  0  0  0  4  0  0  0  0  0  0
  -28.3260  -23.5420   21.0110 H   0  0  0  0  0  0  0  0  0  0  0  0
  -28.0580  -24.6860   19.9050 H   0  0  0  0  0  0  0  0  0  0  0  0
  -29.6660  -25.0640   21.1140 C   0  0  0  0  0  2  0  0  0  0  0  0
  -29.2970  -26.5640   20.9830 C   0  0  0  0  0  2  0  0  0  0  0  0
  -28.3910  -26.7190   19.8930 O   0  0  0  0  0  0  0  0  0  0  0  0
  -24.6040  -31.8660   23.2150 C   0  0  0  0  0  0  0  0  0  0  0  0
  -27.2510  -27.4740   20.0600 C   0  0  0  0  0  0  0  0  0  0  0  0
  -23.3960  -30.5030   21.5420 C   0  0  0  0  0  3  0  0  0  0  0  0
  -24.8500  -28.9640   20.1190 C   0  0  0  0  0  0  0  0  0  0  0  0
  -25.9210  -30.8380   21.3720 C   0  0  0  0  0  2  0  0  0  0  0  0
  -26.0050  -29.4680   20.7300 C   0  0  0  0  0  0  0  0  0  0  0  0
  -27.2060  -28.7190   20.7280 C   0  0  0  0  0  3  0  0  0  0  0  0
  -26.0840  -26.9910   19.4280 C   0  0  0  0  0  3  0  0  0  0  0  0
  -24.8780  -27.7110   19.4800 C   0  0  0  0  0  3  0  0  0  0  0  0
  -23.6140  -29.8340   20.1600 C   0  0  0  0  0  2  0  0  0  0  0  0
  -24.6600  -31.0850   22.1000 N   0  0  0  0  0  0  0  0  0  0  0  0
  -23.5260  -32.1420   23.7600 O   0  0  0  0  0  0  0  0  0  0  0  0
  -22.7330  -29.4770   22.4830 C   0  0  0  0  0  0  0  0  0  0  0  0
  -21.4050  -29.3110   22.3640 N   0  0  0  0  0  0  0  0  0  0  0  0
  -23.4110  -28.8250   23.2830 O   0  0  0  0  0  0  0  0  0  0  0  0
  -20.9090  -29.8950   21.7050 H   0  0  0  0  0  0  0  0  0  0  0  0
  -18.0240  -28.1330   22.8520 C   0  0  0  0  0  0  0  0  0  0  0  0
  -20.5870  -28.3670   23.1230 C   0  0  0  0  0  3  0  0  0  0  0  0
  -20.6750  -26.9390   22.5380 C   0  0  0  0  0  2  0  0  0  0  0  0
  -19.5750  -26.6370   21.5150 C   0  0  0  0  0  2  0  0  0  0  0  0
  -18.1920  -26.7870   22.1610 C   0  0  0  0  0  2  0  0  0  0  0  0
  -19.1520  -28.8770   23.2910 C   0  0  0  0  0  0  0  0  0  0  0  0
  -18.9470  -30.1370   23.8910 C   0  0  0  0  0  3  0  0  0  0  0  0
  -17.6510  -30.6540   24.0570 C   0  0  0  0  0  3  0  0  0  0  0  0
  -16.5380  -29.9090   23.6320 C   0  0  0  0  0  3  0  0  0  0  0  0
  -16.7240  -28.6490   23.0320 C   0  0  0  0  0  3  0  0  0  0  0  0
  -25.8940  -32.4840   23.8460 C   0  0  0  0  0  3  0  0  0  0  0  0
  -25.5810  -33.8670   24.2390 N   0  0  0  0  0  0  0  0  0  0  0  0
  -25.8980  -34.9530   23.5180 C   0  0  0  0  0  0  0  0  0  0  0  0
  -26.5600  -34.8990   22.4810 O   0  0  0  0  0  0  0  0  0  0  0  0
  -24.9860  -33.9800   25.0480 H   0  0  0  0  0  0  0  0  0  0  0  0
  -24.1460  -36.7390   23.2630 C   0  0  0  0  0  1  0  0  0  0  0  0
  -25.4060  -36.3210   24.0360 C   0  0  0  0  0  3  0  0  0  0  0  0
  -27.5580  -37.1830   24.8440 C   0  0  0  0  0  1  0  0  0  0  0  0
  -26.4240  -37.3880   23.9430 N   0  0  0  0  0  0  0  0  0  0  0  0
  -26.0180  -38.2950   24.1500 H   0  0  0  0  0  0  0  0  0  0  0  0
  -26.4400  -31.6590   25.0750 C   0  0  1  0  0  0  0  0  0  0  0  0
  -25.3670  -31.3700   26.1510 C   0  0  0  0  0  1  0  0  0  0  0  0
  -27.0240  -30.3040   24.6090 C   0  0  0  0  0  1  0  0  0  0  0  0
  -27.6050  -32.4220   25.7430 C   0  0  0  0  0  1  0  0  0  0  0  0
  -29.5510  -16.5640   15.7700 C   0  0  0  0  0  2  0  0  0  0  0  0
  -29.0260  -15.1500   15.5150 C   0  0  0  0  0  2  0  0  0  0  0  0
  -30.1620  -14.1870   15.1250 C   0  0  0  0  0  2  0  0  0  0  0  0
  -29.6540  -12.8940   14.4700 C   0  0  0  0  0  2  0  0  0  0  0  0
  -30.7660  -11.9220   14.0050 C   0  0  0  0  0  2  0  0  0  0  0  0
  -31.4120  -11.0510   15.1010 C   0  0  0  0  0  2  0  0  0  0  0  0
  -32.3760  -11.7000   16.0310 N   0  0  0  0  0  4  0  0  0  0  0  0
  -31.9690  -12.5540   16.3780 H   0  0  0  0  0  0  0  0  0  0  0  0
  -33.2110  -11.9490   15.5210 H   0  0  0  0  0  0  0  0  0  0  0  0
  -32.6770  -10.7950   17.1770 C   0  0  0  0  0  2  0  0  0  0  0  0
  -33.8700  -11.1950   18.1070 C   0  0  0  0  0  2  0  0  0  0  0  0
  -33.7020  -12.2870   19.2260 C   0  0  0  0  0  2  0  0  0  0  0  0
  -32.8520  -11.9300   20.5030 C   0  0  0  0  0  2  0  0  0  0  0  0
  -31.2100  -13.8570   20.7000 C   0  0  0  0  0  0  0  0  0  0  0  0
  -30.2950  -12.8040   18.9060 C   0  0  0  0  0  2  0  0  0  0  0  0
  -29.2180  -11.9770   18.2900 C   0  0  0  0  0  2  0  0  0  0  0  0
  -27.8440  -12.5590   18.5080 C   0  0  0  0  0  2  0  0  0  0  0  0
  -27.6560  -13.2520   19.8780 C   0  0  0  0  0  3  0  0  0  0  0  0
  -28.7980  -13.0010   20.9190 C   0  0  0  0  0  2  0  0  0  0  0  0
  -30.1580  -13.0910   20.3150 N   0  0  0  0  0  0  0  0  0  0  0  0
  -31.5120  -14.9470   20.2180 O   0  0  0  0  0  0  0  0  0  0  0  0
  -32.2300  -13.1100   21.1870 N   0  0  0  0  0  0  0  0  0  0  0  0
  -32.8980  -13.6720   21.7000 H   0  0  0  0  0  0  0  0  0  0  0  0
  -25.2450  -13.8150   20.5740 C   0  0  0  0  0  0  0  0  0  0  0  0
  -24.1760  -13.0410   20.9180 C   0  0  0  0  0  0  0  0  0  0  0  0
  -24.6480  -11.6900   20.8840 C   0  0  0  0  0  0  0  0  0  0  0  0
  -26.3150  -12.9570   20.3790 N   0  0  0  0  0  0  0  0  0  0  0  0
  -25.9460  -11.6670   20.6060 N   0  0  0  0  0  0  0  0  0  0  0  0
  -23.9120  -10.4250   21.0540 C   0  0  0  0  0  0  0  0  0  0  0  0
  -24.3610   -9.4190   21.9370 C   0  0  0  0  0  3  0  0  0  0  0  0
  -23.6290   -8.2180   22.0840 C   0  0  0  0  0  3  0  0  0  0  0  0
  -22.4360   -8.0200   21.3480 C   0  0  0  0  0  0  0  0  0  0  0  0
  -22.0010   -9.0260   20.4690 C   0  0  0  0  0  3  0  0  0  0  0  0
  -22.7280  -10.2170   20.3230 C   0  0  0  0  0  3  0  0  0  0  0  0
  -21.6690   -6.8830   21.4200 O   0  0  0  0  0  0  0  0  0  0  0  0
  -21.6900   -6.0750   22.5290 C   0  0  0  0  0  0  0  0  0  0  0  0
  -21.4030   -6.5620   23.8180 C   0  0  0  0  0  3  0  0  0  0  0  0
  -21.3570   -5.6720   24.9110 C   0  0  0  0  0  3  0  0  0  0  0  0
  -21.6040   -4.3000   24.7170 C   0  0  0  0  0  0  0  0  0  0  0  0
  -21.8860   -3.8130   23.4240 C   0  0  0  0  0  3  0  0  0  0  0  0
  -21.9240   -4.6980   22.3350 C   0  0  0  0  0  0  0  0  0  0  0  0
  -22.1790   -4.2240   21.0930 F   0  0  0  0  0  0  0  0  0  0  0  0
  -21.5520   -3.4440   25.7580 F   0  0  0  0  0  0  0  0  0  0  0  0
  -22.7760  -13.5120   21.1920 C   0  0  0  0  0  0  0  0  0  0  0  0
  -22.0410  -12.8130   22.0450 N   0  0  0  0  0  0  0  0  0  0  0  0
  -22.3360  -14.5500   20.6940 O   0  0  0  0  0  0  0  0  0  0  0  0
  -22.4120  -11.9770   22.4810 H   0  0  0  0  0  0  0  0  0  0  0  0
  -21.0990  -13.1040   22.2560 H   0  0  0  0  0  0  0  0  0  0  0  0
  -25.4030  -15.1840   20.3860 N   0  0  0  0  0  0  0  0  0  0  0  0
  -24.6070  -15.8060   20.4130 H   0  0  0  0  0  0  0  0  0  0  0  0
  -26.2650  -15.6580   20.1410 H   0  0  0  0  0  0  0  0  0  0  0  0
  1  4  1  0
  1  2  1  0
  3  1  1  0
  4  5  1  0
  5  6  1  0
  6  7  2  0
  7  8  1  0
  8  9  1  0
  9 10  1  0
  9 12  1  0
 11  9  1  0
 13 12  1  0
 14 16  1  0
 14 13  1  0
 15 26  2  0
 16 21  1  0
 17 25  1  0
 17 27  1  0
 18 24  1  0
 18 20  1  0
 19 25  1  0
 20 19  1  0
 21 20  2  0
 22 23  1  0
 22 16  2  0
 23 18  2  0
 24 17  1  0
 25 15  1  0
 27 29  2  0
 28 27  1  0
 30 28  1  0
 31 40  2  0
 31 36  1  0
 32 28  1  0
 32 36  1  0
 33 32  1  0
 34 35  1  0
 34 33  1  0
 35 31  1  0
 36 37  2  0
 37 38  1  0
 39 38  2  0
 40 39  1  0
 41 15  1  0
 41 42  1  0
 41 51  1  0
 42 45  1  0
 43 47  1  0
 43 42  1  0
 44 43  2  0
 47 46  1  0
 49 47  1  0
 49 50  1  0
 49 48  1  0
 51 54  1  1
 51 52  1  0
 53 51  1  0
 55  1  1  0
 56 55  1  0
 57 56  1  0
 58 57  1  0
 59 58  1  0
 59 60  1  0
 60 61  1  0
 61 62  1  0
 61 64  1  0
 63 61  1  0
 64 65  1  0
 65 66  1  0
 66 67  1  0
 67 76  1  0
 68 76  1  0
 69 74  1  0
 70 71  1  0
 70 69  1  0
 72 71  1  0
 72 81  1  0
 72 73  1  0
 74 68  1  0
 74 73  1  0
 75 68  2  0
 76 77  1  0
 78 79  2  0
 79 98  1  0
 80 79  1  0
 80 83  1  0
 81 78  1  0
 81 82  1  0
 82 80  2  0
 83 84  1  0
 84 85  2  0
 86 89  1  0
 86 85  1  0
 87 86  2  0
 88 87  1  0
 88 83  2  0
 89 90  1  0
 90 91  1  0
 91 92  2  0
 93 92  1  0
 93 97  1  0
 94 93  2  0
 95 90  2  0
 95 94  1  0
 96 95  1  0
 98 99  1  0
 99102  1  0
 99101  1  0
100 98  2  0
103104  1  0
103 78  1  0
105103  1  0
M  ISO  4  13 101  14 101  68 100  76 100
M  END
>  <TORSDO>  (46) 
F 35

>  <SCORE>  (46) 
32.295

>  <name>  (46) 
45

>  <ligand_id>  (46) 
45

>  <original_smiles>  (46) 
[H]c1c([H])c([H])c2c(c1[H])C([H])([H])C([H])([H])C([H])([H])C2([H])N([H])C(=O)C1([H])N(C(=O)C([H])(N([H])C(=O)C([H])(N([H])C([H])([H])[H])C([H])([H])[H])C(C([H])([H])[H])(C([H])([H])[H])C([H])([H])[H])C([H])([H])c2c([H])c(OC([H])([H])C([H])([H])[N+]([H])([H])C([H])([H])C([H])([H])C([H])([H])C([H])([H])C([H])([H])[N+]([H])([H])C([H])([H])C([H])([H])C([H])([H])C([H])([H])C([H])([H])C([H])([H])[N+]([H])([H])C([H])([H])C([H])([H])C([H])([H])C([H])([H])N([H])C(=O)N3C([H])([H])C([H])([H])C([H])([H])C([H])(n4nc(-c5c([H])c([H])c(Oc6c([H])c([H])c(F)c([H])c6F)c([H])c5[H])c(C(=O)N([H])[H])c4N([H])[H])C3([H])[H])c([H])c([H])c2C1([H])[H]

>  <smiles>  (46) 
[H]c1c([H])c([H])c2c(c1[H])C([H])([H])C([H])([H])C([H])([H])C2([H])N([H])C(=O)C1([H])N(C(=O)C([H])(N([H])C(=O)C([H])(N([H])C([H])([H])[H])C([H])([H])[H])C(C([H])([H])[H])(C([H])([H])[H])C([H])([H])[H])C([H])([H])c2c([H])c(OC([H])([H])C([H])([H])[N+]([H])([H])C([H])([H])C([H])([H])C([H])([H])C([H])([H])C([H])([H])[N+]([H])([H])C([H])([H])C([H])([H])C([H])([H])C([H])([H])C([H])([H])C([H])([H])[N+]([H])([H])C([H])([H])C([H])([H])C([H])([H])C([H])([H])N([H])C(=O)N3C([H])([H])C([H])([H])C([H])([H])C([H])(n4nc(-c5c([H])c([H])c(Oc6c([H])c([H])c(F)c([H])c6F)c([H])c5[H])c(C(=O)N([H])[H])c4N([H])[H])C3([H])[H])c([H])c([H])c2C1([H])[H]

$$$$
46:0:0
     RDKit          3D

100107  0  0  1  0  0  0  0  0999 V2000
  -26.1370  -24.5970   16.2890 C   0  0  0  0  0  2  0  0  0  0  0  0
  -25.0790  -25.6000   16.0430 N   0  0  0  0  0  4  0  0  0  0  0  0
  -24.8340  -26.0820   16.8910 H   0  0  0  0  0  0  0  0  0  0  0  0
  -24.2610  -25.0980   15.7330 H   0  0  0  0  0  0  0  0  0  0  0  0
  -25.4050  -26.5890   14.9870 C   0  0  0  0  0  2  0  0  0  0  0  0
  -26.2160  -27.8180   15.4700 C   0  0  0  0  0  2  0  0  0  0  0  0
  -27.6970  -27.5780   15.8320 C   0  0  0  0  0  2  0  0  0  0  0  0
  -27.8190  -27.4660   17.2440 O   0  0  0  0  0  0  0  0  0  0  0  0
  -29.0940  -27.0100   17.6930 C   0  0  0  0  0  2  0  0  0  0  0  0
  -29.3260  -27.3650   19.1780 C   0  0  0  0  0  2  0  0  0  0  0  0
  -28.3570  -26.7580   20.0380 O   0  0  0  0  0  0  0  0  0  0  0  0
  -24.5820  -31.9130   23.2300 C   0  0  0  0  0  0  0  0  0  0  0  0
  -27.1910  -27.4740   20.1460 C   0  0  0  0  0  0  0  0  0  0  0  0
  -23.3540  -30.5090   21.6030 C   0  0  0  0  0  3  0  0  0  0  0  0
  -24.7910  -28.9480   20.1910 C   0  0  0  0  0  0  0  0  0  0  0  0
  -25.8770  -30.8600   21.3820 C   0  0  0  0  0  2  0  0  0  0  0  0
  -25.9530  -29.4840   20.7610 C   0  0  0  0  0  0  0  0  0  0  0  0
  -27.1580  -28.7530   20.7420 C   0  0  0  0  0  3  0  0  0  0  0  0
  -26.0090  -26.9240   19.6200 C   0  0  0  0  0  3  0  0  0  0  0  0
  -24.8070  -27.6600   19.6240 C   0  0  0  0  0  3  0  0  0  0  0  0
  -23.5520  -29.8130   20.2300 C   0  0  0  0  0  2  0  0  0  0  0  0
  -24.6230  -31.1090   22.1310 N   0  0  0  0  0  0  0  0  0  0  0  0
  -23.5080  -32.1970   23.7760 O   0  0  0  0  0  0  0  0  0  0  0  0
  -22.7060  -29.4970   22.5740 C   0  0  0  0  0  0  0  0  0  0  0  0
  -21.3790  -29.3260   22.4580 N   0  0  0  0  0  0  0  0  0  0  0  0
  -23.3910  -28.8680   23.3850 O   0  0  0  0  0  0  0  0  0  0  0  0
  -20.8870  -29.8810   21.7730 H   0  0  0  0  0  0  0  0  0  0  0  0
  -17.9990  -28.1590   22.9720 C   0  0  0  0  0  0  0  0  0  0  0  0
  -20.5600  -28.3990   23.2380 C   0  0  0  0  0  3  0  0  0  0  0  0
  -20.6490  -26.9630   22.6700 C   0  0  0  0  0  2  0  0  0  0  0  0
  -19.5430  -26.6410   21.6620 C   0  0  0  0  0  2  0  0  0  0  0  0
  -18.1640  -26.8020   22.3070 C   0  0  0  0  0  2  0  0  0  0  0  0
  -19.1240  -28.9160   23.3940 C   0  0  0  0  0  0  0  0  0  0  0  0
  -18.9170  -30.1870   23.9730 C   0  0  0  0  0  3  0  0  0  0  0  0
  -17.6160  -30.7000   24.1380 C   0  0  0  0  0  3  0  0  0  0  0  0
  -16.5060  -29.9390   23.7340 C   0  0  0  0  0  3  0  0  0  0  0  0
  -16.6970  -28.6720   23.1540 C   0  0  0  0  0  3  0  0  0  0  0  0
  -25.8790  -32.5360   23.8380 C   0  0  0  0  0  3  0  0  0  0  0  0
  -25.5800  -33.9340   24.1710 N   0  0  0  0  0  0  0  0  0  0  0  0
  -25.9140  -34.9840   23.4080 C   0  0  0  0  0  0  0  0  0  0  0  0
  -26.5780  -34.8780   22.3740 O   0  0  0  0  0  0  0  0  0  0  0  0
  -24.9900  -34.0940   24.9750 H   0  0  0  0  0  0  0  0  0  0  0  0
  -24.1910  -36.7840   23.0630 C   0  0  0  0  0  1  0  0  0  0  0  0
  -25.4340  -36.3750   23.8670 C   0  0  0  0  0  3  0  0  0  0  0  0
  -27.5800  -37.2460   24.6810 C   0  0  0  0  0  1  0  0  0  0  0  0
  -26.4710  -37.4230   23.7480 N   0  0  0  0  0  0  0  0  0  0  0  0
  -26.0700  -38.3440   23.9000 H   0  0  0  0  0  0  0  0  0  0  0  0
  -26.4080  -31.7600   25.1050 C   0  0  1  0  0  0  0  0  0  0  0  0
  -25.3270  -31.5230   26.1850 C   0  0  0  0  0  1  0  0  0  0  0  0
  -26.9830  -30.3820   24.6990 C   0  0  0  0  0  1  0  0  0  0  0  0
  -27.5690  -32.5500   25.7560 C   0  0  0  0  0  1  0  0  0  0  0  0
  -25.7560  -23.5310   17.3340 C   0  0  0  0  0  2  0  0  0  0  0  0
  -26.9660  -22.6280   17.6130 C   0  0  0  0  0  2  0  0  0  0  0  0
  -26.7670  -21.5620   18.7030 C   0  0  0  0  0  2  0  0  0  0  0  0
  -28.0630  -20.7550   18.8710 C   0  0  0  0  0  2  0  0  0  0  0  0
  -28.0370  -19.6610   19.9530 C   0  0  0  0  0  2  0  0  0  0  0  0
  -29.3750  -19.0420   20.0480 N   0  0  0  0  0  4  0  0  0  0  0  0
  -30.0220  -19.7510   20.3560 H   0  0  0  0  0  0  0  0  0  0  0  0
  -29.6510  -18.7580   19.1220 H   0  0  0  0  0  0  0  0  0  0  0  0
  -29.4950  -17.8750   20.9460 C   0  0  0  0  0  2  0  0  0  0  0  0
  -30.9630  -17.4020   21.0080 C   0  0  0  0  0  2  0  0  0  0  0  0
  -31.2090  -16.1360   21.8520 C   0  0  0  0  0  2  0  0  0  0  0  0
  -30.9000  -14.2200   20.2740 C   0  0  0  0  0  0  0  0  0  0  0  0
  -30.4270  -12.1880   18.9560 C   0  0  0  0  0  2  0  0  0  0  0  0
  -29.4490  -12.4690   17.8010 C   0  0  0  0  0  2  0  0  0  0  0  0
  -27.9900  -12.3660   18.2810 C   0  0  0  0  0  2  0  0  0  0  0  0
  -27.7320  -13.1830   19.5740 C   0  0  0  0  0  3  0  0  0  0  0  0
  -28.8040  -12.8680   20.6390 C   0  0  0  0  0  2  0  0  0  0  0  0
  -30.1350  -13.1230   20.0520 N   0  0  0  0  0  0  0  0  0  0  0  0
  -31.8910  -14.5110   19.5980 O   0  0  0  0  0  0  0  0  0  0  0  0
  -30.5230  -14.9570   21.3280 N   0  0  0  0  0  0  0  0  0  0  0  0
  -29.7290  -14.6140   21.8500 H   0  0  0  0  0  0  0  0  0  0  0  0
  -25.3720  -13.8710   20.3450 C   0  0  0  0  0  0  0  0  0  0  0  0
  -24.2920  -13.1330   20.7500 C   0  0  0  0  0  0  0  0  0  0  0  0
  -24.7090  -11.7680   20.7100 C   0  0  0  0  0  0  0  0  0  0  0  0
  -26.3820  -12.9560   20.0880 N   0  0  0  0  0  0  0  0  0  0  0  0
  -25.9870  -11.6870   20.3610 N   0  0  0  0  0  0  0  0  0  0  0  0
  -23.9520  -10.5280   20.9280 C   0  0  0  0  0  0  0  0  0  0  0  0
  -24.3870   -9.5500   21.8490 C   0  0  0  0  0  3  0  0  0  0  0  0
  -23.6320   -8.3740   22.0530 C   0  0  0  0  0  3  0  0  0  0  0  0
  -22.4290   -8.1700   21.3360 C   0  0  0  0  0  0  0  0  0  0  0  0
  -22.0140   -9.1360   20.4030 C   0  0  0  0  0  3  0  0  0  0  0  0
  -22.7680  -10.3030   20.1970 C   0  0  0  0  0  3  0  0  0  0  0  0
  -21.6450   -7.0470   21.4500 O   0  0  0  0  0  0  0  0  0  0  0  0
  -21.6140   -6.3050   22.6030 C   0  0  0  0  0  0  0  0  0  0  0  0
  -21.2670   -6.8760   23.8480 C   0  0  0  0  0  3  0  0  0  0  0  0
  -21.1800   -6.0630   24.9950 C   0  0  0  0  0  3  0  0  0  0  0  0
  -21.4300   -4.6800   24.9000 C   0  0  0  0  0  0  0  0  0  0  0  0
  -21.7690   -4.1100   23.6620 C   0  0  0  0  0  3  0  0  0  0  0  0
  -21.8580   -4.9190   22.5160 C   0  0  0  0  0  0  0  0  0  0  0  0
  -22.1660   -4.3610   21.3210 F   0  0  0  0  0  0  0  0  0  0  0  0
  -21.3370   -3.8980   26.0010 F   0  0  0  0  0  0  0  0  0  0  0  0
  -22.9190  -13.6520   21.0660 C   0  0  0  0  0  0  0  0  0  0  0  0
  -22.1990  -12.9820   21.9590 N   0  0  0  0  0  0  0  0  0  0  0  0
  -22.4960  -14.6890   20.5550 O   0  0  0  0  0  0  0  0  0  0  0  0
  -22.5560  -12.1440   22.3940 H   0  0  0  0  0  0  0  0  0  0  0  0
  -21.2790  -13.3120   22.2120 H   0  0  0  0  0  0  0  0  0  0  0  0
  -25.5740  -15.2340   20.1560 N   0  0  0  0  0  0  0  0  0  0  0  0
  -24.8290  -15.9120   20.2730 H   0  0  0  0  0  0  0  0  0  0  0  0
  -26.4220  -15.6350   19.7770 H   0  0  0  0  0  0  0  0  0  0  0  0
  1 52  1  0
  2  1  1  0
  2  3  1  0
  4  2  1  0
  5  6  1  0
  5  2  1  0
  6  7  1  0
  7  8  1  0
  8  9  1  0
  9 10  1  0
 10 11  1  0
 11 13  1  0
 12 23  2  0
 13 18  1  0
 14 22  1  0
 14 24  1  0
 15 21  1  0
 15 17  1  0
 16 22  1  0
 17 16  1  0
 18 17  2  0
 19 20  1  0
 19 13  2  0
 20 15  2  0
 21 14  1  0
 22 12  1  0
 24 26  2  0
 25 24  1  0
 27 25  1  0
 28 37  2  0
 28 33  1  0
 29 25  1  0
 29 33  1  0
 30 29  1  0
 31 32  1  0
 31 30  1  0
 32 28  1  0
 33 34  2  0
 34 35  1  0
 36 35  2  0
 37 36  1  0
 38 12  1  0
 38 39  1  0
 38 48  1  0
 39 42  1  0
 40 44  1  0
 40 39  1  0
 41 40  2  0
 44 43  1  0
 46 44  1  0
 46 47  1  0
 46 45  1  0
 48 51  1  1
 48 49  1  0
 50 48  1  0
 52 53  1  0
 53 54  1  0
 54 55  1  0
 55 56  1  0
 56 57  1  0
 57 58  1  0
 57 60  1  0
 59 57  1  0
 60 61  1  0
 61 62  1  0
 63 71  1  0
 64 69  1  0
 65 66  1  0
 65 64  1  0
 67 66  1  0
 67 76  1  0
 67 68  1  0
 69 63  1  0
 69 68  1  0
 70 63  2  0
 71 72  1  0
 71 62  1  0
 73 74  2  0
 74 93  1  0
 75 74  1  0
 75 78  1  0
 76 73  1  0
 76 77  1  0
 77 75  2  0
 78 79  1  0
 79 80  2  0
 81 84  1  0
 81 80  1  0
 82 81  2  0
 83 82  1  0
 83 78  2  0
 84 85  1  0
 85 86  1  0
 86 87  2  0
 88 87  1  0
 88 92  1  0
 89 88  2  0
 90 85  2  0
 90 89  1  0
 91 90  1  0
 93 94  1  0
 94 97  1  0
 94 96  1  0
 95 93  2  0
 98 99  1  0
 98 73  1  0
100 98  1  0
M  ISO  4  10 101  11 101  63 100  71 100
M  END
>  <TORSDO>  (47) 
F 32

>  <SCORE>  (47) 
-10.096

>  <name>  (47) 
46

>  <ligand_id>  (47) 
46

>  <original_smiles>  (47) 
[H]c1c([H])c([H])c2c(c1[H])C([H])([H])C([H])([H])C([H])([H])C2([H])N([H])C(=O)C1([H])N(C(=O)C([H])(N([H])C(=O)C([H])(N([H])C([H])([H])[H])C([H])([H])[H])C(C([H])([H])[H])(C([H])([H])[H])C([H])([H])[H])C([H])([H])c2c([H])c(OC([H])([H])C([H])([H])OC([H])([H])C([H])([H])C([H])([H])[N+]([H])([H])C([H])([H])C([H])([H])C([H])([H])C([H])([H])C([H])([H])C([H])([H])[N+]([H])([H])C([H])([H])C([H])([H])C([H])([H])N([H])C(=O)N3C([H])([H])C([H])([H])C([H])([H])C([H])(n4nc(-c5c([H])c([H])c(Oc6c([H])c([H])c(F)c([H])c6F)c([H])c5[H])c(C(=O)N([H])[H])c4N([H])[H])C3([H])[H])c([H])c([H])c2C1([H])[H]

>  <smiles>  (47) 
[H]c1c([H])c([H])c2c(c1[H])C([H])([H])C([H])([H])C([H])([H])C2([H])N([H])C(=O)C1([H])N(C(=O)C([H])(N([H])C(=O)C([H])(N([H])C([H])([H])[H])C([H])([H])[H])C(C([H])([H])[H])(C([H])([H])[H])C([H])([H])[H])C([H])([H])c2c([H])c(OC([H])([H])C([H])([H])OC([H])([H])C([H])([H])C([H])([H])[N+]([H])([H])C([H])([H])C([H])([H])C([H])([H])C([H])([H])C([H])([H])C([H])([H])[N+]([H])([H])C([H])([H])C([H])([H])C([H])([H])N([H])C(=O)N3C([H])([H])C([H])([H])C([H])([H])C([H])(n4nc(-c5c([H])c([H])c(Oc6c([H])c([H])c(F)c([H])c6F)c([H])c5[H])c(C(=O)N([H])[H])c4N([H])[H])C3([H])[H])c([H])c([H])c2C1([H])[H]

$$$$
47:0:0
     RDKit          3D

 98105  0  0  1  0  0  0  0  0999 V2000
  -30.2810  -19.6600   25.4490 C   0  0  0  0  0  2  0  0  0  0  0  0
  -30.3060  -20.4510   24.2630 O   0  0  0  0  0  0  0  0  0  0  0  0
  -31.2440  -21.5130   24.2960 C   0  0  0  0  0  2  0  0  0  0  0  0
  -31.1580  -22.2570   22.9590 C   0  0  0  0  0  2  0  0  0  0  0  0
  -30.0480  -23.3210   22.9430 C   0  0  0  0  0  2  0  0  0  0  0  0
  -29.8470  -23.9410   21.5550 C   0  0  0  0  0  2  0  0  0  0  0  0
  -29.1720  -25.3160   21.6300 C   0  0  0  0  0  2  0  0  0  0  0  0
  -28.8050  -25.7470   20.2950 N   0  0  0  0  0  0  0  0  0  0  0  0
  -29.5440  -25.4930   19.6440 H   0  0  0  0  0  0  0  0  0  0  0  0
  -28.8390  -27.1860   20.3410 O   0  0  0  0  0  0  0  0  0  0  0  0
  -24.4360  -31.9120   23.2900 C   0  0  0  0  0  0  0  0  0  0  0  0
  -27.5890  -27.7630   20.3130 C   0  0  0  0  0  0  0  0  0  0  0  0
  -23.4530  -30.5110   21.5040 C   0  0  0  0  0  3  0  0  0  0  0  0
  -25.1050  -29.0990   20.1700 C   0  0  0  0  0  0  0  0  0  0  0  0
  -25.9540  -31.0240   21.5230 C   0  0  0  0  0  2  0  0  0  0  0  0
  -26.1710  -29.6750   20.8730 C   0  0  0  0  0  0  0  0  0  0  0  0
  -27.4110  -29.0090   20.9500 C   0  0  0  0  0  3  0  0  0  0  0  0
  -26.5060  -27.1920   19.6080 C   0  0  0  0  0  3  0  0  0  0  0  0
  -25.2630  -27.8520   19.5430 C   0  0  0  0  0  3  0  0  0  0  0  0
  -23.8130  -29.8840   20.1290 C   0  0  0  0  0  2  0  0  0  0  0  0
  -24.6280  -31.1620   22.1690 N   0  0  0  0  0  0  0  0  0  0  0  0
  -23.2990  -32.1050   23.7450 O   0  0  0  0  0  0  0  0  0  0  0  0
  -22.7850  -29.4220   22.3740 C   0  0  0  0  0  0  0  0  0  0  0  0
  -21.4840  -29.1870   22.1400 N   0  0  0  0  0  0  0  0  0  0  0  0
  -23.4350  -28.7940   23.2130 O   0  0  0  0  0  0  0  0  0  0  0  0
  -21.0170  -29.7580   21.4500 H   0  0  0  0  0  0  0  0  0  0  0  0
  -18.1280  -27.8690   22.3710 C   0  0  0  0  0  0  0  0  0  0  0  0
  -20.6570  -28.1800   22.8060 C   0  0  0  0  0  3  0  0  0  0  0  0
  -20.8340  -26.7890   22.1550 C   0  0  0  0  0  2  0  0  0  0  0  0
  -19.8010  -26.4970   21.0610 C   0  0  0  0  0  2  0  0  0  0  0  0
  -18.3820  -26.5670   21.6330 C   0  0  0  0  0  2  0  0  0  0  0  0
  -19.1970  -28.6340   22.9100 C   0  0  0  0  0  0  0  0  0  0  0  0
  -18.9080  -29.8540   23.5580 C   0  0  0  0  0  3  0  0  0  0  0  0
  -17.5830  -30.3120   23.6740 C   0  0  0  0  0  3  0  0  0  0  0  0
  -16.5270  -29.5450   23.1510 C   0  0  0  0  0  3  0  0  0  0  0  0
  -16.8000  -28.3240   22.5080 C   0  0  0  0  0  3  0  0  0  0  0  0
  -25.6270  -32.5850   24.0410 C   0  0  0  0  0  3  0  0  0  0  0  0
  -25.2540  -33.9810   24.3040 N   0  0  0  0  0  0  0  0  0  0  0  0
  -25.6790  -35.0300   23.5860 C   0  0  0  0  0  0  0  0  0  0  0  0
  -26.4950  -34.9240   22.6660 O   0  0  0  0  0  0  0  0  0  0  0  0
  -24.5440  -34.1340   25.0040 H   0  0  0  0  0  0  0  0  0  0  0  0
  -24.0020  -36.7890   22.9440 C   0  0  0  0  0  1  0  0  0  0  0  0
  -25.1090  -36.4140   23.9430 C   0  0  0  0  0  3  0  0  0  0  0  0
  -27.0800  -37.3390   25.0790 C   0  0  0  0  0  1  0  0  0  0  0  0
  -26.1320  -37.4820   23.9760 N   0  0  0  0  0  0  0  0  0  0  0  0
  -25.6970  -38.3990   24.0480 H   0  0  0  0  0  0  0  0  0  0  0  0
  -26.0130  -31.8490   25.3820 C   0  0  1  0  0  0  0  0  0  0  0  0
  -24.8080  -31.5760   26.3120 C   0  0  0  0  0  1  0  0  0  0  0  0
  -26.6960  -30.4970   25.0750 C   0  0  0  0  0  1  0  0  0  0  0  0
  -27.0400  -32.6960   26.1710 C   0  0  0  0  0  1  0  0  0  0  0  0
  -30.4830  -18.2100   24.9960 C   0  0  0  0  0  2  0  0  0  0  0  0
  -29.9480  -18.0330   23.6270 N   0  0  0  0  0  4  0  0  0  0  0  0
  -28.9940  -17.7160   23.6880 H   0  0  0  0  0  0  0  0  0  0  0  0
  -29.9370  -18.9510   23.2060 H   0  0  0  0  0  0  0  0  0  0  0  0
  -30.7170  -17.1170   22.7560 C   0  0  0  0  0  2  0  0  0  0  0  0
  -31.3810  -17.8360   21.5620 C   0  0  0  0  0  2  0  0  0  0  0  0
  -32.9200  -17.8490   21.5760 C   0  0  0  0  0  2  0  0  0  0  0  0
  -33.5070  -18.1320   20.1880 C   0  0  0  0  0  2  0  0  0  0  0  0
  -34.6260  -17.1610   19.7850 C   0  0  0  0  0  2  0  0  0  0  0  0
  -34.2270  -15.6750   19.8580 C   0  0  0  0  0  2  0  0  0  0  0  0
  -34.9940  -13.6600   18.4400 C   0  0  0  0  0  0  0  0  0  0  0  0
  -33.6370  -12.1300   17.0800 C   0  0  0  0  0  2  0  0  0  0  0  0
  -32.8040  -12.9470   16.0710 C   0  0  0  0  0  2  0  0  0  0  0  0
  -31.4620  -13.3810   16.6970 C   0  0  0  0  0  2  0  0  0  0  0  0
  -31.6410  -14.0180   18.1010 C   0  0  0  0  0  3  0  0  0  0  0  0
  -32.5620  -13.1430   18.9880 C   0  0  0  0  0  2  0  0  0  0  0  0
  -33.8280  -12.9780   18.2670 N   0  0  0  0  0  0  0  0  0  0  0  0
  -36.0430  -13.3200   17.8950 O   0  0  0  0  0  0  0  0  0  0  0  0
  -34.9440  -14.9490   18.8150 N   0  0  0  0  0  0  0  0  0  0  0  0
  -35.7930  -15.4220   18.5430 H   0  0  0  0  0  0  0  0  0  0  0  0
  -29.8080  -15.4760   19.1650 C   0  0  0  0  0  0  0  0  0  0  0  0
  -28.5580  -15.1750   19.6320 C   0  0  0  0  0  0  0  0  0  0  0  0
  -28.4010  -13.7670   19.4540 C   0  0  0  0  0  0  0  0  0  0  0  0
  -30.3560  -14.2750   18.7430 N   0  0  0  0  0  0  0  0  0  0  0  0
  -29.5170  -13.2340   18.9740 N   0  0  0  0  0  0  0  0  0  0  0  0
  -27.2350  -12.9010   19.6610 C   0  0  0  0  0  0  0  0  0  0  0  0
  -27.2840  -11.7980   20.5420 C   0  0  0  0  0  3  0  0  0  0  0  0
  -26.1440  -10.9890   20.7390 C   0  0  0  0  0  3  0  0  0  0  0  0
  -24.9400  -11.2840   20.0590 C   0  0  0  0  0  0  0  0  0  0  0  0
  -24.9040  -12.3680   19.1660 C   0  0  0  0  0  3  0  0  0  0  0  0
  -26.0400  -13.1690   18.9660 C   0  0  0  0  0  3  0  0  0  0  0  0
  -23.7900  -10.5390   20.1660 O   0  0  0  0  0  0  0  0  0  0  0  0
  -23.4060   -9.9810   21.3590 C   0  0  0  0  0  0  0  0  0  0  0  0
  -23.1800  -10.7650   22.5120 C   0  0  0  0  0  3  0  0  0  0  0  0
  -22.7190  -10.1560   23.6970 C   0  0  0  0  0  3  0  0  0  0  0  0
  -22.4740   -8.7700   23.7280 C   0  0  0  0  0  0  0  0  0  0  0  0
  -22.6930   -7.9900   22.5790 C   0  0  0  0  0  3  0  0  0  0  0  0
  -23.1550   -8.5950   21.3970 C   0  0  0  0  0  0  0  0  0  0  0  0
  -23.3450   -7.8430   20.2870 F   0  0  0  0  0  0  0  0  0  0  0  0
  -22.0230   -8.1860   24.8640 F   0  0  0  0  0  0  0  0  0  0  0  0
  -27.5260  -16.1500   20.1200 C   0  0  0  0  0  0  0  0  0  0  0  0
  -26.6700  -15.7250   21.0430 N   0  0  0  0  0  0  0  0  0  0  0  0
  -27.5030  -17.3110   19.7170 O   0  0  0  0  0  0  0  0  0  0  0  0
  -26.7050  -14.7760   21.3880 H   0  0  0  0  0  0  0  0  0  0  0  0
  -25.9710  -16.3550   21.4090 H   0  0  0  0  0  0  0  0  0  0  0  0
  -30.5080  -16.6700   19.0420 N   0  0  0  0  0  0  0  0  0  0  0  0
  -30.1050  -17.5600   19.3100 H   0  0  0  0  0  0  0  0  0  0  0  0
  -31.4290  -16.7530   18.6290 H   0  0  0  0  0  0  0  0  0  0  0  0
  2  3  1  0
  2  1  1  0
  4  3  1  0
  5  4  1  0
  6  7  1  0
  6  5  1  0
  8 10  1  0
  8  7  1  0
  9  8  1  0
 11 22  2  0
 12 10  1  0
 12 17  1  0
 13 21  1  0
 13 23  1  0
 14 16  1  0
 15 21  1  0
 16 17  2  0
 16 15  1  0
 18 12  2  0
 19 18  1  0
 19 14  2  0
 20 14  1  0
 20 13  1  0
 21 11  1  0
 23 25  2  0
 24 23  1  0
 26 24  1  0
 27 36  2  0
 27 32  1  0
 28 24  1  0
 28 32  1  0
 29 28  1  0
 30 31  1  0
 30 29  1  0
 31 27  1  0
 32 33  2  0
 33 34  1  0
 35 34  2  0
 36 35  1  0
 37 11  1  0
 37 38  1  0
 37 47  1  0
 38 41  1  0
 39 43  1  0
 39 38  1  0
 40 39  2  0
 43 42  1  0
 43 45  1  0
 45 46  1  0
 45 44  1  0
 47 50  1  1
 47 48  1  0
 49 47  1  0
 51  1  1  0
 52 53  1  0
 52 51  1  0
 54 52  1  0
 55 52  1  0
 56 57  1  0
 56 55  1  0
 58 57  1  0
 59 60  1  0
 59 58  1  0
 61 69  1  0
 62 67  1  0
 63 64  1  0
 63 62  1  0
 65 64  1  0
 65 74  1  0
 65 66  1  0
 67 61  1  0
 67 66  1  0
 68 61  2  0
 69 60  1  0
 70 69  1  0
 71 72  2  0
 72 91  1  0
 73 72  1  0
 73 76  1  0
 74 75  1  0
 74 71  1  0
 75 73  2  0
 76 77  1  0
 77 78  2  0
 79 82  1  0
 79 78  1  0
 80 79  2  0
 81 80  1  0
 81 76  2  0
 82 83  1  0
 83 88  2  0
 83 84  1  0
 84 85  2  0
 85 86  1  0
 86 90  1  0
 87 86  2  0
 88 87  1  0
 89 88  1  0
 91 92  1  0
 92 94  1  0
 92 95  1  0
 93 91  2  0
 96 71  1  0
 96 97  1  0
 98 96  1  0
M  ISO  4   8 101  10 101  61 100  69 100
M  END
>  <TORSDO>  (48) 
F 31

>  <SCORE>  (48) 
1.327

>  <name>  (48) 
47

>  <ligand_id>  (48) 
47

>  <original_smiles>  (48) 
[H]c1c([H])c([H])c2c(c1[H])C([H])([H])C([H])([H])C([H])([H])C2([H])N([H])C(=O)C1([H])N(C(=O)C([H])(N([H])C(=O)C([H])(N([H])C([H])([H])[H])C([H])([H])[H])C(C([H])([H])[H])(C([H])([H])[H])C([H])([H])[H])C([H])([H])c2c([H])c(ON([H])C([H])([H])C([H])([H])C([H])([H])C([H])([H])C([H])([H])OC([H])([H])C([H])([H])[N+]([H])([H])C([H])([H])C([H])([H])C([H])([H])C([H])([H])C([H])([H])C([H])([H])N([H])C(=O)N3C([H])([H])C([H])([H])C([H])([H])C([H])(n4nc(-c5c([H])c([H])c(Oc6c([H])c([H])c(F)c([H])c6F)c([H])c5[H])c(C(=O)N([H])[H])c4N([H])[H])C3([H])[H])c([H])c([H])c2C1([H])[H]

>  <smiles>  (48) 
[H]c1c([H])c([H])c2c(c1[H])C([H])([H])C([H])([H])C([H])([H])C2([H])N([H])C(=O)C1([H])N(C(=O)C([H])(N([H])C(=O)C([H])(N([H])C([H])([H])[H])C([H])([H])[H])C(C([H])([H])[H])(C([H])([H])[H])C([H])([H])[H])C([H])([H])c2c([H])c(ON([H])C([H])([H])C([H])([H])C([H])([H])C([H])([H])C([H])([H])OC([H])([H])C([H])([H])[N+]([H])([H])C([H])([H])C([H])([H])C([H])([H])C([H])([H])C([H])([H])C([H])([H])N([H])C(=O)N3C([H])([H])C([H])([H])C([H])([H])C([H])(n4nc(-c5c([H])c([H])c(Oc6c([H])c([H])c(F)c([H])c6F)c([H])c5[H])c(C(=O)N([H])[H])c4N([H])[H])C3([H])[H])c([H])c([H])c2C1([H])[H]

$$$$
48:0:0
     RDKit          3D

 94101  0  0  1  0  0  0  0  0999 V2000
  -29.6420  -20.9360   21.3980 C   0  0  0  0  0  2  0  0  0  0  0  0
  -30.6720  -19.9460   21.1280 N   0  0  0  0  0  0  0  0  0  0  0  0
  -31.5750  -20.4220   21.0650 H   0  0  0  0  0  0  0  0  0  0  0  0
  -30.7350  -18.9250   22.1710 C   0  0  0  0  0  2  0  0  0  0  0  0
  -31.8620  -17.9180   21.9090 C   0  0  0  0  0  2  0  0  0  0  0  0
  -31.8940  -16.8860   22.9590 N   0  0  0  0  0  4  0  0  0  0  0  0
  -32.0680  -17.3110   23.8560 H   0  0  0  0  0  0  0  0  0  0  0  0
  -30.9930  -16.4390   22.9960 H   0  0  0  0  0  0  0  0  0  0  0  0
  -32.8850  -15.8220   22.7330 C   0  0  0  0  0  2  0  0  0  0  0  0
  -32.2320  -14.4410   22.8820 C   0  0  0  0  0  2  0  0  0  0  0  0
  -30.8940  -14.1770   20.8090 C   0  0  0  0  0  0  0  0  0  0  0  0
  -30.3960  -12.2840   19.3380 C   0  0  0  0  0  2  0  0  0  0  0  0
  -29.4510  -12.5440   18.1610 C   0  0  0  0  0  2  0  0  0  0  0  0
  -27.9900  -12.3770   18.6060 C   0  0  0  0  0  2  0  0  0  0  0  0
  -27.6620  -13.2040   19.8750 C   0  0  0  0  0  3  0  0  0  0  0  0
  -28.7060  -12.9650   20.9880 C   0  0  0  0  0  2  0  0  0  0  0  0
  -30.0550  -13.1890   20.4400 N   0  0  0  0  0  0  0  0  0  0  0  0
  -31.7480  -14.6780   20.0730 O   0  0  0  0  0  0  0  0  0  0  0  0
  -30.9730  -14.2790   22.1430 N   0  0  0  0  0  0  0  0  0  0  0  0
  -30.2410  -13.7850   22.6350 H   0  0  0  0  0  0  0  0  0  0  0  0
  -25.2580  -13.8170   20.5690 C   0  0  0  0  0  0  0  0  0  0  0  0
  -24.1830  -13.0440   20.9180 C   0  0  0  0  0  0  0  0  0  0  0  0
  -24.6370  -11.6910   20.8720 C   0  0  0  0  0  0  0  0  0  0  0  0
  -26.3030  -12.9340   20.3400 N   0  0  0  0  0  0  0  0  0  0  0  0
  -25.9300  -11.6490   20.5780 N   0  0  0  0  0  0  0  0  0  0  0  0
  -23.9040  -10.4290   21.0390 C   0  0  0  0  0  0  0  0  0  0  0  0
  -24.3590   -9.4210   21.9180 C   0  0  0  0  0  3  0  0  0  0  0  0
  -23.6280   -8.2240   22.0750 C   0  0  0  0  0  3  0  0  0  0  0  0
  -22.4260   -8.0270   21.3540 C   0  0  0  0  0  0  0  0  0  0  0  0
  -21.9890   -9.0250   20.4640 C   0  0  0  0  0  3  0  0  0  0  0  0
  -22.7210  -10.2130   20.3050 C   0  0  0  0  0  3  0  0  0  0  0  0
  -21.6630   -6.8870   21.4240 O   0  0  0  0  0  0  0  0  0  0  0  0
  -21.6850   -6.0730   22.5280 C   0  0  0  0  0  0  0  0  0  0  0  0
  -21.4020   -6.5640   23.8220 C   0  0  0  0  0  3  0  0  0  0  0  0
  -21.3650   -5.6800   24.9180 C   0  0  0  0  0  3  0  0  0  0  0  0
  -21.6040   -4.3050   24.7230 C   0  0  0  0  0  0  0  0  0  0  0  0
  -21.8810   -3.8150   23.4350 C   0  0  0  0  0  3  0  0  0  0  0  0
  -21.9190   -4.6960   22.3410 C   0  0  0  0  0  0  0  0  0  0  0  0
  -22.1660   -4.2140   21.0980 F   0  0  0  0  0  0  0  0  0  0  0  0
  -21.5620   -3.4540   25.7740 F   0  0  0  0  0  0  0  0  0  0  0  0
  -22.7850  -13.5240   21.1850 C   0  0  0  0  0  0  0  0  0  0  0  0
  -22.0490  -12.8230   22.0400 N   0  0  0  0  0  0  0  0  0  0  0  0
  -22.3540  -14.5560   20.6720 O   0  0  0  0  0  0  0  0  0  0  0  0
  -22.4090  -11.9870   22.4770 H   0  0  0  0  0  0  0  0  0  0  0  0
  -21.1110  -13.1270   22.2610 H   0  0  0  0  0  0  0  0  0  0  0  0
  -25.4330  -15.1890   20.4080 N   0  0  0  0  0  0  0  0  0  0  0  0
  -24.6710  -15.8520   20.5120 H   0  0  0  0  0  0  0  0  0  0  0  0
  -26.2970  -15.6230   20.1070 H   0  0  0  0  0  0  0  0  0  0  0  0
  -29.7340  -22.1070   20.4180 C   0  0  0  0  0  2  0  0  0  0  0  0
  -28.9470  -23.2150   20.9310 N   0  0  0  0  0  0  0  0  0  0  0  0
  -29.2550  -23.4240   21.8820 H   0  0  0  0  0  0  0  0  0  0  0  0
  -29.0370  -24.4320   20.1290 C   0  0  0  0  0  2  0  0  0  0  0  0
  -28.3460  -25.5850   20.8610 C   0  0  0  0  0  2  0  0  0  0  0  0
  -28.3980  -26.7620   20.0660 O   0  0  0  0  0  0  0  0  0  0  0  0
  -24.6100  -31.8710   23.2130 C   0  0  0  0  0  0  0  0  0  0  0  0
  -27.2350  -27.4820   20.0830 C   0  0  0  0  0  0  0  0  0  0  0  0
  -23.3960  -30.4940   21.5530 C   0  0  0  0  0  3  0  0  0  0  0  0
  -24.8430  -28.9650   20.1160 C   0  0  0  0  0  0  0  0  0  0  0  0
  -25.9200  -30.8500   21.3590 C   0  0  0  0  0  2  0  0  0  0  0  0
  -26.0000  -29.4880   20.7070 C   0  0  0  0  0  0  0  0  0  0  0  0
  -27.2030  -28.7530   20.6880 C   0  0  0  0  0  3  0  0  0  0  0  0
  -26.0660  -26.9590   19.4930 C   0  0  0  0  0  3  0  0  0  0  0  0
  -24.8670  -27.6960   19.5090 C   0  0  0  0  0  3  0  0  0  0  0  0
  -23.6010  -29.8240   20.1680 C   0  0  0  0  0  2  0  0  0  0  0  0
  -24.6600  -31.0850   22.1010 N   0  0  0  0  0  0  0  0  0  0  0  0
  -23.5310  -32.1440   23.7560 O   0  0  0  0  0  0  0  0  0  0  0  0
  -22.7380  -29.4670   22.5010 C   0  0  0  0  0  0  0  0  0  0  0  0
  -21.4120  -29.3020   22.3750 N   0  0  0  0  0  0  0  0  0  0  0  0
  -23.4170  -28.8220   23.3040 O   0  0  0  0  0  0  0  0  0  0  0  0
  -20.9270  -29.8730   21.6960 H   0  0  0  0  0  0  0  0  0  0  0  0
  -18.0270  -28.1370   22.8500 C   0  0  0  0  0  0  0  0  0  0  0  0
  -20.5850  -28.3650   23.1340 C   0  0  0  0  0  3  0  0  0  0  0  0
  -20.6770  -26.9390   22.5420 C   0  0  0  0  0  2  0  0  0  0  0  0
  -19.5750  -26.6390   21.5210 C   0  0  0  0  0  2  0  0  0  0  0  0
  -18.1920  -26.7920   22.1620 C   0  0  0  0  0  2  0  0  0  0  0  0
  -19.1510  -28.8820   23.2920 C   0  0  0  0  0  0  0  0  0  0  0  0
  -18.9440  -30.1440   23.8920 C   0  0  0  0  0  3  0  0  0  0  0  0
  -17.6440  -30.6580   24.0560 C   0  0  0  0  0  3  0  0  0  0  0  0
  -16.5340  -29.9080   23.6320 C   0  0  0  0  0  3  0  0  0  0  0  0
  -16.7250  -28.6500   23.0340 C   0  0  0  0  0  3  0  0  0  0  0  0
  -25.9020  -32.4840   23.8410 C   0  0  0  0  0  3  0  0  0  0  0  0
  -26.4470  -31.6600   25.0720 C   0  0  1  0  0  0  0  0  0  0  0  0
  -25.3750  -31.3680   26.1480 C   0  0  0  0  0  1  0  0  0  0  0  0
  -27.0280  -30.3050   24.6050 C   0  0  0  0  0  1  0  0  0  0  0  0
  -27.6070  -32.4290   25.7470 C   0  0  0  0  0  1  0  0  0  0  0  0
  -25.5890  -33.8640   24.2350 N   0  0  0  0  0  0  0  0  0  0  0  0
  -25.9030  -34.9490   23.5140 C   0  0  0  0  0  0  0  0  0  0  0  0
  -26.5580  -34.8930   22.4690 O   0  0  0  0  0  0  0  0  0  0  0  0
  -25.0050  -33.9800   25.0510 H   0  0  0  0  0  0  0  0  0  0  0  0
  -24.1490  -36.7320   23.2640 C   0  0  0  0  0  1  0  0  0  0  0  0
  -25.4100  -36.3120   24.0340 C   0  0  0  0  0  3  0  0  0  0  0  0
  -27.5580  -37.1810   24.8460 C   0  0  0  0  0  1  0  0  0  0  0  0
  -26.4290  -37.3800   23.9400 N   0  0  0  0  0  0  0  0  0  0  0  0
  -26.0190  -38.2880   24.1420 H   0  0  0  0  0  0  0  0  0  0  0  0
  2  1  1  0
  2  4  1  0
  3  2  1  0
  5  4  1  0
  5  6  1  0
  6  8  1  0
  6  7  1  0
  9 10  1  0
  9  6  1  0
 11 19  1  0
 12 17  1  0
 13 14  1  0
 13 12  1  0
 15 14  1  0
 15 24  1  0
 15 16  1  0
 17 11  1  0
 17 16  1  0
 18 11  2  0
 19 20  1  0
 19 10  1  0
 21 22  2  0
 22 41  1  0
 23 22  1  0
 23 26  1  0
 24 21  1  0
 24 25  1  0
 25 23  2  0
 26 27  1  0
 27 28  2  0
 29 32  1  0
 29 28  1  0
 30 29  2  0
 31 30  1  0
 31 26  2  0
 32 33  1  0
 33 34  1  0
 34 35  2  0
 36 35  1  0
 36 40  1  0
 37 36  2  0
 38 33  2  0
 38 37  1  0
 39 38  1  0
 41 42  1  0
 42 45  1  0
 42 44  1  0
 43 41  2  0
 46 47  1  0
 46 21  1  0
 48 46  1  0
 49 50  1  0
 49  1  1  0
 50 51  1  0
 52 53  1  0
 52 50  1  0
 54 56  1  0
 54 53  1  0
 55 66  2  0
 56 61  1  0
 57 65  1  0
 57 67  1  0
 58 64  1  0
 58 60  1  0
 59 65  1  0
 60 59  1  0
 61 60  2  0
 62 63  1  0
 62 56  2  0
 63 58  2  0
 64 57  1  0
 65 55  1  0
 67 69  2  0
 68 67  1  0
 70 68  1  0
 71 80  2  0
 71 76  1  0
 72 68  1  0
 72 76  1  0
 73 72  1  0
 74 75  1  0
 74 73  1  0
 75 71  1  0
 76 77  2  0
 77 78  1  0
 79 78  2  0
 80 79  1  0
 81 55  1  0
 81 86  1  0
 81 82  1  0
 82 85  1  1
 82 83  1  0
 84 82  1  0
 86 89  1  0
 87 91  1  0
 87 86  1  0
 88 87  2  0
 91 90  1  0
 93 91  1  0
 93 94  1  0
 93 92  1  0
M  ISO  4  11 100  19 100  53 101  54 101
M  END
>  <TORSDO>  (49) 
F 26

>  <SCORE>  (49) 
-2.703

>  <name>  (49) 
48

>  <ligand_id>  (49) 
48

>  <original_smiles>  (49) 
[H]c1c([H])c([H])c2c(c1[H])C([H])([H])C([H])([H])C([H])([H])C2([H])N([H])C(=O)C1([H])N(C(=O)C([H])(N([H])C(=O)C([H])(N([H])C([H])([H])[H])C([H])([H])[H])C(C([H])([H])[H])(C([H])([H])[H])C([H])([H])[H])C([H])([H])c2c([H])c(OC([H])([H])C([H])([H])N([H])C([H])([H])C([H])([H])N([H])C([H])([H])C([H])([H])[N+]([H])([H])C([H])([H])C([H])([H])N([H])C(=O)N3C([H])([H])C([H])([H])C([H])([H])C([H])(n4nc(-c5c([H])c([H])c(Oc6c([H])c([H])c(F)c([H])c6F)c([H])c5[H])c(C(=O)N([H])[H])c4N([H])[H])C3([H])[H])c([H])c([H])c2C1([H])[H]

>  <smiles>  (49) 
[H]c1c([H])c([H])c2c(c1[H])C([H])([H])C([H])([H])C([H])([H])C2([H])N([H])C(=O)C1([H])N(C(=O)C([H])(N([H])C(=O)C([H])(N([H])C([H])([H])[H])C([H])([H])[H])C(C([H])([H])[H])(C([H])([H])[H])C([H])([H])[H])C([H])([H])c2c([H])c(OC([H])([H])C([H])([H])N([H])C([H])([H])C([H])([H])N([H])C([H])([H])C([H])([H])[N+]([H])([H])C([H])([H])C([H])([H])N([H])C(=O)N3C([H])([H])C([H])([H])C([H])([H])C([H])(n4nc(-c5c([H])c([H])c(Oc6c([H])c([H])c(F)c([H])c6F)c([H])c5[H])c(C(=O)N([H])[H])c4N([H])[H])C3([H])[H])c([H])c([H])c2C1([H])[H]

$$$$
49:0:0
     RDKit          3D

 95102  0  0  1  0  0  0  0  0999 V2000
  -29.7120  -21.4570   24.3270 N   0  0  0  0  0  0  0  0  0  0  0  0
  -28.7190  -21.3680   24.5490 H   0  0  0  0  0  0  0  0  0  0  0  0
  -30.1180  -22.8410   24.5970 C   0  0  0  0  0  2  0  0  0  0  0  0
  -29.3910  -23.8460   23.6890 C   0  0  0  0  0  2  0  0  0  0  0  0
  -29.8990  -23.7550   22.3640 O   0  0  0  0  0  0  0  0  0  0  0  0
  -29.2510  -24.6440   21.4570 C   0  0  0  0  0  2  0  0  0  0  0  0
  -30.0420  -24.6550   20.1390 C   0  0  0  0  0  2  0  0  0  0  0  0
  -29.4390  -25.5210   19.0120 C   0  0  0  0  0  2  0  0  0  0  0  0
  -29.1360  -26.8430   19.4670 O   0  0  0  0  0  0  0  0  0  0  0  0
  -24.6470  -31.1500   22.8690 C   0  0  0  0  0  0  0  0  0  0  0  0
  -27.8430  -27.3290   19.4930 C   0  0  0  0  0  0  0  0  0  0  0  0
  -23.6250  -29.7080   21.1390 C   0  0  0  0  0  3  0  0  0  0  0  0
  -25.2580  -28.4870   19.6100 C   0  0  0  0  0  0  0  0  0  0  0  0
  -26.0770  -30.4230   20.9650 C   0  0  0  0  0  2  0  0  0  0  0  0
  -26.3380  -29.1240   20.2290 C   0  0  0  0  0  0  0  0  0  0  0  0
  -27.6280  -28.5550   20.1630 C   0  0  0  0  0  3  0  0  0  0  0  0
  -26.7310  -26.6970   18.8800 C   0  0  0  0  0  3  0  0  0  0  0  0
  -25.4480  -27.2730   18.9340 C   0  0  0  0  0  3  0  0  0  0  0  0
  -23.9070  -29.1580   19.7170 C   0  0  0  0  0  2  0  0  0  0  0  0
  -24.7990  -30.4400   21.7150 N   0  0  0  0  0  0  0  0  0  0  0  0
  -23.5430  -31.2390   23.4240 O   0  0  0  0  0  0  0  0  0  0  0  0
  -23.1280  -28.5450   22.0300 C   0  0  0  0  0  0  0  0  0  0  0  0
  -21.8410  -28.1900   21.8830 N   0  0  0  0  0  0  0  0  0  0  0  0
  -23.8950  -27.9680   22.8030 O   0  0  0  0  0  0  0  0  0  0  0  0
  -21.2860  -28.7120   21.2210 H   0  0  0  0  0  0  0  0  0  0  0  0
  -18.6640  -26.5100   22.2620 C   0  0  0  0  0  0  0  0  0  0  0  0
  -21.1590  -27.1020   22.5810 C   0  0  0  0  0  3  0  0  0  0  0  0
  -21.4640  -25.7410   21.9160 C   0  0  0  0  0  2  0  0  0  0  0  0
  -20.4190  -25.3320   20.8710 C   0  0  0  0  0  2  0  0  0  0  0  0
  -19.0270  -25.2430   21.5050 C   0  0  0  0  0  2  0  0  0  0  0  0
  -19.6650  -27.3910   22.7510 C   0  0  0  0  0  0  0  0  0  0  0  0
  -19.2710  -28.5710   23.4180 C   0  0  0  0  0  3  0  0  0  0  0  0
  -17.9100  -28.8780   23.5990 C   0  0  0  0  0  3  0  0  0  0  0  0
  -16.9240  -27.9940   23.1270 C   0  0  0  0  0  3  0  0  0  0  0  0
  -17.3000  -26.8100   22.4650 C   0  0  0  0  0  3  0  0  0  0  0  0
  -25.8420  -31.9010   23.5330 C   0  0  0  0  0  3  0  0  0  0  0  0
  -26.4100  -31.1650   24.8080 C   0  0  1  0  0  0  0  0  0  0  0  0
  -25.3190  -30.7780   25.8340 C   0  0  0  0  0  1  0  0  0  0  0  0
  -27.1560  -29.8740   24.4020 C   0  0  0  0  0  1  0  0  0  0  0  0
  -27.4440  -32.0710   25.5180 C   0  0  0  0  0  1  0  0  0  0  0  0
  -25.3760  -33.2510   23.8760 N   0  0  0  0  0  0  0  0  0  0  0  0
  -25.6240  -34.3490   23.1510 C   0  0  0  0  0  0  0  0  0  0  0  0
  -26.3420  -34.3420   22.1460 O   0  0  0  0  0  0  0  0  0  0  0  0
  -24.7340  -33.3200   24.6520 H   0  0  0  0  0  0  0  0  0  0  0  0
  -23.7320  -35.9560   22.7570 C   0  0  0  0  0  1  0  0  0  0  0  0
  -24.9750  -35.6680   23.6140 C   0  0  0  0  0  3  0  0  0  0  0  0
  -26.9670  -36.7460   24.5570 C   0  0  0  0  0  1  0  0  0  0  0  0
  -25.8950  -36.8250   23.5670 N   0  0  0  0  0  0  0  0  0  0  0  0
  -25.3930  -37.6960   23.7130 H   0  0  0  0  0  0  0  0  0  0  0  0
  -30.4820  -20.4820   25.1110 C   0  0  0  0  0  2  0  0  0  0  0  0
  -30.2310  -19.0470   24.6300 C   0  0  0  0  0  2  0  0  0  0  0  0
  -30.6500  -18.8840   23.2240 N   0  0  0  0  0  4  0  0  0  0  0  0
  -30.0660  -19.4850   22.6640 H   0  0  0  0  0  0  0  0  0  0  0  0
  -31.5920  -19.2290   23.1420 H   0  0  0  0  0  0  0  0  0  0  0  0
  -30.5920  -17.4900   22.7340 C   0  0  0  0  0  2  0  0  0  0  0  0
  -31.3530  -17.3020   21.4100 C   0  0  0  0  0  2  0  0  0  0  0  0
  -31.8490  -15.8580   21.1980 C   0  0  0  0  0  2  0  0  0  0  0  0
  -30.8610  -14.2270   19.5950 C   0  0  0  0  0  0  0  0  0  0  0  0
  -30.4330  -11.9710   18.7050 C   0  0  0  0  0  2  0  0  0  0  0  0
  -29.3770  -11.9180   17.5910 C   0  0  0  0  0  2  0  0  0  0  0  0
  -27.9650  -11.7910   18.1850 C   0  0  0  0  0  2  0  0  0  0  0  0
  -27.6940  -12.8520   19.2840 C   0  0  0  0  0  3  0  0  0  0  0  0
  -28.8440  -12.8960   20.3170 C   0  0  0  0  0  2  0  0  0  0  0  0
  -30.1220  -13.0900   19.6060 N   0  0  0  0  0  0  0  0  0  0  0  0
  -31.6830  -14.4950   18.7110 O   0  0  0  0  0  0  0  0  0  0  0  0
  -30.8100  -14.9310   20.7360 N   0  0  0  0  0  0  0  0  0  0  0  0
  -30.1380  -14.6100   21.4190 H   0  0  0  0  0  0  0  0  0  0  0  0
  -25.4610  -13.5540   20.3580 C   0  0  0  0  0  0  0  0  0  0  0  0
  -24.4030  -12.8240   20.8320 C   0  0  0  0  0  0  0  0  0  0  0  0
  -24.7610  -11.4520   20.6560 C   0  0  0  0  0  0  0  0  0  0  0  0
  -26.4010  -12.6290   19.9310 N   0  0  0  0  0  0  0  0  0  0  0  0
  -25.9900  -11.3570   20.1630 N   0  0  0  0  0  0  0  0  0  0  0  0
  -23.9850  -10.2260   20.8770 C   0  0  0  0  0  0  0  0  0  0  0  0
  -24.3970   -9.2440   21.8050 C   0  0  0  0  0  3  0  0  0  0  0  0
  -23.6200   -8.0810   22.0090 C   0  0  0  0  0  3  0  0  0  0  0  0
  -22.4190   -7.8950   21.2870 C   0  0  0  0  0  0  0  0  0  0  0  0
  -22.0250   -8.8640   20.3480 C   0  0  0  0  0  3  0  0  0  0  0  0
  -22.8010  -10.0170   20.1410 C   0  0  0  0  0  3  0  0  0  0  0  0
  -21.6150   -6.7850   21.4020 O   0  0  0  0  0  0  0  0  0  0  0  0
  -21.4800   -6.1170   22.5920 C   0  0  0  0  0  0  0  0  0  0  0  0
  -21.0110   -6.7560   23.7600 C   0  0  0  0  0  3  0  0  0  0  0  0
  -20.8200   -6.0140   24.9410 C   0  0  0  0  0  3  0  0  0  0  0  0
  -21.0890   -4.6320   24.9570 C   0  0  0  0  0  0  0  0  0  0  0  0
  -21.5520   -3.9910   23.7940 C   0  0  0  0  0  3  0  0  0  0  0  0
  -21.7430   -4.7310   22.6140 C   0  0  0  0  0  0  0  0  0  0  0  0
  -22.1690   -4.1050   21.4900 F   0  0  0  0  0  0  0  0  0  0  0  0
  -20.8990   -3.9150   26.0900 F   0  0  0  0  0  0  0  0  0  0  0  0
  -23.0940  -13.3650   21.3290 C   0  0  0  0  0  0  0  0  0  0  0  0
  -22.4630  -12.6710   22.2710 N   0  0  0  0  0  0  0  0  0  0  0  0
  -22.6440  -14.4340   20.9190 O   0  0  0  0  0  0  0  0  0  0  0  0
  -22.8410  -11.8040   22.6250 H   0  0  0  0  0  0  0  0  0  0  0  0
  -21.5870  -13.0120   22.6430 H   0  0  0  0  0  0  0  0  0  0  0  0
  -25.6930  -14.9200   20.2420 N   0  0  0  0  0  0  0  0  0  0  0  0
  -25.0010  -15.6150   20.5040 H   0  0  0  0  0  0  0  0  0  0  0  0
  -26.5250  -15.3300   19.8330 H   0  0  0  0  0  0  0  0  0  0  0  0
  1  2  1  0
  1  3  1  0
  1 50  1  0
  4  3  1  0
  5  4  1  0
  6  5  1  0
  7  6  1  0
  8  9  1  0
  8  7  1  0
  9 11  1  0
 10 21  2  0
 11 16  1  0
 12 20  1  0
 12 22  1  0
 13 19  1  0
 13 15  1  0
 14 20  1  0
 15 14  1  0
 16 15  2  0
 17 18  1  0
 17 11  2  0
 18 13  2  0
 19 12  1  0
 20 10  1  0
 22 24  2  0
 23 22  1  0
 25 23  1  0
 26 35  2  0
 26 31  1  0
 27 23  1  0
 27 31  1  0
 28 27  1  0
 29 30  1  0
 29 28  1  0
 30 26  1  0
 31 32  2  0
 32 33  1  0
 34 33  2  0
 35 34  1  0
 36 10  1  0
 36 41  1  0
 36 37  1  0
 37 40  1  1
 37 38  1  0
 39 37  1  0
 41 44  1  0
 42 46  1  0
 42 41  1  0
 43 42  2  0
 46 45  1  0
 48 46  1  0
 48 49  1  0
 48 47  1  0
 51 50  1  0
 52 51  1  0
 53 52  1  0
 54 52  1  0
 55 52  1  0
 56 55  1  0
 57 56  1  0
 58 64  1  0
 58 66  1  0
 59 64  1  0
 60 61  1  0
 60 59  1  0
 62 61  1  0
 62 71  1  0
 62 63  1  0
 64 63  1  0
 65 58  2  0
 66 57  1  0
 66 67  1  0
 68 69  2  0
 69 88  1  0
 70 69  1  0
 70 73  1  0
 71 72  1  0
 71 68  1  0
 72 70  2  0
 73 74  1  0
 74 75  2  0
 76 79  1  0
 76 75  1  0
 77 76  2  0
 78 77  1  0
 78 73  2  0
 79 80  1  0
 80 85  2  0
 80 81  1  0
 81 82  2  0
 82 83  1  0
 83 87  1  0
 84 83  2  0
 85 84  1  0
 86 85  1  0
 88 89  1  0
 89 91  1  0
 89 92  1  0
 90 88  2  0
 93 68  1  0
 93 94  1  0
 95 93  1  0
M  ISO  4   8 101   9 101  58 100  66 100
M  END
>  <TORSDO>  (50) 
F 28

>  <SCORE>  (50) 
-6.736

>  <name>  (50) 
49

>  <ligand_id>  (50) 
49

>  <original_smiles>  (50) 
[H]c1c([H])c([H])c2c(c1[H])C([H])([H])C([H])([H])C([H])([H])C2([H])N([H])C(=O)C1([H])N(C(=O)C([H])(N([H])C(=O)C([H])(N([H])C([H])([H])[H])C([H])([H])[H])C(C([H])([H])[H])(C([H])([H])[H])C([H])([H])[H])C([H])([H])c2c([H])c(OC([H])([H])C([H])([H])C([H])([H])OC([H])([H])C([H])([H])N([H])C([H])([H])C([H])([H])[N+]([H])([H])C([H])([H])C([H])([H])C([H])([H])N([H])C(=O)N3C([H])([H])C([H])([H])C([H])([H])C([H])(n4nc(-c5c([H])c([H])c(Oc6c([H])c([H])c(F)c([H])c6F)c([H])c5[H])c(C(=O)N([H])[H])c4N([H])[H])C3([H])[H])c([H])c([H])c2C1([H])[H]

>  <smiles>  (50) 
[H]c1c([H])c([H])c2c(c1[H])C([H])([H])C([H])([H])C([H])([H])C2([H])N([H])C(=O)C1([H])N(C(=O)C([H])(N([H])C(=O)C([H])(N([H])C([H])([H])[H])C([H])([H])[H])C(C([H])([H])[H])(C([H])([H])[H])C([H])([H])[H])C([H])([H])c2c([H])c(OC([H])([H])C([H])([H])C([H])([H])OC([H])([H])C([H])([H])N([H])C([H])([H])C([H])([H])[N+]([H])([H])C([H])([H])C([H])([H])C([H])([H])N([H])C(=O)N3C([H])([H])C([H])([H])C([H])([H])C([H])(n4nc(-c5c([H])c([H])c(Oc6c([H])c([H])c(F)c([H])c6F)c([H])c5[H])c(C(=O)N([H])[H])c4N([H])[H])C3([H])[H])c([H])c([H])c2C1([H])[H]

$$$$
50:0:0
     RDKit          3D

 97104  0  0  1  0  0  0  0  0999 V2000
  -22.7790  -21.6080   17.6260 C   0  0  0  0  0  2  0  0  0  0  0  0
  -23.7240  -22.6650   17.6100 O   0  0  0  0  0  0  0  0  0  0  0  0
  -24.1600  -23.1300   18.8730 C   0  0  0  0  0  2  0  0  0  0  0  0
  -25.6480  -23.4310   18.6750 C   0  0  0  0  0  2  0  0  0  0  0  0
  -26.3790  -23.8360   19.9530 C   0  0  0  0  0  2  0  0  0  0  0  0
  -27.8980  -23.7270   19.7590 C   0  0  0  0  0  2  0  0  0  0  0  0
  -28.7140  -24.6800   20.6430 C   0  0  0  0  0  2  0  0  0  0  0  0
  -29.4940  -25.7450   19.8330 C   0  0  0  0  0  2  0  0  0  0  0  0
  -29.3050  -27.0550   20.3580 O   0  0  0  0  0  0  0  0  0  0  0  0
  -24.8650  -31.6420   23.4470 C   0  0  0  0  0  0  0  0  0  0  0  0
  -28.0470  -27.6170   20.3140 C   0  0  0  0  0  0  0  0  0  0  0  0
  -23.8610  -30.1950   21.7040 C   0  0  0  0  0  3  0  0  0  0  0  0
  -25.5080  -28.8660   20.2920 C   0  0  0  0  0  0  0  0  0  0  0  0
  -26.3420  -30.8010   21.6320 C   0  0  0  0  0  2  0  0  0  0  0  0
  -26.5830  -29.4760   20.9450 C   0  0  0  0  0  0  0  0  0  0  0  0
  -27.8510  -28.8510   20.9680 C   0  0  0  0  0  3  0  0  0  0  0  0
  -26.9490  -27.0250   19.6410 C   0  0  0  0  0  3  0  0  0  0  0  0
  -25.6840  -27.6330   19.6460 C   0  0  0  0  0  3  0  0  0  0  0  0
  -24.1810  -29.5820   20.3150 C   0  0  0  0  0  2  0  0  0  0  0  0
  -25.0360  -30.8940   22.3190 N   0  0  0  0  0  0  0  0  0  0  0  0
  -23.7460  -31.7880   23.9580 O   0  0  0  0  0  0  0  0  0  0  0  0
  -23.2800  -29.0800   22.6040 C   0  0  0  0  0  0  0  0  0  0  0  0
  -22.0390  -28.6640   22.3120 N   0  0  0  0  0  0  0  0  0  0  0  0
  -23.9480  -28.5900   23.5160 O   0  0  0  0  0  0  0  0  0  0  0  0
  -21.5490  -29.1270   21.5590 H   0  0  0  0  0  0  0  0  0  0  0  0
  -18.9330  -26.8100   22.3470 C   0  0  0  0  0  0  0  0  0  0  0  0
  -21.3100  -27.5900   22.9880 C   0  0  0  0  0  3  0  0  0  0  0  0
  -21.7890  -26.1970   22.5070 C   0  0  0  0  0  2  0  0  0  0  0  0
  -20.9430  -25.6250   21.3630 C   0  0  0  0  0  2  0  0  0  0  0  0
  -19.4820  -25.5020   21.7970 C   0  0  0  0  0  2  0  0  0  0  0  0
  -19.7950  -27.7960   22.8960 C   0  0  0  0  0  0  0  0  0  0  0  0
  -19.2450  -29.0100   23.3590 C   0  0  0  0  0  3  0  0  0  0  0  0
  -17.8600  -29.2470   23.2810 C   0  0  0  0  0  3  0  0  0  0  0  0
  -17.0090  -28.2600   22.7570 C   0  0  0  0  0  3  0  0  0  0  0  0
  -17.5420  -27.0400   22.2990 C   0  0  0  0  0  3  0  0  0  0  0  0
  -26.0640  -32.3660   24.1340 C   0  0  0  0  0  3  0  0  0  0  0  0
  -25.6650  -33.7600   24.3690 N   0  0  0  0  0  0  0  0  0  0  0  0
  -25.9790  -34.7850   23.5660 C   0  0  0  0  0  0  0  0  0  0  0  0
  -26.7070  -34.6660   22.5750 O   0  0  0  0  0  0  0  0  0  0  0  0
  -25.0290  -33.9200   25.1360 H   0  0  0  0  0  0  0  0  0  0  0  0
  -24.1580  -36.4360   23.0330 C   0  0  0  0  0  1  0  0  0  0  0  0
  -25.3870  -36.1640   23.9160 C   0  0  0  0  0  3  0  0  0  0  0  0
  -27.4230  -37.2370   24.7710 C   0  0  0  0  0  1  0  0  0  0  0  0
  -26.3560  -37.2720   23.7710 N   0  0  0  0  0  0  0  0  0  0  0  0
  -25.8880  -38.1710   23.8370 H   0  0  0  0  0  0  0  0  0  0  0  0
  -26.5150  -31.6800   25.4830 C   0  0  1  0  0  0  0  0  0  0  0  0
  -25.3440  -31.3770   26.4450 C   0  0  0  0  0  1  0  0  0  0  0  0
  -27.2510  -30.3500   25.2030 C   0  0  0  0  0  1  0  0  0  0  0  0
  -27.5180  -32.5970   26.2230 C   0  0  0  0  0  1  0  0  0  0  0  0
  -23.4370  -20.4910   16.8030 C   0  0  0  0  0  2  0  0  0  0  0  0
  -24.4100  -19.7130   17.6100 N   0  0  0  0  0  4  0  0  0  0  0  0
  -24.0150  -19.5800   18.5280 H   0  0  0  0  0  0  0  0  0  0  0  0
  -24.5200  -18.8050   17.1880 H   0  0  0  0  0  0  0  0  0  0  0  0
  -25.7600  -20.3170   17.7510 C   0  0  0  0  0  2  0  0  0  0  0  0
  -26.6740  -19.4620   18.6550 C   0  0  0  0  0  2  0  0  0  0  0  0
  -28.0740  -20.0530   18.9210 C   0  0  0  0  0  2  0  0  0  0  0  0
  -29.0530  -18.9790   19.4480 C   0  0  0  0  0  2  0  0  0  0  0  0
  -30.4530  -19.4710   19.8590 C   0  0  0  0  0  2  0  0  0  0  0  0
  -31.5070  -18.3460   19.9850 C   0  0  0  0  0  2  0  0  0  0  0  0
  -31.8700  -16.0140   20.6220 C   0  0  0  0  0  0  0  0  0  0  0  0
  -31.6800  -13.9060   19.4190 C   0  0  0  0  0  2  0  0  0  0  0  0
  -30.8670  -14.1990   18.1440 C   0  0  0  0  0  2  0  0  0  0  0  0
  -29.3610  -14.0470   18.4150 C   0  0  0  0  0  2  0  0  0  0  0  0
  -28.8950  -14.8050   19.6860 C   0  0  0  0  0  3  0  0  0  0  0  0
  -29.8400  -14.5500   20.8840 C   0  0  0  0  0  2  0  0  0  0  0  0
  -31.2140  -14.8410   20.4540 N   0  0  0  0  0  0  0  0  0  0  0  0
  -33.0780  -16.1430   20.4050 O   0  0  0  0  0  0  0  0  0  0  0  0
  -31.0840  -17.1080   20.6600 N   0  0  0  0  0  0  0  0  0  0  0  0
  -30.1010  -16.9920   20.8580 H   0  0  0  0  0  0  0  0  0  0  0  0
  -26.4050  -15.3490   20.0120 C   0  0  0  0  0  0  0  0  0  0  0  0
  -25.3220  -14.5630   20.3010 C   0  0  0  0  0  0  0  0  0  0  0  0
  -25.8350  -13.2410   20.4600 C   0  0  0  0  0  0  0  0  0  0  0  0
  -27.5030  -14.5040   20.0070 N   0  0  0  0  0  0  0  0  0  0  0  0
  -27.1560  -13.2360   20.3360 N   0  0  0  0  0  0  0  0  0  0  0  0
  -25.1380  -11.9670   20.6690 C   0  0  0  0  0  0  0  0  0  0  0  0
  -25.3810  -11.1720   21.8110 C   0  0  0  0  0  3  0  0  0  0  0  0
  -24.6850   -9.9590   21.9980 C   0  0  0  0  0  3  0  0  0  0  0  0
  -23.7350   -9.5310   21.0420 C   0  0  0  0  0  0  0  0  0  0  0  0
  -23.5150  -10.3140   19.8950 C   0  0  0  0  0  3  0  0  0  0  0  0
  -24.2100  -11.5200   19.7070 C   0  0  0  0  0  3  0  0  0  0  0  0
  -23.0260   -8.3570   21.1250 O   0  0  0  0  0  0  0  0  0  0  0  0
  -22.5330   -7.8990   22.3220 C   0  0  0  0  0  0  0  0  0  0  0  0
  -21.6420   -8.6670   23.1030 C   0  0  0  0  0  3  0  0  0  0  0  0
  -21.1090   -8.1300   24.2920 C   0  0  0  0  0  3  0  0  0  0  0  0
  -21.4570   -6.8280   24.6950 C   0  0  0  0  0  0  0  0  0  0  0  0
  -22.3420   -6.0610   23.9170 C   0  0  0  0  0  3  0  0  0  0  0  0
  -22.8790   -6.5970   22.7330 C   0  0  0  0  0  0  0  0  0  0  0  0
  -23.7140   -5.8480   21.9740 F   0  0  0  0  0  0  0  0  0  0  0  0
  -20.9380   -6.3080   25.8330 F   0  0  0  0  0  0  0  0  0  0  0  0
  -23.8870  -15.0000   20.3370 C   0  0  0  0  0  0  0  0  0  0  0  0
  -23.0810  -14.3630   21.1810 N   0  0  0  0  0  0  0  0  0  0  0  0
  -23.4810  -15.9400   19.6570 O   0  0  0  0  0  0  0  0  0  0  0  0
  -23.4240  -13.6050   21.7520 H   0  0  0  0  0  0  0  0  0  0  0  0
  -22.1120  -14.6400   21.2480 H   0  0  0  0  0  0  0  0  0  0  0  0
  -26.5480  -16.7000   19.7430 N   0  0  0  0  0  0  0  0  0  0  0  0
  -25.7730  -17.3480   19.7360 H   0  0  0  0  0  0  0  0  0  0  0  0
  -27.4310  -17.1230   19.4890 H   0  0  0  0  0  0  0  0  0  0  0  0
  2  1  1  0
  2  3  1  0
  4  3  1  0
  4  5  1  0
  6  5  1  0
  6  7  1  0
  8  9  1  0
  8  7  1  0
 10 21  2  0
 11  9  1  0
 11 16  1  0
 12 20  1  0
 12 22  1  0
 13 19  1  0
 13 15  1  0
 14 20  1  0
 15 16  2  0
 15 14  1  0
 17 18  1  0
 17 11  2  0
 18 13  2  0
 19 12  1  0
 20 10  1  0
 22 24  2  0
 23 22  1  0
 25 23  1  0
 26 31  1  0
 27 23  1  0
 28 27  1  0
 29 30  1  0
 29 28  1  0
 30 26  1  0
 31 27  1  0
 31 32  2  0
 33 32  1  0
 34 33  2  0
 35 26  2  0
 35 34  1  0
 36 10  1  0
 36 37  1  0
 36 46  1  0
 37 40  1  0
 38 42  1  0
 38 37  1  0
 39 38  2  0
 42 41  1  0
 44 45  1  0
 44 42  1  0
 44 43  1  0
 46 49  1  1
 46 47  1  0
 48 46  1  0
 50 51  1  0
 50  1  1  0
 51 54  1  0
 51 52  1  0
 53 51  1  0
 54 55  1  0
 55 56  1  0
 56 57  1  0
 57 58  1  0
 58 59  1  0
 59 68  1  0
 60 68  1  0
 61 66  1  0
 62 63  1  0
 62 61  1  0
 64 63  1  0
 64 73  1  0
 64 65  1  0
 66 60  1  0
 66 65  1  0
 67 60  2  0
 68 69  1  0
 70 71  2  0
 71 90  1  0
 71 72  1  0
 72 75  1  0
 73 70  1  0
 73 74  1  0
 74 72  2  0
 75 76  1  0
 76 77  2  0
 78 81  1  0
 78 77  1  0
 79 78  2  0
 80 79  1  0
 80 75  2  0
 81 82  1  0
 82 87  2  0
 82 83  1  0
 83 84  2  0
 84 85  1  0
 85 89  1  0
 86 85  2  0
 87 86  1  0
 88 87  1  0
 90 91  1  0
 91 94  1  0
 91 93  1  0
 92 90  2  0
 95 70  1  0
 96 95  1  0
 97 95  1  0
M  ISO  4   8 101   9 101  60 100  68 100
M  END
>  <TORSDO>  (51) 
F 31

>  <SCORE>  (51) 
-4.449

>  <name>  (51) 
50

>  <ligand_id>  (51) 
50

>  <original_smiles>  (51) 
[H]c1c([H])c([H])c2c(c1[H])C([H])([H])C([H])([H])C([H])([H])C2([H])N([H])C(=O)C1([H])N(C(=O)C([H])(N([H])C(=O)C([H])(N([H])C([H])([H])[H])C([H])([H])[H])C(C([H])([H])[H])(C([H])([H])[H])C([H])([H])[H])C([H])([H])c2c([H])c(OC([H])([H])C([H])([H])C([H])([H])C([H])([H])C([H])([H])C([H])([H])OC([H])([H])C([H])([H])[N+]([H])([H])C([H])([H])C([H])([H])C([H])([H])C([H])([H])C([H])([H])C([H])([H])N([H])C(=O)N3C([H])([H])C([H])([H])C([H])([H])C([H])(n4nc(-c5c([H])c([H])c(Oc6c([H])c([H])c(F)c([H])c6F)c([H])c5[H])c(C(=O)N([H])[H])c4N([H])[H])C3([H])[H])c([H])c([H])c2C1([H])[H]

>  <smiles>  (51) 
[H]c1c([H])c([H])c2c(c1[H])C([H])([H])C([H])([H])C([H])([H])C2([H])N([H])C(=O)C1([H])N(C(=O)C([H])(N([H])C(=O)C([H])(N([H])C([H])([H])[H])C([H])([H])[H])C(C([H])([H])[H])(C([H])([H])[H])C([H])([H])[H])C([H])([H])c2c([H])c(OC([H])([H])C([H])([H])C([H])([H])C([H])([H])C([H])([H])C([H])([H])OC([H])([H])C([H])([H])[N+]([H])([H])C([H])([H])C([H])([H])C([H])([H])C([H])([H])C([H])([H])C([H])([H])N([H])C(=O)N3C([H])([H])C([H])([H])C([H])([H])C([H])(n4nc(-c5c([H])c([H])c(Oc6c([H])c([H])c(F)c([H])c6F)c([H])c5[H])c(C(=O)N([H])[H])c4N([H])[H])C3([H])[H])c([H])c([H])c2C1([H])[H]

$$$$
51:0:0
     RDKit          3D

 99106  0  0  1  0  0  0  0  0999 V2000
  -26.0510  -23.7490   26.2160 C   0  0  0  0  0  2  0  0  0  0  0  0
  -25.0320  -23.2150   25.1950 C   0  0  0  0  0  2  0  0  0  0  0  0
  -25.2330  -23.8100   23.7860 C   0  0  0  0  0  2  0  0  0  0  0  0
  -23.9670  -23.8310   23.0170 N   0  0  0  0  0  4  0  0  0  0  0  0
  -24.0290  -23.2070   22.2270 H   0  0  0  0  0  0  0  0  0  0  0  0
  -23.2470  -23.4740   23.6230 H   0  0  0  0  0  0  0  0  0  0  0  0
  -23.5270  -25.1710   22.5700 C   0  0  0  0  0  2  0  0  0  0  0  0
  -21.9950  -25.3250   22.6510 C   0  0  0  0  0  2  0  0  0  0  0  0
  -21.5790  -26.7710   22.9670 C   0  0  0  0  0  2  0  0  0  0  0  0
  -20.0580  -26.9760   23.0720 C   0  0  0  0  0  2  0  0  0  0  0  0
  -19.7120  -28.1990   23.9390 C   0  0  0  0  0  2  0  0  0  0  0  0
  -18.4800  -28.9860   23.4720 C   0  0  0  0  0  2  0  0  0  0  0  0
  -16.2980  -28.3100   24.4530 C   0  0  0  0  0  0  0  0  0  0  0  0
  -13.8760  -28.7220   24.5770 C   0  0  0  0  0  2  0  0  0  0  0  0
  -13.0740  -27.6910   25.3830 C   0  0  0  0  0  2  0  0  0  0  0  0
  -12.6730  -26.5080   24.4870 C   0  0  0  0  0  2  0  0  0  0  0  0
  -13.8800  -25.9190   23.7140 C   0  0  0  0  0  3  0  0  0  0  0  0
  -14.6910  -27.0280   23.0060 C   0  0  0  0  0  2  0  0  0  0  0  0
  -15.0500  -28.0660   23.9890 N   0  0  0  0  0  0  0  0  0  0  0  0
  -16.5320  -28.8390   25.5450 O   0  0  0  0  0  0  0  0  0  0  0  0
  -17.2400  -28.2080   23.5060 N   0  0  0  0  0  0  0  0  0  0  0  0
  -16.9360  -27.7990   22.6350 H   0  0  0  0  0  0  0  0  0  0  0  0
  -14.0060  -23.6370   22.5280 C   0  0  0  0  0  0  0  0  0  0  0  0
  -13.1780  -23.0310   21.6220 C   0  0  0  0  0  0  0  0  0  0  0  0
  -12.1250  -23.9630   21.3630 C   0  0  0  0  0  0  0  0  0  0  0  0
  -13.4500  -24.8830   22.7770 N   0  0  0  0  0  0  0  0  0  0  0  0
  -12.3370  -25.0920   22.0280 N   0  0  0  0  0  0  0  0  0  0  0  0
  -10.8980  -23.8220   20.5680 C   0  0  0  0  0  0  0  0  0  0  0  0
  -10.5340  -24.7810   19.5970 C   0  0  0  0  0  3  0  0  0  0  0  0
   -9.3590  -24.6160   18.8320 C   0  0  0  0  0  3  0  0  0  0  0  0
   -8.5380  -23.4800   19.0320 C   0  0  0  0  0  0  0  0  0  0  0  0
   -8.8920  -22.5410   20.0150 C   0  0  0  0  0  3  0  0  0  0  0  0
  -10.0590  -22.7100   20.7790 C   0  0  0  0  0  3  0  0  0  0  0  0
   -7.3650  -23.2500   18.3530 O   0  0  0  0  0  0  0  0  0  0  0  0
   -7.1300  -23.7920   17.1160 C   0  0  0  0  0  0  0  0  0  0  0  0
   -8.0090  -23.5820   16.0300 C   0  0  0  0  0  3  0  0  0  0  0  0
   -7.6940  -24.1000   14.7590 C   0  0  0  0  0  3  0  0  0  0  0  0
   -6.5000  -24.8210   14.5670 C   0  0  0  0  0  0  0  0  0  0  0  0
   -5.6210  -25.0260   15.6450 C   0  0  0  0  0  3  0  0  0  0  0  0
   -5.9340  -24.5110   16.9140 C   0  0  0  0  0  0  0  0  0  0  0  0
   -5.0740  -24.6940   17.9440 F   0  0  0  0  0  0  0  0  0  0  0  0
   -6.1930  -25.3110   13.3440 F   0  0  0  0  0  0  0  0  0  0  0  0
  -13.3000  -21.6310   21.0930 C   0  0  0  0  0  0  0  0  0  0  0  0
  -12.8490  -21.3960   19.8670 N   0  0  0  0  0  0  0  0  0  0  0  0
  -13.8430  -20.7440   21.7530 O   0  0  0  0  0  0  0  0  0  0  0  0
  -12.4220  -22.1270   19.3170 H   0  0  0  0  0  0  0  0  0  0  0  0
  -12.9330  -20.4700   19.4690 H   0  0  0  0  0  0  0  0  0  0  0  0
  -15.1700  -23.2310   23.1750 N   0  0  0  0  0  0  0  0  0  0  0  0
  -15.5700  -22.3080   23.0470 H   0  0  0  0  0  0  0  0  0  0  0  0
  -15.6660  -23.7880   23.8590 H   0  0  0  0  0  0  0  0  0  0  0  0
  -25.4230  -24.6260   27.3210 C   0  0  0  0  0  2  0  0  0  0  0  0
  -26.3620  -25.7460   27.8110 C   0  0  0  0  0  2  0  0  0  0  0  0
  -26.7800  -26.7330   26.6990 C   0  0  0  0  0  2  0  0  0  0  0  0
  -27.7400  -27.7370   27.2020 N   0  0  0  0  0  4  0  0  0  0  0  0
  -28.1740  -27.3660   28.0310 H   0  0  0  0  0  0  0  0  0  0  0  0
  -27.2260  -28.5650   27.4650 H   0  0  0  0  0  0  0  0  0  0  0  0
  -28.8010  -28.1150   26.2360 C   0  0  0  0  0  2  0  0  0  0  0  0
  -29.5280  -29.4130   26.6280 C   0  0  0  0  0  2  0  0  0  0  0  0
  -28.6510  -30.5270   26.4710 O   0  0  0  0  0  0  0  0  0  0  0  0
  -27.1600  -30.8740   33.4430 C   0  0  0  0  0  0  0  0  0  0  0  0
  -27.7440  -30.7610   27.4750 C   0  0  0  0  0  0  0  0  0  0  0  0
  -25.2200  -30.9480   31.9050 C   0  0  0  0  0  3  0  0  0  0  0  0
  -25.7790  -31.2540   29.4370 C   0  0  0  0  0  0  0  0  0  0  0  0
  -27.5080  -31.7980   31.1600 C   0  0  0  0  0  2  0  0  0  0  0  0
  -27.1370  -31.3830   29.7560 C   0  0  0  0  0  0  0  0  0  0  0  0
  -28.1240  -31.1360   28.7830 C   0  0  0  0  0  3  0  0  0  0  0  0
  -26.3760  -30.6440   27.1620 C   0  0  0  0  0  3  0  0  0  0  0  0
  -25.3900  -30.8780   28.1380 C   0  0  0  0  0  3  0  0  0  0  0  0
  -24.7910  -31.5520   30.5420 C   0  0  0  0  0  2  0  0  0  0  0  0
  -26.6710  -31.1750   32.2060 N   0  0  0  0  0  0  0  0  0  0  0  0
  -26.4160  -30.4560   34.3400 O   0  0  0  0  0  0  0  0  0  0  0  0
  -24.8170  -29.4560   31.9270 C   0  0  0  0  0  0  0  0  0  0  0  0
  -23.5900  -29.1770   32.3930 N   0  0  0  0  0  0  0  0  0  0  0  0
  -25.5850  -28.5880   31.5020 O   0  0  0  0  0  0  0  0  0  0  0  0
  -23.0250  -29.9460   32.7240 H   0  0  0  0  0  0  0  0  0  0  0  0
  -20.6960  -27.3700   33.5730 C   0  0  0  0  0  0  0  0  0  0  0  0
  -22.9830  -27.8490   32.4730 C   0  0  0  0  0  3  0  0  0  0  0  0
  -22.3070  -27.4670   31.1370 C   0  0  0  0  0  2  0  0  0  0  0  0
  -20.8190  -27.8290   31.0880 C   0  0  0  0  0  2  0  0  0  0  0  0
  -20.0590  -27.1260   32.2160 C   0  0  0  0  0  2  0  0  0  0  0  0
  -22.0650  -27.7260   33.6930 C   0  0  0  0  0  0  0  0  0  0  0  0
  -22.5980  -27.9770   34.9760 C   0  0  0  0  0  3  0  0  0  0  0  0
  -21.7910  -27.8710   36.1250 C   0  0  0  0  0  3  0  0  0  0  0  0
  -20.4400  -27.5040   36.0020 C   0  0  0  0  0  3  0  0  0  0  0  0
  -19.8960  -27.2510   34.7300 C   0  0  0  0  0  3  0  0  0  0  0  0
  -28.6700  -31.0640   33.7970 C   0  0  0  0  0  3  0  0  0  0  0  0
  -28.7380  -31.7680   35.0840 N   0  0  0  0  0  0  0  0  0  0  0  0
  -28.9750  -33.0800   35.2210 C   0  0  0  0  0  0  0  0  0  0  0  0
  -29.2320  -33.8170   34.2650 O   0  0  0  0  0  0  0  0  0  0  0  0
  -28.4880  -31.2380   35.9040 H   0  0  0  0  0  0  0  0  0  0  0  0
  -27.5880  -34.4220   36.8330 C   0  0  0  0  0  1  0  0  0  0  0  0
  -28.9120  -33.6670   36.6440 C   0  0  0  0  0  3  0  0  0  0  0  0
  -31.3150  -33.8570   37.1130 C   0  0  0  0  0  1  0  0  0  0  0  0
  -30.0460  -34.5630   36.9580 N   0  0  0  0  0  0  0  0  0  0  0  0
  -29.8690  -35.0850   37.8130 H   0  0  0  0  0  0  0  0  0  0  0  0
  -29.4730  -29.7060   33.8550 C   0  0  1  0  0  0  0  0  0  0  0  0
  -28.7790  -28.6100   34.6970 C   0  0  0  0  0  1  0  0  0  0  0  0
  -29.6930  -29.1370   32.4330 C   0  0  0  0  0  1  0  0  0  0  0  0
  -30.8770  -29.9500   34.4570 C   0  0  0  0  0  1  0  0  0  0  0  0
  1 51  1  0
  2  1  1  0
  3  2  1  0
  4  6  1  0
  4  3  1  0
  5  4  1  0
  7  8  1  0
  7  4  1  0
  8  9  1  0
  9 10  1  0
 10 11  1  0
 12 21  1  0
 12 11  1  0
 13 20  2  0
 14 15  1  0
 16 15  1  0
 17 26  1  0
 17 16  1  0
 18 17  1  0
 18 19  1  0
 19 13  1  0
 19 14  1  0
 21 13  1  0
 22 21  1  0
 23 26  1  0
 23 48  1  0
 24 23  2  0
 25 24  1  0
 25 27  2  0
 27 26  1  0
 28 33  1  0
 28 25  1  0
 29 28  2  0
 30 31  2  0
 30 29  1  0
 31 32  1  0
 32 33  2  0
 34 31  1  0
 35 34  1  0
 36 35  2  0
 37 36  1  0
 38 37  2  0
 38 39  1  0
 39 40  2  0
 40 35  1  0
 40 41  1  0
 42 38  1  0
 43 24  1  0
 43 45  2  0
 44 43  1  0
 46 44  1  0
 47 44  1  0
 48 50  1  0
 49 48  1  0
 51 52  1  0
 53 54  1  0
 53 52  1  0
 54 56  1  0
 54 55  1  0
 57 58  1  0
 57 54  1  0
 59 58  1  0
 59 61  1  0
 60 71  2  0
 61 66  1  0
 62 72  1  0
 62 70  1  0
 63 65  1  0
 63 69  1  0
 64 70  1  0
 65 64  1  0
 66 65  2  0
 67 61  2  0
 67 68  1  0
 68 63  2  0
 69 62  1  0
 70 60  1  0
 72 73  1  0
 73 75  1  0
 74 72  2  0
 76 81  2  0
 76 85  1  0
 77 73  1  0
 77 81  1  0
 78 77  1  0
 79 78  1  0
 79 80  1  0
 80 76  1  0
 81 82  1  0
 82 83  2  0
 84 83  1  0
 85 84  2  0
 86 60  1  0
 86 96  1  0
 86 87  1  0
 87 88  1  0
 87 90  1  0
 88 92  1  0
 89 88  2  0
 92 91  1  0
 92 94  1  0
 94 93  1  0
 94 95  1  0
 96 99  1  1
 96 97  1  0
 98 96  1  0
M  ISO  4  13 100  21 100  58 101  59 101
M  END
>  <TORSDO>  (52) 
F 31

>  <SCORE>  (52) 
15.281

>  <name>  (52) 
51

>  <ligand_id>  (52) 
51

>  <original_smiles>  (52) 
[H]c1c([H])c([H])c2c(c1[H])C([H])([H])C([H])([H])C([H])([H])C2([H])N([H])C(=O)C1([H])N(C(=O)C([H])(N([H])C(=O)C([H])(N([H])C([H])([H])[H])C([H])([H])[H])C(C([H])([H])[H])(C([H])([H])[H])C([H])([H])[H])C([H])([H])c2c([H])c(OC([H])([H])C([H])([H])[N+]([H])([H])C([H])([H])C([H])([H])C([H])([H])C([H])([H])C([H])([H])C([H])([H])[N+]([H])([H])C([H])([H])C([H])([H])C([H])([H])C([H])([H])C([H])([H])C([H])([H])N([H])C(=O)N3C([H])([H])C([H])([H])C([H])([H])C([H])(n4nc(-c5c([H])c([H])c(Oc6c([H])c([H])c(F)c([H])c6F)c([H])c5[H])c(C(=O)N([H])[H])c4N([H])[H])C3([H])[H])c([H])c([H])c2C1([H])[H]

>  <smiles>  (52) 
[H]c1c([H])c([H])c2c(c1[H])C([H])([H])C([H])([H])C([H])([H])C2([H])N([H])C(=O)C1([H])N(C(=O)C([H])(N([H])C(=O)C([H])(N([H])C([H])([H])[H])C([H])([H])[H])C(C([H])([H])[H])(C([H])([H])[H])C([H])([H])[H])C([H])([H])c2c([H])c(OC([H])([H])C([H])([H])[N+]([H])([H])C([H])([H])C([H])([H])C([H])([H])C([H])([H])C([H])([H])C([H])([H])[N+]([H])([H])C([H])([H])C([H])([H])C([H])([H])C([H])([H])C([H])([H])C([H])([H])N([H])C(=O)N3C([H])([H])C([H])([H])C([H])([H])C([H])(n4nc(-c5c([H])c([H])c(Oc6c([H])c([H])c(F)c([H])c6F)c([H])c5[H])c(C(=O)N([H])[H])c4N([H])[H])C3([H])[H])c([H])c([H])c2C1([H])[H]

$$$$
52:0:0
     RDKit          3D

100107  0  0  1  0  0  0  0  0999 V2000
  -23.7950  -16.7500   24.2390 C   0  0  0  0  0  0  0  0  0  0  0  0
  -24.6820  -17.6340   23.7240 N   0  0  0  0  0  0  0  0  0  0  0  0
  -22.8740  -17.1600   24.9420 O   0  0  0  0  0  0  0  0  0  0  0  0
  -25.4110  -17.2360   23.1610 H   0  0  0  0  0  0  0  0  0  0  0  0
  -23.9890  -15.2070   24.0120 C   0  0  0  0  0  3  0  0  0  0  0  0
  -24.6070  -14.8310   22.7070 N   0  0  0  0  0  4  0  0  0  0  0  0
  -24.7180  -13.8340   22.7260 H   0  0  0  0  0  0  0  0  0  0  0  0
  -23.9560  -15.0240   21.9690 H   0  0  0  0  0  0  0  0  0  0  0  0
  -25.9220  -15.4580   22.3440 C   0  0  0  0  0  2  0  0  0  0  0  0
  -26.8250  -14.5280   21.5140 C   0  0  0  0  0  2  0  0  0  0  0  0
  -27.8810  -15.2690   20.6090 C   0  0  0  0  0  2  0  0  0  0  0  0
  -29.9650  -13.9580   19.8670 C   0  0  0  0  0  0  0  0  0  0  0  0
  -30.2660  -11.5170   19.4170 C   0  0  0  0  0  2  0  0  0  0  0  0
  -29.3660  -11.0060   18.2650 C   0  0  0  0  0  2  0  0  0  0  0  0
  -27.8930  -10.8160   18.7160 C   0  0  0  0  0  2  0  0  0  0  0  0
  -27.3390  -12.0010   19.5390 C   0  0  0  0  0  3  0  0  0  0  0  0
  -28.3670  -12.1910   20.6830 C   0  0  0  0  0  2  0  0  0  0  0  0
  -29.6190  -12.6520   20.0600 N   0  0  0  0  0  0  0  0  0  0  0  0
  -30.9720  -14.2560   19.2160 O   0  0  0  0  0  0  0  0  0  0  0  0
  -29.3170  -14.8510   20.6520 N   0  0  0  0  0  0  0  0  0  0  0  0
  -29.9030  -15.6570   20.8280 H   0  0  0  0  0  0  0  0  0  0  0  0
  -24.9010  -12.5840   20.1980 C   0  0  0  0  0  0  0  0  0  0  0  0
  -23.8540  -11.8030   20.6230 C   0  0  0  0  0  0  0  0  0  0  0  0
  -24.3800  -10.4760   20.7270 C   0  0  0  0  0  0  0  0  0  0  0  0
  -25.9770  -11.7410   20.0210 N   0  0  0  0  0  0  0  0  0  0  0  0
  -25.6670  -10.4750   20.4030 N   0  0  0  0  0  0  0  0  0  0  0  0
  -23.7340   -9.1930   21.0080 C   0  0  0  0  0  0  0  0  0  0  0  0
  -24.2100   -8.3420   22.0280 C   0  0  0  0  0  3  0  0  0  0  0  0
  -23.5470   -7.1290   22.2900 C   0  0  0  0  0  3  0  0  0  0  0  0
  -22.4150   -6.7540   21.5190 C   0  0  0  0  0  0  0  0  0  0  0  0
  -21.9870   -7.5970   20.4750 C   0  0  0  0  0  3  0  0  0  0  0  0
  -22.6170   -8.8240   20.2350 C   0  0  0  0  0  3  0  0  0  0  0  0
  -21.6890   -5.6050   21.7190 O   0  0  0  0  0  0  0  0  0  0  0  0
  -21.6720   -4.9740   22.9450 C   0  0  0  0  0  0  0  0  0  0  0  0
  -21.1070   -5.5680   24.0880 C   0  0  0  0  0  3  0  0  0  0  0  0
  -21.0610   -4.8430   25.3050 C   0  0  0  0  0  3  0  0  0  0  0  0
  -21.5490   -3.5210   25.3570 C   0  0  0  0  0  0  0  0  0  0  0  0
  -22.1130   -2.9390   24.2070 C   0  0  0  0  0  3  0  0  0  0  0  0
  -22.1640   -3.6650   23.0050 C   0  0  0  0  0  0  0  0  0  0  0  0
  -22.6920   -3.0910   21.8960 F   0  0  0  0  0  0  0  0  0  0  0  0
  -21.4930   -2.8200   26.5130 F   0  0  0  0  0  0  0  0  0  0  0  0
  -22.4250  -12.2620   20.7760 C   0  0  0  0  0  0  0  0  0  0  0  0
  -21.5940  -11.6090   21.5850 N   0  0  0  0  0  0  0  0  0  0  0  0
  -22.0210  -13.2550   20.1790 O   0  0  0  0  0  0  0  0  0  0  0  0
  -20.6200  -11.8800   21.5720 H   0  0  0  0  0  0  0  0  0  0  0  0
  -21.8740  -10.8130   22.1420 H   0  0  0  0  0  0  0  0  0  0  0  0
  -25.0410  -13.9350   19.9250 N   0  0  0  0  0  0  0  0  0  0  0  0
  -24.2290  -14.5280   19.9040 H   0  0  0  0  0  0  0  0  0  0  0  0
  -25.8720  -14.3910   19.6080 H   0  0  0  0  0  0  0  0  0  0  0  0
  -23.0670  -13.0720   25.2110 C   0  0  0  0  0  1  0  0  0  0  0  0
  -21.8460  -13.8590   23.1970 C   0  0  0  0  0  1  0  0  0  0  0  0
  -22.7250  -14.3170   24.3710 C   0  0  0  0  0  3  0  0  0  0  0  0
  -24.8930  -19.0420   24.1850 C   0  0  0  0  0  3  0  0  0  0  0  0
  -25.2300  -20.1080   23.0860 C   0  0  0  0  0  3  0  0  0  0  0  0
  -25.1220  -21.6120   23.5150 C   0  0  0  0  0  2  0  0  0  0  0  0
  -25.9720  -22.5170   22.7410 O   0  0  0  0  0  0  0  0  0  0  0  0
  -25.3780  -23.7470   22.2640 C   0  0  0  0  0  2  0  0  0  0  0  0
  -26.3370  -24.9700   21.9580 C   0  0  0  0  0  2  0  0  0  0  0  0
  -27.0060  -25.0800   20.5270 C   0  0  0  0  0  2  0  0  0  0  0  0
  -27.4730  -26.3970   20.0200 O   0  0  0  0  0  0  0  0  0  0  0  0
  -24.3960  -31.8990   23.1270 C   0  0  0  0  0  0  0  0  0  0  0  0
  -26.4810  -27.3390   19.8600 C   0  0  0  0  0  0  0  0  0  0  0  0
  -23.0070  -30.6360   21.5190 C   0  0  0  0  0  3  0  0  0  0  0  0
  -24.2650  -29.0750   19.9530 C   0  0  0  0  0  0  0  0  0  0  0  0
  -25.5340  -30.8450   21.1770 C   0  0  0  0  0  2  0  0  0  0  0  0
  -25.4900  -29.4920   20.4870 C   0  0  0  0  0  0  0  0  0  0  0  0
  -26.6110  -28.6290   20.4340 C   0  0  0  0  0  3  0  0  0  0  0  0
  -25.2630  -26.9800   19.2400 C   0  0  0  0  0  3  0  0  0  0  0  0
  -24.1520  -27.8290   19.3170 C   0  0  0  0  0  3  0  0  0  0  0  0
  -23.0880  -30.0120   20.1030 C   0  0  0  0  0  2  0  0  0  0  0  0
  -24.3350  -31.1380   21.9990 N   0  0  0  0  0  0  0  0  0  0  0  0
  -23.3690  -32.2140   23.7400 O   0  0  0  0  0  0  0  0  0  0  0  0
  -22.3550  -29.6190   22.4840 C   0  0  0  0  0  0  0  0  0  0  0  0
  -21.0220  -29.4740   22.3970 N   0  0  0  0  0  0  0  0  0  0  0  0
  -23.0450  -28.9670   23.2720 O   0  0  0  0  0  0  0  0  0  0  0  0
  -20.5260  -30.0540   21.7360 H   0  0  0  0  0  0  0  0  0  0  0  0
  -17.6430  -28.3180   22.9530 C   0  0  0  0  0  0  0  0  0  0  0  0
  -20.2090  -28.5440   23.1820 C   0  0  0  0  0  3  0  0  0  0  0  0
  -20.2800  -27.1090   22.6110 C   0  0  0  0  0  2  0  0  0  0  0  0
  -19.1600  -26.7990   21.6120 C   0  0  0  0  0  2  0  0  0  0  0  0
  -17.7900  -26.9660   22.2780 C   0  0  0  0  0  2  0  0  0  0  0  0
  -18.7790  -29.0660   23.3640 C   0  0  0  0  0  0  0  0  0  0  0  0
  -18.5850  -30.3310   23.9580 C   0  0  0  0  0  3  0  0  0  0  0  0
  -17.2900  -30.8510   24.1420 C   0  0  0  0  0  3  0  0  0  0  0  0
  -16.1690  -30.1010   23.7420 C   0  0  0  0  0  3  0  0  0  0  0  0
  -16.3460  -28.8350   23.1540 C   0  0  0  0  0  3  0  0  0  0  0  0
  -25.7520  -32.4310   23.6840 C   0  0  0  0  0  3  0  0  0  0  0  0
  -25.5340  -33.8220   24.1130 N   0  0  0  0  0  0  0  0  0  0  0  0
  -25.9000  -34.9010   23.4080 C   0  0  0  0  0  0  0  0  0  0  0  0
  -26.5210  -34.8240   22.3460 O   0  0  0  0  0  0  0  0  0  0  0  0
  -24.9740  -33.9590   24.9410 H   0  0  0  0  0  0  0  0  0  0  0  0
  -24.2790  -36.8170   23.2160 C   0  0  0  0  0  1  0  0  0  0  0  0
  -25.5080  -36.2810   23.9680 C   0  0  0  0  0  3  0  0  0  0  0  0
  -27.7080  -36.9770   24.8020 C   0  0  0  0  0  1  0  0  0  0  0  0
  -26.5990  -37.2720   23.9020 N   0  0  0  0  0  0  0  0  0  0  0  0
  -26.2550  -38.2030   24.1150 H   0  0  0  0  0  0  0  0  0  0  0  0
  -26.3170  -31.5660   24.8770 C   0  0  1  0  0  0  0  0  0  0  0  0
  -25.2890  -31.3160   26.0040 C   0  0  0  0  0  1  0  0  0  0  0  0
  -26.8110  -30.1880   24.3690 C   0  0  0  0  0  1  0  0  0  0  0  0
  -27.5390  -32.2750   25.5050 C   0  0  0  0  0  1  0  0  0  0  0  0
  1  3  2  0
  2 53  1  0
  2  1  1  0
  4  2  1  0
  5  1  1  0
  5 52  1  0
  6  7  1  0
  6  5  1  0
  8  6  1  0
  9  6  1  0
 10  9  1  0
 11 20  1  0
 11 10  1  0
 12 18  1  0
 12 20  1  0
 13 18  1  0
 14 15  1  0
 14 13  1  0
 16 15  1  0
 16 25  1  0
 16 17  1  0
 18 17  1  0
 19 12  2  0
 20 21  1  0
 22 23  2  0
 23 24  1  0
 23 42  1  0
 24 27  1  0
 25 22  1  0
 25 26  1  0
 26 24  2  0
 27 28  1  0
 28 29  2  0
 30 33  1  0
 30 29  1  0
 31 30  2  0
 32 31  1  0
 32 27  2  0
 33 34  1  0
 34 39  2  0
 34 35  1  0
 35 36  2  0
 36 37  1  0
 37 41  1  0
 38 37  2  0
 39 38  1  0
 40 39  1  0
 42 43  1  0
 43 46  1  0
 44 42  2  0
 45 43  1  0
 47 22  1  0
 48 47  1  0
 49 47  1  0
 51 52  1  0
 52 50  1  0
 54 55  1  0
 54 53  2  0
 56 55  1  0
 57 56  1  0
 58 57  1  0
 59 58  1  0
 60 59  1  0
 61 72  2  0
 62 60  1  0
 62 67  1  0
 63 71  1  0
 63 73  1  0
 64 70  1  0
 64 66  1  0
 65 71  1  0
 66 65  1  0
 67 66  2  0
 68 69  1  0
 68 62  2  0
 69 64  2  0
 70 63  1  0
 71 61  1  0
 73 75  2  0
 74 73  1  0
 76 74  1  0
 77 86  2  0
 77 82  1  0
 78 74  1  0
 78 82  1  0
 79 78  1  0
 80 81  1  0
 80 79  1  0
 81 77  1  0
 82 83  2  0
 83 84  1  0
 85 84  2  0
 86 85  1  0
 87 61  1  0
 87 88  1  0
 87 97  1  0
 88 91  1  0
 89 93  1  0
 89 88  1  0
 90 89  2  0
 93 92  1  0
 95 93  1  0
 95 96  1  0
 95 94  1  0
 97100  1  1
 97 98  1  0
 99 97  1  0
M  ISO  4  12 100  20 100  59 101  60 101
M  END
>  <TORSDO>  (53) 
F 29

>  <SCORE>  (53) 
44.292

>  <name>  (53) 
52

>  <ligand_id>  (53) 
52

>  <original_smiles>  (53) 
[H]c1c([H])c([H])c2c(c1[H])C([H])([H])C([H])([H])C([H])([H])C2([H])N([H])C(=O)C1([H])N(C(=O)C([H])(N([H])C(=O)C([H])(N([H])C([H])([H])[H])C([H])([H])[H])C(C([H])([H])[H])(C([H])([H])[H])C([H])([H])[H])C([H])([H])c2c([H])c(OC([H])([H])C([H])([H])C([H])([H])OC([H])([H])C([H])([H])C([H])([H])N([H])C(=O)C([H])(C([H])(C([H])([H])[H])C([H])([H])[H])[N+]([H])([H])C([H])([H])C([H])([H])C([H])([H])N([H])C(=O)N3C([H])([H])C([H])([H])C([H])([H])C([H])(n4nc(-c5c([H])c([H])c(Oc6c([H])c([H])c(F)c([H])c6F)c([H])c5[H])c(C(=O)N([H])[H])c4N([H])[H])C3([H])[H])c([H])c([H])c2C1([H])[H]

>  <smiles>  (53) 
[H]c1c([H])c([H])c2c(c1[H])C([H])([H])C([H])([H])C([H])([H])C2([H])N([H])C(=O)C1([H])N(C(=O)C([H])(N([H])C(=O)C([H])(N([H])C([H])([H])[H])C([H])([H])[H])C(C([H])([H])[H])(C([H])([H])[H])C([H])([H])[H])C([H])([H])c2c([H])c(OC([H])([H])C([H])([H])C([H])([H])OC([H])([H])C([H])([H])C([H])([H])N([H])C(=O)C([H])(C([H])(C([H])([H])[H])C([H])([H])[H])[N+]([H])([H])C([H])([H])C([H])([H])C([H])([H])N([H])C(=O)N3C([H])([H])C([H])([H])C([H])([H])C([H])(n4nc(-c5c([H])c([H])c(Oc6c([H])c([H])c(F)c([H])c6F)c([H])c5[H])c(C(=O)N([H])[H])c4N([H])[H])C3([H])[H])c([H])c([H])c2C1([H])[H]

$$$$
53:0:0
     RDKit          3D

 92 99  0  0  1  0  0  0  0  0999 V2000
  -27.6520  -21.4570   21.9830 C   0  0  0  0  0  2  0  0  0  0  0  0
  -27.4050  -22.9760   21.9110 C   0  0  0  0  0  2  0  0  0  0  0  0
  -28.6920  -23.8020   22.0840 C   0  0  0  0  0  2  0  0  0  0  0  0
  -28.5090  -25.3020   21.7870 C   0  0  0  0  0  2  0  0  0  0  0  0
  -28.7960  -25.6700   20.3150 C   0  0  0  0  0  2  0  0  0  0  0  0
  -28.7650  -27.0850   20.1200 O   0  0  0  0  0  0  0  0  0  0  0  0
  -24.6860  -31.8880   23.3770 C   0  0  0  0  0  0  0  0  0  0  0  0
  -27.5440  -27.7210   20.1380 C   0  0  0  0  0  0  0  0  0  0  0  0
  -23.5830  -30.5400   21.6440 C   0  0  0  0  0  3  0  0  0  0  0  0
  -25.0990  -29.1310   20.1650 C   0  0  0  0  0  0  0  0  0  0  0  0
  -26.0850  -30.9960   21.5150 C   0  0  0  0  0  2  0  0  0  0  0  0
  -26.2250  -29.6690   20.8000 C   0  0  0  0  0  0  0  0  0  0  0  0
  -27.4510  -28.9760   20.7780 C   0  0  0  0  0  3  0  0  0  0  0  0
  -26.4000  -27.1830   19.5050 C   0  0  0  0  0  3  0  0  0  0  0  0
  -25.1810  -27.8880   19.5130 C   0  0  0  0  0  3  0  0  0  0  0  0
  -23.8290  -29.9440   20.2310 C   0  0  0  0  0  2  0  0  0  0  0  0
  -24.8030  -31.1530   22.2370 N   0  0  0  0  0  0  0  0  0  0  0  0
  -23.5820  -32.0950   23.9010 O   0  0  0  0  0  0  0  0  0  0  0  0
  -22.9460  -29.4540   22.5350 C   0  0  0  0  0  0  0  0  0  0  0  0
  -21.6370  -29.3360   22.3480 N   0  0  0  0  0  0  0  0  0  0  0  0
  -23.6060  -28.7520   23.3020 O   0  0  0  0  0  0  0  0  0  0  0  0
  -21.2390  -30.0520   21.7540 H   0  0  0  0  0  0  0  0  0  0  0  0
  -18.2500  -27.7850   22.6070 C   0  0  0  0  0  0  0  0  0  0  0  0
  -20.7110  -28.2770   22.6530 C   0  0  0  0  0  3  0  0  0  0  0  0
  -21.0310  -26.8050   22.3750 C   0  0  0  0  0  2  0  0  0  0  0  0
  -19.9740  -26.2550   21.3920 C   0  0  0  0  0  2  0  0  0  0  0  0
  -18.5330  -26.4470   21.9170 C   0  0  0  0  0  2  0  0  0  0  0  0
  -19.3020  -28.6190   23.0630 C   0  0  0  0  0  0  0  0  0  0  0  0
  -19.0120  -29.8390   23.7070 C   0  0  0  0  0  3  0  0  0  0  0  0
  -17.6760  -30.2550   23.8520 C   0  0  0  0  0  3  0  0  0  0  0  0
  -16.6310  -29.4420   23.3780 C   0  0  0  0  0  3  0  0  0  0  0  0
  -16.9170  -28.2060   22.7690 C   0  0  0  0  0  3  0  0  0  0  0  0
  -25.9320  -32.5240   24.0630 C   0  0  0  0  0  3  0  0  0  0  0  0
  -26.4210  -31.7140   25.3250 C   0  0  1  0  0  0  0  0  0  0  0  0
  -25.2960  -31.4100   26.3400 C   0  0  0  0  0  1  0  0  0  0  0  0
  -27.0510  -30.3670   24.9010 C   0  0  0  0  0  1  0  0  0  0  0  0
  -27.5280  -32.5080   26.0570 C   0  0  0  0  0  1  0  0  0  0  0  0
  -25.5770  -33.9000   24.4290 N   0  0  0  0  0  0  0  0  0  0  0  0
  -25.9120  -34.9850   23.7180 C   0  0  0  0  0  0  0  0  0  0  0  0
  -26.6220  -34.9340   22.7100 O   0  0  0  0  0  0  0  0  0  0  0  0
  -24.9500  -34.0130   25.2120 H   0  0  0  0  0  0  0  0  0  0  0  0
  -24.1590  -36.7510   23.3480 C   0  0  0  0  0  1  0  0  0  0  0  0
  -25.3700  -36.3430   24.2020 C   0  0  0  0  0  3  0  0  0  0  0  0
  -27.4430  -37.2360   25.1680 C   0  0  0  0  0  1  0  0  0  0  0  0
  -26.3840  -37.4200   24.1800 N   0  0  0  0  0  0  0  0  0  0  0  0
  -25.9510  -38.3250   24.3450 H   0  0  0  0  0  0  0  0  0  0  0  0
  -27.5960  -20.8570   20.6930 O   0  0  0  0  0  0  0  0  0  0  0  0
  -28.7880  -20.9220   19.9080 C   0  0  0  0  0  2  0  0  0  0  0  0
  -29.8130  -19.8690   20.3700 C   0  0  0  0  0  2  0  0  0  0  0  0
  -29.1060  -18.6270   20.7540 N   0  0  0  0  0  4  0  0  0  0  0  0
  -28.8310  -18.6700   21.7240 H   0  0  0  0  0  0  0  0  0  0  0  0
  -28.2420  -18.6250   20.2300 H   0  0  0  0  0  0  0  0  0  0  0  0
  -29.7860  -17.3480   20.4740 C   0  0  0  0  0  2  0  0  0  0  0  0
  -30.7940  -16.9070   21.5620 C   0  0  0  0  0  2  0  0  0  0  0  0
  -31.4130  -14.6960   20.5520 C   0  0  0  0  0  0  0  0  0  0  0  0
  -31.0970  -12.5690   19.3340 C   0  0  0  0  0  2  0  0  0  0  0  0
  -30.1740  -12.7520   18.1120 C   0  0  0  0  0  2  0  0  0  0  0  0
  -28.6910  -12.6300   18.5110 C   0  0  0  0  0  2  0  0  0  0  0  0
  -28.3420  -13.5320   19.7200 C   0  0  0  0  0  3  0  0  0  0  0  0
  -29.3490  -13.2990   20.8690 C   0  0  0  0  0  2  0  0  0  0  0  0
  -30.7190  -13.5460   20.3640 N   0  0  0  0  0  0  0  0  0  0  0  0
  -32.3880  -15.0360   19.8720 O   0  0  0  0  0  0  0  0  0  0  0  0
  -30.9200  -15.4500   21.5400 N   0  0  0  0  0  0  0  0  0  0  0  0
  -30.2570  -14.9720   22.1350 H   0  0  0  0  0  0  0  0  0  0  0  0
  -25.9560  -14.2550   20.3860 C   0  0  0  0  0  0  0  0  0  0  0  0
  -24.8500  -13.5320   20.7380 C   0  0  0  0  0  0  0  0  0  0  0  0
  -25.2490  -12.1590   20.7100 C   0  0  0  0  0  0  0  0  0  0  0  0
  -26.9650  -13.3260   20.1660 N   0  0  0  0  0  0  0  0  0  0  0  0
  -26.5390  -12.0610   20.4140 N   0  0  0  0  0  0  0  0  0  0  0  0
  -24.4670  -10.9290   20.8850 C   0  0  0  0  0  0  0  0  0  0  0  0
  -24.8110   -9.9700   21.8620 C   0  0  0  0  0  3  0  0  0  0  0  0
  -24.0370   -8.8010   22.0230 C   0  0  0  0  0  3  0  0  0  0  0  0
  -22.9000   -8.5850   21.2040 C   0  0  0  0  0  0  0  0  0  0  0  0
  -22.5760   -9.5330   20.2190 C   0  0  0  0  0  3  0  0  0  0  0  0
  -23.3510  -10.6940   20.0590 C   0  0  0  0  0  3  0  0  0  0  0  0
  -22.1050   -7.4660   21.2710 O   0  0  0  0  0  0  0  0  0  0  0  0
  -21.9130   -6.7910   22.4490 C   0  0  0  0  0  0  0  0  0  0  0  0
  -21.3840   -7.4250   23.5950 C   0  0  0  0  0  3  0  0  0  0  0  0
  -21.1390   -6.6750   24.7630 C   0  0  0  0  0  3  0  0  0  0  0  0
  -21.4120   -5.2940   24.7850 C   0  0  0  0  0  0  0  0  0  0  0  0
  -21.9340   -4.6620   23.6440 C   0  0  0  0  0  3  0  0  0  0  0  0
  -22.1810   -5.4070   22.4770 C   0  0  0  0  0  0  0  0  0  0  0  0
  -22.6640   -4.7900   21.3730 F   0  0  0  0  0  0  0  0  0  0  0  0
  -21.1680   -4.5720   25.9030 F   0  0  0  0  0  0  0  0  0  0  0  0
  -23.4680  -14.0680   20.9860 C   0  0  0  0  0  0  0  0  0  0  0  0
  -22.7040  -13.4090   21.8450 N   0  0  0  0  0  0  0  0  0  0  0  0
  -23.0810  -15.1050   20.4500 O   0  0  0  0  0  0  0  0  0  0  0  0
  -23.0310  -12.5650   22.2930 H   0  0  0  0  0  0  0  0  0  0  0  0
  -21.7790  -13.7510   22.0610 H   0  0  0  0  0  0  0  0  0  0  0  0
  -26.1830  -15.6170   20.2070 N   0  0  0  0  0  0  0  0  0  0  0  0
  -25.4020  -16.2650   20.2220 H   0  0  0  0  0  0  0  0  0  0  0  0
  -26.9860  -15.9700   19.7070 H   0  0  0  0  0  0  0  0  0  0  0  0
  2  1  1  0
  2  3  1  0
  4  3  1  0
  5  4  1  0
  6  8  1  0
  6  5  1  0
  7 18  2  0
  8 13  1  0
  9 17  1  0
  9 19  1  0
 10 16  1  0
 10 12  1  0
 11 17  1  0
 12 11  1  0
 13 12  2  0
 14 15  1  0
 14  8  2  0
 15 10  2  0
 16  9  1  0
 17  7  1  0
 19 21  2  0
 20 19  1  0
 22 20  1  0
 23 32  2  0
 23 28  1  0
 24 20  1  0
 24 28  1  0
 25 24  1  0
 26 27  1  0
 26 25  1  0
 27 23  1  0
 28 29  2  0
 29 30  1  0
 31 30  2  0
 32 31  1  0
 33  7  1  0
 33 38  1  0
 33 34  1  0
 34 37  1  1
 34 35  1  0
 36 34  1  0
 38 41  1  0
 39 43  1  0
 39 38  1  0
 40 39  2  0
 43 42  1  0
 45 43  1  0
 45 46  1  0
 45 44  1  0
 47  1  1  0
 48 49  1  0
 48 47  1  0
 49 50  1  0
 50 51  1  0
 52 50  1  0
 53 50  1  0
 53 54  1  0
 55 63  1  0
 56 61  1  0
 57 58  1  0
 57 56  1  0
 59 58  1  0
 59 68  1  0
 59 60  1  0
 61 55  1  0
 61 60  1  0
 62 55  2  0
 63 54  1  0
 63 64  1  0
 65 66  2  0
 66 85  1  0
 67 66  1  0
 67 70  1  0
 68 65  1  0
 68 69  1  0
 69 67  2  0
 70 71  1  0
 71 72  2  0
 73 76  1  0
 73 72  1  0
 74 73  2  0
 75 74  1  0
 75 70  2  0
 76 77  1  0
 77 82  2  0
 77 78  1  0
 78 79  2  0
 79 80  1  0
 80 84  1  0
 81 80  2  0
 82 81  1  0
 83 82  1  0
 85 86  1  0
 86 89  1  0
 86 88  1  0
 87 85  2  0
 90 91  1  0
 90 65  1  0
 92 90  1  0
M  ISO  4   5 101   6 101  55 100  63 100
M  END
>  <TORSDO>  (54) 
F 26

>  <SCORE>  (54) 
-10.200

>  <name>  (54) 
53

>  <ligand_id>  (54) 
53

>  <original_smiles>  (54) 
[H]c1c([H])c([H])c2c(c1[H])C([H])([H])C([H])([H])C([H])([H])C2([H])N([H])C(=O)C1([H])N(C(=O)C([H])(N([H])C(=O)C([H])(N([H])C([H])([H])[H])C([H])([H])[H])C(C([H])([H])[H])(C([H])([H])[H])C([H])([H])[H])C([H])([H])c2c([H])c(OC([H])([H])C([H])([H])C([H])([H])C([H])([H])C([H])([H])OC([H])([H])C([H])([H])[N+]([H])([H])C([H])([H])C([H])([H])N([H])C(=O)N3C([H])([H])C([H])([H])C([H])([H])C([H])(n4nc(-c5c([H])c([H])c(Oc6c([H])c([H])c(F)c([H])c6F)c([H])c5[H])c(C(=O)N([H])[H])c4N([H])[H])C3([H])[H])c([H])c([H])c2C1([H])[H]

>  <smiles>  (54) 
[H]c1c([H])c([H])c2c(c1[H])C([H])([H])C([H])([H])C([H])([H])C2([H])N([H])C(=O)C1([H])N(C(=O)C([H])(N([H])C(=O)C([H])(N([H])C([H])([H])[H])C([H])([H])[H])C(C([H])([H])[H])(C([H])([H])[H])C([H])([H])[H])C([H])([H])c2c([H])c(OC([H])([H])C([H])([H])C([H])([H])C([H])([H])C([H])([H])OC([H])([H])C([H])([H])[N+]([H])([H])C([H])([H])C([H])([H])N([H])C(=O)N3C([H])([H])C([H])([H])C([H])([H])C([H])(n4nc(-c5c([H])c([H])c(Oc6c([H])c([H])c(F)c([H])c6F)c([H])c5[H])c(C(=O)N([H])[H])c4N([H])[H])C3([H])[H])c([H])c([H])c2C1([H])[H]

$$$$
54:0:0
     RDKit          3D

 92 99  0  0  1  0  0  0  0  0999 V2000
  -25.9980  -20.4650   18.5380 C   0  0  0  0  0  2  0  0  0  0  0  0
  -26.7770  -19.7850   19.5950 N   0  0  0  0  0  4  0  0  0  0  0  0
  -27.2370  -20.5160   20.1160 H   0  0  0  0  0  0  0  0  0  0  0  0
  -26.1430  -19.3140   20.2210 H   0  0  0  0  0  0  0  0  0  0  0  0
  -27.8320  -18.8630   19.1300 C   0  0  0  0  0  2  0  0  0  0  0  0
  -28.4520  -18.0850   20.3060 C   0  0  0  0  0  2  0  0  0  0  0  0
  -29.9510  -17.7920   20.1240 C   0  0  0  0  0  2  0  0  0  0  0  0
  -30.5590  -16.9410   21.2570 C   0  0  0  0  0  2  0  0  0  0  0  0
  -30.8830  -14.5850   20.5200 C   0  0  0  0  0  0  0  0  0  0  0  0
  -30.6190  -12.4420   19.3360 C   0  0  0  0  0  2  0  0  0  0  0  0
  -29.6900  -12.6710   18.1280 C   0  0  0  0  0  2  0  0  0  0  0  0
  -28.2050  -12.5390   18.5330 C   0  0  0  0  0  2  0  0  0  0  0  0
  -27.8550  -13.3520   19.8080 C   0  0  0  0  0  3  0  0  0  0  0  0
  -28.8930  -13.0930   20.9220 C   0  0  0  0  0  2  0  0  0  0  0  0
  -30.2260  -13.4050   20.3730 N   0  0  0  0  0  0  0  0  0  0  0  0
  -31.9910  -14.8180   20.0240 O   0  0  0  0  0  0  0  0  0  0  0  0
  -30.1780  -15.5350   21.1410 N   0  0  0  0  0  0  0  0  0  0  0  0
  -29.2720  -15.2640   21.4910 H   0  0  0  0  0  0  0  0  0  0  0  0
  -25.4290  -13.9560   20.4350 C   0  0  0  0  0  0  0  0  0  0  0  0
  -24.3590  -13.1870   20.7920 C   0  0  0  0  0  0  0  0  0  0  0  0
  -24.8290  -11.8390   20.7970 C   0  0  0  0  0  0  0  0  0  0  0  0
  -26.4900  -13.0830   20.2550 N   0  0  0  0  0  0  0  0  0  0  0  0
  -26.1260  -11.8020   20.5180 N   0  0  0  0  0  0  0  0  0  0  0  0
  -24.1070  -10.5760   20.9940 C   0  0  0  0  0  0  0  0  0  0  0  0
  -24.5220   -9.6280   21.9540 C   0  0  0  0  0  3  0  0  0  0  0  0
  -23.8050   -8.4240   22.1290 C   0  0  0  0  0  3  0  0  0  0  0  0
  -22.6550   -8.1650   21.3470 C   0  0  0  0  0  0  0  0  0  0  0  0
  -22.2610   -9.1020   20.3760 C   0  0  0  0  0  3  0  0  0  0  0  0
  -22.9780  -10.2980   20.1970 C   0  0  0  0  0  3  0  0  0  0  0  0
  -21.9090   -7.0150   21.4370 O   0  0  0  0  0  0  0  0  0  0  0  0
  -21.8300   -6.2970   22.6020 C   0  0  0  0  0  0  0  0  0  0  0  0
  -21.3380   -6.8650   23.7980 C   0  0  0  0  0  3  0  0  0  0  0  0
  -21.2080   -6.0720   24.9550 C   0  0  0  0  0  3  0  0  0  0  0  0
  -21.5590   -4.7080   24.9160 C   0  0  0  0  0  0  0  0  0  0  0  0
  -22.0390   -4.1380   23.7240 C   0  0  0  0  0  3  0  0  0  0  0  0
  -22.1720   -4.9280   22.5700 C   0  0  0  0  0  0  0  0  0  0  0  0
  -22.6180   -4.3720   21.4200 F   0  0  0  0  0  0  0  0  0  0  0  0
  -21.4260   -3.9390   26.0220 F   0  0  0  0  0  0  0  0  0  0  0  0
  -22.9530  -13.6620   21.0310 C   0  0  0  0  0  0  0  0  0  0  0  0
  -22.2160  -12.9730   21.8960 N   0  0  0  0  0  0  0  0  0  0  0  0
  -22.5190  -14.6810   20.4970 O   0  0  0  0  0  0  0  0  0  0  0  0
  -22.5770  -12.1460   22.3420 H   0  0  0  0  0  0  0  0  0  0  0  0
  -21.2750  -13.2710   22.1000 H   0  0  0  0  0  0  0  0  0  0  0  0
  -25.5880  -15.3210   20.2300 N   0  0  0  0  0  0  0  0  0  0  0  0
  -24.8120  -15.9700   20.2990 H   0  0  0  0  0  0  0  0  0  0  0  0
  -26.4430  -15.7490   19.9080 H   0  0  0  0  0  0  0  0  0  0  0  0
  -25.5840  -21.8390   19.0610 C   0  0  0  0  0  2  0  0  0  0  0  0
  -26.8240  -22.5170   19.2040 O   0  0  0  0  0  0  0  0  0  0  0  0
  -26.8040  -23.6250   20.0880 C   0  0  0  0  0  2  0  0  0  0  0  0
  -28.1680  -24.3200   19.9350 C   0  0  0  0  0  2  0  0  0  0  0  0
  -28.3640  -25.5580   20.8290 C   0  0  0  0  0  2  0  0  0  0  0  0
  -28.3710  -26.7850   20.0970 O   0  0  0  0  0  0  0  0  0  0  0  0
  -24.5490  -31.8860   23.2570 C   0  0  0  0  0  0  0  0  0  0  0  0
  -27.1970  -27.4920   20.1340 C   0  0  0  0  0  0  0  0  0  0  0  0
  -23.3410  -30.4960   21.6030 C   0  0  0  0  0  3  0  0  0  0  0  0
  -24.7930  -28.9680   20.1660 C   0  0  0  0  0  0  0  0  0  0  0  0
  -25.8640  -30.8570   21.4080 C   0  0  0  0  0  2  0  0  0  0  0  0
  -25.9470  -29.4890   20.7690 C   0  0  0  0  0  0  0  0  0  0  0  0
  -27.1490  -28.7530   20.7620 C   0  0  0  0  0  3  0  0  0  0  0  0
  -26.0420  -26.9950   19.4990 C   0  0  0  0  0  3  0  0  0  0  0  0
  -24.8340  -27.7160   19.5280 C   0  0  0  0  0  3  0  0  0  0  0  0
  -23.5490  -29.8220   20.2180 C   0  0  0  0  0  2  0  0  0  0  0  0
  -24.6020  -31.0950   22.1470 N   0  0  0  0  0  0  0  0  0  0  0  0
  -23.4680  -32.1490   23.8020 O   0  0  0  0  0  0  0  0  0  0  0  0
  -22.6920  -29.4660   22.5540 C   0  0  0  0  0  0  0  0  0  0  0  0
  -21.3690  -29.2770   22.4170 N   0  0  0  0  0  0  0  0  0  0  0  0
  -23.3740  -28.8400   23.3720 O   0  0  0  0  0  0  0  0  0  0  0  0
  -20.8790  -29.8350   21.7320 H   0  0  0  0  0  0  0  0  0  0  0  0
  -17.9990  -28.0610   22.8820 C   0  0  0  0  0  0  0  0  0  0  0  0
  -20.5530  -28.3300   23.1750 C   0  0  0  0  0  3  0  0  0  0  0  0
  -20.6650  -26.9010   22.5920 C   0  0  0  0  0  2  0  0  0  0  0  0
  -19.5740  -26.5780   21.5670 C   0  0  0  0  0  2  0  0  0  0  0  0
  -18.1870  -26.7150   22.2000 C   0  0  0  0  0  2  0  0  0  0  0  0
  -19.1110  -28.8260   23.3240 C   0  0  0  0  0  0  0  0  0  0  0  0
  -18.8820  -30.0880   23.9140 C   0  0  0  0  0  3  0  0  0  0  0  0
  -17.5720  -30.5820   24.0700 C   0  0  0  0  0  3  0  0  0  0  0  0
  -16.4760  -29.8140   23.6410 C   0  0  0  0  0  3  0  0  0  0  0  0
  -16.6900  -28.5560   23.0530 C   0  0  0  0  0  3  0  0  0  0  0  0
  -25.8390  -32.5070   23.8830 C   0  0  0  0  0  3  0  0  0  0  0  0
  -26.3330  -31.7430   25.1710 C   0  0  1  0  0  0  0  0  0  0  0  0
  -25.2280  -31.5250   26.2300 C   0  0  0  0  0  1  0  0  0  0  0  0
  -26.9020  -30.3560   24.7960 C   0  0  0  0  0  1  0  0  0  0  0  0
  -27.4870  -32.5300   25.8370 C   0  0  0  0  0  1  0  0  0  0  0  0
  -25.5440  -33.9120   24.1940 N   0  0  0  0  0  0  0  0  0  0  0  0
  -25.8900  -34.9520   23.4220 C   0  0  0  0  0  0  0  0  0  0  0  0
  -26.5690  -34.8260   22.4000 O   0  0  0  0  0  0  0  0  0  0  0  0
  -24.9480  -34.0830   24.9910 H   0  0  0  0  0  0  0  0  0  0  0  0
  -24.1890  -36.7590   23.0140 C   0  0  0  0  0  1  0  0  0  0  0  0
  -25.4100  -36.3520   23.8550 C   0  0  0  0  0  3  0  0  0  0  0  0
  -27.5380  -37.2210   24.7160 C   0  0  0  0  0  1  0  0  0  0  0  0
  -26.4560  -37.3930   23.7490 N   0  0  0  0  0  0  0  0  0  0  0  0
  -26.0590  -38.3210   23.8740 H   0  0  0  0  0  0  0  0  0  0  0  0
  1 47  1  0
  1  2  1  0
  2  3  1  0
  2  4  1  0
  5  2  1  0
  5  6  1  0
  7  6  1  0
  7  8  1  0
  9 17  1  0
 10 15  1  0
 11 12  1  0
 11 10  1  0
 13 12  1  0
 13 22  1  0
 13 14  1  0
 15  9  1  0
 15 14  1  0
 16  9  2  0
 17  8  1  0
 17 18  1  0
 19 20  2  0
 20 21  1  0
 20 39  1  0
 21 24  1  0
 22 19  1  0
 22 23  1  0
 23 21  2  0
 24 25  1  0
 25 26  2  0
 27 30  1  0
 27 26  1  0
 28 27  2  0
 29 28  1  0
 29 24  2  0
 30 31  1  0
 31 32  1  0
 32 33  2  0
 34 33  1  0
 34 38  1  0
 35 34  2  0
 36 31  2  0
 36 35  1  0
 37 36  1  0
 39 40  1  0
 40 43  1  0
 40 42  1  0
 41 39  2  0
 44 45  1  0
 44 19  1  0
 46 44  1  0
 47 48  1  0
 48 49  1  0
 50 49  1  0
 50 51  1  0
 52 54  1  0
 52 51  1  0
 53 64  2  0
 54 59  1  0
 55 63  1  0
 55 65  1  0
 56 62  1  0
 56 58  1  0
 57 63  1  0
 58 57  1  0
 59 58  2  0
 60 61  1  0
 60 54  2  0
 61 56  2  0
 62 55  1  0
 63 53  1  0
 65 67  2  0
 66 65  1  0
 68 66  1  0
 69 78  2  0
 69 74  1  0
 70 66  1  0
 70 74  1  0
 71 70  1  0
 72 73  1  0
 72 71  1  0
 73 69  1  0
 74 75  2  0
 75 76  1  0
 77 76  2  0
 78 77  1  0
 79 53  1  0
 79 84  1  0
 79 80  1  0
 80 83  1  1
 80 81  1  0
 82 80  1  0
 84 87  1  0
 85 89  1  0
 85 84  1  0
 86 85  2  0
 89 88  1  0
 91 89  1  0
 91 92  1  0
 91 90  1  0
M  ISO  4   9 100  17 100  51 101  52 101
M  END
>  <TORSDO>  (55) 
F 26

>  <SCORE>  (55) 
-11.596

>  <name>  (55) 
54

>  <ligand_id>  (55) 
54

>  <original_smiles>  (55) 
[H]c1c([H])c([H])c2c(c1[H])C([H])([H])C([H])([H])C([H])([H])C2([H])N([H])C(=O)C1([H])N(C(=O)C([H])(N([H])C(=O)C([H])(N([H])C([H])([H])[H])C([H])([H])[H])C(C([H])([H])[H])(C([H])([H])[H])C([H])([H])[H])C([H])([H])c2c([H])c(OC([H])([H])C([H])([H])C([H])([H])OC([H])([H])C([H])([H])[N+]([H])([H])C([H])([H])C([H])([H])C([H])([H])C([H])([H])N([H])C(=O)N3C([H])([H])C([H])([H])C([H])([H])C([H])(n4nc(-c5c([H])c([H])c(Oc6c([H])c([H])c(F)c([H])c6F)c([H])c5[H])c(C(=O)N([H])[H])c4N([H])[H])C3([H])[H])c([H])c([H])c2C1([H])[H]

>  <smiles>  (55) 
[H]c1c([H])c([H])c2c(c1[H])C([H])([H])C([H])([H])C([H])([H])C2([H])N([H])C(=O)C1([H])N(C(=O)C([H])(N([H])C(=O)C([H])(N([H])C([H])([H])[H])C([H])([H])[H])C(C([H])([H])[H])(C([H])([H])[H])C([H])([H])[H])C([H])([H])c2c([H])c(OC([H])([H])C([H])([H])C([H])([H])OC([H])([H])C([H])([H])[N+]([H])([H])C([H])([H])C([H])([H])C([H])([H])C([H])([H])N([H])C(=O)N3C([H])([H])C([H])([H])C([H])([H])C([H])(n4nc(-c5c([H])c([H])c(Oc6c([H])c([H])c(F)c([H])c6F)c([H])c5[H])c(C(=O)N([H])[H])c4N([H])[H])C3([H])[H])c([H])c([H])c2C1([H])[H]

$$$$
55:0:0
     RDKit          3D

100107  0  0  1  0  0  0  0  0999 V2000
  -30.9910  -21.1000   16.9090 C   0  0  0  0  0  2  0  0  0  0  0  0
  -29.8760  -20.3040   16.5740 O   0  0  0  0  0  0  0  0  0  0  0  0
  -29.8630  -19.8040   15.2470 C   0  0  0  0  0  2  0  0  0  0  0  0
  -28.6760  -18.8400   15.2240 C   0  0  0  0  0  2  0  0  0  0  0  0
  -27.5640  -19.3890   16.0340 N   0  0  0  0  0  4  0  0  0  0  0  0
  -27.9560  -20.1670   16.5480 H   0  0  0  0  0  0  0  0  0  0  0  0
  -26.8500  -19.7630   15.4290 H   0  0  0  0  0  0  0  0  0  0  0  0
  -26.9630  -18.4480   17.0050 C   0  0  0  0  0  2  0  0  0  0  0  0
  -27.5900  -18.5770   18.4040 C   0  0  0  0  0  2  0  0  0  0  0  0
  -29.0290  -18.0490   18.5150 C   0  0  0  0  0  2  0  0  0  0  0  0
  -29.4260  -17.8080   19.9690 C   0  0  0  0  0  2  0  0  0  0  0  0
  -30.6160  -16.8710   20.1000 C   0  0  0  0  0  2  0  0  0  0  0  0
  -30.6160  -16.2470   21.5090 C   0  0  0  0  0  2  0  0  0  0  0  0
  -31.9470  -14.3690   20.6800 C   0  0  0  0  0  0  0  0  0  0  0  0
  -31.3350  -12.5980   19.0880 C   0  0  0  0  0  2  0  0  0  0  0  0
  -30.4220  -13.1310   17.9660 C   0  0  0  0  0  2  0  0  0  0  0  0
  -28.9420  -13.0850   18.3910 C   0  0  0  0  0  2  0  0  0  0  0  0
  -28.7020  -13.6950   19.7940 C   0  0  0  0  0  3  0  0  0  0  0  0
  -29.7240  -13.1470   20.8170 C   0  0  0  0  0  2  0  0  0  0  0  0
  -31.0820  -13.3930   20.2970 N   0  0  0  0  0  0  0  0  0  0  0  0
  -33.0460  -14.5550   20.1560 O   0  0  0  0  0  0  0  0  0  0  0  0
  -31.5730  -15.1610   21.6850 N   0  0  0  0  0  0  0  0  0  0  0  0
  -32.3690  -15.4880   22.2130 H   0  0  0  0  0  0  0  0  0  0  0  0
  -26.3110  -14.4220   20.4140 C   0  0  0  0  0  0  0  0  0  0  0  0
  -25.1900  -13.7090   20.7470 C   0  0  0  0  0  0  0  0  0  0  0  0
  -25.5790  -12.3370   20.7140 C   0  0  0  0  0  0  0  0  0  0  0  0
  -27.3200  -13.4900   20.2270 N   0  0  0  0  0  0  0  0  0  0  0  0
  -26.8750  -12.2270   20.4520 N   0  0  0  0  0  0  0  0  0  0  0  0
  -24.7760  -11.1150   20.8580 C   0  0  0  0  0  0  0  0  0  0  0  0
  -25.0660  -10.1580   21.8560 C   0  0  0  0  0  3  0  0  0  0  0  0
  -24.2640   -9.0030   21.9910 C   0  0  0  0  0  3  0  0  0  0  0  0
  -23.1630   -8.7980   21.1270 C   0  0  0  0  0  0  0  0  0  0  0  0
  -22.8920   -9.7430   20.1230 C   0  0  0  0  0  3  0  0  0  0  0  0
  -23.6930  -10.8900   19.9860 C   0  0  0  0  0  3  0  0  0  0  0  0
  -22.3480   -7.6920   21.1690 O   0  0  0  0  0  0  0  0  0  0  0  0
  -22.0670   -7.0500   22.3480 C   0  0  0  0  0  0  0  0  0  0  0  0
  -21.4480   -7.7190   23.4270 C   0  0  0  0  0  3  0  0  0  0  0  0
  -21.1140   -7.0070   24.5970 C   0  0  0  0  0  3  0  0  0  0  0  0
  -21.3870   -5.6300   24.6840 C   0  0  0  0  0  0  0  0  0  0  0  0
  -22.0010   -4.9620   23.6090 C   0  0  0  0  0  3  0  0  0  0  0  0
  -22.3370   -5.6700   22.4430 C   0  0  0  0  0  0  0  0  0  0  0  0
  -22.9090   -5.0190   21.4020 F   0  0  0  0  0  0  0  0  0  0  0  0
  -21.0600   -4.9460   25.8050 F   0  0  0  0  0  0  0  0  0  0  0  0
  -23.8140  -14.2650   20.9720 C   0  0  0  0  0  0  0  0  0  0  0  0
  -23.0130  -13.6120   21.8100 N   0  0  0  0  0  0  0  0  0  0  0  0
  -23.4560  -15.3150   20.4440 O   0  0  0  0  0  0  0  0  0  0  0  0
  -23.3140  -12.7660   22.2710 H   0  0  0  0  0  0  0  0  0  0  0  0
  -22.0900  -13.9760   22.0030 H   0  0  0  0  0  0  0  0  0  0  0  0
  -26.5400  -15.7760   20.2250 N   0  0  0  0  0  0  0  0  0  0  0  0
  -25.7400  -16.3880   20.1170 H   0  0  0  0  0  0  0  0  0  0  0  0
  -27.3620  -16.1120   19.7400 H   0  0  0  0  0  0  0  0  0  0  0  0
  -30.8130  -21.4690   18.3870 C   0  0  0  0  0  2  0  0  0  0  0  0
  -31.9030  -22.4310   18.8850 C   0  0  0  0  0  2  0  0  0  0  0  0
  -31.5820  -23.0640   20.2510 C   0  0  0  0  0  2  0  0  0  0  0  0
  -30.2440  -25.1400   19.8470 C   0  0  0  0  0  0  0  0  0  0  0  0
  -30.3500  -23.8480   20.1830 N   0  0  0  0  0  0  0  0  0  0  0  0
  -31.2260  -25.8700   19.6900 O   0  0  0  0  0  0  0  0  0  0  0  0
  -29.4860  -23.3380   20.3080 H   0  0  0  0  0  0  0  0  0  0  0  0
  -28.8210  -25.6720   19.6290 C   0  0  0  0  0  2  0  0  0  0  0  0
  -28.7090  -26.9900   20.1630 O   0  0  0  0  0  0  0  0  0  0  0  0
  -24.6040  -31.8370   23.3140 C   0  0  0  0  0  0  0  0  0  0  0  0
  -27.4730  -27.6010   20.1560 C   0  0  0  0  0  0  0  0  0  0  0  0
  -23.4700  -30.4220   21.6300 C   0  0  0  0  0  3  0  0  0  0  0  0
  -24.9990  -28.9770   20.1880 C   0  0  0  0  0  0  0  0  0  0  0  0
  -25.9780  -30.8950   21.4620 C   0  0  0  0  0  2  0  0  0  0  0  0
  -26.1250  -29.5430   20.7970 C   0  0  0  0  0  0  0  0  0  0  0  0
  -27.3590  -28.8600   20.7820 C   0  0  0  0  0  3  0  0  0  0  0  0
  -26.3230  -27.0360   19.5500 C   0  0  0  0  0  3  0  0  0  0  0  0
  -25.0920  -27.7200   19.5660 C   0  0  0  0  0  3  0  0  0  0  0  0
  -23.7170  -29.7750   20.2400 C   0  0  0  0  0  2  0  0  0  0  0  0
  -24.7010  -31.0660   22.1940 N   0  0  0  0  0  0  0  0  0  0  0  0
  -23.5080  -32.0530   23.8500 O   0  0  0  0  0  0  0  0  0  0  0  0
  -22.8560  -29.3550   22.5640 C   0  0  0  0  0  0  0  0  0  0  0  0
  -21.5530  -29.0870   22.3870 N   0  0  0  0  0  0  0  0  0  0  0  0
  -23.5500  -28.7700   23.3990 O   0  0  0  0  0  0  0  0  0  0  0  0
  -21.0520  -29.6140   21.6850 H   0  0  0  0  0  0  0  0  0  0  0  0
  -18.2570  -27.6470   22.7290 C   0  0  0  0  0  0  0  0  0  0  0  0
  -20.7720  -28.0940   23.1230 C   0  0  0  0  0  3  0  0  0  0  0  0
  -21.0080  -26.6730   22.5610 C   0  0  0  0  0  2  0  0  0  0  0  0
  -19.9840  -26.2680   21.4960 C   0  0  0  0  0  2  0  0  0  0  0  0
  -18.5650  -26.3120   22.0710 C   0  0  0  0  0  2  0  0  0  0  0  0
  -19.2940  -28.4900   23.2090 C   0  0  0  0  0  0  0  0  0  0  0  0
  -18.9550  -29.7370   23.7790 C   0  0  0  0  0  3  0  0  0  0  0  0
  -17.6110  -30.1420   23.8750 C   0  0  0  0  0  3  0  0  0  0  0  0
  -16.5870  -29.2970   23.4150 C   0  0  0  0  0  3  0  0  0  0  0  0
  -16.9110  -28.0510   22.8470 C   0  0  0  0  0  3  0  0  0  0  0  0
  -25.8590  -32.5060   23.9570 C   0  0  0  0  0  3  0  0  0  0  0  0
  -26.3660  -31.7610   25.2530 C   0  0  1  0  0  0  0  0  0  0  0  0
  -25.2540  -31.5030   26.2950 C   0  0  0  0  0  1  0  0  0  0  0  0
  -26.9960  -30.3960   24.8850 C   0  0  0  0  0  1  0  0  0  0  0  0
  -27.4800  -32.5910   25.9340 C   0  0  0  0  0  1  0  0  0  0  0  0
  -25.5090  -33.8990   24.2640 N   0  0  0  0  0  0  0  0  0  0  0  0
  -25.8530  -34.9520   23.5100 C   0  0  0  0  0  0  0  0  0  0  0  0
  -26.5680  -34.8550   22.5090 O   0  0  0  0  0  0  0  0  0  0  0  0
  -24.8770  -34.0480   25.0370 H   0  0  0  0  0  0  0  0  0  0  0  0
  -24.1140  -36.7100   23.0550 C   0  0  0  0  0  1  0  0  0  0  0  0
  -25.3170  -36.3340   23.9330 C   0  0  0  0  0  3  0  0  0  0  0  0
  -27.3840  -37.2630   24.8760 C   0  0  0  0  0  1  0  0  0  0  0  0
  -26.3350  -37.4040   23.8700 N   0  0  0  0  0  0  0  0  0  0  0  0
  -25.9060  -38.3180   23.9860 H   0  0  0  0  0  0  0  0  0  0  0  0
  1 52  1  0
  2  1  1  0
  3  2  1  0
  4  3  1  0
  4  5  1  0
  5  6  1  0
  5  8  1  0
  7  5  1  0
  8  9  1  0
  9 10  1  0
 10 11  1  0
 11 12  1  0
 12 13  1  0
 13 22  1  0
 14 22  1  0
 15 20  1  0
 16 17  1  0
 16 15  1  0
 18 17  1  0
 18 27  1  0
 18 19  1  0
 20 14  1  0
 20 19  1  0
 21 14  2  0
 22 23  1  0
 24 25  2  0
 25 44  1  0
 26 25  1  0
 26 29  1  0
 27 24  1  0
 27 28  1  0
 28 26  2  0
 29 30  1  0
 30 31  2  0
 32 35  1  0
 32 31  1  0
 33 32  2  0
 34 33  1  0
 34 29  2  0
 35 36  1  0
 36 41  2  0
 36 37  1  0
 37 38  2  0
 38 39  1  0
 39 43  1  0
 40 39  2  0
 41 40  1  0
 42 41  1  0
 44 45  1  0
 45 48  1  0
 45 47  1  0
 46 44  2  0
 49 24  1  0
 50 49  1  0
 51 49  1  0
 52 53  1  0
 53 54  1  0
 55 56  1  0
 56 54  1  0
 56 58  1  0
 57 55  2  0
 59 55  1  0
 59 60  1  0
 61 72  2  0
 62 60  1  0
 62 67  1  0
 63 71  1  0
 63 73  1  0
 64 70  1  0
 64 66  1  0
 65 71  1  0
 66 65  1  0
 67 66  2  0
 68 69  1  0
 68 62  2  0
 69 64  2  0
 70 63  1  0
 71 61  1  0
 73 75  2  0
 74 73  1  0
 76 74  1  0
 77 86  2  0
 77 82  1  0
 78 74  1  0
 78 82  1  0
 79 78  1  0
 80 81  1  0
 80 79  1  0
 81 77  1  0
 82 83  2  0
 83 84  1  0
 85 84  2  0
 86 85  1  0
 87 61  1  0
 87 92  1  0
 87 88  1  0
 88 91  1  1
 88 89  1  0
 90 88  1  0
 92 95  1  0
 93 97  1  0
 93 92  1  0
 94 93  2  0
 97 96  1  0
 99 97  1  0
 99100  1  0
 99 98  1  0
M  ISO  4  14 100  22 100  59 101  60 101
M  END
>  <TORSDO>  (56) 
F 31

>  <SCORE>  (56) 
-8.931

>  <name>  (56) 
55

>  <ligand_id>  (56) 
55

>  <original_smiles>  (56) 
[H]c1c([H])c([H])c2c(c1[H])C([H])([H])C([H])([H])C([H])([H])C2([H])N([H])C(=O)C1([H])N(C(=O)C([H])(N([H])C(=O)C([H])(N([H])C([H])([H])[H])C([H])([H])[H])C(C([H])([H])[H])(C([H])([H])[H])C([H])([H])[H])C([H])([H])c2c([H])c(OC([H])([H])C(=O)N([H])C([H])([H])C([H])([H])C([H])([H])C([H])([H])OC([H])([H])C([H])([H])[N+]([H])([H])C([H])([H])C([H])([H])C([H])([H])C([H])([H])C([H])([H])C([H])([H])N([H])C(=O)N3C([H])([H])C([H])([H])C([H])([H])C([H])(n4nc(-c5c([H])c([H])c(Oc6c([H])c([H])c(F)c([H])c6F)c([H])c5[H])c(C(=O)N([H])[H])c4N([H])[H])C3([H])[H])c([H])c([H])c2C1([H])[H]

>  <smiles>  (56) 
[H]c1c([H])c([H])c2c(c1[H])C([H])([H])C([H])([H])C([H])([H])C2([H])N([H])C(=O)C1([H])N(C(=O)C([H])(N([H])C(=O)C([H])(N([H])C([H])([H])[H])C([H])([H])[H])C(C([H])([H])[H])(C([H])([H])[H])C([H])([H])[H])C([H])([H])c2c([H])c(OC([H])([H])C(=O)N([H])C([H])([H])C([H])([H])C([H])([H])C([H])([H])OC([H])([H])C([H])([H])[N+]([H])([H])C([H])([H])C([H])([H])C([H])([H])C([H])([H])C([H])([H])C([H])([H])N([H])C(=O)N3C([H])([H])C([H])([H])C([H])([H])C([H])(n4nc(-c5c([H])c([H])c(Oc6c([H])c([H])c(F)c([H])c6F)c([H])c5[H])c(C(=O)N([H])[H])c4N([H])[H])C3([H])[H])c([H])c([H])c2C1([H])[H]

$$$$
56:0:0
     RDKit          3D

 96103  0  0  1  0  0  0  0  0999 V2000
  -30.3280  -21.9080   24.8390 C   0  0  0  0  0  2  0  0  0  0  0  0
  -29.0200  -22.7230   24.8790 C   0  0  0  0  0  2  0  0  0  0  0  0
  -29.1060  -24.0360   24.2010 N   0  0  0  0  0  4  0  0  0  0  0  0
  -29.9150  -24.5350   24.5370 H   0  0  0  0  0  0  0  0  0  0  0  0
  -28.2970  -24.5540   24.5040 H   0  0  0  0  0  0  0  0  0  0  0  0
  -29.0860  -24.0160   22.7170 C   0  0  0  0  0  2  0  0  0  0  0  0
  -28.7970  -25.4230   22.1340 C   0  0  0  0  0  2  0  0  0  0  0  0
  -28.4870  -25.4250   20.6180 C   0  0  0  0  0  2  0  0  0  0  0  0
  -28.4520  -26.7650   20.1030 O   0  0  0  0  0  0  0  0  0  0  0  0
  -24.6140  -31.8680   23.2050 C   0  0  0  0  0  0  0  0  0  0  0  0
  -27.2550  -27.4440   20.1260 C   0  0  0  0  0  0  0  0  0  0  0  0
  -23.4020  -30.4900   21.5440 C   0  0  0  0  0  3  0  0  0  0  0  0
  -24.8540  -28.9440   20.1210 C   0  0  0  0  0  0  0  0  0  0  0  0
  -25.9270  -30.8390   21.3520 C   0  0  0  0  0  2  0  0  0  0  0  0
  -26.0090  -29.4690   20.7150 C   0  0  0  0  0  0  0  0  0  0  0  0
  -27.2110  -28.7300   20.7100 C   0  0  0  0  0  3  0  0  0  0  0  0
  -26.0860  -26.9280   19.5220 C   0  0  0  0  0  3  0  0  0  0  0  0
  -24.8900  -27.6720   19.5170 C   0  0  0  0  0  3  0  0  0  0  0  0
  -23.6130  -29.8080   20.1620 C   0  0  0  0  0  2  0  0  0  0  0  0
  -24.6660  -31.0810   22.0930 N   0  0  0  0  0  0  0  0  0  0  0  0
  -23.5340  -32.1400   23.7460 O   0  0  0  0  0  0  0  0  0  0  0  0
  -22.7390  -29.4680   22.4950 C   0  0  0  0  0  0  0  0  0  0  0  0
  -21.4120  -29.3070   22.3690 N   0  0  0  0  0  0  0  0  0  0  0  0
  -23.4160  -28.8230   23.3000 O   0  0  0  0  0  0  0  0  0  0  0  0
  -20.9250  -29.8770   21.6920 H   0  0  0  0  0  0  0  0  0  0  0  0
  -18.0260  -28.1410   22.8510 C   0  0  0  0  0  0  0  0  0  0  0  0
  -20.5860  -28.3700   23.1300 C   0  0  0  0  0  3  0  0  0  0  0  0
  -20.6760  -26.9440   22.5400 C   0  0  0  0  0  2  0  0  0  0  0  0
  -19.5720  -26.6400   21.5210 C   0  0  0  0  0  2  0  0  0  0  0  0
  -18.1910  -26.7960   22.1620 C   0  0  0  0  0  2  0  0  0  0  0  0
  -19.1520  -28.8870   23.2920 C   0  0  0  0  0  0  0  0  0  0  0  0
  -18.9430  -30.1480   23.8930 C   0  0  0  0  0  3  0  0  0  0  0  0
  -17.6430  -30.6610   24.0600 C   0  0  0  0  0  3  0  0  0  0  0  0
  -16.5320  -29.9110   23.6340 C   0  0  0  0  0  3  0  0  0  0  0  0
  -16.7250  -28.6520   23.0370 C   0  0  0  0  0  3  0  0  0  0  0  0
  -25.9040  -32.4830   23.8370 C   0  0  0  0  0  3  0  0  0  0  0  0
  -25.5880  -33.8630   24.2310 N   0  0  0  0  0  0  0  0  0  0  0  0
  -25.9020  -34.9500   23.5110 C   0  0  0  0  0  0  0  0  0  0  0  0
  -26.5570  -34.8950   22.4670 O   0  0  0  0  0  0  0  0  0  0  0  0
  -25.0110  -33.9770   25.0500 H   0  0  0  0  0  0  0  0  0  0  0  0
  -24.1460  -36.7340   23.2640 C   0  0  0  0  0  1  0  0  0  0  0  0
  -25.4080  -36.3120   24.0340 C   0  0  0  0  0  3  0  0  0  0  0  0
  -27.5560  -37.1820   24.8460 C   0  0  0  0  0  1  0  0  0  0  0  0
  -26.4260  -37.3810   23.9420 N   0  0  0  0  0  0  0  0  0  0  0  0
  -26.0130  -38.2860   24.1440 H   0  0  0  0  0  0  0  0  0  0  0  0
  -26.4460  -31.6620   25.0690 C   0  0  1  0  0  0  0  0  0  0  0  0
  -25.3750  -31.3740   26.1460 C   0  0  0  0  0  1  0  0  0  0  0  0
  -27.0300  -30.3070   24.6070 C   0  0  0  0  0  1  0  0  0  0  0  0
  -27.6020  -32.4340   25.7470 C   0  0  0  0  0  1  0  0  0  0  0  0
  -30.3380  -20.7710   25.8840 C   0  0  0  0  0  2  0  0  0  0  0  0
  -31.6890  -20.0510   26.0240 C   0  0  0  0  0  2  0  0  0  0  0  0
  -31.9590  -19.2910   24.8550 O   0  0  0  0  0  0  0  0  0  0  0  0
  -32.9470  -19.8670   24.0100 C   0  0  0  0  0  2  0  0  0  0  0  0
  -32.9290  -19.1290   22.6710 C   0  0  0  0  0  2  0  0  0  0  0  0
  -31.6930  -19.4210   22.0260 O   0  0  0  0  0  0  0  0  0  0  0  0
  -31.4920  -18.7220   20.8040 C   0  0  0  0  0  2  0  0  0  0  0  0
  -30.4870  -17.5670   20.9720 C   0  0  0  0  0  2  0  0  0  0  0  0
  -30.9450  -16.4500   21.9380 C   0  0  0  0  0  2  0  0  0  0  0  0
  -30.7750  -14.3400   20.6670 C   0  0  0  0  0  0  0  0  0  0  0  0
  -30.4120  -12.2670   19.4020 C   0  0  0  0  0  2  0  0  0  0  0  0
  -29.4950  -12.5400   18.1960 C   0  0  0  0  0  2  0  0  0  0  0  0
  -28.0150  -12.4030   18.6040 C   0  0  0  0  0  2  0  0  0  0  0  0
  -27.6730  -13.2070   19.8880 C   0  0  0  0  0  3  0  0  0  0  0  0
  -28.7100  -12.9310   21.0020 C   0  0  0  0  0  2  0  0  0  0  0  0
  -30.0550  -13.2100   20.4700 N   0  0  0  0  0  0  0  0  0  0  0  0
  -31.7920  -14.6160   20.0220 O   0  0  0  0  0  0  0  0  0  0  0  0
  -30.3250  -15.1610   21.6270 N   0  0  0  0  0  0  0  0  0  0  0  0
  -29.5150  -14.8660   22.1550 H   0  0  0  0  0  0  0  0  0  0  0  0
  -25.2630  -13.8160   20.5650 C   0  0  0  0  0  0  0  0  0  0  0  0
  -24.1860  -13.0450   20.9120 C   0  0  0  0  0  0  0  0  0  0  0  0
  -24.6400  -11.6910   20.8690 C   0  0  0  0  0  0  0  0  0  0  0  0
  -26.3090  -12.9340   20.3410 N   0  0  0  0  0  0  0  0  0  0  0  0
  -25.9350  -11.6480   20.5730 N   0  0  0  0  0  0  0  0  0  0  0  0
  -23.9060  -10.4300   21.0400 C   0  0  0  0  0  0  0  0  0  0  0  0
  -24.3600   -9.4210   21.9190 C   0  0  0  0  0  3  0  0  0  0  0  0
  -23.6280   -8.2250   22.0750 C   0  0  0  0  0  3  0  0  0  0  0  0
  -22.4290   -8.0280   21.3530 C   0  0  0  0  0  0  0  0  0  0  0  0
  -21.9910   -9.0250   20.4640 C   0  0  0  0  0  3  0  0  0  0  0  0
  -22.7230  -10.2130   20.3050 C   0  0  0  0  0  3  0  0  0  0  0  0
  -21.6630   -6.8880   21.4250 O   0  0  0  0  0  0  0  0  0  0  0  0
  -21.6850   -6.0720   22.5280 C   0  0  0  0  0  0  0  0  0  0  0  0
  -21.4020   -6.5610   23.8210 C   0  0  0  0  0  3  0  0  0  0  0  0
  -21.3660   -5.6760   24.9170 C   0  0  0  0  0  3  0  0  0  0  0  0
  -21.6050   -4.3030   24.7210 C   0  0  0  0  0  0  0  0  0  0  0  0
  -21.8810   -3.8120   23.4330 C   0  0  0  0  0  3  0  0  0  0  0  0
  -21.9180   -4.6940   22.3390 C   0  0  0  0  0  0  0  0  0  0  0  0
  -22.1660   -4.2130   21.0970 F   0  0  0  0  0  0  0  0  0  0  0  0
  -21.5630   -3.4520   25.7720 F   0  0  0  0  0  0  0  0  0  0  0  0
  -22.7880  -13.5290   21.1780 C   0  0  0  0  0  0  0  0  0  0  0  0
  -22.0460  -12.8350   22.0340 N   0  0  0  0  0  0  0  0  0  0  0  0
  -22.3600  -14.5590   20.6580 O   0  0  0  0  0  0  0  0  0  0  0  0
  -22.3960  -12.0000   22.4770 H   0  0  0  0  0  0  0  0  0  0  0  0
  -21.1100  -13.1480   22.2510 H   0  0  0  0  0  0  0  0  0  0  0  0
  -25.4380  -15.1880   20.4080 N   0  0  0  0  0  0  0  0  0  0  0  0
  -24.6820  -15.8540   20.5240 H   0  0  0  0  0  0  0  0  0  0  0  0
  -26.3050  -15.6200   20.1110 H   0  0  0  0  0  0  0  0  0  0  0  0
  1  2  1  0
  1 50  1  0
  3  5  1  0
  3  4  1  0
  3  2  1  0
  6  3  1  0
  7  6  1  0
  8  7  1  0
  9 11  1  0
  9  8  1  0
 10 21  2  0
 11 16  1  0
 12 20  1  0
 12 22  1  0
 13 19  1  0
 13 15  1  0
 14 20  1  0
 15 14  1  0
 16 15  2  0
 17 11  2  0
 18 17  1  0
 18 13  2  0
 19 12  1  0
 20 10  1  0
 22 24  2  0
 23 22  1  0
 25 23  1  0
 26 35  2  0
 26 31  1  0
 27 23  1  0
 27 31  1  0
 28 27  1  0
 29 30  1  0
 29 28  1  0
 30 26  1  0
 31 32  2  0
 32 33  1  0
 34 33  2  0
 35 34  1  0
 36 10  1  0
 36 37  1  0
 36 46  1  0
 37 40  1  0
 38 42  1  0
 38 37  1  0
 39 38  2  0
 42 41  1  0
 44 42  1  0
 44 45  1  0
 44 43  1  0
 46 49  1  1
 46 47  1  0
 48 46  1  0
 50 51  1  0
 52 51  1  0
 53 52  1  0
 54 53  1  0
 55 54  1  0
 56 57  1  0
 56 55  1  0
 57 58  1  0
 59 67  1  0
 60 65  1  0
 61 62  1  0
 61 60  1  0
 63 62  1  0
 63 72  1  0
 63 64  1  0
 65 59  1  0
 65 64  1  0
 66 59  2  0
 67 58  1  0
 67 68  1  0
 69 70  2  0
 70 89  1  0
 71 70  1  0
 71 74  1  0
 72 69  1  0
 72 73  1  0
 73 71  2  0
 74 75  1  0
 75 76  2  0
 77 80  1  0
 77 76  1  0
 78 77  2  0
 79 78  1  0
 79 74  2  0
 80 81  1  0
 81 82  1  0
 82 83  2  0
 84 83  1  0
 84 88  1  0
 85 84  2  0
 86 81  2  0
 86 85  1  0
 87 86  1  0
 89 90  1  0
 90 93  1  0
 90 92  1  0
 91 89  2  0
 94 95  1  0
 94 69  1  0
 96 94  1  0
M  ISO  4   8 101   9 101  59 100  67 100
M  END
>  <TORSDO>  (57) 
F 30

>  <SCORE>  (57) 
-0.156

>  <name>  (57) 
56

>  <ligand_id>  (57) 
56

>  <original_smiles>  (57) 
[H]c1c([H])c([H])c2c(c1[H])C([H])([H])C([H])([H])C([H])([H])C2([H])N([H])C(=O)C1([H])N(C(=O)C([H])(N([H])C(=O)C([H])(N([H])C([H])([H])[H])C([H])([H])[H])C(C([H])([H])[H])(C([H])([H])[H])C([H])([H])[H])C([H])([H])c2c([H])c(OC([H])([H])C([H])([H])C([H])([H])[N+]([H])([H])C([H])([H])C([H])([H])C([H])([H])C([H])([H])OC([H])([H])C([H])([H])OC([H])([H])C([H])([H])C([H])([H])N([H])C(=O)N3C([H])([H])C([H])([H])C([H])([H])C([H])(n4nc(-c5c([H])c([H])c(Oc6c([H])c([H])c(F)c([H])c6F)c([H])c5[H])c(C(=O)N([H])[H])c4N([H])[H])C3([H])[H])c([H])c([H])c2C1([H])[H]

>  <smiles>  (57) 
[H]c1c([H])c([H])c2c(c1[H])C([H])([H])C([H])([H])C([H])([H])C2([H])N([H])C(=O)C1([H])N(C(=O)C([H])(N([H])C(=O)C([H])(N([H])C([H])([H])[H])C([H])([H])[H])C(C([H])([H])[H])(C([H])([H])[H])C([H])([H])[H])C([H])([H])c2c([H])c(OC([H])([H])C([H])([H])C([H])([H])[N+]([H])([H])C([H])([H])C([H])([H])C([H])([H])C([H])([H])OC([H])([H])C([H])([H])OC([H])([H])C([H])([H])C([H])([H])N([H])C(=O)N3C([H])([H])C([H])([H])C([H])([H])C([H])(n4nc(-c5c([H])c([H])c(Oc6c([H])c([H])c(F)c([H])c6F)c([H])c5[H])c(C(=O)N([H])[H])c4N([H])[H])C3([H])[H])c([H])c([H])c2C1([H])[H]

$$$$
57:0:0
     RDKit          3D

100107  0  0  1  0  0  0  0  0999 V2000
  -34.4280  -25.0970   20.4580 N   0  0  0  0  0  4  0  0  0  0  0  0
  -35.3840  -25.1490   20.7780 H   0  0  0  0  0  0  0  0  0  0  0  0
  -33.8780  -24.7620   21.2310 H   0  0  0  0  0  0  0  0  0  0  0  0
  -34.0000  -26.4700   20.0820 C   0  0  0  0  0  2  0  0  0  0  0  0
  -33.6240  -27.3820   21.2770 C   0  0  0  0  0  2  0  0  0  0  0  0
  -32.3560  -26.9920   22.0740 C   0  0  0  0  0  2  0  0  0  0  0  0
  -31.1100  -26.9710   21.2710 N   0  0  0  0  0  4  0  0  0  0  0  0
  -31.1500  -26.2250   20.5950 H   0  0  0  0  0  0  0  0  0  0  0  0
  -31.0210  -27.8340   20.7550 H   0  0  0  0  0  0  0  0  0  0  0  0
  -29.8790  -26.7850   22.0770 C   0  0  0  0  0  2  0  0  0  0  0  0
  -28.7500  -26.1260   21.2660 C   0  0  0  0  0  2  0  0  0  0  0  0
  -28.4690  -26.8870   20.0950 O   0  0  0  0  0  0  0  0  0  0  0  0
  -24.5960  -31.9560   23.2360 C   0  0  0  0  0  0  0  0  0  0  0  0
  -27.2910  -27.5840   20.1460 C   0  0  0  0  0  0  0  0  0  0  0  0
  -23.3960  -30.5340   21.6040 C   0  0  0  0  0  3  0  0  0  0  0  0
  -24.8640  -29.0100   20.1790 C   0  0  0  0  0  0  0  0  0  0  0  0
  -25.9090  -30.9390   21.3820 C   0  0  0  0  0  2  0  0  0  0  0  0
  -26.0120  -29.5670   20.7550 C   0  0  0  0  0  0  0  0  0  0  0  0
  -27.2310  -28.8580   20.7440 C   0  0  0  0  0  3  0  0  0  0  0  0
  -26.1340  -27.0280   19.5650 C   0  0  0  0  0  3  0  0  0  0  0  0
  -24.9160  -27.7370   19.5830 C   0  0  0  0  0  3  0  0  0  0  0  0
  -23.6050  -29.8480   20.2270 C   0  0  0  0  0  2  0  0  0  0  0  0
  -24.6520  -31.1570   22.1330 N   0  0  0  0  0  0  0  0  0  0  0  0
  -23.5170  -32.2160   23.7830 O   0  0  0  0  0  0  0  0  0  0  0  0
  -22.7680  -29.5060   22.5720 C   0  0  0  0  0  0  0  0  0  0  0  0
  -21.4450  -29.3060   22.4520 N   0  0  0  0  0  0  0  0  0  0  0  0
  -23.4650  -28.8930   23.3830 O   0  0  0  0  0  0  0  0  0  0  0  0
  -20.9440  -29.8550   21.7680 H   0  0  0  0  0  0  0  0  0  0  0  0
  -18.0890  -28.0770   22.9700 C   0  0  0  0  0  0  0  0  0  0  0  0
  -20.6450  -28.3600   23.2280 C   0  0  0  0  0  3  0  0  0  0  0  0
  -20.7590  -26.9300   22.6520 C   0  0  0  0  0  2  0  0  0  0  0  0
  -19.6550  -26.5940   21.6450 C   0  0  0  0  0  2  0  0  0  0  0  0
  -18.2750  -26.7280   22.2960 C   0  0  0  0  0  2  0  0  0  0  0  0
  -19.2030  -28.8500   23.3930 C   0  0  0  0  0  0  0  0  0  0  0  0
  -18.9750  -30.1120   23.9810 C   0  0  0  0  0  3  0  0  0  0  0  0
  -17.6670  -30.6030   24.1510 C   0  0  0  0  0  3  0  0  0  0  0  0
  -16.5670  -29.8260   23.7460 C   0  0  0  0  0  3  0  0  0  0  0  0
  -16.7800  -28.5650   23.1610 C   0  0  0  0  0  3  0  0  0  0  0  0
  -25.8810  -32.6040   23.8440 C   0  0  0  0  0  3  0  0  0  0  0  0
  -25.5600  -33.9990   24.1720 N   0  0  0  0  0  0  0  0  0  0  0  0
  -25.8860  -35.0530   23.4130 C   0  0  0  0  0  0  0  0  0  0  0  0
  -26.5610  -34.9530   22.3840 O   0  0  0  0  0  0  0  0  0  0  0  0
  -24.9590  -34.1470   24.9690 H   0  0  0  0  0  0  0  0  0  0  0  0
  -24.1500  -36.8320   23.0350 C   0  0  0  0  0  1  0  0  0  0  0  0
  -25.3800  -36.4350   23.8650 C   0  0  0  0  0  3  0  0  0  0  0  0
  -27.4990  -37.3290   24.7270 C   0  0  0  0  0  1  0  0  0  0  0  0
  -26.4050  -37.4970   23.7730 N   0  0  0  0  0  0  0  0  0  0  0  0
  -25.9900  -38.4120   23.9260 H   0  0  0  0  0  0  0  0  0  0  0  0
  -26.4230  -31.8390   25.1150 C   0  0  1  0  0  0  0  0  0  0  0  0
  -25.3480  -31.5970   26.2000 C   0  0  0  0  0  1  0  0  0  0  0  0
  -27.0060  -30.4620   24.7140 C   0  0  0  0  0  1  0  0  0  0  0  0
  -27.5790  -32.6400   25.7560 C   0  0  0  0  0  1  0  0  0  0  0  0
  -34.3500  -24.1290   19.3300 C   0  0  0  0  0  2  0  0  0  0  0  0
  -34.5400  -22.6430   19.7370 C   0  0  0  0  0  2  0  0  0  0  0  0
  -33.3210  -21.9510   20.4090 C   0  0  0  0  0  2  0  0  0  0  0  0
  -33.6170  -20.5380   20.7980 N   0  0  0  0  0  4  0  0  0  0  0  0
  -33.7860  -19.9580   19.9900 H   0  0  0  0  0  0  0  0  0  0  0  0
  -34.4800  -20.5510   21.3180 H   0  0  0  0  0  0  0  0  0  0  0  0
  -32.6400  -19.8440   21.6760 C   0  0  0  0  0  2  0  0  0  0  0  0
  -31.6210  -18.9680   20.9090 C   0  0  0  0  0  2  0  0  0  0  0  0
  -31.1110  -17.7290   21.6990 C   0  0  0  0  0  2  0  0  0  0  0  0
  -30.0240  -16.9480   20.9240 C   0  0  0  0  0  2  0  0  0  0  0  0
  -30.5730  -14.5720   20.5170 C   0  0  0  0  0  0  0  0  0  0  0  0
  -30.3030  -12.4490   19.2990 C   0  0  0  0  0  2  0  0  0  0  0  0
  -29.3650  -12.6880   18.0990 C   0  0  0  0  0  2  0  0  0  0  0  0
  -27.8880  -12.5190   18.5070 C   0  0  0  0  0  2  0  0  0  0  0  0
  -27.5320  -13.3070   19.7990 C   0  0  0  0  0  3  0  0  0  0  0  0
  -28.5860  -13.0560   20.9020 C   0  0  0  0  0  2  0  0  0  0  0  0
  -29.9190  -13.3870   20.3650 N   0  0  0  0  0  0  0  0  0  0  0  0
  -31.6240  -14.8410   19.9320 O   0  0  0  0  0  0  0  0  0  0  0  0
  -29.9250  -15.5100   21.2250 N   0  0  0  0  0  0  0  0  0  0  0  0
  -29.1200  -15.1950   21.7460 H   0  0  0  0  0  0  0  0  0  0  0  0
  -25.1030  -13.8470   20.4710 C   0  0  0  0  0  0  0  0  0  0  0  0
  -24.0540  -13.0460   20.8410 C   0  0  0  0  0  0  0  0  0  0  0  0
  -24.5580  -11.7080   20.8280 C   0  0  0  0  0  0  0  0  0  0  0  0
  -26.1800  -12.9970   20.2640 N   0  0  0  0  0  0  0  0  0  0  0  0
  -25.8510  -11.7070   20.5310 N   0  0  0  0  0  0  0  0  0  0  0  0
  -23.8700  -10.4250   21.0310 C   0  0  0  0  0  0  0  0  0  0  0  0
  -24.3200   -9.4930   21.9920 C   0  0  0  0  0  3  0  0  0  0  0  0
  -23.6350   -8.2730   22.1790 C   0  0  0  0  0  3  0  0  0  0  0  0
  -22.4890   -7.9760   21.4080 C   0  0  0  0  0  0  0  0  0  0  0  0
  -22.0570   -8.9000   20.4390 C   0  0  0  0  0  3  0  0  0  0  0  0
  -22.7420  -10.1120   20.2490 C   0  0  0  0  0  3  0  0  0  0  0  0
  -21.7690   -6.8090   21.5070 O   0  0  0  0  0  0  0  0  0  0  0  0
  -21.7230   -6.0850   22.6720 C   0  0  0  0  0  0  0  0  0  0  0  0
  -21.2410   -6.6440   23.8750 C   0  0  0  0  0  3  0  0  0  0  0  0
  -21.1450   -5.8460   25.0320 C   0  0  0  0  0  3  0  0  0  0  0  0
  -21.5170   -4.4890   24.9850 C   0  0  0  0  0  0  0  0  0  0  0  0
  -21.9900   -3.9290   23.7850 C   0  0  0  0  0  3  0  0  0  0  0  0
  -22.0880   -4.7230   22.6300 C   0  0  0  0  0  0  0  0  0  0  0  0
  -22.5250   -4.1730   21.4720 F   0  0  0  0  0  0  0  0  0  0  0  0
  -21.4170   -3.7190   26.0950 F   0  0  0  0  0  0  0  0  0  0  0  0
  -22.6400  -13.4820   21.0980 C   0  0  0  0  0  0  0  0  0  0  0  0
  -21.9250  -12.7730   21.9630 N   0  0  0  0  0  0  0  0  0  0  0  0
  -22.1770  -14.4870   20.5610 O   0  0  0  0  0  0  0  0  0  0  0  0
  -22.3130  -11.9660   22.4270 H   0  0  0  0  0  0  0  0  0  0  0  0
  -20.9760  -13.0500   22.1670 H   0  0  0  0  0  0  0  0  0  0  0  0
  -25.2310  -15.2200   20.2800 N   0  0  0  0  0  0  0  0  0  0  0  0
  -24.4490  -15.8610   20.3510 H   0  0  0  0  0  0  0  0  0  0  0  0
  -26.0860  -15.6660   19.9700 H   0  0  0  0  0  0  0  0  0  0  0  0
  1  2  1  0
  1  3  1  0
  4  1  1  0
  4  5  1  0
  5  6  1  0
  7  6  1  0
  7 10  1  0
  8  7  1  0
  9  7  1  0
 11 10  1  0
 12 14  1  0
 12 11  1  0
 13 24  2  0
 14 19  1  0
 15 23  1  0
 15 25  1  0
 16 22  1  0
 16 18  1  0
 17 23  1  0
 18 17  1  0
 19 18  2  0
 20 21  1  0
 20 14  2  0
 21 16  2  0
 22 15  1  0
 23 13  1  0
 25 27  2  0
 26 25  1  0
 28 26  1  0
 29 38  2  0
 29 34  1  0
 30 26  1  0
 30 34  1  0
 31 30  1  0
 32 33  1  0
 32 31  1  0
 33 29  1  0
 34 35  2  0
 35 36  1  0
 37 36  2  0
 38 37  1  0
 39 13  1  0
 39 40  1  0
 39 49  1  0
 40 43  1  0
 41 45  1  0
 41 40  1  0
 42 41  2  0
 45 44  1  0
 47 45  1  0
 47 48  1  0
 47 46  1  0
 49 52  1  1
 49 50  1  0
 51 49  1  0
 53 54  1  0
 53  1  1  0
 54 55  1  0
 55 56  1  0
 56 58  1  0
 56 59  1  0
 57 56  1  0
 60 59  1  0
 60 61  1  0
 62 71  1  0
 62 61  1  0
 63 71  1  0
 64 69  1  0
 65 66  1  0
 65 64  1  0
 67 66  1  0
 67 76  1  0
 67 68  1  0
 69 63  1  0
 69 68  1  0
 70 63  2  0
 71 72  1  0
 73 74  2  0
 74 93  1  0
 75 74  1  0
 75 78  1  0
 76 73  1  0
 76 77  1  0
 77 75  2  0
 78 79  1  0
 79 80  2  0
 81 84  1  0
 81 80  1  0
 82 81  2  0
 83 82  1  0
 83 78  2  0
 84 85  1  0
 85 86  1  0
 86 87  2  0
 88 87  1  0
 88 92  1  0
 89 88  2  0
 90 85  2  0
 90 89  1  0
 91 90  1  0
 93 94  1  0
 94 97  1  0
 94 96  1  0
 95 93  2  0
 98 99  1  0
 98 73  1  0
100 98  1  0
M  ISO  4  11 101  12 101  63 100  71 100
M  END
>  <TORSDO>  (58) 
F 30

>  <SCORE>  (58) 
-10.949

>  <name>  (58) 
57

>  <ligand_id>  (58) 
57

>  <original_smiles>  (58) 
[H]c1c([H])c([H])c2c(c1[H])C([H])([H])C([H])([H])C([H])([H])C2([H])N([H])C(=O)C1([H])N(C(=O)C([H])(N([H])C(=O)C([H])(N([H])C([H])([H])[H])C([H])([H])[H])C(C([H])([H])[H])(C([H])([H])[H])C([H])([H])[H])C([H])([H])c2c([H])c(OC([H])([H])C([H])([H])[N+]([H])([H])C([H])([H])C([H])([H])C([H])([H])[N+]([H])([H])C([H])([H])C([H])([H])C([H])([H])[N+]([H])([H])C([H])([H])C([H])([H])C([H])([H])C([H])([H])N([H])C(=O)N3C([H])([H])C([H])([H])C([H])([H])C([H])(n4nc(-c5c([H])c([H])c(Oc6c([H])c([H])c(F)c([H])c6F)c([H])c5[H])c(C(=O)N([H])[H])c4N([H])[H])C3([H])[H])c([H])c([H])c2C1([H])[H]

>  <smiles>  (58) 
[H]c1c([H])c([H])c2c(c1[H])C([H])([H])C([H])([H])C([H])([H])C2([H])N([H])C(=O)C1([H])N(C(=O)C([H])(N([H])C(=O)C([H])(N([H])C([H])([H])[H])C([H])([H])[H])C(C([H])([H])[H])(C([H])([H])[H])C([H])([H])[H])C([H])([H])c2c([H])c(OC([H])([H])C([H])([H])[N+]([H])([H])C([H])([H])C([H])([H])C([H])([H])[N+]([H])([H])C([H])([H])C([H])([H])C([H])([H])[N+]([H])([H])C([H])([H])C([H])([H])C([H])([H])C([H])([H])N([H])C(=O)N3C([H])([H])C([H])([H])C([H])([H])C([H])(n4nc(-c5c([H])c([H])c(Oc6c([H])c([H])c(F)c([H])c6F)c([H])c5[H])c(C(=O)N([H])[H])c4N([H])[H])C3([H])[H])c([H])c([H])c2C1([H])[H]

$$$$
58:0:0
     RDKit          3D

 97104  0  0  1  0  0  0  0  0999 V2000
  -26.8420  -22.1430   17.6950 C   0  0  0  0  0  2  0  0  0  0  0  0
  -26.5430  -23.2330   16.7360 N   0  0  0  0  0  4  0  0  0  0  0  0
  -25.5680  -23.4740   16.8150 H   0  0  0  0  0  0  0  0  0  0  0  0
  -26.6710  -22.8730   15.8030 H   0  0  0  0  0  0  0  0  0  0  0  0
  -27.3110  -24.5000   16.8420 C   0  0  0  0  0  2  0  0  0  0  0  0
  -28.7400  -24.4100   17.4400 C   0  0  0  0  0  2  0  0  0  0  0  0
  -28.8060  -24.8590   18.9160 C   0  0  0  0  0  2  0  0  0  0  0  0
  -28.9240  -26.3880   19.0550 C   0  0  0  0  0  2  0  0  0  0  0  0
  -28.4970  -26.8220   20.3480 O   0  0  0  0  0  0  0  0  0  0  0  0
  -24.6380  -31.9500   23.4250 C   0  0  0  0  0  0  0  0  0  0  0  0
  -27.3050  -27.5070   20.3800 C   0  0  0  0  0  0  0  0  0  0  0  0
  -23.4460  -30.5560   21.7690 C   0  0  0  0  0  3  0  0  0  0  0  0
  -24.9090  -29.0030   20.3740 C   0  0  0  0  0  0  0  0  0  0  0  0
  -25.9730  -30.8950   21.6090 C   0  0  0  0  0  2  0  0  0  0  0  0
  -26.0610  -29.5210   20.9820 C   0  0  0  0  0  0  0  0  0  0  0  0
  -27.2560  -28.7710   21.0000 C   0  0  0  0  0  3  0  0  0  0  0  0
  -26.1300  -26.9830   19.7930 C   0  0  0  0  0  3  0  0  0  0  0  0
  -24.9370  -27.7280   19.7850 C   0  0  0  0  0  3  0  0  0  0  0  0
  -23.6740  -29.8780   20.3920 C   0  0  0  0  0  2  0  0  0  0  0  0
  -24.7020  -31.1470   22.3260 N   0  0  0  0  0  0  0  0  0  0  0  0
  -23.5510  -32.2310   23.9480 O   0  0  0  0  0  0  0  0  0  0  0  0
  -22.7730  -29.5390   22.7180 C   0  0  0  0  0  0  0  0  0  0  0  0
  -21.4540  -29.3470   22.5500 N   0  0  0  0  0  0  0  0  0  0  0  0
  -23.4310  -28.9290   23.5640 O   0  0  0  0  0  0  0  0  0  0  0  0
  -20.9860  -29.8930   21.8410 H   0  0  0  0  0  0  0  0  0  0  0  0
  -18.0790  -28.1170   22.9350 C   0  0  0  0  0  0  0  0  0  0  0  0
  -20.6190  -28.4150   23.3070 C   0  0  0  0  0  3  0  0  0  0  0  0
  -20.7640  -26.9740   22.7660 C   0  0  0  0  0  2  0  0  0  0  0  0
  -19.7110  -26.6120   21.7160 C   0  0  0  0  0  2  0  0  0  0  0  0
  -18.3010  -26.7550   22.2970 C   0  0  0  0  0  2  0  0  0  0  0  0
  -19.1690  -28.9030   23.3950 C   0  0  0  0  0  0  0  0  0  0  0  0
  -18.9100  -30.1770   23.9480 C   0  0  0  0  0  3  0  0  0  0  0  0
  -17.5940  -30.6640   24.0470 C   0  0  0  0  0  3  0  0  0  0  0  0
  -16.5190  -29.8770   23.6000 C   0  0  0  0  0  3  0  0  0  0  0  0
  -16.7610  -28.6060   23.0510 C   0  0  0  0  0  3  0  0  0  0  0  0
  -25.9190  -32.5740   24.0630 C   0  0  0  0  0  3  0  0  0  0  0  0
  -25.6180  -33.9770   24.3820 N   0  0  0  0  0  0  0  0  0  0  0  0
  -25.9790  -35.0220   23.6290 C   0  0  0  0  0  0  0  0  0  0  0  0
  -26.6750  -34.9120   22.6140 O   0  0  0  0  0  0  0  0  0  0  0  0
  -25.0150  -34.1400   25.1750 H   0  0  0  0  0  0  0  0  0  0  0  0
  -24.2800  -36.8300   23.2230 C   0  0  0  0  0  1  0  0  0  0  0  0
  -25.4910  -36.4160   24.0730 C   0  0  0  0  0  3  0  0  0  0  0  0
  -27.6070  -37.2720   24.9690 C   0  0  0  0  0  1  0  0  0  0  0  0
  -26.5370  -37.4570   23.9940 N   0  0  0  0  0  0  0  0  0  0  0  0
  -26.1380  -38.3810   24.1350 H   0  0  0  0  0  0  0  0  0  0  0  0
  -26.4130  -31.8030   25.3490 C   0  0  1  0  0  0  0  0  0  0  0  0
  -25.3020  -31.5650   26.3980 C   0  0  0  0  0  1  0  0  0  0  0  0
  -27.0030  -30.4270   24.9610 C   0  0  0  0  0  1  0  0  0  0  0  0
  -27.5530  -32.5970   26.0320 C   0  0  0  0  0  1  0  0  0  0  0  0
  -25.9070  -20.9310   17.4800 C   0  0  0  0  0  2  0  0  0  0  0  0
  -26.4700  -19.5920   18.0110 C   0  0  0  0  0  2  0  0  0  0  0  0
  -26.3360  -19.4270   19.4810 N   0  0  0  0  0  4  0  0  0  0  0  0
  -26.6820  -20.2350   19.9710 H   0  0  0  0  0  0  0  0  0  0  0  0
  -25.3520  -19.3650   19.6920 H   0  0  0  0  0  0  0  0  0  0  0  0
  -26.9770  -18.2120   20.0390 C   0  0  0  0  0  2  0  0  0  0  0  0
  -28.5200  -18.2800   20.0490 C   0  0  0  0  0  2  0  0  0  0  0  0
  -29.1900  -16.9940   20.5590 C   0  0  0  0  0  2  0  0  0  0  0  0
  -30.7210  -17.0660   20.3930 C   0  0  0  0  0  2  0  0  0  0  0  0
  -31.5010  -15.9430   21.1020 C   0  0  0  0  0  2  0  0  0  0  0  0
  -31.3230  -13.6840   20.0350 C   0  0  0  0  0  0  0  0  0  0  0  0
  -30.8450  -11.4440   19.1100 C   0  0  0  0  0  2  0  0  0  0  0  0
  -29.8720  -11.5300   17.9180 C   0  0  0  0  0  2  0  0  0  0  0  0
  -28.4090  -11.5410   18.4030 C   0  0  0  0  0  2  0  0  0  0  0  0
  -28.1640  -12.5780   19.5290 C   0  0  0  0  0  3  0  0  0  0  0  0
  -29.2270  -12.4220   20.6380 C   0  0  0  0  0  2  0  0  0  0  0  0
  -30.5610  -12.5620   20.0210 N   0  0  0  0  0  0  0  0  0  0  0  0
  -32.3330  -13.8340   19.3400 O   0  0  0  0  0  0  0  0  0  0  0  0
  -30.9070  -14.6260   20.8900 N   0  0  0  0  0  0  0  0  0  0  0  0
  -30.1110  -14.3800   21.4590 H   0  0  0  0  0  0  0  0  0  0  0  0
  -25.8830  -13.4650   20.3400 C   0  0  0  0  0  0  0  0  0  0  0  0
  -24.7490  -12.8240   20.7560 C   0  0  0  0  0  0  0  0  0  0  0  0
  -25.0440  -11.4280   20.6980 C   0  0  0  0  0  0  0  0  0  0  0  0
  -26.8070  -12.4690   20.0620 N   0  0  0  0  0  0  0  0  0  0  0  0
  -26.3050  -11.2370   20.3340 N   0  0  0  0  0  0  0  0  0  0  0  0
  -24.1840  -10.2590   20.9160 C   0  0  0  0  0  0  0  0  0  0  0  0
  -24.5310   -9.2480   21.8400 C   0  0  0  0  0  3  0  0  0  0  0  0
  -23.6790   -8.1410   22.0440 C   0  0  0  0  0  3  0  0  0  0  0  0
  -22.4650   -8.0380   21.3240 C   0  0  0  0  0  0  0  0  0  0  0  0
  -22.1350   -9.0360   20.3900 C   0  0  0  0  0  3  0  0  0  0  0  0
  -22.9850  -10.1350   20.1840 C   0  0  0  0  0  3  0  0  0  0  0  0
  -21.5880   -6.9870   21.4370 O   0  0  0  0  0  0  0  0  0  0  0  0
  -21.4880   -6.2570   22.5950 C   0  0  0  0  0  0  0  0  0  0  0  0
  -21.1440   -6.8580   23.8260 C   0  0  0  0  0  3  0  0  0  0  0  0
  -20.9810   -6.0600   24.9760 C   0  0  0  0  0  3  0  0  0  0  0  0
  -21.1560   -4.6640   24.8970 C   0  0  0  0  0  0  0  0  0  0  0  0
  -21.4910   -4.0650   23.6710 C   0  0  0  0  0  3  0  0  0  0  0  0
  -21.6550   -4.8590   22.5230 C   0  0  0  0  0  0  0  0  0  0  0  0
  -21.9600   -4.2750   21.3400 F   0  0  0  0  0  0  0  0  0  0  0  0
  -20.9910   -3.8980   26.0010 F   0  0  0  0  0  0  0  0  0  0  0  0
  -23.4330  -13.4610   21.0940 C   0  0  0  0  0  0  0  0  0  0  0  0
  -22.6740  -12.8590   22.0000 N   0  0  0  0  0  0  0  0  0  0  0  0
  -23.0900  -14.5290   20.5850 O   0  0  0  0  0  0  0  0  0  0  0  0
  -22.9640  -11.9930   22.4310 H   0  0  0  0  0  0  0  0  0  0  0  0
  -21.7910  -13.2680   22.2700 H   0  0  0  0  0  0  0  0  0  0  0  0
  -26.2000  -14.8050   20.1480 N   0  0  0  0  0  0  0  0  0  0  0  0
  -25.5000  -15.5300   20.2430 H   0  0  0  0  0  0  0  0  0  0  0  0
  -27.0540  -15.1150   19.7070 H   0  0  0  0  0  0  0  0  0  0  0  0
  2  3  1  0
  2  5  1  0
  2  1  1  0
  4  2  1  0
  5  6  1  0
  6  7  1  0
  7  8  1  0
  8  9  1  0
  9 11  1  0
 10 21  2  0
 11 16  1  0
 12 20  1  0
 12 22  1  0
 13 19  1  0
 13 15  1  0
 14 20  1  0
 15 16  2  0
 15 14  1  0
 17 11  2  0
 18 17  1  0
 18 13  2  0
 19 12  1  0
 20 10  1  0
 22 24  2  0
 23 22  1  0
 25 23  1  0
 26 35  2  0
 26 31  1  0
 27 23  1  0
 27 31  1  0
 28 27  1  0
 29 30  1  0
 29 28  1  0
 30 26  1  0
 31 32  2  0
 32 33  1  0
 34 33  2  0
 35 34  1  0
 36 10  1  0
 36 37  1  0
 36 46  1  0
 37 40  1  0
 38 42  1  0
 38 37  1  0
 39 38  2  0
 42 41  1  0
 44 42  1  0
 44 45  1  0
 44 43  1  0
 46 49  1  1
 46 47  1  0
 48 46  1  0
 50  1  1  0
 50 51  1  0
 51 52  1  0
 52 54  1  0
 52 53  1  0
 52 55  1  0
 55 56  1  0
 56 57  1  0
 58 57  1  0
 58 59  1  0
 60 68  1  0
 61 66  1  0
 62 63  1  0
 62 61  1  0
 64 63  1  0
 64 73  1  0
 64 65  1  0
 66 60  1  0
 66 65  1  0
 67 60  2  0
 68 59  1  0
 68 69  1  0
 70 71  2  0
 71 90  1  0
 72 71  1  0
 72 75  1  0
 73 74  1  0
 73 70  1  0
 74 72  2  0
 75 76  1  0
 76 77  2  0
 78 81  1  0
 78 77  1  0
 79 78  2  0
 80 79  1  0
 80 75  2  0
 81 82  1  0
 82 83  1  0
 83 84  2  0
 85 84  1  0
 85 89  1  0
 86 85  2  0
 87 82  2  0
 87 86  1  0
 88 87  1  0
 90 91  1  0
 91 94  1  0
 91 93  1  0
 92 90  2  0
 95 96  1  0
 95 70  1  0
 97 95  1  0
M  ISO  4   8 101   9 101  60 100  68 100
M  END
>  <TORSDO>  (59) 
F 29

>  <SCORE>  (59) 
-9.496

>  <name>  (59) 
58

>  <ligand_id>  (59) 
58

>  <original_smiles>  (59) 
[H]c1c([H])c([H])c2c(c1[H])C([H])([H])C([H])([H])C([H])([H])C2([H])N([H])C(=O)C1([H])N(C(=O)C([H])(N([H])C(=O)C([H])(N([H])C([H])([H])[H])C([H])([H])[H])C(C([H])([H])[H])(C([H])([H])[H])C([H])([H])[H])C([H])([H])c2c([H])c(OC([H])([H])C([H])([H])C([H])([H])C([H])([H])[N+]([H])([H])C([H])([H])C([H])([H])C([H])([H])[N+]([H])([H])C([H])([H])C([H])([H])C([H])([H])C([H])([H])C([H])([H])N([H])C(=O)N3C([H])([H])C([H])([H])C([H])([H])C([H])(n4nc(-c5c([H])c([H])c(Oc6c([H])c([H])c(F)c([H])c6F)c([H])c5[H])c(C(=O)N([H])[H])c4N([H])[H])C3([H])[H])c([H])c([H])c2C1([H])[H]

>  <smiles>  (59) 
[H]c1c([H])c([H])c2c(c1[H])C([H])([H])C([H])([H])C([H])([H])C2([H])N([H])C(=O)C1([H])N(C(=O)C([H])(N([H])C(=O)C([H])(N([H])C([H])([H])[H])C([H])([H])[H])C(C([H])([H])[H])(C([H])([H])[H])C([H])([H])[H])C([H])([H])c2c([H])c(OC([H])([H])C([H])([H])C([H])([H])C([H])([H])[N+]([H])([H])C([H])([H])C([H])([H])C([H])([H])[N+]([H])([H])C([H])([H])C([H])([H])C([H])([H])C([H])([H])C([H])([H])N([H])C(=O)N3C([H])([H])C([H])([H])C([H])([H])C([H])(n4nc(-c5c([H])c([H])c(Oc6c([H])c([H])c(F)c([H])c6F)c([H])c5[H])c(C(=O)N([H])[H])c4N([H])[H])C3([H])[H])c([H])c([H])c2C1([H])[H]

$$$$
59:0:0
     RDKit          3D

105109  0  0  1  0  0  0  0  0999 V2000
  -22.9650  -18.1240   18.0850 N   0  0  0  0  0  4  0  0  0  0  0  0
  -23.3310  -18.0090   17.1540 H   0  0  0  0  0  0  0  0  0  0  0  0
  -22.0650  -18.5740   18.0040 H   0  0  0  0  0  0  0  0  0  0  0  0
  -22.7970  -16.7800   18.7110 C   0  0  0  0  0  2  0  0  0  0  0  0
  -22.0580  -15.7460   17.8220 C   0  0  0  0  0  2  0  0  0  0  0  0
  -21.9660  -14.2990   18.3960 C   0  0  0  0  0  2  0  0  0  0  0  0
  -23.3240  -13.5770   18.6030 C   0  0  0  0  0  2  0  0  0  0  0  0
  -23.1920  -12.1250   18.9160 N   0  0  0  0  0  4  0  0  0  0  0  0
  -22.6620  -12.0210   19.7650 H   0  0  0  0  0  0  0  0  0  0  0  0
  -22.6700  -11.6850   18.1720 H   0  0  0  0  0  0  0  0  0  0  0  0
  -24.5000  -11.4300   19.0520 C   0  0  0  0  0  2  0  0  0  0  0  0
  -24.4220   -9.8970   19.3030 C   0  0  0  0  0  2  0  0  0  0  0  0
  -25.7830   -9.1700   19.1150 C   0  0  0  0  0  2  0  0  0  0  0  0
  -26.7600   -9.2790   20.3170 C   0  0  0  0  0  2  0  0  0  0  0  0
  -28.2540   -9.4250   19.9300 C   0  0  0  0  0  2  0  0  0  0  0  0
  -29.2350  -10.2910   20.8170 C   0  0  0  0  0  2  0  0  0  0  0  0
  -29.5320  -13.2910   21.0600 C   0  0  2  0  0  0  0  0  0  0  0  0
  -30.7900  -12.6830   20.3030 C   0  0  0  0  0  1  0  0  0  0  0  0
  -29.5460  -12.5000   18.8460 C   0  0  0  0  0  1  0  0  0  0  0  0
  -27.8010  -12.7140   19.1920 C   0  0  0  0  0  2  0  0  0  0  0  0
  -27.1730  -13.4060   20.7100 C   0  0  0  0  0  2  0  0  0  0  0  0
  -28.3640  -13.6930   22.1300 C   0  0  0  0  0  1  0  0  0  0  0  0
  -30.0680  -13.2520   21.8690 N   0  0  0  0  0  1  0  0  0  0  0  0
  -29.6270  -14.5300   20.4250 O   0  0  0  0  0  1  0  0  0  0  0  0
  -29.0040  -11.7300   21.2560 N   0  0  0  0  0  2  0  0  0  0  0  0
  -28.8630  -11.6680   22.2520 H   0  0  0  0  0  0  0  0  0  0  0  0
  -24.7400  -13.6180   21.4640 C   0  0  0  0  0  0  0  0  0  0  0  0
  -23.7560  -12.7340   21.8120 C   0  0  0  0  0  0  0  0  0  0  0  0
  -24.3190  -11.4280   21.6830 C   0  0  0  0  0  0  0  0  0  0  0  0
  -25.8610  -12.8730   21.1570 N   0  0  0  0  0  0  0  0  0  0  0  0
  -25.6150  -11.5470   21.3770 N   0  0  0  0  0  0  0  0  0  0  0  0
  -23.6650  -10.1030   21.7920 C   0  0  0  0  0  0  0  0  0  0  0  0
  -24.2060   -9.0680   22.5900 C   0  0  0  0  0  3  0  0  0  0  0  0
  -23.5390   -7.8260   22.7180 C   0  0  0  0  0  3  0  0  0  0  0  0
  -22.3150   -7.5990   22.0440 C   0  0  0  0  0  0  0  0  0  0  0  0
  -21.7900   -8.6190   21.2280 C   0  0  0  0  0  3  0  0  0  0  0  0
  -22.4570   -9.8520   21.1040 C   0  0  0  0  0  3  0  0  0  0  0  0
  -21.6130   -6.4150   22.0910 O   0  0  0  0  0  0  0  0  0  0  0  0
  -21.6160   -5.6180   23.2090 C   0  0  0  0  0  0  0  0  0  0  0  0
  -21.1890   -6.0960   24.4680 C   0  0  0  0  0  3  0  0  0  0  0  0
  -21.1350   -5.2210   25.5740 C   0  0  0  0  0  3  0  0  0  0  0  0
  -21.5040   -3.8720   25.4220 C   0  0  0  0  0  0  0  0  0  0  0  0
  -21.9250   -3.3910   24.1700 C   0  0  0  0  0  3  0  0  0  0  0  0
  -21.9730   -4.2600   23.0660 C   0  0  0  0  0  0  0  0  0  0  0  0
  -22.3580   -3.7860   21.8570 F   0  0  0  0  0  0  0  0  0  0  0  0
  -21.4510   -3.0300   26.4830 F   0  0  0  0  0  0  0  0  0  0  0  0
  -22.3440  -13.0920   22.1750 C   0  0  0  0  0  0  0  0  0  0  0  0
  -21.7060  -12.3000   23.0270 N   0  0  0  0  0  0  0  0  0  0  0  0
  -21.8190  -14.1130   21.7340 O   0  0  0  0  0  0  0  0  0  0  0  0
  -22.1450  -11.4720   23.3990 H   0  0  0  0  0  0  0  0  0  0  0  0
  -20.7550  -12.5120   23.2990 H   0  0  0  0  0  0  0  0  0  0  0  0
  -24.7730  -15.0020   21.3770 N   0  0  0  0  0  0  0  0  0  0  0  0
  -24.0190  -15.5820   21.7250 H   0  0  0  0  0  0  0  0  0  0  0  0
  -25.6140  -15.5260   21.1730 H   0  0  0  0  0  0  0  0  0  0  0  0
  -23.8710  -19.0100   18.8660 C   0  0  0  0  0  2  0  0  0  0  0  0
  -24.4290  -20.2580   18.1250 C   0  0  0  0  0  2  0  0  0  0  0  0
  -25.4830  -20.9740   19.0050 C   0  0  0  0  0  2  0  0  0  0  0  0
  -25.9020  -22.4000   18.5820 C   0  0  0  0  0  2  0  0  0  0  0  0
  -26.8370  -23.0150   19.6480 C   0  0  0  0  0  2  0  0  0  0  0  0
  -27.0460  -24.4760   19.5120 N   0  0  0  0  0  4  0  0  0  0  0  0
  -27.0870  -24.8340   20.4540 H   0  0  0  0  0  0  0  0  0  0  0  0
  -26.2440  -24.9000   19.0720 H   0  0  0  0  0  0  0  0  0  0  0  0
  -28.3040  -24.8990   18.8460 C   0  0  0  0  0  2  0  0  0  0  0  0
  -28.7100  -26.3360   19.2400 C   0  0  0  0  0  2  0  0  0  0  0  0
  -28.1770  -27.3180   18.3540 O   0  0  0  0  0  0  0  0  0  0  0  0
  -24.3240  -31.2580   22.8780 C   0  0  0  0  0  0  0  0  0  0  0  0
  -26.9600  -27.8380   18.7050 C   0  0  0  0  0  0  0  0  0  0  0  0
  -23.0510  -30.0510   21.1300 C   0  0  0  0  0  3  0  0  0  0  0  0
  -24.4510  -28.9800   19.2900 C   0  0  0  0  0  0  0  0  0  0  0  0
  -25.4820  -30.7420   20.7370 C   0  0  0  0  0  2  0  0  0  0  0  0
  -25.6180  -29.5290   19.8410 C   0  0  0  0  0  0  0  0  0  0  0  0
  -26.8770  -28.9670   19.5470 C   0  0  0  0  0  3  0  0  0  0  0  0
  -25.7840  -27.2910   18.1600 C   0  0  0  0  0  3  0  0  0  0  0  0
  -24.5270  -27.8570   18.4510 C   0  0  0  0  0  3  0  0  0  0  0  0
  -23.1490  -29.6660   19.6310 C   0  0  0  0  0  2  0  0  0  0  0  0
  -24.3100  -30.6870   21.6410 N   0  0  0  0  0  0  0  0  0  0  0  0
  -23.3020  -31.2970   23.5780 O   0  0  0  0  0  0  0  0  0  0  0  0
  -22.6280  -28.8010   21.9330 C   0  0  0  0  0  0  0  0  0  0  0  0
  -21.3350  -28.4500   21.8520 N   0  0  0  0  0  0  0  0  0  0  0  0
  -23.4540  -28.1590   22.5850 O   0  0  0  0  0  0  0  0  0  0  0  0
  -20.7160  -29.0260   21.2990 H   0  0  0  0  0  0  0  0  0  0  0  0
  -18.2460  -26.6190   22.2210 C   0  0  0  0  0  0  0  0  0  0  0  0
  -20.7240  -27.2880   22.4980 C   0  0  0  0  0  3  0  0  0  0  0  0
  -21.0590  -25.9880   21.7300 C   0  0  0  0  0  2  0  0  0  0  0  0
  -19.9960  -25.6040   20.6960 C   0  0  0  0  0  2  0  0  0  0  0  0
  -18.6360  -25.4170   21.3740 C   0  0  0  0  0  2  0  0  0  0  0  0
  -19.2270  -27.5030   22.7390 C   0  0  0  0  0  0  0  0  0  0  0  0
  -18.8140  -28.6200   23.4980 C   0  0  0  0  0  3  0  0  0  0  0  0
  -17.4470  -28.8590   23.7400 C   0  0  0  0  0  3  0  0  0  0  0  0
  -16.4810  -27.9710   23.2370 C   0  0  0  0  0  3  0  0  0  0  0  0
  -16.8800  -26.8490   22.4870 C   0  0  0  0  0  3  0  0  0  0  0  0
  -25.6140  -31.9070   23.4680 C   0  0  0  0  0  3  0  0  0  0  0  0
  -25.2500  -33.2440   23.9560 N   0  0  0  0  0  0  0  0  0  0  0  0
  -25.5170  -34.3870   23.3090 C   0  0  0  0  0  0  0  0  0  0  0  0
  -26.1650  -34.4300   22.2610 O   0  0  0  0  0  0  0  0  0  0  0  0
  -24.6630  -33.2840   24.7760 H   0  0  0  0  0  0  0  0  0  0  0  0
  -23.7200  -36.1440   23.1630 C   0  0  0  0  0  1  0  0  0  0  0  0
  -24.9750  -35.6910   23.9270 C   0  0  0  0  0  3  0  0  0  0  0  0
  -27.0770  -36.5480   24.8640 C   0  0  0  0  0  1  0  0  0  0  0  0
  -25.9660  -36.7890   23.9470 N   0  0  0  0  0  0  0  0  0  0  0  0
  -25.5250  -37.6660   24.2080 H   0  0  0  0  0  0  0  0  0  0  0  0
  -26.2790  -31.0510   24.6170 C   0  0  1  0  0  0  0  0  0  0  0  0
  -25.2940  -30.6490   25.7390 C   0  0  0  0  0  1  0  0  0  0  0  0
  -26.9010  -29.7540   24.0460 C   0  0  0  0  0  1  0  0  0  0  0  0
  -27.4360  -31.8490   25.2640 C   0  0  0  0  0  1  0  0  0  0  0  0
  1  4  1  0
  1 55  1  0
  2  1  1  0
  3  1  1  0
  5  6  1  0
  5  4  1  0
  6  7  1  0
  7  8  1  0
  8 11  1  0
  8  9  1  0
 10  8  1  0
 11 12  1  0
 13 12  1  0
 13 14  1  0
 15 14  1  0
 15 16  1  0
 16 25  1  0
 17 23  1  0
 17 22  1  1
 18 17  1  0
 19 20  1  0
 20 21  1  0
 21 30  1  0
 24 17  1  0
 25 26  1  0
 27 28  2  0
 28 47  1  0
 29 32  1  0
 29 28  1  0
 30 31  1  0
 30 27  1  0
 31 29  2  0
 32 33  1  0
 33 34  2  0
 35 38  1  0
 35 34  1  0
 36 35  2  0
 37 36  1  0
 37 32  2  0
 38 39  1  0
 39 40  1  0
 40 41  2  0
 42 41  1  0
 42 46  1  0
 43 42  2  0
 44 39  2  0
 44 43  1  0
 45 44  1  0
 47 48  1  0
 48 51  1  0
 48 50  1  0
 49 47  2  0
 52 27  1  0
 52 53  1  0
 54 52  1  0
 56 55  1  0
 56 57  1  0
 58 57  1  0
 58 59  1  0
 60 59  1  0
 60 61  1  0
 62 60  1  0
 63 64  1  0
 63 60  1  0
 65 67  1  0
 65 64  1  0
 66 77  2  0
 67 72  1  0
 68 76  1  0
 68 78  1  0
 69 75  1  0
 69 71  1  0
 70 76  1  0
 71 70  1  0
 72 71  2  0
 73 74  1  0
 73 67  2  0
 74 69  2  0
 75 68  1  0
 76 66  1  0
 78 80  2  0
 79 78  1  0
 81 79  1  0
 82 91  2  0
 82 87  1  0
 83 79  1  0
 83 87  1  0
 84 83  1  0
 85 86  1  0
 85 84  1  0
 86 82  1  0
 87 88  2  0
 88 89  1  0
 90 89  2  0
 91 90  1  0
 92 66  1  0
 92 93  1  0
 92102  1  0
 93 96  1  0
 94 98  1  0
 94 93  1  0
 95 94  2  0
 98 97  1  0
 98100  1  0
100101  1  0
100 99  1  0
102105  1  1
102103  1  0
104102  1  0
M  ISO  4  17 100  25 100  64 101  65 101
M  END
>  <TORSDO>  (60) 
F 35

>  <SCORE>  (60) 
10.065

>  <name>  (60) 
59

>  <ligand_id>  (60) 
59

>  <original_smiles>  (60) 
[H]c1c([H])c([H])c2c(c1[H])C([H])([H])C([H])([H])C([H])([H])C2([H])N([H])C(=O)C1([H])N(C(=O)C([H])(N([H])C(=O)C([H])(N([H])C([H])([H])[H])C([H])([H])[H])C(C([H])([H])[H])(C([H])([H])[H])C([H])([H])[H])C([H])([H])c2c([H])c(OC([H])([H])C([H])([H])[N+]([H])([H])C([H])([H])C([H])([H])C([H])([H])C([H])([H])C([H])([H])[N+]([H])([H])C([H])([H])C([H])([H])C([H])([H])C([H])([H])[N+]([H])([H])C([H])([H])C([H])([H])C([H])([H])C([H])([H])C([H])([H])C([H])([H])N([H])C(=O)N3C([H])([H])C([H])([H])C([H])([H])C([H])(n4nc(-c5c([H])c([H])c(Oc6c([H])c([H])c(F)c([H])c6F)c([H])c5[H])c(C(=O)N([H])[H])c4N([H])[H])C3([H])[H])c([H])c([H])c2C1([H])[H]

>  <smiles>  (60) 
[H]c1c([H])c([H])c2c(c1[H])C([H])([H])C([H])([H])C([H])([H])C2([H])N([H])C(=O)C1([H])N(C(=O)C([H])(N([H])C(=O)C([H])(N([H])C([H])([H])[H])C([H])([H])[H])C(C([H])([H])[H])(C([H])([H])[H])C([H])([H])[H])C([H])([H])c2c([H])c(OC([H])([H])C([H])([H])[N+]([H])([H])C([H])([H])C([H])([H])C([H])([H])C([H])([H])C([H])([H])[N+]([H])([H])C([H])([H])C([H])([H])C([H])([H])C([H])([H])[N+]([H])([H])C([H])([H])C([H])([H])C([H])([H])C([H])([H])C([H])([H])C([H])([H])N([H])C(=O)N3C([H])([H])C([H])([H])C([H])([H])C([H])(n4nc(-c5c([H])c([H])c(Oc6c([H])c([H])c(F)c([H])c6F)c([H])c5[H])c(C(=O)N([H])[H])c4N([H])[H])C3([H])[H])c([H])c([H])c2C1([H])[H]

$$$$
60:0:0
     RDKit          3D

 97 99  0  0  1  0  0  0  0  0999 V2000
  -21.0030  -26.2300   19.4870 C   0  0  0  0  0  0  0  0  0  0  0  0
  -21.5510  -27.1500   20.2920 N   0  0  0  0  0  0  0  0  0  0  0  0
  -21.6380  -25.6390   18.6100 O   0  0  0  0  0  0  0  0  0  0  0  0
  -20.9330  -27.5680   20.9750 H   0  0  0  0  0  0  0  0  0  0  0  0
  -22.9070  -27.6920   20.2220 C   0  0  0  0  0  2  0  0  0  0  0  0
  -23.3660  -28.1080   18.7980 C   0  0  0  0  0  2  0  0  0  0  0  0
  -24.8830  -27.7320   18.3650 C   0  0  0  0  0  1  0  0  0  0  0  0
  -26.0510  -25.6180   16.7820 C   0  0  0  0  0 15  0  0  0  0  0  0
  -27.9820  -25.5640   16.0000 C   0  0  0  0  0  1  0  0  0  0  0  0
  -29.2000  -25.8490   14.6260 O   0  0  0  0  0  0  0  0  0  0  0  0
  -32.3690  -29.9830   15.8160 C   0  0  0  0  0  0  0  0  0  0  0  0
  -29.2410  -26.1180   13.1810 C   0  0  0  0  0  3  0  0  0  0  0  0
  -30.0620  -29.2800   16.1220 C   0  0  0  0  0  3  0  0  0  0  0  0
  -28.7420  -28.4370   14.0820 C   0  0  0  0  0  3  0  0  0  0  0  0
  -31.0530  -29.3470   13.7900 C   0  0  0  0  0  2  0  0  0  0  0  0
  -29.9990  -28.3060   13.4800 C   0  0  0  0  0  3  0  0  0  0  0  0
  -30.2240  -27.0930   12.8040 C   0  0  0  0  0  2  0  0  0  0  0  0
  -27.9670  -26.4950   12.8380 C   0  0  0  0  0  2  0  0  0  0  0  0
  -27.6680  -27.6410   13.5920 C   0  0  0  0  0  2  0  0  0  0  0  0
  -28.6930  -29.2390   15.3570 C   0  0  0  0  0  2  0  0  0  0  0  0
  -31.2050  -29.5890   15.2370 N   0  0  0  0  0  0  0  0  0  0  0  0
  -32.4560  -30.1710   17.0420 O   0  0  0  0  0  0  0  0  0  0  0  0
  -30.4540  -28.0030   16.8970 C   0  0  0  0  0  0  0  0  0  0  0  0
  -30.4220  -28.0780   18.1870 N   0  0  0  0  0  0  0  0  0  0  0  0
  -30.8860  -26.9800   16.3800 O   0  0  0  0  0  0  0  0  0  0  0  0
  -30.2050  -28.9670   18.6090 H   0  0  0  0  0  0  0  0  0  0  0  0
  -31.2370  -27.9910   21.7580 C   0  0  0  0  0  0  0  0  0  0  0  0
  -30.3620  -26.9310   19.0680 C   0  0  0  0  0  2  0  0  0  0  0  0
  -28.5150  -26.1570   19.7380 C   0  0  0  0  0 15  0  0  0  0  0  0
  -28.1560  -26.7080   21.7410 C   0  0  0  0  0 15  0  0  0  0  0  0
  -29.6730  -27.6750   22.6050 C   0  0  0  0  0  1  0  0  0  0  0  0
  -31.5010  -27.7150   20.2310 C   0  0  0  0  0  0  0  0  0  0  0  0
  -32.8560  -27.7210   19.7900 C   0  0  0  0  0  3  0  0  0  0  0  0
  -33.9600  -27.8390   20.6560 C   0  0  0  0  0  3  0  0  0  0  0  0
  -33.7550  -27.8950   22.0420 C   0  0  0  0  0  3  0  0  0  0  0  0
  -32.4330  -27.9500   22.5680 C   0  0  0  0  0  3  0  0  0  0  0  0
  -33.6300  -30.2380   14.9590 C   0  0  0  0  0  3  0  0  0  0  0  0
  -34.3800  -31.2940   15.6430 N   0  0  0  0  0  0  0  0  0  0  0  0
  -34.1590  -32.6020   15.4690 C   0  0  0  0  0  0  0  0  0  0  0  0
  -33.3590  -33.0420   14.6380 O   0  0  0  0  0  0  0  0  0  0  0  0
  -35.0150  -31.0020   16.3700 H   0  0  0  0  0  0  0  0  0  0  0  0
  -34.0190  -34.6250   16.9540 C   0  0  0  0  0  1  0  0  0  0  0  0
  -34.9640  -33.5770   16.3460 C   0  0  0  0  0  3  0  0  0  0  0  0
  -37.3410  -33.5570   15.7330 C   0  0  0  0  0  1  0  0  0  0  0  0
  -36.0590  -34.2510   15.6160 N   0  0  0  0  0  0  0  0  0  0  0  0
  -36.1850  -35.2040   15.9500 H   0  0  0  0  0  0  0  0  0  0  0  0
  -34.5150  -28.9490   14.7650 C   0  0  1  0  0  0  0  0  0  0  0  0
  -33.9560  -27.6880   15.4690 C   0  0  0  0  0  1  0  0  0  0  0  0
  -34.6850  -28.6110   13.2660 C   0  0  0  0  0  1  0  0  0  0  0  0
  -35.9330  -29.2270   15.3150 C   0  0  0  0  0  1  0  0  0  0  0  0
  -19.5060  -25.9630   19.6930 C   0  0  0  0  0  2  0  0  0  0  0  0
  -18.8680  -25.5240   18.4910 O   0  0  0  0  0  0  0  0  0  0  0  0
  -18.0880  -24.3630   18.7450 C   0  0  0  0  0  2  0  0  0  0  0  0
  -18.0610  -23.9650   20.2280 C   0  0  0  0  0  2  0  0  0  0  0  0
  -16.6030  -23.8360   20.7120 C   0  0  0  0  0  2  0  0  0  0  0  0
  -16.4220  -23.9070   22.2310 C   0  0  0  0  0  2  0  0  0  0  0  0
  -16.3570  -22.5120   22.8850 C   0  0  0  0  0  2  0  0  0  0  0  0
  -15.4190  -21.5790   22.1100 C   0  0  0  0  0  2  0  0  0  0  0  0
  -14.1660  -21.1100   22.8750 C   0  0  0  0  0  2  0  0  0  0  0  0
  -12.9650  -19.0910   22.0270 C   0  0  0  0  0  0  0  0  0  0  0  0
  -11.4290  -17.1710   22.2830 C   0  0  0  0  0  2  0  0  0  0  0  0
  -10.1990  -17.5660   23.1310 C   0  0  0  0  0  2  0  0  0  0  0  0
  -10.4910  -17.4520   24.6410 C   0  0  0  0  0  2  0  0  0  0  0  0
  -11.8250  -18.1410   25.0380 C   0  0  0  0  0  3  0  0  0  0  0  0
  -12.9590  -17.6680   24.1000 C   0  0  0  0  0  2  0  0  0  0  0  0
  -12.5740  -17.9830   22.7080 N   0  0  0  0  0  0  0  0  0  0  0  0
  -12.4230  -19.5080   20.9990 O   0  0  0  0  0  0  0  0  0  0  0  0
  -14.0170  -19.6900   22.5920 N   0  0  0  0  0  0  0  0  0  0  0  0
  -14.4670  -19.0940   23.2720 H   0  0  0  0  0  0  0  0  0  0  0  0
  -13.1160  -18.5120   27.2360 C   0  0  0  0  0  0  0  0  0  0  0  0
  -12.9650  -17.9720   28.4840 C   0  0  0  0  0  0  0  0  0  0  0  0
  -11.8810  -17.0440   28.3860 C   0  0  0  0  0  0  0  0  0  0  0  0
  -12.1530  -17.9060   26.4410 N   0  0  0  0  0  0  0  0  0  0  0  0
  -11.4430  -16.9830   27.1350 N   0  0  0  0  0  0  0  0  0  0  0  0
  -11.1980  -16.2570   29.4160 C   0  0  0  0  0  0  0  0  0  0  0  0
  -11.5540  -14.9160   29.6740 C   0  0  0  0  0  3  0  0  0  0  0  0
  -10.8930  -14.1790   30.6800 C   0  0  0  0  0  3  0  0  0  0  0  0
   -9.8700  -14.7850   31.4470 C   0  0  0  0  0  0  0  0  0  0  0  0
   -9.5040  -16.1140   31.1710 C   0  0  0  0  0  3  0  0  0  0  0  0
  -10.1570  -16.8430   30.1640 C   0  0  0  0  0  3  0  0  0  0  0  0
   -9.1550  -14.1420   32.4260 O   0  0  0  0  0  0  0  0  0  0  0  0
   -9.7300  -13.7920   33.6190 C   0  0  0  0  0  0  0  0  0  0  0  0
  -10.0930  -14.7570   34.5840 C   0  0  0  0  0  3  0  0  0  0  0  0
  -10.6180  -14.3460   35.8260 C   0  0  0  0  0  3  0  0  0  0  0  0
  -10.7670  -12.9770   36.1100 C   0  0  0  0  0  0  0  0  0  0  0  0
  -10.3970  -12.0140   35.1550 C   0  0  0  0  0  3  0  0  0  0  0  0
   -9.8790  -12.4220   33.9130 C   0  0  0  0  0  0  0  0  0  0  0  0
   -9.5060  -11.4890   33.0020 F   0  0  0  0  0  0  0  0  0  0  0  0
  -11.2600  -12.5810   37.3080 F   0  0  0  0  0  0  0  0  0  0  0  0
  -13.7180  -18.3520   29.7260 C   0  0  0  0  0  0  0  0  0  0  0  0
  -14.0160  -17.3750   30.5770 N   0  0  0  0  0  0  0  0  0  0  0  0
  -14.0890  -19.5080   29.9260 O   0  0  0  0  0  0  0  0  0  0  0  0
  -13.7050  -16.4300   30.4090 H   0  0  0  0  0  0  0  0  0  0  0  0
  -14.5480  -17.5740   31.4100 H   0  0  0  0  0  0  0  0  0  0  0  0
  -13.9720  -19.4760   26.7180 N   0  0  0  0  0  0  0  0  0  0  0  0
  -14.6270  -19.9790   27.3040 H   0  0  0  0  0  0  0  0  0  0  0  0
  -13.9320  -19.8400   25.7730 H   0  0  0  0  0  0  0  0  0  0  0  0
  1 51  1  0
  1  2  1  0
  2  4  1  0
  3  1  2  0
  5  2  1  0
  6  5  1  0
  7  6  1  0
 10  9  1  0
 11 22  2  0
 12 10  1  0
 13 23  1  0
 14 19  1  0
 14 20  1  0
 15 21  1  0
 16 17  1  0
 16 15  1  0
 16 14  1  0
 17 12  1  0
 18 12  1  0
 18 19  1  0
 20 13  1  0
 21 11  1  0
 21 13  1  0
 23 24  1  0
 24 26  1  0
 24 28  1  0
 25 23  2  0
 27 36  1  0
 27 31  1  0
 28 32  1  0
 32 27  2  0
 33 32  1  0
 33 34  2  0
 34 35  1  0
 35 36  2  0
 37 38  1  0
 37 11  1  0
 38 41  1  0
 39 38  1  0
 39 43  1  0
 40 39  2  0
 43 42  1  0
 45 44  1  0
 45 46  1  0
 45 43  1  0
 47 37  1  0
 47 50  1  1
 47 48  1  0
 49 47  1  0
 52 53  1  0
 52 51  1  0
 53 54  1  0
 54 55  1  0
 55 56  1  0
 56 57  1  0
 58 59  1  0
 58 57  1  0
 60 68  1  0
 60 66  1  0
 61 66  1  0
 61 62  1  0
 62 63  1  0
 63 64  1  0
 64 65  1  0
 64 73  1  0
 66 65  1  0
 67 60  2  0
 68 59  1  0
 68 69  1  0
 70 71  2  0
 71 90  1  0
 72 71  1  0
 72 75  1  0
 73 74  1  0
 73 70  1  0
 74 72  2  0
 75 76  2  0
 75 80  1  0
 76 77  1  0
 77 78  2  0
 78 81  1  0
 79 78  1  0
 80 79  2  0
 81 82  1  0
 82 87  2  0
 82 83  1  0
 83 84  2  0
 84 85  1  0
 85 89  1  0
 86 85  2  0
 87 86  1  0
 88 87  1  0
 90 92  2  0
 90 91  1  0
 91 94  1  0
 93 91  1  0
 95 70  1  0
 95 96  1  0
 97 95  1  0
M  ISO  4   9 101  10 101  60 100  68 100
M  END
>  <TORSDO>  (61) 
F 30

>  <SCORE>  (61) 
-5.350

>  <name>  (61) 
60

>  <ligand_id>  (61) 
60

>  <original_smiles>  (61) 
[H]c1c([H])c([H])c2c(c1[H])C([H])([H])C([H])([H])C([H])([H])C2([H])N([H])C(=O)C1([H])N(C(=O)C([H])(N([H])C(=O)C([H])(N([H])C([H])([H])[H])C([H])([H])[H])C(C([H])([H])[H])(C([H])([H])[H])C([H])([H])[H])C([H])([H])c2c([H])c(OC([H])([H])C([H])([H])C([H])([H])C([H])([H])C([H])([H])N([H])C(=O)C([H])([H])OC([H])([H])C([H])([H])C([H])([H])C([H])([H])C([H])([H])C([H])([H])C([H])([H])N([H])C(=O)N3C([H])([H])C([H])([H])C([H])([H])C([H])(n4nc(-c5c([H])c([H])c(Oc6c([H])c([H])c(F)c([H])c6F)c([H])c5[H])c(C(=O)N([H])[H])c4N([H])[H])C3([H])[H])c([H])c([H])c2C1([H])[H]

>  <smiles>  (61) 
[H]c1c([H])c([H])c2c(c1[H])C([H])([H])C([H])([H])C([H])([H])C2([H])N([H])C(=O)C1([H])N(C(=O)C([H])(N([H])C(=O)C([H])(N([H])C([H])([H])[H])C([H])([H])[H])C(C([H])([H])[H])(C([H])([H])[H])C([H])([H])[H])C([H])([H])c2c([H])c(OC([H])([H])C([H])([H])C([H])([H])C([H])([H])C([H])([H])N([H])C(=O)C([H])([H])OC([H])([H])C([H])([H])C([H])([H])C([H])([H])C([H])([H])C([H])([H])C([H])([H])N([H])C(=O)N3C([H])([H])C([H])([H])C([H])([H])C([H])(n4nc(-c5c([H])c([H])c(Oc6c([H])c([H])c(F)c([H])c6F)c([H])c5[H])c(C(=O)N([H])[H])c4N([H])[H])C3([H])[H])c([H])c([H])c2C1([H])[H]

$$$$
61:0:0
     RDKit          3D

 96103  0  0  1  0  0  0  0  0999 V2000
  -30.7340  -21.9650   18.2900 C   0  0  0  0  0  0  0  0  0  0  0  0
  -29.8510  -22.4930   17.4380 N   0  0  0  0  0  0  0  0  0  0  0  0
  -31.8560  -22.4430   18.4710 O   0  0  0  0  0  0  0  0  0  0  0  0
  -28.9730  -22.0060   17.3040 H   0  0  0  0  0  0  0  0  0  0  0  0
  -30.1770  -20.8560   19.0340 C   0  0  0  0  0  3  0  0  0  0  0  0
  -30.4970  -20.7290   20.3360 C   0  0  0  0  0  3  0  0  0  0  0  0
  -30.0270  -19.6070   21.2300 C   0  0  0  0  0  2  0  0  0  0  0  0
  -31.1470  -18.6730   21.4210 N   0  0  0  0  0  4  0  0  0  0  0  0
  -31.7180  -18.9850   22.1930 H   0  0  0  0  0  0  0  0  0  0  0  0
  -31.7160  -18.7100   20.5910 H   0  0  0  0  0  0  0  0  0  0  0  0
  -30.7370  -17.2770   21.6410 C   0  0  0  0  0  2  0  0  0  0  0  0
  -31.9380  -16.3300   21.5220 C   0  0  0  0  0  2  0  0  0  0  0  0
  -31.6260  -14.8850   21.9420 C   0  0  0  0  0  2  0  0  0  0  0  0
  -30.5070  -13.9530   19.8980 C   0  0  0  0  0  0  0  0  0  0  0  0
  -29.8250  -12.1000   18.4300 C   0  0  0  0  0  2  0  0  0  0  0  0
  -28.7230  -12.4280   17.4110 C   0  0  0  0  0  2  0  0  0  0  0  0
  -27.3320  -12.2660   18.0470 C   0  0  0  0  0  2  0  0  0  0  0  0
  -27.2090  -13.0120   19.4000 C   0  0  0  0  0  3  0  0  0  0  0  0
  -28.3890  -12.6660   20.3290 C   0  0  0  0  0  2  0  0  0  0  0  0
  -29.6520  -12.9450   19.6160 N   0  0  0  0  0  0  0  0  0  0  0  0
  -31.3300  -14.4070   19.0950 O   0  0  0  0  0  0  0  0  0  0  0  0
  -30.5360  -14.2550   21.2020 N   0  0  0  0  0  0  0  0  0  0  0  0
  -29.8370  -13.7830   21.7600 H   0  0  0  0  0  0  0  0  0  0  0  0
  -24.9140  -13.6130   20.4060 C   0  0  0  0  0  0  0  0  0  0  0  0
  -23.9010  -12.8340   20.8970 C   0  0  0  0  0  0  0  0  0  0  0  0
  -24.3580  -11.4850   20.7980 C   0  0  0  0  0  0  0  0  0  0  0  0
  -25.9250  -12.7360   20.0410 N   0  0  0  0  0  0  0  0  0  0  0  0
  -25.6000  -11.4500   20.3330 N   0  0  0  0  0  0  0  0  0  0  0  0
  -23.6670  -10.2170   21.0670 C   0  0  0  0  0  0  0  0  0  0  0  0
  -24.1950   -9.2640   21.9660 C   0  0  0  0  0  3  0  0  0  0  0  0
  -23.5020   -8.0620   22.2220 C   0  0  0  0  0  3  0  0  0  0  0  0
  -22.2690   -7.8020   21.5800 C   0  0  0  0  0  0  0  0  0  0  0  0
  -21.7580   -8.7430   20.6680 C   0  0  0  0  0  3  0  0  0  0  0  0
  -22.4520   -9.9370   20.4100 C   0  0  0  0  0  3  0  0  0  0  0  0
  -21.5400   -6.6480   21.7460 O   0  0  0  0  0  0  0  0  0  0  0  0
  -21.5860   -5.9310   22.9130 C   0  0  0  0  0  0  0  0  0  0  0  0
  -21.2490   -6.5090   24.1580 C   0  0  0  0  0  3  0  0  0  0  0  0
  -21.2430   -5.7170   25.3230 C   0  0  0  0  0  3  0  0  0  0  0  0
  -21.5640   -4.3480   25.2470 C   0  0  0  0  0  0  0  0  0  0  0  0
  -21.8950   -3.7710   24.0090 C   0  0  0  0  0  3  0  0  0  0  0  0
  -21.9040   -4.5590   22.8450 C   0  0  0  0  0  0  0  0  0  0  0  0
  -22.2020   -3.9940   21.6510 F   0  0  0  0  0  0  0  0  0  0  0  0
  -21.5510   -3.5850   26.3640 F   0  0  0  0  0  0  0  0  0  0  0  0
  -22.5480  -13.3040   21.3500 C   0  0  0  0  0  0  0  0  0  0  0  0
  -21.9470  -12.6030   22.3040 N   0  0  0  0  0  0  0  0  0  0  0  0
  -22.0390  -14.3260   20.8920 O   0  0  0  0  0  0  0  0  0  0  0  0
  -22.3760  -11.7770   22.6930 H   0  0  0  0  0  0  0  0  0  0  0  0
  -21.0490  -12.8980   22.6570 H   0  0  0  0  0  0  0  0  0  0  0  0
  -25.0590  -14.9830   20.2160 N   0  0  0  0  0  0  0  0  0  0  0  0
  -24.3220  -15.6500   20.4190 H   0  0  0  0  0  0  0  0  0  0  0  0
  -25.8760  -15.4100   19.7960 H   0  0  0  0  0  0  0  0  0  0  0  0
  -29.9160  -23.8740   16.9590 C   0  0  0  0  0  2  0  0  0  0  0  0
  -29.7080  -24.8660   18.1280 C   0  0  0  0  0  2  0  0  0  0  0  0
  -28.3480  -24.6890   18.8340 C   0  0  0  0  0  2  0  0  0  0  0  0
  -28.2810  -25.2960   20.2460 C   0  0  0  0  0  2  0  0  0  0  0  0
  -28.3160  -26.7180   20.2400 O   0  0  0  0  0  0  0  0  0  0  0  0
  -24.4720  -31.8850   23.2080 C   0  0  0  0  0  0  0  0  0  0  0  0
  -27.1140  -27.3910   20.2310 C   0  0  0  0  0  0  0  0  0  0  0  0
  -23.2660  -30.4600   21.5850 C   0  0  0  0  0  3  0  0  0  0  0  0
  -24.7160  -28.8880   20.2050 C   0  0  0  0  0  0  0  0  0  0  0  0
  -25.7920  -30.8080   21.3910 C   0  0  0  0  0  2  0  0  0  0  0  0
  -25.8730  -29.4250   20.7810 C   0  0  0  0  0  0  0  0  0  0  0  0
  -27.0760  -28.6880   20.7840 C   0  0  0  0  0  3  0  0  0  0  0  0
  -25.9290  -26.8540   19.6760 C   0  0  0  0  0  3  0  0  0  0  0  0
  -24.7350  -27.5990   19.6500 C   0  0  0  0  0  3  0  0  0  0  0  0
  -23.4770  -29.7520   20.2210 C   0  0  0  0  0  2  0  0  0  0  0  0
  -24.5270  -31.0660   22.1180 N   0  0  0  0  0  0  0  0  0  0  0  0
  -23.3910  -32.1730   23.7360 O   0  0  0  0  0  0  0  0  0  0  0  0
  -22.6060  -29.4570   22.5580 C   0  0  0  0  0  0  0  0  0  0  0  0
  -21.2820  -29.2770   22.4180 N   0  0  0  0  0  0  0  0  0  0  0  0
  -23.2810  -28.8440   23.3890 O   0  0  0  0  0  0  0  0  0  0  0  0
  -20.8040  -29.8190   21.7130 H   0  0  0  0  0  0  0  0  0  0  0  0
  -17.8980  -28.1160   22.8990 C   0  0  0  0  0  0  0  0  0  0  0  0
  -20.4520  -28.3610   23.1980 C   0  0  0  0  0  3  0  0  0  0  0  0
  -20.5530  -26.9190   22.6500 C   0  0  0  0  0  2  0  0  0  0  0  0
  -19.4620  -26.5830   21.6290 C   0  0  0  0  0  2  0  0  0  0  0  0
  -18.0740  -26.7520   22.2550 C   0  0  0  0  0  2  0  0  0  0  0  0
  -19.0160  -28.8800   23.3270 C   0  0  0  0  0  0  0  0  0  0  0  0
  -18.7990  -30.1570   23.8860 C   0  0  0  0  0  3  0  0  0  0  0  0
  -17.4970  -30.6710   24.0220 C   0  0  0  0  0  3  0  0  0  0  0  0
  -16.3920  -29.9040   23.6120 C   0  0  0  0  0  3  0  0  0  0  0  0
  -16.5950  -28.6280   23.0570 C   0  0  0  0  0  3  0  0  0  0  0  0
  -25.7600  -32.5150   23.8250 C   0  0  0  0  0  3  0  0  0  0  0  0
  -26.2730  -31.7540   25.1100 C   0  0  1  0  0  0  0  0  0  0  0  0
  -25.1760  -31.5240   26.1770 C   0  0  0  0  0  1  0  0  0  0  0  0
  -26.8510  -30.3720   24.7270 C   0  0  0  0  0  1  0  0  0  0  0  0
  -27.4250  -32.5510   25.7670 C   0  0  0  0  0  1  0  0  0  0  0  0
  -25.4550  -33.9170   24.1350 N   0  0  0  0  0  0  0  0  0  0  0  0
  -25.7980  -34.9570   23.3620 C   0  0  0  0  0  0  0  0  0  0  0  0
  -26.4750  -34.8360   22.3370 O   0  0  0  0  0  0  0  0  0  0  0  0
  -24.8620  -34.0850   24.9340 H   0  0  0  0  0  0  0  0  0  0  0  0
  -24.0790  -36.7500   22.9610 C   0  0  0  0  0  1  0  0  0  0  0  0
  -25.3100  -36.3530   23.7920 C   0  0  0  0  0  3  0  0  0  0  0  0
  -27.4430  -37.2400   24.6290 C   0  0  0  0  0  1  0  0  0  0  0  0
  -26.3480  -37.4000   23.6760 N   0  0  0  0  0  0  0  0  0  0  0  0
  -25.9420  -38.3220   23.8120 H   0  0  0  0  0  0  0  0  0  0  0  0
  1  3  2  0
  1  5  1  0
  2  1  1  0
  4  2  1  0
  5  6  2  0
  6  7  1  0
  7  8  1  0
  8 11  1  0
  8  9  1  0
 10  8  1  0
 12 11  1  0
 12 13  1  0
 14 22  1  0
 15 20  1  0
 16 17  1  0
 16 15  1  0
 18 17  1  0
 18 27  1  0
 18 19  1  0
 20 14  1  0
 20 19  1  0
 21 14  2  0
 22 23  1  0
 22 13  1  0
 24 25  2  0
 25 44  1  0
 26 25  1  0
 26 29  1  0
 27 28  1  0
 27 24  1  0
 28 26  2  0
 29 30  1  0
 30 31  2  0
 32 35  1  0
 32 31  1  0
 33 32  2  0
 34 33  1  0
 34 29  2  0
 35 36  1  0
 36 37  1  0
 37 38  2  0
 39 38  1  0
 39 43  1  0
 40 39  2  0
 41 36  2  0
 41 40  1  0
 42 41  1  0
 44 45  1  0
 45 48  1  0
 45 47  1  0
 46 44  2  0
 49 24  1  0
 49 50  1  0
 51 49  1  0
 52  2  1  0
 52 53  1  0
 53 54  1  0
 54 55  1  0
 56 55  1  0
 57 68  2  0
 58 56  1  0
 58 63  1  0
 59 67  1  0
 59 69  1  0
 60 66  1  0
 60 62  1  0
 61 67  1  0
 62 63  2  0
 62 61  1  0
 64 58  2  0
 65 64  1  0
 65 60  2  0
 66 59  1  0
 67 57  1  0
 69 71  2  0
 70 69  1  0
 72 70  1  0
 73 82  2  0
 73 78  1  0
 74 70  1  0
 74 78  1  0
 75 74  1  0
 76 77  1  0
 76 75  1  0
 77 73  1  0
 78 79  2  0
 79 80  1  0
 81 80  2  0
 82 81  1  0
 83 57  1  0
 83 88  1  0
 83 84  1  0
 84 87  1  1
 84 85  1  0
 86 84  1  0
 88 91  1  0
 89 93  1  0
 89 88  1  0
 90 89  2  0
 93 92  1  0
 95 93  1  0
 95 96  1  0
 95 94  1  0
M  ISO  4  14 100  22 100  55 101  56 101
M  END
>  <TORSDO>  (62) 
F 26

>  <SCORE>  (62) 
-9.942

>  <name>  (62) 
61

>  <ligand_id>  (62) 
61

>  <original_smiles>  (62) 
[H]C(C(=O)N([H])C([H])([H])C([H])([H])C([H])([H])C([H])([H])Oc1c([H])c([H])c2c(c1[H])C([H])([H])N(C(=O)C([H])(N([H])C(=O)C([H])(N([H])C([H])([H])[H])C([H])([H])[H])C(C([H])([H])[H])(C([H])([H])[H])C([H])([H])[H])C([H])(C(=O)N([H])C1([H])c3c([H])c([H])c([H])c([H])c3C([H])([H])C([H])([H])C1([H])[H])C2([H])[H])=C([H])C([H])([H])[N+]([H])([H])C([H])([H])C([H])([H])C([H])([H])N([H])C(=O)N1C([H])([H])C([H])([H])C([H])([H])C([H])(n2nc(-c3c([H])c([H])c(Oc4c([H])c([H])c(F)c([H])c4F)c([H])c3[H])c(C(=O)N([H])[H])c2N([H])[H])C1([H])[H]

>  <smiles>  (62) 
[H]C(C(=O)N([H])C([H])([H])C([H])([H])C([H])([H])C([H])([H])Oc1c([H])c([H])c2c(c1[H])C([H])([H])N(C(=O)C([H])(N([H])C(=O)C([H])(N([H])C([H])([H])[H])C([H])([H])[H])C(C([H])([H])[H])(C([H])([H])[H])C([H])([H])[H])C([H])(C(=O)N([H])C1([H])c3c([H])c([H])c([H])c([H])c3C([H])([H])C([H])([H])C1([H])[H])C2([H])[H])=C([H])C([H])([H])[N+]([H])([H])C([H])([H])C([H])([H])C([H])([H])N([H])C(=O)N1C([H])([H])C([H])([H])C([H])([H])C([H])(n2nc(-c3c([H])c([H])c(Oc4c([H])c([H])c(F)c([H])c4F)c([H])c3[H])c(C(=O)N([H])[H])c2N([H])[H])C1([H])[H]

$$$$
62:0:0
     RDKit          3D

101108  0  0  1  0  0  0  0  0999 V2000
  -28.9130  -21.3320   22.6090 C   0  0  0  0  0  2  0  0  0  0  0  0
  -29.1850  -20.4590   20.2960 C   0  0  0  0  0  0  0  0  0  0  0  0
  -29.4910  -20.4540   21.5940 N   0  0  0  0  0  0  0  0  0  0  0  0
  -28.2120  -21.0740   19.8480 O   0  0  0  0  0  0  0  0  0  0  0  0
  -30.3200  -19.9380   21.8640 H   0  0  0  0  0  0  0  0  0  0  0  0
  -30.1730  -19.7530   19.3370 C   0  0  0  0  0  3  0  0  0  0  0  0
  -30.0640  -21.9590   18.2080 C   0  0  0  0  0  0  0  0  0  0  0  0
  -30.3780  -20.6580   18.2010 N   0  0  0  0  0  0  0  0  0  0  0  0
  -29.7240  -22.5510   19.2310 O   0  0  0  0  0  0  0  0  0  0  0  0
  -30.5840  -20.2350   17.3080 H   0  0  0  0  0  0  0  0  0  0  0  0
  -29.3630  -23.5980   16.5560 C   0  0  0  0  0  2  0  0  0  0  0  0
  -30.1310  -22.5420   16.8790 C   0  0  0  0  0  3  0  0  0  0  0  0
  -29.5980  -18.4060   18.8170 C   0  0  0  0  0  2  0  0  0  0  0  0
  -30.3960  -16.5340   20.2500 C   0  0  0  0  0  0  0  0  0  0  0  0
  -30.8500  -14.2590   21.0840 C   0  0  0  0  0  2  0  0  0  0  0  0
  -30.4090  -13.2240   20.0310 C   0  0  0  0  0  2  0  0  0  0  0  0
  -28.9240  -12.8610   20.2090 C   0  0  0  0  0  2  0  0  0  0  0  0
  -28.0170  -14.1160   20.3250 C   0  0  0  0  0  3  0  0  0  0  0  0
  -28.6000  -15.1270   21.3410 C   0  0  0  0  0  2  0  0  0  0  0  0
  -29.9840  -15.4400   20.9470 N   0  0  0  0  0  0  0  0  0  0  0  0
  -31.5650  -16.6930   19.8880 O   0  0  0  0  0  0  0  0  0  0  0  0
  -29.4340  -17.3850   19.8670 N   0  0  0  0  0  0  0  0  0  0  0  0
  -28.5020  -17.2080   20.2130 H   0  0  0  0  0  0  0  0  0  0  0  0
  -25.5300  -14.5600   20.8230 C   0  0  0  0  0  0  0  0  0  0  0  0
  -24.4790  -13.7120   21.0430 C   0  0  0  0  0  0  0  0  0  0  0  0
  -25.0180  -12.3890   20.9860 C   0  0  0  0  0  0  0  0  0  0  0  0
  -26.6420  -13.7500   20.6520 N   0  0  0  0  0  0  0  0  0  0  0  0
  -26.3330  -12.4370   20.8050 N   0  0  0  0  0  0  0  0  0  0  0  0
  -24.3510  -11.0820   21.0330 C   0  0  0  0  0  0  0  0  0  0  0  0
  -24.6380  -10.1450   22.0500 C   0  0  0  0  0  3  0  0  0  0  0  0
  -23.9700   -8.9040   22.0860 C   0  0  0  0  0  3  0  0  0  0  0  0
  -23.0030   -8.5880   21.1020 C   0  0  0  0  0  0  0  0  0  0  0  0
  -22.7370   -9.5150   20.0790 C   0  0  0  0  0  3  0  0  0  0  0  0
  -23.4070  -10.7500   20.0400 C   0  0  0  0  0  3  0  0  0  0  0  0
  -22.3220   -7.3960   21.0440 O   0  0  0  0  0  0  0  0  0  0  0  0
  -21.9100   -6.7470   22.1810 C   0  0  0  0  0  0  0  0  0  0  0  0
  -21.0800   -7.3720   23.1380 C   0  0  0  0  0  3  0  0  0  0  0  0
  -20.6190   -6.6440   24.2530 C   0  0  0  0  0  3  0  0  0  0  0  0
  -20.9850   -5.2950   24.4120 C   0  0  0  0  0  0  0  0  0  0  0  0
  -21.8040   -4.6680   23.4570 C   0  0  0  0  0  3  0  0  0  0  0  0
  -22.2660   -5.3910   22.3450 C   0  0  0  0  0  0  0  0  0  0  0  0
  -23.0400   -4.7790   21.4170 F   0  0  0  0  0  0  0  0  0  0  0  0
  -20.5380   -4.5920   25.4800 F   0  0  0  0  0  0  0  0  0  0  0  0
  -23.0350  -14.0970   21.2030 C   0  0  0  0  0  0  0  0  0  0  0  0
  -22.2790  -13.3290   21.9760 N   0  0  0  0  0  0  0  0  0  0  0  0
  -22.5870  -15.1140   20.6770 O   0  0  0  0  0  0  0  0  0  0  0  0
  -22.6550  -12.5040   22.4220 H   0  0  0  0  0  0  0  0  0  0  0  0
  -21.3080  -13.5640   22.1220 H   0  0  0  0  0  0  0  0  0  0  0  0
  -25.6340  -15.9460   20.7390 N   0  0  0  0  0  0  0  0  0  0  0  0
  -24.8210  -16.5500   20.7910 H   0  0  0  0  0  0  0  0  0  0  0  0
  -26.4840  -16.4490   20.5140 H   0  0  0  0  0  0  0  0  0  0  0  0
  -27.9210  -22.3750   22.0590 C   0  0  0  0  0  2  0  0  0  0  0  0
  -27.5300  -23.3170   23.0580 O   0  0  0  0  0  0  0  0  0  0  0  0
  -28.0010  -24.6560   22.9200 C   0  0  0  0  0  2  0  0  0  0  0  0
  -27.2070  -25.4810   21.8950 C   0  0  0  0  0  2  0  0  0  0  0  0
  -25.7160  -25.1040   21.7800 C   0  0  0  0  0  2  0  0  0  0  0  0
  -25.3080  -24.3720   20.4860 C   0  0  0  0  0  2  0  0  0  0  0  0
  -25.5820  -25.1340   19.1740 C   0  0  0  0  0  2  0  0  0  0  0  0
  -26.8460  -24.7830   18.3560 C   0  0  0  0  0  2  0  0  0  0  0  0
  -27.6940  -26.0000   17.9030 C   0  0  0  0  0  2  0  0  0  0  0  0
  -27.0000  -26.8830   17.0200 O   0  0  0  0  0  0  0  0  0  0  0  0
  -25.4930  -30.5110   22.9570 C   0  0  0  0  0  0  0  0  0  0  0  0
  -26.1540  -27.7440   17.6690 C   0  0  0  0  0  0  0  0  0  0  0  0
  -23.6500  -30.2590   21.3290 C   0  0  0  0  0  3  0  0  0  0  0  0
  -24.3140  -29.3850   19.0290 C   0  0  0  0  0  0  0  0  0  0  0  0
  -26.0860  -30.2620   20.5580 C   0  0  0  0  0  2  0  0  0  0  0  0
  -25.6610  -29.3680   19.4160 C   0  0  0  0  0  0  0  0  0  0  0  0
  -26.5860  -28.5320   18.7550 C   0  0  0  0  0  3  0  0  0  0  0  0
  -24.8200  -27.8380   17.2330 C   0  0  0  0  0  3  0  0  0  0  0  0
  -23.8820  -28.6090   17.9390 C   0  0  0  0  0  3  0  0  0  0  0  0
  -23.3870  -30.2940   19.8000 C   0  0  0  0  0  2  0  0  0  0  0  0
  -25.1070  -30.3290   21.6630 N   0  0  0  0  0  0  0  0  0  0  0  0
  -24.6580  -30.6630   23.8590 O   0  0  0  0  0  0  0  0  0  0  0  0
  -22.9450  -29.0190   21.9220 C   0  0  0  0  0  0  0  0  0  0  0  0
  -21.6040  -29.0540   21.9450 N   0  0  0  0  0  0  0  0  0  0  0  0
  -23.5970  -28.0510   22.3260 O   0  0  0  0  0  0  0  0  0  0  0  0
  -21.1470  -29.8870   21.5990 H   0  0  0  0  0  0  0  0  0  0  0  0
  -18.1430  -28.0620   22.2780 C   0  0  0  0  0  0  0  0  0  0  0  0
  -20.7240  -27.9910   22.4270 C   0  0  0  0  0  3  0  0  0  0  0  0
  -20.6490  -26.8250   21.4140 C   0  0  0  0  0  2  0  0  0  0  0  0
  -19.4780  -26.9520   20.4360 C   0  0  0  0  0  2  0  0  0  0  0  0
  -18.1480  -27.0000   21.1930 C   0  0  0  0  0  2  0  0  0  0  0  0
  -19.3550  -28.5400   22.8460 C   0  0  0  0  0  0  0  0  0  0  0  0
  -19.2960  -29.5540   23.8260 C   0  0  0  0  0  3  0  0  0  0  0  0
  -18.0600  -30.0870   24.2390 C   0  0  0  0  0  3  0  0  0  0  0  0
  -16.8640  -29.6020   23.6820 C   0  0  0  0  0  3  0  0  0  0  0  0
  -16.9080  -28.5890   22.7080 C   0  0  0  0  0  3  0  0  0  0  0  0
  -26.9980  -30.5620   23.3580 C   0  0  0  0  0  3  0  0  0  0  0  0
  -27.1560  -31.6530   24.3280 N   0  0  0  0  0  0  0  0  0  0  0  0
  -27.6730  -32.8550   24.0400 C   0  0  0  0  0  0  0  0  0  0  0  0
  -28.1360  -33.1400   22.9320 O   0  0  0  0  0  0  0  0  0  0  0  0
  -26.7310  -31.5210   25.2340 H   0  0  0  0  0  0  0  0  0  0  0  0
  -26.5270  -34.9080   24.9390 C   0  0  0  0  0  1  0  0  0  0  0  0
  -27.6790  -33.9130   25.1590 C   0  0  0  0  0  3  0  0  0  0  0  0
  -30.0600  -33.8130   25.7590 C   0  0  0  0  0  1  0  0  0  0  0  0
  -28.9600  -34.6450   25.2730 N   0  0  0  0  0  0  0  0  0  0  0  0
  -28.8670  -35.4400   25.8970 H   0  0  0  0  0  0  0  0  0  0  0  0
  -27.5330  -29.1980   23.9430 C   0  0  1  0  0  0  0  0  0  0  0  0
  -26.6620  -28.6250   25.0860 C   0  0  0  0  0  1  0  0  0  0  0  0
  -27.6150  -28.1220   22.8320 C   0  0  0  0  0  1  0  0  0  0  0  0
  -28.9690  -29.3950   24.4770 C   0  0  0  0  0  1  0  0  0  0  0  0
  2  3  1  0
  3  5  1  0
  3  1  1  0
  4  2  2  0
  6 13  1  0
  6  2  1  0
  7  9  2  0
  8  7  1  0
  8  6  1  0
 10  8  1  0
 11 12  2  0
 12  7  1  0
 13 22  1  0
 14 20  1  0
 16 17  1  0
 16 15  1  0
 18 17  1  0
 18 27  1  0
 18 19  1  0
 20 15  1  0
 20 19  1  0
 21 14  2  0
 22 23  1  0
 22 14  1  0
 24 25  2  0
 25 44  1  0
 26 29  1  0
 26 25  1  0
 27 28  1  0
 27 24  1  0
 28 26  2  0
 29 30  1  0
 30 31  2  0
 32 31  1  0
 33 32  2  0
 34 33  1  0
 34 29  2  0
 35 32  1  0
 35 36  1  0
 36 41  2  0
 36 37  1  0
 37 38  2  0
 38 39  1  0
 39 43  1  0
 40 39  2  0
 41 40  1  0
 42 41  1  0
 44 45  1  0
 45 48  1  0
 45 47  1  0
 46 44  2  0
 49 50  1  0
 49 24  1  0
 51 49  1  0
 52  1  1  0
 52 53  1  0
 54 53  1  0
 55 54  1  0
 56 55  1  0
 57 56  1  0
 58 57  1  0
 59 58  1  0
 60 59  1  0
 61 63  1  0
 61 60  1  0
 62 73  2  0
 63 68  1  0
 64 72  1  0
 64 74  1  0
 65 67  1  0
 65 71  1  0
 66 72  1  0
 67 66  1  0
 68 67  2  0
 69 63  2  0
 69 70  1  0
 70 65  2  0
 71 64  1  0
 72 62  1  0
 74 75  1  0
 74 76  2  0
 77 75  1  0
 78 87  2  0
 78 83  1  0
 79 75  1  0
 79 83  1  0
 80 79  1  0
 81 82  1  0
 81 80  1  0
 82 78  1  0
 83 84  2  0
 84 85  1  0
 86 85  2  0
 87 86  1  0
 88 62  1  0
 88 98  1  0
 88 89  1  0
 89 92  1  0
 90 89  1  0
 90 94  1  0
 91 90  2  0
 94 93  1  0
 94 96  1  0
 96 95  1  0
 96 97  1  0
 98101  1  1
 98 99  1  0
100 98  1  0
M  ISO  4  14 100  22 100  60 101  61 101
M  END
>  <TORSDO>  (63) 
F 30

>  <SCORE>  (63) 
-6.207

>  <name>  (63) 
62

>  <ligand_id>  (63) 
62

>  <original_smiles>  (63) 
[H]C([H])=C([H])C(=O)N([H])C([H])(C(=O)N([H])C([H])([H])C([H])([H])OC([H])([H])C([H])([H])C([H])([H])C([H])([H])C([H])([H])C([H])([H])C([H])([H])Oc1c([H])c([H])c2c(c1[H])C([H])([H])N(C(=O)C([H])(N([H])C(=O)C([H])(N([H])C([H])([H])[H])C([H])([H])[H])C(C([H])([H])[H])(C([H])([H])[H])C([H])([H])[H])C([H])(C(=O)N([H])C1([H])c3c([H])c([H])c([H])c([H])c3C([H])([H])C([H])([H])C1([H])[H])C2([H])[H])C([H])([H])N([H])C(=O)N1C([H])([H])C([H])([H])C([H])([H])C([H])(n2nc(-c3c([H])c([H])c(Oc4c([H])c([H])c(F)c([H])c4F)c([H])c3[H])c(C(=O)N([H])[H])c2N([H])[H])C1([H])[H]

>  <smiles>  (63) 
[H]C([H])=C([H])C(=O)N([H])C([H])(C(=O)N([H])C([H])([H])C([H])([H])OC([H])([H])C([H])([H])C([H])([H])C([H])([H])C([H])([H])C([H])([H])C([H])([H])Oc1c([H])c([H])c2c(c1[H])C([H])([H])N(C(=O)C([H])(N([H])C(=O)C([H])(N([H])C([H])([H])[H])C([H])([H])[H])C(C([H])([H])[H])(C([H])([H])[H])C([H])([H])[H])C([H])(C(=O)N([H])C1([H])c3c([H])c([H])c([H])c([H])c3C([H])([H])C([H])([H])C1([H])[H])C2([H])[H])C([H])([H])N([H])C(=O)N1C([H])([H])C([H])([H])C([H])([H])C([H])(n2nc(-c3c([H])c([H])c(Oc4c([H])c([H])c(F)c([H])c4F)c([H])c3[H])c(C(=O)N([H])[H])c2N([H])[H])C1([H])[H]

$$$$
63:0:0
     RDKit          3D

103110  0  0  1  0  0  0  0  0999 V2000
  -26.7500  -18.5930   18.2430 C   0  0  0  0  0  0  0  0  0  0  0  0
  -25.5330  -18.4940   18.7940 N   0  0  0  0  0  0  0  0  0  0  0  0
  -27.0720  -19.5170   17.4890 O   0  0  0  0  0  0  0  0  0  0  0  0
  -25.3600  -17.6670   19.3520 H   0  0  0  0  0  0  0  0  0  0  0  0
  -27.6110  -17.4810   18.6130 C   0  0  0  0  0  0  0  0  0  0  0  0
  -28.7500  -17.6890   19.3480 C   0  0  0  0  0  0  0  0  0  0  0  0
  -27.1500  -16.1370   18.0590 C   0  0  0  0  0  1  0  0  0  0  0  0
  -29.0750  -18.8490   19.9540 O   0  0  0  0  0  0  0  0  0  0  0  0
  -28.4230  -19.5030   19.7380 H   0  0  0  0  0  0  0  0  0  0  0  0
  -29.8950  -16.6910   19.5710 C   0  0  0  0  0  3  0  0  0  0  0  0
  -30.9200  -15.3330   21.4270 C   0  0  0  0  0  0  0  0  0  0  0  0
  -30.9230  -13.0010   20.6520 C   0  0  0  0  0  2  0  0  0  0  0  0
  -30.2310  -13.0070   19.2720 C   0  0  0  0  0  2  0  0  0  0  0  0
  -28.6950  -12.9540   19.4020 C   0  0  0  0  0  2  0  0  0  0  0  0
  -28.1160  -13.8520   20.5310 C   0  0  0  0  0  3  0  0  0  0  0  0
  -28.9660  -13.8200   21.8210 C   0  0  0  0  0  2  0  0  0  0  0  0
  -30.3500  -14.1010   21.4250 N   0  0  0  0  0  0  0  0  0  0  0  0
  -32.1400  -15.5120   21.4970 O   0  0  0  0  0  0  0  0  0  0  0  0
  -30.1030  -16.3260   21.0090 N   0  0  0  0  0  0  0  0  0  0  0  0
  -30.0730  -17.1330   21.6180 H   0  0  0  0  0  0  0  0  0  0  0  0
  -25.6460  -14.4360   20.8220 C   0  0  0  0  0  0  0  0  0  0  0  0
  -24.5410  -13.6510   20.9750 C   0  0  0  0  0  0  0  0  0  0  0  0
  -25.0150  -12.3040   21.0220 C   0  0  0  0  0  0  0  0  0  0  0  0
  -26.7200  -13.5590   20.7740 N   0  0  0  0  0  0  0  0  0  0  0  0
  -26.3380  -12.2740   20.9670 N   0  0  0  0  0  0  0  0  0  0  0  0
  -24.2890  -11.0350   21.0700 C   0  0  0  0  0  0  0  0  0  0  0  0
  -24.6010  -10.0400   22.0180 C   0  0  0  0  0  3  0  0  0  0  0  0
  -23.8720   -8.8320   22.0560 C   0  0  0  0  0  3  0  0  0  0  0  0
  -22.8190   -8.6160   21.1350 C   0  0  0  0  0  0  0  0  0  0  0  0
  -22.5170   -9.6120   20.1850 C   0  0  0  0  0  3  0  0  0  0  0  0
  -23.2570  -10.8040   20.1400 C   0  0  0  0  0  3  0  0  0  0  0  0
  -22.0800   -7.4600   21.0660 O   0  0  0  0  0  0  0  0  0  0  0  0
  -21.9000   -6.6650   22.1680 C   0  0  0  0  0  0  0  0  0  0  0  0
  -21.3510   -7.1610   23.3720 C   0  0  0  0  0  3  0  0  0  0  0  0
  -21.1110   -6.2880   24.4490 C   0  0  0  0  0  3  0  0  0  0  0  0
  -21.4210   -4.9190   24.3290 C   0  0  0  0  0  0  0  0  0  0  0  0
  -21.9710   -4.4230   23.1360 C   0  0  0  0  0  3  0  0  0  0  0  0
  -22.2040   -5.2900   22.0530 C   0  0  0  0  0  0  0  0  0  0  0  0
  -22.7060   -4.8020   20.8920 F   0  0  0  0  0  0  0  0  0  0  0  0
  -21.1850   -4.0780   25.3610 F   0  0  0  0  0  0  0  0  0  0  0  0
  -23.1240  -14.1290   21.0130 C   0  0  0  0  0  0  0  0  0  0  0  0
  -22.2850  -13.4900   21.8130 N   0  0  0  0  0  0  0  0  0  0  0  0
  -22.7640  -15.1250   20.3870 O   0  0  0  0  0  0  0  0  0  0  0  0
  -22.6290  -12.7630   22.4230 H   0  0  0  0  0  0  0  0  0  0  0  0
  -21.3560  -13.8680   21.9470 H   0  0  0  0  0  0  0  0  0  0  0  0
  -25.8140  -15.8110   20.7220 N   0  0  0  0  0  0  0  0  0  0  0  0
  -25.0520  -16.4580   20.8680 H   0  0  0  0  0  0  0  0  0  0  0  0
  -26.7170  -16.2400   20.5840 H   0  0  0  0  0  0  0  0  0  0  0  0
  -31.1520  -17.2450   18.8250 C   0  0  0  0  0  2  0  0  0  0  0  0
  -32.0720  -16.1770   18.2140 C   0  0  0  0  0  0  0  0  0  0  0  0
  -31.8690  -15.7810   16.9620 N   0  0  0  0  0  0  0  0  0  0  0  0
  -33.0060  -15.7120   18.8620 O   0  0  0  0  0  0  0  0  0  0  0  0
  -31.1150  -16.1380   16.3890 H   0  0  0  0  0  0  0  0  0  0  0  0
  -32.5120  -15.0990   16.5790 H   0  0  0  0  0  0  0  0  0  0  0  0
  -24.4930  -19.5190   18.7640 C   0  0  0  0  0  2  0  0  0  0  0  0
  -24.9250  -20.7270   19.6290 C   0  0  0  0  0  2  0  0  0  0  0  0
  -24.5220  -22.0970   19.0500 C   0  0  0  0  0  2  0  0  0  0  0  0
  -25.1500  -23.1730   19.7500 O   0  0  0  0  0  0  0  0  0  0  0  0
  -26.5440  -23.3260   19.4850 C   0  0  0  0  0  2  0  0  0  0  0  0
  -27.0560  -24.5490   20.2590 C   0  0  0  0  0  2  0  0  0  0  0  0
  -28.5390  -24.8890   20.0130 C   0  0  0  0  0  2  0  0  0  0  0  0
  -28.9320  -26.3140   20.4450 C   0  0  0  0  0  2  0  0  0  0  0  0
  -28.6070  -27.2360   19.4090 O   0  0  0  0  0  0  0  0  0  0  0  0
  -24.6110  -31.7750   23.1650 C   0  0  0  0  0  0  0  0  0  0  0  0
  -27.4000  -27.8650   19.5660 C   0  0  0  0  0  0  0  0  0  0  0  0
  -23.4270  -30.4530   21.4450 C   0  0  0  0  0  3  0  0  0  0  0  0
  -24.9090  -29.1530   19.8260 C   0  0  0  0  0  0  0  0  0  0  0  0
  -25.9110  -31.0000   21.1890 C   0  0  0  0  0  2  0  0  0  0  0  0
  -26.0520  -29.7040   20.4260 C   0  0  0  0  0  0  0  0  0  0  0  0
  -27.2990  -29.0560   20.3080 C   0  0  0  0  0  3  0  0  0  0  0  0
  -26.2620  -27.3480   18.9230 C   0  0  0  0  0  3  0  0  0  0  0  0
  -25.0050  -27.9700   19.0740 C   0  0  0  0  0  3  0  0  0  0  0  0
  -23.6160  -29.9140   20.0020 C   0  0  0  0  0  2  0  0  0  0  0  0
  -24.6680  -31.0870   21.9900 N   0  0  0  0  0  0  0  0  0  0  0  0
  -23.5390  -31.9210   23.7760 O   0  0  0  0  0  0  0  0  0  0  0  0
  -22.8830  -29.3060   22.3270 C   0  0  0  0  0  0  0  0  0  0  0  0
  -21.5850  -28.9930   22.1710 N   0  0  0  0  0  0  0  0  0  0  0  0
  -23.6250  -28.6990   23.1030 O   0  0  0  0  0  0  0  0  0  0  0  0
  -21.0410  -29.5390   21.5190 H   0  0  0  0  0  0  0  0  0  0  0  0
  -18.3750  -27.3690   22.4820 C   0  0  0  0  0  0  0  0  0  0  0  0
  -20.8690  -27.9270   22.8700 C   0  0  0  0  0  3  0  0  0  0  0  0
  -21.1720  -26.5490   22.2390 C   0  0  0  0  0  2  0  0  0  0  0  0
  -20.1560  -26.1400   21.1670 C   0  0  0  0  0  2  0  0  0  0  0  0
  -18.7450  -26.0830   21.7590 C   0  0  0  0  0  2  0  0  0  0  0  0
  -19.3720  -28.2420   22.9900 C   0  0  0  0  0  0  0  0  0  0  0  0
  -18.9740  -29.4420   23.6200 C   0  0  0  0  0  3  0  0  0  0  0  0
  -17.6110  -29.7700   23.7480 C   0  0  0  0  0  3  0  0  0  0  0  0
  -16.6290  -28.8920   23.2600 C   0  0  0  0  0  3  0  0  0  0  0  0
  -17.0100  -27.6940   22.6320 C   0  0  0  0  0  3  0  0  0  0  0  0
  -25.8810  -32.4280   23.7930 C   0  0  0  0  0  3  0  0  0  0  0  0
  -25.5380  -33.8080   24.1530 N   0  0  0  0  0  0  0  0  0  0  0  0
  -25.8580  -34.8850   23.4210 C   0  0  0  0  0  0  0  0  0  0  0  0
  -26.5420  -34.8170   22.3960 O   0  0  0  0  0  0  0  0  0  0  0  0
  -24.9230  -33.9320   24.9450 H   0  0  0  0  0  0  0  0  0  0  0  0
  -24.0970  -36.6410   23.0740 C   0  0  0  0  0  1  0  0  0  0  0  0
  -25.3350  -36.2520   23.8970 C   0  0  0  0  0  3  0  0  0  0  0  0
  -27.4420  -37.1570   24.7730 C   0  0  0  0  0  1  0  0  0  0  0  0
  -26.3470  -37.3270   23.8210 N   0  0  0  0  0  0  0  0  0  0  0  0
  -25.9250  -38.2360   23.9840 H   0  0  0  0  0  0  0  0  0  0  0  0
  -26.4290  -31.6420   25.0490 C   0  0  1  0  0  0  0  0  0  0  0  0
  -25.3500  -31.3550   26.1210 C   0  0  0  0  0  1  0  0  0  0  0  0
  -27.0400  -30.2880   24.6240 C   0  0  0  0  0  1  0  0  0  0  0  0
  -27.5740  -32.4450   25.7100 C   0  0  0  0  0  1  0  0  0  0  0  0
  1  5  1  0
  1  2  1  0
  2  4  1  0
  3  1  2  0
  5  6  2  0
  6 10  1  0
  6  8  1  0
  7  5  1  0
  9  8  1  0
 10 49  1  0
 10 19  1  0
 11 18  2  0
 12 17  1  0
 13 14  1  0
 13 12  1  0
 15 14  1  0
 15 24  1  0
 15 16  1  0
 17 11  1  0
 17 16  1  0
 19 11  1  0
 19 20  1  0
 21 22  2  0
 22 41  1  0
 22 23  1  0
 23 26  1  0
 24 21  1  0
 24 25  1  0
 25 23  2  0
 26 27  1  0
 27 28  2  0
 29 28  1  0
 30 29  2  0
 31 30  1  0
 31 26  2  0
 32 29  1  0
 32 33  1  0
 33 34  1  0
 34 35  2  0
 36 35  1  0
 36 40  1  0
 37 36  2  0
 38 33  2  0
 38 37  1  0
 39 38  1  0
 41 42  1  0
 42 45  1  0
 42 44  1  0
 43 41  2  0
 46 21  1  0
 46 47  1  0
 48 46  1  0
 50 49  1  0
 50 52  2  0
 51 50  1  0
 53 51  1  0
 54 51  1  0
 55  2  1  0
 55 56  1  0
 57 56  1  0
 57 58  1  0
 59 58  1  0
 59 60  1  0
 61 60  1  0
 61 62  1  0
 63 65  1  0
 63 62  1  0
 64 75  2  0
 65 70  1  0
 66 74  1  0
 66 76  1  0
 67 73  1  0
 67 69  1  0
 68 74  1  0
 69 68  1  0
 70 69  2  0
 71 72  1  0
 71 65  2  0
 72 67  2  0
 73 66  1  0
 74 64  1  0
 76 78  2  0
 77 76  1  0
 79 77  1  0
 80 89  2  0
 80 85  1  0
 81 77  1  0
 81 85  1  0
 82 81  1  0
 83 84  1  0
 83 82  1  0
 84 80  1  0
 85 86  2  0
 86 87  1  0
 88 87  2  0
 89 88  1  0
 90 64  1  0
 90 91  1  0
 90100  1  0
 91 94  1  0
 92 96  1  0
 92 91  1  0
 93 92  2  0
 96 95  1  0
 98 96  1  0
 98 99  1  0
 98 97  1  0
100103  1  1
100101  1  0
102100  1  0
M  ISO  4  11 100  19 100  62 101  63 101
M  END
>  <TORSDO>  (64) 
F 29

>  <SCORE>  (64) 
-4.763

>  <name>  (64) 
63

>  <ligand_id>  (64) 
63

>  <original_smiles>  (64) 
[H]OC(=C(C(=O)N([H])C([H])([H])C([H])([H])C([H])([H])OC([H])([H])C([H])([H])C([H])([H])C([H])([H])Oc1c([H])c([H])c2c(c1[H])C([H])([H])N(C(=O)C([H])(N([H])C(=O)C([H])(N([H])C([H])([H])[H])C([H])([H])[H])C(C([H])([H])[H])(C([H])([H])[H])C([H])([H])[H])C([H])(C(=O)N([H])C1([H])c3c([H])c([H])c([H])c([H])c3C([H])([H])C([H])([H])C1([H])[H])C2([H])[H])C([H])([H])[H])C([H])(N([H])C(=O)N1C([H])([H])C([H])([H])C([H])([H])C([H])(n2nc(-c3c([H])c([H])c(Oc4c([H])c([H])c(F)c([H])c4F)c([H])c3[H])c(C(=O)N([H])[H])c2N([H])[H])C1([H])[H])C([H])([H])C(=O)N([H])[H]

>  <smiles>  (64) 
[H]OC(=C(C(=O)N([H])C([H])([H])C([H])([H])C([H])([H])OC([H])([H])C([H])([H])C([H])([H])C([H])([H])Oc1c([H])c([H])c2c(c1[H])C([H])([H])N(C(=O)C([H])(N([H])C(=O)C([H])(N([H])C([H])([H])[H])C([H])([H])[H])C(C([H])([H])[H])(C([H])([H])[H])C([H])([H])[H])C([H])(C(=O)N([H])C1([H])c3c([H])c([H])c([H])c([H])c3C([H])([H])C([H])([H])C1([H])[H])C2([H])[H])C([H])([H])[H])C([H])(N([H])C(=O)N1C([H])([H])C([H])([H])C([H])([H])C([H])(n2nc(-c3c([H])c([H])c(Oc4c([H])c([H])c(F)c([H])c4F)c([H])c3[H])c(C(=O)N([H])[H])c2N([H])[H])C1([H])[H])C([H])([H])C(=O)N([H])[H]

$$$$
65:0:0
     RDKit          3D

 98102  0  0  1  0  0  0  0  0999 V2000
  -26.1020  -19.3730   19.3240 C   0  0  0  0  0  0  0  0  0  0  0  0
  -25.9100  -18.1910   18.6920 N   0  0  0  0  0  0  0  0  0  0  0  0
  -25.9990  -19.4760   20.5460 O   0  0  0  0  0  0  0  0  0  0  0  0
  -25.9890  -18.2080   17.6830 H   0  0  0  0  0  0  0  0  0  0  0  0
  -25.5230  -16.8880   19.2840 C   0  0  0  0  0  2  0  0  0  0  0  0
  -26.6510  -15.8210   19.1760 C   0  0  0  0  0  2  0  0  0  0  0  0
  -26.2500  -14.2970   19.0890 C   0  0  0  0  0  2  0  0  0  0  0  0
  -27.5290  -13.4340   18.8840 C   0  0  0  0  0  2  0  0  0  0  0  0
  -27.5820  -11.9160   18.4530 C   0  0  0  0  0  2  0  0  0  0  0  0
  -28.9510  -11.3860   18.3870 O   0  0  0  0  0  0  0  0  0  0  0  0
  -29.3300  -10.0580   18.8800 C   0  0  0  0  0  2  0  0  0  0  0  0
  -30.7840   -9.6360   19.4630 C   0  0  0  0  0  2  0  0  0  0  0  0
  -32.5030  -10.8280   21.7020 C   0  0  2  0  0  0  0  0  0  0  0  0
  -33.6140  -10.2500   20.6840 C   0  0  0  0  0  1  0  0  0  0  0  0
  -32.8570  -11.5280   19.4820 C   0  0  0  0  0  1  0  0  0  0  0  0
  -31.3550  -12.3460   20.0070 C   0  0  0  0  0  2  0  0  0  0  0  0
  -30.5120  -12.1110   21.6070 C   0  0  0  0  0  2  0  0  0  0  0  0
  -31.3550  -10.9670   22.8310 C   0  0  0  0  0  1  0  0  0  0  0  0
  -32.7830  -10.0780   22.2750 N   0  0  0  0  0  1  0  0  0  0  0  0
  -33.2150  -11.9960   21.9720 O   0  0  0  0  0  1  0  0  0  0  0  0
  -31.4150   -9.8900   20.8550 N   0  0  0  0  0  2  0  0  0  0  0  0
  -31.2840   -9.0590   21.4110 H   0  0  0  0  0  0  0  0  0  0  0  0
  -28.0990  -12.9700   21.6660 C   0  0  0  0  0  0  0  0  0  0  0  0
  -26.8530  -12.4090   21.7290 C   0  0  0  0  0  0  0  0  0  0  0  0
  -27.0480  -10.9980   21.7760 C   0  0  0  0  0  0  0  0  0  0  0  0
  -29.0240  -11.9460   21.6610 N   0  0  0  0  0  0  0  0  0  0  0  0
  -28.3660  -10.7570   21.8600 N   0  0  0  0  0  0  0  0  0  0  0  0
  -26.0470   -9.9010   21.6950 C   0  0  0  0  0  0  0  0  0  0  0  0
  -25.8800   -8.9590   22.7350 C   0  0  0  0  0  3  0  0  0  0  0  0
  -24.8830   -7.9580   22.6580 C   0  0  0  0  0  3  0  0  0  0  0  0
  -24.0210   -7.8880   21.5380 C   0  0  0  0  0  0  0  0  0  0  0  0
  -24.2010   -8.8110   20.4900 C   0  0  0  0  0  3  0  0  0  0  0  0
  -25.2040   -9.7980   20.5640 C   0  0  0  0  0  3  0  0  0  0  0  0
  -23.0350   -6.9390   21.3760 O   0  0  0  0  0  0  0  0  0  0  0  0
  -22.1570   -6.6270   22.3830 C   0  0  0  0  0  0  0  0  0  0  0  0
  -21.3540   -7.6090   23.0060 C   0  0  0  0  0  3  0  0  0  0  0  0
  -20.4170   -7.2330   23.9890 C   0  0  0  0  0  3  0  0  0  0  0  0
  -20.2710   -5.8790   24.3460 C   0  0  0  0  0  0  0  0  0  0  0  0
  -21.0610   -4.9000   23.7210 C   0  0  0  0  0  3  0  0  0  0  0  0
  -21.9990   -5.2700   22.7410 C   0  0  0  0  0  0  0  0  0  0  0  0
  -22.7400   -4.3160   22.1270 F   0  0  0  0  0  0  0  0  0  0  0  0
  -19.3680   -5.5200   25.2880 F   0  0  0  0  0  0  0  0  0  0  0  0
  -25.5540  -13.1540   21.6750 C   0  0  0  0  0  0  0  0  0  0  0  0
  -24.5190  -12.6280   22.3170 N   0  0  0  0  0  0  0  0  0  0  0  0
  -25.4660  -14.2430   21.1100 O   0  0  0  0  0  0  0  0  0  0  0  0
  -24.6040  -11.7500   22.8080 H   0  0  0  0  0  0  0  0  0  0  0  0
  -23.6350  -13.1170   22.3280 H   0  0  0  0  0  0  0  0  0  0  0  0
  -28.5280  -14.2900   21.6160 N   0  0  0  0  0  0  0  0  0  0  0  0
  -27.8800  -15.0670   21.6000 H   0  0  0  0  0  0  0  0  0  0  0  0
  -29.4960  -14.5810   21.5840 H   0  0  0  0  0  0  0  0  0  0  0  0
  -26.4700  -20.6200   18.4690 C   0  0  0  0  0  2  0  0  0  0  0  0
  -26.6210  -21.9750   19.2480 C   0  0  0  0  0  2  0  0  0  0  0  0
  -27.1350  -23.1170   18.4170 N   0  0  0  0  0  4  0  0  0  0  0  0
  -26.4320  -23.3320   17.7250 H   0  0  0  0  0  0  0  0  0  0  0  0
  -27.9480  -22.7910   17.9180 H   0  0  0  0  0  0  0  0  0  0  0  0
  -27.5020  -24.3870   19.1420 C   0  0  0  0  0  2  0  0  0  0  0  0
  -27.9080  -25.5810   18.1940 C   0  0  0  0  0  2  0  0  0  0  0  0
  -28.0290  -26.9160   18.7780 O   0  0  0  0  0  0  0  0  0  0  0  0
  -24.5590  -31.4400   23.1650 C   0  0  0  0  0  0  0  0  0  0  0  0
  -26.8750  -27.6360   19.0590 C   0  0  0  0  0  0  0  0  0  0  0  0
  -23.1960  -30.2630   21.4820 C   0  0  0  0  0  3  0  0  0  0  0  0
  -24.4890  -29.0580   19.6470 C   0  0  0  0  0  0  0  0  0  0  0  0
  -25.6730  -30.7550   21.0340 C   0  0  0  0  0  2  0  0  0  0  0  0
  -25.7080  -29.5060   20.1700 C   0  0  0  0  0  0  0  0  0  0  0  0
  -26.9070  -28.7950   19.8870 C   0  0  0  0  0  3  0  0  0  0  0  0
  -25.6250  -27.2310   18.5390 C   0  0  0  0  0  3  0  0  0  0  0  0
  -24.4450  -27.9200   18.8330 C   0  0  0  0  0  3  0  0  0  0  0  0
  -23.2420  -29.8400   19.9930 C   0  0  0  0  0  2  0  0  0  0  0  0
  -24.5040  -30.8270   21.9510 N   0  0  0  0  0  0  0  0  0  0  0  0
  -23.5480  -31.5650   23.8700 O   0  0  0  0  0  0  0  0  0  0  0  0
  -22.7110  -29.0600   22.3250 C   0  0  0  0  0  0  0  0  0  0  0  0
  -21.4280  -28.6940   22.1670 N   0  0  0  0  0  0  0  0  0  0  0  0
  -23.4870  -28.4630   23.0770 O   0  0  0  0  0  0  0  0  0  0  0  0
  -20.8530  -29.2440   21.5440 H   0  0  0  0  0  0  0  0  0  0  0  0
  -18.3660  -26.7770   22.2930 C   0  0  0  0  0  0  0  0  0  0  0  0
  -20.7650  -27.5730   22.8330 C   0  0  0  0  0  3  0  0  0  0  0  0
  -21.2340  -26.2190   22.2530 C   0  0  0  0  0  2  0  0  0  0  0  0
  -20.3350  -25.7010   21.1240 C   0  0  0  0  0  2  0  0  0  0  0  0
  -18.8990  -25.5200   21.6230 C   0  0  0  0  0  2  0  0  0  0  0  0
  -19.2420  -27.7470   22.8480 C   0  0  0  0  0  0  0  0  0  0  0  0
  -18.6960  -28.9100   23.4300 C   0  0  0  0  0  3  0  0  0  0  0  0
  -17.3040  -29.1140   23.4610 C   0  0  0  0  0  3  0  0  0  0  0  0
  -16.4410  -28.1470   22.9210 C   0  0  0  0  0  3  0  0  0  0  0  0
  -16.9710  -26.9790   22.3450 C   0  0  0  0  0  3  0  0  0  0  0  0
  -25.8900  -32.0340   23.7190 C   0  0  0  0  0  3  0  0  0  0  0  0
  -25.6140  -33.4140   24.1420 N   0  0  0  0  0  0  0  0  0  0  0  0
  -25.9060  -34.5030   23.4170 C   0  0  0  0  0  0  0  0  0  0  0  0
  -26.5080  -34.4480   22.3420 O   0  0  0  0  0  0  0  0  0  0  0  0
  -25.0630  -33.5300   24.9810 H   0  0  0  0  0  0  0  0  0  0  0  0
  -24.1700  -36.3170   23.2670 C   0  0  0  0  0  1  0  0  0  0  0  0
  -25.4600  -35.8690   23.9730 C   0  0  0  0  0  3  0  0  0  0  0  0
  -27.6490  -36.7070   24.7050 C   0  0  0  0  0  1  0  0  0  0  0  0
  -26.4910  -36.9210   23.8400 N   0  0  0  0  0  0  0  0  0  0  0  0
  -26.1030  -37.8370   24.0490 H   0  0  0  0  0  0  0  0  0  0  0  0
  -26.4930  -31.1940   24.9110 C   0  0  1  0  0  0  0  0  0  0  0  0
  -25.4860  -30.9320   26.0560 C   0  0  0  0  0  1  0  0  0  0  0  0
  -27.0100  -29.8250   24.4090 C   0  0  0  0  0  1  0  0  0  0  0  0
  -27.7120  -31.9360   25.5050 C   0  0  0  0  0  1  0  0  0  0  0  0
  1  3  2  0
  2  5  1  0
  2  1  1  0
  4  2  1  0
  6  5  1  0
  7  6  1  0
  8  7  1  0
  9  8  1  0
 10  9  1  0
 10 11  1  0
 11 12  1  0
 12 21  1  0
 13 20  1  0
 13 19  1  0
 13 18  1  6
 14 13  1  0
 15 16  1  0
 16 17  1  0
 17 26  1  0
 21 22  1  0
 23 24  2  0
 24 25  1  0
 25 27  2  0
 26 23  1  0
 26 27  1  0
 28 25  1  0
 28 29  1  0
 30 29  2  0
 31 30  1  0
 32 33  1  0
 32 31  2  0
 33 28  2  0
 34 31  1  0
 34 35  1  0
 35 40  2  0
 35 36  1  0
 36 37  2  0
 37 38  1  0
 38 42  1  0
 39 38  2  0
 40 39  1  0
 41 40  1  0
 43 24  1  0
 43 44  1  0
 44 47  1  0
 44 46  1  0
 45 43  2  0
 48 23  1  0
 49 48  1  0
 50 48  1  0
 51 52  1  0
 51  1  1  0
 53 56  1  0
 53 52  1  0
 54 53  1  0
 55 53  1  0
 57 58  1  0
 57 56  1  0
 58 60  1  0
 59 70  2  0
 60 65  1  0
 61 69  1  0
 61 71  1  0
 62 68  1  0
 62 64  1  0
 63 69  1  0
 64 63  1  0
 65 64  2  0
 66 67  1  0
 66 60  2  0
 67 62  2  0
 68 61  1  0
 69 59  1  0
 71 73  2  0
 72 71  1  0
 74 72  1  0
 75 84  2  0
 75 80  1  0
 76 72  1  0
 76 80  1  0
 77 76  1  0
 78 79  1  0
 78 77  1  0
 79 75  1  0
 80 81  2  0
 81 82  1  0
 83 82  2  0
 84 83  1  0
 85 59  1  0
 85 86  1  0
 85 95  1  0
 86 89  1  0
 87 91  1  0
 87 86  1  0
 88 87  2  0
 91 90  1  0
 93 91  1  0
 93 94  1  0
 93 92  1  0
 95 98  1  1
 95 96  1  0
 97 95  1  0
M  ISO  4  13 100  21 100  57 101  58 101
M  END
>  <TORSDO>  (65) 
F 29

>  <SCORE>  (65) 
-2.483

>  <name>  (65) 
65

>  <ligand_id>  (65) 
65

>  <original_smiles>  (65) 
[H]c1c([H])c([H])c2c(c1[H])C([H])([H])C([H])([H])C([H])([H])C2([H])N([H])C(=O)C1([H])N(C(=O)C([H])(N([H])C(=O)C([H])(N([H])C([H])([H])[H])C([H])([H])[H])C(C([H])([H])[H])(C([H])([H])[H])C([H])([H])[H])C([H])([H])c2c([H])c(OC([H])([H])C([H])([H])[N+]([H])([H])C([H])([H])C([H])([H])C(=O)N([H])C([H])([H])C([H])([H])C([H])([H])C([H])([H])C([H])([H])OC([H])([H])C([H])([H])N([H])C(=O)N3C([H])([H])C([H])([H])C([H])([H])C([H])(n4nc(-c5c([H])c([H])c(Oc6c([H])c([H])c(F)c([H])c6F)c([H])c5[H])c(C(=O)N([H])[H])c4N([H])[H])C3([H])[H])c([H])c([H])c2C1([H])[H]

>  <smiles>  (65) 
[H]c1c([H])c([H])c2c(c1[H])C([H])([H])C([H])([H])C([H])([H])C2([H])N([H])C(=O)C1([H])N(C(=O)C([H])(N([H])C(=O)C([H])(N([H])C([H])([H])[H])C([H])([H])[H])C(C([H])([H])[H])(C([H])([H])[H])C([H])([H])[H])C([H])([H])c2c([H])c(OC([H])([H])C([H])([H])[N+]([H])([H])C([H])([H])C([H])([H])C(=O)N([H])C([H])([H])C([H])([H])C([H])([H])C([H])([H])C([H])([H])OC([H])([H])C([H])([H])N([H])C(=O)N3C([H])([H])C([H])([H])C([H])([H])C([H])(n4nc(-c5c([H])c([H])c(Oc6c([H])c([H])c(F)c([H])c6F)c([H])c5[H])c(C(=O)N([H])[H])c4N([H])[H])C3([H])[H])c([H])c([H])c2C1([H])[H]

$$$$
66:0:0
     RDKit          3D

 96103  0  0  1  0  0  0  0  0999 V2000
  -31.8300  -22.1780   17.2830 C   0  0  0  0  0  2  0  0  0  0  0  0
  -33.0250  -21.2160   17.1770 C   0  0  0  0  0  2  0  0  0  0  0  0
  -32.6600  -19.8800   16.4960 C   0  0  0  0  0  2  0  0  0  0  0  0
  -32.6360  -18.6590   17.4360 C   0  0  0  0  0  2  0  0  0  0  0  0
  -31.5780  -18.7400   18.4660 N   0  0  0  0  0  4  0  0  0  0  0  0
  -30.6850  -18.8540   18.0150 H   0  0  0  0  0  0  0  0  0  0  0  0
  -31.7490  -19.5520   19.0370 H   0  0  0  0  0  0  0  0  0  0  0  0
  -31.5200  -17.5580   19.3510 C   0  0  0  0  0  2  0  0  0  0  0  0
  -30.5460  -17.7410   20.5360 C   0  0  0  0  0  2  0  0  0  0  0  0
  -30.6590  -16.6620   21.6400 C   0  0  0  0  0  2  0  0  0  0  0  0
  -30.7260  -14.3970   20.5730 C   0  0  0  0  0  0  0  0  0  0  0  0
  -30.3650  -12.3020   19.3320 C   0  0  0  0  0  2  0  0  0  0  0  0
  -29.4290  -12.5500   18.1330 C   0  0  0  0  0  2  0  0  0  0  0  0
  -27.9530  -12.4340   18.5570 C   0  0  0  0  0  2  0  0  0  0  0  0
  -27.6290  -13.2560   19.8340 C   0  0  0  0  0  3  0  0  0  0  0  0
  -28.6710  -12.9820   20.9400 C   0  0  0  0  0  2  0  0  0  0  0  0
  -30.0060  -13.2630   20.3850 N   0  0  0  0  0  0  0  0  0  0  0  0
  -31.8320  -14.5930   20.0650 O   0  0  0  0  0  0  0  0  0  0  0  0
  -30.1080  -15.3570   21.2740 N   0  0  0  0  0  0  0  0  0  0  0  0
  -29.1930  -15.1240   21.6340 H   0  0  0  0  0  0  0  0  0  0  0  0
  -25.2320  -13.8940   20.5210 C   0  0  0  0  0  0  0  0  0  0  0  0
  -24.1520  -13.1350   20.8850 C   0  0  0  0  0  0  0  0  0  0  0  0
  -24.5990  -11.7790   20.8640 C   0  0  0  0  0  0  0  0  0  0  0  0
  -26.2700  -13.0010   20.3020 N   0  0  0  0  0  0  0  0  0  0  0  0
  -25.8900  -11.7240   20.5630 N   0  0  0  0  0  0  0  0  0  0  0  0
  -23.8580  -10.5240   21.0550 C   0  0  0  0  0  0  0  0  0  0  0  0
  -24.2870   -9.5480   21.9810 C   0  0  0  0  0  3  0  0  0  0  0  0
  -23.5490   -8.3570   22.1600 C   0  0  0  0  0  3  0  0  0  0  0  0
  -22.3690   -8.1350   21.4110 C   0  0  0  0  0  0  0  0  0  0  0  0
  -21.9580   -9.1000   20.4740 C   0  0  0  0  0  3  0  0  0  0  0  0
  -22.6960  -10.2830   20.2940 C   0  0  0  0  0  3  0  0  0  0  0  0
  -21.6040   -6.9980   21.4980 O   0  0  0  0  0  0  0  0  0  0  0  0
  -21.5680   -6.2410   22.6420 C   0  0  0  0  0  0  0  0  0  0  0  0
  -21.1870   -6.7890   23.8860 C   0  0  0  0  0  3  0  0  0  0  0  0
  -21.0960   -5.9600   25.0220 C   0  0  0  0  0  3  0  0  0  0  0  0
  -21.3770   -4.5840   24.9160 C   0  0  0  0  0  0  0  0  0  0  0  0
  -21.7500   -4.0350   23.6760 C   0  0  0  0  0  3  0  0  0  0  0  0
  -21.8420   -4.8610   22.5420 C   0  0  0  0  0  0  0  0  0  0  0  0
  -22.1820   -4.3250   21.3460 F   0  0  0  0  0  0  0  0  0  0  0  0
  -21.2830   -3.7860   26.0050 F   0  0  0  0  0  0  0  0  0  0  0  0
  -22.7580  -13.6280   21.1480 C   0  0  0  0  0  0  0  0  0  0  0  0
  -22.0180  -12.9430   22.0140 N   0  0  0  0  0  0  0  0  0  0  0  0
  -22.3330  -14.6540   20.6190 O   0  0  0  0  0  0  0  0  0  0  0  0
  -22.3730  -12.1110   22.4630 H   0  0  0  0  0  0  0  0  0  0  0  0
  -21.0830  -13.2560   22.2320 H   0  0  0  0  0  0  0  0  0  0  0  0
  -25.4150  -15.2610   20.3390 N   0  0  0  0  0  0  0  0  0  0  0  0
  -24.6620  -15.9320   20.4390 H   0  0  0  0  0  0  0  0  0  0  0  0
  -26.2770  -15.6820   20.0150 H   0  0  0  0  0  0  0  0  0  0  0  0
  -32.1660  -23.4990   18.0020 C   0  0  0  0  0  2  0  0  0  0  0  0
  -31.0610  -24.4660   17.8560 N   0  0  0  0  0  4  0  0  0  0  0  0
  -30.2080  -24.0080   18.1290 H   0  0  0  0  0  0  0  0  0  0  0  0
  -30.9900  -24.7020   16.8780 H   0  0  0  0  0  0  0  0  0  0  0  0
  -31.2100  -25.7180   18.6330 C   0  0  0  0  0  2  0  0  0  0  0  0
  -30.1210  -26.7430   18.2770 C   0  0  0  0  0  2  0  0  0  0  0  0
  -28.6950  -26.3430   18.6880 C   0  0  0  0  0  2  0  0  0  0  0  0
  -28.4100  -26.7860   20.0200 O   0  0  0  0  0  0  0  0  0  0  0  0
  -24.5890  -31.8780   23.2360 C   0  0  0  0  0  0  0  0  0  0  0  0
  -27.2140  -27.4510   20.1350 C   0  0  0  0  0  0  0  0  0  0  0  0
  -23.3700  -30.4720   21.6050 C   0  0  0  0  0  3  0  0  0  0  0  0
  -24.8100  -28.9200   20.1920 C   0  0  0  0  0  0  0  0  0  0  0  0
  -25.8920  -30.8280   21.3940 C   0  0  0  0  0  2  0  0  0  0  0  0
  -25.9700  -29.4510   20.7720 C   0  0  0  0  0  0  0  0  0  0  0  0
  -27.1740  -28.7170   20.7560 C   0  0  0  0  0  3  0  0  0  0  0  0
  -26.0280  -26.9080   19.5930 C   0  0  0  0  0  3  0  0  0  0  0  0
  -24.8290  -27.6410   19.6120 C   0  0  0  0  0  3  0  0  0  0  0  0
  -23.5710  -29.7820   20.2310 C   0  0  0  0  0  2  0  0  0  0  0  0
  -24.6360  -31.0740   22.1370 N   0  0  0  0  0  0  0  0  0  0  0  0
  -23.5130  -32.1560   23.7810 O   0  0  0  0  0  0  0  0  0  0  0  0
  -22.7250  -29.4550   22.5730 C   0  0  0  0  0  0  0  0  0  0  0  0
  -21.4020  -29.2670   22.4460 N   0  0  0  0  0  0  0  0  0  0  0  0
  -23.4120  -28.8370   23.3920 O   0  0  0  0  0  0  0  0  0  0  0  0
  -20.9110  -29.8170   21.7550 H   0  0  0  0  0  0  0  0  0  0  0  0
  -18.0310  -28.0660   22.9360 C   0  0  0  0  0  0  0  0  0  0  0  0
  -20.5850  -28.3320   23.2190 C   0  0  0  0  0  3  0  0  0  0  0  0
  -20.6960  -26.8970   22.6540 C   0  0  0  0  0  2  0  0  0  0  0  0
  -19.6000  -26.5630   21.6380 C   0  0  0  0  0  2  0  0  0  0  0  0
  -18.2140  -26.7110   22.2740 C   0  0  0  0  0  2  0  0  0  0  0  0
  -19.1440  -28.8350   23.3650 C   0  0  0  0  0  0  0  0  0  0  0  0
  -18.9220  -30.1040   23.9410 C   0  0  0  0  0  3  0  0  0  0  0  0
  -17.6150  -30.6050   24.0950 C   0  0  0  0  0  3  0  0  0  0  0  0
  -16.5140  -29.8320   23.6850 C   0  0  0  0  0  3  0  0  0  0  0  0
  -16.7240  -28.5650   23.1100 C   0  0  0  0  0  3  0  0  0  0  0  0
  -25.8820  -32.5060   23.8450 C   0  0  0  0  0  3  0  0  0  0  0  0
  -25.5790  -33.9050   24.1720 N   0  0  0  0  0  0  0  0  0  0  0  0
  -25.9120  -34.9530   23.4060 C   0  0  0  0  0  0  0  0  0  0  0  0
  -26.5810  -34.8450   22.3770 O   0  0  0  0  0  0  0  0  0  0  0  0
  -24.9840  -34.0620   24.9720 H   0  0  0  0  0  0  0  0  0  0  0  0
  -24.1890  -36.7490   23.0410 C   0  0  0  0  0  1  0  0  0  0  0  0
  -25.4270  -36.3440   23.8580 C   0  0  0  0  0  3  0  0  0  0  0  0
  -27.5670  -37.2210   24.6860 C   0  0  0  0  0  1  0  0  0  0  0  0
  -26.4640  -37.3940   23.7450 N   0  0  0  0  0  0  0  0  0  0  0  0
  -26.0590  -38.3140   23.8940 H   0  0  0  0  0  0  0  0  0  0  0  0
  -26.4060  -31.7350   25.1190 C   0  0  1  0  0  0  0  0  0  0  0  0
  -25.3190  -31.5020   26.1930 C   0  0  0  0  0  1  0  0  0  0  0  0
  -26.9830  -30.3560   24.7240 C   0  0  0  0  0  1  0  0  0  0  0  0
  -27.5630  -32.5270   25.7710 C   0  0  0  0  0  1  0  0  0  0  0  0
  1 49  1  0
  2  1  1  0
  3  2  1  0
  3  4  1  0
  4  5  1  0
  5  7  1  0
  5  8  1  0
  6  5  1  0
  8  9  1  0
  9 10  1  0
 11 19  1  0
 12 17  1  0
 13 14  1  0
 13 12  1  0
 15 14  1  0
 15 24  1  0
 15 16  1  0
 17 11  1  0
 17 16  1  0
 18 11  2  0
 19 20  1  0
 19 10  1  0
 21 22  2  0
 22 41  1  0
 23 22  1  0
 23 26  1  0
 24 21  1  0
 24 25  1  0
 25 23  2  0
 26 27  1  0
 27 28  2  0
 29 32  1  0
 29 28  1  0
 30 29  2  0
 31 30  1  0
 31 26  2  0
 32 33  1  0
 33 34  1  0
 34 35  2  0
 36 35  1  0
 36 40  1  0
 37 36  2  0
 38 33  2  0
 38 37  1  0
 39 38  1  0
 41 42  1  0
 42 45  1  0
 42 44  1  0
 43 41  2  0
 46 47  1  0
 46 21  1  0
 48 46  1  0
 50 49  1  0
 50 51  1  0
 50 53  1  0
 52 50  1  0
 54 53  1  0
 54 55  1  0
 55 56  1  0
 56 58  1  0
 57 68  2  0
 58 63  1  0
 59 67  1  0
 59 69  1  0
 60 66  1  0
 60 62  1  0
 61 67  1  0
 62 61  1  0
 63 62  2  0
 64 65  1  0
 64 58  2  0
 65 60  2  0
 66 59  1  0
 67 57  1  0
 69 71  2  0
 70 69  1  0
 72 70  1  0
 73 82  2  0
 73 78  1  0
 74 70  1  0
 74 78  1  0
 75 74  1  0
 76 77  1  0
 76 75  1  0
 77 73  1  0
 78 79  2  0
 79 80  1  0
 81 80  2  0
 82 81  1  0
 83 57  1  0
 83 84  1  0
 83 93  1  0
 84 87  1  0
 85 89  1  0
 85 84  1  0
 86 85  2  0
 89 88  1  0
 91 89  1  0
 91 92  1  0
 91 90  1  0
 93 96  1  1
 93 94  1  0
 95 93  1  0
M  ISO  4  11 100  19 100  55 101  56 101
M  END
>  <TORSDO>  (66) 
F 28

>  <SCORE>  (66) 
-11.180

>  <name>  (66) 
66

>  <ligand_id>  (66) 
66

>  <original_smiles>  (66) 
[H]c1c([H])c([H])c2c(c1[H])C([H])([H])C([H])([H])C([H])([H])C2([H])N([H])C(=O)C1([H])N(C(=O)C([H])(N([H])C(=O)C([H])(N([H])C([H])([H])[H])C([H])([H])[H])C(C([H])([H])[H])(C([H])([H])[H])C([H])([H])[H])C([H])([H])c2c([H])c(OC([H])([H])C([H])([H])C([H])([H])[N+]([H])([H])C([H])([H])C([H])([H])C([H])([H])C([H])([H])C([H])([H])[N+]([H])([H])C([H])([H])C([H])([H])C([H])([H])N([H])C(=O)N3C([H])([H])C([H])([H])C([H])([H])C([H])(n4nc(-c5c([H])c([H])c(Oc6c([H])c([H])c(F)c([H])c6F)c([H])c5[H])c(C(=O)N([H])[H])c4N([H])[H])C3([H])[H])c([H])c([H])c2C1([H])[H]

>  <smiles>  (66) 
[H]c1c([H])c([H])c2c(c1[H])C([H])([H])C([H])([H])C([H])([H])C2([H])N([H])C(=O)C1([H])N(C(=O)C([H])(N([H])C(=O)C([H])(N([H])C([H])([H])[H])C([H])([H])[H])C(C([H])([H])[H])(C([H])([H])[H])C([H])([H])[H])C([H])([H])c2c([H])c(OC([H])([H])C([H])([H])C([H])([H])[N+]([H])([H])C([H])([H])C([H])([H])C([H])([H])C([H])([H])C([H])([H])[N+]([H])([H])C([H])([H])C([H])([H])C([H])([H])N([H])C(=O)N3C([H])([H])C([H])([H])C([H])([H])C([H])(n4nc(-c5c([H])c([H])c(Oc6c([H])c([H])c(F)c([H])c6F)c([H])c5[H])c(C(=O)N([H])[H])c4N([H])[H])C3([H])[H])c([H])c([H])c2C1([H])[H]

$$$$
67:0:0
     RDKit          3D

 94101  0  0  1  0  0  0  0  0999 V2000
  -29.8670  -22.6830   20.6480 C   0  0  0  0  0  2  0  0  0  0  0  0
  -29.0580  -23.8320   20.1680 N   0  0  0  0  0  4  0  0  0  0  0  0
  -28.3640  -23.3620   19.5920 H   0  0  0  0  0  0  0  0  0  0  0  0
  -28.5840  -24.2500   20.9550 H   0  0  0  0  0  0  0  0  0  0  0  0
  -29.7670  -24.8800   19.3890 C   0  0  0  0  0  2  0  0  0  0  0  0
  -28.8210  -26.0290   18.9790 C   0  0  0  0  0  2  0  0  0  0  0  0
  -28.4420  -26.7820   20.1400 O   0  0  0  0  0  0  0  0  0  0  0  0
  -24.5880  -31.8980   23.2320 C   0  0  0  0  0  0  0  0  0  0  0  0
  -27.2500  -27.4790   20.1230 C   0  0  0  0  0  0  0  0  0  0  0  0
  -23.3820  -30.4910   21.5920 C   0  0  0  0  0  3  0  0  0  0  0  0
  -24.8380  -28.9600   20.1620 C   0  0  0  0  0  0  0  0  0  0  0  0
  -25.9040  -30.8620   21.3870 C   0  0  0  0  0  2  0  0  0  0  0  0
  -25.9920  -29.4910   20.7490 C   0  0  0  0  0  0  0  0  0  0  0  0
  -27.1970  -28.7510   20.7400 C   0  0  0  0  0  3  0  0  0  0  0  0
  -26.0660  -26.9490   19.5610 C   0  0  0  0  0  3  0  0  0  0  0  0
  -24.8690  -27.6880   19.5720 C   0  0  0  0  0  3  0  0  0  0  0  0
  -23.5850  -29.8070   20.2140 C   0  0  0  0  0  2  0  0  0  0  0  0
  -24.6430  -31.0960   22.1300 N   0  0  0  0  0  0  0  0  0  0  0  0
  -23.5070  -32.1670   23.7750 O   0  0  0  0  0  0  0  0  0  0  0  0
  -22.7390  -29.4690   22.5570 C   0  0  0  0  0  0  0  0  0  0  0  0
  -21.4140  -29.2860   22.4390 N   0  0  0  0  0  0  0  0  0  0  0  0
  -23.4300  -28.8390   23.3640 O   0  0  0  0  0  0  0  0  0  0  0  0
  -20.9180  -29.8480   21.7610 H   0  0  0  0  0  0  0  0  0  0  0  0
  -18.0450  -28.0900   22.9470 C   0  0  0  0  0  0  0  0  0  0  0  0
  -20.6040  -28.3450   23.2090 C   0  0  0  0  0  3  0  0  0  0  0  0
  -20.7020  -26.9160   22.6280 C   0  0  0  0  0  2  0  0  0  0  0  0
  -19.5960  -26.5950   21.6180 C   0  0  0  0  0  2  0  0  0  0  0  0
  -18.2180  -26.7400   22.2700 C   0  0  0  0  0  2  0  0  0  0  0  0
  -19.1660  -28.8490   23.3750 C   0  0  0  0  0  0  0  0  0  0  0  0
  -18.9510  -30.1120   23.9670 C   0  0  0  0  0  3  0  0  0  0  0  0
  -17.6460  -30.6160   24.1380 C   0  0  0  0  0  3  0  0  0  0  0  0
  -16.5400  -29.8500   23.7280 C   0  0  0  0  0  3  0  0  0  0  0  0
  -16.7390  -28.5900   23.1380 C   0  0  0  0  0  3  0  0  0  0  0  0
  -25.8750  -32.5350   23.8460 C   0  0  0  0  0  3  0  0  0  0  0  0
  -25.5620  -33.9310   24.1790 N   0  0  0  0  0  0  0  0  0  0  0  0
  -25.8950  -34.9850   23.4220 C   0  0  0  0  0  0  0  0  0  0  0  0
  -26.5670  -34.8860   22.3910 O   0  0  0  0  0  0  0  0  0  0  0  0
  -24.9600  -34.0830   24.9750 H   0  0  0  0  0  0  0  0  0  0  0  0
  -24.1630  -36.7740   23.0660 C   0  0  0  0  0  1  0  0  0  0  0  0
  -25.4020  -36.3710   23.8800 C   0  0  0  0  0  3  0  0  0  0  0  0
  -27.5360  -37.2560   24.7120 C   0  0  0  0  0  1  0  0  0  0  0  0
  -26.4310  -37.4270   23.7720 N   0  0  0  0  0  0  0  0  0  0  0  0
  -26.0250  -38.3450   23.9240 H   0  0  0  0  0  0  0  0  0  0  0  0
  -26.4040  -31.7650   25.1180 C   0  0  1  0  0  0  0  0  0  0  0  0
  -25.3210  -31.5200   26.1930 C   0  0  0  0  0  1  0  0  0  0  0  0
  -26.9900  -30.3900   24.7190 C   0  0  0  0  0  1  0  0  0  0  0  0
  -27.5530  -32.5650   25.7740 C   0  0  0  0  0  1  0  0  0  0  0  0
  -29.3440  -21.3350   20.0550 C   0  0  0  0  0  3  0  0  0  0  0  0
  -28.1870  -21.5970   19.2590 O   0  0  0  0  0  0  0  0  0  0  0  0
  -27.9680  -20.7920   18.7980 H   0  0  0  0  0  0  0  0  0  0  0  0
  -28.9830  -20.2450   21.1070 C   0  0  0  0  0  2  0  0  0  0  0  0
  -29.5520  -17.8070   20.8980 C   0  0  0  0  0  0  0  0  0  0  0  0
  -29.8890  -19.0890   21.1150 N   0  0  0  0  0  0  0  0  0  0  0  0
  -28.4720  -17.4690   20.4070 O   0  0  0  0  0  0  0  0  0  0  0  0
  -30.8250  -19.2530   21.4630 H   0  0  0  0  0  0  0  0  0  0  0  0
  -30.5660  -16.7520   21.3680 C   0  0  0  0  0  2  0  0  0  0  0  0
  -30.7220  -14.4400   20.4000 C   0  0  0  0  0  0  0  0  0  0  0  0
  -30.3970  -12.3090   19.1960 C   0  0  0  0  0  2  0  0  0  0  0  0
  -29.4540  -12.5380   17.9970 C   0  0  0  0  0  2  0  0  0  0  0  0
  -27.9810  -12.4050   18.4290 C   0  0  0  0  0  2  0  0  0  0  0  0
  -27.6540  -13.2300   19.7030 C   0  0  0  0  0  3  0  0  0  0  0  0
  -28.7070  -12.9780   20.8050 C   0  0  0  0  0  2  0  0  0  0  0  0
  -30.0360  -13.2760   20.2440 N   0  0  0  0  0  0  0  0  0  0  0  0
  -31.8000  -14.6620   19.8390 O   0  0  0  0  0  0  0  0  0  0  0  0
  -30.1200  -15.3690   21.1570 N   0  0  0  0  0  0  0  0  0  0  0  0
  -29.2310  -15.1170   21.5610 H   0  0  0  0  0  0  0  0  0  0  0  0
  -25.2580  -13.8560   20.4000 C   0  0  0  0  0  0  0  0  0  0  0  0
  -24.1880  -13.0900   20.7800 C   0  0  0  0  0  0  0  0  0  0  0  0
  -24.6420  -11.7350   20.7610 C   0  0  0  0  0  0  0  0  0  0  0  0
  -26.3000  -12.9670   20.1810 N   0  0  0  0  0  0  0  0  0  0  0  0
  -25.9330  -11.6880   20.4530 N   0  0  0  0  0  0  0  0  0  0  0  0
  -23.9100  -10.4780   20.9680 C   0  0  0  0  0  0  0  0  0  0  0  0
  -24.3410   -9.5210   21.9100 C   0  0  0  0  0  3  0  0  0  0  0  0
  -23.6130   -8.3290   22.1060 C   0  0  0  0  0  3  0  0  0  0  0  0
  -22.4360   -8.0870   21.3590 C   0  0  0  0  0  0  0  0  0  0  0  0
  -22.0220   -9.0320   20.4050 C   0  0  0  0  0  3  0  0  0  0  0  0
  -22.7520  -10.2160   20.2090 C   0  0  0  0  0  3  0  0  0  0  0  0
  -21.6800   -6.9430   21.4610 O   0  0  0  0  0  0  0  0  0  0  0  0
  -21.6370   -6.2090   22.6190 C   0  0  0  0  0  0  0  0  0  0  0  0
  -21.2320   -6.7780   23.8460 C   0  0  0  0  0  3  0  0  0  0  0  0
  -21.1330   -5.9720   24.9980 C   0  0  0  0  0  3  0  0  0  0  0  0
  -21.4320   -4.5970   24.9250 C   0  0  0  0  0  0  0  0  0  0  0  0
  -21.8260   -4.0290   23.7010 C   0  0  0  0  0  3  0  0  0  0  0  0
  -21.9270   -4.8320   22.5530 C   0  0  0  0  0  0  0  0  0  0  0  0
  -22.2900   -4.2750   21.3710 F   0  0  0  0  0  0  0  0  0  0  0  0
  -21.3270   -3.8200   26.0280 F   0  0  0  0  0  0  0  0  0  0  0  0
  -22.7920  -13.5740   21.0540 C   0  0  0  0  0  0  0  0  0  0  0  0
  -22.0680  -12.8890   21.9300 N   0  0  0  0  0  0  0  0  0  0  0  0
  -22.3540  -14.5930   20.5220 O   0  0  0  0  0  0  0  0  0  0  0  0
  -22.4360  -12.0650   22.3810 H   0  0  0  0  0  0  0  0  0  0  0  0
  -21.1310  -13.1940   22.1530 H   0  0  0  0  0  0  0  0  0  0  0  0
  -25.4300  -15.2250   20.2110 N   0  0  0  0  0  0  0  0  0  0  0  0
  -24.6650  -15.8850   20.3130 H   0  0  0  0  0  0  0  0  0  0  0  0
  -26.3030  -15.6730   19.9520 H   0  0  0  0  0  0  0  0  0  0  0  0
  2  1  1  0
  2  4  1  0
  3  2  1  0
  5  2  1  0
  6  5  1  0
  6  7  1  0
  8 19  2  0
  9  7  1  0
  9 14  1  0
 10 18  1  0
 10 20  1  0
 11 17  1  0
 11 13  1  0
 12 18  1  0
 13 12  1  0
 14 13  2  0
 15 16  1  0
 15  9  2  0
 16 11  2  0
 17 10  1  0
 18  8  1  0
 20 22  2  0
 21 20  1  0
 23 21  1  0
 24 33  2  0
 24 29  1  0
 25 21  1  0
 25 29  1  0
 26 25  1  0
 27 28  1  0
 27 26  1  0
 28 24  1  0
 29 30  2  0
 30 31  1  0
 32 31  2  0
 33 32  1  0
 34  8  1  0
 34 35  1  0
 34 44  1  0
 35 38  1  0
 36 40  1  0
 36 35  1  0
 37 36  2  0
 40 39  1  0
 42 40  1  0
 42 43  1  0
 42 41  1  0
 44 47  1  1
 44 45  1  0
 46 44  1  0
 48  1  1  0
 48 51  1  0
 49 48  1  0
 50 49  1  0
 51 53  1  0
 52 53  1  0
 52 56  1  0
 53 55  1  0
 54 52  2  0
 57 65  1  0
 58 63  1  0
 59 60  1  0
 59 58  1  0
 61 60  1  0
 61 70  1  0
 61 62  1  0
 63 57  1  0
 63 62  1  0
 64 57  2  0
 65 56  1  0
 65 66  1  0
 67 68  2  0
 68 87  1  0
 69 68  1  0
 69 72  1  0
 70 67  1  0
 70 71  1  0
 71 69  2  0
 72 73  1  0
 73 74  2  0
 75 78  1  0
 75 74  1  0
 76 75  2  0
 77 76  1  0
 77 72  2  0
 78 79  1  0
 79 80  1  0
 80 81  2  0
 82 81  1  0
 82 86  1  0
 83 82  2  0
 84 79  2  0
 84 83  1  0
 85 84  1  0
 87 88  1  0
 88 91  1  0
 88 90  1  0
 89 87  2  0
 92 93  1  0
 92 67  1  0
 94 92  1  0
M  ISO  4   6 101   7 101  57 100  65 100
M  END
>  <TORSDO>  (67) 
F 24

>  <SCORE>  (67) 
-12.716

>  <name>  (67) 
67

>  <ligand_id>  (67) 
67

>  <original_smiles>  (67) 
[H]OC([H])(C([H])([H])N([H])C(=O)C([H])([H])N([H])C(=O)N1C([H])([H])C([H])([H])C([H])([H])C([H])(n2nc(-c3c([H])c([H])c(Oc4c([H])c([H])c(F)c([H])c4F)c([H])c3[H])c(C(=O)N([H])[H])c2N([H])[H])C1([H])[H])C([H])([H])[N+]([H])([H])C([H])([H])C([H])([H])Oc1c([H])c([H])c2c(c1[H])C([H])([H])N(C(=O)C([H])(N([H])C(=O)C([H])(N([H])C([H])([H])[H])C([H])([H])[H])C(C([H])([H])[H])(C([H])([H])[H])C([H])([H])[H])C([H])(C(=O)N([H])C1([H])c3c([H])c([H])c([H])c([H])c3C([H])([H])C([H])([H])C1([H])[H])C2([H])[H]

>  <smiles>  (67) 
[H]OC([H])(C([H])([H])N([H])C(=O)C([H])([H])N([H])C(=O)N1C([H])([H])C([H])([H])C([H])([H])C([H])(n2nc(-c3c([H])c([H])c(Oc4c([H])c([H])c(F)c([H])c4F)c([H])c3[H])c(C(=O)N([H])[H])c2N([H])[H])C1([H])[H])C([H])([H])[N+]([H])([H])C([H])([H])C([H])([H])Oc1c([H])c([H])c2c(c1[H])C([H])([H])N(C(=O)C([H])(N([H])C(=O)C([H])(N([H])C([H])([H])[H])C([H])([H])[H])C(C([H])([H])[H])(C([H])([H])[H])C([H])([H])[H])C([H])(C(=O)N([H])C1([H])c3c([H])c([H])c([H])c([H])c3C([H])([H])C([H])([H])C1([H])[H])C2([H])[H]

$$$$
68:0:0
     RDKit          3D

 93100  0  0  1  0  0  0  0  0999 V2000
  -28.5740  -22.4100   22.2650 O   0  0  0  0  0  0  0  0  0  0  0  0
  -29.9730  -22.6590   22.3890 C   0  0  0  0  0  2  0  0  0  0  0  0
  -30.6890  -21.4610   23.0370 C   0  0  0  0  0  2  0  0  0  0  0  0
  -31.3720  -19.7170   21.3980 C   0  0  0  0  0  0  0  0  0  0  0  0
  -30.4970  -20.2320   22.2710 N   0  0  0  0  0  0  0  0  0  0  0  0
  -32.4370  -20.2750   21.1240 O   0  0  0  0  0  0  0  0  0  0  0  0
  -29.6300  -19.7310   22.4260 H   0  0  0  0  0  0  0  0  0  0  0  0
  -31.0030  -18.3760   20.7530 C   0  0  0  0  0  2  0  0  0  0  0  0
  -32.1720  -17.3630   20.6960 C   0  0  0  0  0  2  0  0  0  0  0  0
  -32.1340  -15.0220   19.7820 C   0  0  0  0  0  0  0  0  0  0  0  0
  -31.7000  -12.7290   18.9770 C   0  0  0  0  0  2  0  0  0  0  0  0
  -30.7350  -12.7300   17.7770 C   0  0  0  0  0  2  0  0  0  0  0  0
  -29.2680  -12.7430   18.2500 C   0  0  0  0  0  2  0  0  0  0  0  0
  -28.9970  -13.8360   19.3170 C   0  0  0  0  0  3  0  0  0  0  0  0
  -30.0540  -13.7620   20.4390 C   0  0  0  0  0  2  0  0  0  0  0  0
  -31.3910  -13.8870   19.8230 N   0  0  0  0  0  0  0  0  0  0  0  0
  -33.1520  -15.1560   19.0940 O   0  0  0  0  0  0  0  0  0  0  0  0
  -31.6680  -15.9980   20.5690 N   0  0  0  0  0  0  0  0  0  0  0  0
  -30.8590  -15.7500   21.1210 H   0  0  0  0  0  0  0  0  0  0  0  0
  -26.7420  -14.7450   20.1720 C   0  0  0  0  0  0  0  0  0  0  0  0
  -25.5940  -14.1150   20.5680 C   0  0  0  0  0  0  0  0  0  0  0  0
  -25.8560  -12.7130   20.4610 C   0  0  0  0  0  0  0  0  0  0  0  0
  -27.6400  -13.7380   19.8530 N   0  0  0  0  0  0  0  0  0  0  0  0
  -27.1100  -12.5080   20.0790 N   0  0  0  0  0  0  0  0  0  0  0  0
  -24.9690  -11.5580   20.6440 C   0  0  0  0  0  0  0  0  0  0  0  0
  -25.2860  -10.5220   21.5500 C   0  0  0  0  0  3  0  0  0  0  0  0
  -24.4090   -9.4300   21.7220 C   0  0  0  0  0  3  0  0  0  0  0  0
  -23.2010   -9.3670   20.9890 C   0  0  0  0  0  0  0  0  0  0  0  0
  -22.9010  -10.3900   20.0730 C   0  0  0  0  0  3  0  0  0  0  0  0
  -23.7780  -11.4740   19.8980 C   0  0  0  0  0  3  0  0  0  0  0  0
  -22.3040   -8.3290   21.0690 O   0  0  0  0  0  0  0  0  0  0  0  0
  -22.1060   -7.6360   22.2360 C   0  0  0  0  0  0  0  0  0  0  0  0
  -21.7040   -8.2810   23.4260 C   0  0  0  0  0  3  0  0  0  0  0  0
  -21.4450   -7.5230   24.5850 C   0  0  0  0  0  3  0  0  0  0  0  0
  -21.5770   -6.1220   24.5560 C   0  0  0  0  0  0  0  0  0  0  0  0
  -21.9730   -5.4780   23.3700 C   0  0  0  0  0  3  0  0  0  0  0  0
  -22.2340   -6.2330   22.2130 C   0  0  0  0  0  0  0  0  0  0  0  0
  -22.5920   -5.6050   21.0690 F   0  0  0  0  0  0  0  0  0  0  0  0
  -21.3220   -5.3920   25.6670 F   0  0  0  0  0  0  0  0  0  0  0  0
  -24.2940  -14.7690   20.9380 C   0  0  0  0  0  0  0  0  0  0  0  0
  -23.5280  -14.1530   21.8310 N   0  0  0  0  0  0  0  0  0  0  0  0
  -23.9730  -15.8610   20.4700 O   0  0  0  0  0  0  0  0  0  0  0  0
  -23.8030  -13.2700   22.2360 H   0  0  0  0  0  0  0  0  0  0  0  0
  -22.6540  -14.5720   22.1150 H   0  0  0  0  0  0  0  0  0  0  0  0
  -27.0900  -16.0860   20.0400 N   0  0  0  0  0  0  0  0  0  0  0  0
  -26.4310  -16.8350   20.2170 H   0  0  0  0  0  0  0  0  0  0  0  0
  -27.9800  -16.4180   19.6900 H   0  0  0  0  0  0  0  0  0  0  0  0
  -27.7500  -23.1430   23.1630 C   0  0  0  0  0  2  0  0  0  0  0  0
  -27.7660  -24.6630   22.8930 C   0  0  0  0  0  2  0  0  0  0  0  0
  -27.3260  -25.0760   21.4740 C   0  0  0  0  0  2  0  0  0  0  0  0
  -28.4130  -24.8910   20.3950 C   0  0  0  0  0  2  0  0  0  0  0  0
  -28.0310  -25.4200   19.0010 C   0  0  0  0  0  2  0  0  0  0  0  0
  -27.9930  -26.8470   18.9710 O   0  0  0  0  0  0  0  0  0  0  0  0
  -24.5820  -31.6000   22.9800 C   0  0  0  0  0  0  0  0  0  0  0  0
  -26.8040  -27.5130   19.1750 C   0  0  0  0  0  0  0  0  0  0  0  0
  -23.1820  -30.4040   21.3270 C   0  0  0  0  0  3  0  0  0  0  0  0
  -24.4480  -29.0140   19.6070 C   0  0  0  0  0  0  0  0  0  0  0  0
  -25.6810  -30.7570   20.9110 C   0  0  0  0  0  2  0  0  0  0  0  0
  -25.6680  -29.4640   20.1230 C   0  0  0  0  0  0  0  0  0  0  0  0
  -26.8460  -28.7200   19.9060 C   0  0  0  0  0  3  0  0  0  0  0  0
  -25.5610  -27.0690   18.6640 C   0  0  0  0  0  3  0  0  0  0  0  0
  -24.3880  -27.8140   18.8790 C   0  0  0  0  0  3  0  0  0  0  0  0
  -23.2340  -29.8750   19.8680 C   0  0  0  0  0  2  0  0  0  0  0  0
  -24.5050  -30.9290   21.7950 N   0  0  0  0  0  0  0  0  0  0  0  0
  -23.5670  -31.8240   23.6560 O   0  0  0  0  0  0  0  0  0  0  0  0
  -22.6090  -29.2920   22.2310 C   0  0  0  0  0  0  0  0  0  0  0  0
  -21.2830  -29.0910   22.1630 N   0  0  0  0  0  0  0  0  0  0  0  0
  -23.3510  -28.6150   22.9500 O   0  0  0  0  0  0  0  0  0  0  0  0
  -20.7450  -29.6920   21.5550 H   0  0  0  0  0  0  0  0  0  0  0  0
  -17.9790  -27.7160   22.6560 C   0  0  0  0  0  0  0  0  0  0  0  0
  -20.5280  -28.0730   22.8930 C   0  0  0  0  0  3  0  0  0  0  0  0
  -20.6820  -26.6840   22.2320 C   0  0  0  0  0  2  0  0  0  0  0  0
  -19.5730  -26.3690   21.2220 C   0  0  0  0  0  2  0  0  0  0  0  0
  -18.2000  -26.4150   21.9010 C   0  0  0  0  0  2  0  0  0  0  0  0
  -19.0720  -28.5020   23.1080 C   0  0  0  0  0  0  0  0  0  0  0  0
  -18.8120  -29.7190   23.7730 C   0  0  0  0  0  3  0  0  0  0  0  0
  -17.4900  -30.1530   23.9900 C   0  0  0  0  0  3  0  0  0  0  0  0
  -16.4110  -29.3630   23.5550 C   0  0  0  0  0  3  0  0  0  0  0  0
  -16.6570  -28.1460   22.8960 C   0  0  0  0  0  3  0  0  0  0  0  0
  -25.9400  -32.1400   23.5300 C   0  0  0  0  0  3  0  0  0  0  0  0
  -26.5780  -31.2080   24.6320 C   0  0  1  0  0  0  0  0  0  0  0  0
  -25.6070  -30.8430   25.7790 C   0  0  0  0  0  1  0  0  0  0  0  0
  -27.0810  -29.8880   24.0020 C   0  0  0  0  0  1  0  0  0  0  0  0
  -27.8150  -31.9010   25.2520 C   0  0  0  0  0  1  0  0  0  0  0  0
  -25.6970  -33.4880   24.0620 N   0  0  0  0  0  0  0  0  0  0  0  0
  -25.9900  -34.6230   23.4130 C   0  0  0  0  0  0  0  0  0  0  0  0
  -26.5670  -34.6410   22.3220 O   0  0  0  0  0  0  0  0  0  0  0  0
  -25.1750  -33.5470   24.9250 H   0  0  0  0  0  0  0  0  0  0  0  0
  -24.2820  -36.4680   23.4370 C   0  0  0  0  0  1  0  0  0  0  0  0
  -25.5780  -35.9490   24.0810 C   0  0  0  0  0  3  0  0  0  0  0  0
  -27.7980  -36.6900   24.8230 C   0  0  0  0  0  1  0  0  0  0  0  0
  -26.6230  -36.9930   24.0080 N   0  0  0  0  0  0  0  0  0  0  0  0
  -26.2570  -37.8930   24.3030 H   0  0  0  0  0  0  0  0  0  0  0  0
  1  2  1  0
  1 48  1  0
  2  3  1  0
  4  5  1  0
  5  7  1  0
  5  3  1  0
  6  4  2  0
  8  4  1  0
  9  8  1  0
 10 16  1  0
 10 18  1  0
 11 16  1  0
 12 13  1  0
 12 11  1  0
 14 13  1  0
 14 23  1  0
 14 15  1  0
 16 15  1  0
 17 10  2  0
 18  9  1  0
 18 19  1  0
 20 21  2  0
 21 40  1  0
 22 21  1  0
 22 25  1  0
 23 24  1  0
 23 20  1  0
 24 22  2  0
 25 26  1  0
 26 27  2  0
 28 31  1  0
 28 27  1  0
 29 28  2  0
 30 29  1  0
 30 25  2  0
 31 32  1  0
 32 33  1  0
 33 34  2  0
 35 34  1  0
 35 39  1  0
 36 35  2  0
 37 32  2  0
 37 36  1  0
 38 37  1  0
 40 41  1  0
 41 44  1  0
 41 43  1  0
 42 40  2  0
 45 20  1  0
 45 46  1  0
 47 45  1  0
 49 48  1  0
 50 49  1  0
 51 50  1  0
 52 51  1  0
 53 52  1  0
 53 55  1  0
 54 65  2  0
 55 60  1  0
 56 64  1  0
 56 66  1  0
 57 63  1  0
 57 59  1  0
 58 64  1  0
 59 58  1  0
 60 59  2  0
 61 62  1  0
 61 55  2  0
 62 57  2  0
 63 56  1  0
 64 54  1  0
 66 68  2  0
 67 66  1  0
 69 67  1  0
 70 79  2  0
 70 75  1  0
 71 67  1  0
 71 75  1  0
 72 71  1  0
 73 74  1  0
 73 72  1  0
 74 70  1  0
 75 76  2  0
 76 77  1  0
 78 77  2  0
 79 78  1  0
 80 54  1  0
 80 85  1  0
 80 81  1  0
 81 84  1  1
 81 82  1  0
 83 81  1  0
 85 88  1  0
 86 85  1  0
 86 90  1  0
 87 86  2  0
 90 89  1  0
 92 90  1  0
 92 93  1  0
 92 91  1  0
M  ISO  4  10 100  18 100  52 101  53 101
M  END
>  <TORSDO>  (68) 
F 26

>  <SCORE>  (68) 
-7.837

>  <name>  (68) 
68

>  <ligand_id>  (68) 
68

>  <original_smiles>  (68) 
[H]c1c([H])c([H])c2c(c1[H])C([H])([H])C([H])([H])C([H])([H])C2([H])N([H])C(=O)C1([H])N(C(=O)C([H])(N([H])C(=O)C([H])(N([H])C([H])([H])[H])C([H])([H])[H])C(C([H])([H])[H])(C([H])([H])[H])C([H])([H])[H])C([H])([H])c2c([H])c(OC([H])([H])C([H])([H])C([H])([H])C([H])([H])C([H])([H])OC([H])([H])C([H])([H])N([H])C(=O)C([H])([H])C([H])([H])N([H])C(=O)N3C([H])([H])C([H])([H])C([H])([H])C([H])(n4nc(-c5c([H])c([H])c(Oc6c([H])c([H])c(F)c([H])c6F)c([H])c5[H])c(C(=O)N([H])[H])c4N([H])[H])C3([H])[H])c([H])c([H])c2C1([H])[H]

>  <smiles>  (68) 
[H]c1c([H])c([H])c2c(c1[H])C([H])([H])C([H])([H])C([H])([H])C2([H])N([H])C(=O)C1([H])N(C(=O)C([H])(N([H])C(=O)C([H])(N([H])C([H])([H])[H])C([H])([H])[H])C(C([H])([H])[H])(C([H])([H])[H])C([H])([H])[H])C([H])([H])c2c([H])c(OC([H])([H])C([H])([H])C([H])([H])C([H])([H])C([H])([H])OC([H])([H])C([H])([H])N([H])C(=O)C([H])([H])C([H])([H])N([H])C(=O)N3C([H])([H])C([H])([H])C([H])([H])C([H])(n4nc(-c5c([H])c([H])c(Oc6c([H])c([H])c(F)c([H])c6F)c([H])c5[H])c(C(=O)N([H])[H])c4N([H])[H])C3([H])[H])c([H])c([H])c2C1([H])[H]

$$$$
69:0:0
     RDKit          3D

 93100  0  0  1  0  0  0  0  0999 V2000
  -29.6820  -21.8980   18.9620 N   0  0  0  0  0  4  0  0  0  0  0  0
  -29.4530  -21.5940   18.0270 H   0  0  0  0  0  0  0  0  0  0  0  0
  -28.8160  -22.0210   19.4620 H   0  0  0  0  0  0  0  0  0  0  0  0
  -30.3660  -23.2040   18.9020 C   0  0  0  0  0  2  0  0  0  0  0  0
  -29.3590  -24.3550   18.7760 C   0  0  0  0  0  2  0  0  0  0  0  0
  -30.0460  -25.7260   18.7160 C   0  0  0  0  0  2  0  0  0  0  0  0
  -29.0390  -26.8720   18.8000 C   0  0  0  0  0  2  0  0  0  0  0  0
  -28.4260  -26.8170   20.0800 O   0  0  0  0  0  0  0  0  0  0  0  0
  -24.5830  -31.8790   23.2400 C   0  0  0  0  0  0  0  0  0  0  0  0
  -27.2460  -27.5010   20.1330 C   0  0  0  0  0  0  0  0  0  0  0  0
  -23.3780  -30.4790   21.5890 C   0  0  0  0  0  3  0  0  0  0  0  0
  -24.8380  -28.9510   20.1630 C   0  0  0  0  0  0  0  0  0  0  0  0
  -25.8980  -30.8550   21.3960 C   0  0  0  0  0  2  0  0  0  0  0  0
  -25.9880  -29.4860   20.7600 C   0  0  0  0  0  0  0  0  0  0  0  0
  -27.1940  -28.7600   20.7570 C   0  0  0  0  0  3  0  0  0  0  0  0
  -26.0840  -26.9550   19.5500 C   0  0  0  0  0  3  0  0  0  0  0  0
  -24.8780  -27.6790   19.5630 C   0  0  0  0  0  3  0  0  0  0  0  0
  -23.5890  -29.8010   20.2080 C   0  0  0  0  0  2  0  0  0  0  0  0
  -24.6360  -31.0850   22.1340 N   0  0  0  0  0  0  0  0  0  0  0  0
  -23.5020  -32.1480   23.7810 O   0  0  0  0  0  0  0  0  0  0  0  0
  -22.7330  -29.4510   22.5450 C   0  0  0  0  0  0  0  0  0  0  0  0
  -21.4090  -29.2710   22.4220 N   0  0  0  0  0  0  0  0  0  0  0  0
  -23.4200  -28.8190   23.3520 O   0  0  0  0  0  0  0  0  0  0  0  0
  -20.9160  -29.8370   21.7440 H   0  0  0  0  0  0  0  0  0  0  0  0
  -18.0310  -28.0990   22.9270 C   0  0  0  0  0  0  0  0  0  0  0  0
  -20.5910  -28.3300   23.1850 C   0  0  0  0  0  3  0  0  0  0  0  0
  -20.6780  -26.9050   22.5900 C   0  0  0  0  0  2  0  0  0  0  0  0
  -19.5670  -26.6050   21.5790 C   0  0  0  0  0  2  0  0  0  0  0  0
  -18.1900  -26.7560   22.2350 C   0  0  0  0  0  2  0  0  0  0  0  0
  -19.1590  -28.8460   23.3580 C   0  0  0  0  0  0  0  0  0  0  0  0
  -18.9560  -30.1050   23.9630 C   0  0  0  0  0  3  0  0  0  0  0  0
  -17.6570  -30.6180   24.1410 C   0  0  0  0  0  3  0  0  0  0  0  0
  -16.5430  -29.8660   23.7280 C   0  0  0  0  0  3  0  0  0  0  0  0
  -16.7310  -28.6090   23.1260 C   0  0  0  0  0  3  0  0  0  0  0  0
  -25.8700  -32.5070   23.8600 C   0  0  0  0  0  3  0  0  0  0  0  0
  -25.5630  -33.9040   24.1920 N   0  0  0  0  0  0  0  0  0  0  0  0
  -25.9040  -34.9560   23.4360 C   0  0  0  0  0  0  0  0  0  0  0  0
  -26.5840  -34.8540   22.4110 O   0  0  0  0  0  0  0  0  0  0  0  0
  -24.9650  -34.0590   24.9900 H   0  0  0  0  0  0  0  0  0  0  0  0
  -24.1850  -36.7520   23.0640 C   0  0  0  0  0  1  0  0  0  0  0  0
  -25.4130  -36.3440   23.8910 C   0  0  0  0  0  3  0  0  0  0  0  0
  -27.5410  -37.2160   24.7530 C   0  0  0  0  0  1  0  0  0  0  0  0
  -26.4510  -37.3940   23.7980 N   0  0  0  0  0  0  0  0  0  0  0  0
  -26.0450  -38.3140   23.9490 H   0  0  0  0  0  0  0  0  0  0  0  0
  -26.3900  -31.7300   25.1320 C   0  0  1  0  0  0  0  0  0  0  0  0
  -25.3000  -31.4890   26.2000 C   0  0  0  0  0  1  0  0  0  0  0  0
  -26.9740  -30.3550   24.7310 C   0  0  0  0  0  1  0  0  0  0  0  0
  -27.5410  -32.5230   25.7960 C   0  0  0  0  0  1  0  0  0  0  0  0
  -30.4510  -20.8510   19.6590 C   0  0  0  0  0  2  0  0  0  0  0  0
  -29.6620  -19.5360   19.7360 C   0  0  0  0  0  2  0  0  0  0  0  0
  -29.8550  -17.3430   20.8380 C   0  0  0  0  0  0  0  0  0  0  0  0
  -30.3570  -18.5450   20.5520 N   0  0  0  0  0  0  0  0  0  0  0  0
  -28.7670  -16.9620   20.3970 O   0  0  0  0  0  0  0  0  0  0  0  0
  -31.2500  -18.7990   20.9570 H   0  0  0  0  0  0  0  0  0  0  0  0
  -30.6780  -16.4370   21.7610 C   0  0  0  0  0  2  0  0  0  0  0  0
  -30.7580  -14.3150   20.4920 C   0  0  0  0  0  0  0  0  0  0  0  0
  -30.3580  -12.2950   19.1360 C   0  0  0  0  0  2  0  0  0  0  0  0
  -29.3970  -12.5980   17.9730 C   0  0  0  0  0  2  0  0  0  0  0  0
  -27.9280  -12.4660   18.4180 C   0  0  0  0  0  2  0  0  0  0  0  0
  -27.6360  -13.2330   19.7350 C   0  0  0  0  0  3  0  0  0  0  0  0
  -28.6980  -12.9000   20.8060 C   0  0  0  0  0  2  0  0  0  0  0  0
  -30.0340  -13.1940   20.2510 N   0  0  0  0  0  0  0  0  0  0  0  0
  -31.7420  -14.6530   19.8260 O   0  0  0  0  0  0  0  0  0  0  0  0
  -30.3310  -15.0400   21.5290 N   0  0  0  0  0  0  0  0  0  0  0  0
  -29.5290  -14.6860   22.0260 H   0  0  0  0  0  0  0  0  0  0  0  0
  -25.2380  -13.8520   20.4460 C   0  0  0  0  0  0  0  0  0  0  0  0
  -24.1690  -13.0820   20.8230 C   0  0  0  0  0  0  0  0  0  0  0  0
  -24.6290  -11.7300   20.7980 C   0  0  0  0  0  0  0  0  0  0  0  0
  -26.2810  -12.9660   20.2170 N   0  0  0  0  0  0  0  0  0  0  0  0
  -25.9160  -11.6860   20.4810 N   0  0  0  0  0  0  0  0  0  0  0  0
  -23.9010  -10.4690   21.0030 C   0  0  0  0  0  0  0  0  0  0  0  0
  -24.3450   -9.5050   21.9350 C   0  0  0  0  0  3  0  0  0  0  0  0
  -23.6190   -8.3100   22.1300 C   0  0  0  0  0  3  0  0  0  0  0  0
  -22.4370   -8.0700   21.3900 C   0  0  0  0  0  0  0  0  0  0  0  0
  -22.0120   -9.0220   20.4470 C   0  0  0  0  0  3  0  0  0  0  0  0
  -22.7380  -10.2090   20.2520 C   0  0  0  0  0  3  0  0  0  0  0  0
  -21.6840   -6.9250   21.4910 O   0  0  0  0  0  0  0  0  0  0  0  0
  -21.6580   -6.1780   22.6410 C   0  0  0  0  0  0  0  0  0  0  0  0
  -21.2630   -6.7330   23.8790 C   0  0  0  0  0  3  0  0  0  0  0  0
  -21.1820   -5.9150   25.0220 C   0  0  0  0  0  3  0  0  0  0  0  0
  -21.4850   -4.5440   24.9330 C   0  0  0  0  0  0  0  0  0  0  0  0
  -21.8720   -3.9880   23.7010 C   0  0  0  0  0  3  0  0  0  0  0  0
  -21.9550   -4.8030   22.5580 C   0  0  0  0  0  0  0  0  0  0  0  0
  -22.3090   -4.2590   21.3690 F   0  0  0  0  0  0  0  0  0  0  0  0
  -21.3980   -3.7570   26.0310 F   0  0  0  0  0  0  0  0  0  0  0  0
  -22.7750  -13.5610   21.1070 C   0  0  0  0  0  0  0  0  0  0  0  0
  -22.0560  -12.8730   21.9850 N   0  0  0  0  0  0  0  0  0  0  0  0
  -22.3300  -14.5830   20.5840 O   0  0  0  0  0  0  0  0  0  0  0  0
  -22.4280  -12.0470   22.4330 H   0  0  0  0  0  0  0  0  0  0  0  0
  -21.1200  -13.1740   22.2150 H   0  0  0  0  0  0  0  0  0  0  0  0
  -25.4090  -15.2210   20.2670 N   0  0  0  0  0  0  0  0  0  0  0  0
  -24.6590  -15.8900   20.4030 H   0  0  0  0  0  0  0  0  0  0  0  0
  -26.2890  -15.6610   20.0220 H   0  0  0  0  0  0  0  0  0  0  0  0
  1  3  1  0
  1 49  1  0
  2  1  1  0
  4  1  1  0
  5  4  1  0
  6  5  1  0
  6  7  1  0
  7  8  1  0
  8 10  1  0
  9 20  2  0
 10 15  1  0
 11 19  1  0
 11 21  1  0
 12 18  1  0
 12 14  1  0
 13 19  1  0
 14 13  1  0
 15 14  2  0
 16 17  1  0
 16 10  2  0
 17 12  2  0
 18 11  1  0
 19  9  1  0
 21 23  2  0
 22 21  1  0
 24 22  1  0
 25 34  2  0
 25 30  1  0
 26 22  1  0
 26 30  1  0
 27 26  1  0
 28 29  1  0
 28 27  1  0
 29 25  1  0
 30 31  2  0
 31 32  1  0
 33 32  2  0
 34 33  1  0
 35  9  1  0
 35 36  1  0
 35 45  1  0
 36 39  1  0
 37 41  1  0
 37 36  1  0
 38 37  2  0
 41 40  1  0
 43 41  1  0
 43 44  1  0
 43 42  1  0
 45 48  1  1
 45 46  1  0
 47 45  1  0
 49 50  1  0
 50 52  1  0
 51 55  1  0
 52 51  1  0
 52 54  1  0
 53 51  2  0
 56 64  1  0
 57 62  1  0
 58 59  1  0
 58 57  1  0
 60 59  1  0
 60 69  1  0
 60 61  1  0
 62 56  1  0
 62 61  1  0
 63 56  2  0
 64 55  1  0
 64 65  1  0
 66 67  2  0
 67 86  1  0
 68 67  1  0
 68 71  1  0
 69 66  1  0
 69 70  1  0
 70 68  2  0
 71 72  1  0
 72 73  2  0
 74 77  1  0
 74 73  1  0
 75 74  2  0
 76 75  1  0
 76 71  2  0
 77 78  1  0
 78 79  1  0
 79 80  2  0
 81 80  1  0
 81 85  1  0
 82 81  2  0
 83 78  2  0
 83 82  1  0
 84 83  1  0
 86 87  1  0
 87 90  1  0
 87 89  1  0
 88 86  2  0
 91 92  1  0
 91 66  1  0
 93 91  1  0
M  ISO  4   7 101   8 101  56 100  64 100
M  END
>  <TORSDO>  (69) 
F 24

>  <SCORE>  (69) 
-12.474

>  <name>  (69) 
69

>  <ligand_id>  (69) 
69

>  <original_smiles>  (69) 
[H]c1c([H])c([H])c2c(c1[H])C([H])([H])C([H])([H])C([H])([H])C2([H])N([H])C(=O)C1([H])N(C(=O)C([H])(N([H])C(=O)C([H])(N([H])C([H])([H])[H])C([H])([H])[H])C(C([H])([H])[H])(C([H])([H])[H])C([H])([H])[H])C([H])([H])c2c([H])c(OC([H])([H])C([H])([H])C([H])([H])C([H])([H])[N+]([H])([H])C([H])([H])C([H])([H])N([H])C(=O)C([H])([H])N([H])C(=O)N3C([H])([H])C([H])([H])C([H])([H])C([H])(n4nc(-c5c([H])c([H])c(Oc6c([H])c([H])c(F)c([H])c6F)c([H])c5[H])c(C(=O)N([H])[H])c4N([H])[H])C3([H])[H])c([H])c([H])c2C1([H])[H]

>  <smiles>  (69) 
[H]c1c([H])c([H])c2c(c1[H])C([H])([H])C([H])([H])C([H])([H])C2([H])N([H])C(=O)C1([H])N(C(=O)C([H])(N([H])C(=O)C([H])(N([H])C([H])([H])[H])C([H])([H])[H])C(C([H])([H])[H])(C([H])([H])[H])C([H])([H])[H])C([H])([H])c2c([H])c(OC([H])([H])C([H])([H])C([H])([H])C([H])([H])[N+]([H])([H])C([H])([H])C([H])([H])N([H])C(=O)C([H])([H])N([H])C(=O)N3C([H])([H])C([H])([H])C([H])([H])C([H])(n4nc(-c5c([H])c([H])c(Oc6c([H])c([H])c(F)c([H])c6F)c([H])c5[H])c(C(=O)N([H])[H])c4N([H])[H])C3([H])[H])c([H])c([H])c2C1([H])[H]

$$$$
70:0:0
     RDKit          3D

 97104  0  0  1  0  0  0  0  0999 V2000
  -29.8200  -22.9240   17.3610 N   0  0  0  0  0  4  0  0  0  0  0  0
  -30.1490  -22.0940   16.8900 H   0  0  0  0  0  0  0  0  0  0  0  0
  -29.8930  -22.7490   18.3550 H   0  0  0  0  0  0  0  0  0  0  0  0
  -30.7050  -24.0610   17.0160 C   0  0  0  0  0  2  0  0  0  0  0  0
  -31.9040  -24.1320   17.9760 C   0  0  0  0  0  2  0  0  0  0  0  0
  -31.4520  -24.3660   19.3080 O   0  0  0  0  0  0  0  0  0  0  0  0
  -31.1830  -25.7390   19.5860 C   0  0  0  0  0  2  0  0  0  0  0  0
  -30.4980  -25.8640   20.9540 C   0  0  0  0  0  2  0  0  0  0  0  0
  -29.4770  -27.0090   21.0030 C   0  0  0  0  0  2  0  0  0  0  0  0
  -28.3920  -26.6610   20.1430 O   0  0  0  0  0  0  0  0  0  0  0  0
  -24.5730  -31.8540   23.2150 C   0  0  0  0  0  0  0  0  0  0  0  0
  -27.2540  -27.4330   20.1840 C   0  0  0  0  0  0  0  0  0  0  0  0
  -23.3700  -30.4360   21.5770 C   0  0  0  0  0  3  0  0  0  0  0  0
  -24.8350  -28.8930   20.1690 C   0  0  0  0  0  0  0  0  0  0  0  0
  -25.8860  -30.8160   21.3750 C   0  0  0  0  0  2  0  0  0  0  0  0
  -25.9810  -29.4380   20.7600 C   0  0  0  0  0  0  0  0  0  0  0  0
  -27.1910  -28.7160   20.7730 C   0  0  0  0  0  3  0  0  0  0  0  0
  -26.0930  -26.8970   19.5880 C   0  0  0  0  0  3  0  0  0  0  0  0
  -24.8820  -27.6170   19.5820 C   0  0  0  0  0  3  0  0  0  0  0  0
  -23.5820  -29.7390   20.2050 C   0  0  0  0  0  2  0  0  0  0  0  0
  -24.6260  -31.0500   22.1160 N   0  0  0  0  0  0  0  0  0  0  0  0
  -23.4920  -32.1290   23.7540 O   0  0  0  0  0  0  0  0  0  0  0  0
  -22.7200  -29.4230   22.5470 C   0  0  0  0  0  0  0  0  0  0  0  0
  -21.3950  -29.2490   22.4250 N   0  0  0  0  0  0  0  0  0  0  0  0
  -23.4040  -28.7970   23.3610 O   0  0  0  0  0  0  0  0  0  0  0  0
  -20.9070  -29.8030   21.7360 H   0  0  0  0  0  0  0  0  0  0  0  0
  -18.0140  -28.0980   22.9520 C   0  0  0  0  0  0  0  0  0  0  0  0
  -20.5760  -28.3190   23.2020 C   0  0  0  0  0  3  0  0  0  0  0  0
  -20.6550  -26.8900   22.6190 C   0  0  0  0  0  2  0  0  0  0  0  0
  -19.5410  -26.5860   21.6130 C   0  0  0  0  0  2  0  0  0  0  0  0
  -18.1670  -26.7480   22.2710 C   0  0  0  0  0  2  0  0  0  0  0  0
  -19.1460  -28.8430   23.3740 C   0  0  0  0  0  0  0  0  0  0  0  0
  -18.9500  -30.1100   23.9660 C   0  0  0  0  0  3  0  0  0  0  0  0
  -17.6540  -30.6300   24.1440 C   0  0  0  0  0  3  0  0  0  0  0  0
  -16.5360  -29.8810   23.7400 C   0  0  0  0  0  3  0  0  0  0  0  0
  -16.7170  -28.6180   23.1490 C   0  0  0  0  0  3  0  0  0  0  0  0
  -25.8590  -32.4890   23.8320 C   0  0  0  0  0  3  0  0  0  0  0  0
  -25.5490  -33.8850   24.1660 N   0  0  0  0  0  0  0  0  0  0  0  0
  -25.8730  -34.9380   23.4050 C   0  0  0  0  0  0  0  0  0  0  0  0
  -26.5370  -34.8390   22.3690 O   0  0  0  0  0  0  0  0  0  0  0  0
  -24.9620  -34.0350   24.9720 H   0  0  0  0  0  0  0  0  0  0  0  0
  -24.1350  -36.7230   23.0560 C   0  0  0  0  0  1  0  0  0  0  0  0
  -25.3810  -36.3230   23.8640 C   0  0  0  0  0  3  0  0  0  0  0  0
  -27.5140  -37.2160   24.6890 C   0  0  0  0  0  1  0  0  0  0  0  0
  -26.4080  -37.3800   23.7480 N   0  0  0  0  0  0  0  0  0  0  0  0
  -25.9980  -38.2980   23.9000 H   0  0  0  0  0  0  0  0  0  0  0  0
  -26.3890  -31.7140   25.1000 C   0  0  1  0  0  0  0  0  0  0  0  0
  -25.3050  -31.4640   26.1750 C   0  0  0  0  0  1  0  0  0  0  0  0
  -26.9750  -30.3420   24.6880 C   0  0  0  0  0  1  0  0  0  0  0  0
  -27.5390  -32.5100   25.7590 C   0  0  0  0  0  1  0  0  0  0  0  0
  -28.3900  -23.1470   17.0530 C   0  0  0  0  0  2  0  0  0  0  0  0
  -27.5860  -21.8440   17.1320 C   0  0  0  0  0  2  0  0  0  0  0  0
  -27.8270  -21.1980   18.3790 O   0  0  0  0  0  0  0  0  0  0  0  0
  -27.0890  -19.9860   18.4760 C   0  0  0  0  0  2  0  0  0  0  0  0
  -27.4660  -19.2050   19.7420 C   0  0  0  0  0  2  0  0  0  0  0  0
  -28.9530  -18.8190   19.7960 C   0  0  0  0  0  2  0  0  0  0  0  0
  -29.2550  -17.7260   20.8360 C   0  0  0  0  0  2  0  0  0  0  0  0
  -30.7640  -17.4580   20.9790 C   0  0  0  0  0  2  0  0  0  0  0  0
  -31.1130  -16.2540   21.8760 C   0  0  0  0  0  2  0  0  0  0  0  0
  -30.9370  -14.2310   20.4120 C   0  0  0  0  0  0  0  0  0  0  0  0
  -30.4880  -12.1890   19.1000 C   0  0  0  0  0  2  0  0  0  0  0  0
  -29.5300  -12.4740   17.9270 C   0  0  0  0  0  2  0  0  0  0  0  0
  -28.0620  -12.3780   18.3820 C   0  0  0  0  0  2  0  0  0  0  0  0
  -27.7860  -13.1950   19.6710 C   0  0  0  0  0  3  0  0  0  0  0  0
  -28.8390  -12.8730   20.7520 C   0  0  0  0  0  2  0  0  0  0  0  0
  -30.1800  -13.1280   20.1870 N   0  0  0  0  0  0  0  0  0  0  0  0
  -31.9560  -14.5020   19.7700 O   0  0  0  0  0  0  0  0  0  0  0  0
  -30.5050  -15.0090   21.4130 N   0  0  0  0  0  0  0  0  0  0  0  0
  -29.6830  -14.6900   21.9030 H   0  0  0  0  0  0  0  0  0  0  0  0
  -25.4170  -13.8910   20.4050 C   0  0  0  0  0  0  0  0  0  0  0  0
  -24.3250  -13.1580   20.7840 C   0  0  0  0  0  0  0  0  0  0  0  0
  -24.7360  -11.7900   20.7420 C   0  0  0  0  0  0  0  0  0  0  0  0
  -26.4260  -12.9730   20.1610 N   0  0  0  0  0  0  0  0  0  0  0  0
  -26.0190  -11.7040   20.4160 N   0  0  0  0  0  0  0  0  0  0  0  0
  -23.9680  -10.5550   20.9380 C   0  0  0  0  0  0  0  0  0  0  0  0
  -24.3670   -9.5760   21.8750 C   0  0  0  0  0  3  0  0  0  0  0  0
  -23.6020   -8.4040   22.0550 C   0  0  0  0  0  3  0  0  0  0  0  0
  -22.4220   -8.2020   21.3010 C   0  0  0  0  0  0  0  0  0  0  0  0
  -22.0420   -9.1690   20.3520 C   0  0  0  0  0  3  0  0  0  0  0  0
  -22.8070  -10.3330   20.1690 C   0  0  0  0  0  3  0  0  0  0  0  0
  -21.6300   -7.0840   21.3910 O   0  0  0  0  0  0  0  0  0  0  0  0
  -21.5460   -6.3540   22.5500 C   0  0  0  0  0  0  0  0  0  0  0  0
  -21.1310   -6.9340   23.7680 C   0  0  0  0  0  3  0  0  0  0  0  0
  -20.9920   -6.1320   24.9180 C   0  0  0  0  0  3  0  0  0  0  0  0
  -21.2570   -4.7500   24.8520 C   0  0  0  0  0  0  0  0  0  0  0  0
  -21.6650   -4.1710   23.6370 C   0  0  0  0  0  3  0  0  0  0  0  0
  -21.8060   -4.9690   22.4890 C   0  0  0  0  0  0  0  0  0  0  0  0
  -22.1780   -4.4010   21.3170 F   0  0  0  0  0  0  0  0  0  0  0  0
  -21.1160   -3.9790   25.9540 F   0  0  0  0  0  0  0  0  0  0  0  0
  -22.9500  -13.6840   21.0790 C   0  0  0  0  0  0  0  0  0  0  0  0
  -22.2100  -13.0100   21.9510 N   0  0  0  0  0  0  0  0  0  0  0  0
  -22.5440  -14.7290   20.5720 O   0  0  0  0  0  0  0  0  0  0  0  0
  -22.5510  -12.1630   22.3810 H   0  0  0  0  0  0  0  0  0  0  0  0
  -21.2870  -13.3450   22.1920 H   0  0  0  0  0  0  0  0  0  0  0  0
  -25.6330  -15.2550   20.2300 N   0  0  0  0  0  0  0  0  0  0  0  0
  -24.8980  -15.9420   20.3540 H   0  0  0  0  0  0  0  0  0  0  0  0
  -26.5030  -15.6580   19.9040 H   0  0  0  0  0  0  0  0  0  0  0  0
  1  3  1  0
  2  1  1  0
  4  1  1  0
  4  5  1  0
  5  6  1  0
  6  7  1  0
  7  8  1  0
  8  9  1  0
 10 12  1  0
 10  9  1  0
 11 22  2  0
 12 17  1  0
 13 21  1  0
 13 23  1  0
 14 20  1  0
 14 16  1  0
 15 21  1  0
 16 17  2  0
 16 15  1  0
 18 12  2  0
 19 18  1  0
 19 14  2  0
 20 13  1  0
 21 11  1  0
 23 25  2  0
 24 23  1  0
 26 24  1  0
 27 36  2  0
 27 32  1  0
 28 24  1  0
 28 32  1  0
 29 28  1  0
 30 31  1  0
 30 29  1  0
 31 27  1  0
 32 33  2  0
 33 34  1  0
 35 34  2  0
 36 35  1  0
 37 11  1  0
 37 38  1  0
 37 47  1  0
 38 41  1  0
 39 43  1  0
 39 38  1  0
 40 39  2  0
 43 42  1  0
 45 43  1  0
 45 46  1  0
 45 44  1  0
 47 50  1  1
 47 48  1  0
 49 47  1  0
 51 52  1  0
 51  1  1  0
 52 53  1  0
 53 54  1  0
 54 55  1  0
 55 56  1  0
 56 57  1  0
 57 58  1  0
 58 59  1  0
 60 68  1  0
 61 66  1  0
 62 63  1  0
 62 61  1  0
 64 63  1  0
 64 73  1  0
 64 65  1  0
 66 60  1  0
 66 65  1  0
 67 60  2  0
 68 59  1  0
 68 69  1  0
 70 71  2  0
 71 90  1  0
 72 71  1  0
 72 75  1  0
 73 70  1  0
 73 74  1  0
 74 72  2  0
 75 76  1  0
 76 77  2  0
 78 81  1  0
 78 77  1  0
 79 78  2  0
 80 79  1  0
 80 75  2  0
 81 82  1  0
 82 83  1  0
 83 84  2  0
 85 84  1  0
 85 89  1  0
 86 85  2  0
 87 82  2  0
 87 86  1  0
 88 87  1  0
 90 91  1  0
 91 94  1  0
 91 93  1  0
 92 90  2  0
 95 96  1  0
 95 70  1  0
 97 95  1  0
M  ISO  4   9 101  10 101  60 100  68 100
M  END
>  <TORSDO>  (70) 
F 31

>  <SCORE>  (70) 
-10.128

>  <name>  (70) 
70

>  <ligand_id>  (70) 
70

>  <original_smiles>  (70) 
[H]c1c([H])c([H])c2c(c1[H])C([H])([H])C([H])([H])C([H])([H])C2([H])N([H])C(=O)C1([H])N(C(=O)C([H])(N([H])C(=O)C([H])(N([H])C([H])([H])[H])C([H])([H])[H])C(C([H])([H])[H])(C([H])([H])[H])C([H])([H])[H])C([H])([H])c2c([H])c(OC([H])([H])C([H])([H])C([H])([H])OC([H])([H])C([H])([H])[N+]([H])([H])C([H])([H])C([H])([H])OC([H])([H])C([H])([H])C([H])([H])C([H])([H])C([H])([H])C([H])([H])N([H])C(=O)N3C([H])([H])C([H])([H])C([H])([H])C([H])(n4nc(-c5c([H])c([H])c(Oc6c([H])c([H])c(F)c([H])c6F)c([H])c5[H])c(C(=O)N([H])[H])c4N([H])[H])C3([H])[H])c([H])c([H])c2C1([H])[H]

>  <smiles>  (70) 
[H]c1c([H])c([H])c2c(c1[H])C([H])([H])C([H])([H])C([H])([H])C2([H])N([H])C(=O)C1([H])N(C(=O)C([H])(N([H])C(=O)C([H])(N([H])C([H])([H])[H])C([H])([H])[H])C(C([H])([H])[H])(C([H])([H])[H])C([H])([H])[H])C([H])([H])c2c([H])c(OC([H])([H])C([H])([H])C([H])([H])OC([H])([H])C([H])([H])[N+]([H])([H])C([H])([H])C([H])([H])OC([H])([H])C([H])([H])C([H])([H])C([H])([H])C([H])([H])C([H])([H])N([H])C(=O)N3C([H])([H])C([H])([H])C([H])([H])C([H])(n4nc(-c5c([H])c([H])c(Oc6c([H])c([H])c(F)c([H])c6F)c([H])c5[H])c(C(=O)N([H])[H])c4N([H])[H])C3([H])[H])c([H])c([H])c2C1([H])[H]

$$$$
71:0:0
     RDKit          3D

 97104  0  0  1  0  0  0  0  0999 V2000
  -23.9820  -21.7360   19.5240 C   0  0  0  0  0  2  0  0  0  0  0  0
  -24.9930  -22.7290   19.7210 O   0  0  0  0  0  0  0  0  0  0  0  0
  -25.0550  -23.7280   18.7040 C   0  0  0  0  0  2  0  0  0  0  0  0
  -26.3950  -23.7210   17.9530 C   0  0  0  0  0  2  0  0  0  0  0  0
  -27.5920  -23.3950   18.8680 C   0  0  0  0  0  2  0  0  0  0  0  0
  -28.7430  -24.3710   18.5960 C   0  0  0  0  0  2  0  0  0  0  0  0
  -30.0440  -24.1790   19.4000 C   0  0  0  0  0  2  0  0  0  0  0  0
  -30.5260  -25.4760   20.0960 C   0  0  0  0  0  2  0  0  0  0  0  0
  -30.1950  -26.6370   19.3260 O   0  0  0  0  0  0  0  0  0  0  0  0
  -25.6630  -28.5490   24.4850 C   0  0  0  0  0  0  0  0  0  0  0  0
  -29.0110  -27.2440   19.6780 C   0  0  0  0  0  0  0  0  0  0  0  0
  -24.8160  -28.7300   22.1680 C   0  0  0  0  0  3  0  0  0  0  0  0
  -26.5570  -28.4700   20.3350 C   0  0  0  0  0  0  0  0  0  0  0  0
  -27.3160  -28.9380   22.6710 C   0  0  0  0  0  2  0  0  0  0  0  0
  -27.5740  -28.3760   21.2930 C   0  0  0  0  0  0  0  0  0  0  0  0
  -28.8020  -27.7630   20.9740 C   0  0  0  0  0  3  0  0  0  0  0  0
  -27.9940  -27.3780   18.7130 C   0  0  0  0  0  3  0  0  0  0  0  0
  -26.7600  -27.9680   19.0400 C   0  0  0  0  0  3  0  0  0  0  0  0
  -25.2800  -29.1590   20.7540 C   0  0  0  0  0  2  0  0  0  0  0  0
  -25.9390  -28.7080   23.1630 N   0  0  0  0  0  0  0  0  0  0  0  0
  -24.4950  -28.4630   24.8910 O   0  0  0  0  0  0  0  0  0  0  0  0
  -24.0700  -27.3820   22.0570 C   0  0  0  0  0  0  0  0  0  0  0  0
  -22.8800  -27.4050   21.4320 N   0  0  0  0  0  0  0  0  0  0  0  0
  -24.5660  -26.3480   22.5090 O   0  0  0  0  0  0  0  0  0  0  0  0
  -22.5350  -28.2980   21.1060 H   0  0  0  0  0  0  0  0  0  0  0  0
  -19.8150  -26.3360   19.8520 C   0  0  0  0  0  0  0  0  0  0  0  0
  -22.0200  -26.2500   21.1930 C   0  0  0  0  0  3  0  0  0  0  0  0
  -22.5690  -25.3780   20.0410 C   0  0  0  0  0  2  0  0  0  0  0  0
  -21.9660  -25.7210   18.6750 C   0  0  0  0  0  2  0  0  0  0  0  0
  -20.4430  -25.5720   18.7030 C   0  0  0  0  0  2  0  0  0  0  0  0
  -20.5590  -26.6660   21.0160 C   0  0  0  0  0  0  0  0  0  0  0  0
  -19.9290  -27.4050   22.0400 C   0  0  0  0  0  3  0  0  0  0  0  0
  -18.5820  -27.7970   21.9240 C   0  0  0  0  0  3  0  0  0  0  0  0
  -17.8470  -27.4540   20.7770 C   0  0  0  0  0  3  0  0  0  0  0  0
  -18.4620  -26.7270   19.7430 C   0  0  0  0  0  3  0  0  0  0  0  0
  -26.7980  -28.4960   25.5560 C   0  0  0  0  0  3  0  0  0  0  0  0
  -26.6800  -29.7060   26.3810 N   0  0  0  0  0  0  0  0  0  0  0  0
  -27.5110  -30.7530   26.3210 C   0  0  0  0  0  0  0  0  0  0  0  0
  -28.5150  -30.7730   25.6030 O   0  0  0  0  0  0  0  0  0  0  0  0
  -25.8500  -29.7870   26.9500 H   0  0  0  0  0  0  0  0  0  0  0  0
  -26.6010  -33.1000   26.3260 C   0  0  0  0  0  1  0  0  0  0  0  0
  -27.1770  -31.9730   27.2000 C   0  0  0  0  0  3  0  0  0  0  0  0
  -28.7780  -31.5830   29.0200 C   0  0  0  0  0  1  0  0  0  0  0  0
  -28.3370  -32.4870   27.9620 N   0  0  0  0  0  0  0  0  0  0  0  0
  -28.1200  -33.3880   28.3820 H   0  0  0  0  0  0  0  0  0  0  0  0
  -26.7590  -27.1970   26.4500 C   0  0  1  0  0  0  0  0  0  0  0  0
  -25.3810  -26.9250   27.0930 C   0  0  0  0  0  1  0  0  0  0  0  0
  -27.1440  -25.9460   25.6250 C   0  0  0  0  0  1  0  0  0  0  0  0
  -27.7960  -27.3120   27.5910 C   0  0  0  0  0  1  0  0  0  0  0  0
  -24.3070  -20.8820   18.2910 C   0  0  0  0  0  2  0  0  0  0  0  0
  -25.5300  -20.1240   18.5510 N   0  0  0  0  0  0  0  0  0  0  0  0
  -26.0440  -20.6760   19.2370 H   0  0  0  0  0  0  0  0  0  0  0  0
  -26.3630  -19.8910   17.3600 C   0  0  0  0  0  2  0  0  0  0  0  0
  -27.4350  -18.7960   17.6010 C   0  0  0  0  0  2  0  0  0  0  0  0
  -27.9270  -18.7660   18.9970 N   0  0  0  0  0  4  0  0  0  0  0  0
  -28.1210  -19.7170   19.2690 H   0  0  0  0  0  0  0  0  0  0  0  0
  -27.1470  -18.4300   19.5450 H   0  0  0  0  0  0  0  0  0  0  0  0
  -29.1280  -17.9210   19.2470 C   0  0  0  0  0  2  0  0  0  0  0  0
  -29.1880  -17.3670   20.7020 C   0  0  0  0  0  2  0  0  0  0  0  0
  -31.2110  -15.8120   20.5000 C   0  0  0  0  0  0  0  0  0  0  0  0
  -31.3690  -13.4420   19.7820 C   0  0  0  0  0  2  0  0  0  0  0  0
  -30.5580  -13.2000   18.4920 C   0  0  0  0  0  2  0  0  0  0  0  0
  -29.0630  -12.9620   18.7920 C   0  0  0  0  0  2  0  0  0  0  0  0
  -28.4850  -14.0120   19.7770 C   0  0  0  0  0  3  0  0  0  0  0  0
  -29.4070  -14.1220   21.0080 C   0  0  0  0  0  2  0  0  0  0  0  0
  -30.7260  -14.5430   20.5200 N   0  0  0  0  0  0  0  0  0  0  0  0
  -32.3280  -16.0820   20.0400 O   0  0  0  0  0  0  0  0  0  0  0  0
  -30.4770  -16.7590   21.1220 N   0  0  0  0  0  0  0  0  0  0  0  0
  -31.0540  -17.4210   21.6260 H   0  0  0  0  0  0  0  0  0  0  0  0
  -26.0170  -14.5320   20.2780 C   0  0  0  0  0  0  0  0  0  0  0  0
  -24.9710  -13.7250   20.6520 C   0  0  0  0  0  0  0  0  0  0  0  0
  -25.5050  -12.4010   20.7230 C   0  0  0  0  0  0  0  0  0  0  0  0
  -27.1180  -13.6990   20.1730 N   0  0  0  0  0  0  0  0  0  0  0  0
  -26.8090  -12.4190   20.4920 N   0  0  0  0  0  0  0  0  0  0  0  0
  -24.8430  -11.1100   20.9400 C   0  0  0  0  0  0  0  0  0  0  0  0
  -25.0860  -10.3370   22.0980 C   0  0  0  0  0  3  0  0  0  0  0  0
  -24.4260   -9.1040   22.2840 C   0  0  0  0  0  3  0  0  0  0  0  0
  -23.5120   -8.6340   21.3100 C   0  0  0  0  0  0  0  0  0  0  0  0
  -23.2900   -9.3950   20.1510 C   0  0  0  0  0  3  0  0  0  0  0  0
  -23.9540  -10.6210   19.9640 C   0  0  0  0  0  3  0  0  0  0  0  0
  -22.8490   -7.4340   21.3930 O   0  0  0  0  0  0  0  0  0  0  0  0
  -22.2290   -7.0350   22.5520 C   0  0  0  0  0  0  0  0  0  0  0  0
  -21.2080   -7.7980   23.1540 C   0  0  0  0  0  3  0  0  0  0  0  0
  -20.5550   -7.3170   24.3070 C   0  0  0  0  0  3  0  0  0  0  0  0
  -20.9250   -6.0730   24.8550 C   0  0  0  0  0  0  0  0  0  0  0  0
  -21.9400   -5.3090   24.2540 C   0  0  0  0  0  3  0  0  0  0  0  0
  -22.5860   -5.7890   23.1010 C   0  0  0  0  0  0  0  0  0  0  0  0
  -23.5470   -5.0420   22.5100 F   0  0  0  0  0  0  0  0  0  0  0  0
  -20.3050   -5.6050   25.9650 F   0  0  0  0  0  0  0  0  0  0  0  0
  -23.5390  -14.1370   20.8120 C   0  0  0  0  0  0  0  0  0  0  0  0
  -22.7980  -13.4460   21.6790 N   0  0  0  0  0  0  0  0  0  0  0  0
  -23.0810  -15.1010   20.2000 O   0  0  0  0  0  0  0  0  0  0  0  0
  -23.1960  -12.6680   22.1850 H   0  0  0  0  0  0  0  0  0  0  0  0
  -21.8240  -13.6780   21.8140 H   0  0  0  0  0  0  0  0  0  0  0  0
  -26.1060  -15.8860   19.9680 N   0  0  0  0  0  0  0  0  0  0  0  0
  -25.1800  -16.3000   19.9950 H   0  0  0  0  0  0  0  0  0  0  0  0
  -26.4420  -15.9260   19.0100 H   0  0  0  0  0  0  0  0  0  0  0  0
  1  2  1  0
  3  2  1  0
  4  3  1  0
  4  5  1  0
  6  5  1  0
  6  7  1  0
  7  8  1  0
  9 11  1  0
  9  8  1  0
 10 21  2  0
 11 16  1  0
 12 22  1  0
 12 20  1  0
 13 19  1  0
 13 15  1  0
 14 20  1  0
 15 14  1  0
 16 15  2  0
 17 18  1  0
 17 11  2  0
 18 13  2  0
 19 12  1  0
 20 10  1  0
 22 24  2  0
 23 22  1  0
 25 23  1  0
 26 31  1  0
 27 23  1  0
 28 27  1  0
 29 30  1  0
 29 28  1  0
 30 26  1  0
 31 27  1  0
 31 32  2  0
 33 32  1  0
 34 33  2  0
 35 26  2  0
 35 34  1  0
 36 10  1  0
 36 37  1  0
 36 46  1  0
 37 40  1  0
 38 37  1  0
 38 42  1  0
 39 38  2  0
 42 41  1  0
 42 44  1  0
 44 45  1  0
 44 43  1  0
 46 47  1  1
 46 49  1  0
 48 46  1  0
 50 51  1  0
 50  1  1  0
 51 52  1  0
 53 54  1  0
 53 51  1  0
 54 55  1  0
 55 58  1  0
 55 56  1  0
 55 57  1  0
 58 59  1  0
 59 68  1  0
 60 66  1  0
 60 68  1  0
 61 66  1  0
 62 63  1  0
 62 61  1  0
 64 63  1  0
 64 73  1  0
 64 65  1  0
 66 65  1  0
 67 60  2  0
 68 69  1  0
 70 71  2  0
 71 72  1  0
 71 90  1  0
 72 75  1  0
 73 70  1  0
 73 74  1  0
 74 72  2  0
 75 76  1  0
 76 77  2  0
 78 81  1  0
 78 77  1  0
 79 78  2  0
 80 79  1  0
 80 75  2  0
 81 82  1  0
 82 87  2  0
 82 83  1  0
 83 84  2  0
 84 85  1  0
 85 89  1  0
 86 85  2  0
 87 86  1  0
 88 87  1  0
 90 91  1  0
 91 94  1  0
 91 93  1  0
 92 90  2  0
 95 96  1  0
 95 70  1  0
 97 95  1  0
M  ISO  4   8 101   9 101  60 100  68 100
M  END
>  <TORSDO>  (71) 
F 30

>  <SCORE>  (71) 
-5.246

>  <name>  (71) 
71

>  <ligand_id>  (71) 
71

>  <original_smiles>  (71) 
[H]c1c([H])c([H])c2c(c1[H])C([H])([H])C([H])([H])C([H])([H])C2([H])N([H])C(=O)C1([H])N(C(=O)C([H])(N([H])C(=O)C([H])(N([H])C([H])([H])[H])C([H])([H])[H])C(C([H])([H])[H])(C([H])([H])[H])C([H])([H])[H])C([H])([H])c2c([H])c(OC([H])([H])C([H])([H])C([H])([H])C([H])([H])C([H])([H])C([H])([H])OC([H])([H])C([H])([H])N([H])C([H])([H])C([H])([H])[N+]([H])([H])C([H])([H])C([H])([H])N([H])C(=O)N3C([H])([H])C([H])([H])C([H])([H])C([H])(n4nc(-c5c([H])c([H])c(Oc6c([H])c([H])c(F)c([H])c6F)c([H])c5[H])c(C(=O)N([H])[H])c4N([H])[H])C3([H])[H])c([H])c([H])c2C1([H])[H]

>  <smiles>  (71) 
[H]c1c([H])c([H])c2c(c1[H])C([H])([H])C([H])([H])C([H])([H])C2([H])N([H])C(=O)C1([H])N(C(=O)C([H])(N([H])C(=O)C([H])(N([H])C([H])([H])[H])C([H])([H])[H])C(C([H])([H])[H])(C([H])([H])[H])C([H])([H])[H])C([H])([H])c2c([H])c(OC([H])([H])C([H])([H])C([H])([H])C([H])([H])C([H])([H])C([H])([H])OC([H])([H])C([H])([H])N([H])C([H])([H])C([H])([H])[N+]([H])([H])C([H])([H])C([H])([H])N([H])C(=O)N3C([H])([H])C([H])([H])C([H])([H])C([H])(n4nc(-c5c([H])c([H])c(Oc6c([H])c([H])c(F)c([H])c6F)c([H])c5[H])c(C(=O)N([H])[H])c4N([H])[H])C3([H])[H])c([H])c([H])c2C1([H])[H]

$$$$
72:0:0
     RDKit          3D

 95102  0  0  1  0  0  0  0  0999 V2000
  -26.8520  -22.6180   23.4520 C   0  0  0  0  0  2  0  0  0  0  0  0
  -26.5550  -23.4670   22.2810 N   0  0  0  0  0  4  0  0  0  0  0  0
  -25.7700  -24.0410   22.5420 H   0  0  0  0  0  0  0  0  0  0  0  0
  -26.2510  -22.8850   21.5150 H   0  0  0  0  0  0  0  0  0  0  0  0
  -27.6340  -24.3800   21.8310 C   0  0  0  0  0  2  0  0  0  0  0  0
  -27.1160  -25.2960   20.7090 C   0  0  0  0  0  2  0  0  0  0  0  0
  -28.1810  -26.1700   20.0000 C   0  0  0  0  0  2  0  0  0  0  0  0
  -27.6290  -27.0300   18.9900 O   0  0  0  0  0  0  0  0  0  0  0  0
  -25.5710  -31.1690   24.3950 C   0  0  0  0  0  0  0  0  0  0  0  0
  -26.7240  -27.9450   19.4670 C   0  0  0  0  0  0  0  0  0  0  0  0
  -23.8960  -30.7860   22.6150 C   0  0  0  0  0  3  0  0  0  0  0  0
  -24.7820  -29.7160   20.4750 C   0  0  0  0  0  0  0  0  0  0  0  0
  -26.3980  -30.7270   22.0910 C   0  0  0  0  0  2  0  0  0  0  0  0
  -26.0830  -29.7350   20.9920 C   0  0  0  0  0  0  0  0  0  0  0  0
  -27.0600  -28.8430   20.4990 C   0  0  0  0  0  3  0  0  0  0  0  0
  -25.4220  -27.9610   18.9240 C   0  0  0  0  0  3  0  0  0  0  0  0
  -24.4430  -28.8270   19.4420 C   0  0  0  0  0  3  0  0  0  0  0  0
  -23.7920  -30.6920   21.0700 C   0  0  0  0  0  2  0  0  0  0  0  0
  -25.3140  -30.8810   23.0890 N   0  0  0  0  0  0  0  0  0  0  0  0
  -24.6510  -31.3960   25.1920 O   0  0  0  0  0  0  0  0  0  0  0  0
  -23.1230  -29.6010   23.2350 C   0  0  0  0  0  0  0  0  0  0  0  0
  -21.7970  -29.5750   23.0210 N   0  0  0  0  0  0  0  0  0  0  0  0
  -23.7120  -28.7190   23.8670 O   0  0  0  0  0  0  0  0  0  0  0  0
  -21.3890  -30.3240   22.4800 H   0  0  0  0  0  0  0  0  0  0  0  0
  -18.3900  -28.4030   22.7730 C   0  0  0  0  0  0  0  0  0  0  0  0
  -20.8700  -28.5480   23.4900 C   0  0  0  0  0  3  0  0  0  0  0  0
  -21.0640  -27.2290   22.7130 C   0  0  0  0  0  2  0  0  0  0  0  0
  -20.1460  -27.1090   21.4930 C   0  0  0  0  0  2  0  0  0  0  0  0
  -18.6770  -27.1770   21.9220 C   0  0  0  0  0  2  0  0  0  0  0  0
  -19.4240  -29.0580   23.4940 C   0  0  0  0  0  0  0  0  0  0  0  0
  -19.1120  -30.2140   24.2420 C   0  0  0  0  0  3  0  0  0  0  0  0
  -17.7960  -30.7120   24.2860 C   0  0  0  0  0  3  0  0  0  0  0  0
  -16.7740  -30.0510   23.5840 C   0  0  0  0  0  3  0  0  0  0  0  0
  -17.0700  -28.8980   22.8330 C   0  0  0  0  0  3  0  0  0  0  0  0
  -27.0300  -31.2540   24.9440 C   0  0  0  0  0  3  0  0  0  0  0  0
  -27.1040  -32.4230   25.8300 N   0  0  0  0  0  0  0  0  0  0  0  0
  -27.7120  -33.5740   25.5170 C   0  0  0  0  0  0  0  0  0  0  0  0
  -28.3420  -33.7370   24.4680 O   0  0  0  0  0  0  0  0  0  0  0  0
  -26.5650  -32.3810   26.6820 H   0  0  0  0  0  0  0  0  0  0  0  0
  -26.5820  -35.7600   26.0300 C   0  0  0  0  0  1  0  0  0  0  0  0
  -27.6080  -34.7310   26.5290 C   0  0  0  0  0  3  0  0  0  0  0  0
  -29.8510  -34.5620   27.5120 C   0  0  0  0  0  1  0  0  0  0  0  0
  -28.9000  -35.4030   26.7910 N   0  0  0  0  0  0  0  0  0  0  0  0
  -28.7610  -36.2560   27.3280 H   0  0  0  0  0  0  0  0  0  0  0  0
  -27.4860  -29.9470   25.7000 C   0  0  1  0  0  0  0  0  0  0  0  0
  -26.4930  -29.4820   26.7910 C   0  0  0  0  0  1  0  0  0  0  0  0
  -27.6760  -28.7760   24.7080 C   0  0  0  0  0  1  0  0  0  0  0  0
  -28.8580  -30.1820   26.3740 C   0  0  0  0  0  1  0  0  0  0  0  0
  -28.3100  -22.1280   23.4920 C   0  0  0  0  0  2  0  0  0  0  0  0
  -28.6780  -21.5140   24.8590 C   0  0  0  0  0  2  0  0  0  0  0  0
  -30.1420  -21.7520   25.2680 C   0  0  0  0  0  2  0  0  0  0  0  0
  -31.0940  -21.3230   24.2220 N   0  0  0  0  0  4  0  0  0  0  0  0
  -30.8270  -21.7730   23.3610 H   0  0  0  0  0  0  0  0  0  0  0  0
  -31.0240  -20.3280   24.0840 H   0  0  0  0  0  0  0  0  0  0  0  0
  -32.4980  -21.6900   24.5020 C   0  0  0  0  0  2  0  0  0  0  0  0
  -33.4060  -21.3840   23.3000 C   0  0  0  0  0  2  0  0  0  0  0  0
  -34.8960  -21.3250   23.6760 C   0  0  0  0  0  2  0  0  0  0  0  0
  -36.4910  -20.0480   22.2810 C   0  0  0  0  0  0  0  0  0  0  0  0
  -36.6280  -17.9830   20.9580 C   0  0  0  0  0  2  0  0  0  0  0  0
  -36.2620  -18.3020   19.4940 C   0  0  0  0  0  2  0  0  0  0  0  0
  -34.7400  -18.1940   19.2800 C   0  0  0  0  0  2  0  0  0  0  0  0
  -33.9330  -18.9780   20.3500 C   0  0  0  0  0  3  0  0  0  0  0  0
  -34.4410  -18.6530   21.7700 C   0  0  0  0  0  2  0  0  0  0  0  0
  -35.8900  -18.9220   21.8150 N   0  0  0  0  0  0  0  0  0  0  0  0
  -37.7080  -20.2340   22.2470 O   0  0  0  0  0  0  0  0  0  0  0  0
  -35.6960  -21.1030   22.4790 N   0  0  0  0  0  0  0  0  0  0  0  0
  -36.1880  -21.9460   22.2200 H   0  0  0  0  0  0  0  0  0  0  0  0
  -31.4550  -19.6460   20.1180 C   0  0  0  0  0  0  0  0  0  0  0  0
  -30.3190  -18.8980   19.9630 C   0  0  0  0  0  0  0  0  0  0  0  0
  -30.7380  -17.5330   19.9820 C   0  0  0  0  0  0  0  0  0  0  0  0
  -32.4970  -18.7350   20.2270 N   0  0  0  0  0  0  0  0  0  0  0  0
  -32.0460  -17.4560   20.1990 N   0  0  0  0  0  0  0  0  0  0  0  0
  -29.9820  -16.2950   19.7530 C   0  0  0  0  0  0  0  0  0  0  0  0
  -29.8110  -15.3330   20.7740 C   0  0  0  0  0  3  0  0  0  0  0  0
  -29.0680  -14.1580   20.5320 C   0  0  0  0  0  3  0  0  0  0  0  0
  -28.4830  -13.9360   19.2640 C   0  0  0  0  0  0  0  0  0  0  0  0
  -28.6740  -14.8870   18.2450 C   0  0  0  0  0  3  0  0  0  0  0  0
  -29.4190  -16.0540   18.4850 C   0  0  0  0  0  3  0  0  0  0  0  0
  -27.7650  -12.8130   18.9290 O   0  0  0  0  0  0  0  0  0  0  0  0
  -26.8330  -12.2750   19.7800 C   0  0  0  0  0  0  0  0  0  0  0  0
  -25.7200  -13.0180   20.2300 C   0  0  0  0  0  3  0  0  0  0  0  0
  -24.7500  -12.4040   21.0480 C   0  0  0  0  0  3  0  0  0  0  0  0
  -24.8850  -11.0500   21.4090 C   0  0  0  0  0  0  0  0  0  0  0  0
  -25.9910  -10.3090   20.9580 C   0  0  0  0  0  3  0  0  0  0  0  0
  -26.9620  -10.9200   20.1440 C   0  0  0  0  0  0  0  0  0  0  0  0
  -28.0140  -10.1940   19.6940 F   0  0  0  0  0  0  0  0  0  0  0  0
  -23.9510  -10.4590   22.1890 F   0  0  0  0  0  0  0  0  0  0  0  0
  -28.9320  -19.4160   19.7140 C   0  0  0  0  0  0  0  0  0  0  0  0
  -27.9140  -18.6850   20.1520 N   0  0  0  0  0  0  0  0  0  0  0  0
  -28.7460  -20.5040   19.1710 O   0  0  0  0  0  0  0  0  0  0  0  0
  -28.0660  -17.8030   20.6170 H   0  0  0  0  0  0  0  0  0  0  0  0
  -26.9680  -19.0150   20.0220 H   0  0  0  0  0  0  0  0  0  0  0  0
  -31.6940  -21.0160   20.1540 N   0  0  0  0  0  0  0  0  0  0  0  0
  -30.9590  -21.6910   19.9690 H   0  0  0  0  0  0  0  0  0  0  0  0
  -32.6190  -21.4250   20.1540 H   0  0  0  0  0  0  0  0  0  0  0  0
  1 49  1  0
  2  3  1  0
  2  1  1  0
  4  2  1  0
  5  2  1  0
  6  5  1  0
  7  6  1  0
  8 10  1  0
  8  7  1  0
  9 20  2  0
 10 15  1  0
 11 19  1  0
 11 21  1  0
 12 14  1  0
 12 18  1  0
 13 19  1  0
 14 13  1  0
 15 14  2  0
 16 17  1  0
 16 10  2  0
 17 12  2  0
 18 11  1  0
 19  9  1  0
 21 23  2  0
 22 21  1  0
 24 22  1  0
 25 34  2  0
 25 30  1  0
 26 22  1  0
 26 30  1  0
 27 26  1  0
 28 29  1  0
 28 27  1  0
 29 25  1  0
 30 31  2  0
 31 32  1  0
 33 32  2  0
 34 33  1  0
 35  9  1  0
 35 45  1  0
 35 36  1  0
 36 39  1  0
 37 36  1  0
 37 41  1  0
 38 37  2  0
 41 40  1  0
 41 43  1  0
 43 44  1  0
 43 42  1  0
 45 48  1  1
 45 46  1  0
 47 45  1  0
 49 50  1  0
 50 51  1  0
 52 55  1  0
 52 51  1  0
 53 52  1  0
 54 52  1  0
 56 57  1  0
 56 55  1  0
 58 66  1  0
 59 64  1  0
 60 59  1  0
 61 60  1  0
 62 61  1  0
 62 63  1  0
 63 64  1  0
 64 58  1  0
 65 58  2  0
 66 57  1  0
 67 66  1  0
 68 93  1  0
 68 71  1  0
 69 70  1  0
 69 68  2  0
 70 72  2  0
 71 62  1  0
 72 71  1  0
 73 70  1  0
 73 74  1  0
 75 74  2  0
 76 75  1  0
 77 78  1  0
 77 76  2  0
 78 73  2  0
 79 76  1  0
 79 80  1  0
 80 85  2  0
 80 81  1  0
 81 82  2  0
 82 83  1  0
 83 87  1  0
 84 83  2  0
 85 84  1  0
 86 85  1  0
 88 69  1  0
 88 89  1  0
 89 91  1  0
 90 88  2  0
 92 89  1  0
 94 93  1  0
 95 93  1  0
M  ISO  4   7 101   8 101  58 100  66 100
M  END
>  <TORSDO>  (72) 
F 27

>  <SCORE>  (72) 
4.970

>  <name>  (72) 
72

>  <ligand_id>  (72) 
72

>  <original_smiles>  (72) 
[H]c1c([H])c([H])c2c(c1[H])C([H])([H])C([H])([H])C([H])([H])C2([H])N([H])C(=O)C1([H])N(C(=O)C([H])(N([H])C(=O)C([H])(N([H])C([H])([H])[H])C([H])([H])[H])C(C([H])([H])[H])(C([H])([H])[H])C([H])([H])[H])C([H])([H])c2c([H])c(OC([H])([H])C([H])([H])C([H])([H])[N+]([H])([H])C([H])([H])C([H])([H])C([H])([H])C([H])([H])[N+]([H])([H])C([H])([H])C([H])([H])C([H])([H])N([H])C(=O)N3C([H])([H])C([H])([H])C([H])([H])C([H])(n4nc(-c5c([H])c([H])c(Oc6c([H])c([H])c(F)c([H])c6F)c([H])c5[H])c(C(=O)N([H])[H])c4N([H])[H])C3([H])[H])c([H])c([H])c2C1([H])[H]

>  <smiles>  (72) 
[H]c1c([H])c([H])c2c(c1[H])C([H])([H])C([H])([H])C([H])([H])C2([H])N([H])C(=O)C1([H])N(C(=O)C([H])(N([H])C(=O)C([H])(N([H])C([H])([H])[H])C([H])([H])[H])C(C([H])([H])[H])(C([H])([H])[H])C([H])([H])[H])C([H])([H])c2c([H])c(OC([H])([H])C([H])([H])C([H])([H])[N+]([H])([H])C([H])([H])C([H])([H])C([H])([H])C([H])([H])[N+]([H])([H])C([H])([H])C([H])([H])C([H])([H])N([H])C(=O)N3C([H])([H])C([H])([H])C([H])([H])C([H])(n4nc(-c5c([H])c([H])c(Oc6c([H])c([H])c(F)c([H])c6F)c([H])c5[H])c(C(=O)N([H])[H])c4N([H])[H])C3([H])[H])c([H])c([H])c2C1([H])[H]

$$$$
73:0:0
     RDKit          3D

103110  0  0  1  0  0  0  0  0999 V2000
  -35.3150  -21.5340   25.3730 C   0  0  0  0  0  2  0  0  0  0  0  0
  -33.4640  -22.8670   24.3580 C   0  0  0  0  0  0  0  0  0  0  0  0
  -34.4090  -22.6750   25.2860 N   0  0  0  0  0  0  0  0  0  0  0  0
  -33.2150  -22.0380   23.4770 O   0  0  0  0  0  0  0  0  0  0  0  0
  -34.5290  -23.4110   25.9700 H   0  0  0  0  0  0  0  0  0  0  0  0
  -32.7180  -24.2060   24.4180 C   0  0  0  0  0  2  0  0  0  0  0  0
  -32.0550  -24.4510   23.1810 O   0  0  0  0  0  0  0  0  0  0  0  0
  -31.4800  -25.7460   23.1080 C   0  0  0  0  0  2  0  0  0  0  0  0
  -30.8040  -25.8790   21.7390 C   0  0  0  0  0  2  0  0  0  0  0  0
  -30.2820  -27.2940   21.4460 C   0  0  0  0  0  2  0  0  0  0  0  0
  -29.6670  -27.4070   20.0430 C   0  0  0  0  0  2  0  0  0  0  0  0
  -28.4080  -26.7360   19.9810 O   0  0  0  0  0  0  0  0  0  0  0  0
  -24.6080  -31.8740   23.2130 C   0  0  0  0  0  0  0  0  0  0  0  0
  -27.2580  -27.4910   20.0810 C   0  0  0  0  0  0  0  0  0  0  0  0
  -23.3920  -30.4920   21.5550 C   0  0  0  0  0  3  0  0  0  0  0  0
  -24.8420  -28.9600   20.1200 C   0  0  0  0  0  0  0  0  0  0  0  0
  -25.9120  -30.8540   21.3570 C   0  0  0  0  0  2  0  0  0  0  0  0
  -25.9940  -29.4890   20.7120 C   0  0  0  0  0  0  0  0  0  0  0  0
  -27.2000  -28.7600   20.7030 C   0  0  0  0  0  3  0  0  0  0  0  0
  -26.0820  -26.9570   19.5150 C   0  0  0  0  0  3  0  0  0  0  0  0
  -24.8760  -27.6850   19.5260 C   0  0  0  0  0  3  0  0  0  0  0  0
  -23.5960  -29.8180   20.1700 C   0  0  0  0  0  2  0  0  0  0  0  0
  -24.6550  -31.0870   22.1010 N   0  0  0  0  0  0  0  0  0  0  0  0
  -23.5290  -32.1510   23.7560 O   0  0  0  0  0  0  0  0  0  0  0  0
  -22.7380  -29.4670   22.5060 C   0  0  0  0  0  0  0  0  0  0  0  0
  -21.4120  -29.3000   22.3790 N   0  0  0  0  0  0  0  0  0  0  0  0
  -23.4180  -28.8250   23.3100 O   0  0  0  0  0  0  0  0  0  0  0  0
  -20.9280  -29.8750   21.7040 H   0  0  0  0  0  0  0  0  0  0  0  0
  -18.0270  -28.1330   22.8490 C   0  0  0  0  0  0  0  0  0  0  0  0
  -20.5850  -28.3610   23.1350 C   0  0  0  0  0  3  0  0  0  0  0  0
  -20.6750  -26.9350   22.5440 C   0  0  0  0  0  2  0  0  0  0  0  0
  -19.5750  -26.6350   21.5200 C   0  0  0  0  0  2  0  0  0  0  0  0
  -18.1920  -26.7900   22.1590 C   0  0  0  0  0  2  0  0  0  0  0  0
  -19.1510  -28.8790   23.2920 C   0  0  0  0  0  0  0  0  0  0  0  0
  -18.9450  -30.1400   23.8910 C   0  0  0  0  0  3  0  0  0  0  0  0
  -17.6450  -30.6550   24.0550 C   0  0  0  0  0  3  0  0  0  0  0  0
  -16.5340  -29.9050   23.6300 C   0  0  0  0  0  3  0  0  0  0  0  0
  -16.7270  -28.6460   23.0340 C   0  0  0  0  0  3  0  0  0  0  0  0
  -25.9000  -32.4860   23.8410 C   0  0  0  0  0  3  0  0  0  0  0  0
  -25.5910  -33.8650   24.2370 N   0  0  0  0  0  0  0  0  0  0  0  0
  -25.9030  -34.9500   23.5160 C   0  0  0  0  0  0  0  0  0  0  0  0
  -26.5550  -34.8950   22.4700 O   0  0  0  0  0  0  0  0  0  0  0  0
  -25.0210  -33.9840   25.0620 H   0  0  0  0  0  0  0  0  0  0  0  0
  -24.1490  -36.7290   23.2640 C   0  0  0  0  0  1  0  0  0  0  0  0
  -25.4110  -36.3130   24.0370 C   0  0  0  0  0  3  0  0  0  0  0  0
  -27.5590  -37.1810   24.8480 C   0  0  0  0  0  1  0  0  0  0  0  0
  -26.4310  -37.3810   23.9420 N   0  0  0  0  0  0  0  0  0  0  0  0
  -26.0230  -38.2910   24.1400 H   0  0  0  0  0  0  0  0  0  0  0  0
  -26.4480  -31.6590   25.0680 C   0  0  1  0  0  0  0  0  0  0  0  0
  -25.3800  -31.3650   26.1470 C   0  0  0  0  0  1  0  0  0  0  0  0
  -27.0300  -30.3080   24.5920 C   0  0  0  0  0  1  0  0  0  0  0  0
  -27.6050  -32.4300   25.7440 C   0  0  0  0  0  1  0  0  0  0  0  0
  -36.7240  -21.8890   24.8580 C   0  0  0  0  0  2  0  0  0  0  0  0
  -36.8120  -22.2630   23.3610 C   0  0  0  0  0  2  0  0  0  0  0  0
  -36.9340  -20.1000   22.1360 C   0  0  0  0  0  0  0  0  0  0  0  0
  -36.2890  -21.2200   22.4800 N   0  0  0  0  0  0  0  0  0  0  0  0
  -38.0820  -19.8580   22.5150 O   0  0  0  0  0  0  0  0  0  0  0  0
  -35.3450  -21.3460   22.1350 H   0  0  0  0  0  0  0  0  0  0  0  0
  -36.1200  -19.2310   21.3050 C   0  0  0  0  0  3  0  0  0  0  0  0
  -36.4720  -17.9440   21.1220 C   0  0  0  0  0  3  0  0  0  0  0  0
  -35.6870  -16.9400   20.3040 C   0  0  0  0  0  2  0  0  0  0  0  0
  -34.9060  -15.9700   21.2040 C   0  0  0  0  0  2  0  0  0  0  0  0
  -33.6240  -16.5990   21.7730 C   0  0  0  0  0  2  0  0  0  0  0  0
  -32.8500  -15.6520   22.7090 C   0  0  0  0  0  2  0  0  0  0  0  0
  -31.3200  -15.8600   22.6410 C   0  0  0  0  0  2  0  0  0  0  0  0
  -30.8080  -14.2820   20.7460 C   0  0  0  0  0  0  0  0  0  0  0  0
  -30.4110  -12.2790   19.3690 C   0  0  0  0  0  2  0  0  0  0  0  0
  -29.4730  -12.5460   18.1810 C   0  0  0  0  0  2  0  0  0  0  0  0
  -28.0040  -12.3820   18.6060 C   0  0  0  0  0  2  0  0  0  0  0  0
  -27.6690  -13.1970   19.8810 C   0  0  0  0  0  3  0  0  0  0  0  0
  -28.7050  -12.9300   20.9950 C   0  0  0  0  0  2  0  0  0  0  0  0
  -30.0590  -13.1890   20.4660 N   0  0  0  0  0  0  0  0  0  0  0  0
  -31.6980  -14.7050   20.0040 O   0  0  0  0  0  0  0  0  0  0  0  0
  -30.6180  -14.7570   21.9840 N   0  0  0  0  0  0  0  0  0  0  0  0
  -29.9290  -14.2640   22.5330 H   0  0  0  0  0  0  0  0  0  0  0  0
  -25.2640  -13.8150   20.5650 C   0  0  0  0  0  0  0  0  0  0  0  0
  -24.1870  -13.0450   20.9150 C   0  0  0  0  0  0  0  0  0  0  0  0
  -24.6400  -11.6900   20.8730 C   0  0  0  0  0  0  0  0  0  0  0  0
  -26.3060  -12.9300   20.3380 N   0  0  0  0  0  0  0  0  0  0  0  0
  -25.9320  -11.6460   20.5750 N   0  0  0  0  0  0  0  0  0  0  0  0
  -23.9060  -10.4300   21.0410 C   0  0  0  0  0  0  0  0  0  0  0  0
  -24.3610   -9.4220   21.9190 C   0  0  0  0  0  3  0  0  0  0  0  0
  -23.6290   -8.2260   22.0760 C   0  0  0  0  0  3  0  0  0  0  0  0
  -22.4280   -8.0290   21.3540 C   0  0  0  0  0  0  0  0  0  0  0  0
  -21.9910   -9.0260   20.4650 C   0  0  0  0  0  3  0  0  0  0  0  0
  -22.7230  -10.2140   20.3060 C   0  0  0  0  0  3  0  0  0  0  0  0
  -21.6630   -6.8890   21.4240 O   0  0  0  0  0  0  0  0  0  0  0  0
  -21.6840   -6.0740   22.5280 C   0  0  0  0  0  0  0  0  0  0  0  0
  -21.4010   -6.5640   23.8220 C   0  0  0  0  0  3  0  0  0  0  0  0
  -21.3660   -5.6800   24.9180 C   0  0  0  0  0  3  0  0  0  0  0  0
  -21.6040   -4.3060   24.7230 C   0  0  0  0  0  0  0  0  0  0  0  0
  -21.8820   -3.8150   23.4350 C   0  0  0  0  0  3  0  0  0  0  0  0
  -21.9190   -4.6970   22.3410 C   0  0  0  0  0  0  0  0  0  0  0  0
  -22.1670   -4.2160   21.0990 F   0  0  0  0  0  0  0  0  0  0  0  0
  -21.5620   -3.4540   25.7740 F   0  0  0  0  0  0  0  0  0  0  0  0
  -22.7900  -13.5260   21.1830 C   0  0  0  0  0  0  0  0  0  0  0  0
  -22.0550  -12.8250   22.0380 N   0  0  0  0  0  0  0  0  0  0  0  0
  -22.3600  -14.5590   20.6700 O   0  0  0  0  0  0  0  0  0  0  0  0
  -22.4140  -11.9860   22.4690 H   0  0  0  0  0  0  0  0  0  0  0  0
  -21.1180  -13.1280   22.2620 H   0  0  0  0  0  0  0  0  0  0  0  0
  -25.4450  -15.1870   20.4060 N   0  0  0  0  0  0  0  0  0  0  0  0
  -24.6940  -15.8590   20.5200 H   0  0  0  0  0  0  0  0  0  0  0  0
  -26.3150  -15.6100   20.1080 H   0  0  0  0  0  0  0  0  0  0  0  0
  2  6  1  0
  2  3  1  0
  3  1  1  0
  3  5  1  0
  4  2  2  0
  7  6  1  0
  8  7  1  0
  9  8  1  0
 10  9  1  0
 11 10  1  0
 12 11  1  0
 12 14  1  0
 13 24  2  0
 14 19  1  0
 15 23  1  0
 15 25  1  0
 16 22  1  0
 16 18  1  0
 17 23  1  0
 18 17  1  0
 19 18  2  0
 20 21  1  0
 20 14  2  0
 21 16  2  0
 22 15  1  0
 23 13  1  0
 25 27  2  0
 26 25  1  0
 28 26  1  0
 29 38  2  0
 29 34  1  0
 30 26  1  0
 30 34  1  0
 31 30  1  0
 32 33  1  0
 32 31  1  0
 33 29  1  0
 34 35  2  0
 35 36  1  0
 37 36  2  0
 38 37  1  0
 39 13  1  0
 39 40  1  0
 39 49  1  0
 40 43  1  0
 41 45  1  0
 41 40  1  0
 42 41  2  0
 45 44  1  0
 47 45  1  0
 47 48  1  0
 47 46  1  0
 49 52  1  1
 49 50  1  0
 51 49  1  0
 53  1  1  0
 54 53  1  0
 55 56  1  0
 55 57  2  0
 56 54  1  0
 58 56  1  0
 59 55  1  0
 60 59  2  0
 61 60  1  0
 61 62  1  0
 62 63  1  0
 63 64  1  0
 65 64  1  0
 66 74  1  0
 67 72  1  0
 68 69  1  0
 68 67  1  0
 70 69  1  0
 70 79  1  0
 70 71  1  0
 72 66  1  0
 72 71  1  0
 73 66  2  0
 74 75  1  0
 74 65  1  0
 76 77  2  0
 77 96  1  0
 78 77  1  0
 78 81  1  0
 79 76  1  0
 79 80  1  0
 80 78  2  0
 81 82  1  0
 82 83  2  0
 84 87  1  0
 84 83  1  0
 85 84  2  0
 86 85  1  0
 86 81  2  0
 87 88  1  0
 88 89  1  0
 89 90  2  0
 91 90  1  0
 91 95  1  0
 92 91  2  0
 93 88  2  0
 93 92  1  0
 94 93  1  0
 96 97  1  0
 97100  1  0
 97 99  1  0
 98 96  2  0
101102  1  0
101 76  1  0
103101  1  0
M  ISO  4  11 101  12 101  66 100  74 100
M  END
>  <TORSDO>  (73) 
F 32

>  <SCORE>  (73) 
27.354

>  <name>  (73) 
73

>  <ligand_id>  (73) 
73

>  <original_smiles>  (73) 
[H]C(C(=O)N([H])C([H])([H])C([H])([H])C([H])([H])N([H])C(=O)C([H])([H])OC([H])([H])C([H])([H])C([H])([H])C([H])([H])Oc1c([H])c([H])c2c(c1[H])C([H])([H])N(C(=O)C([H])(N([H])C(=O)C([H])(N([H])C([H])([H])[H])C([H])([H])[H])C(C([H])([H])[H])(C([H])([H])[H])C([H])([H])[H])C([H])(C(=O)N([H])C1([H])c3c([H])c([H])c([H])c([H])c3C([H])([H])C([H])([H])C1([H])[H])C2([H])[H])=C([H])C([H])([H])C([H])([H])C([H])([H])C([H])([H])C([H])([H])N([H])C(=O)N1C([H])([H])C([H])([H])C([H])([H])C([H])(n2nc(-c3c([H])c([H])c(Oc4c([H])c([H])c(F)c([H])c4F)c([H])c3[H])c(C(=O)N([H])[H])c2N([H])[H])C1([H])[H]

>  <smiles>  (73) 
[H]C(C(=O)N([H])C([H])([H])C([H])([H])C([H])([H])N([H])C(=O)C([H])([H])OC([H])([H])C([H])([H])C([H])([H])C([H])([H])Oc1c([H])c([H])c2c(c1[H])C([H])([H])N(C(=O)C([H])(N([H])C(=O)C([H])(N([H])C([H])([H])[H])C([H])([H])[H])C(C([H])([H])[H])(C([H])([H])[H])C([H])([H])[H])C([H])(C(=O)N([H])C1([H])c3c([H])c([H])c([H])c([H])c3C([H])([H])C([H])([H])C1([H])[H])C2([H])[H])=C([H])C([H])([H])C([H])([H])C([H])([H])C([H])([H])C([H])([H])N([H])C(=O)N1C([H])([H])C([H])([H])C([H])([H])C([H])(n2nc(-c3c([H])c([H])c(Oc4c([H])c([H])c(F)c([H])c4F)c([H])c3[H])c(C(=O)N([H])[H])c2N([H])[H])C1([H])[H]

$$$$
74:0:0
     RDKit          3D

 98105  0  0  1  0  0  0  0  0999 V2000
  -32.1420  -25.7760   15.0170 C   0  0  0  0  0  2  0  0  0  0  0  0
  -32.8340  -27.1330   14.7720 C   0  0  0  0  0  2  0  0  0  0  0  0
  -31.9370  -28.2360   14.1810 C   0  0  0  0  0  2  0  0  0  0  0  0
  -31.3730  -29.0830   15.1770 O   0  0  0  0  0  0  0  0  0  0  0  0
  -30.2100  -28.5770   15.8170 C   0  0  0  0  0  2  0  0  0  0  0  0
  -30.5280  -28.2340   17.2800 C   0  0  0  0  0  2  0  0  0  0  0  0
  -29.3080  -27.6470   17.9990 C   0  0  0  0  0  2  0  0  0  0  0  0
  -29.5670  -27.3160   19.4810 C   0  0  0  0  0  2  0  0  0  0  0  0
  -28.4390  -26.6450   20.0430 O   0  0  0  0  0  0  0  0  0  0  0  0
  -24.6610  -31.8100   23.2130 C   0  0  0  0  0  0  0  0  0  0  0  0
  -27.2830  -27.3830   20.1250 C   0  0  0  0  0  0  0  0  0  0  0  0
  -23.4380  -30.4120   21.5740 C   0  0  0  0  0  3  0  0  0  0  0  0
  -24.8800  -28.8570   20.1590 C   0  0  0  0  0  0  0  0  0  0  0  0
  -25.9620  -30.7650   21.3690 C   0  0  0  0  0  2  0  0  0  0  0  0
  -26.0380  -29.3920   20.7370 C   0  0  0  0  0  0  0  0  0  0  0  0
  -27.2430  -28.6620   20.7220 C   0  0  0  0  0  3  0  0  0  0  0  0
  -26.1050  -26.8400   19.5740 C   0  0  0  0  0  3  0  0  0  0  0  0
  -24.9020  -27.5750   19.5840 C   0  0  0  0  0  3  0  0  0  0  0  0
  -23.6410  -29.7190   20.1990 C   0  0  0  0  0  2  0  0  0  0  0  0
  -24.7040  -31.0100   22.1110 N   0  0  0  0  0  0  0  0  0  0  0  0
  -23.5830  -32.0920   23.7550 O   0  0  0  0  0  0  0  0  0  0  0  0
  -22.7840  -29.4000   22.5380 C   0  0  0  0  0  0  0  0  0  0  0  0
  -21.4560  -29.2350   22.4210 N   0  0  0  0  0  0  0  0  0  0  0  0
  -23.4670  -28.7640   23.3460 O   0  0  0  0  0  0  0  0  0  0  0  0
  -20.9660  -29.8000   21.7410 H   0  0  0  0  0  0  0  0  0  0  0  0
  -18.0700  -28.0970   22.9500 C   0  0  0  0  0  0  0  0  0  0  0  0
  -20.6340  -28.3090   23.1970 C   0  0  0  0  0  3  0  0  0  0  0  0
  -20.7050  -26.8800   22.6140 C   0  0  0  0  0  2  0  0  0  0  0  0
  -19.5870  -26.5790   21.6090 C   0  0  0  0  0  2  0  0  0  0  0  0
  -18.2150  -26.7460   22.2680 C   0  0  0  0  0  2  0  0  0  0  0  0
  -19.2070  -28.8380   23.3710 C   0  0  0  0  0  0  0  0  0  0  0  0
  -19.0170  -30.1040   23.9680 C   0  0  0  0  0  3  0  0  0  0  0  0
  -17.7230  -30.6280   24.1470 C   0  0  0  0  0  3  0  0  0  0  0  0
  -16.6010  -29.8840   23.7420 C   0  0  0  0  0  3  0  0  0  0  0  0
  -16.7760  -28.6190   23.1520 C   0  0  0  0  0  3  0  0  0  0  0  0
  -25.9530  -32.4310   23.8270 C   0  0  0  0  0  3  0  0  0  0  0  0
  -25.6540  -33.8270   24.1720 N   0  0  0  0  0  0  0  0  0  0  0  0
  -25.9860  -34.8830   23.4170 C   0  0  0  0  0  0  0  0  0  0  0  0
  -26.6480  -34.7860   22.3800 O   0  0  0  0  0  0  0  0  0  0  0  0
  -25.0680  -33.9810   24.9790 H   0  0  0  0  0  0  0  0  0  0  0  0
  -24.2570  -36.6790   23.0910 C   0  0  0  0  0  1  0  0  0  0  0  0
  -25.5060  -36.2690   23.8880 C   0  0  0  0  0  3  0  0  0  0  0  0
  -27.6540  -37.1390   24.7010 C   0  0  0  0  0  1  0  0  0  0  0  0
  -26.5410  -37.3200   23.7730 N   0  0  0  0  0  0  0  0  0  0  0  0
  -26.1380  -38.2390   23.9370 H   0  0  0  0  0  0  0  0  0  0  0  0
  -26.4860  -31.6450   25.0880 C   0  0  1  0  0  0  0  0  0  0  0  0
  -25.4040  -31.3930   26.1620 C   0  0  0  0  0  1  0  0  0  0  0  0
  -27.0660  -30.2720   24.6720 C   0  0  0  0  0  1  0  0  0  0  0  0
  -27.6460  -32.4300   25.7450 C   0  0  0  0  0  1  0  0  0  0  0  0
  -33.1540  -24.7150   15.4940 C   0  0  0  0  0  2  0  0  0  0  0  0
  -32.6340  -23.2620   15.5110 C   0  0  0  0  0  2  0  0  0  0  0  0
  -31.8940  -22.9130   16.7460 N   0  0  0  0  0  4  0  0  0  0  0  0
  -32.4970  -23.0960   17.5320 H   0  0  0  0  0  0  0  0  0  0  0  0
  -31.0830  -23.5050   16.8330 H   0  0  0  0  0  0  0  0  0  0  0  0
  -31.4690  -21.4950   16.7960 C   0  0  0  0  0  2  0  0  0  0  0  0
  -31.0900  -21.0270   18.2200 C   0  0  0  0  0  2  0  0  0  0  0  0
  -30.7280  -19.5280   18.2870 C   0  0  0  0  0  2  0  0  0  0  0  0
  -30.5940  -18.9850   19.7250 C   0  0  0  0  0  2  0  0  0  0  0  0
  -30.2580  -17.4800   19.7580 C   0  0  0  0  0  2  0  0  0  0  0  0
  -30.3720  -16.8270   21.1560 C   0  0  0  0  0  2  0  0  0  0  0  0
  -30.6760  -14.4190   20.5320 C   0  0  0  0  0  0  0  0  0  0  0  0
  -30.3450  -12.2920   19.3350 C   0  0  0  0  0  2  0  0  0  0  0  0
  -29.3940  -12.5350   18.1470 C   0  0  0  0  0  2  0  0  0  0  0  0
  -27.9210  -12.4030   18.5810 C   0  0  0  0  0  2  0  0  0  0  0  0
  -27.6030  -13.2190   19.8620 C   0  0  0  0  0  3  0  0  0  0  0  0
  -28.6640  -12.9560   20.9560 C   0  0  0  0  0  2  0  0  0  0  0  0
  -29.9900  -13.2550   20.3880 N   0  0  0  0  0  0  0  0  0  0  0  0
  -31.7850  -14.6180   20.0320 O   0  0  0  0  0  0  0  0  0  0  0  0
  -29.9910  -15.4100   21.1230 N   0  0  0  0  0  0  0  0  0  0  0  0
  -29.0810  -15.1690   21.4890 H   0  0  0  0  0  0  0  0  0  0  0  0
  -25.2070  -13.8360   20.5740 C   0  0  0  0  0  0  0  0  0  0  0  0
  -24.1370  -13.0670   20.9440 C   0  0  0  0  0  0  0  0  0  0  0  0
  -24.5930  -11.7130   20.9130 C   0  0  0  0  0  0  0  0  0  0  0  0
  -26.2480  -12.9500   20.3430 N   0  0  0  0  0  0  0  0  0  0  0  0
  -25.8820  -11.6700   20.6030 N   0  0  0  0  0  0  0  0  0  0  0  0
  -23.8630  -10.4530   21.1020 C   0  0  0  0  0  0  0  0  0  0  0  0
  -24.3140   -9.4690   22.0100 C   0  0  0  0  0  3  0  0  0  0  0  0
  -23.5850   -8.2750   22.1900 C   0  0  0  0  0  3  0  0  0  0  0  0
  -22.3930   -8.0540   21.4630 C   0  0  0  0  0  0  0  0  0  0  0  0
  -21.9600   -9.0260   20.5440 C   0  0  0  0  0  3  0  0  0  0  0  0
  -22.6890  -10.2120   20.3610 C   0  0  0  0  0  3  0  0  0  0  0  0
  -21.6340   -6.9120   21.5530 O   0  0  0  0  0  0  0  0  0  0  0  0
  -21.6290   -6.1390   22.6860 C   0  0  0  0  0  0  0  0  0  0  0  0
  -21.2850   -6.6700   23.9490 C   0  0  0  0  0  3  0  0  0  0  0  0
  -21.2250   -5.8230   25.0750 C   0  0  0  0  0  3  0  0  0  0  0  0
  -21.5000   -4.4500   24.9400 C   0  0  0  0  0  0  0  0  0  0  0  0
  -21.8400   -3.9180   23.6840 C   0  0  0  0  0  3  0  0  0  0  0  0
  -21.9010   -4.7610   22.5590 C   0  0  0  0  0  0  0  0  0  0  0  0
  -22.2050   -4.2410   21.3460 F   0  0  0  0  0  0  0  0  0  0  0  0
  -21.4360   -3.6360   26.0210 F   0  0  0  0  0  0  0  0  0  0  0  0
  -22.7430  -13.5470   21.2250 C   0  0  0  0  0  0  0  0  0  0  0  0
  -22.0210  -12.8520   22.0970 N   0  0  0  0  0  0  0  0  0  0  0  0
  -22.3020  -14.5730   20.7070 O   0  0  0  0  0  0  0  0  0  0  0  0
  -22.3910  -12.0220   22.5360 H   0  0  0  0  0  0  0  0  0  0  0  0
  -21.0860  -13.1540   22.3290 H   0  0  0  0  0  0  0  0  0  0  0  0
  -25.3780  -15.2060   20.3960 N   0  0  0  0  0  0  0  0  0  0  0  0
  -24.6170  -15.8690   20.4990 H   0  0  0  0  0  0  0  0  0  0  0  0
  -26.2330  -15.6350   20.0620 H   0  0  0  0  0  0  0  0  0  0  0  0
  1 50  1  0
  2  1  1  0
  3  2  1  0
  3  4  1  0
  4  5  1  0
  5  6  1  0
  6  7  1  0
  7  8  1  0
  8  9  1  0
  9 11  1  0
 10 21  2  0
 11 16  1  0
 12 20  1  0
 12 22  1  0
 13 19  1  0
 13 15  1  0
 14 20  1  0
 15 14  1  0
 16 15  2  0
 17 18  1  0
 17 11  2  0
 18 13  2  0
 19 12  1  0
 20 10  1  0
 22 24  2  0
 23 22  1  0
 25 23  1  0
 26 35  2  0
 26 31  1  0
 27 23  1  0
 27 31  1  0
 28 27  1  0
 29 30  1  0
 29 28  1  0
 30 26  1  0
 31 32  2  0
 32 33  1  0
 34 33  2  0
 35 34  1  0
 36 10  1  0
 36 37  1  0
 36 46  1  0
 37 40  1  0
 38 42  1  0
 38 37  1  0
 39 38  2  0
 42 41  1  0
 44 42  1  0
 44 45  1  0
 44 43  1  0
 46 49  1  1
 46 47  1  0
 48 46  1  0
 50 51  1  0
 51 52  1  0
 52 55  1  0
 52 54  1  0
 52 53  1  0
 55 56  1  0
 56 57  1  0
 57 58  1  0
 58 59  1  0
 59 60  1  0
 61 69  1  0
 62 67  1  0
 63 64  1  0
 63 62  1  0
 65 64  1  0
 65 74  1  0
 65 66  1  0
 67 61  1  0
 67 66  1  0
 68 61  2  0
 69 60  1  0
 69 70  1  0
 71 72  2  0
 72 91  1  0
 73 72  1  0
 73 76  1  0
 74 71  1  0
 74 75  1  0
 75 73  2  0
 76 77  1  0
 77 78  2  0
 79 82  1  0
 79 78  1  0
 80 79  2  0
 81 80  1  0
 81 76  2  0
 82 83  1  0
 83 84  1  0
 84 85  2  0
 86 85  1  0
 86 90  1  0
 87 86  2  0
 88 83  2  0
 88 87  1  0
 89 88  1  0
 91 92  1  0
 92 95  1  0
 92 94  1  0
 93 91  2  0
 96 97  1  0
 96 71  1  0
 98 96  1  0
M  ISO  4   8 101   9 101  61 100  69 100
M  END
>  <TORSDO>  (74) 
F 32

>  <SCORE>  (74) 
-10.300

>  <name>  (74) 
74

>  <ligand_id>  (74) 
74

>  <original_smiles>  (74) 
[H]c1c([H])c([H])c2c(c1[H])C([H])([H])C([H])([H])C([H])([H])C2([H])N([H])C(=O)C1([H])N(C(=O)C([H])(N([H])C(=O)C([H])(N([H])C([H])([H])[H])C([H])([H])[H])C(C([H])([H])[H])(C([H])([H])[H])C([H])([H])[H])C([H])([H])c2c([H])c(OC([H])([H])C([H])([H])C([H])([H])C([H])([H])OC([H])([H])C([H])([H])C([H])([H])C([H])([H])C([H])([H])[N+]([H])([H])C([H])([H])C([H])([H])C([H])([H])C([H])([H])C([H])([H])C([H])([H])N([H])C(=O)N3C([H])([H])C([H])([H])C([H])([H])C([H])(n4nc(-c5c([H])c([H])c(Oc6c([H])c([H])c(F)c([H])c6F)c([H])c5[H])c(C(=O)N([H])[H])c4N([H])[H])C3([H])[H])c([H])c([H])c2C1([H])[H]

>  <smiles>  (74) 
[H]c1c([H])c([H])c2c(c1[H])C([H])([H])C([H])([H])C([H])([H])C2([H])N([H])C(=O)C1([H])N(C(=O)C([H])(N([H])C(=O)C([H])(N([H])C([H])([H])[H])C([H])([H])[H])C(C([H])([H])[H])(C([H])([H])[H])C([H])([H])[H])C([H])([H])c2c([H])c(OC([H])([H])C([H])([H])C([H])([H])C([H])([H])OC([H])([H])C([H])([H])C([H])([H])C([H])([H])C([H])([H])[N+]([H])([H])C([H])([H])C([H])([H])C([H])([H])C([H])([H])C([H])([H])C([H])([H])N([H])C(=O)N3C([H])([H])C([H])([H])C([H])([H])C([H])(n4nc(-c5c([H])c([H])c(Oc6c([H])c([H])c(F)c([H])c6F)c([H])c5[H])c(C(=O)N([H])[H])c4N([H])[H])C3([H])[H])c([H])c([H])c2C1([H])[H]

$$$$
75:0:0
     RDKit          3D

 95102  0  0  1  0  0  0  0  0999 V2000
  -27.4220  -20.7950   21.0250 C   0  0  0  0  0  2  0  0  0  0  0  0
  -28.1050  -23.1870   21.2480 C   0  0  0  0  0  0  0  0  0  0  0  0
  -27.1760  -22.2300   21.1350 N   0  0  0  0  0  0  0  0  0  0  0  0
  -29.2840  -22.9670   21.5330 O   0  0  0  0  0  0  0  0  0  0  0  0
  -26.2430  -22.5460   20.8990 H   0  0  0  0  0  0  0  0  0  0  0  0
  -27.5980  -24.5820   20.8880 C   0  0  0  0  0  2  0  0  0  0  0  0
  -28.5390  -25.7790   21.1620 C   0  0  0  0  0  2  0  0  0  0  0  0
  -28.4510  -26.7650   20.1240 O   0  0  0  0  0  0  0  0  0  0  0  0
  -24.6520  -31.9050   23.2170 C   0  0  0  0  0  0  0  0  0  0  0  0
  -27.2890  -27.4950   20.1300 C   0  0  0  0  0  0  0  0  0  0  0  0
  -23.4390  -30.5020   21.5800 C   0  0  0  0  0  3  0  0  0  0  0  0
  -24.8910  -28.9710   20.1490 C   0  0  0  0  0  0  0  0  0  0  0  0
  -25.9620  -30.8750   21.3660 C   0  0  0  0  0  2  0  0  0  0  0  0
  -26.0450  -29.5020   20.7380 C   0  0  0  0  0  0  0  0  0  0  0  0
  -27.2480  -28.7650   20.7400 C   0  0  0  0  0  3  0  0  0  0  0  0
  -26.1320  -26.9800   19.5130 C   0  0  0  0  0  3  0  0  0  0  0  0
  -24.9240  -27.7010   19.5480 C   0  0  0  0  0  3  0  0  0  0  0  0
  -23.6440  -29.8230   20.1990 C   0  0  0  0  0  2  0  0  0  0  0  0
  -24.7020  -31.1100   22.1130 N   0  0  0  0  0  0  0  0  0  0  0  0
  -23.5750  -32.1700   23.7680 O   0  0  0  0  0  0  0  0  0  0  0  0
  -22.7990  -29.4740   22.5430 C   0  0  0  0  0  0  0  0  0  0  0  0
  -21.4760  -29.2860   22.4240 N   0  0  0  0  0  0  0  0  0  0  0  0
  -23.4910  -28.8480   23.3500 O   0  0  0  0  0  0  0  0  0  0  0  0
  -20.9790  -29.8420   21.7460 H   0  0  0  0  0  0  0  0  0  0  0  0
  -18.1070  -28.0800   22.9370 C   0  0  0  0  0  0  0  0  0  0  0  0
  -20.6670  -28.3430   23.1970 C   0  0  0  0  0  3  0  0  0  0  0  0
  -20.7730  -26.9130   22.6190 C   0  0  0  0  0  2  0  0  0  0  0  0
  -19.6670  -26.5900   21.6100 C   0  0  0  0  0  2  0  0  0  0  0  0
  -18.2860  -26.7300   22.2590 C   0  0  0  0  0  2  0  0  0  0  0  0
  -19.2270  -28.8440   23.3630 C   0  0  0  0  0  0  0  0  0  0  0  0
  -19.0060  -30.1060   23.9530 C   0  0  0  0  0  3  0  0  0  0  0  0
  -17.7030  -30.6060   24.1210 C   0  0  0  0  0  3  0  0  0  0  0  0
  -16.5980  -29.8360   23.7170 C   0  0  0  0  0  3  0  0  0  0  0  0
  -16.8020  -28.5770   23.1260 C   0  0  0  0  0  3  0  0  0  0  0  0
  -25.9410  -32.5390   23.8260 C   0  0  0  0  0  3  0  0  0  0  0  0
  -26.4790  -31.7600   25.0880 C   0  0  1  0  0  0  0  0  0  0  0  0
  -25.4000  -31.5080   26.1690 C   0  0  0  0  0  1  0  0  0  0  0  0
  -27.0660  -30.3900   24.6770 C   0  0  0  0  0  1  0  0  0  0  0  0
  -27.6350  -32.5540   25.7390 C   0  0  0  0  0  1  0  0  0  0  0  0
  -25.6300  -33.9330   24.1670 N   0  0  0  0  0  0  0  0  0  0  0  0
  -25.9440  -34.9890   23.4070 C   0  0  0  0  0  0  0  0  0  0  0  0
  -26.5970  -34.8900   22.3630 O   0  0  0  0  0  0  0  0  0  0  0  0
  -25.0550  -34.0810   24.9830 H   0  0  0  0  0  0  0  0  0  0  0  0
  -24.1910  -36.7620   23.0870 C   0  0  0  0  0  1  0  0  0  0  0  0
  -25.4520  -36.3710   23.8760 C   0  0  0  0  0  3  0  0  0  0  0  0
  -27.5960  -37.2660   24.6660 C   0  0  0  0  0  1  0  0  0  0  0  0
  -26.4720  -37.4320   23.7490 N   0  0  0  0  0  0  0  0  0  0  0  0
  -26.0620  -38.3480   23.9070 H   0  0  0  0  0  0  0  0  0  0  0  0
  -26.9490  -20.2740   19.6520 C   0  0  0  0  0  2  0  0  0  0  0  0
  -27.4530  -21.0740   18.4200 C   0  0  0  0  0  2  0  0  0  0  0  0
  -28.7750  -20.5680   17.8230 C   0  0  0  0  0  2  0  0  0  0  0  0
  -29.8260  -20.7240   18.7730 O   0  0  0  0  0  0  0  0  0  0  0  0
  -31.0380  -20.0350   18.4640 C   0  0  0  0  0  2  0  0  0  0  0  0
  -31.3590  -19.0890   19.6320 C   0  0  0  0  0  2  0  0  0  0  0  0
  -30.3180  -17.9580   19.7210 C   0  0  0  0  0  2  0  0  0  0  0  0
  -29.8550  -17.6130   21.1390 C   0  0  0  0  0  2  0  0  0  0  0  0
  -30.7380  -16.5650   21.8320 C   0  0  0  0  0  2  0  0  0  0  0  0
  -30.9210  -14.4550   20.4740 C   0  0  0  0  0  0  0  0  0  0  0  0
  -30.5800  -12.3990   19.1490 C   0  0  0  0  0  2  0  0  0  0  0  0
  -29.6350  -12.6520   17.9610 C   0  0  0  0  0  2  0  0  0  0  0  0
  -28.1550  -12.5390   18.3840 C   0  0  0  0  0  2  0  0  0  0  0  0
  -27.8350  -13.3360   19.6760 C   0  0  0  0  0  3  0  0  0  0  0  0
  -28.8730  -13.0160   20.7680 C   0  0  0  0  0  2  0  0  0  0  0  0
  -30.2150  -13.3250   20.2300 N   0  0  0  0  0  0  0  0  0  0  0  0
  -31.9800  -14.7490   19.9040 O   0  0  0  0  0  0  0  0  0  0  0  0
  -30.3440  -15.2400   21.3860 N   0  0  0  0  0  0  0  0  0  0  0  0
  -29.4460  -14.9080   21.7110 H   0  0  0  0  0  0  0  0  0  0  0  0
  -25.4310  -13.9820   20.3350 C   0  0  0  0  0  0  0  0  0  0  0  0
  -24.3540  -13.2310   20.7140 C   0  0  0  0  0  0  0  0  0  0  0  0
  -24.8010  -11.8730   20.7230 C   0  0  0  0  0  0  0  0  0  0  0  0
  -26.4710  -13.0880   20.1410 N   0  0  0  0  0  0  0  0  0  0  0  0
  -26.0910  -11.8120   20.4220 N   0  0  0  0  0  0  0  0  0  0  0  0
  -24.0650  -10.6240   20.9420 C   0  0  0  0  0  0  0  0  0  0  0  0
  -24.4910   -9.6770   21.8990 C   0  0  0  0  0  3  0  0  0  0  0  0
  -23.7590   -8.4880   22.1060 C   0  0  0  0  0  3  0  0  0  0  0  0
  -22.5860   -8.2380   21.3540 C   0  0  0  0  0  0  0  0  0  0  0  0
  -22.1790   -9.1740   20.3870 C   0  0  0  0  0  3  0  0  0  0  0  0
  -22.9110  -10.3540   20.1800 C   0  0  0  0  0  3  0  0  0  0  0  0
  -21.8250   -7.0990   21.4640 O   0  0  0  0  0  0  0  0  0  0  0  0
  -21.7690   -6.3820   22.6320 C   0  0  0  0  0  0  0  0  0  0  0  0
  -21.3640   -6.9720   23.8500 C   0  0  0  0  0  3  0  0  0  0  0  0
  -21.2580   -6.1840   25.0120 C   0  0  0  0  0  3  0  0  0  0  0  0
  -21.5400   -4.8040   24.9560 C   0  0  0  0  0  0  0  0  0  0  0  0
  -21.9350   -4.2150   23.7420 C   0  0  0  0  0  3  0  0  0  0  0  0
  -22.0460   -5.0020   22.5830 C   0  0  0  0  0  0  0  0  0  0  0  0
  -22.4070   -4.4240   21.4110 F   0  0  0  0  0  0  0  0  0  0  0  0
  -21.4290   -4.0450   26.0700 F   0  0  0  0  0  0  0  0  0  0  0  0
  -22.9570  -13.7260   20.9640 C   0  0  0  0  0  0  0  0  0  0  0  0
  -22.2200  -13.0620   21.8440 N   0  0  0  0  0  0  0  0  0  0  0  0
  -22.5280  -14.7380   20.4070 O   0  0  0  0  0  0  0  0  0  0  0  0
  -22.5800  -12.2470   22.3200 H   0  0  0  0  0  0  0  0  0  0  0  0
  -21.2820  -13.3750   22.0470 H   0  0  0  0  0  0  0  0  0  0  0  0
  -25.6120  -15.3480   20.1240 N   0  0  0  0  0  0  0  0  0  0  0  0
  -24.8560  -16.0190   20.2140 H   0  0  0  0  0  0  0  0  0  0  0  0
  -26.4800  -15.7650   19.8090 H   0  0  0  0  0  0  0  0  0  0  0  0
  1  3  1  0
  2  4  2  0
  3  2  1  0
  5  3  1  0
  6  7  1  0
  6  2  1  0
  8 10  1  0
  8  7  1  0
  9 20  2  0
 10 15  1  0
 11 19  1  0
 11 21  1  0
 12 18  1  0
 12 14  1  0
 13 19  1  0
 14 15  2  0
 14 13  1  0
 16 17  1  0
 16 10  2  0
 17 12  2  0
 18 11  1  0
 19  9  1  0
 21 23  2  0
 22 21  1  0
 24 22  1  0
 25 34  2  0
 25 30  1  0
 26 22  1  0
 26 30  1  0
 27 26  1  0
 28 29  1  0
 28 27  1  0
 29 25  1  0
 30 31  2  0
 31 32  1  0
 33 32  2  0
 34 33  1  0
 35  9  1  0
 35 40  1  0
 35 36  1  0
 36 39  1  1
 36 37  1  0
 38 36  1  0
 40 43  1  0
 41 45  1  0
 41 40  1  0
 42 41  2  0
 45 44  1  0
 47 45  1  0
 47 48  1  0
 47 46  1  0
 49  1  1  0
 50 49  1  0
 51 50  1  0
 51 52  1  0
 53 52  1  0
 53 54  1  0
 54 55  1  0
 55 56  1  0
 56 57  1  0
 58 66  1  0
 59 64  1  0
 60 61  1  0
 60 59  1  0
 62 61  1  0
 62 71  1  0
 62 63  1  0
 64 58  1  0
 64 63  1  0
 65 58  2  0
 66 67  1  0
 66 57  1  0
 68 69  2  0
 69 70  1  0
 69 88  1  0
 70 73  1  0
 71 68  1  0
 71 72  1  0
 72 70  2  0
 73 74  1  0
 74 75  2  0
 76 79  1  0
 76 75  1  0
 77 76  2  0
 78 77  1  0
 78 73  2  0
 79 80  1  0
 80 81  1  0
 81 82  2  0
 83 82  1  0
 83 87  1  0
 84 83  2  0
 85 80  2  0
 85 84  1  0
 86 85  1  0
 88 89  1  0
 89 92  1  0
 89 91  1  0
 90 88  2  0
 93 94  1  0
 93 68  1  0
 95 93  1  0
M  ISO  4   7 101   8 101  58 100  66 100
M  END
>  <TORSDO>  (75) 
F 28

>  <SCORE>  (75) 
-10.700

>  <name>  (75) 
75

>  <ligand_id>  (75) 
75

>  <original_smiles>  (75) 
[H]c1c([H])c([H])c2c(c1[H])C([H])([H])C([H])([H])C([H])([H])C2([H])N([H])C(=O)C1([H])N(C(=O)C([H])(N([H])C(=O)C([H])(N([H])C([H])([H])[H])C([H])([H])[H])C(C([H])([H])[H])(C([H])([H])[H])C([H])([H])[H])C([H])([H])c2c([H])c(OC([H])([H])C([H])([H])C(=O)N([H])C([H])([H])C([H])([H])C([H])([H])C([H])([H])OC([H])([H])C([H])([H])C([H])([H])C([H])([H])C([H])([H])N([H])C(=O)N3C([H])([H])C([H])([H])C([H])([H])C([H])(n4nc(-c5c([H])c([H])c(Oc6c([H])c([H])c(F)c([H])c6F)c([H])c5[H])c(C(=O)N([H])[H])c4N([H])[H])C3([H])[H])c([H])c([H])c2C1([H])[H]

>  <smiles>  (75) 
[H]c1c([H])c([H])c2c(c1[H])C([H])([H])C([H])([H])C([H])([H])C2([H])N([H])C(=O)C1([H])N(C(=O)C([H])(N([H])C(=O)C([H])(N([H])C([H])([H])[H])C([H])([H])[H])C(C([H])([H])[H])(C([H])([H])[H])C([H])([H])[H])C([H])([H])c2c([H])c(OC([H])([H])C([H])([H])C(=O)N([H])C([H])([H])C([H])([H])C([H])([H])C([H])([H])OC([H])([H])C([H])([H])C([H])([H])C([H])([H])C([H])([H])N([H])C(=O)N3C([H])([H])C([H])([H])C([H])([H])C([H])(n4nc(-c5c([H])c([H])c(Oc6c([H])c([H])c(F)c([H])c6F)c([H])c5[H])c(C(=O)N([H])[H])c4N([H])[H])C3([H])[H])c([H])c([H])c2C1([H])[H]

$$$$
76:0:0
     RDKit          3D

 97104  0  0  1  0  0  0  0  0999 V2000
  -26.5540  -23.3640   16.6670 N   0  0  0  0  0  4  0  0  0  0  0  0
  -26.2920  -22.6420   16.0130 H   0  0  0  0  0  0  0  0  0  0  0  0
  -25.7730  -23.4920   17.2900 H   0  0  0  0  0  0  0  0  0  0  0  0
  -27.7380  -22.9040   17.4230 C   0  0  0  0  0  2  0  0  0  0  0  0
  -27.5190  -21.5770   18.1730 C   0  0  0  0  0  2  0  0  0  0  0  0
  -28.8230  -21.0970   18.8410 C   0  0  0  0  0  2  0  0  0  0  0  0
  -28.6400  -19.8250   19.6890 C   0  0  0  0  0  2  0  0  0  0  0  0
  -29.9260  -19.3280   20.2210 N   0  0  0  0  0  4  0  0  0  0  0  0
  -30.3600  -20.0550   20.7680 H   0  0  0  0  0  0  0  0  0  0  0  0
  -30.5320  -19.1250   19.4420 H   0  0  0  0  0  0  0  0  0  0  0  0
  -29.8130  -18.1100   21.0530 C   0  0  0  0  0  2  0  0  0  0  0  0
  -31.1980  -17.5180   21.3690 C   0  0  0  0  0  2  0  0  0  0  0  0
  -31.1670  -16.2360   22.2280 C   0  0  0  0  0  2  0  0  0  0  0  0
  -30.7700  -14.4720   20.4980 C   0  0  0  0  0  0  0  0  0  0  0  0
  -30.3160  -12.5280   19.0560 C   0  0  0  0  0  2  0  0  0  0  0  0
  -29.3330  -12.8890   17.9270 C   0  0  0  0  0  2  0  0  0  0  0  0
  -27.8800  -12.7030   18.3990 C   0  0  0  0  0  2  0  0  0  0  0  0
  -27.6050  -13.4080   19.7540 C   0  0  0  0  0  3  0  0  0  0  0  0
  -28.6960  -13.0600   20.7920 C   0  0  0  0  0  2  0  0  0  0  0  0
  -30.0170  -13.3790   20.2160 N   0  0  0  0  0  0  0  0  0  0  0  0
  -31.7360  -14.8270   19.8180 O   0  0  0  0  0  0  0  0  0  0  0  0
  -30.4340  -15.1210   21.6210 N   0  0  0  0  0  0  0  0  0  0  0  0
  -29.6720  -14.7240   22.1530 H   0  0  0  0  0  0  0  0  0  0  0  0
  -25.2110  -13.9500   20.5350 C   0  0  0  0  0  0  0  0  0  0  0  0
  -24.1670  -13.1480   20.9100 C   0  0  0  0  0  0  0  0  0  0  0  0
  -24.6500  -11.8060   20.8260 C   0  0  0  0  0  0  0  0  0  0  0  0
  -26.2670  -13.0960   20.2540 N   0  0  0  0  0  0  0  0  0  0  0  0
  -25.9320  -11.8010   20.4810 N   0  0  0  0  0  0  0  0  0  0  0  0
  -23.9520  -10.5260   20.9990 C   0  0  0  0  0  0  0  0  0  0  0  0
  -24.3630   -9.5860   21.9700 C   0  0  0  0  0  3  0  0  0  0  0  0
  -23.6650   -8.3710   22.1300 C   0  0  0  0  0  3  0  0  0  0  0  0
  -22.5400   -8.0850   21.3190 C   0  0  0  0  0  0  0  0  0  0  0  0
  -22.1500   -9.0150   20.3380 C   0  0  0  0  0  3  0  0  0  0  0  0
  -22.8490  -10.2230   20.1770 C   0  0  0  0  0  3  0  0  0  0  0  0
  -21.8180   -6.9190   21.3850 O   0  0  0  0  0  0  0  0  0  0  0  0
  -21.6800   -6.2230   22.5580 C   0  0  0  0  0  0  0  0  0  0  0  0
  -21.0510   -6.7870   23.6900 C   0  0  0  0  0  3  0  0  0  0  0  0
  -20.8700   -6.0120   24.8540 C   0  0  0  0  0  3  0  0  0  0  0  0
  -21.3060   -4.6740   24.8840 C   0  0  0  0  0  0  0  0  0  0  0  0
  -21.9280   -4.1090   23.7560 C   0  0  0  0  0  3  0  0  0  0  0  0
  -22.1110   -4.8820   22.5950 C   0  0  0  0  0  0  0  0  0  0  0  0
  -22.6920   -4.3260   21.5040 F   0  0  0  0  0  0  0  0  0  0  0  0
  -21.1240   -3.9270   25.9990 F   0  0  0  0  0  0  0  0  0  0  0  0
  -22.7700  -13.5920   21.2350 C   0  0  0  0  0  0  0  0  0  0  0  0
  -22.0760  -12.8510   22.0930 N   0  0  0  0  0  0  0  0  0  0  0  0
  -22.3020  -14.6280   20.7650 O   0  0  0  0  0  0  0  0  0  0  0  0
  -22.4670  -12.0110   22.4930 H   0  0  0  0  0  0  0  0  0  0  0  0
  -21.1380  -13.1260   22.3510 H   0  0  0  0  0  0  0  0  0  0  0  0
  -25.3450  -15.3280   20.3930 N   0  0  0  0  0  0  0  0  0  0  0  0
  -24.5650  -15.9610   20.5290 H   0  0  0  0  0  0  0  0  0  0  0  0
  -26.1770  -15.7930   20.0510 H   0  0  0  0  0  0  0  0  0  0  0  0
  -26.7630  -24.6080   15.8850 C   0  0  0  0  0  2  0  0  0  0  0  0
  -27.1350  -25.8310   16.7570 C   0  0  0  0  0  2  0  0  0  0  0  0
  -28.6530  -26.0790   16.9220 C   0  0  0  0  0  2  0  0  0  0  0  0
  -29.0110  -26.9230   18.1620 C   0  0  0  0  0  2  0  0  0  0  0  0
  -28.9950  -26.1180   19.4850 C   0  0  0  0  0  2  0  0  0  0  0  0
  -28.6970  -26.9270   20.6220 O   0  0  0  0  0  0  0  0  0  0  0  0
  -24.7130  -32.0350   23.5530 C   0  0  0  0  0  0  0  0  0  0  0  0
  -27.4760  -27.5660   20.6460 C   0  0  0  0  0  0  0  0  0  0  0  0
  -23.5590  -30.5860   21.9120 C   0  0  0  0  0  3  0  0  0  0  0  0
  -25.0580  -29.0210   20.5770 C   0  0  0  0  0  0  0  0  0  0  0  0
  -26.0830  -30.9630   21.7690 C   0  0  0  0  0  2  0  0  0  0  0  0
  -26.1940  -29.5760   21.1800 C   0  0  0  0  0  0  0  0  0  0  0  0
  -27.4040  -28.8530   21.2200 C   0  0  0  0  0  3  0  0  0  0  0  0
  -26.3050  -26.9990   20.0890 C   0  0  0  0  0  3  0  0  0  0  0  0
  -25.1040  -27.7250   20.0410 C   0  0  0  0  0  3  0  0  0  0  0  0
  -23.8100  -29.8730   20.5580 C   0  0  0  0  0  2  0  0  0  0  0  0
  -24.8020  -31.2090   22.4720 N   0  0  0  0  0  0  0  0  0  0  0  0
  -23.6160  -32.3150   24.0540 O   0  0  0  0  0  0  0  0  0  0  0  0
  -22.8870  -29.5840   22.8770 C   0  0  0  0  0  0  0  0  0  0  0  0
  -21.5960  -29.3000   22.6390 N   0  0  0  0  0  0  0  0  0  0  0  0
  -23.5290  -29.0620   23.7930 O   0  0  0  0  0  0  0  0  0  0  0  0
  -21.1390  -29.7790   21.8750 H   0  0  0  0  0  0  0  0  0  0  0  0
  -18.2960  -27.8510   22.8480 C   0  0  0  0  0  0  0  0  0  0  0  0
  -20.7700  -28.3590   23.3920 C   0  0  0  0  0  3  0  0  0  0  0  0
  -21.0590  -26.9000   22.9680 C   0  0  0  0  0  2  0  0  0  0  0  0
  -20.1220  -26.3940   21.8660 C   0  0  0  0  0  2  0  0  0  0  0  0
  -18.6630  -26.4690   22.3270 C   0  0  0  0  0  2  0  0  0  0  0  0
  -19.2870  -28.7430   23.3340 C   0  0  0  0  0  0  0  0  0  0  0  0
  -18.8980  -30.0280   23.7720 C   0  0  0  0  0  3  0  0  0  0  0  0
  -17.5460  -30.4210   23.7350 C   0  0  0  0  0  3  0  0  0  0  0  0
  -16.5680  -29.5280   23.2700 C   0  0  0  0  0  3  0  0  0  0  0  0
  -16.9420  -28.2460   22.8310 C   0  0  0  0  0  3  0  0  0  0  0  0
  -25.9780  -32.6860   24.1930 C   0  0  0  0  0  3  0  0  0  0  0  0
  -25.6810  -34.1050   24.4180 N   0  0  0  0  0  0  0  0  0  0  0  0
  -26.0640  -35.0990   23.6060 C   0  0  0  0  0  0  0  0  0  0  0  0
  -26.7800  -34.9170   22.6170 O   0  0  0  0  0  0  0  0  0  0  0  0
  -25.0570  -34.3250   25.1800 H   0  0  0  0  0  0  0  0  0  0  0  0
  -24.3860  -36.8860   23.0420 C   0  0  0  0  0  1  0  0  0  0  0  0
  -25.5750  -36.5190   23.9440 C   0  0  0  0  0  3  0  0  0  0  0  0
  -27.6670  -37.4360   24.8450 C   0  0  0  0  0  1  0  0  0  0  0  0
  -26.6300  -37.5500   23.8240 N   0  0  0  0  0  0  0  0  0  0  0  0
  -26.2310  -38.4830   23.8800 H   0  0  0  0  0  0  0  0  0  0  0  0
  -26.4260  -31.9870   25.5360 C   0  0  1  0  0  0  0  0  0  0  0  0
  -25.2720  -31.7770   26.5450 C   0  0  0  0  0  1  0  0  0  0  0  0
  -27.0520  -30.6040   25.2460 C   0  0  0  0  0  1  0  0  0  0  0  0
  -27.5230  -32.8300   26.2290 C   0  0  0  0  0  1  0  0  0  0  0  0
  1  3  1  0
  1  4  1  0
  2  1  1  0
  4  5  1  0
  5  6  1  0
  6  7  1  0
  7  8  1  0
  8  9  1  0
  8 11  1  0
 10  8  1  0
 11 12  1  0
 12 13  1  0
 14 22  1  0
 15 20  1  0
 16 17  1  0
 16 15  1  0
 18 17  1  0
 18 27  1  0
 18 19  1  0
 20 14  1  0
 20 19  1  0
 21 14  2  0
 22 23  1  0
 22 13  1  0
 24 25  2  0
 25 44  1  0
 26 25  1  0
 26 29  1  0
 27 28  1  0
 27 24  1  0
 28 26  2  0
 29 30  1  0
 30 31  2  0
 32 35  1  0
 32 31  1  0
 33 32  2  0
 34 33  1  0
 34 29  2  0
 35 36  1  0
 36 41  2  0
 36 37  1  0
 37 38  2  0
 38 39  1  0
 39 43  1  0
 40 39  2  0
 41 40  1  0
 42 41  1  0
 44 45  1  0
 45 48  1  0
 45 47  1  0
 46 44  2  0
 49 50  1  0
 49 24  1  0
 51 49  1  0
 52  1  1  0
 52 53  1  0
 53 54  1  0
 54 55  1  0
 55 56  1  0
 56 57  1  0
 57 59  1  0
 58 69  2  0
 59 64  1  0
 60 68  1  0
 60 70  1  0
 61 63  1  0
 62 68  1  0
 63 64  2  0
 63 62  1  0
 65 59  2  0
 66 65  1  0
 66 61  2  0
 67 61  1  0
 67 60  1  0
 68 58  1  0
 70 72  2  0
 71 70  1  0
 73 71  1  0
 74 79  1  0
 75 71  1  0
 76 75  1  0
 77 78  1  0
 77 76  1  0
 78 74  1  0
 79 75  1  0
 79 80  2  0
 81 80  1  0
 82 81  2  0
 83 74  2  0
 83 82  1  0
 84 58  1  0
 84 85  1  0
 84 94  1  0
 85 88  1  0
 86 90  1  0
 86 85  1  0
 87 86  2  0
 90 89  1  0
 92 93  1  0
 92 90  1  0
 92 91  1  0
 94 97  1  1
 94 95  1  0
 96 94  1  0
M  ISO  4  14 100  22 100  56 101  57 101
M  END
>  <TORSDO>  (76) 
F 29

>  <SCORE>  (76) 
-9.359

>  <name>  (76) 
76

>  <ligand_id>  (76) 
76

>  <original_smiles>  (76) 
[H]c1c([H])c([H])c2c(c1[H])C([H])([H])C([H])([H])C([H])([H])C2([H])N([H])C(=O)C1([H])N(C(=O)C([H])(N([H])C(=O)C([H])(N([H])C([H])([H])[H])C([H])([H])[H])C(C([H])([H])[H])(C([H])([H])[H])C([H])([H])[H])C([H])([H])c2c([H])c(OC([H])([H])C([H])([H])C([H])([H])C([H])([H])C([H])([H])[N+]([H])([H])C([H])([H])C([H])([H])C([H])([H])C([H])([H])[N+]([H])([H])C([H])([H])C([H])([H])C([H])([H])N([H])C(=O)N3C([H])([H])C([H])([H])C([H])([H])C([H])(n4nc(-c5c([H])c([H])c(Oc6c([H])c([H])c(F)c([H])c6F)c([H])c5[H])c(C(=O)N([H])[H])c4N([H])[H])C3([H])[H])c([H])c([H])c2C1([H])[H]

>  <smiles>  (76) 
[H]c1c([H])c([H])c2c(c1[H])C([H])([H])C([H])([H])C([H])([H])C2([H])N([H])C(=O)C1([H])N(C(=O)C([H])(N([H])C(=O)C([H])(N([H])C([H])([H])[H])C([H])([H])[H])C(C([H])([H])[H])(C([H])([H])[H])C([H])([H])[H])C([H])([H])c2c([H])c(OC([H])([H])C([H])([H])C([H])([H])C([H])([H])C([H])([H])[N+]([H])([H])C([H])([H])C([H])([H])C([H])([H])C([H])([H])[N+]([H])([H])C([H])([H])C([H])([H])C([H])([H])N([H])C(=O)N3C([H])([H])C([H])([H])C([H])([H])C([H])(n4nc(-c5c([H])c([H])c(Oc6c([H])c([H])c(F)c([H])c6F)c([H])c5[H])c(C(=O)N([H])[H])c4N([H])[H])C3([H])[H])c([H])c([H])c2C1([H])[H]

$$$$
77:0:0
     RDKit          3D

 94101  0  0  1  0  0  0  0  0999 V2000
  -28.9040  -22.7720   20.9450 C   0  0  0  0  0  0  0  0  0  0  0  0
  -28.9880  -24.0440   20.5460 N   0  0  0  0  0  0  0  0  0  0  0  0
  -29.5260  -22.3280   21.9140 O   0  0  0  0  0  0  0  0  0  0  0  0
  -28.4330  -24.3290   19.7500 H   0  0  0  0  0  0  0  0  0  0  0  0
  -27.9490  -21.8690   20.1560 C   0  0  0  0  0  2  0  0  0  0  0  0
  -29.3310  -20.1280   19.0420 C   0  0  0  0  0  0  0  0  0  0  0  0
  -28.4640  -20.5130   19.9860 N   0  0  0  0  0  0  0  0  0  0  0  0
  -29.7880  -20.9150   18.2130 O   0  0  0  0  0  0  0  0  0  0  0  0
  -28.1590  -19.8210   20.6550 H   0  0  0  0  0  0  0  0  0  0  0  0
  -29.7440  -18.6490   18.9850 C   0  0  0  0  0  2  0  0  0  0  0  0
  -29.0510  -17.7060   20.0000 C   0  0  0  0  0  2  0  0  0  0  0  0
  -29.7580  -17.6350   21.3700 C   0  0  0  0  0  2  0  0  0  0  0  0
  -30.9070  -16.6130   21.4170 C   0  0  0  0  0  2  0  0  0  0  0  0
  -30.8650  -14.3600   20.3520 C   0  0  0  0  0  0  0  0  0  0  0  0
  -30.4220  -12.2820   19.1170 C   0  0  0  0  0  2  0  0  0  0  0  0
  -29.4650  -12.5560   17.9430 C   0  0  0  0  0  2  0  0  0  0  0  0
  -27.9940  -12.4560   18.3880 C   0  0  0  0  0  2  0  0  0  0  0  0
  -27.7080  -13.2630   19.6820 C   0  0  0  0  0  3  0  0  0  0  0  0
  -28.7770  -12.9950   20.7680 C   0  0  0  0  0  2  0  0  0  0  0  0
  -30.1120  -13.2410   20.1870 N   0  0  0  0  0  0  0  0  0  0  0  0
  -31.8940  -14.5840   19.7130 O   0  0  0  0  0  0  0  0  0  0  0  0
  -30.3970  -15.2510   21.2370 N   0  0  0  0  0  0  0  0  0  0  0  0
  -29.5620  -14.9940   21.7390 H   0  0  0  0  0  0  0  0  0  0  0  0
  -25.3270  -13.9070   20.4210 C   0  0  0  0  0  0  0  0  0  0  0  0
  -24.2520  -13.1520   20.8070 C   0  0  0  0  0  0  0  0  0  0  0  0
  -24.6920  -11.7920   20.7760 C   0  0  0  0  0  0  0  0  0  0  0  0
  -26.3560  -13.0080   20.1800 N   0  0  0  0  0  0  0  0  0  0  0  0
  -25.9780  -11.7310   20.4480 N   0  0  0  0  0  0  0  0  0  0  0  0
  -23.9500  -10.5410   20.9840 C   0  0  0  0  0  0  0  0  0  0  0  0
  -24.3940   -9.5610   21.8990 C   0  0  0  0  0  3  0  0  0  0  0  0
  -23.6520   -8.3750   22.0930 C   0  0  0  0  0  3  0  0  0  0  0  0
  -22.4530   -8.1630   21.3720 C   0  0  0  0  0  0  0  0  0  0  0  0
  -22.0300   -9.1320   20.4430 C   0  0  0  0  0  3  0  0  0  0  0  0
  -22.7720  -10.3080   20.2470 C   0  0  0  0  0  3  0  0  0  0  0  0
  -21.6780   -7.0330   21.4800 O   0  0  0  0  0  0  0  0  0  0  0  0
  -21.6620   -6.2790   22.6260 C   0  0  0  0  0  0  0  0  0  0  0  0
  -21.3120   -6.8310   23.8770 C   0  0  0  0  0  3  0  0  0  0  0  0
  -21.2380   -6.0050   25.0170 C   0  0  0  0  0  3  0  0  0  0  0  0
  -21.5040   -4.6270   24.9050 C   0  0  0  0  0  0  0  0  0  0  0  0
  -21.8420   -4.0720   23.6590 C   0  0  0  0  0  3  0  0  0  0  0  0
  -21.9190   -4.8960   22.5220 C   0  0  0  0  0  0  0  0  0  0  0  0
  -22.2280   -4.3530   21.3200 F   0  0  0  0  0  0  0  0  0  0  0  0
  -21.4230   -3.8320   25.9970 F   0  0  0  0  0  0  0  0  0  0  0  0
  -22.8660  -13.6510   21.0980 C   0  0  0  0  0  0  0  0  0  0  0  0
  -22.1440  -12.9710   21.9810 N   0  0  0  0  0  0  0  0  0  0  0  0
  -22.4340  -14.6800   20.5800 O   0  0  0  0  0  0  0  0  0  0  0  0
  -22.5040  -12.1390   22.4240 H   0  0  0  0  0  0  0  0  0  0  0  0
  -21.2150  -13.2900   22.2180 H   0  0  0  0  0  0  0  0  0  0  0  0
  -25.5140  -15.2740   20.2370 N   0  0  0  0  0  0  0  0  0  0  0  0
  -24.7670  -15.9480   20.3610 H   0  0  0  0  0  0  0  0  0  0  0  0
  -26.3750  -15.6960   19.9180 H   0  0  0  0  0  0  0  0  0  0  0  0
  -29.7850  -25.1010   21.1650 C   0  0  0  0  0  2  0  0  0  0  0  0
  -28.9260  -26.3610   21.3500 C   0  0  0  0  0  2  0  0  0  0  0  0
  -28.3770  -26.7090   20.0830 O   0  0  0  0  0  0  0  0  0  0  0  0
  -24.6080  -31.8820   23.2320 C   0  0  0  0  0  0  0  0  0  0  0  0
  -27.2320  -27.4610   20.1360 C   0  0  0  0  0  0  0  0  0  0  0  0
  -23.3890  -30.4820   21.5950 C   0  0  0  0  0  3  0  0  0  0  0  0
  -24.8340  -28.9410   20.1650 C   0  0  0  0  0  0  0  0  0  0  0  0
  -25.9090  -30.8430   21.3820 C   0  0  0  0  0  2  0  0  0  0  0  0
  -25.9900  -29.4700   20.7520 C   0  0  0  0  0  0  0  0  0  0  0  0
  -27.1930  -28.7330   20.7470 C   0  0  0  0  0  3  0  0  0  0  0  0
  -26.0690  -26.9430   19.5360 C   0  0  0  0  0  3  0  0  0  0  0  0
  -24.8650  -27.6740   19.5560 C   0  0  0  0  0  3  0  0  0  0  0  0
  -23.5880  -29.7980   20.2150 C   0  0  0  0  0  2  0  0  0  0  0  0
  -24.6540  -31.0830   22.1280 N   0  0  0  0  0  0  0  0  0  0  0  0
  -23.5290  -32.1530   23.7790 O   0  0  0  0  0  0  0  0  0  0  0  0
  -22.7430  -29.4600   22.5600 C   0  0  0  0  0  0  0  0  0  0  0  0
  -21.4180  -29.2840   22.4410 N   0  0  0  0  0  0  0  0  0  0  0  0
  -23.4300  -28.8350   23.3710 O   0  0  0  0  0  0  0  0  0  0  0  0
  -20.9240  -29.8370   21.7550 H   0  0  0  0  0  0  0  0  0  0  0  0
  -18.0440  -28.1020   22.9520 C   0  0  0  0  0  0  0  0  0  0  0  0
  -20.6030  -28.3470   23.2130 C   0  0  0  0  0  3  0  0  0  0  0  0
  -20.6980  -26.9170   22.6350 C   0  0  0  0  0  2  0  0  0  0  0  0
  -19.5890  -26.5990   21.6260 C   0  0  0  0  0  2  0  0  0  0  0  0
  -18.2110  -26.7510   22.2750 C   0  0  0  0  0  2  0  0  0  0  0  0
  -19.1680  -28.8590   23.3770 C   0  0  0  0  0  0  0  0  0  0  0  0
  -18.9560  -30.1260   23.9650 C   0  0  0  0  0  3  0  0  0  0  0  0
  -17.6530  -30.6330   24.1350 C   0  0  0  0  0  3  0  0  0  0  0  0
  -16.5450  -29.8710   23.7260 C   0  0  0  0  0  3  0  0  0  0  0  0
  -16.7400  -28.6070   23.1390 C   0  0  0  0  0  3  0  0  0  0  0  0
  -25.8990  -32.5080   23.8450 C   0  0  0  0  0  3  0  0  0  0  0  0
  -25.5920  -33.9020   24.1900 N   0  0  0  0  0  0  0  0  0  0  0  0
  -25.9150  -34.9590   23.4370 C   0  0  0  0  0  0  0  0  0  0  0  0
  -26.5740  -34.8650   22.3970 O   0  0  0  0  0  0  0  0  0  0  0  0
  -25.0120  -34.0500   25.0040 H   0  0  0  0  0  0  0  0  0  0  0  0
  -24.1810  -36.7490   23.1050 C   0  0  0  0  0  1  0  0  0  0  0  0
  -25.4300  -36.3440   23.9060 C   0  0  0  0  0  3  0  0  0  0  0  0
  -27.5730  -37.2240   24.7200 C   0  0  0  0  0  1  0  0  0  0  0  0
  -26.4580  -37.4010   23.7920 N   0  0  0  0  0  0  0  0  0  0  0  0
  -26.0510  -38.3190   23.9550 H   0  0  0  0  0  0  0  0  0  0  0  0
  -26.4320  -31.7230   25.1050 C   0  0  1  0  0  0  0  0  0  0  0  0
  -25.3520  -31.4740   26.1850 C   0  0  0  0  0  1  0  0  0  0  0  0
  -27.0110  -30.3510   24.6880 C   0  0  0  0  0  1  0  0  0  0  0  0
  -27.5920  -32.5070   25.7600 C   0  0  0  0  0  1  0  0  0  0  0  0
  1  3  2  0
  2  1  1  0
  2 52  1  0
  4  2  1  0
  5  1  1  0
  6  7  1  0
  7  5  1  0
  7  9  1  0
  8  6  2  0
 10  6  1  0
 10 11  1  0
 11 12  1  0
 12 13  1  0
 14 22  1  0
 15 20  1  0
 16 17  1  0
 16 15  1  0
 18 17  1  0
 18 27  1  0
 18 19  1  0
 20 14  1  0
 20 19  1  0
 21 14  2  0
 22 13  1  0
 22 23  1  0
 24 25  2  0
 25 44  1  0
 26 25  1  0
 26 29  1  0
 27 24  1  0
 27 28  1  0
 28 26  2  0
 29 30  1  0
 30 31  2  0
 32 35  1  0
 32 31  1  0
 33 32  2  0
 34 33  1  0
 34 29  2  0
 35 36  1  0
 36 37  1  0
 37 38  2  0
 39 38  1  0
 39 43  1  0
 40 39  2  0
 41 36  2  0
 41 40  1  0
 42 41  1  0
 44 45  1  0
 45 48  1  0
 45 47  1  0
 46 44  2  0
 49 50  1  0
 49 24  1  0
 51 49  1  0
 52 53  1  0
 54 56  1  0
 54 53  1  0
 55 66  2  0
 56 61  1  0
 57 65  1  0
 57 67  1  0
 58 64  1  0
 58 60  1  0
 59 65  1  0
 60 59  1  0
 61 60  2  0
 62 63  1  0
 62 56  2  0
 63 58  2  0
 64 57  1  0
 65 55  1  0
 67 69  2  0
 68 67  1  0
 70 68  1  0
 71 80  2  0
 71 76  1  0
 72 68  1  0
 72 76  1  0
 73 72  1  0
 74 75  1  0
 74 73  1  0
 75 71  1  0
 76 77  2  0
 77 78  1  0
 79 78  2  0
 80 79  1  0
 81 55  1  0
 81 82  1  0
 81 91  1  0
 82 85  1  0
 83 87  1  0
 83 82  1  0
 84 83  2  0
 87 86  1  0
 89 87  1  0
 89 90  1  0
 89 88  1  0
 91 94  1  1
 91 92  1  0
 93 91  1  0
M  ISO  4  14 100  22 100  53 101  54 101
M  END
>  <TORSDO>  (77) 
F 24

>  <SCORE>  (77) 
-12.668

>  <name>  (77) 
77

>  <ligand_id>  (77) 
77

>  <original_smiles>  (77) 
[H]c1c([H])c([H])c2c(c1[H])C([H])([H])C([H])([H])C([H])([H])C2([H])N([H])C(=O)C1([H])N(C(=O)C([H])(N([H])C(=O)C([H])(N([H])C([H])([H])[H])C([H])([H])[H])C(C([H])([H])[H])(C([H])([H])[H])C([H])([H])[H])C([H])([H])c2c([H])c(OC([H])([H])C([H])([H])N([H])C(=O)C([H])([H])N([H])C(=O)C([H])([H])C([H])([H])C([H])([H])C([H])([H])N([H])C(=O)N3C([H])([H])C([H])([H])C([H])([H])C([H])(n4nc(-c5c([H])c([H])c(Oc6c([H])c([H])c(F)c([H])c6F)c([H])c5[H])c(C(=O)N([H])[H])c4N([H])[H])C3([H])[H])c([H])c([H])c2C1([H])[H]

>  <smiles>  (77) 
[H]c1c([H])c([H])c2c(c1[H])C([H])([H])C([H])([H])C([H])([H])C2([H])N([H])C(=O)C1([H])N(C(=O)C([H])(N([H])C(=O)C([H])(N([H])C([H])([H])[H])C([H])([H])[H])C(C([H])([H])[H])(C([H])([H])[H])C([H])([H])[H])C([H])([H])c2c([H])c(OC([H])([H])C([H])([H])N([H])C(=O)C([H])([H])N([H])C(=O)C([H])([H])C([H])([H])C([H])([H])C([H])([H])N([H])C(=O)N3C([H])([H])C([H])([H])C([H])([H])C([H])(n4nc(-c5c([H])c([H])c(Oc6c([H])c([H])c(F)c([H])c6F)c([H])c5[H])c(C(=O)N([H])[H])c4N([H])[H])C3([H])[H])c([H])c([H])c2C1([H])[H]

$$$$
78:0:0
     RDKit          3D

 92 99  0  0  1  0  0  0  0  0999 V2000
  -28.7110  -23.7030   21.6700 C   0  0  0  0  0  2  0  0  0  0  0  0
  -28.7970  -22.3630   21.0500 N   0  0  0  0  0  4  0  0  0  0  0  0
  -27.9210  -22.1670   20.5930 H   0  0  0  0  0  0  0  0  0  0  0  0
  -29.5030  -22.4290   20.3330 H   0  0  0  0  0  0  0  0  0  0  0  0
  -29.1060  -21.2720   22.0000 C   0  0  0  0  0  2  0  0  0  0  0  0
  -28.7910  -19.8700   21.4390 C   0  0  0  0  0  2  0  0  0  0  0  0
  -29.9750  -19.1640   20.7520 C   0  0  0  0  0  2  0  0  0  0  0  0
  -29.7120  -17.6580   20.5870 C   0  0  0  0  0  2  0  0  0  0  0  0
  -30.9780  -16.8260   20.3130 C   0  0  0  0  0  2  0  0  0  0  0  0
  -31.3600  -14.3810   19.9440 C   0  0  0  0  0  0  0  0  0  0  0  0
  -31.0860  -12.0740   19.1300 C   0  0  0  0  0  2  0  0  0  0  0  0
  -30.1350  -12.0850   17.9160 C   0  0  0  0  0  2  0  0  0  0  0  0
  -28.6620  -12.0140   18.3630 C   0  0  0  0  0  2  0  0  0  0  0  0
  -28.3260  -13.0480   19.4710 C   0  0  0  0  0  3  0  0  0  0  0  0
  -29.3770  -12.9780   20.6020 C   0  0  0  0  0  2  0  0  0  0  0  0
  -30.7080  -13.1930   20.0010 N   0  0  0  0  0  0  0  0  0  0  0  0
  -32.4480  -14.5440   19.3790 O   0  0  0  0  0  0  0  0  0  0  0  0
  -30.6680  -15.4080   20.4500 N   0  0  0  0  0  0  0  0  0  0  0  0
  -29.7830  -15.1690   20.8730 H   0  0  0  0  0  0  0  0  0  0  0  0
  -25.9830  -13.8110   20.2220 C   0  0  0  0  0  0  0  0  0  0  0  0
  -24.8830  -13.1070   20.6300 C   0  0  0  0  0  0  0  0  0  0  0  0
  -25.2650  -11.7300   20.6110 C   0  0  0  0  0  0  0  0  0  0  0  0
  -26.9700  -12.8660   19.9820 N   0  0  0  0  0  0  0  0  0  0  0  0
  -26.5410  -11.6120   20.2700 N   0  0  0  0  0  0  0  0  0  0  0  0
  -24.4770  -10.5130   20.8420 C   0  0  0  0  0  0  0  0  0  0  0  0
  -24.8320   -9.5830   21.8450 C   0  0  0  0  0  3  0  0  0  0  0  0
  -24.0490   -8.4280   22.0570 C   0  0  0  0  0  3  0  0  0  0  0  0
  -22.8980   -8.1970   21.2660 C   0  0  0  0  0  0  0  0  0  0  0  0
  -22.5650   -9.1140   20.2540 C   0  0  0  0  0  3  0  0  0  0  0  0
  -23.3470  -10.2600   20.0400 C   0  0  0  0  0  3  0  0  0  0  0  0
  -22.0920   -7.0900   21.3860 O   0  0  0  0  0  0  0  0  0  0  0  0
  -21.8960   -6.4690   22.5930 C   0  0  0  0  0  0  0  0  0  0  0  0
  -21.3770   -7.1590   23.7090 C   0  0  0  0  0  3  0  0  0  0  0  0
  -21.1250   -6.4660   24.9110 C   0  0  0  0  0  3  0  0  0  0  0  0
  -21.3830   -5.0840   24.9940 C   0  0  0  0  0  0  0  0  0  0  0  0
  -21.8930   -4.3940   23.8820 C   0  0  0  0  0  3  0  0  0  0  0  0
  -22.1470   -5.0850   22.6830 C   0  0  0  0  0  0  0  0  0  0  0  0
  -22.6210   -4.4120   21.6060 F   0  0  0  0  0  0  0  0  0  0  0  0
  -21.1330   -4.4150   26.1440 F   0  0  0  0  0  0  0  0  0  0  0  0
  -23.5200  -13.6650   20.9320 C   0  0  0  0  0  0  0  0  0  0  0  0
  -22.7840  -13.0310   21.8370 N   0  0  0  0  0  0  0  0  0  0  0  0
  -23.1190  -14.6980   20.3960 O   0  0  0  0  0  0  0  0  0  0  0  0
  -23.1180  -12.1950   22.2920 H   0  0  0  0  0  0  0  0  0  0  0  0
  -21.8720  -13.3900   22.0820 H   0  0  0  0  0  0  0  0  0  0  0  0
  -26.2210  -15.1670   20.0180 N   0  0  0  0  0  0  0  0  0  0  0  0
  -25.5000  -15.8690   20.1360 H   0  0  0  0  0  0  0  0  0  0  0  0
  -27.0870  -15.5480   19.6590 H   0  0  0  0  0  0  0  0  0  0  0  0
  -28.5910  -24.8010   20.5980 C   0  0  0  0  0  3  0  0  0  0  0  0
  -29.5990  -24.5730   19.6230 O   0  0  0  0  0  0  0  0  0  0  0  0
  -29.5790  -25.3190   19.0270 H   0  0  0  0  0  0  0  0  0  0  0  0
  -28.7940  -26.2130   21.1830 C   0  0  0  0  0  2  0  0  0  0  0  0
  -28.5960  -27.1890   20.1640 O   0  0  0  0  0  0  0  0  0  0  0  0
  -24.6270  -32.0980   23.4570 C   0  0  0  0  0  0  0  0  0  0  0  0
  -27.4040  -27.8620   20.2360 C   0  0  0  0  0  0  0  0  0  0  0  0
  -23.4620  -30.7180   21.7630 C   0  0  0  0  0  3  0  0  0  0  0  0
  -24.9640  -29.2660   20.2970 C   0  0  0  0  0  0  0  0  0  0  0  0
  -25.9740  -31.1580   21.5870 C   0  0  0  0  0  2  0  0  0  0  0  0
  -26.1000  -29.8100   20.9110 C   0  0  0  0  0  0  0  0  0  0  0  0
  -27.3240  -29.1100   20.8860 C   0  0  0  0  0  3  0  0  0  0  0  0
  -26.2590  -27.3220   19.6170 C   0  0  0  0  0  3  0  0  0  0  0  0
  -25.0340  -28.0170   19.6530 C   0  0  0  0  0  3  0  0  0  0  0  0
  -23.6960  -30.0870   20.3630 C   0  0  0  0  0  2  0  0  0  0  0  0
  -24.7040  -31.3360   22.3290 N   0  0  0  0  0  0  0  0  0  0  0  0
  -23.5380  -32.3240   24.0040 O   0  0  0  0  0  0  0  0  0  0  0  0
  -22.8380  -29.6500   22.6850 C   0  0  0  0  0  0  0  0  0  0  0  0
  -21.5280  -29.4080   22.5190 N   0  0  0  0  0  0  0  0  0  0  0  0
  -23.5280  -29.0400   23.5060 O   0  0  0  0  0  0  0  0  0  0  0  0
  -21.0310  -29.9530   21.8290 H   0  0  0  0  0  0  0  0  0  0  0  0
  -18.2090  -28.0240   22.8720 C   0  0  0  0  0  0  0  0  0  0  0  0
  -20.7360  -28.4180   23.2490 C   0  0  0  0  0  3  0  0  0  0  0  0
  -20.9400  -27.0030   22.6630 C   0  0  0  0  0  2  0  0  0  0  0  0
  -19.8980  -26.6350   21.6010 C   0  0  0  0  0  2  0  0  0  0  0  0
  -18.4890  -26.6910   22.2000 C   0  0  0  0  0  2  0  0  0  0  0  0
  -19.2660  -28.8440   23.3500 C   0  0  0  0  0  0  0  0  0  0  0  0
  -18.9550  -30.0910   23.9350 C   0  0  0  0  0  3  0  0  0  0  0  0
  -17.6200  -30.5200   24.0480 C   0  0  0  0  0  3  0  0  0  0  0  0
  -16.5760  -29.6950   23.5910 C   0  0  0  0  0  3  0  0  0  0  0  0
  -16.8720  -28.4510   23.0060 C   0  0  0  0  0  3  0  0  0  0  0  0
  -25.8970  -32.7380   24.1000 C   0  0  0  0  0  3  0  0  0  0  0  0
  -26.3730  -31.9960   25.4100 C   0  0  1  0  0  0  0  0  0  0  0  0
  -25.2420  -31.7720   26.4410 C   0  0  0  0  0  1  0  0  0  0  0  0
  -26.9780  -30.6150   25.0640 C   0  0  0  0  0  1  0  0  0  0  0  0
  -27.4920  -32.8110   26.0970 C   0  0  0  0  0  1  0  0  0  0  0  0
  -25.5850  -34.1450   24.3830 N   0  0  0  0  0  0  0  0  0  0  0  0
  -25.9470  -35.1740   23.6050 C   0  0  0  0  0  0  0  0  0  0  0  0
  -26.6490  -35.0410   22.5990 O   0  0  0  0  0  0  0  0  0  0  0  0
  -24.9680  -34.3230   25.1620 H   0  0  0  0  0  0  0  0  0  0  0  0
  -24.2420  -36.9620   23.1420 C   0  0  0  0  0  1  0  0  0  0  0  0
  -25.4520  -36.5760   24.0070 C   0  0  0  0  0  3  0  0  0  0  0  0
  -27.5620  -37.4730   24.8860 C   0  0  0  0  0  1  0  0  0  0  0  0
  -26.4940  -37.6200   23.9010 N   0  0  0  0  0  0  0  0  0  0  0  0
  -26.0890  -38.5460   24.0120 H   0  0  0  0  0  0  0  0  0  0  0  0
  2  1  1  0
  2  5  1  0
  3  2  1  0
  4  2  1  0
  6  5  1  0
  7  6  1  0
  8  7  1  0
  9 18  1  0
  9  8  1  0
 10 16  1  0
 10 18  1  0
 11 16  1  0
 12 13  1  0
 12 11  1  0
 14 13  1  0
 14 23  1  0
 14 15  1  0
 16 15  1  0
 17 10  2  0
 18 19  1  0
 20 21  2  0
 21 40  1  0
 22 21  1  0
 22 25  1  0
 23 20  1  0
 23 24  1  0
 24 22  2  0
 25 26  1  0
 26 27  2  0
 28 31  1  0
 28 27  1  0
 29 28  2  0
 30 29  1  0
 30 25  2  0
 31 32  1  0
 32 37  2  0
 32 33  1  0
 33 34  2  0
 34 35  1  0
 35 39  1  0
 36 35  2  0
 37 36  1  0
 38 37  1  0
 40 41  1  0
 41 44  1  0
 41 43  1  0
 42 40  2  0
 45 46  1  0
 45 20  1  0
 47 45  1  0
 48 51  1  0
 48  1  1  0
 49 48  1  0
 50 49  1  0
 52 54  1  0
 52 51  1  0
 53 64  2  0
 54 59  1  0
 55 63  1  0
 55 65  1  0
 56 62  1  0
 56 58  1  0
 57 63  1  0
 58 57  1  0
 59 58  2  0
 60 61  1  0
 60 54  2  0
 61 56  2  0
 62 55  1  0
 63 53  1  0
 65 67  2  0
 66 65  1  0
 68 66  1  0
 69 78  2  0
 69 74  1  0
 70 66  1  0
 70 74  1  0
 71 70  1  0
 72 73  1  0
 72 71  1  0
 73 69  1  0
 74 75  2  0
 75 76  1  0
 77 76  2  0
 78 77  1  0
 79 53  1  0
 79 84  1  0
 79 80  1  0
 80 83  1  1
 80 81  1  0
 82 80  1  0
 84 87  1  0
 85 89  1  0
 85 84  1  0
 86 85  2  0
 89 88  1  0
 91 89  1  0
 91 92  1  0
 91 90  1  0
M  ISO  4  10 100  18 100  51 101  52 101
M  END
>  <TORSDO>  (78) 
F 25

>  <SCORE>  (78) 
-10.752

>  <name>  (78) 
78

>  <ligand_id>  (78) 
78

>  <original_smiles>  (78) 
[H]OC([H])(C([H])([H])Oc1c([H])c([H])c2c(c1[H])C([H])([H])N(C(=O)C([H])(N([H])C(=O)C([H])(N([H])C([H])([H])[H])C([H])([H])[H])C(C([H])([H])[H])(C([H])([H])[H])C([H])([H])[H])C([H])(C(=O)N([H])C1([H])c3c([H])c([H])c([H])c([H])c3C([H])([H])C([H])([H])C1([H])[H])C2([H])[H])C([H])([H])[N+]([H])([H])C([H])([H])C([H])([H])C([H])([H])C([H])([H])C([H])([H])N([H])C(=O)N1C([H])([H])C([H])([H])C([H])([H])C([H])(n2nc(-c3c([H])c([H])c(Oc4c([H])c([H])c(F)c([H])c4F)c([H])c3[H])c(C(=O)N([H])[H])c2N([H])[H])C1([H])[H]

>  <smiles>  (78) 
[H]OC([H])(C([H])([H])Oc1c([H])c([H])c2c(c1[H])C([H])([H])N(C(=O)C([H])(N([H])C(=O)C([H])(N([H])C([H])([H])[H])C([H])([H])[H])C(C([H])([H])[H])(C([H])([H])[H])C([H])([H])[H])C([H])(C(=O)N([H])C1([H])c3c([H])c([H])c([H])c([H])c3C([H])([H])C([H])([H])C1([H])[H])C2([H])[H])C([H])([H])[N+]([H])([H])C([H])([H])C([H])([H])C([H])([H])C([H])([H])C([H])([H])N([H])C(=O)N1C([H])([H])C([H])([H])C([H])([H])C([H])(n2nc(-c3c([H])c([H])c(Oc4c([H])c([H])c(F)c([H])c4F)c([H])c3[H])c(C(=O)N([H])[H])c2N([H])[H])C1([H])[H]

$$$$
79:0:0
     RDKit          3D

 94101  0  0  1  0  0  0  0  0999 V2000
  -28.4010  -21.5370   22.7540 C   0  0  0  0  0  2  0  0  0  0  0  0
  -28.0480  -23.0260   22.5670 C   0  0  0  0  0  2  0  0  0  0  0  0
  -28.8470  -23.7050   21.5230 N   0  0  0  0  0  4  0  0  0  0  0  0
  -28.7530  -23.2180   20.6480 H   0  0  0  0  0  0  0  0  0  0  0  0
  -29.8170  -23.6580   21.7990 H   0  0  0  0  0  0  0  0  0  0  0  0
  -28.4720  -25.1290   21.3310 C   0  0  0  0  0  2  0  0  0  0  0  0
  -29.1930  -25.8100   20.1470 C   0  0  0  0  0  2  0  0  0  0  0  0
  -29.0870  -27.2340   20.2310 O   0  0  0  0  0  0  0  0  0  0  0  0
  -24.8110  -31.9810   23.3310 C   0  0  0  0  0  0  0  0  0  0  0  0
  -27.8470  -27.8320   20.1990 C   0  0  0  0  0  0  0  0  0  0  0  0
  -23.7770  -30.5740   21.5950 C   0  0  0  0  0  3  0  0  0  0  0  0
  -25.3610  -29.1750   20.1750 C   0  0  0  0  0  0  0  0  0  0  0  0
  -26.2690  -31.0940   21.5070 C   0  0  0  0  0  2  0  0  0  0  0  0
  -26.4590  -29.7530   20.8250 C   0  0  0  0  0  0  0  0  0  0  0  0
  -27.7000  -29.0880   20.8260 C   0  0  0  0  0  3  0  0  0  0  0  0
  -26.7310  -27.2610   19.5440 C   0  0  0  0  0  3  0  0  0  0  0  0
  -25.4900  -27.9310   19.5310 C   0  0  0  0  0  3  0  0  0  0  0  0
  -24.0680  -29.9500   20.2000 C   0  0  0  0  0  2  0  0  0  0  0  0
  -24.9700  -31.2310   22.2050 N   0  0  0  0  0  0  0  0  0  0  0  0
  -23.6900  -32.1640   23.8260 O   0  0  0  0  0  0  0  0  0  0  0  0
  -23.1490  -29.4940   22.5000 C   0  0  0  0  0  0  0  0  0  0  0  0
  -21.8400  -29.3710   22.3200 N   0  0  0  0  0  0  0  0  0  0  0  0
  -23.8160  -28.7950   23.2640 O   0  0  0  0  0  0  0  0  0  0  0  0
  -21.4330  -30.0990   21.7500 H   0  0  0  0  0  0  0  0  0  0  0  0
  -18.4720  -27.7720   22.5710 C   0  0  0  0  0  0  0  0  0  0  0  0
  -20.9240  -28.2990   22.6060 C   0  0  0  0  0  3  0  0  0  0  0  0
  -21.2630  -26.8290   22.3210 C   0  0  0  0  0  2  0  0  0  0  0  0
  -20.2090  -26.2740   21.3390 C   0  0  0  0  0  2  0  0  0  0  0  0
  -18.7660  -26.4440   21.8670 C   0  0  0  0  0  2  0  0  0  0  0  0
  -19.5120  -28.6140   23.0330 C   0  0  0  0  0  0  0  0  0  0  0  0
  -19.2100  -29.8250   23.6880 C   0  0  0  0  0  3  0  0  0  0  0  0
  -17.8660  -30.2290   23.8360 C   0  0  0  0  0  3  0  0  0  0  0  0
  -16.8320  -29.4090   23.3490 C   0  0  0  0  0  3  0  0  0  0  0  0
  -17.1350  -28.1770   22.7410 C   0  0  0  0  0  3  0  0  0  0  0  0
  -26.0250  -32.6570   24.0350 C   0  0  0  0  0  3  0  0  0  0  0  0
  -26.4890  -31.8930   25.3340 C   0  0  1  0  0  0  0  0  0  0  0  0
  -25.3390  -31.5910   26.3210 C   0  0  0  0  0  1  0  0  0  0  0  0
  -27.1550  -30.5480   24.9650 C   0  0  0  0  0  1  0  0  0  0  0  0
  -27.5570  -32.7270   26.0790 C   0  0  0  0  0  1  0  0  0  0  0  0
  -25.6340  -34.0350   24.3500 N   0  0  0  0  0  0  0  0  0  0  0  0
  -25.9680  -35.1050   23.6170 C   0  0  0  0  0  0  0  0  0  0  0  0
  -26.7060  -35.0370   22.6300 O   0  0  0  0  0  0  0  0  0  0  0  0
  -24.9860  -34.1590   25.1130 H   0  0  0  0  0  0  0  0  0  0  0  0
  -24.1960  -36.8250   23.1520 C   0  0  0  0  0  1  0  0  0  0  0  0
  -25.3960  -36.4680   24.0430 C   0  0  0  0  0  3  0  0  0  0  0  0
  -27.4370  -37.4250   25.0150 C   0  0  0  0  0  1  0  0  0  0  0  0
  -26.3910  -37.5620   24.0070 N   0  0  0  0  0  0  0  0  0  0  0  0
  -25.9390  -38.4630   24.1380 H   0  0  0  0  0  0  0  0  0  0  0  0
  -27.7790  -20.5380   21.7480 C   0  0  0  0  0  2  0  0  0  0  0  0
  -28.4700  -20.3720   20.3770 C   0  0  0  0  0  2  0  0  0  0  0  0
  -30.0040  -20.1760   20.4180 C   0  0  0  0  0  2  0  0  0  0  0  0
  -30.4950  -19.2410   21.4600 N   0  0  0  0  0  4  0  0  0  0  0  0
  -30.0010  -19.3890   22.3300 H   0  0  0  0  0  0  0  0  0  0  0  0
  -31.4530  -19.5100   21.6250 H   0  0  0  0  0  0  0  0  0  0  0  0
  -30.5210  -17.8120   21.0780 C   0  0  0  0  0  2  0  0  0  0  0  0
  -31.4560  -16.9600   21.9740 C   0  0  0  0  0  2  0  0  0  0  0  0
  -31.7490  -14.8500   20.6300 C   0  0  0  0  0  0  0  0  0  0  0  0
  -31.3810  -12.7520   19.3600 C   0  0  0  0  0  2  0  0  0  0  0  0
  -30.5200  -12.9960   18.1080 C   0  0  0  0  0  2  0  0  0  0  0  0
  -29.0190  -12.9250   18.4610 C   0  0  0  0  0  2  0  0  0  0  0  0
  -28.6620  -13.8360   19.6640 C   0  0  0  0  0  3  0  0  0  0  0  0
  -29.6160  -13.5440   20.8410 C   0  0  0  0  0  2  0  0  0  0  0  0
  -31.0140  -13.7360   20.3860 N   0  0  0  0  0  0  0  0  0  0  0  0
  -32.7480  -15.1870   19.9830 O   0  0  0  0  0  0  0  0  0  0  0  0
  -31.2900  -15.5400   21.6800 N   0  0  0  0  0  0  0  0  0  0  0  0
  -30.5600  -15.0570   22.1880 H   0  0  0  0  0  0  0  0  0  0  0  0
  -26.2820  -14.6480   20.2410 C   0  0  0  0  0  0  0  0  0  0  0  0
  -25.1430  -13.9680   20.5680 C   0  0  0  0  0  0  0  0  0  0  0  0
  -25.4960  -12.5830   20.5610 C   0  0  0  0  0  0  0  0  0  0  0  0
  -27.2640  -13.6850   20.0650 N   0  0  0  0  0  0  0  0  0  0  0  0
  -26.7900  -12.4390   20.3110 N   0  0  0  0  0  0  0  0  0  0  0  0
  -24.6660  -11.3870   20.7280 C   0  0  0  0  0  0  0  0  0  0  0  0
  -24.9680  -10.4010   21.6920 C   0  0  0  0  0  3  0  0  0  0  0  0
  -24.1410   -9.2660   21.8380 C   0  0  0  0  0  3  0  0  0  0  0  0
  -22.9970   -9.1100   21.0210 C   0  0  0  0  0  0  0  0  0  0  0  0
  -22.7140  -10.0840   20.0480 C   0  0  0  0  0  3  0  0  0  0  0  0
  -23.5400  -11.2100   19.9020 C   0  0  0  0  0  3  0  0  0  0  0  0
  -22.1570   -8.0230   21.0700 O   0  0  0  0  0  0  0  0  0  0  0  0
  -21.9570   -7.3210   22.2300 C   0  0  0  0  0  0  0  0  0  0  0  0
  -21.4950   -7.9480   23.4060 C   0  0  0  0  0  3  0  0  0  0  0  0
  -21.2360   -7.1780   24.5590 C   0  0  0  0  0  3  0  0  0  0  0  0
  -21.4300   -5.7840   24.5320 C   0  0  0  0  0  0  0  0  0  0  0  0
  -21.8810   -5.1580   23.3580 C   0  0  0  0  0  3  0  0  0  0  0  0
  -22.1420   -5.9240   22.2080 C   0  0  0  0  0  0  0  0  0  0  0  0
  -22.5580   -5.3150   21.0720 F   0  0  0  0  0  0  0  0  0  0  0  0
  -21.1750   -5.0400   25.6340 F   0  0  0  0  0  0  0  0  0  0  0  0
  -23.7760  -14.5570   20.7860 C   0  0  0  0  0  0  0  0  0  0  0  0
  -22.9620  -13.9340   21.6280 N   0  0  0  0  0  0  0  0  0  0  0  0
  -23.4430  -15.6070   20.2410 O   0  0  0  0  0  0  0  0  0  0  0  0
  -23.2390  -13.0810   22.0940 H   0  0  0  0  0  0  0  0  0  0  0  0
  -22.0520  -14.3270   21.8190 H   0  0  0  0  0  0  0  0  0  0  0  0
  -26.5730  -15.9980   20.0600 N   0  0  0  0  0  0  0  0  0  0  0  0
  -25.8410  -16.7010   20.0600 H   0  0  0  0  0  0  0  0  0  0  0  0
  -27.4710  -16.3480   19.7510 H   0  0  0  0  0  0  0  0  0  0  0  0
  2  1  1  0
  3  5  1  0
  3  2  1  0
  4  3  1  0
  6  3  1  0
  7  8  1  0
  7  6  1  0
  9 20  2  0
 10  8  1  0
 10 15  1  0
 11 19  1  0
 11 21  1  0
 12 18  1  0
 12 14  1  0
 13 19  1  0
 14 15  2  0
 14 13  1  0
 16 10  2  0
 17 16  1  0
 17 12  2  0
 18 11  1  0
 19  9  1  0
 21 23  2  0
 22 21  1  0
 24 22  1  0
 25 34  2  0
 25 30  1  0
 26 22  1  0
 26 30  1  0
 27 26  1  0
 28 29  1  0
 28 27  1  0
 29 25  1  0
 30 31  2  0
 31 32  1  0
 33 32  2  0
 34 33  1  0
 35  9  1  0
 35 40  1  0
 35 36  1  0
 36 39  1  1
 36 37  1  0
 38 36  1  0
 40 43  1  0
 41 45  1  0
 41 40  1  0
 42 41  2  0
 45 44  1  0
 47 45  1  0
 47 48  1  0
 47 46  1  0
 49  1  1  0
 50 51  1  0
 50 49  1  0
 51 52  1  0
 52 54  1  0
 52 53  1  0
 55 52  1  0
 55 56  1  0
 57 65  1  0
 58 63  1  0
 59 60  1  0
 59 58  1  0
 61 60  1  0
 61 70  1  0
 61 62  1  0
 63 57  1  0
 63 62  1  0
 64 57  2  0
 65 56  1  0
 65 66  1  0
 67 68  2  0
 68 87  1  0
 69 68  1  0
 69 72  1  0
 70 67  1  0
 70 71  1  0
 71 69  2  0
 72 73  1  0
 73 74  2  0
 75 78  1  0
 75 74  1  0
 76 75  2  0
 77 76  1  0
 77 72  2  0
 78 79  1  0
 79 80  1  0
 80 81  2  0
 82 81  1  0
 82 86  1  0
 83 82  2  0
 84 79  2  0
 84 83  1  0
 85 84  1  0
 87 88  1  0
 88 91  1  0
 88 90  1  0
 89 87  2  0
 92 93  1  0
 92 67  1  0
 94 92  1  0
M  ISO  4   7 101   8 101  57 100  65 100
M  END
>  <TORSDO>  (79) 
F 26

>  <SCORE>  (79) 
-7.198

>  <name>  (79) 
79

>  <ligand_id>  (79) 
79

>  <original_smiles>  (79) 
[H]c1c([H])c([H])c2c(c1[H])C([H])([H])C([H])([H])C([H])([H])C2([H])N([H])C(=O)C1([H])N(C(=O)C([H])(N([H])C(=O)C([H])(N([H])C([H])([H])[H])C([H])([H])[H])C(C([H])([H])[H])(C([H])([H])[H])C([H])([H])[H])C([H])([H])c2c([H])c(OC([H])([H])C([H])([H])[N+]([H])([H])C([H])([H])C([H])([H])C([H])([H])C([H])([H])C([H])([H])[N+]([H])([H])C([H])([H])C([H])([H])N([H])C(=O)N3C([H])([H])C([H])([H])C([H])([H])C([H])(n4nc(-c5c([H])c([H])c(Oc6c([H])c([H])c(F)c([H])c6F)c([H])c5[H])c(C(=O)N([H])[H])c4N([H])[H])C3([H])[H])c([H])c([H])c2C1([H])[H]

>  <smiles>  (79) 
[H]c1c([H])c([H])c2c(c1[H])C([H])([H])C([H])([H])C([H])([H])C2([H])N([H])C(=O)C1([H])N(C(=O)C([H])(N([H])C(=O)C([H])(N([H])C([H])([H])[H])C([H])([H])[H])C(C([H])([H])[H])(C([H])([H])[H])C([H])([H])[H])C([H])([H])c2c([H])c(OC([H])([H])C([H])([H])[N+]([H])([H])C([H])([H])C([H])([H])C([H])([H])C([H])([H])C([H])([H])[N+]([H])([H])C([H])([H])C([H])([H])N([H])C(=O)N3C([H])([H])C([H])([H])C([H])([H])C([H])(n4nc(-c5c([H])c([H])c(Oc6c([H])c([H])c(F)c([H])c6F)c([H])c5[H])c(C(=O)N([H])[H])c4N([H])[H])C3([H])[H])c([H])c([H])c2C1([H])[H]

$$$$
80:0:0
     RDKit          3D

 97104  0  0  1  0  0  0  0  0999 V2000
  -29.6690  -22.9210   24.4090 C   0  0  0  0  0  2  0  0  0  0  0  0
  -29.6630  -24.4340   24.1200 C   0  0  0  0  0  2  0  0  0  0  0  0
  -28.6860  -24.8100   23.0780 N   0  0  0  0  0  4  0  0  0  0  0  0
  -27.7990  -25.0090   23.5180 H   0  0  0  0  0  0  0  0  0  0  0  0
  -28.5530  -24.0250   22.4630 H   0  0  0  0  0  0  0  0  0  0  0  0
  -29.1220  -25.9800   22.2840 C   0  0  0  0  0  2  0  0  0  0  0  0
  -28.0150  -26.5480   21.3900 C   0  0  0  0  0  2  0  0  0  0  0  0
  -27.6130  -25.6200   20.2260 C   0  0  0  0  0  2  0  0  0  0  0  0
  -27.1060  -26.3640   19.1310 O   0  0  0  0  0  0  0  0  0  0  0  0
  -24.6850  -31.3880   23.5350 C   0  0  0  0  0  0  0  0  0  0  0  0
  -26.0930  -27.2280   19.4460 C   0  0  0  0  0  0  0  0  0  0  0  0
  -23.0630  -30.5370   21.8700 C   0  0  0  0  0  3  0  0  0  0  0  0
  -24.0330  -29.0500   20.0410 C   0  0  0  0  0  0  0  0  0  0  0  0
  -25.5730  -30.4930   21.3880 C   0  0  0  0  0  2  0  0  0  0  0  0
  -25.3240  -29.2680   20.5370 C   0  0  0  0  0  0  0  0  0  0  0  0
  -26.3610  -28.3670   20.2330 C   0  0  0  0  0  3  0  0  0  0  0  0
  -24.7900  -27.0040   18.9570 C   0  0  0  0  0  3  0  0  0  0  0  0
  -23.7580  -27.9160   19.2520 C   0  0  0  0  0  3  0  0  0  0  0  0
  -22.9880  -30.0850   20.3880 C   0  0  0  0  0  2  0  0  0  0  0  0
  -24.4690  -30.8040   22.3240 N   0  0  0  0  0  0  0  0  0  0  0  0
  -23.7400  -31.7450   24.2530 O   0  0  0  0  0  0  0  0  0  0  0  0
  -22.3290  -29.4900   22.7360 C   0  0  0  0  0  0  0  0  0  0  0  0
  -20.9920  -29.4510   22.6170 N   0  0  0  0  0  0  0  0  0  0  0  0
  -22.9570  -28.7200   23.4680 O   0  0  0  0  0  0  0  0  0  0  0  0
  -20.5510  -30.1180   22.0000 H   0  0  0  0  0  0  0  0  0  0  0  0
  -17.5440  -28.4300   22.9080 C   0  0  0  0  0  0  0  0  0  0  0  0
  -20.0970  -28.5220   23.3050 C   0  0  0  0  0  3  0  0  0  0  0  0
  -20.1470  -27.1200   22.6570 C   0  0  0  0  0  2  0  0  0  0  0  0
  -19.0750  -26.9140   21.5820 C   0  0  0  0  0  2  0  0  0  0  0  0
  -17.6760  -27.1080   22.1740 C   0  0  0  0  0  2  0  0  0  0  0  0
  -18.6830  -29.1010   23.4270 C   0  0  0  0  0  0  0  0  0  0  0  0
  -18.5100  -30.3460   24.0710 C   0  0  0  0  0  3  0  0  0  0  0  0
  -17.2300  -30.9150   24.2030 C   0  0  0  0  0  3  0  0  0  0  0  0
  -16.1030  -30.2380   23.7050 C   0  0  0  0  0  3  0  0  0  0  0  0
  -16.2630  -28.9980   23.0610 C   0  0  0  0  0  3  0  0  0  0  0  0
  -26.1270  -31.6590   24.0680 C   0  0  0  0  0  3  0  0  0  0  0  0
  -26.1010  -32.9370   24.7880 N   0  0  0  0  0  0  0  0  0  0  0  0
  -26.5980  -34.0870   24.3150 C   0  0  0  0  0  0  0  0  0  0  0  0
  -27.2010  -34.1640   23.2400 O   0  0  0  0  0  0  0  0  0  0  0  0
  -25.5600  -32.9640   25.6400 H   0  0  0  0  0  0  0  0  0  0  0  0
  -25.2500  -36.1930   24.5810 C   0  0  0  0  0  1  0  0  0  0  0  0
  -26.3940  -35.3530   25.1680 C   0  0  0  0  0  3  0  0  0  0  0  0
  -28.6650  -35.5550   26.0780 C   0  0  0  0  0  1  0  0  0  0  0  0
  -27.6110  -36.1840   25.2860 N   0  0  0  0  0  0  0  0  0  0  0  0
  -27.3950  -37.0850   25.7040 H   0  0  0  0  0  0  0  0  0  0  0  0
  -26.6730  -30.5030   24.9920 C   0  0  1  0  0  0  0  0  0  0  0  0
  -25.6980  -30.1070   26.1260 C   0  0  0  0  0  1  0  0  0  0  0  0
  -26.9740  -29.2340   24.1600 C   0  0  0  0  0  1  0  0  0  0  0  0
  -28.0100  -30.9320   25.6410 C   0  0  0  0  0  1  0  0  0  0  0  0
  -31.0940  -22.3870   24.6520 C   0  0  0  0  0  2  0  0  0  0  0  0
  -31.1850  -20.8550   24.5280 C   0  0  0  0  0  2  0  0  0  0  0  0
  -32.3770  -20.4190   23.7640 N   0  0  0  0  0  4  0  0  0  0  0  0
  -32.5310  -21.0270   22.9770 H   0  0  0  0  0  0  0  0  0  0  0  0
  -33.1790  -20.5160   24.3650 H   0  0  0  0  0  0  0  0  0  0  0  0
  -32.3330  -19.0210   23.2780 C   0  0  0  0  0  2  0  0  0  0  0  0
  -31.3360  -18.8450   22.1120 C   0  0  0  0  0  2  0  0  0  0  0  0
  -31.3110  -17.4270   21.5160 C   0  0  0  0  0  2  0  0  0  0  0  0
  -30.5060  -17.3880   20.2030 C   0  0  0  0  0  2  0  0  0  0  0  0
  -30.9240  -16.2830   19.2180 C   0  0  0  0  0  2  0  0  0  0  0  0
  -30.2900  -13.9250   18.6780 C   0  0  0  0  0  0  0  0  0  0  0  0
  -30.4130  -11.5200   19.1700 C   0  0  0  0  0  2  0  0  0  0  0  0
  -29.5040  -10.6180   18.3220 C   0  0  0  0  0  2  0  0  0  0  0  0
  -28.1030  -10.5220   18.9450 C   0  0  0  0  0  2  0  0  0  0  0  0
  -27.5050  -11.9150   19.2610 C   0  0  0  0  0  3  0  0  0  0  0  0
  -28.5060  -12.7990   20.0390 C   0  0  0  0  0  2  0  0  0  0  0  0
  -29.7890  -12.8420   19.3130 N   0  0  0  0  0  0  0  0  0  0  0  0
  -31.0480  -13.8620   17.7040 O   0  0  0  0  0  0  0  0  0  0  0  0
  -30.1380  -15.0590   19.3820 N   0  0  0  0  0  0  0  0  0  0  0  0
  -29.5770  -14.9850   20.2180 H   0  0  0  0  0  0  0  0  0  0  0  0
  -25.3680  -12.7810   20.4090 C   0  0  0  0  0  0  0  0  0  0  0  0
  -24.2850  -12.1310   20.9390 C   0  0  0  0  0  0  0  0  0  0  0  0
  -24.5460  -10.7360   20.7780 C   0  0  0  0  0  0  0  0  0  0  0  0
  -26.2300  -11.7890   19.9670 N   0  0  0  0  0  0  0  0  0  0  0  0
  -25.7450  -10.5500   20.2410 N   0  0  0  0  0  0  0  0  0  0  0  0
  -23.7000   -9.5670   21.0560 C   0  0  0  0  0  0  0  0  0  0  0  0
  -23.8800   -8.7850   22.2180 C   0  0  0  0  0  3  0  0  0  0  0  0
  -23.0440   -7.6770   22.4730 C   0  0  0  0  0  3  0  0  0  0  0  0
  -22.0120   -7.3430   21.5640 C   0  0  0  0  0  0  0  0  0  0  0  0
  -21.8500   -8.1120   20.3990 C   0  0  0  0  0  3  0  0  0  0  0  0
  -22.6860   -9.2120   20.1430 C   0  0  0  0  0  3  0  0  0  0  0  0
  -21.1690   -6.2690   21.7150 O   0  0  0  0  0  0  0  0  0  0  0  0
  -20.5100   -6.0310   22.8950 C   0  0  0  0  0  0  0  0  0  0  0  0
  -19.6380   -6.9820   23.4660 C   0  0  0  0  0  3  0  0  0  0  0  0
  -18.9290   -6.6690   24.6440 C   0  0  0  0  0  3  0  0  0  0  0  0
  -19.0830   -5.4060   25.2430 C   0  0  0  0  0  0  0  0  0  0  0  0
  -19.9490   -4.4560   24.6740 C   0  0  0  0  0  3  0  0  0  0  0  0
  -20.6590   -4.7680   23.5010 C   0  0  0  0  0  0  0  0  0  0  0  0
  -21.4740   -3.8400   22.9430 F   0  0  0  0  0  0  0  0  0  0  0  0
  -18.3970   -5.1010   26.3710 F   0  0  0  0  0  0  0  0  0  0  0  0
  -23.0360  -12.7660   21.4770 C   0  0  0  0  0  0  0  0  0  0  0  0
  -22.4210  -12.1540   22.4850 N   0  0  0  0  0  0  0  0  0  0  0  0
  -22.6230  -13.8370   21.0380 O   0  0  0  0  0  0  0  0  0  0  0  0
  -22.7680  -11.2840   22.8600 H   0  0  0  0  0  0  0  0  0  0  0  0
  -21.5910  -12.5640   22.8880 H   0  0  0  0  0  0  0  0  0  0  0  0
  -25.6790  -14.1280   20.2500 N   0  0  0  0  0  0  0  0  0  0  0  0
  -25.0390  -14.8660   20.5180 H   0  0  0  0  0  0  0  0  0  0  0  0
  -26.5180  -14.4740   19.7990 H   0  0  0  0  0  0  0  0  0  0  0  0
  1 50  1  0
  2  1  1  0
  3  4  1  0
  3  2  1  0
  5  3  1  0
  6  3  1  0
  7  6  1  0
  8  7  1  0
  9 11  1  0
  9  8  1  0
 10 21  2  0
 11 16  1  0
 12 20  1  0
 12 22  1  0
 13 19  1  0
 13 15  1  0
 14 20  1  0
 15 14  1  0
 16 15  2  0
 17 18  1  0
 17 11  2  0
 18 13  2  0
 19 12  1  0
 20 10  1  0
 22 24  2  0
 23 22  1  0
 25 23  1  0
 26 35  2  0
 26 31  1  0
 27 23  1  0
 27 31  1  0
 28 27  1  0
 29 30  1  0
 29 28  1  0
 30 26  1  0
 31 32  2  0
 32 33  1  0
 34 33  2  0
 35 34  1  0
 36 10  1  0
 36 37  1  0
 36 46  1  0
 37 40  1  0
 38 37  1  0
 38 42  1  0
 39 38  2  0
 42 41  1  0
 42 44  1  0
 44 45  1  0
 44 43  1  0
 46 49  1  1
 46 47  1  0
 48 46  1  0
 51 50  1  0
 52 54  1  0
 52 51  1  0
 53 52  1  0
 55 52  1  0
 56 55  1  0
 57 56  1  0
 58 57  1  0
 59 68  1  0
 59 58  1  0
 60 66  1  0
 60 68  1  0
 61 66  1  0
 62 63  1  0
 62 61  1  0
 64 63  1  0
 64 73  1  0
 64 65  1  0
 66 65  1  0
 67 60  2  0
 68 69  1  0
 70 71  2  0
 71 90  1  0
 72 71  1  0
 72 75  1  0
 73 74  1  0
 73 70  1  0
 74 72  2  0
 75 76  1  0
 76 77  2  0
 78 81  1  0
 78 77  1  0
 79 78  2  0
 80 79  1  0
 80 75  2  0
 81 82  1  0
 82 83  2  0
 82 87  1  0
 83 84  1  0
 84 85  2  0
 85 89  1  0
 86 85  1  0
 87 86  2  0
 88 87  1  0
 90 91  1  0
 91 93  1  0
 91 94  1  0
 92 90  2  0
 95 70  1  0
 95 96  1  0
 97 95  1  0
M  ISO  4   8 101   9 101  60 100  68 100
M  END
>  <TORSDO>  (80) 
F 29

>  <SCORE>  (80) 
-6.052

>  <name>  (80) 
80

>  <ligand_id>  (80) 
80

>  <original_smiles>  (80) 
[H]c1c([H])c([H])c2c(c1[H])C([H])([H])C([H])([H])C([H])([H])C2([H])N([H])C(=O)C1([H])N(C(=O)C([H])(N([H])C(=O)C([H])(N([H])C([H])([H])[H])C([H])([H])[H])C(C([H])([H])[H])(C([H])([H])[H])C([H])([H])[H])C([H])([H])c2c([H])c(OC([H])([H])C([H])([H])C([H])([H])[N+]([H])([H])C([H])([H])C([H])([H])C([H])([H])C([H])([H])[N+]([H])([H])C([H])([H])C([H])([H])C([H])([H])C([H])([H])C([H])([H])N([H])C(=O)N3C([H])([H])C([H])([H])C([H])([H])C([H])(n4nc(-c5c([H])c([H])c(Oc6c([H])c([H])c(F)c([H])c6F)c([H])c5[H])c(C(=O)N([H])[H])c4N([H])[H])C3([H])[H])c([H])c([H])c2C1([H])[H]

>  <smiles>  (80) 
[H]c1c([H])c([H])c2c(c1[H])C([H])([H])C([H])([H])C([H])([H])C2([H])N([H])C(=O)C1([H])N(C(=O)C([H])(N([H])C(=O)C([H])(N([H])C([H])([H])[H])C([H])([H])[H])C(C([H])([H])[H])(C([H])([H])[H])C([H])([H])[H])C([H])([H])c2c([H])c(OC([H])([H])C([H])([H])C([H])([H])[N+]([H])([H])C([H])([H])C([H])([H])C([H])([H])C([H])([H])[N+]([H])([H])C([H])([H])C([H])([H])C([H])([H])C([H])([H])C([H])([H])N([H])C(=O)N3C([H])([H])C([H])([H])C([H])([H])C([H])(n4nc(-c5c([H])c([H])c(Oc6c([H])c([H])c(F)c([H])c6F)c([H])c5[H])c(C(=O)N([H])[H])c4N([H])[H])C3([H])[H])c([H])c([H])c2C1([H])[H]

$$$$
81:0:0
     RDKit          3D

 93100  0  0  1  0  0  0  0  0999 V2000
  -31.2810  -22.8740   22.5360 C   0  0  0  0  0  2  0  0  0  0  0  0
  -31.8470  -23.2280   21.1480 C   0  0  0  0  0  2  0  0  0  0  0  0
  -32.0010  -24.7440   20.9130 C   0  0  0  0  0  2  0  0  0  0  0  0
  -30.6600  -25.4900   20.7640 C   0  0  0  0  0  2  0  0  0  0  0  0
  -29.9510  -25.2700   19.4140 C   0  0  0  0  0  2  0  0  0  0  0  0
  -28.4780  -25.7030   19.4390 C   0  0  0  0  0  2  0  0  0  0  0  0
  -28.4060  -27.0320   19.9400 O   0  0  0  0  0  0  0  0  0  0  0  0
  -24.5300  -31.9400   23.2860 C   0  0  0  0  0  0  0  0  0  0  0  0
  -27.1820  -27.6580   20.0050 C   0  0  0  0  0  0  0  0  0  0  0  0
  -23.3080  -30.5690   21.6300 C   0  0  0  0  0  3  0  0  0  0  0  0
  -24.7500  -29.0920   20.1350 C   0  0  0  0  0  0  0  0  0  0  0  0
  -25.8190  -30.9790   21.3840 C   0  0  0  0  0  2  0  0  0  0  0  0
  -25.9090  -29.6290   20.7050 C   0  0  0  0  0  0  0  0  0  0  0  0
  -27.1240  -28.9160   20.6400 C   0  0  0  0  0  3  0  0  0  0  0  0
  -25.9950  -27.1180   19.4520 C   0  0  0  0  0  3  0  0  0  0  0  0
  -24.7850  -27.8330   19.5140 C   0  0  0  0  0  3  0  0  0  0  0  0
  -23.4930  -29.9260   20.2290 C   0  0  0  0  0  2  0  0  0  0  0  0
  -24.5720  -31.1760   22.1590 N   0  0  0  0  0  0  0  0  0  0  0  0
  -23.4580  -32.1800   23.8580 O   0  0  0  0  0  0  0  0  0  0  0  0
  -22.6930  -29.5120   22.5740 C   0  0  0  0  0  0  0  0  0  0  0  0
  -21.3720  -29.3010   22.4560 N   0  0  0  0  0  0  0  0  0  0  0  0
  -23.4020  -28.8830   23.3650 O   0  0  0  0  0  0  0  0  0  0  0  0
  -20.8610  -29.8610   21.7890 H   0  0  0  0  0  0  0  0  0  0  0  0
  -18.0320  -28.0230   22.9620 C   0  0  0  0  0  0  0  0  0  0  0  0
  -20.5870  -28.3270   23.2140 C   0  0  0  0  0  3  0  0  0  0  0  0
  -20.7130  -26.9140   22.5980 C   0  0  0  0  0  2  0  0  0  0  0  0
  -19.6060  -26.5940   21.5890 C   0  0  0  0  0  2  0  0  0  0  0  0
  -18.2300  -26.6940   22.2520 C   0  0  0  0  0  2  0  0  0  0  0  0
  -19.1400  -28.7970   23.4000 C   0  0  0  0  0  0  0  0  0  0  0  0
  -18.9040  -30.0410   24.0230 C   0  0  0  0  0  3  0  0  0  0  0  0
  -17.5910  -30.5120   24.2140 C   0  0  0  0  0  3  0  0  0  0  0  0
  -16.4980  -29.7350   23.7940 C   0  0  0  0  0  3  0  0  0  0  0  0
  -16.7190  -28.4910   23.1750 C   0  0  0  0  0  3  0  0  0  0  0  0
  -25.8220  -32.5680   23.8960 C   0  0  0  0  0  3  0  0  0  0  0  0
  -26.3430  -31.8040   25.1750 C   0  0  1  0  0  0  0  0  0  0  0  0
  -25.2530  -31.5740   26.2470 C   0  0  0  0  0  1  0  0  0  0  0  0
  -26.9230  -30.4220   24.7900 C   0  0  0  0  0  1  0  0  0  0  0  0
  -27.4960  -32.6010   25.8270 C   0  0  0  0  0  1  0  0  0  0  0  0
  -25.5220  -33.9710   24.2140 N   0  0  0  0  0  0  0  0  0  0  0  0
  -25.8860  -35.0160   23.4580 C   0  0  0  0  0  0  0  0  0  0  0  0
  -26.5810  -34.9000   22.4450 O   0  0  0  0  0  0  0  0  0  0  0  0
  -24.9090  -34.1370   24.9980 H   0  0  0  0  0  0  0  0  0  0  0  0
  -24.2040  -36.8360   23.0320 C   0  0  0  0  0  1  0  0  0  0  0  0
  -25.4030  -36.4110   23.8960 C   0  0  0  0  0  3  0  0  0  0  0  0
  -27.5110  -37.2640   24.8220 C   0  0  0  0  0  1  0  0  0  0  0  0
  -26.4560  -37.4470   23.8280 N   0  0  0  0  0  0  0  0  0  0  0  0
  -26.0590  -38.3730   23.9540 H   0  0  0  0  0  0  0  0  0  0  0  0
  -30.9920  -21.4840   22.6240 O   0  0  0  0  0  0  0  0  0  0  0  0
  -29.8310  -21.1070   21.8870 C   0  0  0  0  0  2  0  0  0  0  0  0
  -29.5040  -19.6540   22.2380 C   0  0  0  0  0  2  0  0  0  0  0  0
  -30.4840  -18.7370   21.6160 N   0  0  0  0  0  4  0  0  0  0  0  0
  -30.6250  -19.0230   20.6590 H   0  0  0  0  0  0  0  0  0  0  0  0
  -31.3680  -18.8540   22.0910 H   0  0  0  0  0  0  0  0  0  0  0  0
  -30.0930  -17.3150   21.6220 C   0  0  0  0  0  2  0  0  0  0  0  0
  -31.1570  -16.4410   20.9390 C   0  0  0  0  0  2  0  0  0  0  0  0
  -31.1360  -14.1870   19.9070 C   0  0  0  0  0  0  0  0  0  0  0  0
  -30.6960  -12.0230   18.8100 C   0  0  0  0  0  2  0  0  0  0  0  0
  -29.6920  -12.2040   17.6550 C   0  0  0  0  0  2  0  0  0  0  0  0
  -28.2430  -12.1130   18.1700 C   0  0  0  0  0  2  0  0  0  0  0  0
  -27.9960  -13.0220   19.4040 C   0  0  0  0  0  3  0  0  0  0  0  0
  -29.1000  -12.8080   20.4630 C   0  0  0  0  0  2  0  0  0  0  0  0
  -30.4110  -13.0440   19.8260 N   0  0  0  0  0  0  0  0  0  0  0  0
  -32.1190  -14.4290   19.1990 O   0  0  0  0  0  0  0  0  0  0  0  0
  -30.6940  -15.0640   20.8120 N   0  0  0  0  0  0  0  0  0  0  0  0
  -29.9030  -14.7780   21.3710 H   0  0  0  0  0  0  0  0  0  0  0  0
  -25.6670  -13.7270   20.2500 C   0  0  0  0  0  0  0  0  0  0  0  0
  -24.5960  -12.9970   20.6960 C   0  0  0  0  0  0  0  0  0  0  0  0
  -25.0060  -11.6300   20.6500 C   0  0  0  0  0  0  0  0  0  0  0  0
  -26.6640  -12.8050   19.9660 N   0  0  0  0  0  0  0  0  0  0  0  0
  -26.2700  -11.5400   20.2600 N   0  0  0  0  0  0  0  0  0  0  0  0
  -24.2510  -10.3950   20.9030 C   0  0  0  0  0  0  0  0  0  0  0  0
  -24.6390   -9.4850   21.9110 C   0  0  0  0  0  3  0  0  0  0  0  0
  -23.8850   -8.3140   22.1460 C   0  0  0  0  0  3  0  0  0  0  0  0
  -22.7320   -8.0450   21.3720 C   0  0  0  0  0  0  0  0  0  0  0  0
  -22.3650   -8.9420   20.3530 C   0  0  0  0  0  3  0  0  0  0  0  0
  -23.1190  -10.1050   20.1170 C   0  0  0  0  0  3  0  0  0  0  0  0
  -21.9550   -6.9200   21.5100 O   0  0  0  0  0  0  0  0  0  0  0  0
  -21.7530   -6.3330   22.7330 C   0  0  0  0  0  0  0  0  0  0  0  0
  -21.1780   -7.0380   23.8120 C   0  0  0  0  0  3  0  0  0  0  0  0
  -20.9240   -6.3750   25.0310 C   0  0  0  0  0  3  0  0  0  0  0  0
  -21.2350   -5.0090   25.1680 C   0  0  0  0  0  0  0  0  0  0  0  0
  -21.8030   -4.3040   24.0920 C   0  0  0  0  0  3  0  0  0  0  0  0
  -22.0590   -4.9640   22.8760 C   0  0  0  0  0  0  0  0  0  0  0  0
  -22.5860   -4.2750   21.8370 F   0  0  0  0  0  0  0  0  0  0  0  0
  -20.9840   -4.3700   26.3350 F   0  0  0  0  0  0  0  0  0  0  0  0
  -23.2370  -13.5260   21.0550 C   0  0  0  0  0  0  0  0  0  0  0  0
  -22.5540  -12.8710   21.9890 N   0  0  0  0  0  0  0  0  0  0  0  0
  -22.7920  -14.5510   20.5420 O   0  0  0  0  0  0  0  0  0  0  0  0
  -22.9290  -12.0400   22.4210 H   0  0  0  0  0  0  0  0  0  0  0  0
  -21.6460  -13.2080   22.2790 H   0  0  0  0  0  0  0  0  0  0  0  0
  -25.8680  -15.0880   20.0470 N   0  0  0  0  0  0  0  0  0  0  0  0
  -25.1330  -15.7720   20.1870 H   0  0  0  0  0  0  0  0  0  0  0  0
  -26.7090  -15.4830   19.6440 H   0  0  0  0  0  0  0  0  0  0  0  0
  1 48  1  0
  2  1  1  0
  3  2  1  0
  4  3  1  0
  5  6  1  0
  5  4  1  0
  6  7  1  0
  7  9  1  0
  8 19  2  0
  9 14  1  0
 10 18  1  0
 10 20  1  0
 11 17  1  0
 11 13  1  0
 12 18  1  0
 13 12  1  0
 14 13  2  0
 15 16  1  0
 15  9  2  0
 16 11  2  0
 17 10  1  0
 18  8  1  0
 20 22  2  0
 21 20  1  0
 23 21  1  0
 24 33  2  0
 24 29  1  0
 25 21  1  0
 25 29  1  0
 26 25  1  0
 27 28  1  0
 27 26  1  0
 28 24  1  0
 29 30  2  0
 30 31  1  0
 32 31  2  0
 33 32  1  0
 34  8  1  0
 34 39  1  0
 34 35  1  0
 35 38  1  1
 35 36  1  0
 37 35  1  0
 39 42  1  0
 40 44  1  0
 40 39  1  0
 41 40  2  0
 44 43  1  0
 46 44  1  0
 46 47  1  0
 46 45  1  0
 49 50  1  0
 49 48  1  0
 51 54  1  0
 51 53  1  0
 51 50  1  0
 52 51  1  0
 55 54  1  0
 56 64  1  0
 57 62  1  0
 58 59  1  0
 58 57  1  0
 60 59  1  0
 60 69  1  0
 60 61  1  0
 62 56  1  0
 62 61  1  0
 63 56  2  0
 64 55  1  0
 64 65  1  0
 66 67  2  0
 67 86  1  0
 68 67  1  0
 68 71  1  0
 69 66  1  0
 69 70  1  0
 70 68  2  0
 71 72  1  0
 72 73  2  0
 74 77  1  0
 74 73  1  0
 75 74  2  0
 76 75  1  0
 76 71  2  0
 77 78  1  0
 78 83  2  0
 78 79  1  0
 79 80  2  0
 80 81  1  0
 81 85  1  0
 82 81  2  0
 83 82  1  0
 84 83  1  0
 86 87  1  0
 87 90  1  0
 87 89  1  0
 88 86  2  0
 91 92  1  0
 91 66  1  0
 93 91  1  0
M  ISO  4   6 101   7 101  56 100  64 100
M  END
>  <TORSDO>  (81) 
F 27

>  <SCORE>  (81) 
-8.831

>  <name>  (81) 
81

>  <ligand_id>  (81) 
81

>  <original_smiles>  (81) 
[H]c1c([H])c([H])c2c(c1[H])C([H])([H])C([H])([H])C([H])([H])C2([H])N([H])C(=O)C1([H])N(C(=O)C([H])(N([H])C(=O)C([H])(N([H])C([H])([H])[H])C([H])([H])[H])C(C([H])([H])[H])(C([H])([H])[H])C([H])([H])[H])C([H])([H])c2c([H])c(OC([H])([H])C([H])([H])C([H])([H])C([H])([H])C([H])([H])C([H])([H])OC([H])([H])C([H])([H])[N+]([H])([H])C([H])([H])C([H])([H])N([H])C(=O)N3C([H])([H])C([H])([H])C([H])([H])C([H])(n4nc(-c5c([H])c([H])c(Oc6c([H])c([H])c(F)c([H])c6F)c([H])c5[H])c(C(=O)N([H])[H])c4N([H])[H])C3([H])[H])c([H])c([H])c2C1([H])[H]

>  <smiles>  (81) 
[H]c1c([H])c([H])c2c(c1[H])C([H])([H])C([H])([H])C([H])([H])C2([H])N([H])C(=O)C1([H])N(C(=O)C([H])(N([H])C(=O)C([H])(N([H])C([H])([H])[H])C([H])([H])[H])C(C([H])([H])[H])(C([H])([H])[H])C([H])([H])[H])C([H])([H])c2c([H])c(OC([H])([H])C([H])([H])C([H])([H])C([H])([H])C([H])([H])C([H])([H])OC([H])([H])C([H])([H])[N+]([H])([H])C([H])([H])C([H])([H])N([H])C(=O)N3C([H])([H])C([H])([H])C([H])([H])C([H])(n4nc(-c5c([H])c([H])c(Oc6c([H])c([H])c(F)c([H])c6F)c([H])c5[H])c(C(=O)N([H])[H])c4N([H])[H])C3([H])[H])c([H])c([H])c2C1([H])[H]

$$$$
82:0:0
     RDKit          3D

 92 99  0  0  1  0  0  0  0  0999 V2000
  -28.8670  -20.7410   18.0910 C   0  0  0  0  0  0  0  0  0  0  0  0
  -29.1190  -19.4300   18.0060 N   0  0  0  0  0  0  0  0  0  0  0  0
  -27.7330  -21.2150   17.9600 O   0  0  0  0  0  0  0  0  0  0  0  0
  -30.0840  -19.1410   18.1020 H   0  0  0  0  0  0  0  0  0  0  0  0
  -30.0610  -21.6420   18.4170 C   0  0  0  0  0  2  0  0  0  0  0  0
  -29.6370  -23.0010   18.4970 O   0  0  0  0  0  0  0  0  0  0  0  0
  -30.5030  -23.7890   19.2970 C   0  0  0  0  0  2  0  0  0  0  0  0
  -30.0630  -25.2570   19.2800 C   0  0  0  0  0  2  0  0  0  0  0  0
  -28.5890  -25.4750   19.6650 C   0  0  0  0  0  2  0  0  0  0  0  0
  -28.4630  -26.8200   20.1140 O   0  0  0  0  0  0  0  0  0  0  0  0
  -24.6060  -31.8880   23.2310 C   0  0  0  0  0  0  0  0  0  0  0  0
  -27.2380  -27.4480   20.1430 C   0  0  0  0  0  0  0  0  0  0  0  0
  -23.3850  -30.4780   21.6040 C   0  0  0  0  0  3  0  0  0  0  0  0
  -24.8260  -28.9270   20.1860 C   0  0  0  0  0  0  0  0  0  0  0  0
  -25.9070  -30.8380   21.3840 C   0  0  0  0  0  2  0  0  0  0  0  0
  -25.9860  -29.4620   20.7560 C   0  0  0  0  0  0  0  0  0  0  0  0
  -27.1880  -28.7280   20.7340 C   0  0  0  0  0  3  0  0  0  0  0  0
  -26.0500  -26.9050   19.5950 C   0  0  0  0  0  3  0  0  0  0  0  0
  -24.8510  -27.6450   19.6090 C   0  0  0  0  0  3  0  0  0  0  0  0
  -23.5820  -29.7840   20.2300 C   0  0  0  0  0  2  0  0  0  0  0  0
  -24.6510  -31.0840   22.1320 N   0  0  0  0  0  0  0  0  0  0  0  0
  -23.5290  -32.1660   23.7770 O   0  0  0  0  0  0  0  0  0  0  0  0
  -22.7390  -29.4660   22.5760 C   0  0  0  0  0  0  0  0  0  0  0  0
  -21.4140  -29.2860   22.4560 N   0  0  0  0  0  0  0  0  0  0  0  0
  -23.4270  -28.8430   23.3890 O   0  0  0  0  0  0  0  0  0  0  0  0
  -20.9220  -29.8410   21.7700 H   0  0  0  0  0  0  0  0  0  0  0  0
  -18.0400  -28.1030   22.9690 C   0  0  0  0  0  0  0  0  0  0  0  0
  -20.5990  -28.3550   23.2350 C   0  0  0  0  0  3  0  0  0  0  0  0
  -20.6980  -26.9210   22.6670 C   0  0  0  0  0  2  0  0  0  0  0  0
  -19.5930  -26.5950   21.6580 C   0  0  0  0  0  2  0  0  0  0  0  0
  -18.2120  -26.7470   22.3040 C   0  0  0  0  0  2  0  0  0  0  0  0
  -19.1610  -28.8650   23.3920 C   0  0  0  0  0  0  0  0  0  0  0  0
  -18.9490  -30.1340   23.9720 C   0  0  0  0  0  3  0  0  0  0  0  0
  -17.6450  -30.6410   24.1360 C   0  0  0  0  0  3  0  0  0  0  0  0
  -16.5380  -29.8750   23.7300 C   0  0  0  0  0  3  0  0  0  0  0  0
  -16.7370  -28.6090   23.1530 C   0  0  0  0  0  3  0  0  0  0  0  0
  -25.8980  -32.5180   23.8400 C   0  0  0  0  0  3  0  0  0  0  0  0
  -26.4350  -31.7400   25.1030 C   0  0  1  0  0  0  0  0  0  0  0  0
  -25.3580  -31.4940   26.1840 C   0  0  0  0  0  1  0  0  0  0  0  0
  -27.0140  -30.3670   24.6910 C   0  0  0  0  0  1  0  0  0  0  0  0
  -27.5940  -32.5320   25.7540 C   0  0  0  0  0  1  0  0  0  0  0  0
  -25.5920  -33.9140   24.1800 N   0  0  0  0  0  0  0  0  0  0  0  0
  -25.9150  -34.9690   23.4220 C   0  0  0  0  0  0  0  0  0  0  0  0
  -26.5760  -34.8720   22.3830 O   0  0  0  0  0  0  0  0  0  0  0  0
  -25.0040  -34.0640   24.9880 H   0  0  0  0  0  0  0  0  0  0  0  0
  -24.1760  -36.7570   23.0940 C   0  0  0  0  0  1  0  0  0  0  0  0
  -25.4290  -36.3550   23.8900 C   0  0  0  0  0  3  0  0  0  0  0  0
  -27.5730  -37.2380   24.6940 C   0  0  0  0  0  1  0  0  0  0  0  0
  -26.4570  -37.4110   23.7690 N   0  0  0  0  0  0  0  0  0  0  0  0
  -26.0510  -38.3290   23.9290 H   0  0  0  0  0  0  0  0  0  0  0  0
  -28.1150  -18.3760   17.9230 C   0  0  0  0  0  2  0  0  0  0  0  0
  -27.9670  -17.6610   19.2770 C   0  0  0  0  0  2  0  0  0  0  0  0
  -29.2010  -16.8280   19.6610 C   0  0  0  0  0  2  0  0  0  0  0  0
  -29.1080  -16.2030   21.0720 C   0  0  0  0  0  2  0  0  0  0  0  0
  -30.7310  -14.3890   20.5730 C   0  0  0  0  0  0  0  0  0  0  0  0
  -30.3600  -12.2880   19.3380 C   0  0  0  0  0  2  0  0  0  0  0  0
  -29.4210  -12.5160   18.1390 C   0  0  0  0  0  2  0  0  0  0  0  0
  -27.9450  -12.3930   18.5650 C   0  0  0  0  0  2  0  0  0  0  0  0
  -27.6200  -13.2230   19.8340 C   0  0  0  0  0  3  0  0  0  0  0  0
  -28.6690  -12.9660   20.9400 C   0  0  0  0  0  2  0  0  0  0  0  0
  -30.0000  -13.2570   20.3830 N   0  0  0  0  0  0  0  0  0  0  0  0
  -31.8290  -14.5790   20.0520 O   0  0  0  0  0  0  0  0  0  0  0  0
  -30.2330  -15.3190   21.3970 N   0  0  0  0  0  0  0  0  0  0  0  0
  -30.9840  -15.8440   21.8250 H   0  0  0  0  0  0  0  0  0  0  0  0
  -25.2200  -13.8630   20.5200 C   0  0  0  0  0  0  0  0  0  0  0  0
  -24.1420  -13.1040   20.8820 C   0  0  0  0  0  0  0  0  0  0  0  0
  -24.5930  -11.7490   20.8700 C   0  0  0  0  0  0  0  0  0  0  0  0
  -26.2610  -12.9710   20.3070 N   0  0  0  0  0  0  0  0  0  0  0  0
  -25.8860  -11.6960   20.5760 N   0  0  0  0  0  0  0  0  0  0  0  0
  -23.8560  -10.4950   21.0670 C   0  0  0  0  0  0  0  0  0  0  0  0
  -24.2960   -9.5180   21.9870 C   0  0  0  0  0  3  0  0  0  0  0  0
  -23.5600   -8.3280   22.1730 C   0  0  0  0  0  3  0  0  0  0  0  0
  -22.3700   -8.1080   21.4380 C   0  0  0  0  0  0  0  0  0  0  0  0
  -21.9520   -9.0720   20.5050 C   0  0  0  0  0  3  0  0  0  0  0  0
  -22.6880  -10.2540   20.3190 C   0  0  0  0  0  3  0  0  0  0  0  0
  -21.6050   -6.9690   21.5320 O   0  0  0  0  0  0  0  0  0  0  0  0
  -21.5930   -6.2050   22.6700 C   0  0  0  0  0  0  0  0  0  0  0  0
  -21.2440   -6.7440   23.9280 C   0  0  0  0  0  3  0  0  0  0  0  0
  -21.1750   -5.9080   25.0590 C   0  0  0  0  0  3  0  0  0  0  0  0
  -21.4430   -4.5320   24.9350 C   0  0  0  0  0  0  0  0  0  0  0  0
  -21.7830   -3.9900   23.6840 C   0  0  0  0  0  3  0  0  0  0  0  0
  -21.8550   -4.8250   22.5540 C   0  0  0  0  0  0  0  0  0  0  0  0
  -22.1630   -4.2950   21.3460 F   0  0  0  0  0  0  0  0  0  0  0  0
  -21.3680   -3.7270   26.0200 F   0  0  0  0  0  0  0  0  0  0  0  0
  -22.7470  -13.5970   21.1390 C   0  0  0  0  0  0  0  0  0  0  0  0
  -22.0080  -12.9190   22.0110 N   0  0  0  0  0  0  0  0  0  0  0  0
  -22.3210  -14.6180   20.6010 O   0  0  0  0  0  0  0  0  0  0  0  0
  -22.3670  -12.0940   22.4680 H   0  0  0  0  0  0  0  0  0  0  0  0
  -21.0710  -13.2290   22.2220 H   0  0  0  0  0  0  0  0  0  0  0  0
  -25.3970  -15.2290   20.3370 N   0  0  0  0  0  0  0  0  0  0  0  0
  -24.6330  -15.8920   20.4130 H   0  0  0  0  0  0  0  0  0  0  0  0
  -26.2700  -15.6550   20.0620 H   0  0  0  0  0  0  0  0  0  0  0  0
  1  5  1  0
  2  1  1  0
  2  4  1  0
  3  1  2  0
  5  6  1  0
  6  7  1  0
  8  7  1  0
  8  9  1  0
  9 10  1  0
 10 12  1  0
 11 22  2  0
 12 17  1  0
 13 21  1  0
 13 23  1  0
 14 20  1  0
 14 16  1  0
 15 21  1  0
 16 15  1  0
 17 16  2  0
 18 19  1  0
 18 12  2  0
 19 14  2  0
 20 13  1  0
 21 11  1  0
 23 25  2  0
 24 23  1  0
 26 24  1  0
 27 36  2  0
 27 32  1  0
 28 24  1  0
 28 32  1  0
 29 28  1  0
 30 31  1  0
 30 29  1  0
 31 27  1  0
 32 33  2  0
 33 34  1  0
 35 34  2  0
 36 35  1  0
 37 11  1  0
 37 42  1  0
 37 38  1  0
 38 41  1  1
 38 39  1  0
 40 38  1  0
 42 45  1  0
 43 47  1  0
 43 42  1  0
 44 43  2  0
 47 46  1  0
 49 47  1  0
 49 50  1  0
 49 48  1  0
 51  2  1  0
 51 52  1  0
 52 53  1  0
 53 54  1  0
 54 63  1  0
 55 63  1  0
 56 61  1  0
 57 58  1  0
 57 56  1  0
 59 58  1  0
 59 68  1  0
 59 60  1  0
 61 55  1  0
 61 60  1  0
 62 55  2  0
 63 64  1  0
 65 66  2  0
 66 85  1  0
 67 66  1  0
 67 70  1  0
 68 65  1  0
 68 69  1  0
 69 67  2  0
 70 71  1  0
 71 72  2  0
 73 76  1  0
 73 72  1  0
 74 73  2  0
 75 74  1  0
 75 70  2  0
 76 77  1  0
 77 78  1  0
 78 79  2  0
 80 79  1  0
 80 84  1  0
 81 80  2  0
 82 77  2  0
 82 81  1  0
 83 82  1  0
 85 86  1  0
 86 89  1  0
 86 88  1  0
 87 85  2  0
 90 91  1  0
 90 65  1  0
 92 90  1  0
M  ISO  4   9 101  10 101  55 100  63 100
M  END
>  <TORSDO>  (82) 
F 25

>  <SCORE>  (82) 
-12.187

>  <name>  (82) 
82

>  <ligand_id>  (82) 
82

>  <original_smiles>  (82) 
[H]c1c([H])c([H])c2c(c1[H])C([H])([H])C([H])([H])C([H])([H])C2([H])N([H])C(=O)C1([H])N(C(=O)C([H])(N([H])C(=O)C([H])(N([H])C([H])([H])[H])C([H])([H])[H])C(C([H])([H])[H])(C([H])([H])[H])C([H])([H])[H])C([H])([H])c2c([H])c(OC([H])([H])C([H])([H])C([H])([H])OC([H])([H])C(=O)N([H])C([H])([H])C([H])([H])C([H])([H])C([H])([H])N([H])C(=O)N3C([H])([H])C([H])([H])C([H])([H])C([H])(n4nc(-c5c([H])c([H])c(Oc6c([H])c([H])c(F)c([H])c6F)c([H])c5[H])c(C(=O)N([H])[H])c4N([H])[H])C3([H])[H])c([H])c([H])c2C1([H])[H]

>  <smiles>  (82) 
[H]c1c([H])c([H])c2c(c1[H])C([H])([H])C([H])([H])C([H])([H])C2([H])N([H])C(=O)C1([H])N(C(=O)C([H])(N([H])C(=O)C([H])(N([H])C([H])([H])[H])C([H])([H])[H])C(C([H])([H])[H])(C([H])([H])[H])C([H])([H])[H])C([H])([H])c2c([H])c(OC([H])([H])C([H])([H])C([H])([H])OC([H])([H])C(=O)N([H])C([H])([H])C([H])([H])C([H])([H])C([H])([H])N([H])C(=O)N3C([H])([H])C([H])([H])C([H])([H])C([H])(n4nc(-c5c([H])c([H])c(Oc6c([H])c([H])c(F)c([H])c6F)c([H])c5[H])c(C(=O)N([H])[H])c4N([H])[H])C3([H])[H])c([H])c([H])c2C1([H])[H]

$$$$
83:0:0
     RDKit          3D

 92 99  0  0  1  0  0  0  0  0999 V2000
  -31.3730  -21.7310   21.6970 C   0  0  0  0  0  3  0  0  0  0  0  0
  -31.3140  -23.0780   21.6600 C   0  0  0  0  0  3  0  0  0  0  0  0
  -31.6080  -20.9020   20.5280 C   0  0  0  0  0  0  0  0  0  0  0  0
  -31.0110  -19.7130   20.6440 N   0  0  0  0  0  0  0  0  0  0  0  0
  -32.2820  -21.2020   19.5400 O   0  0  0  0  0  0  0  0  0  0  0  0
  -30.4690  -19.5360   21.4780 H   0  0  0  0  0  0  0  0  0  0  0  0
  -31.0620  -18.6780   19.6190 C   0  0  0  0  0  2  0  0  0  0  0  0
  -30.1710  -17.4720   19.9500 C   0  0  0  0  0  2  0  0  0  0  0  0
  -30.5810  -16.7050   21.2290 C   0  0  0  0  0  2  0  0  0  0  0  0
  -30.6910  -14.3750   20.4320 C   0  0  0  0  0  0  0  0  0  0  0  0
  -30.2990  -12.3020   19.1770 C   0  0  0  0  0  2  0  0  0  0  0  0
  -29.3300  -12.5790   18.0110 C   0  0  0  0  0  2  0  0  0  0  0  0
  -27.8660  -12.4490   18.4730 C   0  0  0  0  0  2  0  0  0  0  0  0
  -27.5770  -13.2390   19.7780 C   0  0  0  0  0  3  0  0  0  0  0  0
  -28.6540  -12.9470   20.8470 C   0  0  0  0  0  2  0  0  0  0  0  0
  -29.9750  -13.2380   20.2620 N   0  0  0  0  0  0  0  0  0  0  0  0
  -31.7590  -14.5980   19.8520 O   0  0  0  0  0  0  0  0  0  0  0  0
  -30.1110  -15.3210   21.1810 N   0  0  0  0  0  0  0  0  0  0  0  0
  -29.2400  -15.0920   21.6380 H   0  0  0  0  0  0  0  0  0  0  0  0
  -25.1870  -13.8410   20.5290 C   0  0  0  0  0  0  0  0  0  0  0  0
  -24.1270  -13.0640   20.9120 C   0  0  0  0  0  0  0  0  0  0  0  0
  -24.5890  -11.7130   20.8640 C   0  0  0  0  0  0  0  0  0  0  0  0
  -26.2300  -12.9630   20.2770 N   0  0  0  0  0  0  0  0  0  0  0  0
  -25.8720  -11.6790   20.5330 N   0  0  0  0  0  0  0  0  0  0  0  0
  -23.8680  -10.4490   21.0610 C   0  0  0  0  0  0  0  0  0  0  0  0
  -24.3310   -9.4690   21.9670 C   0  0  0  0  0  3  0  0  0  0  0  0
  -23.6130   -8.2670   22.1510 C   0  0  0  0  0  3  0  0  0  0  0  0
  -22.4180   -8.0380   21.4290 C   0  0  0  0  0  0  0  0  0  0  0  0
  -21.9750   -9.0060   20.5100 C   0  0  0  0  0  3  0  0  0  0  0  0
  -22.6930  -10.1980   20.3240 C   0  0  0  0  0  3  0  0  0  0  0  0
  -21.6700   -6.8890   21.5230 O   0  0  0  0  0  0  0  0  0  0  0  0
  -21.6690   -6.1230   22.6610 C   0  0  0  0  0  0  0  0  0  0  0  0
  -21.3040   -6.6530   23.9180 C   0  0  0  0  0  3  0  0  0  0  0  0
  -21.2500   -5.8130   25.0480 C   0  0  0  0  0  3  0  0  0  0  0  0
  -21.5500   -4.4440   24.9230 C   0  0  0  0  0  0  0  0  0  0  0  0
  -21.9070   -3.9120   23.6710 C   0  0  0  0  0  3  0  0  0  0  0  0
  -21.9630   -4.7490   22.5430 C   0  0  0  0  0  0  0  0  0  0  0  0
  -22.2880   -4.2290   21.3350 F   0  0  0  0  0  0  0  0  0  0  0  0
  -21.4900   -3.6330   26.0050 F   0  0  0  0  0  0  0  0  0  0  0  0
  -22.7330  -13.5360   21.2150 C   0  0  0  0  0  0  0  0  0  0  0  0
  -22.0240  -12.8340   22.0910 N   0  0  0  0  0  0  0  0  0  0  0  0
  -22.2820  -14.5630   20.7090 O   0  0  0  0  0  0  0  0  0  0  0  0
  -22.4020  -12.0040   22.5250 H   0  0  0  0  0  0  0  0  0  0  0  0
  -21.0900  -13.1320   22.3350 H   0  0  0  0  0  0  0  0  0  0  0  0
  -25.3470  -15.2120   20.3560 N   0  0  0  0  0  0  0  0  0  0  0  0
  -24.5840  -15.8680   20.4800 H   0  0  0  0  0  0  0  0  0  0  0  0
  -26.1950  -15.6530   20.0220 H   0  0  0  0  0  0  0  0  0  0  0  0
  -31.4580  -23.9870   20.4470 C   0  0  0  0  0  2  0  0  0  0  0  0
  -30.2890  -23.9780   19.6340 O   0  0  0  0  0  0  0  0  0  0  0  0
  -29.1340  -24.5430   20.2490 C   0  0  0  0  0  2  0  0  0  0  0  0
  -28.5250  -25.6100   19.3270 C   0  0  0  0  0  2  0  0  0  0  0  0
  -28.3050  -26.7940   20.0930 O   0  0  0  0  0  0  0  0  0  0  0  0
  -24.5220  -31.9010   23.2250 C   0  0  0  0  0  0  0  0  0  0  0  0
  -27.0910  -27.4470   20.0980 C   0  0  0  0  0  0  0  0  0  0  0  0
  -23.2820  -30.5120   21.5990 C   0  0  0  0  0  3  0  0  0  0  0  0
  -24.6990  -28.9570   20.1610 C   0  0  0  0  0  0  0  0  0  0  0  0
  -25.8070  -30.8450   21.3710 C   0  0  0  0  0  2  0  0  0  0  0  0
  -25.8670  -29.4740   20.7310 C   0  0  0  0  0  0  0  0  0  0  0  0
  -27.0600  -28.7220   20.7030 C   0  0  0  0  0  3  0  0  0  0  0  0
  -25.8940  -26.9280   19.5480 C   0  0  0  0  0  3  0  0  0  0  0  0
  -24.7040  -27.6800   19.5760 C   0  0  0  0  0  3  0  0  0  0  0  0
  -23.4650  -29.8280   20.2180 C   0  0  0  0  0  2  0  0  0  0  0  0
  -24.5560  -31.1010   22.1230 N   0  0  0  0  0  0  0  0  0  0  0  0
  -23.4510  -32.1850   23.7760 O   0  0  0  0  0  0  0  0  0  0  0  0
  -22.6330  -29.4950   22.5650 C   0  0  0  0  0  0  0  0  0  0  0  0
  -21.3090  -29.3140   22.4400 N   0  0  0  0  0  0  0  0  0  0  0  0
  -23.3180  -28.8730   23.3830 O   0  0  0  0  0  0  0  0  0  0  0  0
  -20.8200  -29.8680   21.7500 H   0  0  0  0  0  0  0  0  0  0  0  0
  -17.9370  -28.1170   22.9230 C   0  0  0  0  0  0  0  0  0  0  0  0
  -20.4910  -28.3840   23.2170 C   0  0  0  0  0  3  0  0  0  0  0  0
  -20.6040  -26.9470   22.6600 C   0  0  0  0  0  2  0  0  0  0  0  0
  -19.5120  -26.6070   21.6410 C   0  0  0  0  0  2  0  0  0  0  0  0
  -18.1240  -26.7580   22.2700 C   0  0  0  0  0  2  0  0  0  0  0  0
  -19.0500  -28.8870   23.3530 C   0  0  0  0  0  0  0  0  0  0  0  0
  -18.8240  -30.1600   23.9210 C   0  0  0  0  0  3  0  0  0  0  0  0
  -17.5160  -30.6620   24.0670 C   0  0  0  0  0  3  0  0  0  0  0  0
  -16.4180  -29.8870   23.6550 C   0  0  0  0  0  3  0  0  0  0  0  0
  -16.6280  -28.6180   23.0890 C   0  0  0  0  0  3  0  0  0  0  0  0
  -25.8230  -32.5180   23.8300 C   0  0  0  0  0  3  0  0  0  0  0  0
  -25.5350  -33.9190   24.1600 N   0  0  0  0  0  0  0  0  0  0  0  0
  -25.8770  -34.9660   23.3960 C   0  0  0  0  0  0  0  0  0  0  0  0
  -26.5400  -34.8510   22.3620 O   0  0  0  0  0  0  0  0  0  0  0  0
  -24.9490  -34.0840   24.9660 H   0  0  0  0  0  0  0  0  0  0  0  0
  -24.1700  -36.7760   23.0430 C   0  0  0  0  0  1  0  0  0  0  0  0
  -25.4080  -36.3590   23.8530 C   0  0  0  0  0  3  0  0  0  0  0  0
  -27.5570  -37.2160   24.6770 C   0  0  0  0  0  1  0  0  0  0  0  0
  -26.4540  -37.4000   23.7370 N   0  0  0  0  0  0  0  0  0  0  0  0
  -26.0600  -38.3240   23.8880 H   0  0  0  0  0  0  0  0  0  0  0  0
  -26.3490  -31.7400   25.0980 C   0  0  1  0  0  0  0  0  0  0  0  0
  -25.2680  -31.5130   26.1810 C   0  0  0  0  0  1  0  0  0  0  0  0
  -26.9100  -30.3570   24.6940 C   0  0  0  0  0  1  0  0  0  0  0  0
  -27.5170  -32.5200   25.7450 C   0  0  0  0  0  1  0  0  0  0  0  0
  2  1  2  0
  3  4  1  0
  3  1  1  0
  4  6  1  0
  5  3  2  0
  7  8  1  0
  7  4  1  0
  8  9  1  0
 10 18  1  0
 11 16  1  0
 12 13  1  0
 12 11  1  0
 14 13  1  0
 14 23  1  0
 14 15  1  0
 16 10  1  0
 16 15  1  0
 17 10  2  0
 18  9  1  0
 18 19  1  0
 20 21  2  0
 21 40  1  0
 22 21  1  0
 22 25  1  0
 23 20  1  0
 23 24  1  0
 24 22  2  0
 25 26  1  0
 26 27  2  0
 28 31  1  0
 28 27  1  0
 29 28  2  0
 30 29  1  0
 30 25  2  0
 31 32  1  0
 32 33  1  0
 33 34  2  0
 35 34  1  0
 35 39  1  0
 36 35  2  0
 37 32  2  0
 37 36  1  0
 38 37  1  0
 40 41  1  0
 41 44  1  0
 41 43  1  0
 42 40  2  0
 45 46  1  0
 45 20  1  0
 47 45  1  0
 48  2  1  0
 49 50  1  0
 49 48  1  0
 51 52  1  0
 51 50  1  0
 52 54  1  0
 53 64  2  0
 54 59  1  0
 55 63  1  0
 55 65  1  0
 56 62  1  0
 56 58  1  0
 57 63  1  0
 58 57  1  0
 59 58  2  0
 60 61  1  0
 60 54  2  0
 61 56  2  0
 62 55  1  0
 63 53  1  0
 65 67  2  0
 66 65  1  0
 68 66  1  0
 69 78  2  0
 69 74  1  0
 70 66  1  0
 70 74  1  0
 71 70  1  0
 72 73  1  0
 72 71  1  0
 73 69  1  0
 74 75  2  0
 75 76  1  0
 77 76  2  0
 78 77  1  0
 79 53  1  0
 79 80  1  0
 79 89  1  0
 80 83  1  0
 81 85  1  0
 81 80  1  0
 82 81  2  0
 85 84  1  0
 87 85  1  0
 87 88  1  0
 87 86  1  0
 89 92  1  1
 89 90  1  0
 91 89  1  0
M  ISO  4  10 100  18 100  51 101  52 101
M  END
>  <TORSDO>  (83) 
F 24

>  <SCORE>  (83) 
-12.190

>  <name>  (83) 
83

>  <ligand_id>  (83) 
83

>  <original_smiles>  (83) 
[H]C(C(=O)N([H])C([H])([H])C([H])([H])C([H])([H])N([H])C(=O)N1C([H])([H])C([H])([H])C([H])([H])C([H])(n2nc(-c3c([H])c([H])c(Oc4c([H])c([H])c(F)c([H])c4F)c([H])c3[H])c(C(=O)N([H])[H])c2N([H])[H])C1([H])[H])=C([H])C([H])([H])OC([H])([H])C([H])([H])Oc1c([H])c([H])c2c(c1[H])C([H])([H])N(C(=O)C([H])(N([H])C(=O)C([H])(N([H])C([H])([H])[H])C([H])([H])[H])C(C([H])([H])[H])(C([H])([H])[H])C([H])([H])[H])C([H])(C(=O)N([H])C1([H])c3c([H])c([H])c([H])c([H])c3C([H])([H])C([H])([H])C1([H])[H])C2([H])[H]

>  <smiles>  (83) 
[H]C(C(=O)N([H])C([H])([H])C([H])([H])C([H])([H])N([H])C(=O)N1C([H])([H])C([H])([H])C([H])([H])C([H])(n2nc(-c3c([H])c([H])c(Oc4c([H])c([H])c(F)c([H])c4F)c([H])c3[H])c(C(=O)N([H])[H])c2N([H])[H])C1([H])[H])=C([H])C([H])([H])OC([H])([H])C([H])([H])Oc1c([H])c([H])c2c(c1[H])C([H])([H])N(C(=O)C([H])(N([H])C(=O)C([H])(N([H])C([H])([H])[H])C([H])([H])[H])C(C([H])([H])[H])(C([H])([H])[H])C([H])([H])[H])C([H])(C(=O)N([H])C1([H])c3c([H])c([H])c([H])c([H])c3C([H])([H])C([H])([H])C1([H])[H])C2([H])[H]

$$$$
84:0:0
     RDKit          3D

 97104  0  0  1  0  0  0  0  0999 V2000
  -24.4450  -21.0220   22.0280 N   0  0  0  0  0  4  0  0  0  0  0  0
  -23.7250  -21.5670   22.4800 H   0  0  0  0  0  0  0  0  0  0  0  0
  -25.1380  -20.8070   22.7260 H   0  0  0  0  0  0  0  0  0  0  0  0
  -23.8630  -19.7680   21.4950 C   0  0  0  0  0  2  0  0  0  0  0  0
  -23.5610  -18.7310   22.5910 C   0  0  0  0  0  2  0  0  0  0  0  0
  -24.7990  -18.2220   23.3620 C   0  0  0  0  0  2  0  0  0  0  0  0
  -25.7410  -17.4030   22.5580 N   0  0  0  0  0  4  0  0  0  0  0  0
  -25.2680  -16.6710   22.0370 H   0  0  0  0  0  0  0  0  0  0  0  0
  -26.2230  -17.9790   21.8850 H   0  0  0  0  0  0  0  0  0  0  0  0
  -26.7500  -16.7540   23.4140 C   0  0  0  0  0  2  0  0  0  0  0  0
  -28.0230  -16.3950   22.6540 C   0  0  0  0  0  2  0  0  0  0  0  0
  -28.9680  -15.5490   23.5240 C   0  0  0  0  0  2  0  0  0  0  0  0
  -30.3180  -15.2040   22.8680 C   0  0  0  0  0  2  0  0  0  0  0  0
  -30.7830  -14.3580   20.6210 C   0  0  0  0  0  0  0  0  0  0  0  0
  -30.4100  -12.2630   19.3900 C   0  0  0  0  0  2  0  0  0  0  0  0
  -29.4820  -12.5140   18.1860 C   0  0  0  0  0  2  0  0  0  0  0  0
  -28.0050  -12.3880   18.6020 C   0  0  0  0  0  2  0  0  0  0  0  0
  -27.6690  -13.2080   19.8780 C   0  0  0  0  0  3  0  0  0  0  0  0
  -28.7150  -12.9350   20.9790 C   0  0  0  0  0  2  0  0  0  0  0  0
  -30.0570  -13.2230   20.4430 N   0  0  0  0  0  0  0  0  0  0  0  0
  -31.8100  -14.6220   19.9940 O   0  0  0  0  0  0  0  0  0  0  0  0
  -30.2590  -15.2870   21.4160 N   0  0  0  0  0  0  0  0  0  0  0  0
  -30.5040  -16.2130   21.0940 H   0  0  0  0  0  0  0  0  0  0  0  0
  -25.2600  -13.8190   20.5710 C   0  0  0  0  0  0  0  0  0  0  0  0
  -24.1850  -13.0490   20.9200 C   0  0  0  0  0  0  0  0  0  0  0  0
  -24.6360  -11.6940   20.8680 C   0  0  0  0  0  0  0  0  0  0  0  0
  -26.3070  -12.9380   20.3400 N   0  0  0  0  0  0  0  0  0  0  0  0
  -25.9290  -11.6530   20.5700 N   0  0  0  0  0  0  0  0  0  0  0  0
  -23.8990  -10.4340   21.0350 C   0  0  0  0  0  0  0  0  0  0  0  0
  -24.3590   -9.4250   21.9110 C   0  0  0  0  0  3  0  0  0  0  0  0
  -23.6250   -8.2300   22.0700 C   0  0  0  0  0  3  0  0  0  0  0  0
  -22.4220   -8.0290   21.3540 C   0  0  0  0  0  0  0  0  0  0  0  0
  -21.9800   -9.0290   20.4680 C   0  0  0  0  0  3  0  0  0  0  0  0
  -22.7140  -10.2160   20.3030 C   0  0  0  0  0  3  0  0  0  0  0  0
  -21.6640   -6.8830   21.4200 O   0  0  0  0  0  0  0  0  0  0  0  0
  -21.6870   -6.0650   22.5230 C   0  0  0  0  0  0  0  0  0  0  0  0
  -21.4020   -6.5580   23.8150 C   0  0  0  0  0  3  0  0  0  0  0  0
  -21.3690   -5.6770   24.9150 C   0  0  0  0  0  3  0  0  0  0  0  0
  -21.6060   -4.3030   24.7220 C   0  0  0  0  0  0  0  0  0  0  0  0
  -21.8810   -3.8080   23.4360 C   0  0  0  0  0  3  0  0  0  0  0  0
  -21.9220   -4.6870   22.3400 C   0  0  0  0  0  0  0  0  0  0  0  0
  -22.1700   -4.2040   21.0980 F   0  0  0  0  0  0  0  0  0  0  0  0
  -21.5660   -3.4530   25.7760 F   0  0  0  0  0  0  0  0  0  0  0  0
  -22.7900  -13.5290   21.1860 C   0  0  0  0  0  0  0  0  0  0  0  0
  -22.0500  -12.8320   22.0380 N   0  0  0  0  0  0  0  0  0  0  0  0
  -22.3630  -14.5650   20.6710 O   0  0  0  0  0  0  0  0  0  0  0  0
  -22.4040  -11.9900   22.4710 H   0  0  0  0  0  0  0  0  0  0  0  0
  -21.1190  -13.1490   22.2690 H   0  0  0  0  0  0  0  0  0  0  0  0
  -25.4180  -15.1970   20.4150 N   0  0  0  0  0  0  0  0  0  0  0  0
  -24.5540  -15.6110   20.0760 H   0  0  0  0  0  0  0  0  0  0  0  0
  -26.1870  -15.4530   19.8080 H   0  0  0  0  0  0  0  0  0  0  0  0
  -25.1080  -21.8440   20.9970 C   0  0  0  0  0  2  0  0  0  0  0  0
  -26.1780  -22.7700   21.5960 C   0  0  0  0  0  2  0  0  0  0  0  0
  -26.9480  -23.4920   20.4810 C   0  0  0  0  0  2  0  0  0  0  0  0
  -27.8290  -24.6380   20.9860 C   0  0  0  0  0  2  0  0  0  0  0  0
  -28.4790  -25.4230   19.8270 C   0  0  0  0  0  2  0  0  0  0  0  0
  -28.4540  -26.8200   20.0910 O   0  0  0  0  0  0  0  0  0  0  0  0
  -24.6070  -31.8740   23.2140 C   0  0  0  0  0  0  0  0  0  0  0  0
  -27.2470  -27.4870   20.0830 C   0  0  0  0  0  0  0  0  0  0  0  0
  -23.3900  -30.4950   21.5560 C   0  0  0  0  0  3  0  0  0  0  0  0
  -24.8380  -28.9680   20.1250 C   0  0  0  0  0  0  0  0  0  0  0  0
  -25.9140  -30.8530   21.3630 C   0  0  0  0  0  2  0  0  0  0  0  0
  -25.9960  -29.4920   20.7090 C   0  0  0  0  0  0  0  0  0  0  0  0
  -27.1990  -28.7600   20.6840 C   0  0  0  0  0  3  0  0  0  0  0  0
  -26.0650  -26.9650   19.5000 C   0  0  0  0  0  3  0  0  0  0  0  0
  -24.8630  -27.6970   19.5260 C   0  0  0  0  0  3  0  0  0  0  0  0
  -23.5980  -29.8300   20.1710 C   0  0  0  0  0  2  0  0  0  0  0  0
  -24.6540  -31.0870   22.1040 N   0  0  0  0  0  0  0  0  0  0  0  0
  -23.5290  -32.1500   23.7570 O   0  0  0  0  0  0  0  0  0  0  0  0
  -22.7360  -29.4670   22.5050 C   0  0  0  0  0  0  0  0  0  0  0  0
  -21.4100  -29.3020   22.3780 N   0  0  0  0  0  0  0  0  0  0  0  0
  -23.4150  -28.8240   23.3090 O   0  0  0  0  0  0  0  0  0  0  0  0
  -20.9240  -29.8700   21.6970 H   0  0  0  0  0  0  0  0  0  0  0  0
  -18.0260  -28.1340   22.8490 C   0  0  0  0  0  0  0  0  0  0  0  0
  -20.5840  -28.3650   23.1360 C   0  0  0  0  0  3  0  0  0  0  0  0
  -20.6790  -26.9420   22.5440 C   0  0  0  0  0  2  0  0  0  0  0  0
  -19.5790  -26.6370   21.5220 C   0  0  0  0  0  2  0  0  0  0  0  0
  -18.1940  -26.7880   22.1590 C   0  0  0  0  0  2  0  0  0  0  0  0
  -19.1510  -28.8800   23.2910 C   0  0  0  0  0  0  0  0  0  0  0  0
  -18.9440  -30.1400   23.8920 C   0  0  0  0  0  3  0  0  0  0  0  0
  -17.6450  -30.6570   24.0540 C   0  0  0  0  0  3  0  0  0  0  0  0
  -16.5340  -29.9070   23.6320 C   0  0  0  0  0  3  0  0  0  0  0  0
  -16.7240  -28.6470   23.0350 C   0  0  0  0  0  3  0  0  0  0  0  0
  -25.9010  -32.4810   23.8410 C   0  0  0  0  0  3  0  0  0  0  0  0
  -25.5940  -33.8610   24.2350 N   0  0  0  0  0  0  0  0  0  0  0  0
  -25.9060  -34.9430   23.5110 C   0  0  0  0  0  0  0  0  0  0  0  0
  -26.5600  -34.8880   22.4660 O   0  0  0  0  0  0  0  0  0  0  0  0
  -25.0180  -33.9810   25.0540 H   0  0  0  0  0  0  0  0  0  0  0  0
  -24.1520  -36.7280   23.2630 C   0  0  0  0  0  1  0  0  0  0  0  0
  -25.4120  -36.3050   24.0320 C   0  0  0  0  0  3  0  0  0  0  0  0
  -27.5560  -37.1790   24.8460 C   0  0  0  0  0  1  0  0  0  0  0  0
  -26.4270  -37.3740   23.9410 N   0  0  0  0  0  0  0  0  0  0  0  0
  -26.0140  -38.2800   24.1430 H   0  0  0  0  0  0  0  0  0  0  0  0
  -26.4500  -31.6540   25.0700 C   0  0  1  0  0  0  0  0  0  0  0  0
  -25.3810  -31.3670   26.1480 C   0  0  0  0  0  1  0  0  0  0  0  0
  -27.0340  -30.2990   24.6000 C   0  0  0  0  0  1  0  0  0  0  0  0
  -27.6080  -32.4270   25.7460 C   0  0  0  0  0  1  0  0  0  0  0  0
  1  2  1  0
  1  3  1  0
  4  1  1  0
  4  5  1  0
  5  6  1  0
  7  6  1  0
  7 10  1  0
  8  7  1  0
  9  7  1  0
 11 10  1  0
 11 12  1  0
 13 12  1  0
 14 22  1  0
 15 20  1  0
 16 17  1  0
 16 15  1  0
 18 17  1  0
 18 27  1  0
 18 19  1  0
 20 14  1  0
 20 19  1  0
 21 14  2  0
 22 13  1  0
 23 22  1  0
 24 25  2  0
 25 44  1  0
 26 25  1  0
 26 29  1  0
 27 28  1  0
 27 24  1  0
 28 26  2  0
 29 30  1  0
 30 31  2  0
 32 35  1  0
 32 31  1  0
 33 32  2  0
 34 33  1  0
 34 29  2  0
 35 36  1  0
 36 37  1  0
 37 38  2  0
 39 38  1  0
 39 43  1  0
 40 39  2  0
 41 36  2  0
 41 40  1  0
 42 41  1  0
 44 45  1  0
 45 48  1  0
 45 47  1  0
 46 44  2  0
 49 24  1  0
 50 49  1  0
 51 49  1  0
 52 53  1  0
 52  1  1  0
 54 55  1  0
 54 53  1  0
 56 57  1  0
 56 55  1  0
 58 69  2  0
 59 57  1  0
 59 64  1  0
 60 68  1  0
 60 70  1  0
 61 67  1  0
 61 63  1  0
 62 68  1  0
 63 62  1  0
 64 63  2  0
 65 66  1  0
 65 59  2  0
 66 61  2  0
 67 60  1  0
 68 58  1  0
 70 72  2  0
 71 70  1  0
 73 71  1  0
 74 83  2  0
 74 79  1  0
 75 71  1  0
 75 79  1  0
 76 75  1  0
 77 78  1  0
 77 76  1  0
 78 74  1  0
 79 80  2  0
 80 81  1  0
 82 81  2  0
 83 82  1  0
 84 58  1  0
 84 85  1  0
 84 94  1  0
 85 88  1  0
 86 90  1  0
 86 85  1  0
 87 86  2  0
 90 89  1  0
 92 90  1  0
 92 93  1  0
 92 91  1  0
 94 97  1  1
 94 95  1  0
 96 94  1  0
M  ISO  4  14 100  22 100  56 101  57 101
M  END
>  <TORSDO>  (84) 
F 29

>  <SCORE>  (84) 
46.532

>  <name>  (84) 
84

>  <ligand_id>  (84) 
84

>  <original_smiles>  (84) 
[H]c1c([H])c([H])c2c(c1[H])C([H])([H])C([H])([H])C([H])([H])C2([H])N([H])C(=O)C1([H])N(C(=O)C([H])(N([H])C(=O)C([H])(N([H])C([H])([H])[H])C([H])([H])[H])C(C([H])([H])[H])(C([H])([H])[H])C([H])([H])[H])C([H])([H])c2c([H])c(OC([H])([H])C([H])([H])C([H])([H])C([H])([H])C([H])([H])[N+]([H])([H])C([H])([H])C([H])([H])C([H])([H])[N+]([H])([H])C([H])([H])C([H])([H])C([H])([H])C([H])([H])N([H])C(=O)N3C([H])([H])C([H])([H])C([H])([H])C([H])(n4nc(-c5c([H])c([H])c(Oc6c([H])c([H])c(F)c([H])c6F)c([H])c5[H])c(C(=O)N([H])[H])c4N([H])[H])C3([H])[H])c([H])c([H])c2C1([H])[H]

>  <smiles>  (84) 
[H]c1c([H])c([H])c2c(c1[H])C([H])([H])C([H])([H])C([H])([H])C2([H])N([H])C(=O)C1([H])N(C(=O)C([H])(N([H])C(=O)C([H])(N([H])C([H])([H])[H])C([H])([H])[H])C(C([H])([H])[H])(C([H])([H])[H])C([H])([H])[H])C([H])([H])c2c([H])c(OC([H])([H])C([H])([H])C([H])([H])C([H])([H])C([H])([H])[N+]([H])([H])C([H])([H])C([H])([H])C([H])([H])[N+]([H])([H])C([H])([H])C([H])([H])C([H])([H])C([H])([H])N([H])C(=O)N3C([H])([H])C([H])([H])C([H])([H])C([H])(n4nc(-c5c([H])c([H])c(Oc6c([H])c([H])c(F)c([H])c6F)c([H])c5[H])c(C(=O)N([H])[H])c4N([H])[H])C3([H])[H])c([H])c([H])c2C1([H])[H]

$$$$
85:0:0
     RDKit          3D

102109  0  0  1  0  0  0  0  0999 V2000
  -23.2890  -23.6250   19.8060 C   0  0  0  0  0  0  0  0  0  0  0  0
  -22.6220  -24.2580   18.8330 N   0  0  0  0  0  0  0  0  0  0  0  0
  -23.0560  -22.4590   20.1250 O   0  0  0  0  0  0  0  0  0  0  0  0
  -22.8510  -25.2280   18.6620 H   0  0  0  0  0  0  0  0  0  0  0  0
  -21.5470  -23.6880   18.0250 C   0  0  0  0  0  2  0  0  0  0  0  0
  -20.9230  -24.7380   17.0850 C   0  0  0  0  0  2  0  0  0  0  0  0
  -21.9050  -25.7660   16.4950 C   0  0  0  0  0  2  0  0  0  0  0  0
  -23.0650  -25.1320   15.9630 O   0  0  0  0  0  0  0  0  0  0  0  0
  -24.2860  -25.8140   16.2290 C   0  0  0  0  0  2  0  0  0  0  0  0
  -24.5630  -26.9240   15.1970 C   0  0  0  0  0  2  0  0  0  0  0  0
  -25.9070  -27.3830   15.3040 O   0  0  0  0  0  0  0  0  0  0  0  0
  -26.0430  -28.5520   16.1010 C   0  0  0  0  0  2  0  0  0  0  0  0
  -27.5250  -28.9260   16.2600 C   0  0  0  0  0  2  0  0  0  0  0  0
  -28.2510  -29.1870   14.9280 C   0  0  0  0  0  2  0  0  0  0  0  0
  -29.6000  -29.9010   15.1290 C   0  0  0  0  0  2  0  0  0  0  0  0
  -30.4580  -29.9680   13.8540 C   0  0  0  0  0  2  0  0  0  0  0  0
  -31.3350  -28.2330   12.2880 C   0  0  0  0  0  0  0  0  0  0  0  0
  -31.8090  -26.2180   10.9490 C   0  0  0  0  0  2  0  0  0  0  0  0
  -30.5110  -25.4130   10.7470 C   0  0  0  0  0  2  0  0  0  0  0  0
  -30.2540  -24.4640   11.9360 C   0  0  0  0  0  2  0  0  0  0  0  0
  -30.3900  -25.1740   13.3100 C   0  0  0  0  0  3  0  0  0  0  0  0
  -31.7020  -25.9860   13.3670 C   0  0  0  0  0  2  0  0  0  0  0  0
  -31.7030  -26.9270   12.2300 N   0  0  0  0  0  0  0  0  0  0  0  0
  -31.2620  -28.9700   11.3000 O   0  0  0  0  0  0  0  0  0  0  0  0
  -30.9800  -28.6510   13.5090 N   0  0  0  0  0  0  0  0  0  0  0  0
  -31.0610  -27.9780   14.2550 H   0  0  0  0  0  0  0  0  0  0  0  0
  -29.4630  -24.2350   15.5220 C   0  0  0  0  0  0  0  0  0  0  0  0
  -29.7320  -23.0820   16.2080 C   0  0  0  0  0  0  0  0  0  0  0  0
  -30.7380  -22.3990   15.4570 C   0  0  0  0  0  0  0  0  0  0  0  0
  -30.2960  -24.2220   14.4140 N   0  0  0  0  0  0  0  0  0  0  0  0
  -31.1030  -23.1300   14.4110 N   0  0  0  0  0  0  0  0  0  0  0  0
  -31.3340  -21.0720   15.6400 C   0  0  0  0  0  0  0  0  0  0  0  0
  -32.7300  -20.9010   15.7770 C   0  0  0  0  0  3  0  0  0  0  0  0
  -33.2780  -19.6150   15.9720 C   0  0  0  0  0  3  0  0  0  0  0  0
  -32.4290  -18.4840   16.0370 C   0  0  0  0  0  0  0  0  0  0  0  0
  -31.0430  -18.6570   15.8800 C   0  0  0  0  0  3  0  0  0  0  0  0
  -30.4990  -19.9360   15.6790 C   0  0  0  0  0  3  0  0  0  0  0  0
  -32.8740  -17.1940   16.1980 O   0  0  0  0  0  0  0  0  0  0  0  0
  -34.0360  -16.9130   16.8700 C   0  0  0  0  0  0  0  0  0  0  0  0
  -34.2270  -17.2860   18.2180 C   0  0  0  0  0  3  0  0  0  0  0  0
  -35.4080  -16.9160   18.8910 C   0  0  0  0  0  3  0  0  0  0  0  0
  -36.3940  -16.1640   18.2240 C   0  0  0  0  0  0  0  0  0  0  0  0
  -36.2030  -15.7860   16.8820 C   0  0  0  0  0  3  0  0  0  0  0  0
  -35.0260  -16.1570   16.2100 C   0  0  0  0  0  0  0  0  0  0  0  0
  -34.8380  -15.7720   14.9240 F   0  0  0  0  0  0  0  0  0  0  0  0
  -37.5250  -15.8000   18.8720 F   0  0  0  0  0  0  0  0  0  0  0  0
  -29.0270  -22.5900   17.4410 C   0  0  0  0  0  0  0  0  0  0  0  0
  -29.7490  -21.9260   18.3360 N   0  0  0  0  0  0  0  0  0  0  0  0
  -27.8390  -22.8360   17.6380 O   0  0  0  0  0  0  0  0  0  0  0  0
  -30.7290  -21.7420   18.1840 H   0  0  0  0  0  0  0  0  0  0  0  0
  -29.3130  -21.5980   19.1870 H   0  0  0  0  0  0  0  0  0  0  0  0
  -28.5660  -25.2770   15.7420 N   0  0  0  0  0  0  0  0  0  0  0  0
  -27.9120  -25.2540   16.5160 H   0  0  0  0  0  0  0  0  0  0  0  0
  -28.4020  -26.0550   15.1170 H   0  0  0  0  0  0  0  0  0  0  0  0
  -24.3760  -24.4390   20.5150 C   0  0  0  0  0  2  0  0  0  0  0  0
  -25.4760  -23.6110   21.2290 C   0  0  0  0  0  2  0  0  0  0  0  0
  -26.7860  -23.7300   20.5440 N   0  0  0  0  0  4  0  0  0  0  0  0
  -26.6320  -24.1520   19.6420 H   0  0  0  0  0  0  0  0  0  0  0  0
  -27.1470  -22.8030   20.3660 H   0  0  0  0  0  0  0  0  0  0  0  0
  -27.8260  -24.5170   21.2520 C   0  0  0  0  0  2  0  0  0  0  0  0
  -28.7110  -25.3010   20.2570 C   0  0  0  0  0  2  0  0  0  0  0  0
  -28.6530  -26.7060   20.4830 O   0  0  0  0  0  0  0  0  0  0  0  0
  -24.5670  -31.7690   23.2530 C   0  0  0  0  0  0  0  0  0  0  0  0
  -27.4400  -27.3550   20.3740 C   0  0  0  0  0  0  0  0  0  0  0  0
  -23.4590  -30.3200   21.5810 C   0  0  0  0  0  3  0  0  0  0  0  0
  -25.0020  -28.7800   20.2610 C   0  0  0  0  0  0  0  0  0  0  0  0
  -25.9840  -30.7250   21.4920 C   0  0  0  0  0  2  0  0  0  0  0  0
  -26.1200  -29.3470   20.8830 C   0  0  0  0  0  0  0  0  0  0  0  0
  -27.3370  -28.6410   20.9380 C   0  0  0  0  0  3  0  0  0  0  0  0
  -26.3050  -26.7930   19.7390 C   0  0  0  0  0  3  0  0  0  0  0  0
  -25.0880  -27.4960   19.6940 C   0  0  0  0  0  3  0  0  0  0  0  0
  -23.7430  -29.6190   20.2280 C   0  0  0  0  0  2  0  0  0  0  0  0
  -24.6860  -30.9520   22.1690 N   0  0  0  0  0  0  0  0  0  0  0  0
  -23.4590  -32.0320   23.7390 O   0  0  0  0  0  0  0  0  0  0  0  0
  -22.7820  -29.3040   22.5260 C   0  0  0  0  0  0  0  0  0  0  0  0
  -21.4710  -29.0900   22.3350 N   0  0  0  0  0  0  0  0  0  0  0  0
  -23.4370  -28.7090   23.3870 O   0  0  0  0  0  0  0  0  0  0  0  0
  -21.0000  -29.6330   21.6260 H   0  0  0  0  0  0  0  0  0  0  0  0
  -18.0880  -27.8980   22.7380 C   0  0  0  0  0  0  0  0  0  0  0  0
  -20.6350  -28.1560   23.0880 C   0  0  0  0  0  3  0  0  0  0  0  0
  -20.7490  -26.7170   22.5370 C   0  0  0  0  0  2  0  0  0  0  0  0
  -19.6870  -26.3840   21.4840 C   0  0  0  0  0  2  0  0  0  0  0  0
  -18.2800  -26.5480   22.0660 C   0  0  0  0  0  2  0  0  0  0  0  0
  -19.1920  -28.6600   23.2020 C   0  0  0  0  0  0  0  0  0  0  0  0
  -18.9570  -29.9240   23.7850 C   0  0  0  0  0  3  0  0  0  0  0  0
  -17.6500  -30.4280   23.9060 C   0  0  0  0  0  3  0  0  0  0  0  0
  -16.5580  -29.6640   23.4600 C   0  0  0  0  0  3  0  0  0  0  0  0
  -16.7770  -28.3990   22.8840 C   0  0  0  0  0  3  0  0  0  0  0  0
  -25.8160  -32.4270   23.9210 C   0  0  0  0  0  3  0  0  0  0  0  0
  -25.4770  -33.8280   24.2030 N   0  0  0  0  0  0  0  0  0  0  0  0
  -25.8250  -34.8660   23.4280 C   0  0  0  0  0  0  0  0  0  0  0  0
  -26.5330  -34.7450   22.4250 O   0  0  0  0  0  0  0  0  0  0  0  0
  -24.8570  -33.9940   24.9820 H   0  0  0  0  0  0  0  0  0  0  0  0
  -24.1000  -36.6260   22.9440 C   0  0  0  0  0  1  0  0  0  0  0  0
  -25.3010  -36.2570   23.8280 C   0  0  0  0  0  3  0  0  0  0  0  0
  -27.3730  -37.1900   24.7560 C   0  0  0  0  0  1  0  0  0  0  0  0
  -26.3290  -37.3170   23.7430 N   0  0  0  0  0  0  0  0  0  0  0  0
  -25.9070  -38.2370   23.8380 H   0  0  0  0  0  0  0  0  0  0  0  0
  -26.2860  -31.6870   25.2320 C   0  0  1  0  0  0  0  0  0  0  0  0
  -25.1450  -31.4320   26.2440 C   0  0  0  0  0  1  0  0  0  0  0  0
  -26.9270  -30.3220   24.8870 C   0  0  0  0  0  1  0  0  0  0  0  0
  -27.3830  -32.5180   25.9380 C   0  0  0  0  0  1  0  0  0  0  0  0
  1  3  2  0
  1 55  1  0
  2  1  1  0
  4  2  1  0
  5  2  1  0
  6  5  1  0
  7  6  1  0
  8  9  1  0
  8  7  1  0
 10 11  1  0
 10  9  1  0
 11 12  1  0
 12 13  1  0
 14 15  1  0
 14 13  1  0
 16 15  1  0
 17 25  1  0
 18 23  1  0
 19 18  1  0
 19 20  1  0
 21 20  1  0
 21 22  1  0
 21 30  1  0
 23 17  1  0
 23 22  1  0
 24 17  2  0
 25 16  1  0
 25 26  1  0
 27 52  1  0
 27 28  2  0
 28 47  1  0
 29 32  1  0
 29 28  1  0
 30 27  1  0
 31 30  1  0
 31 29  2  0
 32 37  2  0
 32 33  1  0
 33 34  2  0
 34 35  1  0
 35 38  1  0
 36 35  2  0
 37 36  1  0
 38 39  1  0
 39 40  1  0
 40 41  2  0
 42 46  1  0
 42 41  1  0
 43 42  2  0
 44 39  2  0
 44 43  1  0
 45 44  1  0
 47 49  2  0
 47 48  1  0
 48 51  1  0
 50 48  1  0
 52 53  1  0
 54 52  1  0
 55 56  1  0
 57 56  1  0
 57 60  1  0
 58 57  1  0
 59 57  1  0
 61 62  1  0
 61 60  1  0
 63 74  2  0
 64 62  1  0
 64 69  1  0
 65 73  1  0
 65 75  1  0
 66 68  1  0
 67 73  1  0
 68 69  2  0
 68 67  1  0
 70 64  2  0
 71 70  1  0
 71 66  2  0
 72 66  1  0
 72 65  1  0
 73 63  1  0
 75 77  2  0
 76 75  1  0
 78 76  1  0
 79 88  2  0
 79 84  1  0
 80 76  1  0
 80 84  1  0
 81 80  1  0
 82 83  1  0
 82 81  1  0
 83 79  1  0
 84 85  2  0
 85 86  1  0
 87 86  2  0
 88 87  1  0
 89 63  1  0
 89 90  1  0
 89 99  1  0
 90 93  1  0
 91 95  1  0
 91 90  1  0
 92 91  2  0
 95 94  1  0
 97 95  1  0
 97 98  1  0
 97 96  1  0
 99102  1  1
 99100  1  0
101 99  1  0
M  ISO  4  17 100  25 100  61 101  62 101
M  END
>  <TORSDO>  (85) 
F 33

>  <SCORE>  (85) 
-6.317

>  <name>  (85) 
85

>  <ligand_id>  (85) 
85

>  <original_smiles>  (85) 
[H]c1c([H])c([H])c2c(c1[H])C([H])([H])C([H])([H])C([H])([H])C2([H])N([H])C(=O)C1([H])N(C(=O)C([H])(N([H])C(=O)C([H])(N([H])C([H])([H])[H])C([H])([H])[H])C(C([H])([H])[H])(C([H])([H])[H])C([H])([H])[H])C([H])([H])c2c([H])c(OC([H])([H])C([H])([H])[N+]([H])([H])C([H])([H])C([H])([H])C(=O)N([H])C([H])([H])C([H])([H])C([H])([H])OC([H])([H])C([H])([H])OC([H])([H])C([H])([H])C([H])([H])C([H])([H])C([H])([H])N([H])C(=O)N3C([H])([H])C([H])([H])C([H])([H])C([H])(n4nc(-c5c([H])c([H])c(Oc6c([H])c([H])c(F)c([H])c6F)c([H])c5[H])c(C(=O)N([H])[H])c4N([H])[H])C3([H])[H])c([H])c([H])c2C1([H])[H]

>  <smiles>  (85) 
[H]c1c([H])c([H])c2c(c1[H])C([H])([H])C([H])([H])C([H])([H])C2([H])N([H])C(=O)C1([H])N(C(=O)C([H])(N([H])C(=O)C([H])(N([H])C([H])([H])[H])C([H])([H])[H])C(C([H])([H])[H])(C([H])([H])[H])C([H])([H])[H])C([H])([H])c2c([H])c(OC([H])([H])C([H])([H])[N+]([H])([H])C([H])([H])C([H])([H])C(=O)N([H])C([H])([H])C([H])([H])C([H])([H])OC([H])([H])C([H])([H])OC([H])([H])C([H])([H])C([H])([H])C([H])([H])C([H])([H])N([H])C(=O)N3C([H])([H])C([H])([H])C([H])([H])C([H])(n4nc(-c5c([H])c([H])c(Oc6c([H])c([H])c(F)c([H])c6F)c([H])c5[H])c(C(=O)N([H])[H])c4N([H])[H])C3([H])[H])c([H])c([H])c2C1([H])[H]

$$$$
86:0:0
     RDKit          3D

 94101  0  0  1  0  0  0  0  0999 V2000
  -26.4830  -20.9320   17.8760 C   0  0  0  0  0  2  0  0  0  0  0  0
  -27.9160  -20.5560   18.2970 C   0  0  0  0  0  2  0  0  0  0  0  0
  -27.9560  -19.3580   19.2620 C   0  0  0  0  0  2  0  0  0  0  0  0
  -29.3360  -19.0100   19.6630 N   0  0  0  0  0  4  0  0  0  0  0  0
  -29.8750  -18.8170   18.8340 H   0  0  0  0  0  0  0  0  0  0  0  0
  -29.7500  -19.8050   20.1230 H   0  0  0  0  0  0  0  0  0  0  0  0
  -29.4220  -17.8410   20.5650 C   0  0  0  0  0  2  0  0  0  0  0  0
  -30.8790  -17.4840   20.9130 C   0  0  0  0  0  2  0  0  0  0  0  0
  -31.0190  -16.3100   21.9050 C   0  0  0  0  0  2  0  0  0  0  0  0
  -30.8450  -14.2610   20.4850 C   0  0  0  0  0  0  0  0  0  0  0  0
  -30.4380  -12.2100   19.1810 C   0  0  0  0  0  2  0  0  0  0  0  0
  -29.4920  -12.4770   17.9940 C   0  0  0  0  0  2  0  0  0  0  0  0
  -28.0190  -12.3590   18.4280 C   0  0  0  0  0  2  0  0  0  0  0  0
  -27.7100  -13.1680   19.7160 C   0  0  0  0  0  3  0  0  0  0  0  0
  -28.7590  -12.8760   20.8120 C   0  0  0  0  0  2  0  0  0  0  0  0
  -30.0990  -13.1500   20.2600 N   0  0  0  0  0  0  0  0  0  0  0  0
  -31.8780  -14.5260   19.8650 O   0  0  0  0  0  0  0  0  0  0  0  0
  -30.3820  -15.0750   21.4430 N   0  0  0  0  0  0  0  0  0  0  0  0
  -29.5440  -14.7760   21.9200 H   0  0  0  0  0  0  0  0  0  0  0  0
  -25.3120  -13.8100   20.4020 C   0  0  0  0  0  0  0  0  0  0  0  0
  -24.2350  -13.0540   20.7800 C   0  0  0  0  0  0  0  0  0  0  0  0
  -24.6820  -11.6980   20.7690 C   0  0  0  0  0  0  0  0  0  0  0  0
  -26.3500  -12.9160   20.1900 N   0  0  0  0  0  0  0  0  0  0  0  0
  -25.9730  -11.6410   20.4640 N   0  0  0  0  0  0  0  0  0  0  0  0
  -23.9440  -10.4460   20.9760 C   0  0  0  0  0  0  0  0  0  0  0  0
  -24.3550   -9.4950   21.9360 C   0  0  0  0  0  3  0  0  0  0  0  0
  -23.6180   -8.3070   22.1280 C   0  0  0  0  0  3  0  0  0  0  0  0
  -22.4540   -8.0600   21.3600 C   0  0  0  0  0  0  0  0  0  0  0  0
  -22.0620   -9.0000   20.3900 C   0  0  0  0  0  3  0  0  0  0  0  0
  -22.8000  -10.1800   20.1960 C   0  0  0  0  0  3  0  0  0  0  0  0
  -21.6910   -6.9230   21.4610 O   0  0  0  0  0  0  0  0  0  0  0  0
  -21.6130   -6.2090   22.6300 C   0  0  0  0  0  0  0  0  0  0  0  0
  -21.1640   -6.7940   23.8330 C   0  0  0  0  0  3  0  0  0  0  0  0
  -21.0330   -6.0060   24.9930 C   0  0  0  0  0  3  0  0  0  0  0  0
  -21.3440   -4.6340   24.9530 C   0  0  0  0  0  0  0  0  0  0  0  0
  -21.7870   -4.0480   23.7540 C   0  0  0  0  0  3  0  0  0  0  0  0
  -21.9190   -4.8320   22.5950 C   0  0  0  0  0  0  0  0  0  0  0  0
  -22.3260   -4.2590   21.4370 F   0  0  0  0  0  0  0  0  0  0  0  0
  -21.2110   -3.8740   26.0650 F   0  0  0  0  0  0  0  0  0  0  0  0
  -22.8410  -13.5490   21.0420 C   0  0  0  0  0  0  0  0  0  0  0  0
  -22.1050  -12.8730   21.9180 N   0  0  0  0  0  0  0  0  0  0  0  0
  -22.4140  -14.5710   20.5070 O   0  0  0  0  0  0  0  0  0  0  0  0
  -22.4630  -12.0460   22.3740 H   0  0  0  0  0  0  0  0  0  0  0  0
  -21.1690  -13.1850   22.1340 H   0  0  0  0  0  0  0  0  0  0  0  0
  -25.4910  -15.1770   20.2030 N   0  0  0  0  0  0  0  0  0  0  0  0
  -24.7290  -15.8400   20.2910 H   0  0  0  0  0  0  0  0  0  0  0  0
  -26.3460  -15.5940   19.8630 H   0  0  0  0  0  0  0  0  0  0  0  0
  -26.5090  -22.0160   16.9530 O   0  0  0  0  0  0  0  0  0  0  0  0
  -26.6840  -23.2920   17.5560 C   0  0  0  0  0  2  0  0  0  0  0  0
  -27.7060  -24.0870   16.7290 C   0  0  0  0  0  2  0  0  0  0  0  0
  -28.0640  -25.4510   17.3440 C   0  0  0  0  0  2  0  0  0  0  0  0
  -28.9970  -25.3300   18.5660 C   0  0  0  0  0  2  0  0  0  0  0  0
  -29.2270  -26.6480   19.3280 C   0  0  0  0  0  2  0  0  0  0  0  0
  -28.4890  -26.6710   20.5480 O   0  0  0  0  0  0  0  0  0  0  0  0
  -24.5690  -31.9060   23.3220 C   0  0  0  0  0  0  0  0  0  0  0  0
  -27.3150  -27.3760   20.5030 C   0  0  0  0  0  0  0  0  0  0  0  0
  -23.4170  -30.4460   21.6900 C   0  0  0  0  0  3  0  0  0  0  0  0
  -24.9150  -28.8470   20.3870 C   0  0  0  0  0  0  0  0  0  0  0  0
  -25.9440  -30.8010   21.5630 C   0  0  0  0  0  2  0  0  0  0  0  0
  -26.0510  -29.4040   20.9910 C   0  0  0  0  0  0  0  0  0  0  0  0
  -27.2540  -28.6710   21.0540 C   0  0  0  0  0  3  0  0  0  0  0  0
  -26.1590  -26.8070   19.9320 C   0  0  0  0  0  3  0  0  0  0  0  0
  -24.9610  -27.5420   19.8610 C   0  0  0  0  0  3  0  0  0  0  0  0
  -23.6740  -29.7090   20.3480 C   0  0  0  0  0  2  0  0  0  0  0  0
  -24.6600  -31.0660   22.2520 N   0  0  0  0  0  0  0  0  0  0  0  0
  -23.4710  -32.2020   23.8110 O   0  0  0  0  0  0  0  0  0  0  0  0
  -22.7270  -29.4650   22.6640 C   0  0  0  0  0  0  0  0  0  0  0  0
  -21.4140  -29.2590   22.4700 N   0  0  0  0  0  0  0  0  0  0  0  0
  -23.3700  -28.8900   23.5450 O   0  0  0  0  0  0  0  0  0  0  0  0
  -20.9580  -29.7770   21.7320 H   0  0  0  0  0  0  0  0  0  0  0  0
  -18.0340  -28.0350   22.8160 C   0  0  0  0  0  0  0  0  0  0  0  0
  -20.5630  -28.3520   23.2380 C   0  0  0  0  0  3  0  0  0  0  0  0
  -20.7220  -26.8920   22.7510 C   0  0  0  0  0  2  0  0  0  0  0  0
  -19.6930  -26.4960   21.6860 C   0  0  0  0  0  2  0  0  0  0  0  0
  -18.2710  -26.6540   22.2310 C   0  0  0  0  0  2  0  0  0  0  0  0
  -19.1110  -28.8390   23.2750 C   0  0  0  0  0  0  0  0  0  0  0  0
  -18.8390  -30.1300   23.7750 C   0  0  0  0  0  3  0  0  0  0  0  0
  -17.5190  -30.6190   23.8280 C   0  0  0  0  0  3  0  0  0  0  0  0
  -16.4530  -29.8140   23.3870 C   0  0  0  0  0  3  0  0  0  0  0  0
  -16.7120  -28.5250   22.8870 C   0  0  0  0  0  3  0  0  0  0  0  0
  -25.8360  -32.5520   23.9670 C   0  0  0  0  0  3  0  0  0  0  0  0
  -26.3170  -31.8120   25.2760 C   0  0  1  0  0  0  0  0  0  0  0  0
  -25.1870  -31.5690   26.3040 C   0  0  0  0  0  1  0  0  0  0  0  0
  -26.9410  -30.4410   24.9260 C   0  0  0  0  0  1  0  0  0  0  0  0
  -27.4250  -32.6400   25.9690 C   0  0  0  0  0  1  0  0  0  0  0  0
  -25.5210  -33.9570   24.2480 N   0  0  0  0  0  0  0  0  0  0  0  0
  -25.8780  -34.9860   23.4670 C   0  0  0  0  0  0  0  0  0  0  0  0
  -26.5790  -34.8520   22.4600 O   0  0  0  0  0  0  0  0  0  0  0  0
  -24.9030  -34.1360   25.0250 H   0  0  0  0  0  0  0  0  0  0  0  0
  -24.1580  -36.7630   23.0110 C   0  0  0  0  0  1  0  0  0  0  0  0
  -25.3760  -36.3870   23.8680 C   0  0  0  0  0  3  0  0  0  0  0  0
  -27.4860  -37.3000   24.7300 C   0  0  0  0  0  1  0  0  0  0  0  0
  -26.4100  -37.4380   23.7530 N   0  0  0  0  0  0  0  0  0  0  0  0
  -26.0000  -38.3620   23.8590 H   0  0  0  0  0  0  0  0  0  0  0  0
  1  2  1  0
  2  3  1  0
  3  4  1  0
  4  6  1  0
  4  7  1  0
  5  4  1  0
  7  8  1  0
  8  9  1  0
 10 18  1  0
 11 16  1  0
 12 13  1  0
 12 11  1  0
 14 13  1  0
 14 23  1  0
 14 15  1  0
 16 10  1  0
 16 15  1  0
 17 10  2  0
 18  9  1  0
 18 19  1  0
 20 21  2  0
 21 40  1  0
 22 21  1  0
 22 25  1  0
 23 20  1  0
 23 24  1  0
 24 22  2  0
 25 26  1  0
 26 27  2  0
 28 31  1  0
 28 27  1  0
 29 28  2  0
 30 29  1  0
 30 25  2  0
 31 32  1  0
 32 33  1  0
 33 34  2  0
 35 34  1  0
 35 39  1  0
 36 35  2  0
 37 32  2  0
 37 36  1  0
 38 37  1  0
 40 41  1  0
 41 44  1  0
 41 43  1  0
 42 40  2  0
 45 46  1  0
 45 20  1  0
 47 45  1  0
 48 49  1  0
 48  1  1  0
 50 51  1  0
 50 49  1  0
 51 52  1  0
 52 53  1  0
 53 54  1  0
 55 66  2  0
 56 54  1  0
 56 61  1  0
 57 65  1  0
 57 67  1  0
 58 60  1  0
 59 65  1  0
 60 61  2  0
 60 59  1  0
 62 56  2  0
 63 62  1  0
 63 58  2  0
 64 58  1  0
 64 57  1  0
 65 55  1  0
 67 69  2  0
 68 67  1  0
 70 68  1  0
 71 80  2  0
 71 76  1  0
 72 68  1  0
 72 76  1  0
 73 72  1  0
 74 75  1  0
 74 73  1  0
 75 71  1  0
 76 77  2  0
 77 78  1  0
 79 78  2  0
 80 79  1  0
 81 55  1  0
 81 86  1  0
 81 82  1  0
 82 85  1  1
 82 83  1  0
 84 82  1  0
 86 89  1  0
 87 91  1  0
 87 86  1  0
 88 87  2  0
 91 90  1  0
 93 94  1  0
 93 91  1  0
 93 92  1  0
M  ISO  4  10 100  18 100  53 101  54 101
M  END
>  <TORSDO>  (86) 
F 28

>  <SCORE>  (86) 
-10.693

>  <name>  (86) 
86

>  <ligand_id>  (86) 
86

>  <original_smiles>  (86) 
[H]c1c([H])c([H])c2c(c1[H])C([H])([H])C([H])([H])C([H])([H])C2([H])N([H])C(=O)C1([H])N(C(=O)C([H])(N([H])C(=O)C([H])(N([H])C([H])([H])[H])C([H])([H])[H])C(C([H])([H])[H])(C([H])([H])[H])C([H])([H])[H])C([H])([H])c2c([H])c(OC([H])([H])C([H])([H])C([H])([H])C([H])([H])C([H])([H])OC([H])([H])C([H])([H])C([H])([H])[N+]([H])([H])C([H])([H])C([H])([H])C([H])([H])N([H])C(=O)N3C([H])([H])C([H])([H])C([H])([H])C([H])(n4nc(-c5c([H])c([H])c(Oc6c([H])c([H])c(F)c([H])c6F)c([H])c5[H])c(C(=O)N([H])[H])c4N([H])[H])C3([H])[H])c([H])c([H])c2C1([H])[H]

>  <smiles>  (86) 
[H]c1c([H])c([H])c2c(c1[H])C([H])([H])C([H])([H])C([H])([H])C2([H])N([H])C(=O)C1([H])N(C(=O)C([H])(N([H])C(=O)C([H])(N([H])C([H])([H])[H])C([H])([H])[H])C(C([H])([H])[H])(C([H])([H])[H])C([H])([H])[H])C([H])([H])c2c([H])c(OC([H])([H])C([H])([H])C([H])([H])C([H])([H])C([H])([H])OC([H])([H])C([H])([H])C([H])([H])[N+]([H])([H])C([H])([H])C([H])([H])C([H])([H])N([H])C(=O)N3C([H])([H])C([H])([H])C([H])([H])C([H])(n4nc(-c5c([H])c([H])c(Oc6c([H])c([H])c(F)c([H])c6F)c([H])c5[H])c(C(=O)N([H])[H])c4N([H])[H])C3([H])[H])c([H])c([H])c2C1([H])[H]

$$$$
87:0:0
     RDKit          3D

 98105  0  0  1  0  0  0  0  0999 V2000
  -25.2460  -23.0270   17.1840 C   0  0  0  0  0  2  0  0  0  0  0  0
  -26.6410  -22.4010   17.3760 C   0  0  0  0  0  2  0  0  0  0  0  0
  -26.6720  -21.3510   18.4160 N   0  0  0  0  0  4  0  0  0  0  0  0
  -26.3410  -21.7300   19.2910 H   0  0  0  0  0  0  0  0  0  0  0  0
  -26.0530  -20.6020   18.1500 H   0  0  0  0  0  0  0  0  0  0  0  0
  -28.0280  -20.8020   18.6190 C   0  0  0  0  0  2  0  0  0  0  0  0
  -28.0750  -19.6950   19.6850 C   0  0  0  0  0  2  0  0  0  0  0  0
  -29.5060  -19.1820   19.9030 C   0  0  0  0  0  2  0  0  0  0  0  0
  -29.5800  -18.0110   20.8920 C   0  0  0  0  0  2  0  0  0  0  0  0
  -31.0300  -17.5590   21.1280 C   0  0  0  0  0  2  0  0  0  0  0  0
  -31.1540  -16.3280   22.0460 C   0  0  0  0  0  2  0  0  0  0  0  0
  -30.8490  -14.4090   20.4820 C   0  0  0  0  0  0  0  0  0  0  0  0
  -30.4200  -12.3680   19.1660 C   0  0  0  0  0  2  0  0  0  0  0  0
  -29.4580  -12.6380   17.9940 C   0  0  0  0  0  2  0  0  0  0  0  0
  -27.9940  -12.5040   18.4520 C   0  0  0  0  0  2  0  0  0  0  0  0
  -27.7000  -13.3150   19.7400 C   0  0  0  0  0  3  0  0  0  0  0  0
  -28.7640  -13.0270   20.8230 C   0  0  0  0  0  2  0  0  0  0  0  0
  -30.0970  -13.3030   20.2530 N   0  0  0  0  0  0  0  0  0  0  0  0
  -31.8520  -14.6980   19.8210 O   0  0  0  0  0  0  0  0  0  0  0  0
  -30.4600  -15.1530   21.5240 N   0  0  0  0  0  0  0  0  0  0  0  0
  -29.6440  -14.8340   22.0240 H   0  0  0  0  0  0  0  0  0  0  0  0
  -25.3200  -13.9480   20.4990 C   0  0  0  0  0  0  0  0  0  0  0  0
  -24.2470  -13.1860   20.8720 C   0  0  0  0  0  0  0  0  0  0  0  0
  -24.6870  -11.8280   20.8090 C   0  0  0  0  0  0  0  0  0  0  0  0
  -26.3480  -13.0560   20.2340 N   0  0  0  0  0  0  0  0  0  0  0  0
  -25.9700  -11.7740   20.4760 N   0  0  0  0  0  0  0  0  0  0  0  0
  -23.9450  -10.5730   20.9900 C   0  0  0  0  0  0  0  0  0  0  0  0
  -24.3460   -9.6100   21.9420 C   0  0  0  0  0  3  0  0  0  0  0  0
  -23.6090   -8.4190   22.1100 C   0  0  0  0  0  3  0  0  0  0  0  0
  -22.4550   -8.1810   21.3250 C   0  0  0  0  0  0  0  0  0  0  0  0
  -22.0730   -9.1330   20.3620 C   0  0  0  0  0  3  0  0  0  0  0  0
  -22.8120  -10.3160   20.1940 C   0  0  0  0  0  3  0  0  0  0  0  0
  -21.6910   -7.0430   21.3990 O   0  0  0  0  0  0  0  0  0  0  0  0
  -21.5780   -6.3280   22.5660 C   0  0  0  0  0  0  0  0  0  0  0  0
  -21.0590   -6.9050   23.7460 C   0  0  0  0  0  3  0  0  0  0  0  0
  -20.8950   -6.1170   24.9020 C   0  0  0  0  0  3  0  0  0  0  0  0
  -21.2360   -4.7510   24.8780 C   0  0  0  0  0  0  0  0  0  0  0  0
  -21.7470   -4.1730   23.7030 C   0  0  0  0  0  3  0  0  0  0  0  0
  -21.9140   -4.9590   22.5480 C   0  0  0  0  0  0  0  0  0  0  0  0
  -22.3870   -4.3930   21.4120 F   0  0  0  0  0  0  0  0  0  0  0  0
  -21.0710   -3.9910   25.9850 F   0  0  0  0  0  0  0  0  0  0  0  0
  -22.8620  -13.6770   21.1800 C   0  0  0  0  0  0  0  0  0  0  0  0
  -22.1390  -12.9740   22.0460 N   0  0  0  0  0  0  0  0  0  0  0  0
  -22.4290  -14.7190   20.6900 O   0  0  0  0  0  0  0  0  0  0  0  0
  -22.5020  -12.1300   22.4640 H   0  0  0  0  0  0  0  0  0  0  0  0
  -21.2100  -13.2850   22.2940 H   0  0  0  0  0  0  0  0  0  0  0  0
  -25.5040  -15.3200   20.3440 N   0  0  0  0  0  0  0  0  0  0  0  0
  -24.7540  -15.9870   20.4860 H   0  0  0  0  0  0  0  0  0  0  0  0
  -26.3660  -15.7490   20.0340 H   0  0  0  0  0  0  0  0  0  0  0  0
  -25.1700  -24.0560   16.0320 C   0  0  0  0  0  2  0  0  0  0  0  0
  -25.7750  -25.4430   16.3380 C   0  0  0  0  0  2  0  0  0  0  0  0
  -27.2160  -25.5620   16.0080 N   0  0  0  0  0  4  0  0  0  0  0  0
  -27.2700  -25.8970   15.0590 H   0  0  0  0  0  0  0  0  0  0  0  0
  -27.6780  -24.6690   16.0150 H   0  0  0  0  0  0  0  0  0  0  0  0
  -27.9680  -26.5110   16.8610 C   0  0  0  0  0  2  0  0  0  0  0  0
  -28.6060  -25.8190   18.0850 C   0  0  0  0  0  2  0  0  0  0  0  0
  -29.1050  -26.8020   19.1640 C   0  0  0  0  0  2  0  0  0  0  0  0
  -28.3460  -26.6910   20.3670 O   0  0  0  0  0  0  0  0  0  0  0  0
  -24.5330  -31.9020   23.3380 C   0  0  0  0  0  0  0  0  0  0  0  0
  -27.1770  -27.4050   20.3760 C   0  0  0  0  0  0  0  0  0  0  0  0
  -23.3220  -30.4620   21.7290 C   0  0  0  0  0  3  0  0  0  0  0  0
  -24.7740  -28.8790   20.3570 C   0  0  0  0  0  0  0  0  0  0  0  0
  -25.8470  -30.8140   21.5230 C   0  0  0  0  0  2  0  0  0  0  0  0
  -25.9310  -29.4270   20.9260 C   0  0  0  0  0  0  0  0  0  0  0  0
  -27.1360  -28.6960   20.9370 C   0  0  0  0  0  3  0  0  0  0  0  0
  -25.9980  -26.8430   19.8480 C   0  0  0  0  0  3  0  0  0  0  0  0
  -24.7990  -27.5800   19.8220 C   0  0  0  0  0  3  0  0  0  0  0  0
  -23.5320  -29.7410   20.3700 C   0  0  0  0  0  2  0  0  0  0  0  0
  -24.5860  -31.0740   22.2550 N   0  0  0  0  0  0  0  0  0  0  0  0
  -23.4520  -32.1930   23.8690 O   0  0  0  0  0  0  0  0  0  0  0  0
  -22.6640  -29.4720   22.7140 C   0  0  0  0  0  0  0  0  0  0  0  0
  -21.3500  -29.2480   22.5510 N   0  0  0  0  0  0  0  0  0  0  0  0
  -23.3330  -28.9050   23.5810 O   0  0  0  0  0  0  0  0  0  0  0  0
  -20.8680  -29.7580   21.8240 H   0  0  0  0  0  0  0  0  0  0  0  0
  -18.0040  -27.9540   22.9540 C   0  0  0  0  0  0  0  0  0  0  0  0
  -20.5310  -28.3270   23.3380 C   0  0  0  0  0  3  0  0  0  0  0  0
  -20.7160  -26.8680   22.8580 C   0  0  0  0  0  2  0  0  0  0  0  0
  -19.6820  -26.4430   21.8110 C   0  0  0  0  0  2  0  0  0  0  0  0
  -18.2630  -26.5740   22.3730 C   0  0  0  0  0  2  0  0  0  0  0  0
  -19.0690  -28.7830   23.3930 C   0  0  0  0  0  0  0  0  0  0  0  0
  -18.7750  -30.0710   23.8880 C   0  0  0  0  0  3  0  0  0  0  0  0
  -17.4460  -30.5310   23.9540 C   0  0  0  0  0  3  0  0  0  0  0  0
  -16.3930  -29.7010   23.5340 C   0  0  0  0  0  3  0  0  0  0  0  0
  -16.6730  -28.4160   23.0370 C   0  0  0  0  0  3  0  0  0  0  0  0
  -25.8230  -32.5380   23.9430 C   0  0  0  0  0  3  0  0  0  0  0  0
  -25.5310  -33.9520   24.2120 N   0  0  0  0  0  0  0  0  0  0  0  0
  -25.8970  -34.9680   23.4190 C   0  0  0  0  0  0  0  0  0  0  0  0
  -26.5860  -34.8140   22.4060 O   0  0  0  0  0  0  0  0  0  0  0  0
  -24.9230  -34.1480   24.9940 H   0  0  0  0  0  0  0  0  0  0  0  0
  -24.2210  -36.7790   22.9430 C   0  0  0  0  0  1  0  0  0  0  0  0
  -25.4230  -36.3780   23.8130 C   0  0  0  0  0  3  0  0  0  0  0  0
  -27.5430  -37.2530   24.6900 C   0  0  0  0  0  1  0  0  0  0  0  0
  -26.4780  -37.4080   23.7020 N   0  0  0  0  0  0  0  0  0  0  0  0
  -26.0850  -38.3400   23.8010 H   0  0  0  0  0  0  0  0  0  0  0  0
  -26.3240  -31.8090   25.2500 C   0  0  1  0  0  0  0  0  0  0  0  0
  -25.2200  -31.6170   26.3160 C   0  0  0  0  0  1  0  0  0  0  0  0
  -26.9000  -30.4140   24.9110 C   0  0  0  0  0  1  0  0  0  0  0  0
  -27.4740  -32.6180   25.8950 C   0  0  0  0  0  1  0  0  0  0  0  0
  1  2  1  0
  2  3  1  0
  3  6  1  0
  3  4  1  0
  5  3  1  0
  6  7  1  0
  7  8  1  0
  8  9  1  0
  9 10  1  0
 10 11  1  0
 12 20  1  0
 13 18  1  0
 14 15  1  0
 14 13  1  0
 16 15  1  0
 16 25  1  0
 16 17  1  0
 18 12  1  0
 18 17  1  0
 19 12  2  0
 20 21  1  0
 20 11  1  0
 22 23  2  0
 23 42  1  0
 24 23  1  0
 24 27  1  0
 25 26  1  0
 25 22  1  0
 26 24  2  0
 27 28  1  0
 28 29  2  0
 30 33  1  0
 30 29  1  0
 31 30  2  0
 32 31  1  0
 32 27  2  0
 33 34  1  0
 34 35  1  0
 35 36  2  0
 37 36  1  0
 37 41  1  0
 38 37  2  0
 39 34  2  0
 39 38  1  0
 40 39  1  0
 42 43  1  0
 43 46  1  0
 43 45  1  0
 44 42  2  0
 47 48  1  0
 47 22  1  0
 49 47  1  0
 50 51  1  0
 50  1  1  0
 52 54  1  0
 52 51  1  0
 52 55  1  0
 53 52  1  0
 55 56  1  0
 56 57  1  0
 57 58  1  0
 58 60  1  0
 59 70  2  0
 60 65  1  0
 61 69  1  0
 61 71  1  0
 62 68  1  0
 62 64  1  0
 63 69  1  0
 64 65  2  0
 64 63  1  0
 66 60  2  0
 67 66  1  0
 67 62  2  0
 68 61  1  0
 69 59  1  0
 71 73  2  0
 72 71  1  0
 74 72  1  0
 75 84  2  0
 75 80  1  0
 76 72  1  0
 76 80  1  0
 77 76  1  0
 78 79  1  0
 78 77  1  0
 79 75  1  0
 80 81  2  0
 81 82  1  0
 83 82  2  0
 84 83  1  0
 85 59  1  0
 85 86  1  0
 85 95  1  0
 86 89  1  0
 87 91  1  0
 87 86  1  0
 88 87  2  0
 91 90  1  0
 93 94  1  0
 93 91  1  0
 93 92  1  0
 95 98  1  1
 95 96  1  0
 97 95  1  0
M  ISO  4  12 100  20 100  57 101  58 101
M  END
>  <TORSDO>  (87) 
F 30

>  <SCORE>  (87) 
-10.104

>  <name>  (87) 
87

>  <ligand_id>  (87) 
87

>  <original_smiles>  (87) 
[H]c1c([H])c([H])c2c(c1[H])C([H])([H])C([H])([H])C([H])([H])C2([H])N([H])C(=O)C1([H])N(C(=O)C([H])(N([H])C(=O)C([H])(N([H])C([H])([H])[H])C([H])([H])[H])C(C([H])([H])[H])(C([H])([H])[H])C([H])([H])[H])C([H])([H])c2c([H])c(OC([H])([H])C([H])([H])C([H])([H])[N+]([H])([H])C([H])([H])C([H])([H])C([H])([H])C([H])([H])[N+]([H])([H])C([H])([H])C([H])([H])C([H])([H])C([H])([H])C([H])([H])C([H])([H])N([H])C(=O)N3C([H])([H])C([H])([H])C([H])([H])C([H])(n4nc(-c5c([H])c([H])c(Oc6c([H])c([H])c(F)c([H])c6F)c([H])c5[H])c(C(=O)N([H])[H])c4N([H])[H])C3([H])[H])c([H])c([H])c2C1([H])[H]

>  <smiles>  (87) 
[H]c1c([H])c([H])c2c(c1[H])C([H])([H])C([H])([H])C([H])([H])C2([H])N([H])C(=O)C1([H])N(C(=O)C([H])(N([H])C(=O)C([H])(N([H])C([H])([H])[H])C([H])([H])[H])C(C([H])([H])[H])(C([H])([H])[H])C([H])([H])[H])C([H])([H])c2c([H])c(OC([H])([H])C([H])([H])C([H])([H])[N+]([H])([H])C([H])([H])C([H])([H])C([H])([H])C([H])([H])[N+]([H])([H])C([H])([H])C([H])([H])C([H])([H])C([H])([H])C([H])([H])C([H])([H])N([H])C(=O)N3C([H])([H])C([H])([H])C([H])([H])C([H])(n4nc(-c5c([H])c([H])c(Oc6c([H])c([H])c(F)c([H])c6F)c([H])c5[H])c(C(=O)N([H])[H])c4N([H])[H])C3([H])[H])c([H])c([H])c2C1([H])[H]

$$$$
88:0:0
     RDKit          3D

 95102  0  0  1  0  0  0  0  0999 V2000
  -25.0980  -23.4160   21.4120 C   0  0  0  0  0  2  0  0  0  0  0  0
  -25.3530  -24.7140   20.7510 N   0  0  0  0  0  4  0  0  0  0  0  0
  -25.1130  -25.4370   21.4100 H   0  0  0  0  0  0  0  0  0  0  0  0
  -24.7100  -24.8130   19.9800 H   0  0  0  0  0  0  0  0  0  0  0  0
  -26.7220  -24.9540   20.2390 C   0  0  0  0  0  2  0  0  0  0  0  0
  -27.7080  -25.4790   21.3050 C   0  0  0  0  0  2  0  0  0  0  0  0
  -28.8650  -26.2920   20.6680 C   0  0  0  0  0  2  0  0  0  0  0  0
  -28.7650  -27.7260   20.6350 O   0  0  0  0  0  0  0  0  0  0  0  0
  -24.7870  -32.5820   23.9050 C   0  0  0  0  0  0  0  0  0  0  0  0
  -27.5480  -28.3750   20.6240 C   0  0  0  0  0  0  0  0  0  0  0  0
  -23.6130  -31.2550   22.1720 C   0  0  0  0  0  3  0  0  0  0  0  0
  -25.1060  -29.8030   20.6940 C   0  0  0  0  0  0  0  0  0  0  0  0
  -26.1310  -31.6640   22.0240 C   0  0  0  0  0  2  0  0  0  0  0  0
  -26.2440  -30.3280   21.3190 C   0  0  0  0  0  0  0  0  0  0  0  0
  -27.4630  -29.6210   21.2800 C   0  0  0  0  0  3  0  0  0  0  0  0
  -26.4020  -27.8740   19.9680 C   0  0  0  0  0  3  0  0  0  0  0  0
  -25.1780  -28.5700   20.0170 C   0  0  0  0  0  3  0  0  0  0  0  0
  -23.8480  -30.6380   20.7650 C   0  0  0  0  0  2  0  0  0  0  0  0
  -24.8610  -31.8490   22.7600 N   0  0  0  0  0  0  0  0  0  0  0  0
  -23.6990  -32.8100   24.4530 O   0  0  0  0  0  0  0  0  0  0  0  0
  -22.9750  -30.1780   23.0760 C   0  0  0  0  0  0  0  0  0  0  0  0
  -21.6800  -29.9030   22.8580 N   0  0  0  0  0  0  0  0  0  0  0  0
  -23.6510  -29.5860   23.9230 O   0  0  0  0  0  0  0  0  0  0  0  0
  -21.2030  -30.4310   22.1430 H   0  0  0  0  0  0  0  0  0  0  0  0
  -18.3900  -28.4260   23.0610 C   0  0  0  0  0  0  0  0  0  0  0  0
  -20.8780  -28.9000   23.5590 C   0  0  0  0  0  3  0  0  0  0  0  0
  -21.1510  -27.4840   23.0030 C   0  0  0  0  0  2  0  0  0  0  0  0
  -20.1770  -27.0700   21.8940 C   0  0  0  0  0  2  0  0  0  0  0  0
  -18.7380  -27.0980   22.4140 C   0  0  0  0  0  2  0  0  0  0  0  0
  -19.3950  -29.2810   23.5830 C   0  0  0  0  0  0  0  0  0  0  0  0
  -19.0200  -30.5260   24.1350 C   0  0  0  0  0  3  0  0  0  0  0  0
  -17.6670  -30.9170   24.1660 C   0  0  0  0  0  3  0  0  0  0  0  0
  -16.6750  -30.0620   23.6610 C   0  0  0  0  0  3  0  0  0  0  0  0
  -17.0350  -28.8160   23.1170 C   0  0  0  0  0  3  0  0  0  0  0  0
  -26.0620  -33.1910   24.5680 C   0  0  0  0  0  3  0  0  0  0  0  0
  -26.3980  -32.5590   25.9740 C   0  0  1  0  0  0  0  0  0  0  0  0
  -25.1950  -32.5270   26.9450 C   0  0  0  0  0  1  0  0  0  0  0  0
  -26.9130  -31.1090   25.8080 C   0  0  0  0  0  1  0  0  0  0  0  0
  -27.5370  -33.3600   26.6480 C   0  0  0  0  0  1  0  0  0  0  0  0
  -25.8450  -34.6390   24.6880 N   0  0  0  0  0  0  0  0  0  0  0  0
  -26.3350  -35.5550   23.8420 C   0  0  0  0  0  0  0  0  0  0  0  0
  -27.0870  -35.2680   22.9070 O   0  0  0  0  0  0  0  0  0  0  0  0
  -25.1890  -34.9410   25.3920 H   0  0  0  0  0  0  0  0  0  0  0  0
  -24.8050  -37.4030   23.0780 C   0  0  0  0  0  1  0  0  0  0  0  0
  -25.9230  -37.0230   24.0630 C   0  0  0  0  0  3  0  0  0  0  0  0
  -28.0370  -37.8610   24.9980 C   0  0  0  0  0  1  0  0  0  0  0  0
  -27.0460  -37.9750   23.9300 N   0  0  0  0  0  0  0  0  0  0  0  0
  -26.7090  -38.9340   23.9080 H   0  0  0  0  0  0  0  0  0  0  0  0
  -25.5920  -22.2180   20.5870 C   0  0  0  0  0  2  0  0  0  0  0  0
  -24.8780  -20.9090   20.9340 C   0  0  0  0  0  2  0  0  0  0  0  0
  -25.1350  -20.0420   19.8420 O   0  0  0  0  0  0  0  0  0  0  0  0
  -25.1100  -18.6550   20.1520 C   0  0  0  0  0  2  0  0  0  0  0  0
  -25.6470  -17.8980   18.9280 C   0  0  0  0  0  2  0  0  0  0  0  0
  -27.0110  -18.4560   18.4860 C   0  0  0  0  0  2  0  0  0  0  0  0
  -28.1220  -17.4020   18.4370 C   0  0  0  0  0  2  0  0  0  0  0  0
  -29.4350  -18.0010   17.8970 C   0  0  0  0  0  2  0  0  0  0  0  0
  -30.6920  -17.5850   18.6740 C   0  0  0  0  0  2  0  0  0  0  0  0
  -31.3190  -15.5930   20.0450 C   0  0  0  0  0  0  0  0  0  0  0  0
  -31.6080  -13.4520   21.2260 C   0  0  0  0  0  2  0  0  0  0  0  0
  -31.3400  -12.2650   20.2830 C   0  0  0  0  0  2  0  0  0  0  0  0
  -29.8380  -11.9320   20.2350 C   0  0  0  0  0  2  0  0  0  0  0  0
  -28.9460  -13.1790   19.9990 C   0  0  0  0  0  3  0  0  0  0  0  0
  -29.3490  -14.3130   20.9620 C   0  0  0  0  0  2  0  0  0  0  0  0
  -30.7870  -14.5850   20.7800 N   0  0  0  0  0  0  0  0  0  0  0  0
  -32.5280  -15.7220   19.8290 O   0  0  0  0  0  0  0  0  0  0  0  0
  -30.4190  -16.4370   19.5280 N   0  0  0  0  0  0  0  0  0  0  0  0
  -29.4520  -16.2350   19.7330 H   0  0  0  0  0  0  0  0  0  0  0  0
  -26.4180  -13.5630   19.6730 C   0  0  0  0  0  0  0  0  0  0  0  0
  -25.3280  -12.7820   19.9660 C   0  0  0  0  0  0  0  0  0  0  0  0
  -25.8450  -11.6020   20.5830 C   0  0  0  0  0  0  0  0  0  0  0  0
  -27.5250  -12.8510   20.1130 N   0  0  0  0  0  0  0  0  0  0  0  0
  -27.1630  -11.6880   20.7120 N   0  0  0  0  0  0  0  0  0  0  0  0
  -25.1670  -10.3700   21.0110 C   0  0  0  0  0  0  0  0  0  0  0  0
  -24.9820  -10.0650   22.3770 C   0  0  0  0  0  3  0  0  0  0  0  0
  -24.3120   -8.8830   22.7640 C   0  0  0  0  0  3  0  0  0  0  0  0
  -23.8170   -7.9950   21.7810 C   0  0  0  0  0  0  0  0  0  0  0  0
  -24.0240   -8.2920   20.4220 C   0  0  0  0  0  3  0  0  0  0  0  0
  -24.6960   -9.4650   20.0400 C   0  0  0  0  0  3  0  0  0  0  0  0
  -23.1800   -6.8120   22.0630 O   0  0  0  0  0  0  0  0  0  0  0  0
  -22.2400   -6.7170   23.0600 C   0  0  0  0  0  0  0  0  0  0  0  0
  -21.0560   -7.4830   23.0390 C   0  0  0  0  0  3  0  0  0  0  0  0
  -20.0860   -7.3050   24.0470 C   0  0  0  0  0  3  0  0  0  0  0  0
  -20.2950   -6.3580   25.0660 C   0  0  0  0  0  0  0  0  0  0  0  0
  -21.4730   -5.5920   25.0860 C   0  0  0  0  0  3  0  0  0  0  0  0
  -22.4410   -5.7700   24.0830 C   0  0  0  0  0  0  0  0  0  0  0  0
  -23.5660   -5.0120   24.0940 F   0  0  0  0  0  0  0  0  0  0  0  0
  -19.3610   -6.1820   26.0290 F   0  0  0  0  0  0  0  0  0  0  0  0
  -23.8990  -13.0690   19.6100 C   0  0  0  0  0  0  0  0  0  0  0  0
  -22.9560  -12.6110   20.4280 N   0  0  0  0  0  0  0  0  0  0  0  0
  -23.6100  -13.7440   18.6230 O   0  0  0  0  0  0  0  0  0  0  0  0
  -23.1950  -12.0810   21.2520 H   0  0  0  0  0  0  0  0  0  0  0  0
  -21.9840  -12.8000   20.2260 H   0  0  0  0  0  0  0  0  0  0  0  0
  -26.5620  -14.8000   19.0610 N   0  0  0  0  0  0  0  0  0  0  0  0
  -25.7760  -15.3390   18.7170 H   0  0  0  0  0  0  0  0  0  0  0  0
  -27.4520  -15.2520   18.8980 H   0  0  0  0  0  0  0  0  0  0  0  0
  2  3  1  0
  2  1  1  0
  4  2  1  0
  5  2  1  0
  5  6  1  0
  7  6  1  0
  8  7  1  0
  9 20  2  0
 10  8  1  0
 10 15  1  0
 11 19  1  0
 11 21  1  0
 12 18  1  0
 12 14  1  0
 13 19  1  0
 14 13  1  0
 15 14  2  0
 16 17  1  0
 16 10  2  0
 17 12  2  0
 18 11  1  0
 19  9  1  0
 21 23  2  0
 22 21  1  0
 24 22  1  0
 25 34  2  0
 25 30  1  0
 26 22  1  0
 26 30  1  0
 27 26  1  0
 28 29  1  0
 28 27  1  0
 29 25  1  0
 30 31  2  0
 31 32  1  0
 33 32  2  0
 34 33  1  0
 35  9  1  0
 35 40  1  0
 35 36  1  0
 36 39  1  1
 36 37  1  0
 38 36  1  0
 40 43  1  0
 41 45  1  0
 41 40  1  0
 42 41  2  0
 45 44  1  0
 47 45  1  0
 47 46  1  0
 48 47  1  0
 49 50  1  0
 49  1  1  0
 51 52  1  0
 51 50  1  0
 53 52  1  0
 54 53  1  0
 55 54  1  0
 56 55  1  0
 56 57  1  0
 57 66  1  0
 58 64  1  0
 60 59  1  0
 61 60  1  0
 62 71  1  0
 62 61  1  0
 62 63  1  0
 64 63  1  0
 64 59  1  0
 65 58  2  0
 66 67  1  0
 66 58  1  0
 68 69  2  0
 68 71  1  0
 69 70  1  0
 70 72  2  0
 70 73  1  0
 71 72  1  0
 73 74  1  0
 74 75  2  0
 76 79  1  0
 76 75  1  0
 77 76  2  0
 78 77  1  0
 78 73  2  0
 79 80  1  0
 80 85  1  0
 81 80  2  0
 81 82  1  0
 82 83  2  0
 83 84  1  0
 83 87  1  0
 85 86  1  0
 85 84  2  0
 88 69  1  0
 88 89  1  0
 89 91  1  0
 90 88  2  0
 92 89  1  0
 93 68  1  0
 94 93  1  0
 95 93  1  0
M  ISO  4   7 101   8 101  58 100  66 100
M  END
>  <TORSDO>  (88) 
F 29

>  <SCORE>  (88) 
5.373

>  <name>  (88) 
88

>  <ligand_id>  (88) 
88

>  <original_smiles>  (88) 
[H]c1c([H])c([H])c2c(c1[H])C([H])([H])C([H])([H])C([H])([H])C2([H])N([H])C(=O)C1([H])N(C(=O)C([H])(N([H])C(=O)C([H])(N([H])C([H])([H])[H])C([H])([H])[H])C(C([H])([H])[H])(C([H])([H])[H])C([H])([H])[H])C([H])([H])c2c([H])c(OC([H])([H])C([H])([H])C([H])([H])[N+]([H])([H])C([H])([H])C([H])([H])C([H])([H])OC([H])([H])C([H])([H])C([H])([H])C([H])([H])C([H])([H])C([H])([H])N([H])C(=O)N3C([H])([H])C([H])([H])C([H])([H])C([H])(n4nc(-c5c([H])c([H])c(Oc6c([H])c([H])c(F)c([H])c6F)c([H])c5[H])c(C(=O)N([H])[H])c4N([H])[H])C3([H])[H])c([H])c([H])c2C1([H])[H]

>  <smiles>  (88) 
[H]c1c([H])c([H])c2c(c1[H])C([H])([H])C([H])([H])C([H])([H])C2([H])N([H])C(=O)C1([H])N(C(=O)C([H])(N([H])C(=O)C([H])(N([H])C([H])([H])[H])C([H])([H])[H])C(C([H])([H])[H])(C([H])([H])[H])C([H])([H])[H])C([H])([H])c2c([H])c(OC([H])([H])C([H])([H])C([H])([H])[N+]([H])([H])C([H])([H])C([H])([H])C([H])([H])OC([H])([H])C([H])([H])C([H])([H])C([H])([H])C([H])([H])C([H])([H])N([H])C(=O)N3C([H])([H])C([H])([H])C([H])([H])C([H])(n4nc(-c5c([H])c([H])c(Oc6c([H])c([H])c(F)c([H])c6F)c([H])c5[H])c(C(=O)N([H])[H])c4N([H])[H])C3([H])[H])c([H])c([H])c2C1([H])[H]

$$$$
89:0:0
     RDKit          3D

 94101  0  0  1  0  0  0  0  0999 V2000
  -31.2630  -23.5420   18.5740 C   0  0  0  0  0  2  0  0  0  0  0  0
  -31.9940  -24.8580   18.9200 C   0  0  0  0  0  2  0  0  0  0  0  0
  -31.0750  -25.9850   19.2030 N   0  0  0  0  0  4  0  0  0  0  0  0
  -30.2350  -25.8930   18.6530 H   0  0  0  0  0  0  0  0  0  0  0  0
  -31.5330  -26.8250   18.8810 H   0  0  0  0  0  0  0  0  0  0  0  0
  -30.7170  -26.1880   20.6260 C   0  0  0  0  0  2  0  0  0  0  0  0
  -29.5860  -27.2090   20.7720 C   0  0  0  0  0  2  0  0  0  0  0  0
  -28.4310  -26.7120   20.0890 O   0  0  0  0  0  0  0  0  0  0  0  0
  -24.6260  -31.8970   23.1880 C   0  0  0  0  0  0  0  0  0  0  0  0
  -27.2770  -27.4660   20.1450 C   0  0  0  0  0  0  0  0  0  0  0  0
  -23.4000  -30.4720   21.5700 C   0  0  0  0  0  3  0  0  0  0  0  0
  -24.8460  -28.9170   20.1540 C   0  0  0  0  0  0  0  0  0  0  0  0
  -25.9120  -30.8480   21.3390 C   0  0  0  0  0  2  0  0  0  0  0  0
  -25.9970  -29.4680   20.7270 C   0  0  0  0  0  0  0  0  0  0  0  0
  -27.2060  -28.7510   20.7310 C   0  0  0  0  0  3  0  0  0  0  0  0
  -26.1090  -26.9210   19.5680 C   0  0  0  0  0  3  0  0  0  0  0  0
  -24.8940  -27.6360   19.5760 C   0  0  0  0  0  3  0  0  0  0  0  0
  -23.5970  -29.7660   20.1980 C   0  0  0  0  0  2  0  0  0  0  0  0
  -24.6640  -31.0880   22.0920 N   0  0  0  0  0  0  0  0  0  0  0  0
  -23.5520  -32.1750   23.7400 O   0  0  0  0  0  0  0  0  0  0  0  0
  -22.7610  -29.4650   22.5500 C   0  0  0  0  0  0  0  0  0  0  0  0
  -21.4350  -29.2850   22.4430 N   0  0  0  0  0  0  0  0  0  0  0  0
  -23.4550  -28.8450   23.3600 O   0  0  0  0  0  0  0  0  0  0  0  0
  -20.9370  -29.8410   21.7630 H   0  0  0  0  0  0  0  0  0  0  0  0
  -18.0650  -28.1120   22.9860 C   0  0  0  0  0  0  0  0  0  0  0  0
  -20.6250  -28.3580   23.2300 C   0  0  0  0  0  3  0  0  0  0  0  0
  -20.7150  -26.9210   22.6660 C   0  0  0  0  0  2  0  0  0  0  0  0
  -19.6020  -26.5960   21.6660 C   0  0  0  0  0  2  0  0  0  0  0  0
  -18.2280  -26.7540   22.3220 C   0  0  0  0  0  2  0  0  0  0  0  0
  -19.1910  -28.8730   23.3970 C   0  0  0  0  0  0  0  0  0  0  0  0
  -18.9850  -30.1450   23.9720 C   0  0  0  0  0  3  0  0  0  0  0  0
  -17.6860  -30.6550   24.1450 C   0  0  0  0  0  3  0  0  0  0  0  0
  -16.5730  -29.8910   23.7530 C   0  0  0  0  0  3  0  0  0  0  0  0
  -16.7640  -28.6220   23.1780 C   0  0  0  0  0  3  0  0  0  0  0  0
  -25.9230  -32.5290   23.7840 C   0  0  0  0  0  3  0  0  0  0  0  0
  -26.4870  -31.7380   25.0260 C   0  0  1  0  0  0  0  0  0  0  0  0
  -25.4270  -31.4590   26.1160 C   0  0  0  0  0  1  0  0  0  0  0  0
  -27.0870  -30.3810   24.5830 C   0  0  0  0  0  1  0  0  0  0  0  0
  -27.6400  -32.5370   25.6780 C   0  0  0  0  0  1  0  0  0  0  0  0
  -25.6110  -33.9160   24.1470 N   0  0  0  0  0  0  0  0  0  0  0  0
  -25.9150  -34.9850   23.3980 C   0  0  0  0  0  0  0  0  0  0  0  0
  -26.5600  -34.9070   22.3470 O   0  0  0  0  0  0  0  0  0  0  0  0
  -25.0370  -34.0500   24.9680 H   0  0  0  0  0  0  0  0  0  0  0  0
  -24.1560  -36.7590   23.1160 C   0  0  0  0  0  1  0  0  0  0  0  0
  -25.4220  -36.3580   23.8910 C   0  0  0  0  0  3  0  0  0  0  0  0
  -27.5690  -37.2530   24.6770 C   0  0  0  0  0  1  0  0  0  0  0  0
  -26.4380  -37.4260   23.7680 N   0  0  0  0  0  0  0  0  0  0  0  0
  -26.0250  -38.3370   23.9450 H   0  0  0  0  0  0  0  0  0  0  0  0
  -30.7280  -22.7610   19.7920 C   0  0  0  0  0  2  0  0  0  0  0  0
  -30.0500  -21.5170   19.3910 N   0  0  0  0  0  4  0  0  0  0  0  0
  -29.1690  -21.7350   18.9470 H   0  0  0  0  0  0  0  0  0  0  0  0
  -30.6300  -21.0580   18.7080 H   0  0  0  0  0  0  0  0  0  0  0  0
  -29.8120  -20.5500   20.4800 C   0  0  0  0  0  2  0  0  0  0  0  0
  -29.6310  -19.1590   19.8600 C   0  0  0  0  0  2  0  0  0  0  0  0
  -29.6470  -17.9700   20.8320 C   0  0  0  0  0  2  0  0  0  0  0  0
  -29.7500  -16.6810   20.0040 C   0  0  0  0  0  2  0  0  0  0  0  0
  -30.6070  -14.4330   20.4430 C   0  0  0  0  0  0  0  0  0  0  0  0
  -30.3190  -12.2760   19.3230 C   0  0  0  0  0  2  0  0  0  0  0  0
  -29.3760  -12.5220   18.1240 C   0  0  0  0  0  2  0  0  0  0  0  0
  -27.9000  -12.3970   18.5600 C   0  0  0  0  0  2  0  0  0  0  0  0
  -27.5780  -13.2190   19.8380 C   0  0  0  0  0  3  0  0  0  0  0  0
  -28.6380  -12.9560   20.9370 C   0  0  0  0  0  2  0  0  0  0  0  0
  -29.9660  -13.2410   20.3700 N   0  0  0  0  0  0  0  0  0  0  0  0
  -31.7310  -14.6340   19.9660 O   0  0  0  0  0  0  0  0  0  0  0  0
  -29.8090  -15.4520   20.7930 N   0  0  0  0  0  0  0  0  0  0  0  0
  -28.9490  -15.1870   21.2510 H   0  0  0  0  0  0  0  0  0  0  0  0
  -25.1880  -13.8420   20.5690 C   0  0  0  0  0  0  0  0  0  0  0  0
  -24.1200  -13.0720   20.9460 C   0  0  0  0  0  0  0  0  0  0  0  0
  -24.5760  -11.7200   20.9100 C   0  0  0  0  0  0  0  0  0  0  0  0
  -26.2270  -12.9550   20.3240 N   0  0  0  0  0  0  0  0  0  0  0  0
  -25.8620  -11.6750   20.5850 N   0  0  0  0  0  0  0  0  0  0  0  0
  -23.8500  -10.4590   21.1080 C   0  0  0  0  0  0  0  0  0  0  0  0
  -24.3120   -9.4720   22.0070 C   0  0  0  0  0  3  0  0  0  0  0  0
  -23.5840   -8.2780   22.1930 C   0  0  0  0  0  3  0  0  0  0  0  0
  -22.3800   -8.0610   21.4810 C   0  0  0  0  0  0  0  0  0  0  0  0
  -21.9370   -9.0370   20.5710 C   0  0  0  0  0  3  0  0  0  0  0  0
  -22.6660  -10.2230   20.3830 C   0  0  0  0  0  3  0  0  0  0  0  0
  -21.6230   -6.9180   21.5770 O   0  0  0  0  0  0  0  0  0  0  0  0
  -21.6420   -6.1360   22.7050 C   0  0  0  0  0  0  0  0  0  0  0  0
  -21.3280   -6.6590   23.9790 C   0  0  0  0  0  3  0  0  0  0  0  0
  -21.2880   -5.8050   25.1000 C   0  0  0  0  0  3  0  0  0  0  0  0
  -21.5540   -4.4320   24.9480 C   0  0  0  0  0  0  0  0  0  0  0  0
  -21.8620   -3.9080   23.6800 C   0  0  0  0  0  3  0  0  0  0  0  0
  -21.9030   -4.7580   22.5610 C   0  0  0  0  0  0  0  0  0  0  0  0
  -22.1800   -4.2470   21.3370 F   0  0  0  0  0  0  0  0  0  0  0  0
  -21.5090   -3.6090   26.0220 F   0  0  0  0  0  0  0  0  0  0  0  0
  -22.7280  -13.5540   21.2370 C   0  0  0  0  0  0  0  0  0  0  0  0
  -22.0100  -12.8640   22.1150 N   0  0  0  0  0  0  0  0  0  0  0  0
  -22.2860  -14.5780   20.7180 O   0  0  0  0  0  0  0  0  0  0  0  0
  -22.3790  -12.0360   22.5590 H   0  0  0  0  0  0  0  0  0  0  0  0
  -21.0770  -13.1730   22.3490 H   0  0  0  0  0  0  0  0  0  0  0  0
  -25.3520  -15.2130   20.3950 N   0  0  0  0  0  0  0  0  0  0  0  0
  -24.5820  -15.8630   20.5210 H   0  0  0  0  0  0  0  0  0  0  0  0
  -26.1940  -15.6610   20.0580 H   0  0  0  0  0  0  0  0  0  0  0  0
  1  2  1  0
  1 49  1  0
  2  3  1  0
  3  6  1  0
  4  3  1  0
  5  3  1  0
  6  7  1  0
  8 10  1  0
  8  7  1  0
  9 20  2  0
 10 15  1  0
 11 19  1  0
 11 21  1  0
 12 18  1  0
 12 14  1  0
 13 19  1  0
 14 15  2  0
 14 13  1  0
 16 17  1  0
 16 10  2  0
 17 12  2  0
 18 11  1  0
 19  9  1  0
 21 23  2  0
 22 21  1  0
 24 22  1  0
 25 34  2  0
 25 30  1  0
 26 22  1  0
 26 30  1  0
 27 26  1  0
 28 29  1  0
 28 27  1  0
 29 25  1  0
 30 31  2  0
 31 32  1  0
 33 32  2  0
 34 33  1  0
 35  9  1  0
 35 40  1  0
 35 36  1  0
 36 39  1  1
 36 37  1  0
 38 36  1  0
 40 43  1  0
 41 45  1  0
 41 40  1  0
 42 41  2  0
 45 44  1  0
 47 45  1  0
 47 48  1  0
 47 46  1  0
 50 49  1  0
 50 53  1  0
 51 50  1  0
 52 50  1  0
 54 53  1  0
 54 55  1  0
 56 65  1  0
 56 55  1  0
 57 65  1  0
 58 63  1  0
 59 60  1  0
 59 58  1  0
 61 60  1  0
 61 70  1  0
 61 62  1  0
 63 57  1  0
 63 62  1  0
 64 57  2  0
 65 66  1  0
 67 68  2  0
 68 87  1  0
 69 68  1  0
 69 72  1  0
 70 67  1  0
 70 71  1  0
 71 69  2  0
 72 73  1  0
 73 74  2  0
 75 78  1  0
 75 74  1  0
 76 75  2  0
 77 76  1  0
 77 72  2  0
 78 79  1  0
 79 80  1  0
 80 81  2  0
 82 81  1  0
 82 86  1  0
 83 82  2  0
 84 79  2  0
 84 83  1  0
 85 84  1  0
 87 88  1  0
 88 91  1  0
 88 90  1  0
 89 87  2  0
 92 93  1  0
 92 67  1  0
 94 92  1  0
M  ISO  4   7 101   8 101  57 100  65 100
M  END
>  <TORSDO>  (89) 
F 26

>  <SCORE>  (89) 
-11.668

>  <name>  (89) 
89

>  <ligand_id>  (89) 
89

>  <original_smiles>  (89) 
[H]c1c([H])c([H])c2c(c1[H])C([H])([H])C([H])([H])C([H])([H])C2([H])N([H])C(=O)C1([H])N(C(=O)C([H])(N([H])C(=O)C([H])(N([H])C([H])([H])[H])C([H])([H])[H])C(C([H])([H])[H])(C([H])([H])[H])C([H])([H])[H])C([H])([H])c2c([H])c(OC([H])([H])C([H])([H])[N+]([H])([H])C([H])([H])C([H])([H])C([H])([H])[N+]([H])([H])C([H])([H])C([H])([H])C([H])([H])C([H])([H])N([H])C(=O)N3C([H])([H])C([H])([H])C([H])([H])C([H])(n4nc(-c5c([H])c([H])c(Oc6c([H])c([H])c(F)c([H])c6F)c([H])c5[H])c(C(=O)N([H])[H])c4N([H])[H])C3([H])[H])c([H])c([H])c2C1([H])[H]

>  <smiles>  (89) 
[H]c1c([H])c([H])c2c(c1[H])C([H])([H])C([H])([H])C([H])([H])C2([H])N([H])C(=O)C1([H])N(C(=O)C([H])(N([H])C(=O)C([H])(N([H])C([H])([H])[H])C([H])([H])[H])C(C([H])([H])[H])(C([H])([H])[H])C([H])([H])[H])C([H])([H])c2c([H])c(OC([H])([H])C([H])([H])[N+]([H])([H])C([H])([H])C([H])([H])C([H])([H])[N+]([H])([H])C([H])([H])C([H])([H])C([H])([H])C([H])([H])N([H])C(=O)N3C([H])([H])C([H])([H])C([H])([H])C([H])(n4nc(-c5c([H])c([H])c(Oc6c([H])c([H])c(F)c([H])c6F)c([H])c5[H])c(C(=O)N([H])[H])c4N([H])[H])C3([H])[H])c([H])c([H])c2C1([H])[H]

$$$$
90:0:0
     RDKit          3D

104111  0  0  1  0  0  0  0  0999 V2000
  -30.7010  -17.0900   22.7380 C   0  0  0  0  0  0  0  0  0  0  0  0
  -31.4170  -18.0160   23.3790 N   0  0  0  0  0  0  0  0  0  0  0  0
  -29.7000  -16.5550   23.2210 O   0  0  0  0  0  0  0  0  0  0  0  0
  -32.2470  -18.3670   22.9180 H   0  0  0  0  0  0  0  0  0  0  0  0
  -31.1340  -16.7640   21.3070 C   0  0  0  0  0  3  0  0  0  0  0  0
  -30.8700  -14.7440   19.8780 C   0  0  0  0  0  0  0  0  0  0  0  0
  -30.4640  -12.6330   18.6800 C   0  0  0  0  0  2  0  0  0  0  0  0
  -29.4280  -12.8200   17.5560 C   0  0  0  0  0  2  0  0  0  0  0  0
  -27.9970  -12.6520   18.1000 C   0  0  0  0  0  2  0  0  0  0  0  0
  -27.7420  -13.4970   19.3760 C   0  0  0  0  0  3  0  0  0  0  0  0
  -28.8760  -13.2910   20.4030 C   0  0  0  0  0  2  0  0  0  0  0  0
  -30.1620  -13.5950   19.7470 N   0  0  0  0  0  0  0  0  0  0  0  0
  -31.8240  -15.0470   19.1570 O   0  0  0  0  0  0  0  0  0  0  0  0
  -30.4760  -15.5380   20.8740 N   0  0  0  0  0  0  0  0  0  0  0  0
  -29.7280  -15.2130   21.4720 H   0  0  0  0  0  0  0  0  0  0  0  0
  -25.4250  -14.0760   20.3420 C   0  0  0  0  0  0  0  0  0  0  0  0
  -24.3830  -13.2880   20.7520 C   0  0  0  0  0  0  0  0  0  0  0  0
  -24.8160  -11.9390   20.5750 C   0  0  0  0  0  0  0  0  0  0  0  0
  -26.4310  -13.2050   19.9520 N   0  0  0  0  0  0  0  0  0  0  0  0
  -26.0710  -11.9100   20.1440 N   0  0  0  0  0  0  0  0  0  0  0  0
  -24.0900  -10.6710   20.7370 C   0  0  0  0  0  0  0  0  0  0  0  0
  -24.5620   -9.6550   21.5970 C   0  0  0  0  0  3  0  0  0  0  0  0
  -23.8370   -8.4530   21.7490 C   0  0  0  0  0  3  0  0  0  0  0  0
  -22.6270   -8.2600   21.0420 C   0  0  0  0  0  0  0  0  0  0  0  0
  -22.1750   -9.2660   20.1700 C   0  0  0  0  0  3  0  0  0  0  0  0
  -22.8990  -10.4600   20.0160 C   0  0  0  0  0  3  0  0  0  0  0  0
  -21.8710   -7.1160   21.1090 O   0  0  0  0  0  0  0  0  0  0  0  0
  -21.8220   -6.3500   22.2460 C   0  0  0  0  0  0  0  0  0  0  0  0
  -21.3830   -6.8760   23.4820 C   0  0  0  0  0  3  0  0  0  0  0  0
  -21.2830   -6.0360   24.6090 C   0  0  0  0  0  3  0  0  0  0  0  0
  -21.6110   -4.6710   24.5010 C   0  0  0  0  0  0  0  0  0  0  0  0
  -22.0420   -4.1450   23.2710 C   0  0  0  0  0  3  0  0  0  0  0  0
  -22.1440   -4.9820   22.1470 C   0  0  0  0  0  0  0  0  0  0  0  0
  -22.5400   -4.4640   20.9590 F   0  0  0  0  0  0  0  0  0  0  0  0
  -21.5070   -3.8620   25.5810 F   0  0  0  0  0  0  0  0  0  0  0  0
  -23.0250  -13.7550   21.1920 C   0  0  0  0  0  0  0  0  0  0  0  0
  -22.3780  -13.0090   22.0810 N   0  0  0  0  0  0  0  0  0  0  0  0
  -22.5510  -14.8150   20.7840 O   0  0  0  0  0  0  0  0  0  0  0  0
  -22.7770  -12.1490   22.4300 H   0  0  0  0  0  0  0  0  0  0  0  0
  -21.4710  -13.3000   22.4160 H   0  0  0  0  0  0  0  0  0  0  0  0
  -25.5950  -15.4540   20.2500 N   0  0  0  0  0  0  0  0  0  0  0  0
  -24.8490  -16.1050   20.4680 H   0  0  0  0  0  0  0  0  0  0  0  0
  -26.4120  -15.9020   19.8560 H   0  0  0  0  0  0  0  0  0  0  0  0
  -30.9100  -17.9200   20.2960 C   0  0  0  0  0  2  0  0  0  0  0  0
  -29.4560  -18.4370   20.2090 C   0  0  0  0  0  2  0  0  0  0  0  0
  -29.3280  -19.5930   19.2970 N   0  0  0  0  0  4  0  0  0  0  0  0
  -29.5370  -19.2990   18.3560 H   0  0  0  0  0  0  0  0  0  0  0  0
  -30.0050  -20.2950   19.5540 H   0  0  0  0  0  0  0  0  0  0  0  0
  -27.9890  -20.2160   19.3040 C   0  0  0  0  0  2  0  0  0  0  0  0
  -27.9580  -21.4940   18.4460 C   0  0  0  0  0  2  0  0  0  0  0  0
  -26.6740  -23.4000   17.8040 C   0  0  0  0  0  1  0  0  0  0  0  0
  -26.6520  -22.1390   18.5350 N   0  0  0  0  0  0  0  0  0  0  0  0
  -25.9430  -21.5310   18.1260 H   0  0  0  0  0  0  0  0  0  0  0  0
  -31.0360  -18.6680   24.6280 C   0  0  0  0  0  2  0  0  0  0  0  0
  -29.9990  -19.7830   24.3860 C   0  0  0  0  0  2  0  0  0  0  0  0
  -30.5100  -20.9140   23.4720 C   0  0  0  0  0  2  0  0  0  0  0  0
  -29.5090  -22.0660   23.3250 C   0  0  0  0  0  2  0  0  0  0  0  0
  -29.9930  -23.1200   22.3180 C   0  0  0  0  0  2  0  0  0  0  0  0
  -29.0400  -24.3170   22.2180 C   0  0  0  0  0  2  0  0  0  0  0  0
  -29.5140  -25.3630   21.1990 C   0  0  0  0  0  2  0  0  0  0  0  0
  -28.7320  -26.6750   21.3360 C   0  0  0  0  0  2  0  0  0  0  0  0
  -29.1850  -27.6540   20.3570 N   0  0  0  0  0  0  0  0  0  0  0  0
  -28.9610  -28.5770   20.7170 H   0  0  0  0  0  0  0  0  0  0  0  0
  -28.3400  -27.5090   19.1900 O   0  0  0  0  0  0  0  0  0  0  0  0
  -24.4070  -31.9880   23.0710 C   0  0  0  0  0  0  0  0  0  0  0  0
  -27.1300  -28.1350   19.3800 C   0  0  0  0  0  0  0  0  0  0  0  0
  -23.1660  -30.6010   21.4350 C   0  0  0  0  0  3  0  0  0  0  0  0
  -24.6030  -29.3360   19.7510 C   0  0  0  0  0  0  0  0  0  0  0  0
  -25.6010  -31.2510   21.0160 C   0  0  0  0  0  2  0  0  0  0  0  0
  -25.7530  -29.9520   20.2580 C   0  0  0  0  0  0  0  0  0  0  0  0
  -27.0190  -29.3700   20.0600 C   0  0  0  0  0  3  0  0  0  0  0  0
  -25.9670  -27.5190   18.8770 C   0  0  0  0  0  3  0  0  0  0  0  0
  -24.7030  -28.1160   19.0550 C   0  0  0  0  0  3  0  0  0  0  0  0
  -23.2920  -30.0470   19.9890 C   0  0  0  0  0  2  0  0  0  0  0  0
  -24.4140  -31.2900   21.9000 N   0  0  0  0  0  0  0  0  0  0  0  0
  -23.3700  -32.1040   23.7390 O   0  0  0  0  0  0  0  0  0  0  0  0
  -22.7210  -29.4500   22.3620 C   0  0  0  0  0  0  0  0  0  0  0  0
  -21.4220  -29.1120   22.3100 N   0  0  0  0  0  0  0  0  0  0  0  0
  -23.5350  -28.8650   23.0820 O   0  0  0  0  0  0  0  0  0  0  0  0
  -20.8180  -29.6450   21.7000 H   0  0  0  0  0  0  0  0  0  0  0  0
  -18.2860  -27.4120   22.8590 C   0  0  0  0  0  0  0  0  0  0  0  0
  -20.7850  -28.0330   23.0630 C   0  0  0  0  0  3  0  0  0  0  0  0
  -21.0750  -26.6580   22.4170 C   0  0  0  0  0  2  0  0  0  0  0  0
  -19.9950  -26.2180   21.4240 C   0  0  0  0  0  2  0  0  0  0  0  0
  -18.6320  -26.1320   22.1170 C   0  0  0  0  0  2  0  0  0  0  0  0
  -19.2950  -28.3120   23.2890 C   0  0  0  0  0  0  0  0  0  0  0  0
  -18.9170  -29.5060   23.9420 C   0  0  0  0  0  3  0  0  0  0  0  0
  -17.5600  -29.8040   24.1690 C   0  0  0  0  0  3  0  0  0  0  0  0
  -16.5650  -28.9030   23.7550 C   0  0  0  0  0  3  0  0  0  0  0  0
  -16.9280  -27.7080   23.1070 C   0  0  0  0  0  3  0  0  0  0  0  0
  -25.6890  -32.6920   23.6160 C   0  0  0  0  0  3  0  0  0  0  0  0
  -26.3320  -31.9480   24.8500 C   0  0  1  0  0  0  0  0  0  0  0  0
  -25.3280  -31.6530   25.9880 C   0  0  0  0  0  1  0  0  0  0  0  0
  -26.9580  -30.6040   24.4090 C   0  0  0  0  0  1  0  0  0  0  0  0
  -27.4800  -32.8030   25.4380 C   0  0  0  0  0  1  0  0  0  0  0  0
  -25.3210  -34.0680   23.9690 N   0  0  0  0  0  0  0  0  0  0  0  0
  -25.5620  -35.1400   23.2010 C   0  0  0  0  0  0  0  0  0  0  0  0
  -26.1890  -35.0780   22.1400 O   0  0  0  0  0  0  0  0  0  0  0  0
  -24.7550  -34.1870   24.7960 H   0  0  0  0  0  0  0  0  0  0  0  0
  -23.7210  -36.8310   22.9350 C   0  0  0  0  0  1  0  0  0  0  0  0
  -25.0180  -36.4960   23.6870 C   0  0  0  0  0  3  0  0  0  0  0  0
  -27.1370  -37.4960   24.4240 C   0  0  0  0  0  1  0  0  0  0  0  0
  -25.9830  -37.6060   23.5330 N   0  0  0  0  0  0  0  0  0  0  0  0
  -25.5330  -38.5000   23.7070 H   0  0  0  0  0  0  0  0  0  0  0  0
  1  3  2  0
  1  2  1  0
  2 54  1  0
  4  2  1  0
  5 44  1  0
  5  1  1  0
  6 14  1  0
  7 12  1  0
  8  9  1  0
  8  7  1  0
 10  9  1  0
 10 19  1  0
 10 11  1  0
 12  6  1  0
 12 11  1  0
 13  6  2  0
 14  5  1  0
 14 15  1  0
 16 17  2  0
 17 36  1  0
 18 21  1  0
 18 17  1  0
 19 20  1  0
 19 16  1  0
 20 18  2  0
 21 22  1  0
 22 23  2  0
 24 27  1  0
 24 23  1  0
 25 24  2  0
 26 25  1  0
 26 21  2  0
 27 28  1  0
 28 29  1  0
 29 30  2  0
 31 30  1  0
 31 35  1  0
 32 31  2  0
 33 28  2  0
 33 32  1  0
 34 33  1  0
 36 37  1  0
 37 40  1  0
 37 39  1  0
 38 36  2  0
 41 16  1  0
 41 42  1  0
 43 41  1  0
 45 44  1  0
 46 49  1  0
 46 48  1  0
 46 45  1  0
 47 46  1  0
 50 52  1  0
 50 49  1  0
 51 52  1  0
 53 52  1  0
 55 54  1  0
 56 55  1  0
 57 56  1  0
 58 57  1  0
 59 58  1  0
 60 61  1  0
 60 59  1  0
 62 63  1  0
 62 61  1  0
 64 66  1  0
 64 62  1  0
 65 76  2  0
 66 71  1  0
 67 75  1  0
 67 77  1  0
 68 74  1  0
 68 70  1  0
 69 75  1  0
 70 69  1  0
 71 70  2  0
 72 73  1  0
 72 66  2  0
 73 68  2  0
 74 67  1  0
 75 65  1  0
 77 79  2  0
 78 77  1  0
 80 78  1  0
 81 90  2  0
 81 86  1  0
 82 78  1  0
 82 86  1  0
 83 82  1  0
 84 85  1  0
 84 83  1  0
 85 81  1  0
 86 87  2  0
 87 88  1  0
 89 88  2  0
 90 89  1  0
 91 65  1  0
 91 96  1  0
 91 92  1  0
 92 95  1  1
 92 93  1  0
 94 92  1  0
 96 99  1  0
 97101  1  0
 97 96  1  0
 98 97  2  0
101100  1  0
103101  1  0
103104  1  0
103102  1  0
M  ISO  4   6 100  14 100  62 101  64 101
M  END
>  <TORSDO>  (90) 
F 32

>  <SCORE>  (90) 
-6.098

>  <name>  (90) 
90

>  <ligand_id>  (90) 
90

>  <original_smiles>  (90) 
[H]c1c([H])c([H])c2c(c1[H])C([H])([H])C([H])([H])C([H])([H])C2([H])N([H])C(=O)C1([H])N(C(=O)C([H])(N([H])C(=O)C([H])(N([H])C([H])([H])[H])C([H])([H])[H])C(C([H])([H])[H])(C([H])([H])[H])C([H])([H])[H])C([H])([H])c2c([H])c(ON([H])C([H])([H])C([H])([H])C([H])([H])C([H])([H])C([H])([H])C([H])([H])C([H])([H])C([H])([H])N([H])C(=O)C([H])(N([H])C(=O)N3C([H])([H])C([H])([H])C([H])([H])C([H])(n4nc(-c5c([H])c([H])c(Oc6c([H])c([H])c(F)c([H])c6F)c([H])c5[H])c(C(=O)N([H])[H])c4N([H])[H])C3([H])[H])C([H])([H])C([H])([H])[N+]([H])([H])C([H])([H])C([H])([H])N([H])C([H])([H])[H])c([H])c([H])c2C1([H])[H]

>  <smiles>  (90) 
[H]c1c([H])c([H])c2c(c1[H])C([H])([H])C([H])([H])C([H])([H])C2([H])N([H])C(=O)C1([H])N(C(=O)C([H])(N([H])C(=O)C([H])(N([H])C([H])([H])[H])C([H])([H])[H])C(C([H])([H])[H])(C([H])([H])[H])C([H])([H])[H])C([H])([H])c2c([H])c(ON([H])C([H])([H])C([H])([H])C([H])([H])C([H])([H])C([H])([H])C([H])([H])C([H])([H])C([H])([H])N([H])C(=O)C([H])(N([H])C(=O)N3C([H])([H])C([H])([H])C([H])([H])C([H])(n4nc(-c5c([H])c([H])c(Oc6c([H])c([H])c(F)c([H])c6F)c([H])c5[H])c(C(=O)N([H])[H])c4N([H])[H])C3([H])[H])C([H])([H])C([H])([H])[N+]([H])([H])C([H])([H])C([H])([H])N([H])C([H])([H])[H])c([H])c([H])c2C1([H])[H]

$$$$
92:0:0
     RDKit          3D

 99107  0  0  1  0  0  0  0  0999 V2000
  -28.7920  -23.0750   24.6580 C   0  0  0  0  0  3  0  0  0  0  0  0
  -28.5380  -21.9360   23.8720 C   0  0  0  0  0  3  0  0  0  0  0  0
  -29.7810  -23.9950   24.2700 C   0  0  0  0  0  3  0  0  0  0  0  0
  -30.2700  -22.6370   22.3060 C   0  0  0  0  0  3  0  0  0  0  0  0
  -29.2750  -21.7050   22.6940 C   0  0  0  0  0  0  0  0  0  0  0  0
  -30.5270  -23.7880   23.0870 C   0  0  0  0  0  0  0  0  0  0  0  0
  -31.5190  -24.6950   22.6830 N   0  0  0  0  0  0  0  0  0  0  0  0
  -32.0330  -24.4400   21.8430 H   0  0  0  0  0  0  0  0  0  0  0  0
  -31.1890  -26.1140   22.7840 C   0  0  0  0  0  2  0  0  0  0  0  0
  -32.2120  -27.0120   22.0630 C   0  0  0  0  0  2  0  0  0  0  0  0
  -31.8470  -28.3890   22.1890 O   0  0  0  0  0  0  0  0  0  0  0  0
  -26.1880  -31.7840   24.8000 C   0  0  0  0  0  0  0  0  0  0  0  0
  -30.5260  -28.7220   21.9900 C   0  0  0  0  0  0  0  0  0  0  0  0
  -25.7610  -30.3510   22.8280 C   0  0  0  0  0  3  0  0  0  0  0  0
  -27.8310  -29.4820   21.6240 C   0  0  0  0  0  0  0  0  0  0  0  0
  -28.0590  -31.4120   23.1990 C   0  0  0  0  0  2  0  0  0  0  0  0
  -28.6560  -30.2220   22.4800 C   0  0  0  0  0  0  0  0  0  0  0  0
  -30.0060  -29.8500   22.6580 C   0  0  0  0  0  3  0  0  0  0  0  0
  -29.6820  -27.9840   21.1290 C   0  0  0  0  0  3  0  0  0  0  0  0
  -28.3370  -28.3590   20.9480 C   0  0  0  0  0  3  0  0  0  0  0  0
  -26.4020  -29.9540   21.4720 C   0  0  0  0  0  2  0  0  0  0  0  0
  -26.6720  -31.1920   23.6720 N   0  0  0  0  0  0  0  0  0  0  0  0
  -24.9970  -31.6740   25.1200 O   0  0  0  0  0  0  0  0  0  0  0  0
  -25.2810  -29.0670   23.5420 C   0  0  0  0  0  0  0  0  0  0  0  0
  -24.2040  -28.4600   23.0160 N   0  0  0  0  0  0  0  0  0  0  0  0
  -25.8840  -28.6250   24.5220 O   0  0  0  0  0  0  0  0  0  0  0  0
  -23.7600  -28.8910   22.2170 H   0  0  0  0  0  0  0  0  0  0  0  0
  -21.5480  -26.0920   22.3950 C   0  0  0  0  0  0  0  0  0  0  0  0
  -23.5970  -27.2190   23.4960 C   0  0  0  0  0  3  0  0  0  0  0  0
  -24.4020  -25.9870   23.0230 C   0  0  0  0  0  2  0  0  0  0  0  0
  -23.8830  -25.3950   21.7090 C   0  0  0  0  0  2  0  0  0  0  0  0
  -22.4190  -24.9710   21.8530 C   0  0  0  0  0  2  0  0  0  0  0  0
  -22.1050  -27.1560   23.1530 C   0  0  0  0  0  0  0  0  0  0  0  0
  -21.2590  -28.1920   23.6030 C   0  0  0  0  0  3  0  0  0  0  0  0
  -19.8820  -28.1760   23.3110 C   0  0  0  0  0  3  0  0  0  0  0  0
  -19.3330  -27.1110   22.5760 C   0  0  0  0  0  3  0  0  0  0  0  0
  -20.1640  -26.0710   22.1220 C   0  0  0  0  0  3  0  0  0  0  0  0
  -27.1020  -32.6460   25.7280 C   0  0  0  0  0  3  0  0  0  0  0  0
  -27.3180  -32.0080   27.1540 C   0  0  1  0  0  0  0  0  0  0  0  0
  -26.0070  -31.5640   27.8430 C   0  0  0  0  0  1  0  0  0  0  0  0
  -28.2470  -30.7750   27.0660 C   0  0  0  0  0  1  0  0  0  0  0  0
  -28.0240  -33.0250   28.0820 C   0  0  0  0  0  1  0  0  0  0  0  0
  -26.4880  -33.9750   25.8400 N   0  0  0  0  0  0  0  0  0  0  0  0
  -26.8610  -35.0470   25.1300 C   0  0  0  0  0  0  0  0  0  0  0  0
  -27.8200  -35.0360   24.3550 O   0  0  0  0  0  0  0  0  0  0  0  0
  -25.6610  -34.0450   26.4150 H   0  0  0  0  0  0  0  0  0  0  0  0
  -25.0580  -36.4910   24.1360 C   0  0  0  0  0  1  0  0  0  0  0  0
  -26.0390  -36.3390   25.3090 C   0  0  0  0  0  3  0  0  0  0  0  0
  -27.6760  -37.5920   26.6420 C   0  0  0  0  0  1  0  0  0  0  0  0
  -26.8730  -37.5550   25.4230 N   0  0  0  0  0  0  0  0  0  0  0  0
  -26.2960  -38.3910   25.3990 H   0  0  0  0  0  0  0  0  0  0  0  0
  -28.9730  -20.5520   21.9520 N   0  0  0  0  0  0  0  0  0  0  0  0
  -28.7140  -19.7270   22.4890 H   0  0  0  0  0  0  0  0  0  0  0  0
  -29.6750  -20.2970   20.7040 C   0  0  0  0  0  2  0  0  0  0  0  0
  -29.4740  -18.8460   20.2490 C   0  0  0  0  0  2  0  0  0  0  0  0
  -29.8850  -18.6380   18.7800 C   0  0  0  0  0  2  0  0  0  0  0  0
  -29.9490  -17.1620   18.3360 C   0  0  0  0  0  2  0  0  0  0  0  0
  -31.2530  -16.8110   17.5960 C   0  0  0  0  0  2  0  0  0  0  0  0
  -32.5440  -17.3500   18.2470 C   0  0  0  0  0  2  0  0  0  0  0  0
  -33.7720  -16.4670   17.9750 C   0  0  0  0  0  2  0  0  0  0  0  0
  -34.3110  -15.7370   19.2200 C   0  0  0  0  0  2  0  0  0  0  0  0
  -35.0880  -13.4710   19.7750 C   0  0  0  0  0  0  0  0  0  0  0  0
  -34.6570  -11.7430   21.4750 C   0  0  0  0  0  2  0  0  0  0  0  0
  -34.0180  -10.4970   20.8310 C   0  0  0  0  0  2  0  0  0  0  0  0
  -32.4870  -10.6410   20.7690 C   0  0  0  0  0  2  0  0  0  0  0  0
  -32.0420  -11.9990   20.1650 C   0  0  0  0  0  3  0  0  0  0  0  0
  -32.8020  -13.1700   20.8230 C   0  0  0  0  0  2  0  0  0  0  0  0
  -34.2510  -12.9230   20.6960 N   0  0  0  0  0  0  0  0  0  0  0  0
  -36.2500  -13.0980   19.6070 O   0  0  0  0  0  0  0  0  0  0  0  0
  -34.5590  -14.3340   18.9040 N   0  0  0  0  0  0  0  0  0  0  0  0
  -35.0350  -14.2540   18.0160 H   0  0  0  0  0  0  0  0  0  0  0  0
  -29.8240  -13.2960   19.9880 C   0  0  0  0  0  0  0  0  0  0  0  0
  -28.5210  -12.9090   20.1690 C   0  0  0  0  0  0  0  0  0  0  0  0
  -28.5670  -11.5330   20.5460 C   0  0  0  0  0  0  0  0  0  0  0  0
  -30.5940  -12.1740   20.2600 N   0  0  0  0  0  0  0  0  0  0  0  0
  -29.8250  -11.1250   20.6480 N   0  0  0  0  0  0  0  0  0  0  0  0
  -27.4850  -10.5620   20.7590 C   0  0  0  0  0  0  0  0  0  0  0  0
  -27.0490  -10.2110   22.0560 C   0  0  0  0  0  3  0  0  0  0  0  0
  -25.9960   -9.2890   22.2330 C   0  0  0  0  0  3  0  0  0  0  0  0
  -25.3640   -8.7070   21.1080 C   0  0  0  0  0  0  0  0  0  0  0  0
  -25.8160   -9.0420   19.8190 C   0  0  0  0  0  3  0  0  0  0  0  0
  -26.8680   -9.9560   19.6440 C   0  0  0  0  0  3  0  0  0  0  0  0
  -24.3500   -7.7840   21.1850 O   0  0  0  0  0  0  0  0  0  0  0  0
  -23.2690   -7.9680   22.0090 C   0  0  0  0  0  0  0  0  0  0  0  0
  -22.4510   -9.1160   21.9180 C   0  0  0  0  0  3  0  0  0  0  0  0
  -21.3080   -9.2320   22.7340 C   0  0  0  0  0  3  0  0  0  0  0  0
  -20.9780   -8.2040   23.6360 C   0  0  0  0  0  0  0  0  0  0  0  0
  -21.7920   -7.0610   23.7290 C   0  0  0  0  0  3  0  0  0  0  0  0
  -22.9310   -6.9420   22.9140 C   0  0  0  0  0  0  0  0  0  0  0  0
  -23.6990   -5.8280   22.9900 F   0  0  0  0  0  0  0  0  0  0  0  0
  -19.8770   -8.3120   24.4150 F   0  0  0  0  0  0  0  0  0  0  0  0
  -27.2970  -13.7410   19.9120 C   0  0  0  0  0  0  0  0  0  0  0  0
  -26.2260  -13.5060   20.6600 N   0  0  0  0  0  0  0  0  0  0  0  0
  -27.3010  -14.6390   19.0710 O   0  0  0  0  0  0  0  0  0  0  0  0
  -26.2240  -12.7810   21.3630 H   0  0  0  0  0  0  0  0  0  0  0  0
  -25.3900  -14.0570   20.5220 H   0  0  0  0  0  0  0  0  0  0  0  0
  -30.4110  -14.4930   19.5960 N   0  0  0  0  0  0  0  0  0  0  0  0
  -29.8610  -15.3150   19.3700 H   0  0  0  0  0  0  0  0  0  0  0  0
  -31.4060  -14.6360   19.4850 H   0  0  0  0  0  0  0  0  0  0  0  0
  2  1  2  0
  3  1  1  0
  4  5  2  0
  4  6  1  0
  5  2  1  0
  6  3  2  0
  7  9  1  0
  7  6  1  0
  8  7  1  0
 10 11  1  0
 10  9  1  0
 12 23  2  0
 13 11  1  0
 13 18  1  0
 14 24  1  0
 14 22  1  0
 15 17  1  0
 16 22  1  0
 17 18  2  0
 17 16  1  0
 19 13  2  0
 20 19  1  0
 20 15  2  0
 21 15  1  0
 21 14  1  0
 22 12  1  0
 24 26  2  0
 25 24  1  0
 27 25  1  0
 28 33  1  0
 29 25  1  0
 30 29  1  0
 31 32  1  0
 31 30  1  0
 32 28  1  0
 33 29  1  0
 33 34  2  0
 35 34  1  0
 36 35  2  0
 37 28  2  0
 37 36  1  0
 38 12  1  0
 38 43  1  0
 38 39  1  0
 39 40  1  1
 39 42  1  0
 41 39  1  0
 43 46  1  0
 44 48  1  0
 44 43  1  0
 45 44  2  0
 48 47  1  0
 48 50  1  0
 50 49  1  0
 51 50  1  0
 52 53  1  0
 52  5  1  0
 54 52  1  0
 55 54  1  0
 56 55  1  0
 57 56  1  0
 58 59  1  0
 58 57  1  0
 60 59  1  0
 60 61  1  0
 62 68  1  0
 64 63  1  0
 65 64  1  0
 66 75  1  0
 66 65  1  0
 66 67  1  0
 68 67  1  0
 68 63  1  0
 69 62  2  0
 70 61  1  0
 70 62  1  0
 71 70  1  0
 72 73  2  0
 72 75  1  0
 73 74  1  0
 74 76  2  0
 74 77  1  0
 75 76  1  0
 77 78  1  0
 78 79  2  0
 80 83  1  0
 80 79  1  0
 81 80  2  0
 82 81  1  0
 82 77  2  0
 83 84  1  0
 84 89  1  0
 85 84  2  0
 85 86  1  0
 86 87  2  0
 87 88  1  0
 87 91  1  0
 89 90  1  0
 89 88  2  0
 92 73  1  0
 92 93  1  0
 93 95  1  0
 94 92  2  0
 96 93  1  0
 97 72  1  0
 98 97  1  0
 99 97  1  0
M  ISO  4  10 101  11 101  62 100  70 100
M  END
>  <TORSDO>  (91) 
F 28

>  <SCORE>  (91) 
2.918

>  <name>  (91) 
92

>  <ligand_id>  (91) 
92

>  <original_smiles>  (91) 
[H]c1c([H])c(N([H])C([H])([H])C([H])([H])Oc2c([H])c([H])c3c(c2[H])C([H])([H])N(C(=O)C([H])(N([H])C(=O)C([H])(N([H])C([H])([H])[H])C([H])([H])[H])C(C([H])([H])[H])(C([H])([H])[H])C([H])([H])[H])C([H])(C(=O)N([H])C2([H])c4c([H])c([H])c([H])c([H])c4C([H])([H])C([H])([H])C2([H])[H])C3([H])[H])c([H])c(N([H])C([H])([H])C([H])([H])C([H])([H])C([H])([H])C([H])([H])C([H])([H])C([H])([H])C([H])([H])N([H])C(=O)N2C([H])([H])C([H])([H])C([H])([H])C([H])(n3nc(-c4c([H])c([H])c(Oc5c([H])c([H])c(F)c([H])c5F)c([H])c4[H])c(C(=O)N([H])[H])c3N([H])[H])C2([H])[H])c1[H]

>  <smiles>  (91) 
[H]c1c([H])c(N([H])C([H])([H])C([H])([H])Oc2c([H])c([H])c3c(c2[H])C([H])([H])N(C(=O)C([H])(N([H])C(=O)C([H])(N([H])C([H])([H])[H])C([H])([H])[H])C(C([H])([H])[H])(C([H])([H])[H])C([H])([H])[H])C([H])(C(=O)N([H])C2([H])c4c([H])c([H])c([H])c([H])c4C([H])([H])C([H])([H])C2([H])[H])C3([H])[H])c([H])c(N([H])C([H])([H])C([H])([H])C([H])([H])C([H])([H])C([H])([H])C([H])([H])C([H])([H])C([H])([H])N([H])C(=O)N2C([H])([H])C([H])([H])C([H])([H])C([H])(n3nc(-c4c([H])c([H])c(Oc5c([H])c([H])c(F)c([H])c5F)c([H])c4[H])c(C(=O)N([H])[H])c3N([H])[H])C2([H])[H])c1[H]

$$$$
93:0:0
     RDKit          3D

 94101  0  0  1  0  0  0  0  0999 V2000
  -31.3220  -20.6230   23.7020 C   0  0  0  0  0  2  0  0  0  0  0  0
  -31.2330  -22.0570   23.1920 C   0  0  0  0  0  2  0  0  0  0  0  0
  -30.3430  -22.7800   24.0280 O   0  0  0  0  0  0  0  0  0  0  0  0
  -30.1030  -24.1040   23.5820 C   0  0  0  0  0  2  0  0  0  0  0  0
  -29.3590  -24.0900   22.2390 C   0  0  0  0  0  2  0  0  0  0  0  0
  -29.2470  -25.4770   21.6310 C   0  0  0  0  0  2  0  0  0  0  0  0
  -28.3400  -25.4710   20.4040 C   0  0  0  0  0  2  0  0  0  0  0  0
  -28.3380  -26.8140   19.9790 O   0  0  0  0  0  0  0  0  0  0  0  0
  -24.7640  -31.6870   23.7110 C   0  0  0  0  0  0  0  0  0  0  0  0
  -27.1680  -27.4950   20.1550 C   0  0  0  0  0  0  0  0  0  0  0  0
  -23.4730  -30.5180   21.9500 C   0  0  0  0  0  3  0  0  0  0  0  0
  -24.8360  -29.0470   20.3770 C   0  0  0  0  0  0  0  0  0  0  0  0
  -26.0080  -30.7720   21.7640 C   0  0  0  0  0  2  0  0  0  0  0  0
  -26.0180  -29.4690   20.9960 C   0  0  0  0  0  0  0  0  0  0  0  0
  -27.1890  -28.6950   20.8900 C   0  0  0  0  0  3  0  0  0  0  0  0
  -25.9690  -27.0590   19.5530 C   0  0  0  0  0  3  0  0  0  0  0  0
  -24.7990  -27.8320   19.6660 C   0  0  0  0  0  3  0  0  0  0  0  0
  -23.6370  -29.9550   20.5130 C   0  0  0  0  0  2  0  0  0  0  0  0
  -24.7670  -30.9990   22.5350 N   0  0  0  0  0  0  0  0  0  0  0  0
  -23.7030  -31.9670   24.2840 O   0  0  0  0  0  0  0  0  0  0  0  0
  -22.7710  -29.4480   22.8150 C   0  0  0  0  0  0  0  0  0  0  0  0
  -21.4620  -29.2650   22.5820 N   0  0  0  0  0  0  0  0  0  0  0  0
  -23.4030  -28.7860   23.6420 O   0  0  0  0  0  0  0  0  0  0  0  0
  -21.0160  -29.8590   21.8960 H   0  0  0  0  0  0  0  0  0  0  0  0
  -18.0940  -27.9680   22.6940 C   0  0  0  0  0  0  0  0  0  0  0  0
  -20.6010  -28.2840   23.2400 C   0  0  0  0  0  3  0  0  0  0  0  0
  -20.8040  -26.8730   22.6400 C   0  0  0  0  0  2  0  0  0  0  0  0
  -19.8210  -26.5470   21.5110 C   0  0  0  0  0  2  0  0  0  0  0  0
  -18.3760  -26.6410   22.0100 C   0  0  0  0  0  2  0  0  0  0  0  0
  -19.1400  -28.7470   23.2570 C   0  0  0  0  0  0  0  0  0  0  0  0
  -18.8250  -29.9890   23.8490 C   0  0  0  0  0  3  0  0  0  0  0  0
  -17.4990  -30.4550   23.8840 C   0  0  0  0  0  3  0  0  0  0  0  0
  -16.4650  -29.6730   23.3410 C   0  0  0  0  0  3  0  0  0  0  0  0
  -16.7620  -28.4300   22.7540 C   0  0  0  0  0  3  0  0  0  0  0  0
  -26.0860  -32.1770   24.3810 C   0  0  0  0  0  3  0  0  0  0  0  0
  -26.4510  -31.3830   25.6960 C   0  0  1  0  0  0  0  0  0  0  0  0
  -25.2950  -31.3110   26.7190 C   0  0  0  0  0  1  0  0  0  0  0  0
  -26.8730  -29.9350   25.3530 C   0  0  0  0  0  1  0  0  0  0  0  0
  -27.6620  -32.0500   26.3930 C   0  0  0  0  0  1  0  0  0  0  0  0
  -25.9370  -33.6110   24.6630 N   0  0  0  0  0  0  0  0  0  0  0  0
  -26.4250  -34.5900   23.8920 C   0  0  0  0  0  0  0  0  0  0  0  0
  -27.1190  -34.3770   22.8950 O   0  0  0  0  0  0  0  0  0  0  0  0
  -25.3420  -33.8580   25.4410 H   0  0  0  0  0  0  0  0  0  0  0  0
  -24.9190  -36.5480   23.4300 C   0  0  0  0  0  1  0  0  0  0  0  0
  -26.0870  -36.0400   24.2900 C   0  0  0  0  0  3  0  0  0  0  0  0
  -28.3210  -36.6540   25.1040 C   0  0  0  0  0  1  0  0  0  0  0  0
  -27.2360  -36.9650   24.1750 N   0  0  0  0  0  0  0  0  0  0  0  0
  -26.9450  -37.9230   24.3390 H   0  0  0  0  0  0  0  0  0  0  0  0
  -31.6550  -19.6440   22.5720 C   0  0  0  0  0  2  0  0  0  0  0  0
  -31.5720  -18.2450   23.0270 N   0  0  0  0  0  4  0  0  0  0  0  0
  -32.2420  -18.1030   23.7660 H   0  0  0  0  0  0  0  0  0  0  0  0
  -30.6530  -18.0740   23.4040 H   0  0  0  0  0  0  0  0  0  0  0  0
  -31.8430  -17.2660   21.9620 C   0  0  0  0  0  2  0  0  0  0  0  0
  -31.9970  -15.8520   22.5400 C   0  0  0  0  0  2  0  0  0  0  0  0
  -32.5230  -14.8520   21.5030 C   0  0  0  0  0  2  0  0  0  0  0  0
  -31.4800  -13.8180   21.0660 C   0  0  0  0  0  2  0  0  0  0  0  0
  -29.8150  -14.4470   19.3990 C   0  0  0  0  0  0  0  0  0  0  0  0
  -29.0650  -12.7060   17.8450 C   0  0  0  0  0  2  0  0  0  0  0  0
  -27.8250  -12.9990   16.9940 C   0  0  0  0  0  2  0  0  0  0  0  0
  -26.5510  -12.6360   17.7740 C   0  0  0  0  0  2  0  0  0  0  0  0
  -26.5130  -13.2870   19.1790 C   0  0  0  0  0  3  0  0  0  0  0  0
  -27.8250  -13.0200   19.9430 C   0  0  0  0  0  2  0  0  0  0  0  0
  -28.9540  -13.4500   19.1030 N   0  0  0  0  0  0  0  0  0  0  0  0
  -30.4660  -15.0790   18.5640 O   0  0  0  0  0  0  0  0  0  0  0  0
  -30.1830  -14.3740   20.6800 N   0  0  0  0  0  0  0  0  0  0  0  0
  -29.4340  -14.0260   21.2610 H   0  0  0  0  0  0  0  0  0  0  0  0
  -24.3540  -13.5950   20.5460 C   0  0  0  0  0  0  0  0  0  0  0  0
  -23.4550  -12.6940   21.0480 C   0  0  0  0  0  0  0  0  0  0  0  0
  -23.9560  -11.4010   20.7050 C   0  0  0  0  0  0  0  0  0  0  0  0
  -25.3450  -12.8420   19.9350 N   0  0  0  0  0  0  0  0  0  0  0  0
  -25.1240  -11.5110   20.0840 N   0  0  0  0  0  0  0  0  0  0  0  0
  -23.3660  -10.0680   20.8780 C   0  0  0  0  0  0  0  0  0  0  0  0
  -24.0400   -9.0480   21.5860 C   0  0  0  0  0  3  0  0  0  0  0  0
  -23.4430   -7.7800   21.7570 C   0  0  0  0  0  3  0  0  0  0  0  0
  -22.1600   -7.5210   21.2180 C   0  0  0  0  0  0  0  0  0  0  0  0
  -21.5030   -8.5330   20.4960 C   0  0  0  0  0  3  0  0  0  0  0  0
  -22.0990   -9.7920   20.3230 C   0  0  0  0  0  3  0  0  0  0  0  0
  -21.5140   -6.3110   21.3120 O   0  0  0  0  0  0  0  0  0  0  0  0
  -21.7860   -5.4260   22.3260 C   0  0  0  0  0  0  0  0  0  0  0  0
  -21.6200   -5.7760   23.6840 C   0  0  0  0  0  3  0  0  0  0  0  0
  -21.8400   -4.8150   24.6900 C   0  0  0  0  0  3  0  0  0  0  0  0
  -22.2190   -3.5050   24.3430 C   0  0  0  0  0  0  0  0  0  0  0  0
  -22.3780   -3.1530   22.9920 C   0  0  0  0  0  3  0  0  0  0  0  0
  -22.1600   -4.1110   21.9870 C   0  0  0  0  0  0  0  0  0  0  0  0
  -22.2960   -3.7600   20.6840 F   0  0  0  0  0  0  0  0  0  0  0  0
  -22.4210   -2.5800   25.3100 F   0  0  0  0  0  0  0  0  0  0  0  0
  -22.1530  -13.0110   21.7270 C   0  0  0  0  0  0  0  0  0  0  0  0
  -21.7130  -12.1580   22.6440 N   0  0  0  0  0  0  0  0  0  0  0  0
  -21.5410  -14.0490   21.4780 O   0  0  0  0  0  0  0  0  0  0  0  0
  -22.2210  -11.3120   22.8560 H   0  0  0  0  0  0  0  0  0  0  0  0
  -20.8560  -12.3550   23.1410 H   0  0  0  0  0  0  0  0  0  0  0  0
  -24.4050  -14.9870   20.5370 N   0  0  0  0  0  0  0  0  0  0  0  0
  -23.6720  -15.5670   20.9290 H   0  0  0  0  0  0  0  0  0  0  0  0
  -25.1330  -15.5230   20.0800 H   0  0  0  0  0  0  0  0  0  0  0  0
  2  1  1  0
  2  3  1  0
  4  3  1  0
  5  4  1  0
  6  5  1  0
  7  6  1  0
  8 10  1  0
  8  7  1  0
  9 20  2  0
 10 15  1  0
 11 19  1  0
 11 21  1  0
 12 18  1  0
 12 14  1  0
 13 19  1  0
 14 13  1  0
 15 14  2  0
 16 17  1  0
 16 10  2  0
 17 12  2  0
 18 11  1  0
 19  9  1  0
 21 23  2  0
 22 21  1  0
 24 22  1  0
 25 34  2  0
 25 30  1  0
 26 22  1  0
 26 30  1  0
 27 26  1  0
 28 29  1  0
 28 27  1  0
 29 25  1  0
 30 31  2  0
 31 32  1  0
 33 32  2  0
 34 33  1  0
 35  9  1  0
 35 40  1  0
 35 36  1  0
 36 39  1  1
 36 37  1  0
 38 36  1  0
 40 43  1  0
 41 45  1  0
 41 40  1  0
 42 41  2  0
 45 44  1  0
 47 45  1  0
 47 48  1  0
 47 46  1  0
 49 50  1  0
 49  1  1  0
 50 52  1  0
 50 51  1  0
 53 54  1  0
 53 50  1  0
 55 54  1  0
 56 55  1  0
 57 65  1  0
 58 63  1  0
 59 60  1  0
 59 58  1  0
 61 60  1  0
 61 70  1  0
 61 62  1  0
 63 57  1  0
 63 62  1  0
 64 57  2  0
 65 56  1  0
 65 66  1  0
 67 68  2  0
 68 87  1  0
 69 72  1  0
 69 68  1  0
 70 71  1  0
 70 67  1  0
 71 69  2  0
 72 73  1  0
 73 74  2  0
 75 78  1  0
 75 74  1  0
 76 75  2  0
 77 76  1  0
 77 72  2  0
 78 79  1  0
 79 80  1  0
 80 81  2  0
 82 81  1  0
 82 86  1  0
 83 82  2  0
 84 79  2  0
 84 83  1  0
 85 84  1  0
 87 88  1  0
 88 90  1  0
 88 91  1  0
 89 87  2  0
 92 67  1  0
 92 93  1  0
 94 92  1  0
M  ISO  4   7 101   8 101  57 100  65 100
M  END
>  <TORSDO>  (92) 
F 28

>  <SCORE>  (92) 
-3.228

>  <name>  (92) 
93

>  <ligand_id>  (92) 
93

>  <original_smiles>  (92) 
[H]c1c([H])c([H])c2c(c1[H])C([H])([H])C([H])([H])C([H])([H])C2([H])N([H])C(=O)C1([H])N(C(=O)C([H])(N([H])C(=O)C([H])(N([H])C([H])([H])[H])C([H])([H])[H])C(C([H])([H])[H])(C([H])([H])[H])C([H])([H])[H])C([H])([H])c2c([H])c(OC([H])([H])C([H])([H])C([H])([H])C([H])([H])OC([H])([H])C([H])([H])C([H])([H])[N+]([H])([H])C([H])([H])C([H])([H])C([H])([H])C([H])([H])N([H])C(=O)N3C([H])([H])C([H])([H])C([H])([H])C([H])(n4nc(-c5c([H])c([H])c(Oc6c([H])c([H])c(F)c([H])c6F)c([H])c5[H])c(C(=O)N([H])[H])c4N([H])[H])C3([H])[H])c([H])c([H])c2C1([H])[H]

>  <smiles>  (92) 
[H]c1c([H])c([H])c2c(c1[H])C([H])([H])C([H])([H])C([H])([H])C2([H])N([H])C(=O)C1([H])N(C(=O)C([H])(N([H])C(=O)C([H])(N([H])C([H])([H])[H])C([H])([H])[H])C(C([H])([H])[H])(C([H])([H])[H])C([H])([H])[H])C([H])([H])c2c([H])c(OC([H])([H])C([H])([H])C([H])([H])C([H])([H])OC([H])([H])C([H])([H])C([H])([H])[N+]([H])([H])C([H])([H])C([H])([H])C([H])([H])C([H])([H])N([H])C(=O)N3C([H])([H])C([H])([H])C([H])([H])C([H])(n4nc(-c5c([H])c([H])c(Oc6c([H])c([H])c(F)c([H])c6F)c([H])c5[H])c(C(=O)N([H])[H])c4N([H])[H])C3([H])[H])c([H])c([H])c2C1([H])[H]

$$$$
94:0:0
     RDKit          3D

 99106  0  0  1  0  0  0  0  0999 V2000
  -28.2680  -23.4080   26.4100 C   0  0  0  0  0  2  0  0  0  0  0  0
  -26.8770  -24.0650   26.3180 C   0  0  0  0  0  2  0  0  0  0  0  0
  -26.7070  -25.3230   27.2020 C   0  0  0  0  0  2  0  0  0  0  0  0
  -26.7920  -26.6100   26.4690 N   0  0  0  0  0  4  0  0  0  0  0  0
  -26.5820  -27.3260   27.1470 H   0  0  0  0  0  0  0  0  0  0  0  0
  -26.0730  -26.6510   25.7640 H   0  0  0  0  0  0  0  0  0  0  0  0
  -28.1040  -26.9660   25.8840 C   0  0  0  0  0  2  0  0  0  0  0  0
  -28.4220  -28.4620   26.1030 C   0  0  0  0  0  2  0  0  0  0  0  0
  -27.4130  -29.4390   25.4570 C   0  0  0  0  0  2  0  0  0  0  0  0
  -27.4270  -30.6940   26.1440 O   0  0  0  0  0  0  0  0  0  0  0  0
  -26.7350  -30.3040   33.2060 C   0  0  0  0  0  0  0  0  0  0  0  0
  -26.5850  -30.7710   27.2250 C   0  0  0  0  0  0  0  0  0  0  0  0
  -24.6180  -30.4070   31.9210 C   0  0  0  0  0  3  0  0  0  0  0  0
  -24.8540  -30.9790   29.4450 C   0  0  0  0  0  0  0  0  0  0  0  0
  -26.7530  -31.4640   31.0010 C   0  0  0  0  0  2  0  0  0  0  0  0
  -26.2320  -31.1630   29.6120 C   0  0  0  0  0  0  0  0  0  0  0  0
  -27.1000  -31.0630   28.5040 C   0  0  0  0  0  3  0  0  0  0  0  0
  -25.1950  -30.5930   27.0620 C   0  0  0  0  0  3  0  0  0  0  0  0
  -24.3270  -30.6880   28.1690 C   0  0  0  0  0  3  0  0  0  0  0  0
  -23.9970  -31.1110   30.6840 C   0  0  0  0  0  2  0  0  0  0  0  0
  -26.0840  -30.6900   32.0700 N   0  0  0  0  0  0  0  0  0  0  0  0
  -26.1320  -29.7560   34.1370 O   0  0  0  0  0  0  0  0  0  0  0  0
  -24.2920  -28.8980   31.8420 C   0  0  0  0  0  0  0  0  0  0  0  0
  -23.2420  -28.4730   32.5610 N   0  0  0  0  0  0  0  0  0  0  0  0
  -24.9550  -28.1450   31.1240 O   0  0  0  0  0  0  0  0  0  0  0  0
  -22.7550  -29.1490   33.1310 H   0  0  0  0  0  0  0  0  0  0  0  0
  -20.9280  -26.2970   34.2750 C   0  0  0  0  0  0  0  0  0  0  0  0
  -22.7280  -27.1050   32.6060 C   0  0  0  0  0  3  0  0  0  0  0  0
  -21.6670  -26.8710   31.5070 C   0  0  0  0  0  2  0  0  0  0  0  0
  -20.2340  -27.1250   31.9860 C   0  0  0  0  0  2  0  0  0  0  0  0
  -19.8950  -26.2070   33.1640 C   0  0  0  0  0  2  0  0  0  0  0  0
  -22.2540  -26.7340   34.0160 C   0  0  0  0  0  0  0  0  0  0  0  0
  -23.1630  -26.8310   35.0920 C   0  0  0  0  0  3  0  0  0  0  0  0
  -22.7680  -26.5010   36.4030 C   0  0  0  0  0  3  0  0  0  0  0  0
  -21.4600  -26.0510   36.6500 C   0  0  0  0  0  3  0  0  0  0  0  0
  -20.5440  -25.9490   35.5870 C   0  0  0  0  0  3  0  0  0  0  0  0
  -28.2670  -30.5450   33.3920 C   0  0  0  0  0  3  0  0  0  0  0  0
  -28.4690  -31.0740   34.7460 N   0  0  0  0  0  0  0  0  0  0  0  0
  -28.7170  -32.3600   35.0300 C   0  0  0  0  0  0  0  0  0  0  0  0
  -28.8740  -33.2230   34.1610 O   0  0  0  0  0  0  0  0  0  0  0  0
  -28.2930  -30.4400   35.5110 H   0  0  0  0  0  0  0  0  0  0  0  0
  -27.5560  -33.5500   36.9150 C   0  0  0  0  0  1  0  0  0  0  0  0
  -28.8080  -32.7510   36.5170 C   0  0  0  0  0  3  0  0  0  0  0  0
  -31.2400  -32.7310   36.8460 C   0  0  0  0  0  1  0  0  0  0  0  0
  -30.0190  -33.5340   36.8470 N   0  0  0  0  0  0  0  0  0  0  0  0
  -29.9280  -33.9700   37.7600 H   0  0  0  0  0  0  0  0  0  0  0  0
  -29.1380  -29.2490   33.1610 C   0  0  1  0  0  0  0  0  0  0  0  0
  -28.5850  -27.9930   33.8710 C   0  0  0  0  0  1  0  0  0  0  0  0
  -29.2480  -28.9290   31.6520 C   0  0  0  0  0  1  0  0  0  0  0  0
  -30.5800  -29.4870   33.6670 C   0  0  0  0  0  1  0  0  0  0  0  0
  -28.3520  -22.0900   25.6160 C   0  0  0  0  0  2  0  0  0  0  0  0
  -29.7730  -21.5000   25.5660 C   0  0  0  0  0  2  0  0  0  0  0  0
  -29.9540  -20.4790   24.4250 C   0  0  0  0  0  2  0  0  0  0  0  0
  -31.3300  -19.9320   24.3860 N   0  0  0  0  0  4  0  0  0  0  0  0
  -31.2770  -18.9660   24.6710 H   0  0  0  0  0  0  0  0  0  0  0  0
  -31.9020  -20.4020   25.0670 H   0  0  0  0  0  0  0  0  0  0  0  0
  -32.0070  -19.9680   23.0680 C   0  0  0  0  0  2  0  0  0  0  0  0
  -32.5670  -21.3620   22.6980 C   0  0  0  0  0  2  0  0  0  0  0  0
  -33.0010  -21.4670   21.2200 C   0  0  0  0  0  2  0  0  0  0  0  0
  -34.1420  -22.4800   21.0020 C   0  0  0  0  0  2  0  0  0  0  0  0
  -34.4400  -22.7690   19.5200 C   0  0  0  0  0  2  0  0  0  0  0  0
  -33.8150  -24.8740   18.3190 C   0  0  0  0  0  0  0  0  0  0  0  0
  -33.1220  -26.1010   16.3010 C   0  0  0  0  0  2  0  0  0  0  0  0
  -32.7310  -27.5680   16.5210 C   0  0  0  0  0  2  0  0  0  0  0  0
  -31.2510  -27.6770   16.9160 C   0  0  0  0  0  2  0  0  0  0  0  0
  -30.8920  -26.7420   18.0980 C   0  0  0  0  0  3  0  0  0  0  0  0
  -31.3890  -25.3000   17.8450 C   0  0  0  0  0  2  0  0  0  0  0  0
  -32.8270  -25.3330   17.5180 N   0  0  0  0  0  0  0  0  0  0  0  0
  -34.9730  -25.3120   18.3010 O   0  0  0  0  0  0  0  0  0  0  0  0
  -33.5000  -23.7200   18.9260 N   0  0  0  0  0  0  0  0  0  0  0  0
  -32.5580  -23.3910   18.7740 H   0  0  0  0  0  0  0  0  0  0  0  0
  -28.8010  -27.0350   19.5740 C   0  0  0  0  0  0  0  0  0  0  0  0
  -27.4620  -27.0140   19.2780 C   0  0  0  0  0  0  0  0  0  0  0  0
  -27.3710  -26.7440   17.8800 C   0  0  0  0  0  0  0  0  0  0  0  0
  -29.4570  -26.7750   18.3790 N   0  0  0  0  0  0  0  0  0  0  0  0
  -28.5790  -26.5500   17.3680 N   0  0  0  0  0  0  0  0  0  0  0  0
  -26.2040  -26.7150   16.9850 C   0  0  0  0  0  0  0  0  0  0  0  0
  -25.9220  -25.5900   16.1800 C   0  0  0  0  0  3  0  0  0  0  0  0
  -24.7850  -25.5780   15.3420 C   0  0  0  0  0  3  0  0  0  0  0  0
  -23.9180  -26.6950   15.3060 C   0  0  0  0  0  0  0  0  0  0  0  0
  -24.2180  -27.8210   16.0930 C   0  0  0  0  0  3  0  0  0  0  0  0
  -25.3510  -27.8340   16.9220 C   0  0  0  0  0  3  0  0  0  0  0  0
  -22.8070  -26.7850   14.5040 O   0  0  0  0  0  0  0  0  0  0  0  0
  -22.1040  -25.6690   14.1220 C   0  0  0  0  0  0  0  0  0  0  0  0
  -21.6350  -24.7270   15.0640 C   0  0  0  0  0  3  0  0  0  0  0  0
  -20.8570  -23.6330   14.6370 C   0  0  0  0  0  3  0  0  0  0  0  0
  -20.5380  -23.4820   13.2730 C   0  0  0  0  0  0  0  0  0  0  0  0
  -21.0000  -24.4240   12.3360 C   0  0  0  0  0  3  0  0  0  0  0  0
  -21.7780  -25.5150   12.7600 C   0  0  0  0  0  0  0  0  0  0  0  0
  -22.2020  -26.4300   11.8560 F   0  0  0  0  0  0  0  0  0  0  0  0
  -19.7840  -22.4360   12.8630 F   0  0  0  0  0  0  0  0  0  0  0  0
  -26.3340  -27.3190   20.2210 C   0  0  0  0  0  0  0  0  0  0  0  0
  -25.1580  -26.7500   19.9740 N   0  0  0  0  0  0  0  0  0  0  0  0
  -26.5020  -28.0290   21.2100 O   0  0  0  0  0  0  0  0  0  0  0  0
  -25.0270  -26.1510   19.1730 H   0  0  0  0  0  0  0  0  0  0  0  0
  -24.3810  -26.9150   20.5970 H   0  0  0  0  0  0  0  0  0  0  0  0
  -29.5110  -27.2710   20.7440 N   0  0  0  0  0  0  0  0  0  0  0  0
  -29.0580  -27.5210   21.6170 H   0  0  0  0  0  0  0  0  0  0  0  0
  -30.5220  -27.2860   20.8060 H   0  0  0  0  0  0  0  0  0  0  0  0
  2  1  1  0
  2  3  1  0
  4  5  1  0
  4  3  1  0
  6  4  1  0
  7  8  1  0
  7  4  1  0
  9  8  1  0
  9 10  1  0
 10 12  1  0
 11 22  2  0
 12 17  1  0
 13 23  1  0
 13 21  1  0
 14 16  1  0
 14 20  1  0
 15 21  1  0
 16 15  1  0
 17 16  2  0
 18 12  2  0
 18 19  1  0
 19 14  2  0
 20 13  1  0
 21 11  1  0
 23 24  1  0
 24 26  1  0
 25 23  2  0
 27 36  1  0
 28 24  1  0
 28 32  1  0
 29 30  1  0
 29 28  1  0
 30 31  1  0
 31 27  1  0
 32 27  2  0
 32 33  1  0
 33 34  2  0
 34 35  1  0
 36 35  2  0
 37 11  1  0
 37 38  1  0
 38 39  1  0
 38 41  1  0
 39 43  1  0
 40 39  2  0
 43 45  1  0
 43 42  1  0
 44 45  1  0
 45 46  1  0
 47 37  1  0
 47 50  1  1
 47 48  1  0
 49 47  1  0
 51  1  1  0
 52 51  1  0
 53 52  1  0
 54 53  1  0
 54 55  1  0
 54 56  1  0
 57 54  1  0
 58 57  1  0
 59 58  1  0
 60 59  1  0
 61 60  1  0
 62 70  1  0
 63 64  1  0
 63 68  1  0
 64 65  1  0
 66 65  1  0
 66 75  1  0
 67 66  1  0
 68 67  1  0
 68 62  1  0
 69 62  2  0
 70 61  1  0
 71 70  1  0
 72 97  1  0
 73 72  2  0
 73 92  1  0
 74 73  1  0
 75 72  1  0
 76 74  2  0
 76 75  1  0
 77 74  1  0
 78 77  2  0
 79 78  1  0
 80 79  2  0
 80 81  1  0
 81 82  2  0
 82 77  1  0
 83 80  1  0
 84 83  1  0
 84 85  1  0
 86 85  2  0
 87 86  1  0
 88 89  1  0
 88 87  2  0
 89 84  2  0
 90 89  1  0
 91 87  1  0
 92 94  2  0
 93 92  1  0
 93 96  1  0
 95 93  1  0
 97 99  1  0
 97 98  1  0
M  ISO  4   9 101  10 101  62 100  70 100
M  END
>  <TORSDO>  (93) 
F 31

>  <SCORE>  (93) 
14.854

>  <name>  (93) 
94

>  <ligand_id>  (93) 
94

>  <original_smiles>  (93) 
[H]c1c([H])c([H])c2c(c1[H])C([H])([H])C([H])([H])C([H])([H])C2([H])N([H])C(=O)C1([H])N(C(=O)C([H])(N([H])C(=O)C([H])(N([H])C([H])([H])[H])C([H])([H])[H])C(C([H])([H])[H])(C([H])([H])[H])C([H])([H])[H])C([H])([H])c2c([H])c(OC([H])([H])C([H])([H])C([H])([H])[N+]([H])([H])C([H])([H])C([H])([H])C([H])([H])C([H])([H])C([H])([H])C([H])([H])[N+]([H])([H])C([H])([H])C([H])([H])C([H])([H])C([H])([H])C([H])([H])N([H])C(=O)N3C([H])([H])C([H])([H])C([H])([H])C([H])(n4nc(-c5c([H])c([H])c(Oc6c([H])c([H])c(F)c([H])c6F)c([H])c5[H])c(C(=O)N([H])[H])c4N([H])[H])C3([H])[H])c([H])c([H])c2C1([H])[H]

>  <smiles>  (93) 
[H]c1c([H])c([H])c2c(c1[H])C([H])([H])C([H])([H])C([H])([H])C2([H])N([H])C(=O)C1([H])N(C(=O)C([H])(N([H])C(=O)C([H])(N([H])C([H])([H])[H])C([H])([H])[H])C(C([H])([H])[H])(C([H])([H])[H])C([H])([H])[H])C([H])([H])c2c([H])c(OC([H])([H])C([H])([H])C([H])([H])[N+]([H])([H])C([H])([H])C([H])([H])C([H])([H])C([H])([H])C([H])([H])C([H])([H])[N+]([H])([H])C([H])([H])C([H])([H])C([H])([H])C([H])([H])C([H])([H])N([H])C(=O)N3C([H])([H])C([H])([H])C([H])([H])C([H])(n4nc(-c5c([H])c([H])c(Oc6c([H])c([H])c(F)c([H])c6F)c([H])c5[H])c(C(=O)N([H])[H])c4N([H])[H])C3([H])[H])c([H])c([H])c2C1([H])[H]

$$$$
95:0:0
     RDKit          3D

 93100  0  0  1  0  0  0  0  0999 V2000
  -26.2060  -23.1040   21.9730 N   0  0  0  0  0  4  0  0  0  0  0  0
  -26.8100  -23.1030   22.7720 H   0  0  0  0  0  0  0  0  0  0  0  0
  -25.2860  -22.8890   22.3200 H   0  0  0  0  0  0  0  0  0  0  0  0
  -26.1890  -24.4820   21.4180 C   0  0  0  0  0  2  0  0  0  0  0  0
  -27.5280  -25.2440   21.6570 C   0  0  0  0  0  2  0  0  0  0  0  0
  -28.2530  -25.7030   20.3470 C   0  0  0  0  0  2  0  0  0  0  0  0
  -28.3810  -27.1180   20.1130 O   0  0  0  0  0  0  0  0  0  0  0  0
  -24.5360  -32.0540   23.3660 C   0  0  0  0  0  0  0  0  0  0  0  0
  -27.2170  -27.8470   20.0590 C   0  0  0  0  0  0  0  0  0  0  0  0
  -23.3320  -30.6910   21.6970 C   0  0  0  0  0  3  0  0  0  0  0  0
  -24.7910  -29.2800   20.1780 C   0  0  0  0  0  0  0  0  0  0  0  0
  -25.8430  -31.1660   21.4370 C   0  0  0  0  0  2  0  0  0  0  0  0
  -25.9600  -29.8320   20.7220 C   0  0  0  0  0  0  0  0  0  0  0  0
  -27.1830  -29.1350   20.6410 C   0  0  0  0  0  3  0  0  0  0  0  0
  -26.0480  -27.3210   19.4790 C   0  0  0  0  0  3  0  0  0  0  0  0
  -24.8300  -28.0220   19.5510 C   0  0  0  0  0  3  0  0  0  0  0  0
  -23.5270  -30.0930   20.2850 C   0  0  0  0  0  2  0  0  0  0  0  0
  -24.5880  -31.3210   22.2180 N   0  0  0  0  0  0  0  0  0  0  0  0
  -23.4590  -32.2600   23.9460 O   0  0  0  0  0  0  0  0  0  0  0  0
  -22.7420  -29.5980   22.6230 C   0  0  0  0  0  0  0  0  0  0  0  0
  -21.4210  -29.3530   22.5060 N   0  0  0  0  0  0  0  0  0  0  0  0
  -23.4610  -28.9730   23.4050 O   0  0  0  0  0  0  0  0  0  0  0  0
  -20.8630  -29.9550   21.9160 H   0  0  0  0  0  0  0  0  0  0  0  0
  -18.1290  -27.8910   22.8870 C   0  0  0  0  0  0  0  0  0  0  0  0
  -20.6580  -28.3350   23.2340 C   0  0  0  0  0  3  0  0  0  0  0  0
  -20.8770  -26.9260   22.6260 C   0  0  0  0  0  2  0  0  0  0  0  0
  -19.8200  -26.5460   21.5850 C   0  0  0  0  0  2  0  0  0  0  0  0
  -18.4190  -26.5700   22.2060 C   0  0  0  0  0  2  0  0  0  0  0  0
  -19.1810  -28.7290   23.3480 C   0  0  0  0  0  0  0  0  0  0  0  0
  -18.8550  -29.9720   23.9340 C   0  0  0  0  0  3  0  0  0  0  0  0
  -17.5110  -30.3760   24.0790 C   0  0  0  0  0  3  0  0  0  0  0  0
  -16.4730  -29.5370   23.6330 C   0  0  0  0  0  3  0  0  0  0  0  0
  -16.7860  -28.2950   23.0480 C   0  0  0  0  0  3  0  0  0  0  0  0
  -25.8190  -32.6970   23.9860 C   0  0  0  0  0  3  0  0  0  0  0  0
  -26.3500  -31.9240   25.2540 C   0  0  1  0  0  0  0  0  0  0  0  0
  -25.2580  -31.6450   26.3110 C   0  0  0  0  0  1  0  0  0  0  0  0
  -26.9760  -30.5660   24.8500 C   0  0  0  0  0  1  0  0  0  0  0  0
  -27.4750  -32.7430   25.9220 C   0  0  0  0  0  1  0  0  0  0  0  0
  -25.4950  -34.0900   24.3170 N   0  0  0  0  0  0  0  0  0  0  0  0
  -25.8060  -35.1460   23.5500 C   0  0  0  0  0  0  0  0  0  0  0  0
  -26.4740  -35.0420   22.5160 O   0  0  0  0  0  0  0  0  0  0  0  0
  -24.9140  -34.2370   25.1270 H   0  0  0  0  0  0  0  0  0  0  0  0
  -24.0590  -36.9110   23.2030 C   0  0  0  0  0  1  0  0  0  0  0  0
  -25.3080  -36.5270   24.0110 C   0  0  0  0  0  3  0  0  0  0  0  0
  -27.4390  -37.4340   24.8220 C   0  0  0  0  0  1  0  0  0  0  0  0
  -26.3270  -37.5890   23.8900 N   0  0  0  0  0  0  0  0  0  0  0  0
  -25.9130  -38.5020   24.0380 H   0  0  0  0  0  0  0  0  0  0  0  0
  -26.5780  -22.0230   21.0100 C   0  0  0  0  0  2  0  0  0  0  0  0
  -27.8260  -21.2110   21.4130 C   0  0  0  0  0  2  0  0  0  0  0  0
  -28.2320  -20.1360   20.3760 C   0  0  0  0  0  2  0  0  0  0  0  0
  -29.5530  -19.5420   20.6980 N   0  0  0  0  0  4  0  0  0  0  0  0
  -29.6310  -19.4850   21.7010 H   0  0  0  0  0  0  0  0  0  0  0  0
  -30.2760  -20.1660   20.3690 H   0  0  0  0  0  0  0  0  0  0  0  0
  -29.7870  -18.1890   20.1540 C   0  0  0  0  0  2  0  0  0  0  0  0
  -31.2060  -17.6540   20.4870 C   0  0  0  0  0  2  0  0  0  0  0  0
  -31.9870  -15.2050   20.2520 C   0  0  0  0  0  0  0  0  0  0  0  0
  -31.8250  -12.8260   19.5950 C   0  0  0  0  0  2  0  0  0  0  0  0
  -30.9440  -12.7320   18.3310 C   0  0  0  0  0  2  0  0  0  0  0  0
  -29.4340  -12.7250   18.6640 C   0  0  0  0  0  2  0  0  0  0  0  0
  -29.0450  -13.8470   19.6610 C   0  0  0  0  0  3  0  0  0  0  0  0
  -29.9980  -13.8090   20.8760 C   0  0  0  0  0  2  0  0  0  0  0  0
  -31.3730  -13.9980   20.3560 N   0  0  0  0  0  0  0  0  0  0  0  0
  -33.1130  -15.3750   19.7680 O   0  0  0  0  0  0  0  0  0  0  0  0
  -31.1620  -16.2000   20.6310 N   0  0  0  0  0  0  0  0  0  0  0  0
  -30.3020  -15.8490   21.0210 H   0  0  0  0  0  0  0  0  0  0  0  0
  -26.7190  -14.7580   20.2950 C   0  0  0  0  0  0  0  0  0  0  0  0
  -25.5470  -14.1230   20.6320 C   0  0  0  0  0  0  0  0  0  0  0  0
  -25.8350  -12.7240   20.5830 C   0  0  0  0  0  0  0  0  0  0  0  0
  -27.6480  -13.7480   20.0810 N   0  0  0  0  0  0  0  0  0  0  0  0
  -27.1170  -12.5230   20.3120 N   0  0  0  0  0  0  0  0  0  0  0  0
  -24.9540  -11.5620   20.7300 C   0  0  0  0  0  0  0  0  0  0  0  0
  -25.2130  -10.5530   21.6860 C   0  0  0  0  0  3  0  0  0  0  0  0
  -24.3400   -9.4510   21.8180 C   0  0  0  0  0  3  0  0  0  0  0  0
  -23.1950   -9.3500   20.9920 C   0  0  0  0  0  0  0  0  0  0  0  0
  -22.9550  -10.3450   20.0270 C   0  0  0  0  0  3  0  0  0  0  0  0
  -23.8280  -11.4370   19.8940 C   0  0  0  0  0  3  0  0  0  0  0  0
  -22.3060   -8.3020   21.0290 O   0  0  0  0  0  0  0  0  0  0  0  0
  -22.0450   -7.6260   22.1950 C   0  0  0  0  0  0  0  0  0  0  0  0
  -21.5720   -8.2830   23.3520 C   0  0  0  0  0  3  0  0  0  0  0  0
  -21.2500   -7.5390   24.5030 C   0  0  0  0  0  3  0  0  0  0  0  0
  -21.3910   -6.1370   24.4990 C   0  0  0  0  0  0  0  0  0  0  0  0
  -21.8570   -5.4800   23.3470 C   0  0  0  0  0  3  0  0  0  0  0  0
  -22.1810   -6.2230   22.1980 C   0  0  0  0  0  0  0  0  0  0  0  0
  -22.6090   -5.5810   21.0840 F   0  0  0  0  0  0  0  0  0  0  0  0
  -21.0740   -5.4220   25.6030 F   0  0  0  0  0  0  0  0  0  0  0  0
  -24.2140  -14.7650   20.8670 C   0  0  0  0  0  0  0  0  0  0  0  0
  -23.3810  -14.1660   21.7090 N   0  0  0  0  0  0  0  0  0  0  0  0
  -23.9190  -15.8430   20.3450 O   0  0  0  0  0  0  0  0  0  0  0  0
  -23.6270  -13.2960   22.1610 H   0  0  0  0  0  0  0  0  0  0  0  0
  -22.4830  -14.5790   21.9120 H   0  0  0  0  0  0  0  0  0  0  0  0
  -27.0500  -16.0980   20.1320 N   0  0  0  0  0  0  0  0  0  0  0  0
  -26.2970  -16.7780   20.0930 H   0  0  0  0  0  0  0  0  0  0  0  0
  -27.8340  -16.3610   19.5470 H   0  0  0  0  0  0  0  0  0  0  0  0
  1  3  1  0
  1  2  1  0
  4  5  1  0
  4  1  1  0
  6  5  1  0
  7  6  1  0
  8 19  2  0
  9  7  1  0
  9 14  1  0
 10 18  1  0
 10 20  1  0
 11 17  1  0
 11 13  1  0
 12 18  1  0
 13 12  1  0
 14 13  2  0
 15 16  1  0
 15  9  2  0
 16 11  2  0
 17 10  1  0
 18  8  1  0
 20 22  2  0
 21 20  1  0
 23 21  1  0
 24 33  2  0
 24 29  1  0
 25 21  1  0
 25 29  1  0
 26 25  1  0
 27 28  1  0
 27 26  1  0
 28 24  1  0
 29 30  2  0
 30 31  1  0
 32 31  2  0
 33 32  1  0
 34  8  1  0
 34 39  1  0
 34 35  1  0
 35 38  1  1
 35 36  1  0
 37 35  1  0
 39 42  1  0
 40 44  1  0
 40 39  1  0
 41 40  2  0
 44 43  1  0
 46 44  1  0
 46 47  1  0
 46 45  1  0
 48 49  1  0
 48  1  1  0
 50 51  1  0
 50 49  1  0
 51 52  1  0
 53 51  1  0
 54 55  1  0
 54 51  1  0
 55 64  1  0
 56 62  1  0
 56 64  1  0
 57 62  1  0
 58 59  1  0
 58 57  1  0
 60 59  1  0
 60 69  1  0
 60 61  1  0
 62 61  1  0
 63 56  2  0
 64 65  1  0
 66 67  2  0
 67 86  1  0
 68 67  1  0
 68 71  1  0
 69 66  1  0
 69 70  1  0
 70 68  2  0
 71 72  1  0
 72 73  2  0
 74 77  1  0
 74 73  1  0
 75 74  2  0
 76 75  1  0
 76 71  2  0
 77 78  1  0
 78 83  2  0
 78 79  1  0
 79 80  2  0
 81 80  1  0
 81 85  1  0
 82 81  2  0
 83 82  1  0
 84 83  1  0
 86 87  1  0
 87 90  1  0
 87 89  1  0
 88 86  2  0
 91 66  1  0
 92 91  1  0
 93 91  1  0
M  ISO  4   6 101   7 101  56 100  64 100
M  END
>  <TORSDO>  (94) 
F 25

>  <SCORE>  (94) 
-9.166

>  <name>  (94) 
95

>  <ligand_id>  (94) 
95

>  <original_smiles>  (94) 
[H]c1c([H])c([H])c2c(c1[H])C([H])([H])C([H])([H])C([H])([H])C2([H])N([H])C(=O)C1([H])N(C(=O)C([H])(N([H])C(=O)C([H])(N([H])C([H])([H])[H])C([H])([H])[H])C(C([H])([H])[H])(C([H])([H])[H])C([H])([H])[H])C([H])([H])c2c([H])c(OC([H])([H])C([H])([H])C([H])([H])[N+]([H])([H])C([H])([H])C([H])([H])C([H])([H])[N+]([H])([H])C([H])([H])C([H])([H])N([H])C(=O)N3C([H])([H])C([H])([H])C([H])([H])C([H])(n4nc(-c5c([H])c([H])c(Oc6c([H])c([H])c(F)c([H])c6F)c([H])c5[H])c(C(=O)N([H])[H])c4N([H])[H])C3([H])[H])c([H])c([H])c2C1([H])[H]

>  <smiles>  (94) 
[H]c1c([H])c([H])c2c(c1[H])C([H])([H])C([H])([H])C([H])([H])C2([H])N([H])C(=O)C1([H])N(C(=O)C([H])(N([H])C(=O)C([H])(N([H])C([H])([H])[H])C([H])([H])[H])C(C([H])([H])[H])(C([H])([H])[H])C([H])([H])[H])C([H])([H])c2c([H])c(OC([H])([H])C([H])([H])C([H])([H])[N+]([H])([H])C([H])([H])C([H])([H])C([H])([H])[N+]([H])([H])C([H])([H])C([H])([H])N([H])C(=O)N3C([H])([H])C([H])([H])C([H])([H])C([H])(n4nc(-c5c([H])c([H])c(Oc6c([H])c([H])c(F)c([H])c6F)c([H])c5[H])c(C(=O)N([H])[H])c4N([H])[H])C3([H])[H])c([H])c([H])c2C1([H])[H]

$$$$
96:0:0
     RDKit          3D

100107  0  0  1  0  0  0  0  0999 V2000
  -22.6180  -24.5770   18.5600 C   0  0  0  0  0  2  0  0  0  0  0  0
  -24.5340  -23.3830   19.5950 C   0  0  0  0  0  0  0  0  0  0  0  0
  -24.0230  -24.1990   18.6700 N   0  0  0  0  0  0  0  0  0  0  0  0
  -23.8870  -23.0090   20.5760 O   0  0  0  0  0  0  0  0  0  0  0  0
  -24.6190  -24.4830   17.9000 H   0  0  0  0  0  0  0  0  0  0  0  0
  -25.8820  -22.9670   19.2540 C   0  0  0  0  0  3  0  0  0  0  0  0
  -26.5870  -22.1580   20.0660 C   0  0  0  0  0  3  0  0  0  0  0  0
  -27.9820  -21.6420   19.7640 C   0  0  0  0  0  2  0  0  0  0  0  0
  -28.1550  -20.1730   20.1930 C   0  0  0  0  0  2  0  0  0  0  0  0
  -29.6040  -19.6740   20.0620 C   0  0  0  0  0  2  0  0  0  0  0  0
  -29.8170  -18.2710   20.6620 C   0  0  0  0  0  2  0  0  0  0  0  0
  -31.2800  -17.8030   20.5480 C   0  0  0  0  0  2  0  0  0  0  0  0
  -31.6020  -16.5140   21.3280 C   0  0  0  0  0  2  0  0  0  0  0  0
  -31.2730  -14.4470   19.9490 C   0  0  0  0  0  0  0  0  0  0  0  0
  -30.8620  -12.2110   18.9770 C   0  0  0  0  0  2  0  0  0  0  0  0
  -29.8820  -12.2660   17.7900 C   0  0  0  0  0  2  0  0  0  0  0  0
  -28.4220  -12.2060   18.2800 C   0  0  0  0  0  2  0  0  0  0  0  0
  -28.1370  -13.2170   19.4190 C   0  0  0  0  0  3  0  0  0  0  0  0
  -29.2120  -13.1100   20.5210 C   0  0  0  0  0  2  0  0  0  0  0  0
  -30.5340  -13.3090   19.8980 N   0  0  0  0  0  0  0  0  0  0  0  0
  -32.2810  -14.6340   19.2590 O   0  0  0  0  0  0  0  0  0  0  0  0
  -30.8680  -15.3370   20.8640 N   0  0  0  0  0  0  0  0  0  0  0  0
  -30.0320  -15.0910   21.3740 H   0  0  0  0  0  0  0  0  0  0  0  0
  -25.8360  -14.0040   20.2710 C   0  0  0  0  0  0  0  0  0  0  0  0
  -24.7270  -13.3110   20.6780 C   0  0  0  0  0  0  0  0  0  0  0  0
  -25.0710  -11.9270   20.5850 C   0  0  0  0  0  0  0  0  0  0  0  0
  -26.7900  -13.0450   19.9630 N   0  0  0  0  0  0  0  0  0  0  0  0
  -26.3340  -11.7910   20.2050 N   0  0  0  0  0  0  0  0  0  0  0  0
  -24.2530  -10.7240   20.7830 C   0  0  0  0  0  0  0  0  0  0  0  0
  -24.6340   -9.7110   21.6910 C   0  0  0  0  0  3  0  0  0  0  0  0
  -23.8220   -8.5710   21.8760 C   0  0  0  0  0  3  0  0  0  0  0  0
  -22.6130   -8.4370   21.1530 C   0  0  0  0  0  0  0  0  0  0  0  0
  -22.2500   -9.4370   20.2330 C   0  0  0  0  0  3  0  0  0  0  0  0
  -23.0610  -10.5690   20.0470 C   0  0  0  0  0  3  0  0  0  0  0  0
  -21.7730   -7.3540   21.2470 O   0  0  0  0  0  0  0  0  0  0  0  0
  -21.6730   -6.6210   22.4030 C   0  0  0  0  0  0  0  0  0  0  0  0
  -21.3050   -7.2120   23.6310 C   0  0  0  0  0  3  0  0  0  0  0  0
  -21.1470   -6.4100   24.7790 C   0  0  0  0  0  3  0  0  0  0  0  0
  -21.3460   -5.0190   24.7000 C   0  0  0  0  0  0  0  0  0  0  0  0
  -21.7070   -4.4280   23.4760 C   0  0  0  0  0  3  0  0  0  0  0  0
  -21.8670   -5.2270   22.3300 C   0  0  0  0  0  0  0  0  0  0  0  0
  -22.1950   -4.6490   21.1490 F   0  0  0  0  0  0  0  0  0  0  0  0
  -21.1850   -4.2460   25.8000 F   0  0  0  0  0  0  0  0  0  0  0  0
  -23.3920  -13.8930   21.0420 C   0  0  0  0  0  0  0  0  0  0  0  0
  -22.6610  -13.2380   21.9380 N   0  0  0  0  0  0  0  0  0  0  0  0
  -23.0100  -14.9610   20.5680 O   0  0  0  0  0  0  0  0  0  0  0  0
  -22.9850  -12.3710   22.3420 H   0  0  0  0  0  0  0  0  0  0  0  0
  -21.7670  -13.6090   22.2250 H   0  0  0  0  0  0  0  0  0  0  0  0
  -26.1060  -15.3590   20.1230 N   0  0  0  0  0  0  0  0  0  0  0  0
  -25.4090  -16.0740   20.2980 H   0  0  0  0  0  0  0  0  0  0  0  0
  -26.9800  -15.7370   19.7760 H   0  0  0  0  0  0  0  0  0  0  0  0
  -22.3610  -25.5050   17.3520 C   0  0  0  0  0  2  0  0  0  0  0  0
  -23.2150  -25.1970   16.1100 C   0  0  0  0  0  2  0  0  0  0  0  0
  -24.5370  -25.6530   16.3650 O   0  0  0  0  0  0  0  0  0  0  0  0
  -25.4750  -25.3180   15.3510 C   0  0  0  0  0  2  0  0  0  0  0  0
  -26.8530  -25.8360   15.7870 C   0  0  0  0  0  2  0  0  0  0  0  0
  -27.1700  -25.2570   17.0460 O   0  0  0  0  0  0  0  0  0  0  0  0
  -28.4070  -25.6980   17.5910 C   0  0  0  0  0  2  0  0  0  0  0  0
  -28.3680  -25.5880   19.1290 C   0  0  0  0  0  2  0  0  0  0  0  0
  -28.2680  -26.8600   19.7710 O   0  0  0  0  0  0  0  0  0  0  0  0
  -24.5020  -31.8490   23.1300 C   0  0  0  0  0  0  0  0  0  0  0  0
  -27.0630  -27.5280   19.8220 C   0  0  0  0  0  0  0  0  0  0  0  0
  -23.2530  -30.5260   21.4550 C   0  0  0  0  0  3  0  0  0  0  0  0
  -24.6710  -29.0340   19.9550 C   0  0  0  0  0  0  0  0  0  0  0  0
  -25.7750  -30.8760   21.2250 C   0  0  0  0  0  2  0  0  0  0  0  0
  -25.8410  -29.5280   20.5380 C   0  0  0  0  0  0  0  0  0  0  0  0
  -27.0350  -28.7800   20.4730 C   0  0  0  0  0  3  0  0  0  0  0  0
  -25.8630  -27.0320   19.2650 C   0  0  0  0  0  3  0  0  0  0  0  0
  -24.6740  -27.7790   19.3270 C   0  0  0  0  0  3  0  0  0  0  0  0
  -23.4340  -29.8980   20.0490 C   0  0  0  0  0  2  0  0  0  0  0  0
  -24.5300  -31.0930   21.9980 N   0  0  0  0  0  0  0  0  0  0  0  0
  -23.4320  -32.1100   23.6980 O   0  0  0  0  0  0  0  0  0  0  0  0
  -22.6110  -29.4720   22.3850 C   0  0  0  0  0  0  0  0  0  0  0  0
  -21.2840  -29.3070   22.2690 N   0  0  0  0  0  0  0  0  0  0  0  0
  -23.3010  -28.8090   23.1650 O   0  0  0  0  0  0  0  0  0  0  0  0
  -20.7870  -29.8890   21.6090 H   0  0  0  0  0  0  0  0  0  0  0  0
  -17.9100  -28.1090   22.7560 C   0  0  0  0  0  0  0  0  0  0  0  0
  -20.4700  -28.3470   23.0160 C   0  0  0  0  0  3  0  0  0  0  0  0
  -20.5620  -26.9360   22.3900 C   0  0  0  0  0  2  0  0  0  0  0  0
  -19.4510  -26.6510   21.3750 C   0  0  0  0  0  2  0  0  0  0  0  0
  -18.0750  -26.7830   22.0350 C   0  0  0  0  0  2  0  0  0  0  0  0
  -19.0360  -28.8520   23.2030 C   0  0  0  0  0  0  0  0  0  0  0  0
  -18.8260  -30.0980   23.8350 C   0  0  0  0  0  3  0  0  0  0  0  0
  -17.5250  -30.5980   24.0290 C   0  0  0  0  0  3  0  0  0  0  0  0
  -16.4140  -29.8510   23.5990 C   0  0  0  0  0  3  0  0  0  0  0  0
  -16.6080  -28.6110   22.9670 C   0  0  0  0  0  3  0  0  0  0  0  0
  -25.8060  -32.4400   23.7530 C   0  0  0  0  0  3  0  0  0  0  0  0
  -25.5320  -33.8360   24.1110 N   0  0  0  0  0  0  0  0  0  0  0  0
  -25.8820  -34.8930   23.3650 C   0  0  0  0  0  0  0  0  0  0  0  0
  -26.5420  -34.7920   22.3260 O   0  0  0  0  0  0  0  0  0  0  0  0
  -24.9490  -33.9920   24.9200 H   0  0  0  0  0  0  0  0  0  0  0  0
  -24.1880  -36.7260   23.0530 C   0  0  0  0  0  1  0  0  0  0  0  0
  -25.4270  -36.2830   23.8470 C   0  0  0  0  0  3  0  0  0  0  0  0
  -27.5890  -37.1090   24.6700 C   0  0  0  0  0  1  0  0  0  0  0  0
  -26.4800  -37.3150   23.7430 N   0  0  0  0  0  0  0  0  0  0  0  0
  -26.0970  -38.2430   23.9040 H   0  0  0  0  0  0  0  0  0  0  0  0
  -26.3190  -31.6290   25.0070 C   0  0  1  0  0  0  0  0  0  0  0  0
  -25.2320  -31.3890   26.0790 C   0  0  0  0  0  1  0  0  0  0  0  0
  -26.8720  -30.2500   24.5780 C   0  0  0  0  0  1  0  0  0  0  0  0
  -27.4900  -32.3890   25.6760 C   0  0  0  0  0  1  0  0  0  0  0  0
  1  3  1  0
  2  4  2  0
  3  2  1  0
  5  3  1  0
  6  2  1  0
  6  7  2  0
  8  7  1  0
  8  9  1  0
 10  9  1  0
 10 11  1  0
 12 11  1  0
 12 13  1  0
 14 22  1  0
 15 20  1  0
 16 17  1  0
 16 15  1  0
 18 17  1  0
 18 27  1  0
 18 19  1  0
 20 14  1  0
 20 19  1  0
 21 14  2  0
 22 13  1  0
 22 23  1  0
 24 25  2  0
 25 44  1  0
 26 25  1  0
 26 29  1  0
 27 28  1  0
 27 24  1  0
 28 26  2  0
 29 30  1  0
 30 31  2  0
 32 35  1  0
 32 31  1  0
 33 32  2  0
 34 33  1  0
 34 29  2  0
 35 36  1  0
 36 37  1  0
 37 38  2  0
 39 38  1  0
 39 43  1  0
 40 39  2  0
 41 36  2  0
 41 40  1  0
 42 41  1  0
 44 45  1  0
 45 48  1  0
 45 47  1  0
 46 44  2  0
 49 24  1  0
 49 50  1  0
 51 49  1  0
 52  1  1  0
 53 54  1  0
 53 52  1  0
 55 56  1  0
 55 54  1  0
 56 57  1  0
 57 58  1  0
 58 59  1  0
 59 60  1  0
 60 62  1  0
 61 72  2  0
 62 67  1  0
 63 71  1  0
 63 73  1  0
 64 70  1  0
 64 66  1  0
 65 71  1  0
 66 65  1  0
 67 66  2  0
 68 69  1  0
 68 62  2  0
 69 64  2  0
 70 63  1  0
 71 61  1  0
 73 75  2  0
 74 73  1  0
 76 74  1  0
 77 86  2  0
 77 82  1  0
 78 74  1  0
 78 82  1  0
 79 78  1  0
 80 81  1  0
 80 79  1  0
 81 77  1  0
 82 83  2  0
 83 84  1  0
 85 84  2  0
 86 85  1  0
 87 61  1  0
 87 88  1  0
 87 97  1  0
 88 91  1  0
 89 93  1  0
 89 88  1  0
 90 89  2  0
 93 92  1  0
 95 93  1  0
 95 96  1  0
 95 94  1  0
 97100  1  1
 97 98  1  0
 99 97  1  0
M  ISO  4  14 100  22 100  59 101  60 101
M  END
>  <TORSDO>  (95) 
F 32

>  <SCORE>  (95) 
-10.132

>  <name>  (95) 
96

>  <ligand_id>  (95) 
96

>  <original_smiles>  (95) 
[H]C(C(=O)N([H])C([H])([H])C([H])([H])C([H])([H])OC([H])([H])C([H])([H])OC([H])([H])C([H])([H])Oc1c([H])c([H])c2c(c1[H])C([H])([H])N(C(=O)C([H])(N([H])C(=O)C([H])(N([H])C([H])([H])[H])C([H])([H])[H])C(C([H])([H])[H])(C([H])([H])[H])C([H])([H])[H])C([H])(C(=O)N([H])C1([H])c3c([H])c([H])c([H])c([H])c3C([H])([H])C([H])([H])C1([H])[H])C2([H])[H])=C([H])C([H])([H])C([H])([H])C([H])([H])C([H])([H])C([H])([H])C([H])([H])N([H])C(=O)N1C([H])([H])C([H])([H])C([H])([H])C([H])(n2nc(-c3c([H])c([H])c(Oc4c([H])c([H])c(F)c([H])c4F)c([H])c3[H])c(C(=O)N([H])[H])c2N([H])[H])C1([H])[H]

>  <smiles>  (95) 
[H]C(C(=O)N([H])C([H])([H])C([H])([H])C([H])([H])OC([H])([H])C([H])([H])OC([H])([H])C([H])([H])Oc1c([H])c([H])c2c(c1[H])C([H])([H])N(C(=O)C([H])(N([H])C(=O)C([H])(N([H])C([H])([H])[H])C([H])([H])[H])C(C([H])([H])[H])(C([H])([H])[H])C([H])([H])[H])C([H])(C(=O)N([H])C1([H])c3c([H])c([H])c([H])c([H])c3C([H])([H])C([H])([H])C1([H])[H])C2([H])[H])=C([H])C([H])([H])C([H])([H])C([H])([H])C([H])([H])C([H])([H])C([H])([H])N([H])C(=O)N1C([H])([H])C([H])([H])C([H])([H])C([H])(n2nc(-c3c([H])c([H])c(Oc4c([H])c([H])c(F)c([H])c4F)c([H])c3[H])c(C(=O)N([H])[H])c2N([H])[H])C1([H])[H]

$$$$
97:0:0
     RDKit          3D

 97104  0  0  1  0  0  0  0  0999 V2000
  -25.9100  -23.2920   16.3640 C   0  0  0  0  0  2  0  0  0  0  0  0
  -26.2150  -24.7950   16.2170 C   0  0  0  0  0  2  0  0  0  0  0  0
  -27.6520  -25.0460   15.9570 N   0  0  0  0  0  4  0  0  0  0  0  0
  -27.7370  -25.2750   14.9800 H   0  0  0  0  0  0  0  0  0  0  0  0
  -28.1840  -24.2070   16.1080 H   0  0  0  0  0  0  0  0  0  0  0  0
  -28.2540  -26.1500   16.7330 C   0  0  0  0  0  2  0  0  0  0  0  0
  -28.7650  -25.6790   18.1060 C   0  0  0  0  0  2  0  0  0  0  0  0
  -29.1440  -26.8360   19.0440 C   0  0  0  0  0  2  0  0  0  0  0  0
  -28.3820  -26.7760   20.2470 O   0  0  0  0  0  0  0  0  0  0  0  0
  -24.5920  -31.9400   23.2870 C   0  0  0  0  0  0  0  0  0  0  0  0
  -27.2150  -27.4950   20.2320 C   0  0  0  0  0  0  0  0  0  0  0  0
  -23.3700  -30.5310   21.6560 C   0  0  0  0  0  3  0  0  0  0  0  0
  -24.8150  -28.9720   20.2440 C   0  0  0  0  0  0  0  0  0  0  0  0
  -25.8920  -30.8820   21.4510 C   0  0  0  0  0  2  0  0  0  0  0  0
  -25.9730  -29.5100   20.8210 C   0  0  0  0  0  0  0  0  0  0  0  0
  -27.1760  -28.7760   20.8150 C   0  0  0  0  0  3  0  0  0  0  0  0
  -26.0400  -26.9500   19.6790 C   0  0  0  0  0  3  0  0  0  0  0  0
  -24.8380  -27.6850   19.6770 C   0  0  0  0  0  3  0  0  0  0  0  0
  -23.5710  -29.8320   20.2840 C   0  0  0  0  0  2  0  0  0  0  0  0
  -24.6350  -31.1290   22.1920 N   0  0  0  0  0  0  0  0  0  0  0  0
  -23.5150  -32.2240   23.8270 O   0  0  0  0  0  0  0  0  0  0  0  0
  -22.7120  -29.5260   22.6290 C   0  0  0  0  0  0  0  0  0  0  0  0
  -21.3880  -29.3510   22.5010 N   0  0  0  0  0  0  0  0  0  0  0  0
  -23.3930  -28.9040   23.4480 O   0  0  0  0  0  0  0  0  0  0  0  0
  -20.9050  -29.9110   21.8130 H   0  0  0  0  0  0  0  0  0  0  0  0
  -18.0080  -28.1730   22.9900 C   0  0  0  0  0  0  0  0  0  0  0  0
  -20.5660  -28.4250   23.2770 C   0  0  0  0  0  3  0  0  0  0  0  0
  -20.6680  -26.9870   22.7230 C   0  0  0  0  0  2  0  0  0  0  0  0
  -19.5720  -26.6540   21.7040 C   0  0  0  0  0  2  0  0  0  0  0  0
  -18.1890  -26.8140   22.3370 C   0  0  0  0  0  2  0  0  0  0  0  0
  -19.1270  -28.9350   23.4190 C   0  0  0  0  0  0  0  0  0  0  0  0
  -18.9110  -30.2080   23.9890 C   0  0  0  0  0  3  0  0  0  0  0  0
  -17.6100  -30.7210   24.1370 C   0  0  0  0  0  3  0  0  0  0  0  0
  -16.5040  -29.9540   23.7340 C   0  0  0  0  0  3  0  0  0  0  0  0
  -16.7040  -28.6830   23.1630 C   0  0  0  0  0  3  0  0  0  0  0  0
  -25.8870  -32.5630   23.8960 C   0  0  0  0  0  3  0  0  0  0  0  0
  -25.6010  -33.9690   24.2040 N   0  0  0  0  0  0  0  0  0  0  0  0
  -25.9520  -35.0020   23.4280 C   0  0  0  0  0  0  0  0  0  0  0  0
  -26.6260  -34.8730   22.4020 O   0  0  0  0  0  0  0  0  0  0  0  0
  -25.0110  -34.1460   25.0020 H   0  0  0  0  0  0  0  0  0  0  0  0
  -24.2500  -36.8120   23.0390 C   0  0  0  0  0  1  0  0  0  0  0  0
  -25.4800  -36.4010   23.8630 C   0  0  0  0  0  3  0  0  0  0  0  0
  -27.6230  -37.2680   24.6920 C   0  0  0  0  0  1  0  0  0  0  0  0
  -26.5260  -37.4400   23.7450 N   0  0  0  0  0  0  0  0  0  0  0  0
  -26.1310  -38.3670   23.8830 H   0  0  0  0  0  0  0  0  0  0  0  0
  -26.3980  -31.8030   25.1820 C   0  0  1  0  0  0  0  0  0  0  0  0
  -25.3080  -31.5910   26.2590 C   0  0  0  0  0  1  0  0  0  0  0  0
  -26.9700  -30.4160   24.8060 C   0  0  0  0  0  1  0  0  0  0  0  0
  -27.5580  -32.5940   25.8330 C   0  0  0  0  0  1  0  0  0  0  0  0
  -26.3470  -22.6870   17.7180 C   0  0  0  0  0  2  0  0  0  0  0  0
  -26.4200  -21.1480   17.7080 C   0  0  0  0  0  2  0  0  0  0  0  0
  -26.8360  -20.5750   19.0770 C   0  0  0  0  0  2  0  0  0  0  0  0
  -27.3940  -19.1410   19.0080 C   0  0  0  0  0  2  0  0  0  0  0  0
  -27.9860  -18.7230   20.3020 N   0  0  0  0  0  4  0  0  0  0  0  0
  -27.2530  -18.4030   20.9170 H   0  0  0  0  0  0  0  0  0  0  0  0
  -28.4060  -19.5340   20.7290 H   0  0  0  0  0  0  0  0  0  0  0  0
  -29.0360  -17.6870   20.1840 C   0  0  0  0  0  2  0  0  0  0  0  0
  -29.7820  -17.4430   21.5140 C   0  0  0  0  0  2  0  0  0  0  0  0
  -30.9670  -16.4620   21.3790 C   0  0  0  0  0  2  0  0  0  0  0  0
  -31.0540  -14.2440   20.1990 C   0  0  0  0  0  0  0  0  0  0  0  0
  -30.6300  -12.1520   18.9540 C   0  0  0  0  0  2  0  0  0  0  0  0
  -29.6520  -12.4160   17.7890 C   0  0  0  0  0  2  0  0  0  0  0  0
  -28.1860  -12.3440   18.2600 C   0  0  0  0  0  2  0  0  0  0  0  0
  -27.9350  -13.1840   19.5390 C   0  0  0  0  0  3  0  0  0  0  0  0
  -28.9990  -12.8480   20.6060 C   0  0  0  0  0  2  0  0  0  0  0  0
  -30.3280  -13.1100   20.0240 N   0  0  0  0  0  0  0  0  0  0  0  0
  -32.1020  -14.4870   19.5880 O   0  0  0  0  0  0  0  0  0  0  0  0
  -30.5100  -15.1090   21.0710 N   0  0  0  0  0  0  0  0  0  0  0  0
  -29.6760  -14.7880   21.5420 H   0  0  0  0  0  0  0  0  0  0  0  0
  -25.5920  -13.9410   20.2940 C   0  0  0  0  0  0  0  0  0  0  0  0
  -24.4890  -13.2330   20.6990 C   0  0  0  0  0  0  0  0  0  0  0  0
  -24.8700  -11.8570   20.6560 C   0  0  0  0  0  0  0  0  0  0  0  0
  -26.5770  -12.9980   20.0450 N   0  0  0  0  0  0  0  0  0  0  0  0
  -26.1470  -11.7410   20.3160 N   0  0  0  0  0  0  0  0  0  0  0  0
  -24.0760  -10.6400   20.8700 C   0  0  0  0  0  0  0  0  0  0  0  0
  -24.4710   -9.6620   21.8090 C   0  0  0  0  0  3  0  0  0  0  0  0
  -23.6860   -8.5060   22.0100 C   0  0  0  0  0  3  0  0  0  0  0  0
  -22.4920   -8.3220   21.2720 C   0  0  0  0  0  0  0  0  0  0  0  0
  -22.1160   -9.2890   20.3220 C   0  0  0  0  0  3  0  0  0  0  0  0
  -22.9010  -10.4370   20.1200 C   0  0  0  0  0  3  0  0  0  0  0  0
  -21.6800   -7.2200   21.3820 O   0  0  0  0  0  0  0  0  0  0  0  0
  -21.5880   -6.5110   22.5530 C   0  0  0  0  0  0  0  0  0  0  0  0
  -21.2030   -7.1200   23.7680 C   0  0  0  0  0  3  0  0  0  0  0  0
  -21.0540   -6.3370   24.9310 C   0  0  0  0  0  3  0  0  0  0  0  0
  -21.2800   -4.9490   24.8790 C   0  0  0  0  0  0  0  0  0  0  0  0
  -21.6570   -4.3400   23.6700 C   0  0  0  0  0  3  0  0  0  0  0  0
  -21.8090   -5.1200   22.5090 C   0  0  0  0  0  0  0  0  0  0  0  0
  -22.1530   -4.5250   21.3420 F   0  0  0  0  0  0  0  0  0  0  0  0
  -21.1290   -4.1960   25.9940 F   0  0  0  0  0  0  0  0  0  0  0  0
  -23.1310  -13.7930   21.0070 C   0  0  0  0  0  0  0  0  0  0  0  0
  -22.3970  -13.1470   21.9060 N   0  0  0  0  0  0  0  0  0  0  0  0
  -22.7320  -14.8350   20.4880 O   0  0  0  0  0  0  0  0  0  0  0  0
  -22.7350  -12.3050   22.3440 H   0  0  0  0  0  0  0  0  0  0  0  0
  -21.4860  -13.5000   22.1620 H   0  0  0  0  0  0  0  0  0  0  0  0
  -25.8280  -15.2970   20.0940 N   0  0  0  0  0  0  0  0  0  0  0  0
  -25.0610  -15.9600   20.1200 H   0  0  0  0  0  0  0  0  0  0  0  0
  -26.6290  -15.6290   19.5740 H   0  0  0  0  0  0  0  0  0  0  0  0
  1 50  1  0
  2  1  1  0
  3  5  1  0
  3  2  1  0
  3  6  1  0
  4  3  1  0
  6  7  1  0
  7  8  1  0
  8  9  1  0
 10 21  2  0
 11  9  1  0
 11 16  1  0
 12 20  1  0
 12 22  1  0
 13 19  1  0
 13 15  1  0
 14 20  1  0
 15 14  1  0
 16 15  2  0
 17 11  2  0
 18 17  1  0
 18 13  2  0
 19 12  1  0
 20 10  1  0
 22 24  2  0
 23 22  1  0
 25 23  1  0
 26 35  2  0
 26 31  1  0
 27 23  1  0
 27 31  1  0
 28 27  1  0
 29 30  1  0
 29 28  1  0
 30 26  1  0
 31 32  2  0
 32 33  1  0
 34 33  2  0
 35 34  1  0
 36 10  1  0
 36 37  1  0
 36 46  1  0
 37 40  1  0
 38 42  1  0
 38 37  1  0
 39 38  2  0
 42 41  1  0
 44 42  1  0
 44 45  1  0
 44 43  1  0
 46 49  1  1
 46 47  1  0
 48 46  1  0
 51 50  1  0
 51 52  1  0
 53 52  1  0
 53 54  1  0
 54 56  1  0
 54 55  1  0
 57 54  1  0
 57 58  1  0
 59 58  1  0
 60 68  1  0
 61 66  1  0
 62 63  1  0
 62 61  1  0
 64 63  1  0
 64 73  1  0
 64 65  1  0
 66 60  1  0
 66 65  1  0
 67 60  2  0
 68 59  1  0
 68 69  1  0
 70 71  2  0
 71 90  1  0
 72 71  1  0
 72 75  1  0
 73 70  1  0
 73 74  1  0
 74 72  2  0
 75 76  1  0
 76 77  2  0
 78 81  1  0
 78 77  1  0
 79 78  2  0
 80 79  1  0
 80 75  2  0
 81 82  1  0
 82 83  1  0
 83 84  2  0
 85 84  1  0
 85 89  1  0
 86 85  2  0
 87 82  2  0
 87 86  1  0
 88 87  1  0
 90 91  1  0
 91 94  1  0
 91 93  1  0
 92 90  2  0
 95 96  1  0
 95 70  1  0
 97 95  1  0
M  ISO  4   8 101   9 101  60 100  68 100
M  END
>  <TORSDO>  (96) 
F 29

>  <SCORE>  (96) 
-9.757

>  <name>  (96) 
97

>  <ligand_id>  (96) 
97

>  <original_smiles>  (96) 
[H]c1c([H])c([H])c2c(c1[H])C([H])([H])C([H])([H])C([H])([H])C2([H])N([H])C(=O)C1([H])N(C(=O)C([H])(N([H])C(=O)C([H])(N([H])C([H])([H])[H])C([H])([H])[H])C(C([H])([H])[H])(C([H])([H])[H])C([H])([H])[H])C([H])([H])c2c([H])c(OC([H])([H])C([H])([H])C([H])([H])[N+]([H])([H])C([H])([H])C([H])([H])C([H])([H])C([H])([H])C([H])([H])C([H])([H])[N+]([H])([H])C([H])([H])C([H])([H])C([H])([H])N([H])C(=O)N3C([H])([H])C([H])([H])C([H])([H])C([H])(n4nc(-c5c([H])c([H])c(Oc6c([H])c([H])c(F)c([H])c6F)c([H])c5[H])c(C(=O)N([H])[H])c4N([H])[H])C3([H])[H])c([H])c([H])c2C1([H])[H]

>  <smiles>  (96) 
[H]c1c([H])c([H])c2c(c1[H])C([H])([H])C([H])([H])C([H])([H])C2([H])N([H])C(=O)C1([H])N(C(=O)C([H])(N([H])C(=O)C([H])(N([H])C([H])([H])[H])C([H])([H])[H])C(C([H])([H])[H])(C([H])([H])[H])C([H])([H])[H])C([H])([H])c2c([H])c(OC([H])([H])C([H])([H])C([H])([H])[N+]([H])([H])C([H])([H])C([H])([H])C([H])([H])C([H])([H])C([H])([H])C([H])([H])[N+]([H])([H])C([H])([H])C([H])([H])C([H])([H])N([H])C(=O)N3C([H])([H])C([H])([H])C([H])([H])C([H])(n4nc(-c5c([H])c([H])c(Oc6c([H])c([H])c(F)c([H])c6F)c([H])c5[H])c(C(=O)N([H])[H])c4N([H])[H])C3([H])[H])c([H])c([H])c2C1([H])[H]

$$$$
