0:0:0
     RDKit          3D

 95102  0  0  1  0  0  0  0  0999 V2000
  -29.6970  -24.0770   24.5560 C   0  0  0  0  0  2  0  0  0  0  0  0
  -30.3960  -22.1390   23.1480 C   0  0  0  0  0  0  0  0  0  0  0  0
  -29.8900  -22.6490   24.2810 N   0  0  0  0  0  0  0  0  0  0  0  0
  -30.7590  -22.8390   22.1980 O   0  0  0  0  0  0  0  0  0  0  0  0
  -29.6540  -22.0040   25.0250 H   0  0  0  0  0  0  0  0  0  0  0  0
  -30.5200  -19.9630   22.0540 C   0  0  0  0  0  3  0  0  0  0  0  0
  -30.4500  -20.6880   23.1890 C   0  0  0  0  0  3  0  0  0  0  0  0
  -30.5340  -18.5100   22.0370 C   0  0  0  0  0  3  0  0  0  0  0  0
  -30.9430  -17.8110   20.9640 C   0  0  0  0  0  3  0  0  0  0  0  0
  -31.0020  -16.2990   20.8870 C   0  0  0  0  0  2  0  0  0  0  0  0
  -32.1690  -14.7280   19.3020 C   0  0  0  0  0  0  0  0  0  0  0  0
  -31.9270  -12.3310   18.7680 C   0  0  0  0  0  2  0  0  0  0  0  0
  -30.9080  -12.1660   17.6150 C   0  0  0  0  0  2  0  0  0  0  0  0
  -29.4540  -12.1470   18.1360 C   0  0  0  0  0  2  0  0  0  0  0  0
  -29.1650  -13.2960   19.1370 C   0  0  0  0  0  3  0  0  0  0  0  0
  -30.2690  -13.3110   20.2130 C   0  0  0  0  0  2  0  0  0  0  0  0
  -31.5540  -13.5340   19.5330 N   0  0  0  0  0  0  0  0  0  0  0  0
  -33.2050  -14.8230   18.6370 O   0  0  0  0  0  0  0  0  0  0  0  0
  -31.4550  -15.8400   19.5680 N   0  0  0  0  0  0  0  0  0  0  0  0
  -31.6860  -16.5990   18.9420 H   0  0  0  0  0  0  0  0  0  0  0  0
  -26.9280  -14.1640   20.0730 C   0  0  0  0  0  0  0  0  0  0  0  0
  -25.8150  -13.5120   20.5280 C   0  0  0  0  0  0  0  0  0  0  0  0
  -26.1070  -12.1190   20.4190 C   0  0  0  0  0  0  0  0  0  0  0  0
  -27.8350  -13.1720   19.7270 N   0  0  0  0  0  0  0  0  0  0  0  0
  -27.3450  -11.9350   19.9830 N   0  0  0  0  0  0  0  0  0  0  0  0
  -25.2560  -10.9470   20.6500 C   0  0  0  0  0  0  0  0  0  0  0  0
  -25.5990   -9.9680   21.6060 C   0  0  0  0  0  3  0  0  0  0  0  0
  -24.7580   -8.8540   21.8210 C   0  0  0  0  0  3  0  0  0  0  0  0
  -23.5580   -8.7180   21.0830 C   0  0  0  0  0  0  0  0  0  0  0  0
  -23.2340   -9.6870   20.1170 C   0  0  0  0  0  3  0  0  0  0  0  0
  -24.0740  -10.7920   19.9000 C   0  0  0  0  0  3  0  0  0  0  0  0
  -22.6900   -7.6610   21.2110 O   0  0  0  0  0  0  0  0  0  0  0  0
  -22.1400   -7.3220   22.4230 C   0  0  0  0  0  0  0  0  0  0  0  0
  -21.4860   -8.2740   23.2360 C   0  0  0  0  0  3  0  0  0  0  0  0
  -20.8740   -7.8680   24.4380 C   0  0  0  0  0  3  0  0  0  0  0  0
  -20.9030   -6.5140   24.8230 C   0  0  0  0  0  0  0  0  0  0  0  0
  -21.5490   -5.5660   24.0110 C   0  0  0  0  0  3  0  0  0  0  0  0
  -22.1620   -5.9680   22.8120 C   0  0  0  0  0  0  0  0  0  0  0  0
  -22.7650   -5.0470   22.0220 F   0  0  0  0  0  0  0  0  0  0  0  0
  -20.3100   -6.1220   25.9750 F   0  0  0  0  0  0  0  0  0  0  0  0
  -24.5200  -14.1420   20.9490 C   0  0  0  0  0  0  0  0  0  0  0  0
  -23.7980  -13.5080   21.8690 N   0  0  0  0  0  0  0  0  0  0  0  0
  -24.1570  -15.2290   20.5020 O   0  0  0  0  0  0  0  0  0  0  0  0
  -24.1020  -12.6300   22.2610 H   0  0  0  0  0  0  0  0  0  0  0  0
  -22.9280  -13.9100   22.1840 H   0  0  0  0  0  0  0  0  0  0  0  0
  -27.2360  -15.5110   19.9090 N   0  0  0  0  0  0  0  0  0  0  0  0
  -26.5710  -16.2460   20.1230 H   0  0  0  0  0  0  0  0  0  0  0  0
  -28.1060  -15.8620   19.5330 H   0  0  0  0  0  0  0  0  0  0  0  0
  -28.7330  -24.7390   23.5470 C   0  0  0  0  0  2  0  0  0  0  0  0
  -29.4150  -25.1890   22.3080 N   0  0  0  0  0  4  0  0  0  0  0  0
  -29.9360  -24.4140   21.9300 H   0  0  0  0  0  0  0  0  0  0  0  0
  -30.0850  -25.8950   22.5700 H   0  0  0  0  0  0  0  0  0  0  0  0
  -28.4890  -25.7140   21.2640 C   0  0  0  0  0  2  0  0  0  0  0  0
  -29.1250  -26.7610   20.3150 C   0  0  0  0  0  2  0  0  0  0  0  0
  -28.3700  -26.8670   19.0960 O   0  0  0  0  0  0  0  0  0  0  0  0
  -24.6580  -31.5000   22.9470 C   0  0  0  0  0  0  0  0  0  0  0  0
  -27.1920  -27.5570   19.2350 C   0  0  0  0  0  0  0  0  0  0  0  0
  -23.3550  -30.1700   21.3120 C   0  0  0  0  0  3  0  0  0  0  0  0
  -24.7270  -28.8730   19.6000 C   0  0  0  0  0  0  0  0  0  0  0  0
  -25.8060  -30.7340   20.8770 C   0  0  0  0  0  2  0  0  0  0  0  0
  -25.9030  -29.4300   20.1200 C   0  0  0  0  0  0  0  0  0  0  0  0
  -27.1380  -28.7750   19.9430 C   0  0  0  0  0  3  0  0  0  0  0  0
  -26.0130  -27.0250   18.6790 C   0  0  0  0  0  3  0  0  0  0  0  0
  -24.7740  -27.6710   18.8700 C   0  0  0  0  0  3  0  0  0  0  0  0
  -23.4450  -29.6340   19.8580 C   0  0  0  0  0  2  0  0  0  0  0  0
  -24.6300  -30.8120   21.7740 N   0  0  0  0  0  0  0  0  0  0  0  0
  -23.6320  -31.6470   23.6270 O   0  0  0  0  0  0  0  0  0  0  0  0
  -22.8810  -29.0250   22.2340 C   0  0  0  0  0  0  0  0  0  0  0  0
  -21.5980  -28.6550   22.1100 N   0  0  0  0  0  0  0  0  0  0  0  0
  -23.6640  -28.4790   23.0190 O   0  0  0  0  0  0  0  0  0  0  0  0
  -21.0190  -29.1640   21.4560 H   0  0  0  0  0  0  0  0  0  0  0  0
  -18.4950  -26.8390   22.4340 C   0  0  0  0  0  0  0  0  0  0  0  0
  -20.9390  -27.5790   22.8470 C   0  0  0  0  0  3  0  0  0  0  0  0
  -21.3450  -26.1960   22.2900 C   0  0  0  0  0  2  0  0  0  0  0  0
  -20.3830  -25.6700   21.2230 C   0  0  0  0  0  2  0  0  0  0  0  0
  -18.9630  -25.5510   21.7850 C   0  0  0  0  0  2  0  0  0  0  0  0
  -19.4220  -27.8000   22.9180 C   0  0  0  0  0  0  0  0  0  0  0  0
  -18.9310  -29.0010   23.4760 C   0  0  0  0  0  3  0  0  0  0  0  0
  -17.5470  -29.2420   23.5600 C   0  0  0  0  0  3  0  0  0  0  0  0
  -16.6340  -28.2770   23.0990 C   0  0  0  0  0  3  0  0  0  0  0  0
  -17.1100  -27.0810   22.5360 C   0  0  0  0  0  3  0  0  0  0  0  0
  -25.9710  -32.1580   23.4820 C   0  0  0  0  0  3  0  0  0  0  0  0
  -25.6440  -33.5300   23.8930 N   0  0  0  0  0  0  0  0  0  0  0  0
  -25.9120  -34.6230   23.1620 C   0  0  0  0  0  0  0  0  0  0  0  0
  -26.5280  -34.5820   22.0940 O   0  0  0  0  0  0  0  0  0  0  0  0
  -25.0980  -33.6330   24.7340 H   0  0  0  0  0  0  0  0  0  0  0  0
  -24.0840  -36.3460   23.0210 C   0  0  0  0  0  1  0  0  0  0  0  0
  -25.4070  -35.9710   23.7040 C   0  0  0  0  0  3  0  0  0  0  0  0
  -27.5720  -36.9200   24.3730 C   0  0  0  0  0  1  0  0  0  0  0  0
  -26.3830  -37.0740   23.5410 N   0  0  0  0  0  0  0  0  0  0  0  0
  -25.9530  -37.9680   23.7670 H   0  0  0  0  0  0  0  0  0  0  0  0
  -26.6280  -31.3600   24.6760 C   0  0  1  0  0  0  0  0  0  0  0  0
  -25.6500  -31.0500   25.8320 C   0  0  0  0  0  1  0  0  0  0  0  0
  -27.2080  -30.0180   24.1730 C   0  0  0  0  0  1  0  0  0  0  0  0
  -27.8130  -32.1630   25.2600 C   0  0  0  0  0  1  0  0  0  0  0  0
  2  7  1  0
  2  3  1  0
  3  1  1  0
  3  5  1  0
  4  2  2  0
  6  7  2  0
  8  6  1  0
  9  8  2  0
 10  9  1  0
 11 17  1  0
 11 19  1  0
 12 17  1  0
 13 14  1  0
 13 12  1  0
 15 14  1  0
 15 24  1  0
 15 16  1  0
 17 16  1  0
 18 11  2  0
 19 10  1  0
 20 19  1  0
 21 22  2  0
 22 41  1  0
 23 22  1  0
 23 26  1  0
 24 25  1  0
 24 21  1  0
 25 23  2  0
 26 27  1  0
 27 28  2  0
 29 32  1  0
 29 28  1  0
 30 29  2  0
 31 30  1  0
 31 26  2  0
 32 33  1  0
 33 38  2  0
 33 34  1  0
 34 35  2  0
 35 36  1  0
 36 40  1  0
 37 36  2  0
 38 37  1  0
 39 38  1  0
 41 42  1  0
 42 45  1  0
 42 44  1  0
 43 41  2  0
 46 21  1  0
 46 47  1  0
 48 46  1  0
 49  1  1  0
 50 52  1  0
 50 49  1  0
 51 50  1  0
 53 50  1  0
 54 53  1  0
 55 57  1  0
 55 54  1  0
 56 67  2  0
 57 62  1  0
 58 66  1  0
 58 68  1  0
 59 65  1  0
 59 61  1  0
 60 66  1  0
 61 60  1  0
 62 61  2  0
 63 64  1  0
 63 57  2  0
 64 59  2  0
 65 58  1  0
 66 56  1  0
 68 70  2  0
 69 68  1  0
 71 69  1  0
 72 81  2  0
 72 77  1  0
 73 69  1  0
 73 77  1  0
 74 73  1  0
 75 76  1  0
 75 74  1  0
 76 72  1  0
 77 78  2  0
 78 79  1  0
 80 79  2  0
 81 80  1  0
 82 56  1  0
 82 83  1  0
 82 92  1  0
 83 86  1  0
 84 88  1  0
 84 83  1  0
 85 84  2  0
 88 87  1  0
 90 88  1  0
 90 91  1  0
 90 89  1  0
 92 95  1  1
 92 93  1  0
 94 92  1  0
M  ISO  4  11 100  19 100  54 101  55 101
M  END
>  <TORSDO>  (1) 
F 24

>  <SCORE>  (1) 
-8.015

>  <name>  (1) 
0

>  <ligand_id>  (1) 
0

>  <original_smiles>  (1) 
[H]C(C(=O)N([H])C([H])([H])C([H])([H])[N+]([H])([H])C([H])([H])C([H])([H])Oc1c([H])c([H])c2c(c1[H])C([H])([H])N(C(=O)C([H])(N([H])C(=O)C([H])(N([H])C([H])([H])[H])C([H])([H])[H])C(C([H])([H])[H])(C([H])([H])[H])C([H])([H])[H])C([H])(C(=O)N([H])C1([H])c3c([H])c([H])c([H])c([H])c3C([H])([H])C([H])([H])C1([H])[H])C2([H])[H])=C([H])C([H])=C([H])C([H])([H])N([H])C(=O)N1C([H])([H])C([H])([H])C([H])([H])C([H])(n2nc(-c3c([H])c([H])c(Oc4c([H])c([H])c(F)c([H])c4F)c([H])c3[H])c(C(=O)N([H])[H])c2N([H])[H])C1([H])[H]

>  <smiles>  (1) 
[H]C(C(=O)N([H])C([H])([H])C([H])([H])[N+]([H])([H])C([H])([H])C([H])([H])Oc1c([H])c([H])c2c(c1[H])C([H])([H])N(C(=O)C([H])(N([H])C(=O)C([H])(N([H])C([H])([H])[H])C([H])([H])[H])C(C([H])([H])[H])(C([H])([H])[H])C([H])([H])[H])C([H])(C(=O)N([H])C1([H])c3c([H])c([H])c([H])c([H])c3C([H])([H])C([H])([H])C1([H])[H])C2([H])[H])=C([H])C([H])=C([H])C([H])([H])N([H])C(=O)N1C([H])([H])C([H])([H])C([H])([H])C([H])(n2nc(-c3c([H])c([H])c(Oc4c([H])c([H])c(F)c([H])c4F)c([H])c3[H])c(C(=O)N([H])[H])c2N([H])[H])C1([H])[H]

$$$$
1:0:0
     RDKit          3D

 94100  0  0  1  0  0  0  0  0999 V2000
  -22.3120  -28.3840   24.2300 C   0  0  0  0  0  3  0  0  0  0  0  0
  -21.8070  -29.2850   22.7370 N   0  0  0  0  0  4  0  0  0  0  0  0
  -21.2420  -30.0560   23.0590 H   0  0  0  0  0  0  0  0  0  0  0  0
  -22.6850  -29.7410   22.5010 H   0  0  0  0  0  0  0  0  0  0  0  0
  -21.0670  -28.7830   21.1300 C   0  0  0  0  0  1  0  0  0  0  0  0
  -21.8450  -27.8590   19.5370 C   0  0  0  0  0  1  0  0  0  0  0  0
  -23.5850  -27.4090   18.8210 C   0  0  0  0  0  2  0  0  0  0  0  0
  -25.1860  -27.9980   18.4880 O   0  0  0  0  0  0  0  0  0  0  0  0
  -27.1920  -28.8370   23.5820 C   0  0  0  0  0  0  0  0  0  0  0  0
  -25.6860  -29.2030   17.9950 C   0  0  0  0  0  3  0  0  0  0  0  0
  -25.1460  -28.5990   22.2810 C   0  0  0  0  0  3  0  0  0  0  0  0
  -24.7310  -30.0120   20.2840 C   0  0  0  0  0  3  0  0  0  0  0  0
  -26.9390  -30.0860   21.4230 C   0  0  0  0  0  2  0  0  0  0  0  0
  -26.1230  -29.9690   20.1600 C   0  0  0  0  0  3  0  0  0  0  0  0
  -26.6550  -29.7050   18.8930 C   0  0  0  0  0  2  0  0  0  0  0  0
  -24.5070  -29.8850   17.8680 C   0  0  0  0  0  2  0  0  0  0  0  0
  -23.9220  -30.1530   19.1260 C   0  0  0  0  0  2  0  0  0  0  0  0
  -24.2730  -29.7690   21.6760 C   0  0  0  0  0  2  0  0  0  0  0  0
  -26.4750  -29.1630   22.4790 N   0  0  0  0  0  0  0  0  0  0  0  0
  -26.7340  -28.1140   24.4880 O   0  0  0  0  0  0  0  0  0  0  0  0
  -25.2970  -27.0940   21.4930 C   0  0  0  0  0  0  0  0  0  0  0  0
  -24.2840  -26.1140   20.8970 N   0  0  0  0  0  0  0  0  0  0  0  0
  -26.3990  -26.6640   21.5440 O   0  0  0  0  0  0  0  0  0  0  0  0
  -24.8800  -25.5230   20.3360 H   0  0  0  0  0  0  0  0  0  0  0  0
  -20.1510  -24.8100   20.6850 C   0  0  0  0  0  0  0  0  0  0  0  0
  -22.8200  -25.2590   21.0440 C   0  0  0  0  0  3  0  0  0  0  0  0
  -22.9490  -24.2900   19.9120 C   0  0  0  0  0  2  0  0  0  0  0  0
  -21.8270  -24.3840   18.9150 C   0  0  0  0  0  2  0  0  0  0  0  0
  -20.5500  -23.8980   19.5620 C   0  0  0  0  0  2  0  0  0  0  0  0
  -21.1480  -25.5280   21.4290 C   0  0  0  0  0  0  0  0  0  0  0  0
  -20.4870  -26.3040   22.4800 C   0  0  0  0  0  3  0  0  0  0  0  0
  -19.0900  -26.4420   22.6770 C   0  0  0  0  0  3  0  0  0  0  0  0
  -18.1990  -25.6970   21.9070 C   0  0  0  0  0  3  0  0  0  0  0  0
  -18.7490  -24.8660   20.9260 C   0  0  0  0  0  3  0  0  0  0  0  0
  -28.6330  -29.3530   23.7000 C   0  0  0  0  0  3  0  0  0  0  0  0
  -29.6740  -28.1700   23.7450 C   0  0  1  0  0  0  0  0  0  0  0  0
  -29.3800  -27.1140   24.8430 C   0  0  0  0  0  1  0  0  0  0  0  0
  -29.7780  -27.4380   22.3810 C   0  0  0  0  0  1  0  0  0  0  0  0
  -31.0740  -28.7510   24.0150 C   0  0  0  0  0  1  0  0  0  0  0  0
  -28.7100  -30.1910   24.9000 N   0  0  0  0  0  0  0  0  0  0  0  0
  -28.9630  -31.5080   24.8800 C   0  0  0  0  0  0  0  0  0  0  0  0
  -29.2020  -32.1330   23.8420 O   0  0  0  0  0  0  0  0  0  0  0  0
  -28.5010  -29.7420   25.7790 H   0  0  0  0  0  0  0  0  0  0  0  0
  -27.7920  -33.2150   26.3020 C   0  0  0  0  0  1  0  0  0  0  0  0
  -28.9740  -32.2370   26.2370 C   0  0  0  0  0  3  0  0  0  0  0  0
  -31.3780  -32.1000   26.7480 C   0  0  0  0  0  1  0  0  0  0  0  0
  -30.2300  -32.9690   26.5020 N   0  0  0  0  0  0  0  0  0  0  0  0
  -30.1190  -33.5890   27.2980 H   0  0  0  0  0  0  0  0  0  0  0  0
  -23.3300  -26.7560   24.6320 C   0  0  0  0  0  3  0  0  0  0  0  0
  -24.0370  -25.1860   23.8350 C   0  0  0  0  0  2  0  0  0  0  0  0
  -25.3930  -24.5670   23.0400 O   0  0  0  0  0  0  0  0  0  0  0  0
  -25.6840  -23.2990   21.9550 C   0  0  0  0  0  2  0  0  0  0  0  0
  -27.0370  -22.6320   20.8640 C   0  0  0  0  0  3  0  0  0  0  0  0
  -27.5100  -21.0510   20.0380 C   0  0  0  0  0  3  0  0  0  0  0  0
  -28.6070  -20.4490   18.6680 C   0  0  0  0  0  2  0  0  0  0  0  0
  -29.9000  -19.1650   18.3410 C   0  0  0  0  0  2  0  0  0  0  0  0
  -31.3370  -17.1310   16.5280 C   0  0  0  0  0  0  0  0  0  0  0  0
  -32.7020  -16.0910   14.5050 C   0  0  0  0  0  2  0  0  0  0  0  0
  -33.6080  -17.0930   13.7190 C   0  0  0  0  0  2  0  0  0  0  0  0
  -32.7670  -17.9740   12.7760 C   0  0  0  0  0  2  0  0  0  0  0  0
  -31.4640  -18.4410   13.4670 C   0  0  0  0  0  3  0  0  0  0  0  0
  -30.6850  -17.2750   14.0920 C   0  0  0  0  0  2  0  0  0  0  0  0
  -31.5310  -16.8040   15.1630 N   0  0  0  0  0  0  0  0  0  0  0  0
  -32.0700  -16.4230   17.2570 O   0  0  0  0  0  0  0  0  0  0  0  0
  -30.4350  -18.2710   16.9790 N   0  0  0  0  0  0  0  0  0  0  0  0
  -29.9540  -18.6140   16.1590 H   0  0  0  0  0  0  0  0  0  0  0  0
  -30.3150  -20.5590   12.6860 C   0  0  0  0  0  0  0  0  0  0  0  0
  -29.4760  -20.8110   11.6390 C   0  0  0  0  0  0  0  0  0  0  0  0
  -29.2770  -19.5600   10.9780 C   0  0  0  0  0  0  0  0  0  0  0  0
  -30.5980  -19.2100   12.6070 N   0  0  0  0  0  0  0  0  0  0  0  0
  -29.9170  -18.5900   11.6150 N   0  0  0  0  0  0  0  0  0  0  0  0
  -28.5690  -19.2420    9.7350 C   0  0  0  0  0  0  0  0  0  0  0  0
  -27.4230  -18.4170    9.7300 C   0  0  0  0  0  3  0  0  0  0  0  0
  -26.7480  -18.1430    8.5220 C   0  0  0  0  0  3  0  0  0  0  0  0
  -27.2180  -18.6970    7.3060 C   0  0  0  0  0  0  0  0  0  0  0  0
  -28.3730  -19.4980    7.3160 C   0  0  0  0  0  3  0  0  0  0  0  0
  -29.0470  -19.7670    8.5180 C   0  0  0  0  0  3  0  0  0  0  0  0
  -26.6440  -18.4640    6.0800 O   0  0  0  0  0  0  0  0  0  0  0  0
  -25.2950  -18.2540    5.9460 C   0  0  0  0  0  0  0  0  0  0  0  0
  -24.3500  -19.2520    6.2710 C   0  0  0  0  0  3  0  0  0  0  0  0
  -22.9790  -19.0190    6.0530 C   0  0  0  0  0  3  0  0  0  0  0  0
  -22.5500  -17.7960    5.5030 C   0  0  0  0  0  0  0  0  0  0  0  0
  -23.4890  -16.8030    5.1740 C   0  0  0  0  0  3  0  0  0  0  0  0
  -24.8590  -17.0340    5.3930 C   0  0  0  0  0  0  0  0  0  0  0  0
  -25.7630  -16.0830    5.0550 F   0  0  0  0  0  0  0  0  0  0  0  0
  -21.2330  -17.5740    5.2870 F   0  0  0  0  0  0  0  0  0  0  0  0
  -28.9760  -22.1590   11.2170 C   0  0  0  0  0  0  0  0  0  0  0  0
  -27.7640  -22.2160   10.6760 N   0  0  0  0  0  0  0  0  0  0  0  0
  -29.6400  -23.1750   11.4130 O   0  0  0  0  0  0  0  0  0  0  0  0
  -27.2160  -21.3800   10.5350 H   0  0  0  0  0  0  0  0  0  0  0  0
  -27.3810  -23.1090   10.4000 H   0  0  0  0  0  0  0  0  0  0  0  0
  -30.8740  -21.3590   13.6770 N   0  0  0  0  0  0  0  0  0  0  0  0
  -30.7170  -22.3620   13.6860 H   0  0  0  0  0  0  0  0  0  0  0  0
  -31.6190  -21.0730   14.2970 H   0  0  0  0  0  0  0  0  0  0  0  0
  1 49  2  0
  2  3  1  0
  2  1  1  0
  4  2  1  0
  5  2  1  0
  7  6  1  0
  8  7  1  0
  9 20  2  0
 10  8  1  0
 10 15  1  0
 11 21  1  0
 11 19  1  0
 12 17  1  0
 12 18  1  0
 13 19  1  0
 14 15  1  0
 14 12  1  0
 14 13  1  0
 16 10  1  0
 16 17  1  0
 18 11  1  0
 19  9  1  0
 21 23  2  0
 22 21  1  0
 24 22  1  0
 25 34  2  0
 25 30  1  0
 26 22  1  0
 26 30  1  0
 27 26  1  0
 28 29  1  0
 28 27  1  0
 29 25  1  0
 30 31  2  0
 31 32  1  0
 33 32  2  0
 34 33  1  0
 35  9  1  0
 35 36  1  0
 35 40  1  0
 36 39  1  1
 36 37  1  0
 38 36  1  0
 40 43  1  0
 41 40  1  0
 41 45  1  0
 42 41  2  0
 45 44  1  0
 45 47  1  0
 47 46  1  0
 47 48  1  0
 50 49  1  0
 51 50  1  0
 52 51  1  0
 53 52  1  0
 54 53  2  0
 55 54  1  0
 56 55  1  0
 57 65  1  0
 57 64  2  0
 58 63  1  0
 59 58  1  0
 60 61  1  0
 60 59  1  0
 61 70  1  0
 61 62  1  0
 62 63  1  0
 63 57  1  0
 65 56  1  0
 66 65  1  0
 67 92  1  0
 68 67  2  0
 69 71  2  0
 69 68  1  0
 70 67  1  0
 71 70  1  0
 72 69  1  0
 73 72  1  0
 74 73  2  0
 75 76  2  0
 75 74  1  0
 76 77  1  0
 77 72  2  0
 78 75  1  0
 79 78  1  0
 79 80  1  0
 81 80  2  0
 82 81  1  0
 83 84  1  0
 83 82  2  0
 84 79  2  0
 85 84  1  0
 86 82  1  0
 87 89  2  0
 87 68  1  0
 88 87  1  0
 90 88  1  0
 91 88  1  0
 92 93  1  0
 92 94  1  0
M  ISO  4   7 101   8 101  57 100  65 100
M  END
>  <TORSDO>  (2) 
F 28

>  <SCORE>  (2) 
-4.067

>  <name>  (2) 
1

>  <ligand_id>  (2) 
1

>  <original_smiles>  (2) 
[H]c1c([H])c([H])c2c(c1[H])C([H])([H])C([H])([H])C([H])([H])C2([H])N([H])C(=O)C1([H])N(C(=O)C([H])(N([H])C(=O)C([H])(N([H])C([H])([H])[H])C([H])([H])[H])C(C([H])([H])[H])(C([H])([H])[H])C([H])([H])[H])C([H])([H])c2c([H])c(OC([H])([H])C([H])([H])C([H])([H])[N+]([H])([H])C([H])([H])C([H])([H])C([H])([H])OC([H])([H])C([H])([H])C([H])([H])C([H])([H])C([H])([H])N([H])C(=O)N3C([H])([H])C([H])([H])C([H])([H])C([H])(n4nc(-c5c([H])c([H])c(Oc6c([H])c([H])c(F)c([H])c6F)c([H])c5[H])c(C(=O)N([H])[H])c4N([H])[H])C3([H])[H])c([H])c([H])c2C1([H])[H]

>  <smiles>  (2) 
[H]c1c([H])c([H])c2c(c1[H])C([H])([H])C([H])([H])C([H])([H])C2([H])N([H])C(=O)C1([H])N(C(=O)C([H])(N([H])C(=O)C([H])(N([H])C([H])([H])[H])C([H])([H])[H])C(C([H])([H])[H])(C([H])([H])[H])C([H])([H])[H])C([H])([H])c2c([H])c(OC([H])([H])C([H])([H])C([H])([H])[N+]([H])([H])C([H])([H])C([H])([H])C([H])([H])OC([H])([H])C([H])([H])C([H])([H])C([H])([H])C([H])([H])N([H])C(=O)N3C([H])([H])C([H])([H])C([H])([H])C([H])(n4nc(-c5c([H])c([H])c(Oc6c([H])c([H])c(F)c([H])c6F)c([H])c5[H])c(C(=O)N([H])[H])c4N([H])[H])C3([H])[H])c([H])c([H])c2C1([H])[H]

$$$$
2:0:0
     RDKit          3D

 94101  0  0  1  0  0  0  0  0999 V2000
  -29.6420  -20.9360   21.3980 C   0  0  0  0  0  2  0  0  0  0  0  0
  -30.6720  -19.9460   21.1280 N   0  0  0  0  0  0  0  0  0  0  0  0
  -31.5750  -20.4220   21.0650 H   0  0  0  0  0  0  0  0  0  0  0  0
  -30.7350  -18.9250   22.1710 C   0  0  0  0  0  2  0  0  0  0  0  0
  -31.8620  -17.9180   21.9090 C   0  0  0  0  0  2  0  0  0  0  0  0
  -31.8940  -16.8860   22.9590 N   0  0  0  0  0  4  0  0  0  0  0  0
  -32.0680  -17.3110   23.8560 H   0  0  0  0  0  0  0  0  0  0  0  0
  -30.9930  -16.4390   22.9960 H   0  0  0  0  0  0  0  0  0  0  0  0
  -32.8850  -15.8220   22.7330 C   0  0  0  0  0  2  0  0  0  0  0  0
  -32.2320  -14.4410   22.8820 C   0  0  0  0  0  2  0  0  0  0  0  0
  -30.8940  -14.1770   20.8090 C   0  0  0  0  0  0  0  0  0  0  0  0
  -30.3960  -12.2840   19.3380 C   0  0  0  0  0  2  0  0  0  0  0  0
  -29.4510  -12.5440   18.1610 C   0  0  0  0  0  2  0  0  0  0  0  0
  -27.9900  -12.3770   18.6060 C   0  0  0  0  0  2  0  0  0  0  0  0
  -27.6620  -13.2040   19.8750 C   0  0  0  0  0  3  0  0  0  0  0  0
  -28.7060  -12.9650   20.9880 C   0  0  0  0  0  2  0  0  0  0  0  0
  -30.0550  -13.1890   20.4400 N   0  0  0  0  0  0  0  0  0  0  0  0
  -31.7480  -14.6780   20.0730 O   0  0  0  0  0  0  0  0  0  0  0  0
  -30.9730  -14.2790   22.1430 N   0  0  0  0  0  0  0  0  0  0  0  0
  -30.2410  -13.7850   22.6350 H   0  0  0  0  0  0  0  0  0  0  0  0
  -25.2580  -13.8170   20.5690 C   0  0  0  0  0  0  0  0  0  0  0  0
  -24.1830  -13.0440   20.9180 C   0  0  0  0  0  0  0  0  0  0  0  0
  -24.6370  -11.6910   20.8720 C   0  0  0  0  0  0  0  0  0  0  0  0
  -26.3030  -12.9340   20.3400 N   0  0  0  0  0  0  0  0  0  0  0  0
  -25.9300  -11.6490   20.5780 N   0  0  0  0  0  0  0  0  0  0  0  0
  -23.9040  -10.4290   21.0390 C   0  0  0  0  0  0  0  0  0  0  0  0
  -24.3590   -9.4210   21.9180 C   0  0  0  0  0  3  0  0  0  0  0  0
  -23.6280   -8.2240   22.0750 C   0  0  0  0  0  3  0  0  0  0  0  0
  -22.4260   -8.0270   21.3540 C   0  0  0  0  0  0  0  0  0  0  0  0
  -21.9890   -9.0250   20.4640 C   0  0  0  0  0  3  0  0  0  0  0  0
  -22.7210  -10.2130   20.3050 C   0  0  0  0  0  3  0  0  0  0  0  0
  -21.6630   -6.8870   21.4240 O   0  0  0  0  0  0  0  0  0  0  0  0
  -21.6850   -6.0730   22.5280 C   0  0  0  0  0  0  0  0  0  0  0  0
  -21.4020   -6.5640   23.8220 C   0  0  0  0  0  3  0  0  0  0  0  0
  -21.3650   -5.6800   24.9180 C   0  0  0  0  0  3  0  0  0  0  0  0
  -21.6040   -4.3050   24.7230 C   0  0  0  0  0  0  0  0  0  0  0  0
  -21.8810   -3.8150   23.4350 C   0  0  0  0  0  3  0  0  0  0  0  0
  -21.9190   -4.6960   22.3410 C   0  0  0  0  0  0  0  0  0  0  0  0
  -22.1660   -4.2140   21.0980 F   0  0  0  0  0  0  0  0  0  0  0  0
  -21.5620   -3.4540   25.7740 F   0  0  0  0  0  0  0  0  0  0  0  0
  -22.7850  -13.5240   21.1850 C   0  0  0  0  0  0  0  0  0  0  0  0
  -22.0490  -12.8230   22.0400 N   0  0  0  0  0  0  0  0  0  0  0  0
  -22.3540  -14.5560   20.6720 O   0  0  0  0  0  0  0  0  0  0  0  0
  -22.4090  -11.9870   22.4770 H   0  0  0  0  0  0  0  0  0  0  0  0
  -21.1110  -13.1270   22.2610 H   0  0  0  0  0  0  0  0  0  0  0  0
  -25.4330  -15.1890   20.4080 N   0  0  0  0  0  0  0  0  0  0  0  0
  -24.6710  -15.8520   20.5120 H   0  0  0  0  0  0  0  0  0  0  0  0
  -26.2970  -15.6230   20.1070 H   0  0  0  0  0  0  0  0  0  0  0  0
  -29.7340  -22.1070   20.4180 C   0  0  0  0  0  2  0  0  0  0  0  0
  -28.9470  -23.2150   20.9310 N   0  0  0  0  0  0  0  0  0  0  0  0
  -29.2550  -23.4240   21.8820 H   0  0  0  0  0  0  0  0  0  0  0  0
  -29.0370  -24.4320   20.1290 C   0  0  0  0  0  2  0  0  0  0  0  0
  -28.3460  -25.5850   20.8610 C   0  0  0  0  0  2  0  0  0  0  0  0
  -28.3980  -26.7620   20.0660 O   0  0  0  0  0  0  0  0  0  0  0  0
  -24.6100  -31.8710   23.2130 C   0  0  0  0  0  0  0  0  0  0  0  0
  -27.2350  -27.4820   20.0830 C   0  0  0  0  0  0  0  0  0  0  0  0
  -23.3960  -30.4940   21.5530 C   0  0  0  0  0  3  0  0  0  0  0  0
  -24.8430  -28.9650   20.1160 C   0  0  0  0  0  0  0  0  0  0  0  0
  -25.9200  -30.8500   21.3590 C   0  0  0  0  0  2  0  0  0  0  0  0
  -26.0000  -29.4880   20.7070 C   0  0  0  0  0  0  0  0  0  0  0  0
  -27.2030  -28.7530   20.6880 C   0  0  0  0  0  3  0  0  0  0  0  0
  -26.0660  -26.9590   19.4930 C   0  0  0  0  0  3  0  0  0  0  0  0
  -24.8670  -27.6960   19.5090 C   0  0  0  0  0  3  0  0  0  0  0  0
  -23.6010  -29.8240   20.1680 C   0  0  0  0  0  2  0  0  0  0  0  0
  -24.6600  -31.0850   22.1010 N   0  0  0  0  0  0  0  0  0  0  0  0
  -23.5310  -32.1440   23.7560 O   0  0  0  0  0  0  0  0  0  0  0  0
  -22.7380  -29.4670   22.5010 C   0  0  0  0  0  0  0  0  0  0  0  0
  -21.4120  -29.3020   22.3750 N   0  0  0  0  0  0  0  0  0  0  0  0
  -23.4170  -28.8220   23.3040 O   0  0  0  0  0  0  0  0  0  0  0  0
  -20.9270  -29.8730   21.6960 H   0  0  0  0  0  0  0  0  0  0  0  0
  -18.0270  -28.1370   22.8500 C   0  0  0  0  0  0  0  0  0  0  0  0
  -20.5850  -28.3650   23.1340 C   0  0  0  0  0  3  0  0  0  0  0  0
  -20.6770  -26.9390   22.5420 C   0  0  0  0  0  2  0  0  0  0  0  0
  -19.5750  -26.6390   21.5210 C   0  0  0  0  0  2  0  0  0  0  0  0
  -18.1920  -26.7920   22.1620 C   0  0  0  0  0  2  0  0  0  0  0  0
  -19.1510  -28.8820   23.2920 C   0  0  0  0  0  0  0  0  0  0  0  0
  -18.9440  -30.1440   23.8920 C   0  0  0  0  0  3  0  0  0  0  0  0
  -17.6440  -30.6580   24.0560 C   0  0  0  0  0  3  0  0  0  0  0  0
  -16.5340  -29.9080   23.6320 C   0  0  0  0  0  3  0  0  0  0  0  0
  -16.7250  -28.6500   23.0340 C   0  0  0  0  0  3  0  0  0  0  0  0
  -25.9020  -32.4840   23.8410 C   0  0  0  0  0  3  0  0  0  0  0  0
  -26.4470  -31.6600   25.0720 C   0  0  1  0  0  0  0  0  0  0  0  0
  -25.3750  -31.3680   26.1480 C   0  0  0  0  0  1  0  0  0  0  0  0
  -27.0280  -30.3050   24.6050 C   0  0  0  0  0  1  0  0  0  0  0  0
  -27.6070  -32.4290   25.7470 C   0  0  0  0  0  1  0  0  0  0  0  0
  -25.5890  -33.8640   24.2350 N   0  0  0  0  0  0  0  0  0  0  0  0
  -25.9030  -34.9490   23.5140 C   0  0  0  0  0  0  0  0  0  0  0  0
  -26.5580  -34.8930   22.4690 O   0  0  0  0  0  0  0  0  0  0  0  0
  -25.0050  -33.9800   25.0510 H   0  0  0  0  0  0  0  0  0  0  0  0
  -24.1490  -36.7320   23.2640 C   0  0  0  0  0  1  0  0  0  0  0  0
  -25.4100  -36.3120   24.0340 C   0  0  0  0  0  3  0  0  0  0  0  0
  -27.5580  -37.1810   24.8460 C   0  0  0  0  0  1  0  0  0  0  0  0
  -26.4290  -37.3800   23.9400 N   0  0  0  0  0  0  0  0  0  0  0  0
  -26.0190  -38.2880   24.1420 H   0  0  0  0  0  0  0  0  0  0  0  0
  2  1  1  0
  2  4  1  0
  3  2  1  0
  5  4  1  0
  5  6  1  0
  6  8  1  0
  6  7  1  0
  9 10  1  0
  9  6  1  0
 11 19  1  0
 12 17  1  0
 13 14  1  0
 13 12  1  0
 15 14  1  0
 15 24  1  0
 15 16  1  0
 17 11  1  0
 17 16  1  0
 18 11  2  0
 19 20  1  0
 19 10  1  0
 21 22  2  0
 22 41  1  0
 23 22  1  0
 23 26  1  0
 24 21  1  0
 24 25  1  0
 25 23  2  0
 26 27  1  0
 27 28  2  0
 29 32  1  0
 29 28  1  0
 30 29  2  0
 31 30  1  0
 31 26  2  0
 32 33  1  0
 33 34  1  0
 34 35  2  0
 36 35  1  0
 36 40  1  0
 37 36  2  0
 38 33  2  0
 38 37  1  0
 39 38  1  0
 41 42  1  0
 42 45  1  0
 42 44  1  0
 43 41  2  0
 46 47  1  0
 46 21  1  0
 48 46  1  0
 49 50  1  0
 49  1  1  0
 50 51  1  0
 52 53  1  0
 52 50  1  0
 54 56  1  0
 54 53  1  0
 55 66  2  0
 56 61  1  0
 57 65  1  0
 57 67  1  0
 58 64  1  0
 58 60  1  0
 59 65  1  0
 60 59  1  0
 61 60  2  0
 62 63  1  0
 62 56  2  0
 63 58  2  0
 64 57  1  0
 65 55  1  0
 67 69  2  0
 68 67  1  0
 70 68  1  0
 71 80  2  0
 71 76  1  0
 72 68  1  0
 72 76  1  0
 73 72  1  0
 74 75  1  0
 74 73  1  0
 75 71  1  0
 76 77  2  0
 77 78  1  0
 79 78  2  0
 80 79  1  0
 81 55  1  0
 81 86  1  0
 81 82  1  0
 82 85  1  1
 82 83  1  0
 84 82  1  0
 86 89  1  0
 87 91  1  0
 87 86  1  0
 88 87  2  0
 91 90  1  0
 93 91  1  0
 93 94  1  0
 93 92  1  0
M  ISO  4  11 100  19 100  53 101  54 101
M  END
>  <TORSDO>  (3) 
F 26

>  <SCORE>  (3) 
-2.703

>  <name>  (3) 
2

>  <ligand_id>  (3) 
2

>  <original_smiles>  (3) 
[H]c1c([H])c([H])c2c(c1[H])C([H])([H])C([H])([H])C([H])([H])C2([H])N([H])C(=O)C1([H])N(C(=O)C([H])(N([H])C(=O)C([H])(N([H])C([H])([H])[H])C([H])([H])[H])C(C([H])([H])[H])(C([H])([H])[H])C([H])([H])[H])C([H])([H])c2c([H])c(OC([H])([H])C([H])([H])N([H])C([H])([H])C([H])([H])N([H])C([H])([H])C([H])([H])[N+]([H])([H])C([H])([H])C([H])([H])N([H])C(=O)N3C([H])([H])C([H])([H])C([H])([H])C([H])(n4nc(-c5c([H])c([H])c(Oc6c([H])c([H])c(F)c([H])c6F)c([H])c5[H])c(C(=O)N([H])[H])c4N([H])[H])C3([H])[H])c([H])c([H])c2C1([H])[H]

>  <smiles>  (3) 
[H]c1c([H])c([H])c2c(c1[H])C([H])([H])C([H])([H])C([H])([H])C2([H])N([H])C(=O)C1([H])N(C(=O)C([H])(N([H])C(=O)C([H])(N([H])C([H])([H])[H])C([H])([H])[H])C(C([H])([H])[H])(C([H])([H])[H])C([H])([H])[H])C([H])([H])c2c([H])c(OC([H])([H])C([H])([H])N([H])C([H])([H])C([H])([H])N([H])C([H])([H])C([H])([H])[N+]([H])([H])C([H])([H])C([H])([H])N([H])C(=O)N3C([H])([H])C([H])([H])C([H])([H])C([H])(n4nc(-c5c([H])c([H])c(Oc6c([H])c([H])c(F)c([H])c6F)c([H])c5[H])c(C(=O)N([H])[H])c4N([H])[H])C3([H])[H])c([H])c([H])c2C1([H])[H]

$$$$
3:0:0
     RDKit          3D

 98105  0  0  1  0  0  0  0  0999 V2000
  -27.0490  -23.7800   16.7990 C   0  0  0  0  0  2  0  0  0  0  0  0
  -27.6260  -24.4440   15.6820 O   0  0  0  0  0  0  0  0  0  0  0  0
  -27.6560  -25.8680   15.7670 C   0  0  0  0  0  2  0  0  0  0  0  0
  -28.9310  -26.3570   16.4880 C   0  0  0  0  0  2  0  0  0  0  0  0
  -28.7090  -26.6920   17.9160 N   0  0  0  0  0  4  0  0  0  0  0  0
  -28.3190  -27.6230   17.9720 H   0  0  0  0  0  0  0  0  0  0  0  0
  -28.0320  -26.0550   18.3060 H   0  0  0  0  0  0  0  0  0  0  0  0
  -29.9300  -26.6180   18.7570 C   0  0  0  0  0  2  0  0  0  0  0  0
  -29.7420  -27.2390   20.1540 C   0  0  0  0  0  2  0  0  0  0  0  0
  -28.6320  -26.6240   20.8120 O   0  0  0  0  0  0  0  0  0  0  0  0
  -24.7620  -31.9670   23.5340 C   0  0  0  0  0  0  0  0  0  0  0  0
  -27.4790  -27.3660   20.8030 C   0  0  0  0  0  0  0  0  0  0  0  0
  -23.6090  -30.4980   21.9120 C   0  0  0  0  0  3  0  0  0  0  0  0
  -25.0990  -28.8670   20.6430 C   0  0  0  0  0  0  0  0  0  0  0  0
  -26.1410  -30.8220   21.8050 C   0  0  0  0  0  2  0  0  0  0  0  0
  -26.2340  -29.4180   21.2520 C   0  0  0  0  0  0  0  0  0  0  0  0
  -27.4290  -28.6730   21.3360 C   0  0  0  0  0  3  0  0  0  0  0  0
  -26.3160  -26.8010   20.2370 C   0  0  0  0  0  3  0  0  0  0  0  0
  -25.1310  -27.5540   20.1390 C   0  0  0  0  0  3  0  0  0  0  0  0
  -23.8690  -29.7430   20.5820 C   0  0  0  0  0  2  0  0  0  0  0  0
  -24.8540  -31.1140   22.4750 N   0  0  0  0  0  0  0  0  0  0  0  0
  -23.6620  -32.2840   24.0110 O   0  0  0  0  0  0  0  0  0  0  0  0
  -22.9020  -29.5350   22.8930 C   0  0  0  0  0  0  0  0  0  0  0  0
  -21.5940  -29.3200   22.6760 N   0  0  0  0  0  0  0  0  0  0  0  0
  -23.5290  -28.9820   23.8010 O   0  0  0  0  0  0  0  0  0  0  0  0
  -21.1530  -29.8120   21.9130 H   0  0  0  0  0  0  0  0  0  0  0  0
  -18.2120  -28.0870   22.9760 C   0  0  0  0  0  0  0  0  0  0  0  0
  -20.7320  -28.4230   23.4440 C   0  0  0  0  0  3  0  0  0  0  0  0
  -20.9070  -26.9540   22.9910 C   0  0  0  0  0  2  0  0  0  0  0  0
  -19.9030  -26.5310   21.9150 C   0  0  0  0  0  2  0  0  0  0  0  0
  -18.4670  -26.6940   22.4240 C   0  0  0  0  0  2  0  0  0  0  0  0
  -19.2770  -28.9060   23.4390 C   0  0  0  0  0  0  0  0  0  0  0  0
  -18.9870  -30.2070   23.9060 C   0  0  0  0  0  3  0  0  0  0  0  0
  -17.6640  -30.6900   23.9180 C   0  0  0  0  0  3  0  0  0  0  0  0
  -16.6140  -29.8700   23.4730 C   0  0  0  0  0  3  0  0  0  0  0  0
  -16.8860  -28.5710   23.0060 C   0  0  0  0  0  3  0  0  0  0  0  0
  -26.0320  -32.6060   24.1830 C   0  0  0  0  0  3  0  0  0  0  0  0
  -25.7410  -34.0270   24.4130 N   0  0  0  0  0  0  0  0  0  0  0  0
  -26.1440  -35.0230   23.6120 C   0  0  0  0  0  0  0  0  0  0  0  0
  -26.8710  -34.8400   22.6310 O   0  0  0  0  0  0  0  0  0  0  0  0
  -25.1050  -34.2440   25.1660 H   0  0  0  0  0  0  0  0  0  0  0  0
  -24.4950  -36.8310   23.0310 C   0  0  0  0  0  1  0  0  0  0  0  0
  -25.6620  -36.4460   23.9530 C   0  0  0  0  0  3  0  0  0  0  0  0
  -27.7500  -37.3300   24.8940 C   0  0  0  0  0  1  0  0  0  0  0  0
  -26.7270  -37.4670   23.8610 N   0  0  0  0  0  0  0  0  0  0  0  0
  -26.3360  -38.4030   23.9210 H   0  0  0  0  0  0  0  0  0  0  0  0
  -26.4720  -31.9010   25.5250 C   0  0  1  0  0  0  0  0  0  0  0  0
  -25.3180  -31.7210   26.5410 C   0  0  0  0  0  1  0  0  0  0  0  0
  -27.0680  -30.5030   25.2340 C   0  0  0  0  0  1  0  0  0  0  0  0
  -27.5870  -32.7260   26.2090 C   0  0  0  0  0  1  0  0  0  0  0  0
  -27.5070  -22.3140   16.7710 C   0  0  0  0  0  2  0  0  0  0  0  0
  -27.3050  -21.5820   18.1140 C   0  0  0  0  0  2  0  0  0  0  0  0
  -28.1180  -20.3480   18.1860 N   0  0  0  0  0  4  0  0  0  0  0  0
  -27.7640  -19.6660   17.5320 H   0  0  0  0  0  0  0  0  0  0  0  0
  -29.0540  -20.5810   17.9020 H   0  0  0  0  0  0  0  0  0  0  0  0
  -28.2020  -19.7310   19.5270 C   0  0  0  0  0  2  0  0  0  0  0  0
  -29.5310  -18.9740   19.6930 C   0  0  0  0  0  2  0  0  0  0  0  0
  -29.6440  -18.2120   21.0210 C   0  0  0  0  0  2  0  0  0  0  0  0
  -31.0640  -17.6690   21.2450 C   0  0  0  0  0  2  0  0  0  0  0  0
  -31.1260  -16.5000   22.2470 C   0  0  0  0  0  2  0  0  0  0  0  0
  -30.8690  -14.5280   20.7580 C   0  0  0  0  0  0  0  0  0  0  0  0
  -30.4820  -12.5030   19.4150 C   0  0  0  0  0  2  0  0  0  0  0  0
  -29.5660  -12.7880   18.2110 C   0  0  0  0  0  2  0  0  0  0  0  0
  -28.0870  -12.6470   18.6120 C   0  0  0  0  0  2  0  0  0  0  0  0
  -27.7420  -13.4380   19.9020 C   0  0  0  0  0  3  0  0  0  0  0  0
  -28.7690  -13.1470   21.0200 C   0  0  0  0  0  2  0  0  0  0  0  0
  -30.1210  -13.4260   20.5000 N   0  0  0  0  0  0  0  0  0  0  0  0
  -31.9060  -14.7990   20.1460 O   0  0  0  0  0  0  0  0  0  0  0  0
  -30.4380  -15.3060   21.7580 N   0  0  0  0  0  0  0  0  0  0  0  0
  -29.6000  -15.0150   22.2380 H   0  0  0  0  0  0  0  0  0  0  0  0
  -25.3080  -14.0340   20.5000 C   0  0  0  0  0  0  0  0  0  0  0  0
  -24.2380  -13.2570   20.8580 C   0  0  0  0  0  0  0  0  0  0  0  0
  -24.7210  -11.9140   20.8880 C   0  0  0  0  0  0  0  0  0  0  0  0
  -26.3750  -13.1630   20.3400 N   0  0  0  0  0  0  0  0  0  0  0  0
  -26.0210  -11.8840   20.6270 N   0  0  0  0  0  0  0  0  0  0  0  0
  -24.0070  -10.6460   21.0930 C   0  0  0  0  0  0  0  0  0  0  0  0
  -24.3690   -9.7550   22.1250 C   0  0  0  0  0  3  0  0  0  0  0  0
  -23.6550   -8.5510   22.3140 C   0  0  0  0  0  3  0  0  0  0  0  0
  -22.5660   -8.2310   21.4690 C   0  0  0  0  0  0  0  0  0  0  0  0
  -22.2270   -9.1120   20.4270 C   0  0  0  0  0  3  0  0  0  0  0  0
  -22.9400  -10.3070   20.2370 C   0  0  0  0  0  3  0  0  0  0  0  0
  -21.8330   -7.0720   21.5610 O   0  0  0  0  0  0  0  0  0  0  0  0
  -21.6510   -6.4290   22.7600 C   0  0  0  0  0  0  0  0  0  0  0  0
  -21.0110   -7.0530   23.8520 C   0  0  0  0  0  3  0  0  0  0  0  0
  -20.7840   -6.3300   25.0400 C   0  0  0  0  0  3  0  0  0  0  0  0
  -21.1870   -4.9860   25.1370 C   0  0  0  0  0  0  0  0  0  0  0  0
  -21.8210   -4.3610   24.0470 C   0  0  0  0  0  3  0  0  0  0  0  0
  -22.0500   -5.0800   22.8610 C   0  0  0  0  0  0  0  0  0  0  0  0
  -22.6410   -4.4680   21.8080 F   0  0  0  0  0  0  0  0  0  0  0  0
  -20.9620   -4.2890   26.2740 F   0  0  0  0  0  0  0  0  0  0  0  0
  -22.8260  -13.7230   21.0660 C   0  0  0  0  0  0  0  0  0  0  0  0
  -22.0790  -13.0390   21.9250 N   0  0  0  0  0  0  0  0  0  0  0  0
  -22.3940  -14.7250   20.5000 O   0  0  0  0  0  0  0  0  0  0  0  0
  -22.4410  -12.2280   22.4020 H   0  0  0  0  0  0  0  0  0  0  0  0
  -21.1300  -13.3340   22.1080 H   0  0  0  0  0  0  0  0  0  0  0  0
  -25.4640  -15.4000   20.2860 N   0  0  0  0  0  0  0  0  0  0  0  0
  -24.6910  -16.0530   20.3550 H   0  0  0  0  0  0  0  0  0  0  0  0
  -26.3280  -15.8370   19.9920 H   0  0  0  0  0  0  0  0  0  0  0  0
  2  3  1  0
  2  1  1  0
  3  4  1  0
  4  5  1  0
  5  6  1  0
  5  7  1  0
  5  8  1  0
  8  9  1  0
  9 10  1  0
 11 22  2  0
 12 10  1  0
 12 17  1  0
 13 21  1  0
 13 23  1  0
 14 16  1  0
 15 21  1  0
 16 17  2  0
 16 15  1  0
 18 12  2  0
 19 18  1  0
 19 14  2  0
 20 14  1  0
 20 13  1  0
 21 11  1  0
 23 25  2  0
 24 23  1  0
 26 24  1  0
 27 36  2  0
 27 32  1  0
 28 24  1  0
 29 28  1  0
 30 31  1  0
 30 29  1  0
 31 27  1  0
 32 28  1  0
 32 33  2  0
 33 34  1  0
 35 34  2  0
 36 35  1  0
 37 11  1  0
 37 38  1  0
 37 47  1  0
 38 41  1  0
 39 43  1  0
 39 38  1  0
 40 39  2  0
 43 42  1  0
 45 46  1  0
 45 43  1  0
 45 44  1  0
 47 50  1  1
 47 48  1  0
 49 47  1  0
 51  1  1  0
 51 52  1  0
 52 53  1  0
 53 56  1  0
 54 53  1  0
 55 53  1  0
 56 57  1  0
 57 58  1  0
 58 59  1  0
 59 60  1  0
 61 69  1  0
 62 67  1  0
 63 64  1  0
 63 62  1  0
 65 64  1  0
 65 74  1  0
 65 66  1  0
 67 61  1  0
 67 66  1  0
 68 61  2  0
 69 70  1  0
 69 60  1  0
 71 72  2  0
 72 73  1  0
 72 91  1  0
 73 76  1  0
 74 71  1  0
 74 75  1  0
 75 73  2  0
 76 77  1  0
 77 78  2  0
 79 82  1  0
 79 78  1  0
 80 79  2  0
 81 80  1  0
 81 76  2  0
 82 83  1  0
 83 88  2  0
 83 84  1  0
 84 85  2  0
 85 86  1  0
 86 90  1  0
 87 86  2  0
 88 87  1  0
 89 88  1  0
 91 92  1  0
 92 95  1  0
 92 94  1  0
 93 91  2  0
 96 97  1  0
 96 71  1  0
 98 96  1  0
M  ISO  4   9 101  10 101  61 100  69 100
M  END
>  <TORSDO>  (4) 
F 30

>  <SCORE>  (4) 
-8.851

>  <name>  (4) 
3

>  <ligand_id>  (4) 
3

>  <original_smiles>  (4) 
[H]c1c([H])c([H])c2c(c1[H])C([H])([H])C([H])([H])C([H])([H])C2([H])N([H])C(=O)C1([H])N(C(=O)C([H])(N([H])C(=O)C([H])(N([H])C([H])([H])[H])C([H])([H])[H])C(C([H])([H])[H])(C([H])([H])[H])C([H])([H])[H])C([H])([H])c2c([H])c(OC([H])([H])C([H])([H])[N+]([H])([H])C([H])([H])C([H])([H])OC([H])([H])C([H])([H])C([H])([H])[N+]([H])([H])C([H])([H])C([H])([H])C([H])([H])C([H])([H])C([H])([H])N([H])C(=O)N3C([H])([H])C([H])([H])C([H])([H])C([H])(n4nc(-c5c([H])c([H])c(Oc6c([H])c([H])c(F)c([H])c6F)c([H])c5[H])c(C(=O)N([H])[H])c4N([H])[H])C3([H])[H])c([H])c([H])c2C1([H])[H]

>  <smiles>  (4) 
[H]c1c([H])c([H])c2c(c1[H])C([H])([H])C([H])([H])C([H])([H])C2([H])N([H])C(=O)C1([H])N(C(=O)C([H])(N([H])C(=O)C([H])(N([H])C([H])([H])[H])C([H])([H])[H])C(C([H])([H])[H])(C([H])([H])[H])C([H])([H])[H])C([H])([H])c2c([H])c(OC([H])([H])C([H])([H])[N+]([H])([H])C([H])([H])C([H])([H])OC([H])([H])C([H])([H])C([H])([H])[N+]([H])([H])C([H])([H])C([H])([H])C([H])([H])C([H])([H])C([H])([H])N([H])C(=O)N3C([H])([H])C([H])([H])C([H])([H])C([H])(n4nc(-c5c([H])c([H])c(Oc6c([H])c([H])c(F)c([H])c6F)c([H])c5[H])c(C(=O)N([H])[H])c4N([H])[H])C3([H])[H])c([H])c([H])c2C1([H])[H]

$$$$
4:0:0
     RDKit          3D

 96103  0  0  1  0  0  0  0  0999 V2000
  -29.4320  -23.3480   23.4230 C   0  0  0  0  0  2  0  0  0  0  0  0
  -29.1620  -21.8450   23.2950 C   0  0  0  0  0  2  0  0  0  0  0  0
  -30.3630  -21.2350   22.7460 N   0  0  0  0  0  0  0  0  0  0  0  0
  -31.1670  -21.4370   23.3370 H   0  0  0  0  0  0  0  0  0  0  0  0
  -30.2190  -19.7980   22.5640 C   0  0  0  0  0  2  0  0  0  0  0  0
  -31.2590  -19.3470   21.5270 C   0  0  0  0  0  2  0  0  0  0  0  0
  -31.2130  -17.8950   21.2850 N   0  0  0  0  0  4  0  0  0  0  0  0
  -31.4040  -17.4190   22.1510 H   0  0  0  0  0  0  0  0  0  0  0  0
  -30.2870  -17.6380   20.9820 H   0  0  0  0  0  0  0  0  0  0  0  0
  -32.1830  -17.4460   20.2660 C   0  0  0  0  0  2  0  0  0  0  0  0
  -32.5110  -15.9530   20.4000 C   0  0  0  0  0  2  0  0  0  0  0  0
  -31.3390  -14.3000   18.9710 C   0  0  0  0  0  0  0  0  0  0  0  0
  -30.9210  -11.9390   18.4340 C   0  0  0  0  0  2  0  0  0  0  0  0
  -29.8180  -11.6880   17.3950 C   0  0  0  0  0  2  0  0  0  0  0  0
  -28.4400  -11.6320   18.0750 C   0  0  0  0  0  2  0  0  0  0  0  0
  -28.1850  -12.8500   18.9980 C   0  0  0  0  0  3  0  0  0  0  0  0
  -29.3750  -13.0820   19.9540 C   0  0  0  0  0  2  0  0  0  0  0  0
  -30.6170  -13.1740   19.1630 N   0  0  0  0  0  0  0  0  0  0  0  0
  -32.0920  -14.4870   18.0100 O   0  0  0  0  0  0  0  0  0  0  0  0
  -31.3910  -15.0740   20.0620 N   0  0  0  0  0  0  0  0  0  0  0  0
  -30.7870  -14.7890   20.8190 H   0  0  0  0  0  0  0  0  0  0  0  0
  -26.0740  -13.6880   20.2140 C   0  0  0  0  0  0  0  0  0  0  0  0
  -25.0030  -13.0230   20.7510 C   0  0  0  0  0  0  0  0  0  0  0  0
  -25.2620  -11.6330   20.5490 C   0  0  0  0  0  0  0  0  0  0  0  0
  -26.9250  -12.7080   19.7270 N   0  0  0  0  0  0  0  0  0  0  0  0
  -26.4490  -11.4620   19.9800 N   0  0  0  0  0  0  0  0  0  0  0  0
  -24.4210  -10.4570   20.8120 C   0  0  0  0  0  0  0  0  0  0  0  0
  -24.8160   -9.4570   21.7280 C   0  0  0  0  0  3  0  0  0  0  0  0
  -23.9820   -8.3450   21.9780 C   0  0  0  0  0  3  0  0  0  0  0  0
  -22.7390   -8.2260   21.3100 C   0  0  0  0  0  0  0  0  0  0  0  0
  -22.3630   -9.2130   20.3820 C   0  0  0  0  0  3  0  0  0  0  0  0
  -23.1960  -10.3150   20.1320 C   0  0  0  0  0  3  0  0  0  0  0  0
  -21.8760   -7.1690   21.4700 O   0  0  0  0  0  0  0  0  0  0  0  0
  -21.7380   -6.5290   22.6770 C   0  0  0  0  0  0  0  0  0  0  0  0
  -21.3320   -7.2160   23.8410 C   0  0  0  0  0  3  0  0  0  0  0  0
  -21.1330   -6.5080   25.0430 C   0  0  0  0  0  3  0  0  0  0  0  0
  -21.3300   -5.1150   25.0820 C   0  0  0  0  0  0  0  0  0  0  0  0
  -21.7300   -4.4280   23.9210 C   0  0  0  0  0  3  0  0  0  0  0  0
  -21.9300   -5.1340   22.7220 C   0  0  0  0  0  0  0  0  0  0  0  0
  -22.2940   -4.4650   21.6020 F   0  0  0  0  0  0  0  0  0  0  0  0
  -21.1330   -4.4330   26.2330 F   0  0  0  0  0  0  0  0  0  0  0  0
  -23.7640  -13.6420   21.3310 C   0  0  0  0  0  0  0  0  0  0  0  0
  -23.1460  -12.9810   22.3040 N   0  0  0  0  0  0  0  0  0  0  0  0
  -23.3640  -14.7430   20.9560 O   0  0  0  0  0  0  0  0  0  0  0  0
  -23.4850  -12.0860   22.6260 H   0  0  0  0  0  0  0  0  0  0  0  0
  -22.3220  -13.3770   22.7350 H   0  0  0  0  0  0  0  0  0  0  0  0
  -26.3860  -15.0380   20.0820 N   0  0  0  0  0  0  0  0  0  0  0  0
  -25.7500  -15.7730   20.3750 H   0  0  0  0  0  0  0  0  0  0  0  0
  -27.2090  -15.3920   19.6100 H   0  0  0  0  0  0  0  0  0  0  0  0
  -28.1920  -24.2100   23.1310 C   0  0  0  0  0  2  0  0  0  0  0  0
  -28.5770  -25.5510   22.6450 N   0  0  0  0  0  4  0  0  0  0  0  0
  -29.3250  -25.8990   23.2260 H   0  0  0  0  0  0  0  0  0  0  0  0
  -27.7870  -26.1660   22.7740 H   0  0  0  0  0  0  0  0  0  0  0  0
  -28.9730  -25.5710   21.2150 C   0  0  0  0  0  2  0  0  0  0  0  0
  -29.5890  -26.9130   20.7780 C   0  0  0  0  0  2  0  0  0  0  0  0
  -29.0080  -27.3020   19.5360 O   0  0  0  0  0  0  0  0  0  0  0  0
  -24.6750  -31.6440   23.1380 C   0  0  0  0  0  0  0  0  0  0  0  0
  -27.7660  -27.8710   19.6540 C   0  0  0  0  0  0  0  0  0  0  0  0
  -23.6020  -30.2320   21.4100 C   0  0  0  0  0  3  0  0  0  0  0  0
  -25.1950  -29.0050   19.8420 C   0  0  0  0  0  0  0  0  0  0  0  0
  -26.0450  -30.9370   21.1850 C   0  0  0  0  0  2  0  0  0  0  0  0
  -26.2870  -29.6420   20.4440 C   0  0  0  0  0  0  0  0  0  0  0  0
  -27.5750  -29.0810   20.3540 C   0  0  0  0  0  3  0  0  0  0  0  0
  -26.6650  -27.2370   19.0470 C   0  0  0  0  0  3  0  0  0  0  0  0
  -25.3760  -27.7950   19.1430 C   0  0  0  0  0  3  0  0  0  0  0  0
  -23.8530  -29.6850   19.9790 C   0  0  0  0  0  2  0  0  0  0  0  0
  -24.7920  -30.9470   21.9720 N   0  0  0  0  0  0  0  0  0  0  0  0
  -23.5850  -31.7370   23.7200 O   0  0  0  0  0  0  0  0  0  0  0  0
  -23.1120  -29.0670   22.2980 C   0  0  0  0  0  0  0  0  0  0  0  0
  -21.8340  -28.6920   22.1330 N   0  0  0  0  0  0  0  0  0  0  0  0
  -23.8780  -28.5070   23.0860 O   0  0  0  0  0  0  0  0  0  0  0  0
  -21.2720  -29.2060   21.4670 H   0  0  0  0  0  0  0  0  0  0  0  0
  -18.6950  -26.9340   22.4500 C   0  0  0  0  0  0  0  0  0  0  0  0
  -21.1640  -27.5950   22.8290 C   0  0  0  0  0  3  0  0  0  0  0  0
  -21.5210  -26.2320   22.1920 C   0  0  0  0  0  2  0  0  0  0  0  0
  -20.5190  -25.7840   21.1250 C   0  0  0  0  0  2  0  0  0  0  0  0
  -19.1120  -25.6670   21.7210 C   0  0  0  0  0  2  0  0  0  0  0  0
  -19.6590  -27.8470   22.9560 C   0  0  0  0  0  0  0  0  0  0  0  0
  -19.2170  -29.0260   23.5950 C   0  0  0  0  0  3  0  0  0  0  0  0
  -17.8440  -29.3000   23.7310 C   0  0  0  0  0  3  0  0  0  0  0  0
  -16.8930  -28.3880   23.2420 C   0  0  0  0  0  3  0  0  0  0  0  0
  -17.3200  -27.2040   22.6090 C   0  0  0  0  0  3  0  0  0  0  0  0
  -25.8940  -32.3770   23.7800 C   0  0  0  0  0  3  0  0  0  0  0  0
  -25.4570  -33.7340   24.1330 N   0  0  0  0  0  0  0  0  0  0  0  0
  -25.7150  -34.8270   23.4030 C   0  0  0  0  0  0  0  0  0  0  0  0
  -26.4150  -34.8050   22.3870 O   0  0  0  0  0  0  0  0  0  0  0  0
  -24.8370  -33.8210   24.9260 H   0  0  0  0  0  0  0  0  0  0  0  0
  -23.8500  -36.4670   23.0300 C   0  0  0  0  0  1  0  0  0  0  0  0
  -25.0950  -36.1560   23.8740 C   0  0  0  0  0  3  0  0  0  0  0  0
  -27.1180  -37.1990   24.7940 C   0  0  0  0  0  1  0  0  0  0  0  0
  -26.0360  -37.2940   23.8170 N   0  0  0  0  0  0  0  0  0  0  0  0
  -25.5490  -38.1730   23.9700 H   0  0  0  0  0  0  0  0  0  0  0  0
  -26.4740  -31.6290   25.0430 C   0  0  1  0  0  0  0  0  0  0  0  0
  -25.4040  -31.2570   26.0940 C   0  0  0  0  0  1  0  0  0  0  0  0
  -27.1920  -30.3260   24.6180 C   0  0  0  0  0  1  0  0  0  0  0  0
  -27.5370  -32.5170   25.7350 C   0  0  0  0  0  1  0  0  0  0  0  0
  2  1  1  0
  3  2  1  0
  3  4  1  0
  5  3  1  0
  6  5  1  0
  7  6  1  0
  7  8  1  0
  9  7  1  0
 10 11  1  0
 10  7  1  0
 12 18  1  0
 12 20  1  0
 13 18  1  0
 14 15  1  0
 14 13  1  0
 16 15  1  0
 16 25  1  0
 16 17  1  0
 18 17  1  0
 19 12  2  0
 20 11  1  0
 20 21  1  0
 22 23  2  0
 23 42  1  0
 24 23  1  0
 24 27  1  0
 25 26  1  0
 25 22  1  0
 26 24  2  0
 27 28  1  0
 28 29  2  0
 30 33  1  0
 30 29  1  0
 31 30  2  0
 32 31  1  0
 32 27  2  0
 33 34  1  0
 34 39  2  0
 34 35  1  0
 35 36  2  0
 36 37  1  0
 37 41  1  0
 38 37  2  0
 39 38  1  0
 40 39  1  0
 42 43  1  0
 43 45  1  0
 43 46  1  0
 44 42  2  0
 47 22  1  0
 47 48  1  0
 49 47  1  0
 50  1  1  0
 51 53  1  0
 51 50  1  0
 51 52  1  0
 54 51  1  0
 55 54  1  0
 56 58  1  0
 56 55  1  0
 57 68  2  0
 58 63  1  0
 59 67  1  0
 59 69  1  0
 60 66  1  0
 60 62  1  0
 61 67  1  0
 62 61  1  0
 63 62  2  0
 64 65  1  0
 64 58  2  0
 65 60  2  0
 66 59  1  0
 67 57  1  0
 69 71  2  0
 70 69  1  0
 72 70  1  0
 73 82  2  0
 73 78  1  0
 74 70  1  0
 74 78  1  0
 75 74  1  0
 76 77  1  0
 76 75  1  0
 77 73  1  0
 78 79  2  0
 79 80  1  0
 81 80  2  0
 82 81  1  0
 83 57  1  0
 83 84  1  0
 83 93  1  0
 84 87  1  0
 85 89  1  0
 85 84  1  0
 86 85  2  0
 89 88  1  0
 91 89  1  0
 91 92  1  0
 91 90  1  0
 93 96  1  1
 93 94  1  0
 95 93  1  0
M  ISO  4  12 100  20 100  55 101  56 101
M  END
>  <TORSDO>  (5) 
F 27

>  <SCORE>  (5) 
-7.636

>  <name>  (5) 
4

>  <ligand_id>  (5) 
4

>  <original_smiles>  (5) 
[H]c1c([H])c([H])c2c(c1[H])C([H])([H])C([H])([H])C([H])([H])C2([H])N([H])C(=O)C1([H])N(C(=O)C([H])(N([H])C(=O)C([H])(N([H])C([H])([H])[H])C([H])([H])[H])C(C([H])([H])[H])(C([H])([H])[H])C([H])([H])[H])C([H])([H])c2c([H])c(OC([H])([H])C([H])([H])[N+]([H])([H])C([H])([H])C([H])([H])C([H])([H])N([H])C([H])([H])C([H])([H])[N+]([H])([H])C([H])([H])C([H])([H])N([H])C(=O)N3C([H])([H])C([H])([H])C([H])([H])C([H])(n4nc(-c5c([H])c([H])c(Oc6c([H])c([H])c(F)c([H])c6F)c([H])c5[H])c(C(=O)N([H])[H])c4N([H])[H])C3([H])[H])c([H])c([H])c2C1([H])[H]

>  <smiles>  (5) 
[H]c1c([H])c([H])c2c(c1[H])C([H])([H])C([H])([H])C([H])([H])C2([H])N([H])C(=O)C1([H])N(C(=O)C([H])(N([H])C(=O)C([H])(N([H])C([H])([H])[H])C([H])([H])[H])C(C([H])([H])[H])(C([H])([H])[H])C([H])([H])[H])C([H])([H])c2c([H])c(OC([H])([H])C([H])([H])[N+]([H])([H])C([H])([H])C([H])([H])C([H])([H])N([H])C([H])([H])C([H])([H])[N+]([H])([H])C([H])([H])C([H])([H])N([H])C(=O)N3C([H])([H])C([H])([H])C([H])([H])C([H])(n4nc(-c5c([H])c([H])c(Oc6c([H])c([H])c(F)c([H])c6F)c([H])c5[H])c(C(=O)N([H])[H])c4N([H])[H])C3([H])[H])c([H])c([H])c2C1([H])[H]

$$$$
5:0:0
     RDKit          3D

 97101  0  0  1  0  0  0  0  0999 V2000
  -27.2010  -18.5720   18.0420 C   0  0  0  0  0  2  0  0  0  0  0  0
  -27.7720  -19.7530   18.9420 C   0  0  0  0  0  3  0  0  0  0  0  0
  -27.8200  -21.2240   18.3330 C   0  0  0  0  0  3  0  0  0  0  0  0
  -28.7190  -22.2220   19.0420 N   0  0  0  0  0  4  0  0  0  0  0  0
  -29.6770  -21.9500   18.8820 H   0  0  0  0  0  0  0  0  0  0  0  0
  -28.5390  -22.1270   20.0310 H   0  0  0  0  0  0  0  0  0  0  0  0
  -28.5670  -23.6910   18.6830 C   0  0  0  0  0  3  0  0  0  0  0  0
  -29.3990  -24.7400   19.5650 C   0  0  0  0  0  3  0  0  0  0  0  0
  -29.6160  -26.1620   19.1820 O   0  0  0  0  0  0  0  0  0  0  0  0
  -27.1270  -30.7360   24.2520 C   0  0  0  0  0  0  0  0  0  0  0  0
  -28.7080  -27.1300   19.6090 C   0  0  0  0  0  0  0  0  0  0  0  0
  -25.6550  -30.2310   22.3440 C   0  0  0  0  0  3  0  0  0  0  0  0
  -26.7420  -29.0390   20.3770 C   0  0  0  0  0  0  0  0  0  0  0  0
  -28.2090  -30.1110   22.0800 C   0  0  0  0  0  2  0  0  0  0  0  0
  -27.9960  -29.0540   21.0020 C   0  0  0  0  0  0  0  0  0  0  0  0
  -28.9920  -28.1060   20.6160 C   0  0  0  0  0  3  0  0  0  0  0  0
  -27.4400  -27.1790   19.0020 C   0  0  0  0  0  3  0  0  0  0  0  0
  -26.4650  -28.1050   19.3770 C   0  0  0  0  0  3  0  0  0  0  0  0
  -25.7160  -30.0600   20.8080 C   0  0  0  0  0  2  0  0  0  0  0  0
  -27.0220  -30.3520   22.9490 N   0  0  0  0  0  0  0  0  0  0  0  0
  -26.1250  -31.0090   24.9270 O   0  0  0  0  0  0  0  0  0  0  0  0
  -24.8150  -29.0770   22.9480 C   0  0  0  0  0  0  0  0  0  0  0  0
  -23.4890  -29.1210   22.7330 N   0  0  0  0  0  0  0  0  0  0  0  0
  -25.3580  -28.1650   23.5750 O   0  0  0  0  0  0  0  0  0  0  0  0
  -23.1220  -29.9080   22.2160 H   0  0  0  0  0  0  0  0  0  0  0  0
  -19.9970  -28.1900   22.5640 C   0  0  0  0  0  0  0  0  0  0  0  0
  -22.5080  -28.1300   23.1770 C   0  0  0  0  0  3  0  0  0  0  0  0
  -22.5840  -26.8480   22.3180 C   0  0  0  0  0  2  0  0  0  0  0  0
  -21.6040  -26.8520   21.1390 C   0  0  0  0  0  2  0  0  0  0  0  0
  -20.1620  -26.9960   21.6390 C   0  0  0  0  0  2  0  0  0  0  0  0
  -21.1000  -28.7310   23.2750 C   0  0  0  0  0  0  0  0  0  0  0  0
  -20.8980  -29.8590   24.1000 C   0  0  0  0  0  3  0  0  0  0  0  0
  -19.6230  -30.4420   24.2210 C   0  0  0  0  0  3  0  0  0  0  0  0
  -18.5290  -29.8940   23.5290 C   0  0  0  0  0  3  0  0  0  0  0  0
  -18.7160  -28.7660   22.7070 C   0  0  0  0  0  3  0  0  0  0  0  0
  -28.5140  -30.8730   24.9520 C   0  0  0  0  0  3  0  0  0  0  0  0
  -28.4870  -32.1070   25.7510 N   0  0  0  0  0  0  0  0  0  0  0  0
  -29.0910  -33.2510   25.4030 C   0  0  0  0  0  0  0  0  0  0  0  0
  -29.7970  -33.3550   24.3960 O   0  0  0  0  0  0  0  0  0  0  0  0
  -27.8760  -32.1110   26.5550 H   0  0  0  0  0  0  0  0  0  0  0  0
  -27.8450  -35.4160   25.6820 C   0  0  0  0  0  1  0  0  0  0  0  0
  -28.8790  -34.4740   26.3160 C   0  0  0  0  0  3  0  0  0  0  0  0
  -31.0650  -34.4720   27.4350 C   0  0  0  0  0  1  0  0  0  0  0  0
  -30.1250  -35.2190   26.6000 N   0  0  0  0  0  0  0  0  0  0  0  0
  -29.9230  -36.0990   27.0640 H   0  0  0  0  0  0  0  0  0  0  0  0
  -28.8730  -29.6330   25.8590 C   0  0  1  0  0  0  0  0  0  0  0  0
  -27.7630  -29.2500   26.8680 C   0  0  0  0  0  1  0  0  0  0  0  0
  -29.1660  -28.3910   24.9900 C   0  0  0  0  0  1  0  0  0  0  0  0
  -30.1690  -29.9250   26.6490 C   0  0  0  0  0  1  0  0  0  0  0  0
  -27.2530  -17.1010   18.6470 C   0  0  0  0  0  2  0  0  0  0  0  0
  -27.2740  -15.9550   17.6560 N   0  0  0  0  0  4  0  0  0  0  0  0
  -26.3840  -15.9300   17.1860 H   0  0  0  0  0  0  0  0  0  0  0  0
  -27.9740  -16.1700   16.9650 H   0  0  0  0  0  0  0  0  0  0  0  0
  -27.5440  -14.5590   18.1880 C   0  0  0  0  0  2  0  0  0  0  0  0
  -27.7990  -13.4210   17.0950 C   0  0  0  0  0  2  0  0  0  0  0  0
  -28.5530  -12.0640   17.4940 C   0  0  0  0  0  2  0  0  0  0  0  0
  -30.1060  -12.1050   17.4640 C   0  0  0  0  0  2  0  0  0  0  0  0
  -30.9230  -11.4200   18.3110 C   0  0  0  0  0  2  0  0  0  0  0  0
  -32.4220  -11.6910   18.7050 C   0  0  0  0  0  2  0  0  0  0  0  0
  -33.1210  -13.6180   21.0020 C   0  0  2  0  0  0  0  0  0  0  0  0
  -34.2210  -13.9940   19.8900 C   0  0  0  0  0  1  0  0  0  0  0  0
  -32.6710  -14.4670   18.8550 C   0  0  0  0  0  1  0  0  0  0  0  0
  -31.0610  -14.1000   19.6060 C   0  0  0  0  0  2  0  0  0  0  0  0
  -30.7850  -13.2090   21.1360 C   0  0  0  0  0  2  0  0  0  0  0  0
  -32.2940  -12.8750   22.1800 C   0  0  0  0  0  1  0  0  0  0  0  0
  -33.8810  -13.2210   21.4810 N   0  0  0  0  0  1  0  0  0  0  0  0
  -32.8930  -14.9460   21.3690 O   0  0  0  0  0  1  0  0  0  0  0  0
  -32.8610  -12.2420   20.0920 N   0  0  0  0  0  2  0  0  0  0  0  0
  -33.3640  -11.5050   20.5610 H   0  0  0  0  0  0  0  0  0  0  0  0
  -28.4600  -12.1870   20.8570 C   0  0  0  0  0  0  0  0  0  0  0  0
  -27.8930  -10.9570   21.0460 C   0  0  0  0  0  0  0  0  0  0  0  0
  -28.9480  -10.0760   21.4240 C   0  0  0  0  0  0  0  0  0  0  0  0
  -29.8000  -12.0770   21.1570 N   0  0  0  0  0  0  0  0  0  0  0  0
  -30.0630  -10.8010   21.6070 N   0  0  0  0  0  0  0  0  0  0  0  0
  -28.9150   -8.5990   21.6090 C   0  0  0  0  0  0  0  0  0  0  0  0
  -29.6870   -7.9420   22.5980 C   0  0  0  0  0  3  0  0  0  0  0  0
  -29.5880   -6.5430   22.7880 C   0  0  0  0  0  3  0  0  0  0  0  0
  -28.7070   -5.7700   21.9950 C   0  0  0  0  0  0  0  0  0  0  0  0
  -27.9530   -6.4200   21.0000 C   0  0  0  0  0  3  0  0  0  0  0  0
  -28.0580   -7.8120   20.8070 C   0  0  0  0  0  3  0  0  0  0  0  0
  -28.5680   -4.4040   22.0990 O   0  0  0  0  0  0  0  0  0  0  0  0
  -29.0840   -3.6980   23.1620 C   0  0  0  0  0  0  0  0  0  0  0  0
  -29.1030   -4.2370   24.4680 C   0  0  0  0  0  3  0  0  0  0  0  0
  -29.5710   -3.4570   25.5450 C   0  0  0  0  0  3  0  0  0  0  0  0
  -30.0140   -2.1390   25.3230 C   0  0  0  0  0  0  0  0  0  0  0  0
  -29.9880   -1.5990   24.0250 C   0  0  0  0  0  3  0  0  0  0  0  0
  -29.5200   -2.3730   22.9480 C   0  0  0  0  0  0  0  0  0  0  0  0
  -29.4760   -1.8370   21.7050 F   0  0  0  0  0  0  0  0  0  0  0  0
  -30.4610   -1.3890   26.3560 F   0  0  0  0  0  0  0  0  0  0  0  0
  -26.4470  -10.6250   20.8370 C   0  0  0  0  0  0  0  0  0  0  0  0
  -25.9460   -9.6100   21.5350 N   0  0  0  0  0  0  0  0  0  0  0  0
  -25.7360  -11.3150   20.1080 O   0  0  0  0  0  0  0  0  0  0  0  0
  -26.5220   -9.0710   22.1650 H   0  0  0  0  0  0  0  0  0  0  0  0
  -24.9790   -9.3470   21.4180 H   0  0  0  0  0  0  0  0  0  0  0  0
  -27.9280  -13.4180   20.4860 N   0  0  0  0  0  0  0  0  0  0  0  0
  -26.9310  -13.5390   20.3380 H   0  0  0  0  0  0  0  0  0  0  0  0
  -28.4120  -14.2930   20.6400 H   0  0  0  0  0  0  0  0  0  0  0  0
  1 50  1  0
  1  2  1  0
  3  2  2  0
  3  4  1  0
  4  6  1  0
  5  4  1  0
  7  4  1  0
  7  8  2  0
  9  8  1  0
  9 11  1  0
 10 21  2  0
 11 16  1  0
 12 22  1  0
 12 20  1  0
 13 19  1  0
 13 15  1  0
 14 20  1  0
 15 14  1  0
 16 15  2  0
 17 18  1  0
 17 11  2  0
 18 13  2  0
 19 12  1  0
 20 10  1  0
 22 24  2  0
 23 22  1  0
 25 23  1  0
 26 35  2  0
 26 31  1  0
 27 23  1  0
 27 31  1  0
 28 27  1  0
 29 30  1  0
 29 28  1  0
 30 26  1  0
 31 32  2  0
 32 33  1  0
 34 33  2  0
 35 34  1  0
 36 10  1  0
 36 37  1  0
 36 46  1  0
 37 40  1  0
 38 37  1  0
 38 42  1  0
 39 38  2  0
 42 41  1  0
 42 44  1  0
 44 45  1  0
 44 43  1  0
 46 49  1  1
 46 47  1  0
 48 46  1  0
 51 54  1  0
 51 50  1  0
 52 51  1  0
 53 51  1  0
 55 56  1  0
 55 54  1  0
 57 56  1  0
 57 58  1  0
 58 59  1  0
 59 68  1  0
 60 67  1  0
 60 66  1  0
 60 65  1  6
 61 60  1  0
 62 63  1  0
 63 64  1  0
 64 73  1  0
 68 69  1  0
 70 71  2  0
 70 73  1  0
 71 72  1  0
 72 74  2  0
 72 75  1  0
 73 74  1  0
 75 76  1  0
 76 77  2  0
 78 81  1  0
 78 77  1  0
 79 78  2  0
 80 79  1  0
 80 75  2  0
 81 82  1  0
 82 83  1  0
 83 84  2  0
 85 84  1  0
 85 89  1  0
 86 85  2  0
 87 82  2  0
 87 86  1  0
 88 87  1  0
 90 71  1  0
 90 91  1  0
 91 93  1  0
 92 90  2  0
 94 91  1  0
 95 97  1  0
 95 70  1  0
 96 95  1  0
M  ISO  4   8 101   9 101  60 100  68 100
M  END
>  <TORSDO>  (6) 
F 28

>  <SCORE>  (6) 
4.685

>  <name>  (6) 
5

>  <ligand_id>  (6) 
5

>  <original_smiles>  (6) 
[H]C(=C([H])C([H])([H])C([H])([H])C([H])([H])[N+]([H])([H])C([H])([H])C([H])([H])C([H])([H])C([H])([H])[N+]([H])([H])C([H])([H])C([H])([H])Oc1c([H])c([H])c2c(c1[H])C([H])([H])N(C(=O)C([H])(N([H])C(=O)C([H])(N([H])C([H])([H])[H])C([H])([H])[H])C(C([H])([H])[H])(C([H])([H])[H])C([H])([H])[H])C([H])(C(=O)N([H])C1([H])c3c([H])c([H])c([H])c([H])c3C([H])([H])C([H])([H])C1([H])[H])C2([H])[H])C([H])([H])N([H])C(=O)N1C([H])([H])C([H])([H])C([H])([H])C([H])(n2nc(-c3c([H])c([H])c(Oc4c([H])c([H])c(F)c([H])c4F)c([H])c3[H])c(C(=O)N([H])[H])c2N([H])[H])C1([H])[H]

>  <smiles>  (6) 
[H]C(=C([H])C([H])([H])C([H])([H])C([H])([H])[N+]([H])([H])C([H])([H])C([H])([H])C([H])([H])C([H])([H])[N+]([H])([H])C([H])([H])C([H])([H])Oc1c([H])c([H])c2c(c1[H])C([H])([H])N(C(=O)C([H])(N([H])C(=O)C([H])(N([H])C([H])([H])[H])C([H])([H])[H])C(C([H])([H])[H])(C([H])([H])[H])C([H])([H])[H])C([H])(C(=O)N([H])C1([H])c3c([H])c([H])c([H])c([H])c3C([H])([H])C([H])([H])C1([H])[H])C2([H])[H])C([H])([H])N([H])C(=O)N1C([H])([H])C([H])([H])C([H])([H])C([H])(n2nc(-c3c([H])c([H])c(Oc4c([H])c([H])c(F)c([H])c4F)c([H])c3[H])c(C(=O)N([H])[H])c2N([H])[H])C1([H])[H]

$$$$
6:0:0
     RDKit          3D

 96103  0  0  1  0  0  0  0  0999 V2000
  -29.0480  -22.3710   16.3390 C   0  0  0  0  0  3  0  0  0  0  0  0
  -29.9290  -23.3520   16.0670 C   0  0  0  0  0  3  0  0  0  0  0  0
  -29.4280  -20.9760   16.1490 C   0  0  0  0  0  0  0  0  0  0  0  0
  -28.6280  -20.0490   16.6870 N   0  0  0  0  0  0  0  0  0  0  0  0
  -30.4090  -20.6040   15.5030 O   0  0  0  0  0  0  0  0  0  0  0  0
  -28.9310  -19.1100   16.4810 H   0  0  0  0  0  0  0  0  0  0  0  0
  -27.4790  -20.1250   17.5920 C   0  0  0  0  0  2  0  0  0  0  0  0
  -27.7720  -19.4440   18.9470 C   0  0  0  0  0  2  0  0  0  0  0  0
  -28.7110  -18.2190   18.8540 C   0  0  0  0  0  2  0  0  0  0  0  0
  -28.7860  -17.3780   20.1610 C   0  0  0  0  0  2  0  0  0  0  0  0
  -30.0280  -16.9080   20.9840 C   0  0  0  0  0  2  0  0  0  0  0  0
  -30.6900  -14.5230   20.8280 C   0  0  0  0  0  0  0  0  0  0  0  0
  -30.4730  -12.4170   19.5810 C   0  0  0  0  0  2  0  0  0  0  0  0
  -29.5680  -12.6890   18.3600 C   0  0  0  0  0  2  0  0  0  0  0  0
  -28.0790  -12.5380   18.7310 C   0  0  0  0  0  2  0  0  0  0  0  0
  -27.6960  -13.3040   20.0260 C   0  0  0  0  0  3  0  0  0  0  0  0
  -28.7120  -13.0000   21.1510 C   0  0  0  0  0  2  0  0  0  0  0  0
  -30.0570  -13.3360   20.6510 N   0  0  0  0  0  0  0  0  0  0  0  0
  -31.8200  -14.7760   20.3930 O   0  0  0  0  0  0  0  0  0  0  0  0
  -29.8930  -15.4890   21.2950 N   0  0  0  0  0  0  0  0  0  0  0  0
  -28.9830  -15.1900   21.6080 H   0  0  0  0  0  0  0  0  0  0  0  0
  -25.2540  -13.8640   20.6370 C   0  0  0  0  0  0  0  0  0  0  0  0
  -24.1890  -13.0670   20.9610 C   0  0  0  0  0  0  0  0  0  0  0  0
  -24.6790  -11.7260   20.9410 C   0  0  0  0  0  0  0  0  0  0  0  0
  -26.3280  -13.0030   20.4450 N   0  0  0  0  0  0  0  0  0  0  0  0
  -25.9800  -11.7130   20.6840 N   0  0  0  0  0  0  0  0  0  0  0  0
  -23.9760  -10.4490   21.1000 C   0  0  0  0  0  0  0  0  0  0  0  0
  -24.3840   -9.5000   22.0630 C   0  0  0  0  0  3  0  0  0  0  0  0
  -23.6860   -8.2830   22.2090 C   0  0  0  0  0  3  0  0  0  0  0  0
  -22.5650   -8.0050   21.3890 C   0  0  0  0  0  0  0  0  0  0  0  0
  -22.1760   -8.9440   20.4160 C   0  0  0  0  0  3  0  0  0  0  0  0
  -22.8760  -10.1540   20.2710 C   0  0  0  0  0  3  0  0  0  0  0  0
  -21.8400   -6.8410   21.4420 O   0  0  0  0  0  0  0  0  0  0  0  0
  -21.7310   -6.1090   22.5960 C   0  0  0  0  0  0  0  0  0  0  0  0
  -21.1580   -6.6480   23.7670 C   0  0  0  0  0  3  0  0  0  0  0  0
  -21.0010   -5.8420   24.9110 C   0  0  0  0  0  3  0  0  0  0  0  0
  -21.4100   -4.4940   24.8850 C   0  0  0  0  0  0  0  0  0  0  0  0
  -21.9730   -3.9520   23.7160 C   0  0  0  0  0  3  0  0  0  0  0  0
  -22.1310   -4.7580   22.5750 C   0  0  0  0  0  0  0  0  0  0  0  0
  -22.6570   -4.2240   21.4460 F   0  0  0  0  0  0  0  0  0  0  0  0
  -21.2520   -3.7170   25.9800 F   0  0  0  0  0  0  0  0  0  0  0  0
  -22.7720  -13.5110   21.1820 C   0  0  0  0  0  0  0  0  0  0  0  0
  -22.0250  -12.7920   22.0130 N   0  0  0  0  0  0  0  0  0  0  0  0
  -22.3320  -14.5300   20.6550 O   0  0  0  0  0  0  0  0  0  0  0  0
  -22.3900  -11.9660   22.4630 H   0  0  0  0  0  0  0  0  0  0  0  0
  -21.0740  -13.0750   22.2010 H   0  0  0  0  0  0  0  0  0  0  0  0
  -25.3920  -15.2390   20.4760 N   0  0  0  0  0  0  0  0  0  0  0  0
  -24.5990  -15.8660   20.5540 H   0  0  0  0  0  0  0  0  0  0  0  0
  -26.2360  -15.7200   20.1930 H   0  0  0  0  0  0  0  0  0  0  0  0
  -29.6400  -24.8340   16.1900 C   0  0  0  0  0  2  0  0  0  0  0  0
  -30.4420  -25.4030   17.2940 N   0  0  0  0  0  4  0  0  0  0  0  0
  -31.2730  -25.8170   16.8940 H   0  0  0  0  0  0  0  0  0  0  0  0
  -30.7540  -24.6450   17.8800 H   0  0  0  0  0  0  0  0  0  0  0  0
  -29.7580  -26.4150   18.1430 C   0  0  0  0  0  2  0  0  0  0  0  0
  -28.7680  -25.7810   19.1400 C   0  0  0  0  0  2  0  0  0  0  0  0
  -28.4570  -26.6980   20.2010 O   0  0  0  0  0  0  0  0  0  0  0  0
  -24.5390  -31.7740   23.2990 C   0  0  0  0  0  0  0  0  0  0  0  0
  -27.2610  -27.3850   20.1940 C   0  0  0  0  0  0  0  0  0  0  0  0
  -23.3830  -30.4230   21.5800 C   0  0  0  0  0  3  0  0  0  0  0  0
  -24.8710  -28.9010   20.1860 C   0  0  0  0  0  0  0  0  0  0  0  0
  -25.9180  -30.7560   21.4900 C   0  0  0  0  0  2  0  0  0  0  0  0
  -26.0110  -29.3960   20.8280 C   0  0  0  0  0  0  0  0  0  0  0  0
  -27.2050  -28.6420   20.8390 C   0  0  0  0  0  3  0  0  0  0  0  0
  -26.0800  -26.8770   19.6010 C   0  0  0  0  0  3  0  0  0  0  0  0
  -24.8970  -27.6360   19.5810 C   0  0  0  0  0  3  0  0  0  0  0  0
  -23.6400  -29.7720   20.1950 C   0  0  0  0  0  2  0  0  0  0  0  0
  -24.6300  -30.9960   22.1830 N   0  0  0  0  0  0  0  0  0  0  0  0
  -23.4400  -32.0450   23.8000 O   0  0  0  0  0  0  0  0  0  0  0  0
  -22.6810  -29.3870   22.4900 C   0  0  0  0  0  0  0  0  0  0  0  0
  -21.3590  -29.2320   22.3110 N   0  0  0  0  0  0  0  0  0  0  0  0
  -23.3250  -28.7300   23.3100 O   0  0  0  0  0  0  0  0  0  0  0  0
  -20.9010  -29.8250   21.6330 H   0  0  0  0  0  0  0  0  0  0  0  0
  -17.9460  -28.1050   22.6680 C   0  0  0  0  0  0  0  0  0  0  0  0
  -20.4990  -28.2900   23.0250 C   0  0  0  0  0  3  0  0  0  0  0  0
  -20.5830  -26.8740   22.4090 C   0  0  0  0  0  2  0  0  0  0  0  0
  -19.5060  -26.6120   21.3510 C   0  0  0  0  0  2  0  0  0  0  0  0
  -18.1090  -26.7720   21.9580 C   0  0  0  0  0  2  0  0  0  0  0  0
  -19.0690  -28.8230   23.1560 C   0  0  0  0  0  0  0  0  0  0  0  0
  -18.8640  -30.0740   23.7790 C   0  0  0  0  0  3  0  0  0  0  0  0
  -17.5660  -30.6050   23.9180 C   0  0  0  0  0  3  0  0  0  0  0  0
  -16.4580  -29.8820   23.4450 C   0  0  0  0  0  3  0  0  0  0  0  0
  -16.6480  -28.6330   22.8280 C   0  0  0  0  0  3  0  0  0  0  0  0
  -25.8070  -32.3730   23.9860 C   0  0  0  0  0  3  0  0  0  0  0  0
  -26.2280  -31.6020   25.2980 C   0  0  1  0  0  0  0  0  0  0  0  0
  -25.0680  -31.4110   26.3030 C   0  0  0  0  0  1  0  0  0  0  0  0
  -26.7930  -30.2060   24.9510 C   0  0  0  0  0  1  0  0  0  0  0  0
  -27.3570  -32.3730   26.0190 C   0  0  0  0  0  1  0  0  0  0  0  0
  -25.5190  -33.7830   24.2790 N   0  0  0  0  0  0  0  0  0  0  0  0
  -25.9290  -34.8150   23.5290 C   0  0  0  0  0  0  0  0  0  0  0  0
  -26.6570  -34.6780   22.5420 O   0  0  0  0  0  0  0  0  0  0  0  0
  -24.8780  -33.9630   25.0370 H   0  0  0  0  0  0  0  0  0  0  0  0
  -24.2910  -36.6610   23.0370 C   0  0  0  0  0  1  0  0  0  0  0  0
  -25.4550  -36.2220   23.9380 C   0  0  0  0  0  3  0  0  0  0  0  0
  -27.5470  -37.0530   24.9200 C   0  0  0  0  0  1  0  0  0  0  0  0
  -26.5260  -37.2400   23.8920 N   0  0  0  0  0  0  0  0  0  0  0  0
  -26.1400  -38.1750   23.9970 H   0  0  0  0  0  0  0  0  0  0  0  0
  2 50  1  0
  2  1  2  0
  3  1  1  0
  3  4  1  0
  4  7  1  0
  5  3  2  0
  6  4  1  0
  7  8  1  0
  9  8  1  0
  9 10  1  0
 10 11  1  0
 11 20  1  0
 12 20  1  0
 13 18  1  0
 14 15  1  0
 14 13  1  0
 16 15  1  0
 16 25  1  0
 16 17  1  0
 18 12  1  0
 18 17  1  0
 19 12  2  0
 20 21  1  0
 22 23  2  0
 23 42  1  0
 24 23  1  0
 24 27  1  0
 25 22  1  0
 25 26  1  0
 26 24  2  0
 27 28  1  0
 28 29  2  0
 30 33  1  0
 30 29  1  0
 31 30  2  0
 32 31  1  0
 32 27  2  0
 33 34  1  0
 34 35  1  0
 35 36  2  0
 37 36  1  0
 37 41  1  0
 38 37  2  0
 39 34  2  0
 39 38  1  0
 40 39  1  0
 42 43  1  0
 43 46  1  0
 43 45  1  0
 44 42  2  0
 47 48  1  0
 47 22  1  0
 49 47  1  0
 50 51  1  0
 51 53  1  0
 51 54  1  0
 52 51  1  0
 54 55  1  0
 55 56  1  0
 57 68  2  0
 58 56  1  0
 58 63  1  0
 59 67  1  0
 59 69  1  0
 60 66  1  0
 60 62  1  0
 61 67  1  0
 62 63  2  0
 62 61  1  0
 64 58  2  0
 65 64  1  0
 65 60  2  0
 66 59  1  0
 67 57  1  0
 69 71  2  0
 70 69  1  0
 72 70  1  0
 73 82  2  0
 73 78  1  0
 74 70  1  0
 74 78  1  0
 75 74  1  0
 76 77  1  0
 76 75  1  0
 77 73  1  0
 78 79  2  0
 79 80  1  0
 81 80  2  0
 82 81  1  0
 83 57  1  0
 83 88  1  0
 83 84  1  0
 84 87  1  1
 84 85  1  0
 86 84  1  0
 88 91  1  0
 89 93  1  0
 89 88  1  0
 90 89  2  0
 93 92  1  0
 95 93  1  0
 95 96  1  0
 95 94  1  0
M  ISO  4  12 100  20 100  55 101  56 101
M  END
>  <TORSDO>  (7) 
F 26

>  <SCORE>  (7) 
-11.575

>  <name>  (7) 
6

>  <ligand_id>  (7) 
6

>  <original_smiles>  (7) 
[H]C(C(=O)N([H])C([H])([H])C([H])([H])C([H])([H])C([H])([H])C([H])([H])N([H])C(=O)N1C([H])([H])C([H])([H])C([H])([H])C([H])(n2nc(-c3c([H])c([H])c(Oc4c([H])c([H])c(F)c([H])c4F)c([H])c3[H])c(C(=O)N([H])[H])c2N([H])[H])C1([H])[H])=C([H])C([H])([H])[N+]([H])([H])C([H])([H])C([H])([H])Oc1c([H])c([H])c2c(c1[H])C([H])([H])N(C(=O)C([H])(N([H])C(=O)C([H])(N([H])C([H])([H])[H])C([H])([H])[H])C(C([H])([H])[H])(C([H])([H])[H])C([H])([H])[H])C([H])(C(=O)N([H])C1([H])c3c([H])c([H])c([H])c([H])c3C([H])([H])C([H])([H])C1([H])[H])C2([H])[H]

>  <smiles>  (7) 
[H]C(C(=O)N([H])C([H])([H])C([H])([H])C([H])([H])C([H])([H])C([H])([H])N([H])C(=O)N1C([H])([H])C([H])([H])C([H])([H])C([H])(n2nc(-c3c([H])c([H])c(Oc4c([H])c([H])c(F)c([H])c4F)c([H])c3[H])c(C(=O)N([H])[H])c2N([H])[H])C1([H])[H])=C([H])C([H])([H])[N+]([H])([H])C([H])([H])C([H])([H])Oc1c([H])c([H])c2c(c1[H])C([H])([H])N(C(=O)C([H])(N([H])C(=O)C([H])(N([H])C([H])([H])[H])C([H])([H])[H])C(C([H])([H])[H])(C([H])([H])[H])C([H])([H])[H])C([H])(C(=O)N([H])C1([H])c3c([H])c([H])c([H])c([H])c3C([H])([H])C([H])([H])C1([H])[H])C2([H])[H]

$$$$
7:0:0
     RDKit          3D

 95102  0  0  1  0  0  0  0  0999 V2000
  -29.5730  -22.7280   20.2490 C   0  0  0  0  0  2  0  0  0  0  0  0
  -30.1390  -24.0350   20.6640 N   0  0  0  0  0  4  0  0  0  0  0  0
  -30.9960  -23.8960   21.1720 H   0  0  0  0  0  0  0  0  0  0  0  0
  -29.4790  -24.4820   21.2820 H   0  0  0  0  0  0  0  0  0  0  0  0
  -30.4230  -24.9420   19.5260 C   0  0  0  0  0  2  0  0  0  0  0  0
  -30.7710  -26.3880   19.9440 C   0  0  0  0  0  2  0  0  0  0  0  0
  -29.6280  -27.1830   20.6070 C   0  0  0  0  0  2  0  0  0  0  0  0
  -28.3900  -26.7020   20.1050 O   0  0  0  0  0  0  0  0  0  0  0  0
  -24.5890  -31.9070   23.2520 C   0  0  0  0  0  0  0  0  0  0  0  0
  -27.2570  -27.4730   20.2070 C   0  0  0  0  0  0  0  0  0  0  0  0
  -23.3820  -30.4830   21.6270 C   0  0  0  0  0  3  0  0  0  0  0  0
  -24.8400  -28.9340   20.2230 C   0  0  0  0  0  0  0  0  0  0  0  0
  -25.9010  -30.8560   21.4180 C   0  0  0  0  0  2  0  0  0  0  0  0
  -25.9920  -29.4770   20.8050 C   0  0  0  0  0  0  0  0  0  0  0  0
  -27.2020  -28.7540   20.8070 C   0  0  0  0  0  3  0  0  0  0  0  0
  -26.0850  -26.9300   19.6440 C   0  0  0  0  0  3  0  0  0  0  0  0
  -24.8760  -27.6520   19.6490 C   0  0  0  0  0  3  0  0  0  0  0  0
  -23.5930  -29.7870   20.2550 C   0  0  0  0  0  2  0  0  0  0  0  0
  -24.6430  -31.0960   22.1590 N   0  0  0  0  0  0  0  0  0  0  0  0
  -23.5090  -32.1840   23.7910 O   0  0  0  0  0  0  0  0  0  0  0  0
  -22.7360  -29.4710   22.5970 C   0  0  0  0  0  0  0  0  0  0  0  0
  -21.4120  -29.2840   22.4700 N   0  0  0  0  0  0  0  0  0  0  0  0
  -23.4220  -28.8570   23.4190 O   0  0  0  0  0  0  0  0  0  0  0  0
  -20.9210  -29.8330   21.7790 H   0  0  0  0  0  0  0  0  0  0  0  0
  -18.0410  -28.0940   22.9750 C   0  0  0  0  0  0  0  0  0  0  0  0
  -20.5980  -28.3550   23.2500 C   0  0  0  0  0  3  0  0  0  0  0  0
  -20.7020  -26.9190   22.6890 C   0  0  0  0  0  2  0  0  0  0  0  0
  -19.6030  -26.5840   21.6750 C   0  0  0  0  0  2  0  0  0  0  0  0
  -18.2190  -26.7360   22.3150 C   0  0  0  0  0  2  0  0  0  0  0  0
  -19.1590  -28.8600   23.3990 C   0  0  0  0  0  0  0  0  0  0  0  0
  -18.9390  -30.1320   23.9730 C   0  0  0  0  0  3  0  0  0  0  0  0
  -17.6340  -30.6360   24.1280 C   0  0  0  0  0  3  0  0  0  0  0  0
  -16.5320  -29.8670   23.7210 C   0  0  0  0  0  3  0  0  0  0  0  0
  -16.7350  -28.5980   23.1500 C   0  0  0  0  0  3  0  0  0  0  0  0
  -25.8760  -32.5450   23.8630 C   0  0  0  0  0  3  0  0  0  0  0  0
  -25.5650  -33.9430   24.1880 N   0  0  0  0  0  0  0  0  0  0  0  0
  -25.8970  -34.9930   23.4250 C   0  0  0  0  0  0  0  0  0  0  0  0
  -26.5690  -34.8870   22.3950 O   0  0  0  0  0  0  0  0  0  0  0  0
  -24.9690  -34.1000   24.9880 H   0  0  0  0  0  0  0  0  0  0  0  0
  -24.1670  -36.7780   23.0500 C   0  0  0  0  0  1  0  0  0  0  0  0
  -25.4030  -36.3810   23.8740 C   0  0  0  0  0  3  0  0  0  0  0  0
  -27.5310  -37.2700   24.7150 C   0  0  0  0  0  1  0  0  0  0  0  0
  -26.4350  -37.4350   23.7640 N   0  0  0  0  0  0  0  0  0  0  0  0
  -26.0290  -38.3560   23.9070 H   0  0  0  0  0  0  0  0  0  0  0  0
  -26.4070  -31.7780   25.1350 C   0  0  1  0  0  0  0  0  0  0  0  0
  -25.3230  -31.5370   26.2100 C   0  0  0  0  0  1  0  0  0  0  0  0
  -26.9930  -30.4030   24.7370 C   0  0  0  0  0  1  0  0  0  0  0  0
  -27.5580  -32.5790   25.7860 C   0  0  0  0  0  1  0  0  0  0  0  0
  -29.9200  -21.5570   21.2000 C   0  0  0  0  0  2  0  0  0  0  0  0
  -29.3300  -20.2160   20.6940 C   0  0  0  0  0  2  0  0  0  0  0  0
  -29.8250  -19.0160   21.4220 N   0  0  0  0  0  4  0  0  0  0  0  0
  -29.7600  -19.1610   22.4160 H   0  0  0  0  0  0  0  0  0  0  0  0
  -30.8060  -18.8720   21.2010 H   0  0  0  0  0  0  0  0  0  0  0  0
  -28.1740  -17.6890   19.9550 C   0  0  0  0  0  1  0  0  0  0  0  0
  -29.2240  -17.6870   21.0980 C   0  0  0  0  0  3  0  0  0  0  0  0
  -30.8000  -14.3930   20.2300 C   0  0  0  0  0  0  0  0  0  0  0  0
  -30.4560  -12.2250   19.1100 C   0  0  0  0  0  2  0  0  0  0  0  0
  -29.4960  -12.4270   17.9200 C   0  0  0  0  0  2  0  0  0  0  0  0
  -28.0290  -12.3020   18.3760 C   0  0  0  0  0  2  0  0  0  0  0  0
  -27.7170  -13.1610   19.6300 C   0  0  0  0  0  3  0  0  0  0  0  0
  -28.7880  -12.9500   20.7250 C   0  0  0  0  0  2  0  0  0  0  0  0
  -30.1100  -13.2230   20.1340 N   0  0  0  0  0  0  0  0  0  0  0  0
  -31.9230  -14.5360   19.7400 O   0  0  0  0  0  0  0  0  0  0  0  0
  -30.3790  -16.7260   20.7680 C   0  0  0  0  0  0  0  0  0  0  0  0
  -30.0790  -15.4120   20.7380 N   0  0  0  0  0  0  0  0  0  0  0  0
  -31.4930  -17.2120   20.5360 O   0  0  0  0  0  0  0  0  0  0  0  0
  -29.1530  -15.1590   21.0370 H   0  0  0  0  0  0  0  0  0  0  0  0
  -25.3360  -13.8020   20.3760 C   0  0  0  0  0  0  0  0  0  0  0  0
  -24.2670  -13.0450   20.7730 C   0  0  0  0  0  0  0  0  0  0  0  0
  -24.7120  -11.6880   20.7450 C   0  0  0  0  0  0  0  0  0  0  0  0
  -26.3670  -12.9080   20.1350 N   0  0  0  0  0  0  0  0  0  0  0  0
  -25.9960  -11.6320   20.4140 N   0  0  0  0  0  0  0  0  0  0  0  0
  -23.9760  -10.4370   20.9580 C   0  0  0  0  0  0  0  0  0  0  0  0
  -24.4100   -9.4780   21.8980 C   0  0  0  0  0  3  0  0  0  0  0  0
  -23.6750   -8.2900   22.0970 C   0  0  0  0  0  3  0  0  0  0  0  0
  -22.4930   -8.0530   21.3560 C   0  0  0  0  0  0  0  0  0  0  0  0
  -22.0800   -9.0000   20.4040 C   0  0  0  0  0  3  0  0  0  0  0  0
  -22.8140  -10.1800   20.2030 C   0  0  0  0  0  3  0  0  0  0  0  0
  -21.7310   -6.9150   21.4640 O   0  0  0  0  0  0  0  0  0  0  0  0
  -21.6770   -6.1920   22.6280 C   0  0  0  0  0  0  0  0  0  0  0  0
  -21.2650   -6.7730   23.8470 C   0  0  0  0  0  3  0  0  0  0  0  0
  -21.1570   -5.9770   25.0050 C   0  0  0  0  0  3  0  0  0  0  0  0
  -21.4500   -4.6020   24.9460 C   0  0  0  0  0  0  0  0  0  0  0  0
  -21.8540   -4.0200   23.7320 C   0  0  0  0  0  3  0  0  0  0  0  0
  -21.9650   -4.8130   22.5750 C   0  0  0  0  0  0  0  0  0  0  0  0
  -22.3340   -4.2440   21.4030 F   0  0  0  0  0  0  0  0  0  0  0  0
  -21.3400   -3.8360   26.0570 F   0  0  0  0  0  0  0  0  0  0  0  0
  -22.8810  -13.5410   21.0660 C   0  0  0  0  0  0  0  0  0  0  0  0
  -22.1600  -12.8620   21.9520 N   0  0  0  0  0  0  0  0  0  0  0  0
  -22.4440  -14.5650   20.5410 O   0  0  0  0  0  0  0  0  0  0  0  0
  -22.5260  -12.0340   22.3990 H   0  0  0  0  0  0  0  0  0  0  0  0
  -21.2290  -13.1750   22.1860 H   0  0  0  0  0  0  0  0  0  0  0  0
  -25.5070  -15.1680   20.1780 N   0  0  0  0  0  0  0  0  0  0  0  0
  -24.7320  -15.8170   20.2660 H   0  0  0  0  0  0  0  0  0  0  0  0
  -26.3170  -15.5820   19.7400 H   0  0  0  0  0  0  0  0  0  0  0  0
  1  2  1  0
  1 49  1  0
  2  3  1  0
  2  4  1  0
  5  6  1  0
  5  2  1  0
  6  7  1  0
  8 10  1  0
  8  7  1  0
  9 20  2  0
 10 15  1  0
 11 19  1  0
 11 21  1  0
 12 18  1  0
 12 14  1  0
 13 19  1  0
 14 15  2  0
 14 13  1  0
 16 17  1  0
 16 10  2  0
 17 12  2  0
 18 11  1  0
 19  9  1  0
 21 23  2  0
 22 21  1  0
 24 22  1  0
 25 34  2  0
 25 30  1  0
 26 22  1  0
 26 30  1  0
 27 26  1  0
 28 29  1  0
 28 27  1  0
 29 25  1  0
 30 31  2  0
 31 32  1  0
 33 32  2  0
 34 33  1  0
 35  9  1  0
 35 36  1  0
 35 45  1  0
 36 39  1  0
 37 41  1  0
 37 36  1  0
 38 37  2  0
 41 40  1  0
 43 41  1  0
 43 44  1  0
 43 42  1  0
 45 48  1  1
 45 46  1  0
 47 45  1  0
 50 49  1  0
 50 51  1  0
 51 52  1  0
 53 51  1  0
 55 54  1  0
 55 51  1  0
 56 65  1  0
 57 62  1  0
 58 59  1  0
 58 57  1  0
 60 59  1  0
 60 71  1  0
 60 61  1  0
 62 56  1  0
 62 61  1  0
 63 56  2  0
 64 55  1  0
 65 64  1  0
 65 67  1  0
 66 64  2  0
 68 69  2  0
 69 88  1  0
 70 69  1  0
 70 73  1  0
 71 68  1  0
 71 72  1  0
 72 70  2  0
 73 74  1  0
 74 75  2  0
 76 79  1  0
 76 75  1  0
 77 76  2  0
 78 77  1  0
 78 73  2  0
 79 80  1  0
 80 81  1  0
 81 82  2  0
 83 82  1  0
 83 87  1  0
 84 83  2  0
 85 80  2  0
 85 84  1  0
 86 85  1  0
 88 89  1  0
 89 92  1  0
 89 91  1  0
 90 88  2  0
 93 94  1  0
 93 68  1  0
 95 93  1  0
M  ISO  4   7 101   8 101  56 100  65 100
M  END
>  <TORSDO>  (8) 
F 24

>  <SCORE>  (8) 
-12.524

>  <name>  (8) 
7

>  <ligand_id>  (8) 
7

>  <original_smiles>  (8) 
[H]c1c([H])c([H])c2c(c1[H])C([H])([H])C([H])([H])C([H])([H])C2([H])N([H])C(=O)C1([H])N(C(=O)C([H])(N([H])C(=O)C([H])(N([H])C([H])([H])[H])C([H])([H])[H])C(C([H])([H])[H])(C([H])([H])[H])C([H])([H])[H])C([H])([H])c2c([H])c(OC([H])([H])C([H])([H])C([H])([H])[N+]([H])([H])C([H])([H])C([H])([H])C([H])([H])[N+]([H])([H])C([H])(C(=O)N([H])C(=O)N3C([H])([H])C([H])([H])C([H])([H])C([H])(n4nc(-c5c([H])c([H])c(Oc6c([H])c([H])c(F)c([H])c6F)c([H])c5[H])c(C(=O)N([H])[H])c4N([H])[H])C3([H])[H])C([H])([H])[H])c([H])c([H])c2C1([H])[H]

>  <smiles>  (8) 
[H]c1c([H])c([H])c2c(c1[H])C([H])([H])C([H])([H])C([H])([H])C2([H])N([H])C(=O)C1([H])N(C(=O)C([H])(N([H])C(=O)C([H])(N([H])C([H])([H])[H])C([H])([H])[H])C(C([H])([H])[H])(C([H])([H])[H])C([H])([H])[H])C([H])([H])c2c([H])c(OC([H])([H])C([H])([H])C([H])([H])[N+]([H])([H])C([H])([H])C([H])([H])C([H])([H])[N+]([H])([H])C([H])(C(=O)N([H])C(=O)N3C([H])([H])C([H])([H])C([H])([H])C([H])(n4nc(-c5c([H])c([H])c(Oc6c([H])c([H])c(F)c([H])c6F)c([H])c5[H])c(C(=O)N([H])[H])c4N([H])[H])C3([H])[H])C([H])([H])[H])c([H])c([H])c2C1([H])[H]

$$$$
8:0:0
     RDKit          3D

 93100  0  0  1  0  0  0  0  0999 V2000
  -29.4600  -21.6980   22.0450 C   0  0  0  0  0  0  0  0  0  0  0  0
  -28.2660  -22.2410   22.3000 N   0  0  0  0  0  0  0  0  0  0  0  0
  -30.5190  -22.2290   22.3870 O   0  0  0  0  0  0  0  0  0  0  0  0
  -27.4480  -21.7510   21.9640 H   0  0  0  0  0  0  0  0  0  0  0  0
  -29.3380  -20.4260   21.3530 C   0  0  0  0  0  3  0  0  0  0  0  0
  -30.4020  -19.8770   20.7410 C   0  0  0  0  0  3  0  0  0  0  0  0
  -30.4040  -18.5480   20.0080 C   0  0  0  0  0  2  0  0  0  0  0  0
  -31.5900  -17.6650   20.4310 C   0  0  0  0  0  2  0  0  0  0  0  0
  -31.2910  -16.6660   21.5730 C   0  0  0  0  0  2  0  0  0  0  0  0
  -31.0920  -14.5110   20.3310 C   0  0  0  0  0  0  0  0  0  0  0  0
  -30.6730  -12.3890   19.1540 C   0  0  0  0  0  2  0  0  0  0  0  0
  -29.7110  -12.6030   17.9700 C   0  0  0  0  0  2  0  0  0  0  0  0
  -28.2470  -12.4930   18.4350 C   0  0  0  0  0  2  0  0  0  0  0  0
  -27.9530  -13.3590   19.6890 C   0  0  0  0  0  3  0  0  0  0  0  0
  -29.0230  -13.1320   20.7800 C   0  0  0  0  0  2  0  0  0  0  0  0
  -30.3460  -13.3860   20.1850 N   0  0  0  0  0  0  0  0  0  0  0  0
  -32.1610  -14.6870   19.7420 O   0  0  0  0  0  0  0  0  0  0  0  0
  -30.5870  -15.4520   21.1430 N   0  0  0  0  0  0  0  0  0  0  0  0
  -29.6940  -15.2550   21.5720 H   0  0  0  0  0  0  0  0  0  0  0  0
  -25.5910  -14.0240   20.4700 C   0  0  0  0  0  0  0  0  0  0  0  0
  -24.5110  -13.2760   20.8530 C   0  0  0  0  0  0  0  0  0  0  0  0
  -24.9320  -11.9130   20.7880 C   0  0  0  0  0  0  0  0  0  0  0  0
  -26.6050  -13.1180   20.1970 N   0  0  0  0  0  0  0  0  0  0  0  0
  -26.2110  -11.8410   20.4440 N   0  0  0  0  0  0  0  0  0  0  0  0
  -24.1740  -10.6680   20.9740 C   0  0  0  0  0  0  0  0  0  0  0  0
  -24.5900   -9.6820   21.8950 C   0  0  0  0  0  3  0  0  0  0  0  0
  -23.8350   -8.5020   22.0700 C   0  0  0  0  0  3  0  0  0  0  0  0
  -22.6500   -8.3010   21.3230 C   0  0  0  0  0  0  0  0  0  0  0  0
  -22.2520   -9.2750   20.3910 C   0  0  0  0  0  3  0  0  0  0  0  0
  -23.0080  -10.4470   20.2140 C   0  0  0  0  0  3  0  0  0  0  0  0
  -21.8660   -7.1750   21.4090 O   0  0  0  0  0  0  0  0  0  0  0  0
  -21.7890   -6.4390   22.5630 C   0  0  0  0  0  0  0  0  0  0  0  0
  -21.3590   -7.0080   23.7820 C   0  0  0  0  0  3  0  0  0  0  0  0
  -21.2260   -6.1990   24.9290 C   0  0  0  0  0  3  0  0  0  0  0  0
  -21.5110   -4.8220   24.8570 C   0  0  0  0  0  0  0  0  0  0  0  0
  -21.9330   -4.2530   23.6430 C   0  0  0  0  0  3  0  0  0  0  0  0
  -22.0680   -5.0580   22.4980 C   0  0  0  0  0  0  0  0  0  0  0  0
  -22.4540   -4.5010   21.3260 F   0  0  0  0  0  0  0  0  0  0  0  0
  -21.3760   -4.0430   25.9560 F   0  0  0  0  0  0  0  0  0  0  0  0
  -23.1360  -13.7880   21.1740 C   0  0  0  0  0  0  0  0  0  0  0  0
  -22.4180  -13.1040   22.0580 N   0  0  0  0  0  0  0  0  0  0  0  0
  -22.7080  -14.8280   20.6730 O   0  0  0  0  0  0  0  0  0  0  0  0
  -22.7770  -12.2620   22.4840 H   0  0  0  0  0  0  0  0  0  0  0  0
  -21.4960  -13.4280   22.3140 H   0  0  0  0  0  0  0  0  0  0  0  0
  -25.7930  -15.3920   20.3130 N   0  0  0  0  0  0  0  0  0  0  0  0
  -25.0530  -16.0710   20.4540 H   0  0  0  0  0  0  0  0  0  0  0  0
  -26.6520  -15.8090   19.9740 H   0  0  0  0  0  0  0  0  0  0  0  0
  -28.0350  -23.5030   22.9970 C   0  0  0  0  0  2  0  0  0  0  0  0
  -27.4350  -24.5500   22.0520 C   0  0  0  0  0  2  0  0  0  0  0  0
  -28.4490  -25.0570   21.1930 O   0  0  0  0  0  0  0  0  0  0  0  0
  -27.9030  -25.9020   20.1920 C   0  0  0  0  0  2  0  0  0  0  0  0
  -28.9930  -26.7030   19.4460 C   0  0  0  0  0  2  0  0  0  0  0  0
  -28.4620  -27.3320   18.2760 O   0  0  0  0  0  0  0  0  0  0  0  0
  -24.4660  -31.2910   22.6100 C   0  0  0  0  0  0  0  0  0  0  0  0
  -27.2520  -27.9350   18.4940 C   0  0  0  0  0  0  0  0  0  0  0  0
  -23.2560  -30.0750   20.8260 C   0  0  0  0  0  3  0  0  0  0  0  0
  -24.7150  -29.0450   19.0030 C   0  0  0  0  0  0  0  0  0  0  0  0
  -25.6840  -30.8040   20.4970 C   0  0  0  0  0  2  0  0  0  0  0  0
  -25.8560  -29.6050   19.5910 C   0  0  0  0  0  0  0  0  0  0  0  0
  -27.1300  -29.0530   19.3450 C   0  0  0  0  0  3  0  0  0  0  0  0
  -26.1020  -27.3840   17.8930 C   0  0  0  0  0  3  0  0  0  0  0  0
  -24.8310  -27.9270   18.1570 C   0  0  0  0  0  3  0  0  0  0  0  0
  -23.3910  -29.7000   19.3250 C   0  0  0  0  0  2  0  0  0  0  0  0
  -24.4910  -30.7260   21.3710 N   0  0  0  0  0  0  0  0  0  0  0  0
  -23.4260  -31.3150   23.2800 O   0  0  0  0  0  0  0  0  0  0  0  0
  -22.8330  -28.8140   21.6120 C   0  0  0  0  0  0  0  0  0  0  0  0
  -21.5340  -28.4800   21.5460 N   0  0  0  0  0  0  0  0  0  0  0  0
  -23.6630  -28.1500   22.2380 O   0  0  0  0  0  0  0  0  0  0  0  0
  -20.9170  -29.0810   21.0180 H   0  0  0  0  0  0  0  0  0  0  0  0
  -18.3910  -26.7690   22.0320 C   0  0  0  0  0  0  0  0  0  0  0  0
  -20.9120  -27.3150   22.1750 C   0  0  0  0  0  3  0  0  0  0  0  0
  -21.1320  -26.0430   21.3260 C   0  0  0  0  0  2  0  0  0  0  0  0
  -19.9880  -25.7640   20.3470 C   0  0  0  0  0  2  0  0  0  0  0  0
  -18.6640  -25.6010   21.0990 C   0  0  0  0  0  2  0  0  0  0  0  0
  -19.4450  -27.5830   22.5240 C   0  0  0  0  0  0  0  0  0  0  0  0
  -19.1320  -28.6770   23.3600 C   0  0  0  0  0  3  0  0  0  0  0  0
  -17.7970  -28.9590   23.7070 C   0  0  0  0  0  3  0  0  0  0  0  0
  -16.7600  -28.1410   23.2300 C   0  0  0  0  0  3  0  0  0  0  0  0
  -17.0570  -27.0450   22.3990 C   0  0  0  0  0  3  0  0  0  0  0  0
  -25.7350  -31.9520   23.2350 C   0  0  0  0  0  3  0  0  0  0  0  0
  -26.4300  -31.0570   24.3330 C   0  0  1  0  0  0  0  0  0  0  0  0
  -25.4600  -30.5420   25.4210 C   0  0  0  0  0  1  0  0  0  0  0  0
  -27.1080  -29.8280   23.6830 C   0  0  0  0  0  1  0  0  0  0  0  0
  -27.5510  -31.8630   25.0320 C   0  0  0  0  0  1  0  0  0  0  0  0
  -25.3260  -33.2450   23.7980 N   0  0  0  0  0  0  0  0  0  0  0  0
  -25.5080  -34.4270   23.1950 C   0  0  0  0  0  0  0  0  0  0  0  0
  -26.1100  -34.5480   22.1240 O   0  0  0  0  0  0  0  0  0  0  0  0
  -24.7780  -33.2180   24.6460 H   0  0  0  0  0  0  0  0  0  0  0  0
  -23.5980  -36.0600   23.2240 C   0  0  0  0  0  1  0  0  0  0  0  0
  -24.9290  -35.6730   23.8890 C   0  0  0  0  0  3  0  0  0  0  0  0
  -27.0260  -36.6410   24.7220 C   0  0  0  0  0  1  0  0  0  0  0  0
  -25.8480  -36.8320   23.8780 N   0  0  0  0  0  0  0  0  0  0  0  0
  -25.3700  -37.6730   24.1890 H   0  0  0  0  0  0  0  0  0  0  0  0
  1  2  1  0
  1  3  2  0
  2 48  1  0
  4  2  1  0
  5  1  1  0
  6  5  2  0
  7  8  1  0
  7  6  1  0
  8  9  1  0
 10 18  1  0
 11 16  1  0
 12 13  1  0
 12 11  1  0
 14 13  1  0
 14 23  1  0
 14 15  1  0
 16 10  1  0
 16 15  1  0
 17 10  2  0
 18 19  1  0
 18  9  1  0
 20 21  2  0
 21 40  1  0
 22 21  1  0
 22 25  1  0
 23 24  1  0
 23 20  1  0
 24 22  2  0
 25 26  1  0
 26 27  2  0
 28 31  1  0
 28 27  1  0
 29 28  2  0
 30 29  1  0
 30 25  2  0
 31 32  1  0
 32 33  1  0
 33 34  2  0
 35 34  1  0
 35 39  1  0
 36 35  2  0
 37 32  2  0
 37 36  1  0
 38 37  1  0
 40 41  1  0
 41 44  1  0
 41 43  1  0
 42 40  2  0
 45 46  1  0
 45 20  1  0
 47 45  1  0
 49 48  1  0
 50 49  1  0
 51 50  1  0
 52 51  1  0
 53 55  1  0
 53 52  1  0
 54 65  2  0
 55 60  1  0
 56 64  1  0
 56 66  1  0
 57 63  1  0
 57 59  1  0
 58 64  1  0
 59 58  1  0
 60 59  2  0
 61 62  1  0
 61 55  2  0
 62 57  2  0
 63 56  1  0
 64 54  1  0
 66 68  2  0
 67 66  1  0
 69 67  1  0
 70 79  2  0
 70 75  1  0
 71 67  1  0
 71 75  1  0
 72 71  1  0
 73 74  1  0
 73 72  1  0
 74 70  1  0
 75 76  2  0
 76 77  1  0
 78 77  2  0
 79 78  1  0
 80 54  1  0
 80 85  1  0
 80 81  1  0
 81 84  1  1
 81 82  1  0
 83 81  1  0
 85 88  1  0
 86 85  1  0
 86 90  1  0
 87 86  2  0
 90 89  1  0
 92 90  1  0
 92 93  1  0
 92 91  1  0
M  ISO  4  10 100  18 100  52 101  53 101
M  END
>  <TORSDO>  (9) 
F 25

>  <SCORE>  (9) 
-8.383

>  <name>  (9) 
8

>  <ligand_id>  (9) 
8

>  <original_smiles>  (9) 
[H]C(C(=O)N([H])C([H])([H])C([H])([H])OC([H])([H])C([H])([H])Oc1c([H])c([H])c2c(c1[H])C([H])([H])N(C(=O)C([H])(N([H])C(=O)C([H])(N([H])C([H])([H])[H])C([H])([H])[H])C(C([H])([H])[H])(C([H])([H])[H])C([H])([H])[H])C([H])(C(=O)N([H])C1([H])c3c([H])c([H])c([H])c([H])c3C([H])([H])C([H])([H])C1([H])[H])C2([H])[H])=C([H])C([H])([H])C([H])([H])C([H])([H])N([H])C(=O)N1C([H])([H])C([H])([H])C([H])([H])C([H])(n2nc(-c3c([H])c([H])c(Oc4c([H])c([H])c(F)c([H])c4F)c([H])c3[H])c(C(=O)N([H])[H])c2N([H])[H])C1([H])[H]

>  <smiles>  (9) 
[H]C(C(=O)N([H])C([H])([H])C([H])([H])OC([H])([H])C([H])([H])Oc1c([H])c([H])c2c(c1[H])C([H])([H])N(C(=O)C([H])(N([H])C(=O)C([H])(N([H])C([H])([H])[H])C([H])([H])[H])C(C([H])([H])[H])(C([H])([H])[H])C([H])([H])[H])C([H])(C(=O)N([H])C1([H])c3c([H])c([H])c([H])c([H])c3C([H])([H])C([H])([H])C1([H])[H])C2([H])[H])=C([H])C([H])([H])C([H])([H])C([H])([H])N([H])C(=O)N1C([H])([H])C([H])([H])C([H])([H])C([H])(n2nc(-c3c([H])c([H])c(Oc4c([H])c([H])c(F)c([H])c4F)c([H])c3[H])c(C(=O)N([H])[H])c2N([H])[H])C1([H])[H]

$$$$
9:0:0
     RDKit          3D

 97104  0  0  1  0  0  0  0  0999 V2000
  -30.1550  -21.9480   23.3690 C   0  0  0  0  0  0  0  0  0  0  0  0
  -29.0770  -22.0900   22.5980 N   0  0  0  0  0  0  0  0  0  0  0  0
  -30.7840  -22.9080   23.8170 O   0  0  0  0  0  0  0  0  0  0  0  0
  -28.6150  -21.2510   22.2690 H   0  0  0  0  0  0  0  0  0  0  0  0
  -31.7070  -20.1240   23.0670 C   0  0  0  0  0  3  0  0  0  0  0  0
  -30.5150  -20.5570   23.5170 C   0  0  0  0  0  3  0  0  0  0  0  0
  -32.0180  -18.7200   23.1390 C   0  0  0  0  0  0  0  0  0  0  0  0
  -32.6140  -18.3190   22.0130 N   0  0  0  0  0  0  0  0  0  0  0  0
  -31.7190  -17.9620   24.0640 O   0  0  0  0  0  0  0  0  0  0  0  0
  -32.8360  -19.0350   21.3330 H   0  0  0  0  0  0  0  0  0  0  0  0
  -32.8400  -16.9340   21.6180 C   0  0  0  0  0  2  0  0  0  0  0  0
  -31.5230  -16.1940   21.3140 C   0  0  0  0  0  2  0  0  0  0  0  0
  -30.9250  -16.4820   19.9200 C   0  0  0  0  0  2  0  0  0  0  0  0
  -30.1160  -14.6420   18.4310 C   0  0  0  0  0  0  0  0  0  0  0  0
  -29.9060  -12.3000   17.6850 C   0  0  0  0  0  2  0  0  0  0  0  0
  -28.6970  -12.0220   16.7800 C   0  0  0  0  0  2  0  0  0  0  0  0
  -27.4420  -11.7360   17.6230 C   0  0  0  0  0  2  0  0  0  0  0  0
  -27.2010  -12.8120   18.7120 C   0  0  0  0  0  3  0  0  0  0  0  0
  -28.4860  -13.0670   19.5230 C   0  0  0  0  0  2  0  0  0  0  0  0
  -29.5760  -13.4110   18.5880 N   0  0  0  0  0  0  0  0  0  0  0  0
  -30.7700  -14.9920   17.4440 O   0  0  0  0  0  0  0  0  0  0  0  0
  -30.0580  -15.3730   19.5480 N   0  0  0  0  0  0  0  0  0  0  0  0
  -29.4960  -14.9740   20.2850 H   0  0  0  0  0  0  0  0  0  0  0  0
  -25.2560  -13.2620   20.3400 C   0  0  0  0  0  0  0  0  0  0  0  0
  -24.3280  -12.4300   20.9080 C   0  0  0  0  0  0  0  0  0  0  0  0
  -24.6430  -11.1160   20.4460 C   0  0  0  0  0  0  0  0  0  0  0  0
  -26.0830  -12.4480   19.5800 N   0  0  0  0  0  0  0  0  0  0  0  0
  -25.7350  -11.1410   19.6930 N   0  0  0  0  0  0  0  0  0  0  0  0
  -23.9350   -9.8430   20.6310 C   0  0  0  0  0  0  0  0  0  0  0  0
  -24.3960   -8.8660   21.5420 C   0  0  0  0  0  3  0  0  0  0  0  0
  -23.6890   -7.6580   21.7150 C   0  0  0  0  0  3  0  0  0  0  0  0
  -22.5050   -7.4160   20.9760 C   0  0  0  0  0  0  0  0  0  0  0  0
  -22.0630   -8.3810   20.0550 C   0  0  0  0  0  3  0  0  0  0  0  0
  -22.7720   -9.5820   19.8810 C   0  0  0  0  0  3  0  0  0  0  0  0
  -21.7670   -6.2600   21.0600 O   0  0  0  0  0  0  0  0  0  0  0  0
  -21.5090   -5.6570   22.2640 C   0  0  0  0  0  0  0  0  0  0  0  0
  -20.7880   -6.3110   23.2880 C   0  0  0  0  0  3  0  0  0  0  0  0
  -20.4850   -5.6290   24.4830 C   0  0  0  0  0  3  0  0  0  0  0  0
  -20.8910   -4.2910   24.6530 C   0  0  0  0  0  0  0  0  0  0  0  0
  -21.6030   -3.6360   23.6330 C   0  0  0  0  0  3  0  0  0  0  0  0
  -21.9080   -4.3160   22.4410 C   0  0  0  0  0  0  0  0  0  0  0  0
  -22.5760   -3.6730   21.4530 F   0  0  0  0  0  0  0  0  0  0  0  0
  -20.5930   -3.6330   25.7970 F   0  0  0  0  0  0  0  0  0  0  0  0
  -23.1570  -12.8410   21.7530 C   0  0  0  0  0  0  0  0  0  0  0  0
  -22.7250  -11.9760   22.6650 N   0  0  0  0  0  0  0  0  0  0  0  0
  -22.6460  -13.9540   21.6410 O   0  0  0  0  0  0  0  0  0  0  0  0
  -23.1570  -11.0700   22.7700 H   0  0  0  0  0  0  0  0  0  0  0  0
  -21.9530  -12.2240   23.2670 H   0  0  0  0  0  0  0  0  0  0  0  0
  -25.4550  -14.6390   20.3910 N   0  0  0  0  0  0  0  0  0  0  0  0
  -24.8340  -15.2600   20.8970 H   0  0  0  0  0  0  0  0  0  0  0  0
  -26.1810  -15.1310   19.8830 H   0  0  0  0  0  0  0  0  0  0  0  0
  -28.6560  -23.3590   22.0260 C   0  0  0  0  0  2  0  0  0  0  0  0
  -27.6330  -23.1540   20.8950 C   0  0  0  0  0  2  0  0  0  0  0  0
  -27.9860  -23.9430   19.7660 O   0  0  0  0  0  0  0  0  0  0  0  0
  -27.7290  -25.3300   19.9350 C   0  0  0  0  0  2  0  0  0  0  0  0
  -28.3030  -26.1030   18.7330 C   0  0  0  0  0  2  0  0  0  0  0  0
  -28.3030  -27.5090   18.9770 O   0  0  0  0  0  0  0  0  0  0  0  0
  -24.6680  -31.8160   23.2890 C   0  0  0  0  0  0  0  0  0  0  0  0
  -27.1020  -28.1480   19.1960 C   0  0  0  0  0  0  0  0  0  0  0  0
  -23.3490  -30.7450   21.4920 C   0  0  0  0  0  3  0  0  0  0  0  0
  -24.6980  -29.5480   19.6930 C   0  0  0  0  0  0  0  0  0  0  0  0
  -25.8490  -31.1890   21.1880 C   0  0  0  0  0  2  0  0  0  0  0  0
  -25.8910  -29.9760   20.2840 C   0  0  0  0  0  0  0  0  0  0  0  0
  -27.0940  -29.2840   20.0330 C   0  0  0  0  0  3  0  0  0  0  0  0
  -25.8830  -27.7270   18.6070 C   0  0  0  0  0  3  0  0  0  0  0  0
  -24.6860  -28.4220   18.8530 C   0  0  0  0  0  3  0  0  0  0  0  0
  -23.4580  -30.3560   19.9930 C   0  0  0  0  0  2  0  0  0  0  0  0
  -24.6440  -31.2520   22.0490 N   0  0  0  0  0  0  0  0  0  0  0  0
  -23.6290  -31.9540   23.9500 O   0  0  0  0  0  0  0  0  0  0  0  0
  -22.7790  -29.5400   22.2730 C   0  0  0  0  0  0  0  0  0  0  0  0
  -21.4820  -29.2550   22.0700 N   0  0  0  0  0  0  0  0  0  0  0  0
  -23.4980  -28.8710   23.0180 O   0  0  0  0  0  0  0  0  0  0  0  0
  -20.9560  -29.8570   21.4510 H   0  0  0  0  0  0  0  0  0  0  0  0
  -18.2760  -27.5930   22.1320 C   0  0  0  0  0  0  0  0  0  0  0  0
  -20.7430  -28.1460   22.6700 C   0  0  0  0  0  3  0  0  0  0  0  0
  -21.0880  -26.8080   21.9760 C   0  0  0  0  0  2  0  0  0  0  0  0
  -20.1270  -26.4530   20.8370 C   0  0  0  0  0  2  0  0  0  0  0  0
  -18.6910  -26.3540   21.3570 C   0  0  0  0  0  2  0  0  0  0  0  0
  -19.2410  -28.4420   22.7360 C   0  0  0  0  0  0  0  0  0  0  0  0
  -18.8030  -29.6000   23.4160 C   0  0  0  0  0  3  0  0  0  0  0  0
  -17.4330  -29.9110   23.5000 C   0  0  0  0  0  3  0  0  0  0  0  0
  -16.4830  -29.0600   22.9110 C   0  0  0  0  0  3  0  0  0  0  0  0
  -16.9040  -27.9020   22.2350 C   0  0  0  0  0  3  0  0  0  0  0  0
  -25.9940  -32.3360   23.9250 C   0  0  0  0  0  3  0  0  0  0  0  0
  -26.4370  -31.5180   25.1990 C   0  0  1  0  0  0  0  0  0  0  0  0
  -25.3060  -31.3200   26.2340 C   0  0  0  0  0  1  0  0  0  0  0  0
  -26.9580  -30.1180   24.7980 C   0  0  0  0  0  1  0  0  0  0  0  0
  -27.6080  -32.2400   25.9060 C   0  0  0  0  0  1  0  0  0  0  0  0
  -25.7980  -33.7530   24.2590 N   0  0  0  0  0  0  0  0  0  0  0  0
  -26.2630  -34.7780   23.5330 C   0  0  0  0  0  0  0  0  0  0  0  0
  -26.9750  -34.6240   22.5370 O   0  0  0  0  0  0  0  0  0  0  0  0
  -25.1770  -33.9530   25.0310 H   0  0  0  0  0  0  0  0  0  0  0  0
  -24.7440  -36.7340   23.0920 C   0  0  0  0  0  1  0  0  0  0  0  0
  -25.8760  -36.2000   23.9840 C   0  0  0  0  0  3  0  0  0  0  0  0
  -28.0190  -36.8580   24.9840 C   0  0  0  0  0  1  0  0  0  0  0  0
  -27.0090  -37.1500   23.9690 N   0  0  0  0  0  0  0  0  0  0  0  0
  -26.6820  -38.1020   24.1120 H   0  0  0  0  0  0  0  0  0  0  0  0
  1  6  1  0
  1  3  2  0
  2  1  1  0
  4  2  1  0
  5  7  1  0
  5  6  2  0
  7  9  2  0
  8  7  1  0
 10  8  1  0
 11  8  1  0
 12 11  1  0
 13 12  1  0
 14 20  1  0
 14 22  1  0
 15 20  1  0
 16 17  1  0
 16 15  1  0
 18 17  1  0
 18 19  1  0
 18 27  1  0
 20 19  1  0
 21 14  2  0
 22 13  1  0
 22 23  1  0
 24 49  1  0
 24 25  2  0
 25 44  1  0
 26 29  1  0
 26 25  1  0
 27 28  1  0
 27 24  1  0
 28 26  2  0
 29 30  1  0
 30 31  2  0
 32 35  1  0
 32 31  1  0
 33 32  2  0
 34 33  1  0
 34 29  2  0
 35 36  1  0
 36 41  2  0
 36 37  1  0
 37 38  2  0
 38 39  1  0
 39 43  1  0
 40 39  2  0
 41 40  1  0
 42 41  1  0
 44 45  1  0
 45 47  1  0
 45 48  1  0
 46 44  2  0
 49 50  1  0
 51 49  1  0
 52  2  1  0
 53 52  1  0
 54 55  1  0
 54 53  1  0
 56 57  1  0
 56 55  1  0
 57 59  1  0
 58 69  2  0
 59 64  1  0
 60 68  1  0
 60 70  1  0
 61 67  1  0
 61 63  1  0
 62 68  1  0
 63 62  1  0
 64 63  2  0
 65 66  1  0
 65 59  2  0
 66 61  2  0
 67 60  1  0
 68 58  1  0
 70 72  2  0
 71 70  1  0
 73 71  1  0
 74 83  2  0
 74 79  1  0
 75 71  1  0
 75 79  1  0
 76 75  1  0
 77 78  1  0
 77 76  1  0
 78 74  1  0
 79 80  2  0
 80 81  1  0
 82 81  2  0
 83 82  1  0
 84 58  1  0
 84 89  1  0
 84 85  1  0
 85 88  1  1
 85 86  1  0
 87 85  1  0
 89 92  1  0
 90 94  1  0
 90 89  1  0
 91 90  2  0
 94 93  1  0
 96 94  1  0
 96 97  1  0
 96 95  1  0
M  ISO  4  14 100  22 100  56 101  57 101
M  END
>  <TORSDO>  (10) 
F 26

>  <SCORE>  (10) 
-0.795

>  <name>  (10) 
9

>  <ligand_id>  (10) 
9

>  <original_smiles>  (10) 
[H]C(C(=O)N([H])C([H])([H])C([H])([H])OC([H])([H])C([H])([H])Oc1c([H])c([H])c2c(c1[H])C([H])([H])N(C(=O)C([H])(N([H])C(=O)C([H])(N([H])C([H])([H])[H])C([H])([H])[H])C(C([H])([H])[H])(C([H])([H])[H])C([H])([H])[H])C([H])(C(=O)N([H])C1([H])c3c([H])c([H])c([H])c([H])c3C([H])([H])C([H])([H])C1([H])[H])C2([H])[H])=C([H])C(=O)N([H])C([H])([H])C([H])([H])C([H])([H])N([H])C(=O)N1C([H])([H])C([H])([H])C([H])([H])C([H])(n2nc(-c3c([H])c([H])c(Oc4c([H])c([H])c(F)c([H])c4F)c([H])c3[H])c(C(=O)N([H])[H])c2N([H])[H])C1([H])[H]

>  <smiles>  (10) 
[H]C(C(=O)N([H])C([H])([H])C([H])([H])OC([H])([H])C([H])([H])Oc1c([H])c([H])c2c(c1[H])C([H])([H])N(C(=O)C([H])(N([H])C(=O)C([H])(N([H])C([H])([H])[H])C([H])([H])[H])C(C([H])([H])[H])(C([H])([H])[H])C([H])([H])[H])C([H])(C(=O)N([H])C1([H])c3c([H])c([H])c([H])c([H])c3C([H])([H])C([H])([H])C1([H])[H])C2([H])[H])=C([H])C(=O)N([H])C([H])([H])C([H])([H])C([H])([H])N([H])C(=O)N1C([H])([H])C([H])([H])C([H])([H])C([H])(n2nc(-c3c([H])c([H])c(Oc4c([H])c([H])c(F)c([H])c4F)c([H])c3[H])c(C(=O)N([H])[H])c2N([H])[H])C1([H])[H]

$$$$
10:0:0
     RDKit          3D

 94 96  0  0  1  0  0  0  0  0999 V2000
  -32.1800  -17.0210   18.8340 C   0  0  0  0  0  3  0  0  0  0  0  0
  -32.9520  -15.6850   19.4670 O   0  0  0  0  0  0  0  0  0  0  0  0
  -33.0720  -13.9990   19.5710 C   0  0  0  0  0  2  0  0  0  0  0  0
  -31.9530  -12.5130   19.8340 C   0  0  0  0  0  2  0  0  0  0  0  0
  -28.7050  -13.7940   19.3200 C   0  0  0  0  0  2  0  0  0  0  0  0
  -30.2220  -12.4400   19.6000 N   0  0  2  0  0  4  0  0  0  0  0  0
  -27.6610  -13.7310   18.6380 O   0  0  0  0  0  1  0  0  0  0  0  0
  -29.9540  -11.5540   19.1950 H   0  0  0  0  0  0  0  0  0  0  0  0
  -28.0820  -16.4470   18.9460 C   0  0  0  0  0  1  0  0  0  0  0  0
  -28.5750  -15.3480   19.9240 C   0  0  0  0  0  0  0  0  0  0  0  0
  -30.4800  -15.2780   21.5100 C   0  0  0  0  0  0  0  0  0  0  0  0
  -30.8480  -13.9060   18.9440 C   0  0  0  0  0  1  0  0  0  0  0  0
  -29.7670  -12.3360   17.8690 C   0  0  0  0  0  1  0  0  0  0  0  0
  -28.1700  -11.3310   18.9130 C   0  0  0  0  0 15  0  0  0  0  0  0
  -27.7130  -11.9580   20.9130 C   0  0  0  0  0  1  0  0  0  0  0  0
  -28.9270  -13.2840   21.9440 C   0  0  0  0  0 15  0  0  0  0  0  0
  -30.3800  -14.2000   21.0350 N   0  0  0  0  0  1  0  0  0  0  0  0
  -31.4310  -15.5100   22.2110 O   0  0  0  0  0  0  0  0  0  0  0  0
  -29.5700  -15.9850   20.8550 N   0  0  0  0  0  4  0  0  0  0  0  0
  -29.5140  -16.9750   21.0240 H   0  0  0  0  0  0  0  0  0  0  0  0
  -25.3460  -13.4070   20.8360 C   0  0  0  0  0  0  0  0  0  0  0  0
  -24.1490  -12.7710   21.0240 C   0  0  0  0  0  0  0  0  0  0  0  0
  -24.4740  -11.4010   21.1300 C   0  0  0  0  0  0  0  0  0  0  0  0
  -26.3020  -12.3480   20.9450 N   0  0  0  0  0  0  0  0  0  0  0  0
  -25.7260  -11.1860   21.0090 N   0  0  0  0  0  0  0  0  0  0  0  0
  -23.7380  -10.1950   21.3000 C   0  0  0  0  0  0  0  0  0  0  0  0
  -24.1610   -9.2460   22.2530 C   0  0  0  0  0  3  0  0  0  0  0  0
  -23.4530   -8.0450   22.3890 C   0  0  0  0  0  3  0  0  0  0  0  0
  -22.3240   -7.8120   21.5720 C   0  0  0  0  0  0  0  0  0  0  0  0
  -21.9430   -8.7510   20.6000 C   0  0  0  0  0  3  0  0  0  0  0  0
  -22.6540   -9.9450   20.4550 C   0  0  0  0  0  3  0  0  0  0  0  0
  -21.5620   -6.6800   21.6360 O   0  0  0  0  0  0  0  0  0  0  0  0
  -21.5470   -5.9080   22.7640 C   0  0  0  0  0  0  0  0  0  0  0  0
  -21.1550   -6.4210   24.0200 C   0  0  0  0  0  3  0  0  0  0  0  0
  -21.0890   -5.5610   25.1340 C   0  0  0  0  0  3  0  0  0  0  0  0
  -21.4010   -4.1950   24.9900 C   0  0  0  0  0  0  0  0  0  0  0  0
  -21.7940   -3.6890   23.7400 C   0  0  0  0  0  3  0  0  0  0  0  0
  -21.8630   -4.5450   22.6290 C   0  0  0  0  0  0  0  0  0  0  0  0
  -22.2240   -4.0570   21.4170 F   0  0  0  0  0  0  0  0  0  0  0  0
  -21.3210   -3.3640   26.0560 F   0  0  0  0  0  0  0  0  0  0  0  0
  -22.7660  -13.3480   21.0570 C   0  0  0  0  0  0  0  0  0  0  0  0
  -21.8900  -12.7500   21.8560 N   0  0  0  0  0  0  0  0  0  0  0  0
  -22.4620  -14.3510   20.4150 O   0  0  0  0  0  0  0  0  0  0  0  0
  -22.1450  -11.9390   22.3960 H   0  0  0  0  0  0  0  0  0  0  0  0
  -20.9530  -13.1230   21.9320 H   0  0  0  0  0  0  0  0  0  0  0  0
  -25.5600  -14.7670   20.6170 N   0  0  0  0  0  0  0  0  0  0  0  0
  -24.7740  -15.3940   20.4750 H   0  0  0  0  0  0  0  0  0  0  0  0
  -26.4130  -15.1190   20.1990 H   0  0  0  0  0  0  0  0  0  0  0  0
  -31.5590  -18.5710   19.5410 C   0  0  0  0  0  3  0  0  0  0  0  0
  -30.8230  -20.0790   18.8930 C   0  0  0  0  0  2  0  0  0  0  0  0
  -29.8500  -21.4140   19.6080 C   0  0  0  0  0  3  0  0  0  0  0  0
  -29.6060  -23.1610   19.2510 C   0  0  0  0  0  3  0  0  0  0  0  0
  -28.3500  -24.3830   19.6740 C   0  0  0  0  0  2  0  0  0  0  0  0
  -28.3190  -26.0220   19.8060 O   0  0  0  0  0  0  0  0  0  0  0  0
  -24.5680  -31.7550   23.1170 C   0  0  0  0  0  0  0  0  0  0  0  0
  -27.1780  -26.9870   19.9100 C   0  0  0  0  0  0  0  0  0  0  0  0
  -23.3500  -30.3820   21.4710 C   0  0  0  0  0  3  0  0  0  0  0  0
  -24.7900  -28.7780   20.0220 C   0  0  0  0  0  0  0  0  0  0  0  0
  -25.9130  -30.6040   21.2880 C   0  0  0  0  0  2  0  0  0  0  0  0
  -25.9880  -29.2040   20.6080 C   0  0  0  0  0  0  0  0  0  0  0  0
  -27.1640  -28.3310   20.5300 C   0  0  0  0  0  3  0  0  0  0  0  0
  -25.9180  -26.6810   19.3320 C   0  0  0  0  0  3  0  0  0  0  0  0
  -24.7710  -27.5260   19.3810 C   0  0  0  0  0  3  0  0  0  0  0  0
  -23.5650  -29.6940   20.0930 C   0  0  0  0  0  2  0  0  0  0  0  0
  -24.6330  -30.9360   22.0150 N   0  0  0  0  0  0  0  0  0  0  0  0
  -23.4880  -32.0410   23.6560 O   0  0  0  0  0  0  0  0  0  0  0  0
  -22.6580  -29.3870   22.4400 C   0  0  0  0  0  0  0  0  0  0  0  0
  -21.3260  -29.2330   22.3290 N   0  0  0  0  0  0  0  0  0  0  0  0
  -23.3270  -28.7510   23.2560 O   0  0  0  0  0  0  0  0  0  0  0  0
  -20.8370  -29.8000   21.6480 H   0  0  0  0  0  0  0  0  0  0  0  0
  -17.9430  -28.0240   22.8490 C   0  0  0  0  0  0  0  0  0  0  0  0
  -20.5050  -28.2900   23.0960 C   0  0  0  0  0  3  0  0  0  0  0  0
  -20.6020  -26.8620   22.5090 C   0  0  0  0  0  2  0  0  0  0  0  0
  -19.4920  -26.5480   21.4990 C   0  0  0  0  0  2  0  0  0  0  0  0
  -18.1150  -26.6830   22.1550 C   0  0  0  0  0  2  0  0  0  0  0  0
  -19.0650  -28.7850   23.2760 C   0  0  0  0  0  0  0  0  0  0  0  0
  -18.8480  -30.0380   23.8890 C   0  0  0  0  0  3  0  0  0  0  0  0
  -17.5420  -30.5320   24.0760 C   0  0  0  0  0  3  0  0  0  0  0  0
  -16.4360  -29.7700   23.6630 C   0  0  0  0  0  3  0  0  0  0  0  0
  -16.6370  -28.5170   23.0560 C   0  0  0  0  0  3  0  0  0  0  0  0
  -25.8510  -32.3870   23.7420 C   0  0  0  0  0  3  0  0  0  0  0  0
  -26.3750  -31.5960   25.0050 C   0  0  1  0  0  0  0  0  0  0  0  0
  -25.2950  -31.3580   26.0860 C   0  0  0  0  0  1  0  0  0  0  0  0
  -26.9410  -30.2170   24.5990 C   0  0  0  0  0  1  0  0  0  0  0  0
  -27.5380  -32.3730   25.6650 C   0  0  0  0  0  1  0  0  0  0  0  0
  -25.5410  -33.7810   24.1100 N   0  0  0  0  0  0  0  0  0  0  0  0
  -25.8810  -34.8590   23.3910 C   0  0  0  0  0  0  0  0  0  0  0  0
  -26.5500  -34.7860   22.3580 O   0  0  0  0  0  0  0  0  0  0  0  0
  -24.9460  -33.9100   24.9160 H   0  0  0  0  0  0  0  0  0  0  0  0
  -24.1770  -36.6920   23.0930 C   0  0  0  0  0  1  0  0  0  0  0  0
  -25.4060  -36.2380   23.8970 C   0  0  0  0  0  3  0  0  0  0  0  0
  -27.5430  -37.0780   24.7760 C   0  0  0  0  0  1  0  0  0  0  0  0
  -26.4510  -37.2850   23.8280 N   0  0  0  0  0  0  0  0  0  0  0  0
  -26.0520  -38.2050   23.9970 H   0  0  0  0  0  0  0  0  0  0  0  0
  1  2  1  0
  1 49  2  0
  2  3  1  0
  3  4  1  0
  5 10  1  0
  6  4  1  0
  7  5  1  0
  6  8  1  6
  9 10  1  0
 10 19  2  0
 11 18  2  0
 12  6  1  0
 13  6  1  0
 15 24  1  0
 17 11  1  0
 19 20  1  0
 19 11  1  0
 21 24  1  0
 21 22  2  0
 22 41  1  0
 22 23  1  0
 23 26  1  0
 24 25  1  0
 25 23  2  0
 26 27  1  0
 27 28  2  0
 29 32  1  0
 29 28  1  0
 30 29  2  0
 31 30  1  0
 31 26  2  0
 32 33  1  0
 33 34  1  0
 34 35  2  0
 36 35  1  0
 36 40  1  0
 37 36  2  0
 38 33  2  0
 38 37  1  0
 39 38  1  0
 41 42  1  0
 42 45  1  0
 42 44  1  0
 43 41  2  0
 46 21  1  0
 47 46  1  0
 48 46  1  0
 50 49  1  0
 50 51  1  0
 52 51  2  0
 52 53  1  0
 53 54  1  0
 54 56  1  0
 55 66  2  0
 56 61  1  0
 57 65  1  0
 57 67  1  0
 58 64  1  0
 58 60  1  0
 59 65  1  0
 60 59  1  0
 61 60  2  0
 62 63  1  0
 62 56  2  0
 63 58  2  0
 64 57  1  0
 65 55  1  0
 67 69  2  0
 68 67  1  0
 70 68  1  0
 71 80  2  0
 71 76  1  0
 72 68  1  0
 72 76  1  0
 73 72  1  0
 74 75  1  0
 74 73  1  0
 75 71  1  0
 76 77  2  0
 77 78  1  0
 79 78  2  0
 80 79  1  0
 81 55  1  0
 81 86  1  0
 81 82  1  0
 82 85  1  1
 82 83  1  0
 84 82  1  0
 86 89  1  0
 87 91  1  0
 87 86  1  0
 88 87  2  0
 91 90  1  0
 93 91  1  0
 93 94  1  0
 93 92  1  0
M  ISO  4  11 100  19 100  53 101  54 101
M  END
>  <TORSDO>  (11) 
F 26

>  <SCORE>  (11) 
-14.427

>  <name>  (11) 
10

>  <ligand_id>  (11) 
10

>  <original_smiles>  (11) 
[H]c1c([H])c([H])c2c(c1[H])C([H])([H])C([H])([H])C([H])([H])C2([H])N([H])C(=O)C1([H])N(C(=O)C([H])(N([H])C(=O)C([H])(N([H])C([H])([H])[H])C([H])([H])[H])C(C([H])([H])[H])(C([H])([H])[H])C([H])([H])[H])C([H])([H])c2c([H])c(OC([H])([H])C([H])([H])C([H])([H])C([H])([H])C([H])([H])C([H])([H])OC([H])([H])C([H])([H])N([H])C(=O)C([H])(N([H])C(=O)N3C([H])([H])C([H])([H])C([H])([H])C([H])(n4nc(-c5c([H])c([H])c(Oc6c([H])c([H])c(F)c([H])c6F)c([H])c5[H])c(C(=O)N([H])[H])c4N([H])[H])C3([H])[H])C([H])([H])[H])c([H])c([H])c2C1([H])[H]

>  <smiles>  (11) 
[H]c1c([H])c([H])c2c(c1[H])C([H])([H])C([H])([H])C([H])([H])C2([H])N([H])C(=O)C1([H])N(C(=O)C([H])(N([H])C(=O)C([H])(N([H])C([H])([H])[H])C([H])([H])[H])C(C([H])([H])[H])(C([H])([H])[H])C([H])([H])[H])C([H])([H])c2c([H])c(OC([H])([H])C([H])([H])C([H])([H])C([H])([H])C([H])([H])C([H])([H])OC([H])([H])C([H])([H])N([H])C(=O)C([H])(N([H])C(=O)N3C([H])([H])C([H])([H])C([H])([H])C([H])(n4nc(-c5c([H])c([H])c(Oc6c([H])c([H])c(F)c([H])c6F)c([H])c5[H])c(C(=O)N([H])[H])c4N([H])[H])C3([H])[H])C([H])([H])[H])c([H])c([H])c2C1([H])[H]

$$$$
11:0:0
     RDKit          3D

 96103  0  0  1  0  0  0  0  0999 V2000
  -32.7340  -22.9250   19.4180 C   0  0  0  0  0  2  0  0  0  0  0  0
  -32.6970  -24.4380   19.7130 C   0  0  0  0  0  2  0  0  0  0  0  0
  -31.5870  -24.8220   20.6120 N   0  0  0  0  0  4  0  0  0  0  0  0
  -31.7740  -24.4430   21.5280 H   0  0  0  0  0  0  0  0  0  0  0  0
  -30.7370  -24.4090   20.2660 H   0  0  0  0  0  0  0  0  0  0  0  0
  -31.3930  -26.2870   20.7200 C   0  0  0  0  0  2  0  0  0  0  0  0
  -30.3360  -26.6920   21.7680 C   0  0  0  0  0  2  0  0  0  0  0  0
  -28.9040  -26.2260   21.4550 C   0  0  0  0  0  2  0  0  0  0  0  0
  -28.4820  -26.7060   20.1810 O   0  0  0  0  0  0  0  0  0  0  0  0
  -24.6500  -31.8670   23.2440 C   0  0  0  0  0  0  0  0  0  0  0  0
  -27.3240  -27.4400   20.2060 C   0  0  0  0  0  0  0  0  0  0  0  0
  -23.4510  -30.4490   21.6070 C   0  0  0  0  0  3  0  0  0  0  0  0
  -24.9180  -28.9050   20.2020 C   0  0  0  0  0  0  0  0  0  0  0  0
  -25.9720  -30.8220   21.4130 C   0  0  0  0  0  2  0  0  0  0  0  0
  -26.0660  -29.4460   20.7940 C   0  0  0  0  0  0  0  0  0  0  0  0
  -27.2730  -28.7170   20.8030 C   0  0  0  0  0  3  0  0  0  0  0  0
  -26.1690  -26.9050   19.6060 C   0  0  0  0  0  3  0  0  0  0  0  0
  -24.9600  -27.6280   19.6090 C   0  0  0  0  0  3  0  0  0  0  0  0
  -23.6680  -29.7550   20.2340 C   0  0  0  0  0  2  0  0  0  0  0  0
  -24.7080  -31.0610   22.1470 N   0  0  0  0  0  0  0  0  0  0  0  0
  -23.5670  -32.1410   23.7800 O   0  0  0  0  0  0  0  0  0  0  0  0
  -22.8020  -29.4340   22.5730 C   0  0  0  0  0  0  0  0  0  0  0  0
  -21.4770  -29.2510   22.4460 N   0  0  0  0  0  0  0  0  0  0  0  0
  -23.4850  -28.8130   23.3920 O   0  0  0  0  0  0  0  0  0  0  0  0
  -20.9880  -29.8040   21.7570 H   0  0  0  0  0  0  0  0  0  0  0  0
  -18.0990  -28.0810   22.9570 C   0  0  0  0  0  0  0  0  0  0  0  0
  -20.6590  -28.3200   23.2220 C   0  0  0  0  0  3  0  0  0  0  0  0
  -20.7500  -26.8880   22.6460 C   0  0  0  0  0  2  0  0  0  0  0  0
  -19.6440  -26.5720   21.6350 C   0  0  0  0  0  2  0  0  0  0  0  0
  -18.2640  -26.7290   22.2830 C   0  0  0  0  0  2  0  0  0  0  0  0
  -19.2250  -28.8340   23.3840 C   0  0  0  0  0  0  0  0  0  0  0  0
  -19.0170  -30.1010   23.9720 C   0  0  0  0  0  3  0  0  0  0  0  0
  -17.7170  -30.6120   24.1400 C   0  0  0  0  0  3  0  0  0  0  0  0
  -16.6070  -29.8550   23.7310 C   0  0  0  0  0  3  0  0  0  0  0  0
  -16.7980  -28.5910   23.1440 C   0  0  0  0  0  3  0  0  0  0  0  0
  -25.9330  -32.5040   23.8630 C   0  0  0  0  0  3  0  0  0  0  0  0
  -26.4570  -31.7350   25.1370 C   0  0  1  0  0  0  0  0  0  0  0  0
  -25.3680  -31.4950   26.2080 C   0  0  0  0  0  1  0  0  0  0  0  0
  -27.0450  -30.3600   24.7400 C   0  0  0  0  0  1  0  0  0  0  0  0
  -27.6080  -32.5340   25.7950 C   0  0  0  0  0  1  0  0  0  0  0  0
  -25.6220  -33.9010   24.1890 N   0  0  0  0  0  0  0  0  0  0  0  0
  -25.9520  -34.9510   23.4250 C   0  0  0  0  0  0  0  0  0  0  0  0
  -26.6240  -34.8460   22.3940 O   0  0  0  0  0  0  0  0  0  0  0  0
  -25.0250  -34.0570   24.9880 H   0  0  0  0  0  0  0  0  0  0  0  0
  -24.2170  -36.7330   23.0600 C   0  0  0  0  0  1  0  0  0  0  0  0
  -25.4580  -36.3380   23.8760 C   0  0  0  0  0  3  0  0  0  0  0  0
  -27.5910  -37.2330   24.7020 C   0  0  0  0  0  1  0  0  0  0  0  0
  -26.4870  -37.3950   23.7600 N   0  0  0  0  0  0  0  0  0  0  0  0
  -26.0780  -38.3140   23.9050 H   0  0  0  0  0  0  0  0  0  0  0  0
  -31.6000  -22.4510   18.4890 C   0  0  0  0  0  2  0  0  0  0  0  0
  -31.8120  -21.0370   17.9180 C   0  0  0  0  0  2  0  0  0  0  0  0
  -30.9380  -19.4040   19.5790 C   0  0  0  0  0  0  0  0  0  0  0  0
  -31.9500  -20.0150   18.9530 N   0  0  0  0  0  0  0  0  0  0  0  0
  -29.7610  -19.7350   19.4170 O   0  0  0  0  0  0  0  0  0  0  0  0
  -32.8850  -19.6780   19.1400 H   0  0  0  0  0  0  0  0  0  0  0  0
  -31.4030  -18.3160   20.4190 C   0  0  0  0  0  3  0  0  0  0  0  0
  -30.5300  -17.5340   21.0800 C   0  0  0  0  0  3  0  0  0  0  0  0
  -30.9310  -16.3640   21.9560 C   0  0  0  0  0  2  0  0  0  0  0  0
  -30.7550  -14.3640   20.4760 C   0  0  0  0  0  0  0  0  0  0  0  0
  -30.3460  -12.3330   19.1370 C   0  0  0  0  0  2  0  0  0  0  0  0
  -29.3920  -12.6180   17.9630 C   0  0  0  0  0  2  0  0  0  0  0  0
  -27.9230  -12.4860   18.4070 C   0  0  0  0  0  2  0  0  0  0  0  0
  -27.6220  -13.2790   19.7060 C   0  0  0  0  0  3  0  0  0  0  0  0
  -28.6770  -12.9700   20.7900 C   0  0  0  0  0  2  0  0  0  0  0  0
  -30.0150  -13.2530   20.2350 N   0  0  0  0  0  0  0  0  0  0  0  0
  -31.7700  -14.6600   19.8350 O   0  0  0  0  0  0  0  0  0  0  0  0
  -30.3250  -15.1220   21.4920 N   0  0  0  0  0  0  0  0  0  0  0  0
  -29.5090  -14.7900   21.9860 H   0  0  0  0  0  0  0  0  0  0  0  0
  -25.2240  -13.9100   20.4110 C   0  0  0  0  0  0  0  0  0  0  0  0
  -24.1520  -13.1480   20.7880 C   0  0  0  0  0  0  0  0  0  0  0  0
  -24.6040  -11.7920   20.7640 C   0  0  0  0  0  0  0  0  0  0  0  0
  -26.2640  -13.0200   20.1860 N   0  0  0  0  0  0  0  0  0  0  0  0
  -25.8920  -11.7430   20.4510 N   0  0  0  0  0  0  0  0  0  0  0  0
  -23.8710  -10.5360   20.9650 C   0  0  0  0  0  0  0  0  0  0  0  0
  -24.3050   -9.5690   21.8990 C   0  0  0  0  0  3  0  0  0  0  0  0
  -23.5730   -8.3760   22.0860 C   0  0  0  0  0  3  0  0  0  0  0  0
  -22.3940   -8.1430   21.3390 C   0  0  0  0  0  0  0  0  0  0  0  0
  -21.9790   -9.0980   20.3950 C   0  0  0  0  0  3  0  0  0  0  0  0
  -22.7120  -10.2820   20.2050 C   0  0  0  0  0  3  0  0  0  0  0  0
  -21.6340   -7.0030   21.4350 O   0  0  0  0  0  0  0  0  0  0  0  0
  -21.5950   -6.2590   22.5870 C   0  0  0  0  0  0  0  0  0  0  0  0
  -21.2020   -6.8180   23.8230 C   0  0  0  0  0  3  0  0  0  0  0  0
  -21.1090   -6.0010   24.9680 C   0  0  0  0  0  3  0  0  0  0  0  0
  -21.3990   -4.6260   24.8780 C   0  0  0  0  0  0  0  0  0  0  0  0
  -21.7850   -4.0660   23.6480 C   0  0  0  0  0  3  0  0  0  0  0  0
  -21.8790   -4.8800   22.5050 C   0  0  0  0  0  0  0  0  0  0  0  0
  -22.2310   -4.3320   21.3170 F   0  0  0  0  0  0  0  0  0  0  0  0
  -21.3020   -3.8400   25.9750 F   0  0  0  0  0  0  0  0  0  0  0  0
  -22.7590  -13.6350   21.0640 C   0  0  0  0  0  0  0  0  0  0  0  0
  -22.0310  -12.9490   21.9400 N   0  0  0  0  0  0  0  0  0  0  0  0
  -22.3250  -14.6590   20.5400 O   0  0  0  0  0  0  0  0  0  0  0  0
  -22.3940  -12.1200   22.3860 H   0  0  0  0  0  0  0  0  0  0  0  0
  -21.0970  -13.2570   22.1660 H   0  0  0  0  0  0  0  0  0  0  0  0
  -25.3990  -15.2790   20.2260 N   0  0  0  0  0  0  0  0  0  0  0  0
  -24.6410  -15.9440   20.3340 H   0  0  0  0  0  0  0  0  0  0  0  0
  -26.2590  -15.7080   19.9070 H   0  0  0  0  0  0  0  0  0  0  0  0
  1  2  1  0
  2  3  1  0
  3  6  1  0
  3  4  1  0
  5  3  1  0
  6  7  1  0
  8  7  1  0
  9 11  1  0
  9  8  1  0
 10 21  2  0
 11 16  1  0
 12 20  1  0
 12 22  1  0
 13 19  1  0
 13 15  1  0
 14 20  1  0
 15 16  2  0
 15 14  1  0
 17 18  1  0
 17 11  2  0
 18 13  2  0
 19 12  1  0
 20 10  1  0
 22 24  2  0
 23 22  1  0
 25 23  1  0
 26 35  2  0
 26 31  1  0
 27 23  1  0
 27 31  1  0
 28 27  1  0
 29 30  1  0
 29 28  1  0
 30 26  1  0
 31 32  2  0
 32 33  1  0
 34 33  2  0
 35 34  1  0
 36 10  1  0
 36 41  1  0
 36 37  1  0
 37 40  1  1
 37 38  1  0
 39 37  1  0
 41 44  1  0
 42 46  1  0
 42 41  1  0
 43 42  2  0
 46 45  1  0
 48 46  1  0
 48 49  1  0
 48 47  1  0
 50  1  1  0
 51 50  1  0
 51 53  1  0
 52 56  1  0
 53 55  1  0
 53 52  1  0
 54 52  2  0
 56 57  2  0
 57 58  1  0
 59 67  1  0
 60 65  1  0
 61 62  1  0
 61 60  1  0
 63 62  1  0
 63 72  1  0
 63 64  1  0
 65 59  1  0
 65 64  1  0
 66 59  2  0
 67 58  1  0
 67 68  1  0
 69 70  2  0
 70 89  1  0
 71 70  1  0
 71 74  1  0
 72 69  1  0
 72 73  1  0
 73 71  2  0
 74 75  1  0
 75 76  2  0
 77 80  1  0
 77 76  1  0
 78 77  2  0
 79 78  1  0
 79 74  2  0
 80 81  1  0
 81 82  1  0
 82 83  2  0
 84 83  1  0
 84 88  1  0
 85 84  2  0
 86 81  2  0
 86 85  1  0
 87 86  1  0
 89 90  1  0
 90 93  1  0
 90 92  1  0
 91 89  2  0
 94 95  1  0
 94 69  1  0
 96 94  1  0
M  ISO  4   8 101   9 101  59 100  67 100
M  END
>  <TORSDO>  (12) 
F 26

>  <SCORE>  (12) 
-12.022

>  <name>  (12) 
11

>  <ligand_id>  (12) 
11

>  <original_smiles>  (12) 
[H]C(C(=O)N([H])C([H])([H])C([H])([H])C([H])([H])C([H])([H])[N+]([H])([H])C([H])([H])C([H])([H])C([H])([H])Oc1c([H])c([H])c2c(c1[H])C([H])([H])N(C(=O)C([H])(N([H])C(=O)C([H])(N([H])C([H])([H])[H])C([H])([H])[H])C(C([H])([H])[H])(C([H])([H])[H])C([H])([H])[H])C([H])(C(=O)N([H])C1([H])c3c([H])c([H])c([H])c([H])c3C([H])([H])C([H])([H])C1([H])[H])C2([H])[H])=C([H])C([H])([H])N([H])C(=O)N1C([H])([H])C([H])([H])C([H])([H])C([H])(n2nc(-c3c([H])c([H])c(Oc4c([H])c([H])c(F)c([H])c4F)c([H])c3[H])c(C(=O)N([H])[H])c2N([H])[H])C1([H])[H]

>  <smiles>  (12) 
[H]C(C(=O)N([H])C([H])([H])C([H])([H])C([H])([H])C([H])([H])[N+]([H])([H])C([H])([H])C([H])([H])C([H])([H])Oc1c([H])c([H])c2c(c1[H])C([H])([H])N(C(=O)C([H])(N([H])C(=O)C([H])(N([H])C([H])([H])[H])C([H])([H])[H])C(C([H])([H])[H])(C([H])([H])[H])C([H])([H])[H])C([H])(C(=O)N([H])C1([H])c3c([H])c([H])c([H])c([H])c3C([H])([H])C([H])([H])C1([H])[H])C2([H])[H])=C([H])C([H])([H])N([H])C(=O)N1C([H])([H])C([H])([H])C([H])([H])C([H])(n2nc(-c3c([H])c([H])c(Oc4c([H])c([H])c(F)c([H])c4F)c([H])c3[H])c(C(=O)N([H])[H])c2N([H])[H])C1([H])[H]

$$$$
12:0:0
     RDKit          3D

 99106  0  0  1  0  0  0  0  0999 V2000
  -21.6450  -29.5860   22.1230 C   0  0  0  0  0  2  0  0  0  0  0  0
  -22.1510  -29.3150   23.9570 C   0  0  0  0  0  2  0  0  0  0  0  0
  -23.5020  -28.6470   24.9730 C   0  0  0  0  0  2  0  0  0  0  0  0
  -24.4030  -27.3170   24.8300 N   0  0  0  0  0  4  0  0  0  0  0  0
  -24.4190  -27.2110   23.8330 H   0  0  0  0  0  0  0  0  0  0  0  0
  -23.8720  -26.5480   25.2040 H   0  0  0  0  0  0  0  0  0  0  0  0
  -25.9450  -27.1790   25.2950 C   0  0  0  0  0  2  0  0  0  0  0  0
  -27.1540  -26.0480   24.8400 C   0  0  0  0  0  2  0  0  0  0  0  0
  -28.2500  -25.8240   23.5400 C   0  0  0  0  0  2  0  0  0  0  0  0
  -29.6050  -26.3640   22.9720 O   0  0  0  0  0  0  0  0  0  0  0  0
  -25.3680  -30.9430   23.1030 C   0  0  0  0  0  0  0  0  0  0  0  0
  -29.3950  -27.0180   21.7960 C   0  0  0  0  0  0  0  0  0  0  0  0
  -25.0940  -28.9800   21.4970 C   0  0  0  0  0  3  0  0  0  0  0  0
  -27.1980  -28.0910   20.4900 C   0  0  0  0  0  0  0  0  0  0  0  0
  -27.3310  -30.1520   21.8850 C   0  0  0  0  0  2  0  0  0  0  0  0
  -27.9280  -28.8570   21.4100 C   0  0  0  0  0  0  0  0  0  0  0  0
  -29.0830  -28.3580   22.0010 C   0  0  0  0  0  3  0  0  0  0  0  0
  -28.8380  -26.3160   20.7040 C   0  0  0  0  0  3  0  0  0  0  0  0
  -27.7130  -26.8570   20.0570 C   0  0  0  0  0  3  0  0  0  0  0  0
  -25.8250  -28.6380   20.1820 C   0  0  0  0  0  2  0  0  0  0  0  0
  -25.9230  -29.9920   22.2760 N   0  0  0  0  0  0  0  0  0  0  0  0
  -24.1420  -31.0760   23.1790 O   0  0  0  0  0  0  0  0  0  0  0  0
  -24.8780  -27.5030   22.1870 C   0  0  0  0  0  0  0  0  0  0  0  0
  -23.8460  -26.5350   22.4710 N   0  0  0  0  0  0  0  0  0  0  0  0
  -25.7990  -27.1750   22.7940 O   0  0  0  0  0  0  0  0  0  0  0  0
  -24.4180  -25.7330   22.6950 H   0  0  0  0  0  0  0  0  0  0  0  0
  -19.9950  -25.5500   21.3880 C   0  0  0  0  0  0  0  0  0  0  0  0
  -22.3460  -25.9870   22.5640 C   0  0  0  0  0  3  0  0  0  0  0  0
  -22.5820  -24.5400   22.1510 C   0  0  0  0  0  2  0  0  0  0  0  0
  -21.9700  -24.0730   20.8260 C   0  0  0  0  0  2  0  0  0  0  0  0
  -20.4800  -24.2280   20.8480 C   0  0  0  0  0  2  0  0  0  0  0  0
  -20.8040  -26.4450   22.1650 C   0  0  0  0  0  0  0  0  0  0  0  0
  -20.0180  -27.5880   22.6390 C   0  0  0  0  0  3  0  0  0  0  0  0
  -18.7210  -27.9050   22.2270 C   0  0  0  0  0  3  0  0  0  0  0  0
  -18.0090  -27.0050   21.4530 C   0  0  0  0  0  3  0  0  0  0  0  0
  -18.6350  -25.8080   21.0990 C   0  0  0  0  0  3  0  0  0  0  0  0
  -26.2000  -31.8470   24.0740 C   0  0  0  0  0  3  0  0  0  0  0  0
  -25.5630  -33.1620   24.0480 N   0  0  0  0  0  0  0  0  0  0  0  0
  -26.0860  -34.2160   23.4260 C   0  0  0  0  0  0  0  0  0  0  0  0
  -27.1790  -34.1890   22.8510 O   0  0  0  0  0  0  0  0  0  0  0  0
  -24.6330  -33.2410   24.4430 H   0  0  0  0  0  0  0  0  0  0  0  0
  -24.5320  -35.6460   22.0950 C   0  0  0  0  0  1  0  0  0  0  0  0
  -25.2510  -35.5030   23.4430 C   0  0  0  0  0  3  0  0  0  0  0  0
  -26.6250  -36.6950   25.0770 C   0  0  0  0  0  1  0  0  0  0  0  0
  -26.0550  -36.7050   23.7310 N   0  0  0  0  0  0  0  0  0  0  0  0
  -25.5030  -37.5470   23.6040 H   0  0  0  0  0  0  0  0  0  0  0  0
  -26.2710  -31.3550   25.5810 C   0  0  1  0  0  0  0  0  0  0  0  0
  -24.8900  -31.0760   26.2470 C   0  0  0  0  0  1  0  0  0  0  0  0
  -27.2470  -30.1710   25.6920 C   0  0  0  0  0  1  0  0  0  0  0  0
  -26.9750  -32.4210   26.4460 C   0  0  0  0  0  1  0  0  0  0  0  0
  -21.6900  -28.5670   20.5590 C   0  0  0  0  0  3  0  0  0  0  0  0
  -22.6680  -27.2740   19.5640 C   0  0  0  0  0  3  0  0  0  0  0  0
  -24.1970  -26.2910   19.2400 C   0  0  0  0  0  2  0  0  0  0  0  0
  -24.7790  -24.7540   19.0230 O   0  0  0  0  0  0  0  0  0  0  0  0
  -26.1410  -24.1560   18.2690 C   0  0  0  0  0  3  0  0  0  0  0  0
  -27.3700  -22.8310   18.5630 C   0  0  0  0  0  3  0  0  0  0  0  0
  -28.7920  -22.3810   17.7620 N   0  0  0  0  0  4  0  0  0  0  0  0
  -29.2410  -23.2520   17.5170 H   0  0  0  0  0  0  0  0  0  0  0  0
  -28.4480  -22.0050   16.8900 H   0  0  0  0  0  0  0  0  0  0  0  0
  -30.0580  -21.3310   18.1850 C   0  0  0  0  0  3  0  0  0  0  0  0
  -31.7790  -21.1310   17.5590 C   0  0  0  0  0  3  0  0  0  0  0  0
  -34.4710  -19.6740   17.5740 C   0  0  0  0  0  0  0  0  0  0  0  0
  -35.9870  -17.6700   16.8670 C   0  0  0  0  0  2  0  0  0  0  0  0
  -35.2140  -16.7860   15.8460 C   0  0  0  0  0  2  0  0  0  0  0  0
  -34.2140  -15.8650   16.5730 C   0  0  0  0  0  2  0  0  0  0  0  0
  -33.4390  -16.6290   17.6760 C   0  0  0  0  0  3  0  0  0  0  0  0
  -34.3870  -17.3810   18.6100 C   0  0  0  0  0  2  0  0  0  0  0  0
  -34.9870  -18.3760   17.7500 N   0  0  0  0  0  0  0  0  0  0  0  0
  -35.3370  -20.4230   17.0470 O   0  0  0  0  0  0  0  0  0  0  0  0
  -33.0240  -20.0080   17.8430 N   0  0  0  0  0  0  0  0  0  0  0  0
  -32.6280  -19.2170   18.3330 H   0  0  0  0  0  0  0  0  0  0  0  0
  -31.2640  -16.1280   18.8700 C   0  0  0  0  0  0  0  0  0  0  0  0
  -30.8040  -14.9920   19.4880 C   0  0  0  0  0  0  0  0  0  0  0  0
  -31.8600  -14.0410   19.4020 C   0  0  0  0  0  0  0  0  0  0  0  0
  -32.5340  -15.8020   18.4330 N   0  0  0  0  0  0  0  0  0  0  0  0
  -32.9280  -14.5730   18.8240 N   0  0  0  0  0  0  0  0  0  0  0  0
  -31.9020  -12.6250   19.7780 C   0  0  0  0  0  0  0  0  0  0  0  0
  -32.9730  -12.0930   20.5270 C   0  0  0  0  0  3  0  0  0  0  0  0
  -32.9800  -10.7280   20.8880 C   0  0  0  0  0  3  0  0  0  0  0  0
  -31.9080   -9.8890   20.5010 C   0  0  0  0  0  0  0  0  0  0  0  0
  -30.8580  -10.4210   19.7350 C   0  0  0  0  0  3  0  0  0  0  0  0
  -30.8540  -11.7780   19.3720 C   0  0  0  0  0  3  0  0  0  0  0  0
  -31.8390   -8.5470   20.7880 O   0  0  0  0  0  0  0  0  0  0  0  0
  -32.7000   -7.9570   21.6780 C   0  0  0  0  0  0  0  0  0  0  0  0
  -32.6850   -8.2780   23.0530 C   0  0  0  0  0  3  0  0  0  0  0  0
  -33.5390   -7.5960   23.9430 C   0  0  0  0  0  3  0  0  0  0  0  0
  -34.4000   -6.5900   23.4630 C   0  0  0  0  0  0  0  0  0  0  0  0
  -34.4100   -6.2650   22.0950 C   0  0  0  0  0  3  0  0  0  0  0  0
  -33.5600   -6.9460   21.2050 C   0  0  0  0  0  0  0  0  0  0  0  0
  -33.5590   -6.6150   19.8910 F   0  0  0  0  0  0  0  0  0  0  0  0
  -35.2140   -5.9290   24.3180 F   0  0  0  0  0  0  0  0  0  0  0  0
  -29.4140  -14.7850   20.0150 C   0  0  0  0  0  0  0  0  0  0  0  0
  -29.2950  -14.0790   21.1380 N   0  0  0  0  0  0  0  0  0  0  0  0
  -28.4410  -15.2810   19.4660 O   0  0  0  0  0  0  0  0  0  0  0  0
  -30.0990  -13.6880   21.6010 H   0  0  0  0  0  0  0  0  0  0  0  0
  -28.3800  -13.9310   21.5360 H   0  0  0  0  0  0  0  0  0  0  0  0
  -30.7010  -17.3710   18.6070 N   0  0  0  0  0  0  0  0  0  0  0  0
  -29.7060  -17.4900   18.7830 H   0  0  0  0  0  0  0  0  0  0  0  0
  -31.0270  -17.9390   17.8390 H   0  0  0  0  0  0  0  0  0  0  0  0
  1  2  1  0
  2  3  1  0
  4  3  1  0
  4  6  1  0
  4  7  1  0
  5  4  1  0
  8  7  1  0
  9  8  1  0
 10  9  1  0
 11 22  2  0
 12 17  1  0
 12 10  1  0
 13 23  1  0
 13 21  1  0
 14 16  1  0
 15 21  1  0
 16 15  1  0
 16 17  2  0
 18 12  2  0
 19 14  2  0
 19 18  1  0
 20 14  1  0
 20 13  1  0
 21 11  1  0
 23 24  1  0
 23 25  2  0
 24 26  1  0
 27 32  1  0
 28 24  1  0
 29 28  1  0
 30 31  1  0
 30 29  1  0
 31 27  1  0
 32 28  1  0
 32 33  2  0
 34 33  1  0
 35 34  2  0
 36 27  2  0
 36 35  1  0
 37 11  1  0
 37 47  1  0
 38 37  1  0
 38 41  1  0
 39 43  1  0
 39 38  1  0
 40 39  2  0
 43 42  1  0
 43 45  1  0
 45 44  1  0
 46 45  1  0
 47 49  1  6
 47 48  1  0
 47 50  1  0
 51  1  1  0
 52 51  2  0
 53 52  1  0
 54 53  1  0
 55 56  2  0
 55 54  1  0
 57 60  1  0
 57 56  1  0
 58 57  1  0
 59 57  1  0
 61 70  1  0
 61 60  2  0
 62 68  1  0
 62 70  1  0
 63 68  1  0
 64 65  1  0
 64 63  1  0
 66 65  1  0
 66 75  1  0
 66 67  1  0
 68 67  1  0
 69 62  2  0
 70 71  1  0
 72 73  2  0
 73 92  1  0
 74 73  1  0
 74 77  1  0
 75 76  1  0
 75 72  1  0
 76 74  2  0
 77 78  1  0
 78 79  2  0
 80 83  1  0
 80 79  1  0
 81 80  2  0
 82 81  1  0
 82 77  2  0
 83 84  1  0
 84 85  1  0
 85 86  2  0
 87 86  1  0
 87 91  1  0
 88 87  2  0
 89 84  2  0
 89 88  1  0
 90 89  1  0
 92 93  1  0
 93 96  1  0
 93 95  1  0
 94 92  2  0
 97 98  1  0
 97 72  1  0
 99 97  1  0
M  ISO  4   9 101  10 101  62 100  70 100
M  END
>  <TORSDO>  (13) 
F 31

>  <SCORE>  (13) 
-7.400

>  <name>  (13) 
12

>  <ligand_id>  (13) 
12

>  <original_smiles>  (13) 
[H]c1c([H])c([H])c2c(c1[H])C([H])([H])C([H])([H])C([H])([H])C2([H])N([H])C(=O)C1([H])N(C(=O)C([H])(N([H])C(=O)C([H])(N([H])C([H])([H])[H])C([H])([H])[H])C(C([H])([H])[H])(C([H])([H])[H])C([H])([H])[H])C([H])([H])c2c([H])c(OC([H])([H])C([H])([H])C([H])([H])[N+]([H])([H])C([H])([H])C([H])([H])C([H])([H])C([H])([H])C([H])([H])C([H])([H])OC([H])([H])C([H])([H])[N+]([H])([H])C([H])([H])C([H])([H])N([H])C(=O)N3C([H])([H])C([H])([H])C([H])([H])C([H])(n4nc(-c5c([H])c([H])c(Oc6c([H])c([H])c(F)c([H])c6F)c([H])c5[H])c(C(=O)N([H])[H])c4N([H])[H])C3([H])[H])c([H])c([H])c2C1([H])[H]

>  <smiles>  (13) 
[H]c1c([H])c([H])c2c(c1[H])C([H])([H])C([H])([H])C([H])([H])C2([H])N([H])C(=O)C1([H])N(C(=O)C([H])(N([H])C(=O)C([H])(N([H])C([H])([H])[H])C([H])([H])[H])C(C([H])([H])[H])(C([H])([H])[H])C([H])([H])[H])C([H])([H])c2c([H])c(OC([H])([H])C([H])([H])C([H])([H])[N+]([H])([H])C([H])([H])C([H])([H])C([H])([H])C([H])([H])C([H])([H])C([H])([H])OC([H])([H])C([H])([H])[N+]([H])([H])C([H])([H])C([H])([H])N([H])C(=O)N3C([H])([H])C([H])([H])C([H])([H])C([H])(n4nc(-c5c([H])c([H])c(Oc6c([H])c([H])c(F)c([H])c6F)c([H])c5[H])c(C(=O)N([H])[H])c4N([H])[H])C3([H])[H])c([H])c([H])c2C1([H])[H]

$$$$
13:0:0
     RDKit          3D

 96103  0  0  1  0  0  0  0  0999 V2000
  -24.2580  -22.3190   19.4120 C   0  0  0  0  0  2  0  0  0  0  0  0
  -24.9220  -22.5590   20.7220 N   0  0  0  0  0  4  0  0  0  0  0  0
  -24.1570  -22.6390   21.3740 H   0  0  0  0  0  0  0  0  0  0  0  0
  -25.4560  -21.7760   21.0520 H   0  0  0  0  0  0  0  0  0  0  0  0
  -25.6670  -23.8300   20.8930 C   0  0  0  0  0  2  0  0  0  0  0  0
  -27.0940  -23.8250   20.3060 C   0  0  0  0  0  2  0  0  0  0  0  0
  -27.9040  -25.0580   20.7520 C   0  0  0  0  0  2  0  0  0  0  0  0
  -28.5970  -25.8130   19.5920 C   0  0  0  0  0  2  0  0  0  0  0  0
  -28.5960  -27.2200   19.8230 O   0  0  0  0  0  0  0  0  0  0  0  0
  -24.7000  -31.9920   23.3350 C   0  0  0  0  0  0  0  0  0  0  0  0
  -27.3840  -27.8780   19.8730 C   0  0  0  0  0  0  0  0  0  0  0  0
  -23.4870  -30.6810   21.6240 C   0  0  0  0  0  3  0  0  0  0  0  0
  -24.9430  -29.2920   20.0600 C   0  0  0  0  0  0  0  0  0  0  0  0
  -25.9950  -31.1270   21.3930 C   0  0  0  0  0  2  0  0  0  0  0  0
  -26.1000  -29.8100   20.6540 C   0  0  0  0  0  0  0  0  0  0  0  0
  -27.3220  -29.1100   20.5580 C   0  0  0  0  0  3  0  0  0  0  0  0
  -26.2010  -27.3690   19.2800 C   0  0  0  0  0  3  0  0  0  0  0  0
  -24.9850  -28.0680   19.3760 C   0  0  0  0  0  3  0  0  0  0  0  0
  -23.6780  -30.1080   20.1950 C   0  0  0  0  0  2  0  0  0  0  0  0
  -24.7470  -31.2770   22.1770 N   0  0  0  0  0  0  0  0  0  0  0  0
  -23.6260  -32.1950   23.9190 O   0  0  0  0  0  0  0  0  0  0  0  0
  -22.8870  -29.5760   22.5210 C   0  0  0  0  0  0  0  0  0  0  0  0
  -21.5710  -29.3430   22.3820 N   0  0  0  0  0  0  0  0  0  0  0  0
  -23.6000  -28.9340   23.2960 O   0  0  0  0  0  0  0  0  0  0  0  0
  -21.0540  -29.9160   21.7320 H   0  0  0  0  0  0  0  0  0  0  0  0
  -18.2620  -27.9530   22.7810 C   0  0  0  0  0  0  0  0  0  0  0  0
  -20.8010  -28.3250   23.0950 C   0  0  0  0  0  3  0  0  0  0  0  0
  -20.9850  -26.9320   22.4470 C   0  0  0  0  0  2  0  0  0  0  0  0
  -19.9080  -26.6070   21.4060 C   0  0  0  0  0  2  0  0  0  0  0  0
  -18.5160  -26.6490   22.0400 C   0  0  0  0  0  2  0  0  0  0  0  0
  -19.3370  -28.7450   23.2610 C   0  0  0  0  0  0  0  0  0  0  0  0
  -19.0490  -29.9660   23.9130 C   0  0  0  0  0  3  0  0  0  0  0  0
  -17.7190  -30.3930   24.0870 C   0  0  0  0  0  3  0  0  0  0  0  0
  -16.6590  -29.5950   23.6220 C   0  0  0  0  0  3  0  0  0  0  0  0
  -16.9320  -28.3770   22.9760 C   0  0  0  0  0  3  0  0  0  0  0  0
  -25.9850  -32.6100   23.9670 C   0  0  0  0  0  3  0  0  0  0  0  0
  -25.6870  -34.0090   24.2950 N   0  0  0  0  0  0  0  0  0  0  0  0
  -26.0410  -35.0580   23.5390 C   0  0  0  0  0  0  0  0  0  0  0  0
  -26.7250  -34.9470   22.5180 O   0  0  0  0  0  0  0  0  0  0  0  0
  -25.0800  -34.1690   25.0840 H   0  0  0  0  0  0  0  0  0  0  0  0
  -24.3370  -36.8670   23.1550 C   0  0  0  0  0  1  0  0  0  0  0  0
  -25.5590  -36.4500   23.9880 C   0  0  0  0  0  3  0  0  0  0  0  0
  -27.6840  -37.3160   24.8620 C   0  0  0  0  0  1  0  0  0  0  0  0
  -26.6040  -37.4930   23.8950 N   0  0  0  0  0  0  0  0  0  0  0  0
  -26.2030  -38.4160   24.0330 H   0  0  0  0  0  0  0  0  0  0  0  0
  -26.4860  -31.8310   25.2440 C   0  0  1  0  0  0  0  0  0  0  0  0
  -25.3830  -31.5970   26.3020 C   0  0  0  0  0  1  0  0  0  0  0  0
  -27.0640  -30.4520   24.8500 C   0  0  0  0  0  1  0  0  0  0  0  0
  -27.6330  -32.6170   25.9230 C   0  0  0  0  0  1  0  0  0  0  0  0
  -25.1540  -21.7940   18.2580 C   0  0  0  0  0  2  0  0  0  0  0  0
  -25.5750  -20.3070   18.3200 C   0  0  0  0  0  2  0  0  0  0  0  0
  -26.9220  -20.0870   18.9060 N   0  0  0  0  0  4  0  0  0  0  0  0
  -26.9370  -20.3650   19.8700 H   0  0  0  0  0  0  0  0  0  0  0  0
  -27.6030  -20.6440   18.4130 H   0  0  0  0  0  0  0  0  0  0  0  0
  -27.3730  -18.6820   18.8560 C   0  0  0  0  0  2  0  0  0  0  0  0
  -29.4140  -17.8090   20.0990 C   0  0  0  0  0  3  0  0  0  0  0  0
  -28.1720  -18.3230   20.0990 C   0  0  0  0  0  3  0  0  0  0  0  0
  -30.1760  -17.4160   21.3550 C   0  0  0  0  0  2  0  0  0  0  0  0
  -30.8670  -15.0660   20.8940 C   0  0  0  0  0  0  0  0  0  0  0  0
  -30.7050  -12.9360   19.6750 C   0  0  0  0  0  2  0  0  0  0  0  0
  -29.8300  -13.1570   18.4230 C   0  0  0  0  0  2  0  0  0  0  0  0
  -28.3340  -12.9840   18.7580 C   0  0  0  0  0  2  0  0  0  0  0  0
  -27.9050  -13.7890   20.0130 C   0  0  0  0  0  3  0  0  0  0  0  0
  -28.8910  -13.5320   21.1770 C   0  0  0  0  0  2  0  0  0  0  0  0
  -30.2520  -13.8700   20.7130 N   0  0  0  0  0  0  0  0  0  0  0  0
  -31.9600  -15.3600   20.4010 O   0  0  0  0  0  0  0  0  0  0  0  0
  -30.1120  -15.9690   21.5290 N   0  0  0  0  0  0  0  0  0  0  0  0
  -29.2780  -15.6060   21.9650 H   0  0  0  0  0  0  0  0  0  0  0  0
  -25.4590  -14.3520   20.5930 C   0  0  0  0  0  0  0  0  0  0  0  0
  -24.3780  -13.5570   20.8720 C   0  0  0  0  0  0  0  0  0  0  0  0
  -24.8580  -12.2130   20.8230 C   0  0  0  0  0  0  0  0  0  0  0  0
  -26.5270  -13.4910   20.3960 N   0  0  0  0  0  0  0  0  0  0  0  0
  -26.1630  -12.1970   20.5870 N   0  0  0  0  0  0  0  0  0  0  0  0
  -24.1410  -10.9370   20.9320 C   0  0  0  0  0  0  0  0  0  0  0  0
  -24.5090   -9.9630   21.8860 C   0  0  0  0  0  3  0  0  0  0  0  0
  -23.7940   -8.7510   21.9850 C   0  0  0  0  0  3  0  0  0  0  0  0
  -22.6970   -8.5030   21.1270 C   0  0  0  0  0  0  0  0  0  0  0  0
  -22.3490   -9.4660   20.1630 C   0  0  0  0  0  3  0  0  0  0  0  0
  -23.0650  -10.6700   20.0620 C   0  0  0  0  0  3  0  0  0  0  0  0
  -21.9610   -7.3430   21.1310 O   0  0  0  0  0  0  0  0  0  0  0  0
  -21.7770   -6.6120   22.2770 C   0  0  0  0  0  0  0  0  0  0  0  0
  -21.1680   -7.1650   23.4250 C   0  0  0  0  0  3  0  0  0  0  0  0
  -20.9360   -6.3580   24.5570 C   0  0  0  0  0  3  0  0  0  0  0  0
  -21.3030   -4.9980   24.5400 C   0  0  0  0  0  0  0  0  0  0  0  0
  -21.9050   -4.4460   23.3960 C   0  0  0  0  0  3  0  0  0  0  0  0
  -22.1390   -5.2500   22.2670 C   0  0  0  0  0  0  0  0  0  0  0  0
  -22.7000   -4.7070   21.1600 F   0  0  0  0  0  0  0  0  0  0  0  0
  -21.0730   -4.2210   25.6230 F   0  0  0  0  0  0  0  0  0  0  0  0
  -22.9620  -14.0110   21.0830 C   0  0  0  0  0  0  0  0  0  0  0  0
  -22.1980  -13.2790   21.8850 N   0  0  0  0  0  0  0  0  0  0  0  0
  -22.5410  -15.0470   20.5730 O   0  0  0  0  0  0  0  0  0  0  0  0
  -22.5510  -12.4390   22.3210 H   0  0  0  0  0  0  0  0  0  0  0  0
  -21.2450  -13.5640   22.0670 H   0  0  0  0  0  0  0  0  0  0  0  0
  -25.6200  -15.7280   20.4820 N   0  0  0  0  0  0  0  0  0  0  0  0
  -24.8540  -16.3780   20.6190 H   0  0  0  0  0  0  0  0  0  0  0  0
  -26.5120  -16.1740   20.3190 H   0  0  0  0  0  0  0  0  0  0  0  0
  1  2  1  0
  2  5  1  0
  2  4  1  0
  2  3  1  0
  6  7  1  0
  6  5  1  0
  8  9  1  0
  8  7  1  0
  9 11  1  0
 10 21  2  0
 11 16  1  0
 12 20  1  0
 12 22  1  0
 13 19  1  0
 13 15  1  0
 14 20  1  0
 15 14  1  0
 16 15  2  0
 17 18  1  0
 17 11  2  0
 18 13  2  0
 19 12  1  0
 20 10  1  0
 22 24  2  0
 23 22  1  0
 25 23  1  0
 26 35  2  0
 26 31  1  0
 27 23  1  0
 27 31  1  0
 28 27  1  0
 29 30  1  0
 29 28  1  0
 30 26  1  0
 31 32  2  0
 32 33  1  0
 34 33  2  0
 35 34  1  0
 36 10  1  0
 36 37  1  0
 36 46  1  0
 37 40  1  0
 38 42  1  0
 38 37  1  0
 39 38  2  0
 42 41  1  0
 44 42  1  0
 44 45  1  0
 44 43  1  0
 46 49  1  1
 46 47  1  0
 48 46  1  0
 50 51  1  0
 50  1  1  0
 51 52  1  0
 52 53  1  0
 54 52  1  0
 55 52  1  0
 55 57  1  0
 56 58  1  0
 57 56  2  0
 58 67  1  0
 59 67  1  0
 60 65  1  0
 61 62  1  0
 61 60  1  0
 63 62  1  0
 63 72  1  0
 63 64  1  0
 65 59  1  0
 65 64  1  0
 66 59  2  0
 67 68  1  0
 69 70  2  0
 70 89  1  0
 71 70  1  0
 71 74  1  0
 72 73  1  0
 72 69  1  0
 73 71  2  0
 74 75  1  0
 75 76  2  0
 77 80  1  0
 77 76  1  0
 78 77  2  0
 79 78  1  0
 79 74  2  0
 80 81  1  0
 81 82  1  0
 82 83  2  0
 84 83  1  0
 84 88  1  0
 85 84  2  0
 86 81  2  0
 86 85  1  0
 87 86  1  0
 89 90  1  0
 90 93  1  0
 90 92  1  0
 91 89  2  0
 94 69  1  0
 94 95  1  0
 96 94  1  0
M  ISO  4   8 101   9 101  59 100  67 100
M  END
>  <TORSDO>  (14) 
F 27

>  <SCORE>  (14) 
-10.795

>  <name>  (14) 
13

>  <ligand_id>  (14) 
13

>  <original_smiles>  (14) 
[H]C(=C([H])C([H])([H])[N+]([H])([H])C([H])([H])C([H])([H])C([H])([H])[N+]([H])([H])C([H])([H])C([H])([H])C([H])([H])C([H])([H])Oc1c([H])c([H])c2c(c1[H])C([H])([H])N(C(=O)C([H])(N([H])C(=O)C([H])(N([H])C([H])([H])[H])C([H])([H])[H])C(C([H])([H])[H])(C([H])([H])[H])C([H])([H])[H])C([H])(C(=O)N([H])C1([H])c3c([H])c([H])c([H])c([H])c3C([H])([H])C([H])([H])C1([H])[H])C2([H])[H])C([H])([H])N([H])C(=O)N1C([H])([H])C([H])([H])C([H])([H])C([H])(n2nc(-c3c([H])c([H])c(Oc4c([H])c([H])c(F)c([H])c4F)c([H])c3[H])c(C(=O)N([H])[H])c2N([H])[H])C1([H])[H]

>  <smiles>  (14) 
[H]C(=C([H])C([H])([H])[N+]([H])([H])C([H])([H])C([H])([H])C([H])([H])[N+]([H])([H])C([H])([H])C([H])([H])C([H])([H])C([H])([H])Oc1c([H])c([H])c2c(c1[H])C([H])([H])N(C(=O)C([H])(N([H])C(=O)C([H])(N([H])C([H])([H])[H])C([H])([H])[H])C(C([H])([H])[H])(C([H])([H])[H])C([H])([H])[H])C([H])(C(=O)N([H])C1([H])c3c([H])c([H])c([H])c([H])c3C([H])([H])C([H])([H])C1([H])[H])C2([H])[H])C([H])([H])N([H])C(=O)N1C([H])([H])C([H])([H])C([H])([H])C([H])(n2nc(-c3c([H])c([H])c(Oc4c([H])c([H])c(F)c([H])c4F)c([H])c3[H])c(C(=O)N([H])[H])c2N([H])[H])C1([H])[H]

$$$$
14:0:0
     RDKit          3D

100107  0  0  1  0  0  0  0  0999 V2000
  -27.5380  -21.6240   21.2930 C   0  0  0  0  0  2  0  0  0  0  0  0
  -26.8440  -22.9160   21.3960 N   0  0  0  0  0  4  0  0  0  0  0  0
  -27.5130  -23.6450   21.1810 H   0  0  0  0  0  0  0  0  0  0  0  0
  -26.4740  -23.0680   22.3180 H   0  0  0  0  0  0  0  0  0  0  0  0
  -25.8110  -23.1890   20.3860 C   0  0  0  0  0  2  0  0  0  0  0  0
  -26.2920  -24.4390   19.6540 C   0  0  0  0  0  2  0  0  0  0  0  0
  -27.5240  -24.0920   18.9500 N   0  0  0  0  0  0  0  0  0  0  0  0
  -27.2770  -23.7660   18.0160 H   0  0  0  0  0  0  0  0  0  0  0  0
  -28.3320  -25.2850   18.7580 C   0  0  0  0  0  2  0  0  0  0  0  0
  -28.5400  -25.5100   17.2470 C   0  0  0  0  0  2  0  0  0  0  0  0
  -28.1500  -26.8330   16.9270 O   0  0  0  0  0  0  0  0  0  0  0  0
  -25.0590  -30.0870   22.4030 C   0  0  0  0  0  0  0  0  0  0  0  0
  -26.9590  -27.2820   17.4460 C   0  0  0  0  0  0  0  0  0  0  0  0
  -23.5110  -29.1420   20.7150 C   0  0  0  0  0  3  0  0  0  0  0  0
  -24.5920  -28.3210   18.5620 C   0  0  0  0  0  0  0  0  0  0  0  0
  -25.8730  -29.8650   20.0600 C   0  0  0  0  0  2  0  0  0  0  0  0
  -25.8360  -28.7950   18.9920 C   0  0  0  0  0  0  0  0  0  0  0  0
  -27.0210  -28.2810   18.4330 C   0  0  0  0  0  3  0  0  0  0  0  0
  -25.6990  -26.7820   17.0390 C   0  0  0  0  0  3  0  0  0  0  0  0
  -24.5140  -27.3020   17.5950 C   0  0  0  0  0  3  0  0  0  0  0  0
  -23.3710  -28.9560   19.1800 C   0  0  0  0  0  2  0  0  0  0  0  0
  -24.8460  -29.6960   21.1130 N   0  0  0  0  0  0  0  0  0  0  0  0
  -24.1510  -30.0330   23.2430 O   0  0  0  0  0  0  0  0  0  0  0  0
  -23.1740  -27.7980   21.4030 C   0  0  0  0  0  0  0  0  0  0  0  0
  -22.0620  -27.1760   20.9760 N   0  0  0  0  0  0  0  0  0  0  0  0
  -23.9170  -27.3250   22.2650 O   0  0  0  0  0  0  0  0  0  0  0  0
  -21.5040  -27.6370   20.2720 H   0  0  0  0  0  0  0  0  0  0  0  0
  -19.9230  -24.3950   20.1160 C   0  0  0  0  0  0  0  0  0  0  0  0
  -21.5710  -25.8790   21.4410 C   0  0  0  0  0  3  0  0  0  0  0  0
  -22.6130  -24.7630   21.1960 C   0  0  0  0  0  2  0  0  0  0  0  0
  -22.4150  -24.0340   19.8640 C   0  0  0  0  0  2  0  0  0  0  0  0
  -21.0250  -23.3960   19.8040 C   0  0  0  0  0  2  0  0  0  0  0  0
  -20.1820  -25.5690   20.8700 C   0  0  0  0  0  0  0  0  0  0  0  0
  -19.1310  -26.4820   21.0990 C   0  0  0  0  0  3  0  0  0  0  0  0
  -17.8410  -26.2380   20.5910 C   0  0  0  0  0  3  0  0  0  0  0  0
  -17.5860  -25.0670   19.8580 C   0  0  0  0  0  3  0  0  0  0  0  0
  -18.6210  -24.1440   19.6310 C   0  0  0  0  0  3  0  0  0  0  0  0
  -26.4420  -30.6370   22.8750 C   0  0  0  0  0  3  0  0  0  0  0  0
  -26.1840  -31.7000   23.8530 N   0  0  0  0  0  0  0  0  0  0  0  0
  -26.4170  -33.0030   23.6390 C   0  0  0  0  0  0  0  0  0  0  0  0
  -26.9470  -33.4260   22.6090 O   0  0  0  0  0  0  0  0  0  0  0  0
  -25.7120  -31.4300   24.7030 H   0  0  0  0  0  0  0  0  0  0  0  0
  -24.7060  -34.7140   24.3190 C   0  0  0  0  0  1  0  0  0  0  0  0
  -25.9970  -33.9930   24.7420 C   0  0  0  0  0  3  0  0  0  0  0  0
  -28.2000  -34.4160   25.7410 C   0  0  0  0  0  1  0  0  0  0  0  0
  -27.0410  -34.9920   25.0640 N   0  0  0  0  0  0  0  0  0  0  0  0
  -26.6650  -35.7310   25.6540 H   0  0  0  0  0  0  0  0  0  0  0  0
  -27.3770  -29.5250   23.4920 C   0  0  1  0  0  0  0  0  0  0  0  0
  -26.6990  -28.6850   24.6000 C   0  0  0  0  0  1  0  0  0  0  0  0
  -27.8670  -28.5540   22.3930 C   0  0  0  0  0  1  0  0  0  0  0  0
  -28.6390  -30.1800   24.1020 C   0  0  0  0  0  1  0  0  0  0  0  0
  -29.0730  -21.8080   21.3360 C   0  0  0  0  0  2  0  0  0  0  0  0
  -29.7200  -21.0550   20.1680 C   0  0  0  0  0  2  0  0  0  0  0  0
  -31.3900  -21.2640   18.4010 C   0  0  0  0  0  0  0  0  0  0  0  0
  -30.7000  -21.8300   19.4020 N   0  0  0  0  0  0  0  0  0  0  0  0
  -31.0720  -20.1370   18.0040 O   0  0  0  0  0  0  0  0  0  0  0  0
  -30.9760  -22.7470   19.7260 H   0  0  0  0  0  0  0  0  0  0  0  0
  -32.6070  -22.0060   17.7590 C   0  0  0  0  0  3  0  0  0  0  0  0
  -32.9800  -20.5020   15.7420 C   0  0  0  0  0  0  0  0  0  0  0  0
  -33.7210  -18.6400   14.2970 C   0  0  0  0  0  2  0  0  0  0  0  0
  -32.6430  -17.5640   14.0720 C   0  0  0  0  0  2  0  0  0  0  0  0
  -32.6460  -16.5380   15.2190 C   0  0  0  0  0  2  0  0  0  0  0  0
  -32.5840  -17.2090   16.6110 C   0  0  0  0  0  3  0  0  0  0  0  0
  -33.6670  -18.3000   16.7220 C   0  0  0  0  0  2  0  0  0  0  0  0
  -33.5080  -19.2630   15.6080 N   0  0  0  0  0  0  0  0  0  0  0  0
  -32.4070  -21.1320   14.8490 O   0  0  0  0  0  0  0  0  0  0  0  0
  -33.3060  -21.0300   16.9230 N   0  0  0  0  0  0  0  0  0  0  0  0
  -33.9430  -20.4460   17.4410 H   0  0  0  0  0  0  0  0  0  0  0  0
  -31.8650  -16.0070   18.7810 C   0  0  0  0  0  0  0  0  0  0  0  0
  -32.3830  -14.9270   19.4480 C   0  0  0  0  0  0  0  0  0  0  0  0
  -33.5350  -14.5250   18.7040 C   0  0  0  0  0  0  0  0  0  0  0  0
  -32.6980  -16.2230   17.6920 N   0  0  0  0  0  0  0  0  0  0  0  0
  -33.7330  -15.3460   17.6820 N   0  0  0  0  0  0  0  0  0  0  0  0
  -34.4260  -13.3680   18.8730 C   0  0  0  0  0  0  0  0  0  0  0  0
  -35.8290  -13.5250   18.9450 C   0  0  0  0  0  3  0  0  0  0  0  0
  -36.6660  -12.3990   19.1150 C   0  0  0  0  0  3  0  0  0  0  0  0
  -36.1040  -11.1050   19.2240 C   0  0  0  0  0  0  0  0  0  0  0  0
  -34.7090  -10.9540   19.1360 C   0  0  0  0  0  3  0  0  0  0  0  0
  -33.8770  -12.0740   18.9630 C   0  0  0  0  0  3  0  0  0  0  0  0
  -36.8440   -9.9560   19.3680 O   0  0  0  0  0  0  0  0  0  0  0  0
  -38.1180   -9.9820   19.8780 C   0  0  0  0  0  0  0  0  0  0  0  0
  -38.3960  -10.4830   21.1680 C   0  0  0  0  0  3  0  0  0  0  0  0
  -39.7060  -10.4090   21.6830 C   0  0  0  0  0  3  0  0  0  0  0  0
  -40.7370   -9.8410   20.9090 C   0  0  0  0  0  0  0  0  0  0  0  0
  -40.4600   -9.3450   19.6230 C   0  0  0  0  0  3  0  0  0  0  0  0
  -39.1530   -9.4130   19.1090 C   0  0  0  0  0  0  0  0  0  0  0  0
  -38.8870   -8.9120   17.8780 F   0  0  0  0  0  0  0  0  0  0  0  0
  -41.9940   -9.7670   21.4030 F   0  0  0  0  0  0  0  0  0  0  0  0
  -31.8000  -14.2480   20.6510 C   0  0  0  0  0  0  0  0  0  0  0  0
  -32.6400  -13.6970   21.5200 N   0  0  0  0  0  0  0  0  0  0  0  0
  -30.5880  -14.2460   20.8610 O   0  0  0  0  0  0  0  0  0  0  0  0
  -33.6400  -13.7270   21.3860 H   0  0  0  0  0  0  0  0  0  0  0  0
  -32.2790  -13.2720   22.3590 H   0  0  0  0  0  0  0  0  0  0  0  0
  -30.7500  -16.8070   18.9960 N   0  0  0  0  0  0  0  0  0  0  0  0
  -30.1170  -16.6660   19.7730 H   0  0  0  0  0  0  0  0  0  0  0  0
  -30.5340  -17.6310   18.4450 H   0  0  0  0  0  0  0  0  0  0  0  0
  -33.1580  -23.6800   19.6760 C   0  0  0  0  0  1  0  0  0  0  0  0
  -34.9220  -23.0760   18.0580 C   0  0  0  0  0  1  0  0  0  0  0  0
  -34.1930  -21.3780   19.7330 C   0  0  0  0  0  1  0  0  0  0  0  0
  -33.6860  -22.5140   18.8020 C   0  0  2  0  0  0  0  0  0  0  0  0
  1 52  1  0
  1  2  1  0
  2  4  1  0
  3  2  1  0
  5  2  1  0
  6  5  1  0
  7  6  1  0
  8  7  1  0
  9  7  1  0
 10  9  1  0
 11 10  1  0
 11 13  1  0
 12 23  2  0
 13 18  1  0
 14 22  1  0
 14 24  1  0
 15 17  1  0
 15 21  1  0
 16 22  1  0
 17 16  1  0
 18 17  2  0
 19 13  2  0
 19 20  1  0
 20 15  2  0
 21 14  1  0
 22 12  1  0
 24 26  2  0
 25 24  1  0
 27 25  1  0
 28 33  1  0
 29 25  1  0
 30 29  1  0
 31 30  1  0
 32 31  1  0
 32 28  1  0
 33 34  2  0
 33 29  1  0
 35 34  1  0
 36 35  2  0
 37 36  1  0
 37 28  2  0
 38 12  1  0
 38 48  1  0
 38 39  1  0
 39 42  1  0
 40 39  1  0
 40 44  1  0
 41 40  2  0
 44 43  1  0
 44 46  1  0
 46 47  1  0
 46 45  1  0
 48 51  1  1
 48 49  1  0
 50 48  1  0
 53 52  1  0
 54 55  1  0
 55 57  1  0
 55 53  1  0
 56 54  2  0
 58 54  1  0
 58100  1  0
 59 67  1  0
 60 65  1  0
 61 60  1  0
 61 62  1  0
 63 62  1  0
 63 64  1  0
 63 72  1  0
 65 59  1  0
 65 64  1  0
 66 59  2  0
 67 68  1  0
 67 58  1  0
 69 94  1  0
 69 70  2  0
 70 89  1  0
 71 74  1  0
 71 70  1  0
 72 69  1  0
 73 72  1  0
 73 71  2  0
 74 75  2  0
 74 79  1  0
 75 76  1  0
 76 77  2  0
 77 80  1  0
 78 77  1  0
 79 78  2  0
 80 81  1  0
 81 82  1  0
 82 83  2  0
 84 88  1  0
 84 83  1  0
 85 84  2  0
 86 85  1  0
 86 81  2  0
 87 86  1  0
 89 91  2  0
 89 90  1  0
 90 93  1  0
 92 90  1  0
 94 95  1  0
 96 94  1  0
100 98  1  6
100 97  1  0
100 99  1  0
M  ISO  4  10 101  11 101  59 100  67 100
M  END
>  <TORSDO>  (15) 
F 27

>  <SCORE>  (15) 
-3.865

>  <name>  (15) 
14

>  <ligand_id>  (15) 
14

>  <original_smiles>  (15) 
[H]c1c([H])c([H])c2c(c1[H])C([H])([H])C([H])([H])C([H])([H])C2([H])N([H])C(=O)C1([H])N(C(=O)C([H])(N([H])C(=O)C([H])(N([H])C([H])([H])[H])C([H])([H])[H])C(C([H])([H])[H])(C([H])([H])[H])C([H])([H])[H])C([H])([H])c2c([H])c(OC([H])([H])C([H])([H])N([H])C([H])([H])C([H])([H])[N+]([H])([H])C([H])([H])C([H])([H])C([H])([H])N([H])C(=O)C([H])(N([H])C(=O)N3C([H])([H])C([H])([H])C([H])([H])C([H])(n4nc(-c5c([H])c([H])c(Oc6c([H])c([H])c(F)c([H])c6F)c([H])c5[H])c(C(=O)N([H])[H])c4N([H])[H])C3([H])[H])C(C([H])([H])[H])(C([H])([H])[H])C([H])([H])[H])c([H])c([H])c2C1([H])[H]

>  <smiles>  (15) 
[H]c1c([H])c([H])c2c(c1[H])C([H])([H])C([H])([H])C([H])([H])C2([H])N([H])C(=O)C1([H])N(C(=O)C([H])(N([H])C(=O)C([H])(N([H])C([H])([H])[H])C([H])([H])[H])C(C([H])([H])[H])(C([H])([H])[H])C([H])([H])[H])C([H])([H])c2c([H])c(OC([H])([H])C([H])([H])N([H])C([H])([H])C([H])([H])[N+]([H])([H])C([H])([H])C([H])([H])C([H])([H])N([H])C(=O)C([H])(N([H])C(=O)N3C([H])([H])C([H])([H])C([H])([H])C([H])(n4nc(-c5c([H])c([H])c(Oc6c([H])c([H])c(F)c([H])c6F)c([H])c5[H])c(C(=O)N([H])[H])c4N([H])[H])C3([H])[H])C(C([H])([H])[H])(C([H])([H])[H])C([H])([H])[H])c([H])c([H])c2C1([H])[H]

$$$$
15:0:0
     RDKit          3D

 98105  0  0  1  0  0  0  0  0999 V2000
  -29.3240  -23.1480   25.0560 C   0  0  0  0  0  2  0  0  0  0  0  0
  -29.8720  -21.7260   25.2280 C   0  0  0  0  0  2  0  0  0  0  0  0
  -30.5840  -21.3780   24.0090 N   0  0  0  0  0  0  0  0  0  0  0  0
  -31.4450  -21.9220   23.9770 H   0  0  0  0  0  0  0  0  0  0  0  0
  -30.9180  -19.9580   23.9390 C   0  0  0  0  0  2  0  0  0  0  0  0
  -31.1350  -19.5750   22.4590 C   0  0  0  0  0  2  0  0  0  0  0  0
  -31.1950  -18.1170   22.2350 N   0  0  0  0  0  4  0  0  0  0  0  0
  -31.6730  -17.6810   23.0070 H   0  0  0  0  0  0  0  0  0  0  0  0
  -30.2580  -17.7510   22.2060 H   0  0  0  0  0  0  0  0  0  0  0  0
  -31.8940  -17.7420   20.9860 C   0  0  0  0  0  2  0  0  0  0  0  0
  -32.3420  -16.2730   20.9900 C   0  0  0  0  0  2  0  0  0  0  0  0
  -31.1390  -14.8150   19.3720 C   0  0  0  0  0  0  0  0  0  0  0  0
  -30.6860  -12.5570   18.5200 C   0  0  0  0  0  2  0  0  0  0  0  0
  -29.5880  -12.4550   17.4550 C   0  0  0  0  0  2  0  0  0  0  0  0
  -28.2090  -12.3180   18.1180 C   0  0  0  0  0  2  0  0  0  0  0  0
  -27.9570  -13.4210   19.1770 C   0  0  0  0  0  3  0  0  0  0  0  0
  -29.1420  -13.5270   20.1630 C   0  0  0  0  0  2  0  0  0  0  0  0
  -30.3960  -13.6900   19.4020 N   0  0  0  0  0  0  0  0  0  0  0  0
  -31.8460  -15.1670   18.4230 O   0  0  0  0  0  0  0  0  0  0  0  0
  -31.2780  -15.3540   20.5880 N   0  0  0  0  0  0  0  0  0  0  0  0
  -30.7790  -14.8760   21.3260 H   0  0  0  0  0  0  0  0  0  0  0  0
  -25.7960  -14.1260   20.3900 C   0  0  0  0  0  0  0  0  0  0  0  0
  -24.7420  -13.3980   20.8760 C   0  0  0  0  0  0  0  0  0  0  0  0
  -25.0550  -12.0290   20.6190 C   0  0  0  0  0  0  0  0  0  0  0  0
  -26.6920  -13.1990   19.8780 N   0  0  0  0  0  0  0  0  0  0  0  0
  -26.2590  -11.9270   20.0700 N   0  0  0  0  0  0  0  0  0  0  0  0
  -24.2570  -10.8100   20.8160 C   0  0  0  0  0  0  0  0  0  0  0  0
  -24.6810   -9.7820   21.6870 C   0  0  0  0  0  3  0  0  0  0  0  0
  -23.8880   -8.6300   21.8760 C   0  0  0  0  0  3  0  0  0  0  0  0
  -22.6550   -8.4980   21.1920 C   0  0  0  0  0  0  0  0  0  0  0  0
  -22.2480   -9.5130   20.3080 C   0  0  0  0  0  3  0  0  0  0  0  0
  -23.0430  -10.6570   20.1190 C   0  0  0  0  0  3  0  0  0  0  0  0
  -21.8330   -7.4020   21.2890 O   0  0  0  0  0  0  0  0  0  0  0  0
  -21.6890   -6.7110   22.4650 C   0  0  0  0  0  0  0  0  0  0  0  0
  -21.2490   -7.3400   23.6510 C   0  0  0  0  0  3  0  0  0  0  0  0
  -21.0500   -6.5790   24.8190 C   0  0  0  0  0  3  0  0  0  0  0  0
  -21.2830   -5.1920   24.8030 C   0  0  0  0  0  0  0  0  0  0  0  0
  -21.7180   -4.5620   23.6230 C   0  0  0  0  0  3  0  0  0  0  0  0
  -21.9200   -5.3200   22.4560 C   0  0  0  0  0  0  0  0  0  0  0  0
  -22.3180   -4.7080   21.3150 F   0  0  0  0  0  0  0  0  0  0  0  0
  -21.0850   -4.4600   25.9240 F   0  0  0  0  0  0  0  0  0  0  0  0
  -23.4710  -13.9450   21.4600 C   0  0  0  0  0  0  0  0  0  0  0  0
  -22.8770  -13.2320   22.4090 N   0  0  0  0  0  0  0  0  0  0  0  0
  -23.0280  -15.0380   21.1080 O   0  0  0  0  0  0  0  0  0  0  0  0
  -23.2510  -12.3450   22.7110 H   0  0  0  0  0  0  0  0  0  0  0  0
  -22.0300  -13.5750   22.8390 H   0  0  0  0  0  0  0  0  0  0  0  0
  -26.0600  -15.4900   20.3250 N   0  0  0  0  0  0  0  0  0  0  0  0
  -25.3860  -16.1830   20.6300 H   0  0  0  0  0  0  0  0  0  0  0  0
  -26.8760  -15.8940   19.8830 H   0  0  0  0  0  0  0  0  0  0  0  0
  -28.3950  -23.6030   26.1940 C   0  0  0  0  0  2  0  0  0  0  0  0
  -28.2280  -25.1360   26.3160 C   0  0  0  0  0  2  0  0  0  0  0  0
  -27.9470  -25.8260   25.0370 N   0  0  0  0  0  4  0  0  0  0  0  0
  -27.4470  -26.6710   25.2670 H   0  0  0  0  0  0  0  0  0  0  0  0
  -27.3150  -25.2620   24.4900 H   0  0  0  0  0  0  0  0  0  0  0  0
  -29.1240  -26.2380   24.2290 C   0  0  0  0  0  2  0  0  0  0  0  0
  -28.7360  -26.3800   22.7480 C   0  0  0  0  0  2  0  0  0  0  0  0
  -29.8560  -26.9170   21.8120 C   0  0  0  0  0  2  0  0  0  0  0  0
  -29.4040  -27.1190   20.4590 O   0  0  0  0  0  0  0  0  0  0  0  0
  -25.0830  -31.7390   23.6550 C   0  0  0  0  0  0  0  0  0  0  0  0
  -28.2290  -27.8220   20.3770 C   0  0  0  0  0  0  0  0  0  0  0  0
  -24.0670  -30.3490   21.8770 C   0  0  0  0  0  3  0  0  0  0  0  0
  -25.7010  -29.0650   20.3980 C   0  0  0  0  0  0  0  0  0  0  0  0
  -26.5450  -30.9610   21.7970 C   0  0  0  0  0  2  0  0  0  0  0  0
  -26.7810  -29.6560   21.0670 C   0  0  0  0  0  0  0  0  0  0  0  0
  -28.0500  -29.0450   21.0540 C   0  0  0  0  0  3  0  0  0  0  0  0
  -27.1460  -27.2440   19.6840 C   0  0  0  0  0  3  0  0  0  0  0  0
  -25.8810  -27.8580   19.6960 C   0  0  0  0  0  3  0  0  0  0  0  0
  -24.3780  -29.7860   20.4630 C   0  0  0  0  0  2  0  0  0  0  0  0
  -25.2460  -31.0290   22.5040 N   0  0  0  0  0  0  0  0  0  0  0  0
  -23.9640  -31.8840   24.1660 O   0  0  0  0  0  0  0  0  0  0  0  0
  -23.4830  -29.2130   22.7450 C   0  0  0  0  0  0  0  0  0  0  0  0
  -22.2070  -28.8720   22.5040 N   0  0  0  0  0  0  0  0  0  0  0  0
  -24.1780  -28.6430   23.5940 O   0  0  0  0  0  0  0  0  0  0  0  0
  -21.6970  -29.4100   21.8160 H   0  0  0  0  0  0  0  0  0  0  0  0
  -19.0080  -27.2050   22.6220 C   0  0  0  0  0  0  0  0  0  0  0  0
  -21.4600  -27.8080   23.1720 C   0  0  0  0  0  3  0  0  0  0  0  0
  -21.8190  -26.4200   22.5950 C   0  0  0  0  0  2  0  0  0  0  0  0
  -20.8910  -25.9900   21.4540 C   0  0  0  0  0  2  0  0  0  0  0  0
  -19.4410  -25.9220   21.9390 C   0  0  0  0  0  2  0  0  0  0  0  0
  -19.9550  -28.1020   23.1830 C   0  0  0  0  0  0  0  0  0  0  0  0
  -19.4960  -29.3010   23.7700 C   0  0  0  0  0  3  0  0  0  0  0  0
  -18.1210  -29.6010   23.8120 C   0  0  0  0  0  3  0  0  0  0  0  0
  -17.1890  -28.7000   23.2690 C   0  0  0  0  0  3  0  0  0  0  0  0
  -17.6330  -27.5050   22.6730 C   0  0  0  0  0  3  0  0  0  0  0  0
  -26.2860  -32.4380   24.3660 C   0  0  0  0  0  3  0  0  0  0  0  0
  -25.8620  -33.8010   24.7060 N   0  0  0  0  0  0  0  0  0  0  0  0
  -26.1930  -34.8970   24.0100 C   0  0  0  0  0  0  0  0  0  0  0  0
  -26.9560  -34.8710   23.0420 O   0  0  0  0  0  0  0  0  0  0  0  0
  -25.1900  -33.8950   25.4520 H   0  0  0  0  0  0  0  0  0  0  0  0
  -24.3970  -36.6020   23.5600 C   0  0  0  0  0  1  0  0  0  0  0  0
  -25.5810  -36.2340   24.4660 C   0  0  0  0  0  3  0  0  0  0  0  0
  -27.5780  -37.2060   25.5190 C   0  0  0  0  0  1  0  0  0  0  0  0
  -26.5520  -37.3520   24.4900 N   0  0  0  0  0  0  0  0  0  0  0  0
  -26.0730  -38.2340   24.6490 H   0  0  0  0  0  0  0  0  0  0  0  0
  -26.7870  -31.6640   25.6470 C   0  0  1  0  0  0  0  0  0  0  0  0
  -25.6580  -31.2930   26.6380 C   0  0  0  0  0  1  0  0  0  0  0  0
  -27.5080  -30.3530   25.2460 C   0  0  0  0  0  1  0  0  0  0  0  0
  -27.8200  -32.5300   26.4070 C   0  0  0  0  0  1  0  0  0  0  0  0
  1  2  1  0
  1 50  1  0
  3  2  1  0
  4  3  1  0
  5  3  1  0
  6  5  1  0
  7  6  1  0
  7  8  1  0
  9  7  1  0
 10 11  1  0
 10  7  1  0
 12 18  1  0
 12 20  1  0
 13 18  1  0
 14 15  1  0
 14 13  1  0
 16 15  1  0
 16 25  1  0
 16 17  1  0
 18 17  1  0
 19 12  2  0
 20 11  1  0
 20 21  1  0
 22 23  2  0
 23 42  1  0
 24 27  1  0
 24 23  1  0
 25 26  1  0
 25 22  1  0
 26 24  2  0
 27 28  1  0
 28 29  2  0
 30 33  1  0
 30 29  1  0
 31 30  2  0
 32 31  1  0
 32 27  2  0
 33 34  1  0
 34 35  1  0
 35 36  2  0
 37 36  1  0
 37 41  1  0
 38 37  2  0
 39 34  2  0
 39 38  1  0
 40 39  1  0
 42 43  1  0
 43 45  1  0
 43 46  1  0
 44 42  2  0
 47 22  1  0
 47 48  1  0
 49 47  1  0
 50 51  1  0
 52 53  1  0
 52 51  1  0
 54 52  1  0
 55 52  1  0
 56 55  1  0
 57 56  1  0
 58 57  1  0
 59 70  2  0
 60 58  1  0
 60 65  1  0
 61 69  1  0
 61 71  1  0
 62 68  1  0
 62 64  1  0
 63 69  1  0
 64 63  1  0
 65 64  2  0
 66 67  1  0
 66 60  2  0
 67 62  2  0
 68 61  1  0
 69 59  1  0
 71 73  2  0
 72 71  1  0
 74 72  1  0
 75 84  2  0
 75 80  1  0
 76 72  1  0
 76 80  1  0
 77 76  1  0
 78 79  1  0
 78 77  1  0
 79 75  1  0
 80 81  2  0
 81 82  1  0
 83 82  2  0
 84 83  1  0
 85 59  1  0
 85 86  1  0
 85 95  1  0
 86 89  1  0
 87 91  1  0
 87 86  1  0
 88 87  2  0
 91 90  1  0
 91 93  1  0
 93 94  1  0
 93 92  1  0
 95 98  1  1
 95 96  1  0
 97 95  1  0
M  ISO  4  12 100  20 100  57 101  58 101
M  END
>  <TORSDO>  (16) 
F 29

>  <SCORE>  (16) 
-3.255

>  <name>  (16) 
15

>  <ligand_id>  (16) 
15

>  <original_smiles>  (16) 
[H]c1c([H])c([H])c2c(c1[H])C([H])([H])C([H])([H])C([H])([H])C2([H])N([H])C(=O)C1([H])N(C(=O)C([H])(N([H])C(=O)C([H])(N([H])C([H])([H])[H])C([H])([H])[H])C(C([H])([H])[H])(C([H])([H])[H])C([H])([H])[H])C([H])([H])c2c([H])c(OC([H])([H])C([H])([H])C([H])([H])[N+]([H])([H])C([H])([H])C([H])([H])C([H])([H])C([H])([H])N([H])C([H])([H])C([H])([H])[N+]([H])([H])C([H])([H])C([H])([H])N([H])C(=O)N3C([H])([H])C([H])([H])C([H])([H])C([H])(n4nc(-c5c([H])c([H])c(Oc6c([H])c([H])c(F)c([H])c6F)c([H])c5[H])c(C(=O)N([H])[H])c4N([H])[H])C3([H])[H])c([H])c([H])c2C1([H])[H]

>  <smiles>  (16) 
[H]c1c([H])c([H])c2c(c1[H])C([H])([H])C([H])([H])C([H])([H])C2([H])N([H])C(=O)C1([H])N(C(=O)C([H])(N([H])C(=O)C([H])(N([H])C([H])([H])[H])C([H])([H])[H])C(C([H])([H])[H])(C([H])([H])[H])C([H])([H])[H])C([H])([H])c2c([H])c(OC([H])([H])C([H])([H])C([H])([H])[N+]([H])([H])C([H])([H])C([H])([H])C([H])([H])C([H])([H])N([H])C([H])([H])C([H])([H])[N+]([H])([H])C([H])([H])C([H])([H])N([H])C(=O)N3C([H])([H])C([H])([H])C([H])([H])C([H])(n4nc(-c5c([H])c([H])c(Oc6c([H])c([H])c(F)c([H])c6F)c([H])c5[H])c(C(=O)N([H])[H])c4N([H])[H])C3([H])[H])c([H])c([H])c2C1([H])[H]

$$$$
16:0:0
     RDKit          3D

 94101  0  0  1  0  0  0  0  0999 V2000
  -31.3220  -20.6230   23.7020 C   0  0  0  0  0  2  0  0  0  0  0  0
  -31.2330  -22.0570   23.1920 C   0  0  0  0  0  2  0  0  0  0  0  0
  -30.3430  -22.7800   24.0280 O   0  0  0  0  0  0  0  0  0  0  0  0
  -30.1030  -24.1040   23.5820 C   0  0  0  0  0  2  0  0  0  0  0  0
  -29.3590  -24.0900   22.2390 C   0  0  0  0  0  2  0  0  0  0  0  0
  -29.2470  -25.4770   21.6310 C   0  0  0  0  0  2  0  0  0  0  0  0
  -28.3400  -25.4710   20.4040 C   0  0  0  0  0  2  0  0  0  0  0  0
  -28.3380  -26.8140   19.9790 O   0  0  0  0  0  0  0  0  0  0  0  0
  -24.7640  -31.6870   23.7110 C   0  0  0  0  0  0  0  0  0  0  0  0
  -27.1680  -27.4950   20.1550 C   0  0  0  0  0  0  0  0  0  0  0  0
  -23.4730  -30.5180   21.9500 C   0  0  0  0  0  3  0  0  0  0  0  0
  -24.8360  -29.0470   20.3770 C   0  0  0  0  0  0  0  0  0  0  0  0
  -26.0080  -30.7720   21.7640 C   0  0  0  0  0  2  0  0  0  0  0  0
  -26.0180  -29.4690   20.9960 C   0  0  0  0  0  0  0  0  0  0  0  0
  -27.1890  -28.6950   20.8900 C   0  0  0  0  0  3  0  0  0  0  0  0
  -25.9690  -27.0590   19.5530 C   0  0  0  0  0  3  0  0  0  0  0  0
  -24.7990  -27.8320   19.6660 C   0  0  0  0  0  3  0  0  0  0  0  0
  -23.6370  -29.9550   20.5130 C   0  0  0  0  0  2  0  0  0  0  0  0
  -24.7670  -30.9990   22.5350 N   0  0  0  0  0  0  0  0  0  0  0  0
  -23.7030  -31.9670   24.2840 O   0  0  0  0  0  0  0  0  0  0  0  0
  -22.7710  -29.4480   22.8150 C   0  0  0  0  0  0  0  0  0  0  0  0
  -21.4620  -29.2650   22.5820 N   0  0  0  0  0  0  0  0  0  0  0  0
  -23.4030  -28.7860   23.6420 O   0  0  0  0  0  0  0  0  0  0  0  0
  -21.0160  -29.8590   21.8960 H   0  0  0  0  0  0  0  0  0  0  0  0
  -18.0940  -27.9680   22.6940 C   0  0  0  0  0  0  0  0  0  0  0  0
  -20.6010  -28.2840   23.2400 C   0  0  0  0  0  3  0  0  0  0  0  0
  -20.8040  -26.8730   22.6400 C   0  0  0  0  0  2  0  0  0  0  0  0
  -19.8210  -26.5470   21.5110 C   0  0  0  0  0  2  0  0  0  0  0  0
  -18.3760  -26.6410   22.0100 C   0  0  0  0  0  2  0  0  0  0  0  0
  -19.1400  -28.7470   23.2570 C   0  0  0  0  0  0  0  0  0  0  0  0
  -18.8250  -29.9890   23.8490 C   0  0  0  0  0  3  0  0  0  0  0  0
  -17.4990  -30.4550   23.8840 C   0  0  0  0  0  3  0  0  0  0  0  0
  -16.4650  -29.6730   23.3410 C   0  0  0  0  0  3  0  0  0  0  0  0
  -16.7620  -28.4300   22.7540 C   0  0  0  0  0  3  0  0  0  0  0  0
  -26.0860  -32.1770   24.3810 C   0  0  0  0  0  3  0  0  0  0  0  0
  -26.4510  -31.3830   25.6960 C   0  0  1  0  0  0  0  0  0  0  0  0
  -25.2950  -31.3110   26.7190 C   0  0  0  0  0  1  0  0  0  0  0  0
  -26.8730  -29.9350   25.3530 C   0  0  0  0  0  1  0  0  0  0  0  0
  -27.6620  -32.0500   26.3930 C   0  0  0  0  0  1  0  0  0  0  0  0
  -25.9370  -33.6110   24.6630 N   0  0  0  0  0  0  0  0  0  0  0  0
  -26.4250  -34.5900   23.8920 C   0  0  0  0  0  0  0  0  0  0  0  0
  -27.1190  -34.3770   22.8950 O   0  0  0  0  0  0  0  0  0  0  0  0
  -25.3420  -33.8580   25.4410 H   0  0  0  0  0  0  0  0  0  0  0  0
  -24.9190  -36.5480   23.4300 C   0  0  0  0  0  1  0  0  0  0  0  0
  -26.0870  -36.0400   24.2900 C   0  0  0  0  0  3  0  0  0  0  0  0
  -28.3210  -36.6540   25.1040 C   0  0  0  0  0  1  0  0  0  0  0  0
  -27.2360  -36.9650   24.1750 N   0  0  0  0  0  0  0  0  0  0  0  0
  -26.9450  -37.9230   24.3390 H   0  0  0  0  0  0  0  0  0  0  0  0
  -31.6550  -19.6440   22.5720 C   0  0  0  0  0  2  0  0  0  0  0  0
  -31.5720  -18.2450   23.0270 N   0  0  0  0  0  4  0  0  0  0  0  0
  -32.2420  -18.1030   23.7660 H   0  0  0  0  0  0  0  0  0  0  0  0
  -30.6530  -18.0740   23.4040 H   0  0  0  0  0  0  0  0  0  0  0  0
  -31.8430  -17.2660   21.9620 C   0  0  0  0  0  2  0  0  0  0  0  0
  -31.9970  -15.8520   22.5400 C   0  0  0  0  0  2  0  0  0  0  0  0
  -32.5230  -14.8520   21.5030 C   0  0  0  0  0  2  0  0  0  0  0  0
  -31.4800  -13.8180   21.0660 C   0  0  0  0  0  2  0  0  0  0  0  0
  -29.8150  -14.4470   19.3990 C   0  0  0  0  0  0  0  0  0  0  0  0
  -29.0650  -12.7060   17.8450 C   0  0  0  0  0  2  0  0  0  0  0  0
  -27.8250  -12.9990   16.9940 C   0  0  0  0  0  2  0  0  0  0  0  0
  -26.5510  -12.6360   17.7740 C   0  0  0  0  0  2  0  0  0  0  0  0
  -26.5130  -13.2870   19.1790 C   0  0  0  0  0  3  0  0  0  0  0  0
  -27.8250  -13.0200   19.9430 C   0  0  0  0  0  2  0  0  0  0  0  0
  -28.9540  -13.4500   19.1030 N   0  0  0  0  0  0  0  0  0  0  0  0
  -30.4660  -15.0790   18.5640 O   0  0  0  0  0  0  0  0  0  0  0  0
  -30.1830  -14.3740   20.6800 N   0  0  0  0  0  0  0  0  0  0  0  0
  -29.4340  -14.0260   21.2610 H   0  0  0  0  0  0  0  0  0  0  0  0
  -24.3540  -13.5950   20.5460 C   0  0  0  0  0  0  0  0  0  0  0  0
  -23.4550  -12.6940   21.0480 C   0  0  0  0  0  0  0  0  0  0  0  0
  -23.9560  -11.4010   20.7050 C   0  0  0  0  0  0  0  0  0  0  0  0
  -25.3450  -12.8420   19.9350 N   0  0  0  0  0  0  0  0  0  0  0  0
  -25.1240  -11.5110   20.0840 N   0  0  0  0  0  0  0  0  0  0  0  0
  -23.3660  -10.0680   20.8780 C   0  0  0  0  0  0  0  0  0  0  0  0
  -24.0400   -9.0480   21.5860 C   0  0  0  0  0  3  0  0  0  0  0  0
  -23.4430   -7.7800   21.7570 C   0  0  0  0  0  3  0  0  0  0  0  0
  -22.1600   -7.5210   21.2180 C   0  0  0  0  0  0  0  0  0  0  0  0
  -21.5030   -8.5330   20.4960 C   0  0  0  0  0  3  0  0  0  0  0  0
  -22.0990   -9.7920   20.3230 C   0  0  0  0  0  3  0  0  0  0  0  0
  -21.5140   -6.3110   21.3120 O   0  0  0  0  0  0  0  0  0  0  0  0
  -21.7860   -5.4260   22.3260 C   0  0  0  0  0  0  0  0  0  0  0  0
  -21.6200   -5.7760   23.6840 C   0  0  0  0  0  3  0  0  0  0  0  0
  -21.8400   -4.8150   24.6900 C   0  0  0  0  0  3  0  0  0  0  0  0
  -22.2190   -3.5050   24.3430 C   0  0  0  0  0  0  0  0  0  0  0  0
  -22.3780   -3.1530   22.9920 C   0  0  0  0  0  3  0  0  0  0  0  0
  -22.1600   -4.1110   21.9870 C   0  0  0  0  0  0  0  0  0  0  0  0
  -22.2960   -3.7600   20.6840 F   0  0  0  0  0  0  0  0  0  0  0  0
  -22.4210   -2.5800   25.3100 F   0  0  0  0  0  0  0  0  0  0  0  0
  -22.1530  -13.0110   21.7270 C   0  0  0  0  0  0  0  0  0  0  0  0
  -21.7130  -12.1580   22.6440 N   0  0  0  0  0  0  0  0  0  0  0  0
  -21.5410  -14.0490   21.4780 O   0  0  0  0  0  0  0  0  0  0  0  0
  -22.2210  -11.3120   22.8560 H   0  0  0  0  0  0  0  0  0  0  0  0
  -20.8560  -12.3550   23.1410 H   0  0  0  0  0  0  0  0  0  0  0  0
  -24.4050  -14.9870   20.5370 N   0  0  0  0  0  0  0  0  0  0  0  0
  -23.6720  -15.5670   20.9290 H   0  0  0  0  0  0  0  0  0  0  0  0
  -25.1330  -15.5230   20.0800 H   0  0  0  0  0  0  0  0  0  0  0  0
  2  1  1  0
  2  3  1  0
  4  3  1  0
  5  4  1  0
  6  5  1  0
  7  6  1  0
  8 10  1  0
  8  7  1  0
  9 20  2  0
 10 15  1  0
 11 19  1  0
 11 21  1  0
 12 18  1  0
 12 14  1  0
 13 19  1  0
 14 13  1  0
 15 14  2  0
 16 17  1  0
 16 10  2  0
 17 12  2  0
 18 11  1  0
 19  9  1  0
 21 23  2  0
 22 21  1  0
 24 22  1  0
 25 34  2  0
 25 30  1  0
 26 22  1  0
 26 30  1  0
 27 26  1  0
 28 29  1  0
 28 27  1  0
 29 25  1  0
 30 31  2  0
 31 32  1  0
 33 32  2  0
 34 33  1  0
 35  9  1  0
 35 40  1  0
 35 36  1  0
 36 39  1  1
 36 37  1  0
 38 36  1  0
 40 43  1  0
 41 45  1  0
 41 40  1  0
 42 41  2  0
 45 44  1  0
 47 45  1  0
 47 48  1  0
 47 46  1  0
 49 50  1  0
 49  1  1  0
 50 52  1  0
 50 51  1  0
 53 54  1  0
 53 50  1  0
 55 54  1  0
 56 55  1  0
 57 65  1  0
 58 63  1  0
 59 60  1  0
 59 58  1  0
 61 60  1  0
 61 70  1  0
 61 62  1  0
 63 57  1  0
 63 62  1  0
 64 57  2  0
 65 56  1  0
 65 66  1  0
 67 68  2  0
 68 87  1  0
 69 72  1  0
 69 68  1  0
 70 71  1  0
 70 67  1  0
 71 69  2  0
 72 73  1  0
 73 74  2  0
 75 78  1  0
 75 74  1  0
 76 75  2  0
 77 76  1  0
 77 72  2  0
 78 79  1  0
 79 80  1  0
 80 81  2  0
 82 81  1  0
 82 86  1  0
 83 82  2  0
 84 79  2  0
 84 83  1  0
 85 84  1  0
 87 88  1  0
 88 90  1  0
 88 91  1  0
 89 87  2  0
 92 67  1  0
 92 93  1  0
 94 92  1  0
M  ISO  4   7 101   8 101  57 100  65 100
M  END
>  <TORSDO>  (17) 
F 28

>  <SCORE>  (17) 
-3.228

>  <name>  (17) 
16

>  <ligand_id>  (17) 
16

>  <original_smiles>  (17) 
[H]c1c([H])c([H])c2c(c1[H])C([H])([H])C([H])([H])C([H])([H])C2([H])N([H])C(=O)C1([H])N(C(=O)C([H])(N([H])C(=O)C([H])(N([H])C([H])([H])[H])C([H])([H])[H])C(C([H])([H])[H])(C([H])([H])[H])C([H])([H])[H])C([H])([H])c2c([H])c(OC([H])([H])C([H])([H])C([H])([H])C([H])([H])OC([H])([H])C([H])([H])C([H])([H])[N+]([H])([H])C([H])([H])C([H])([H])C([H])([H])C([H])([H])N([H])C(=O)N3C([H])([H])C([H])([H])C([H])([H])C([H])(n4nc(-c5c([H])c([H])c(Oc6c([H])c([H])c(F)c([H])c6F)c([H])c5[H])c(C(=O)N([H])[H])c4N([H])[H])C3([H])[H])c([H])c([H])c2C1([H])[H]

>  <smiles>  (17) 
[H]c1c([H])c([H])c2c(c1[H])C([H])([H])C([H])([H])C([H])([H])C2([H])N([H])C(=O)C1([H])N(C(=O)C([H])(N([H])C(=O)C([H])(N([H])C([H])([H])[H])C([H])([H])[H])C(C([H])([H])[H])(C([H])([H])[H])C([H])([H])[H])C([H])([H])c2c([H])c(OC([H])([H])C([H])([H])C([H])([H])C([H])([H])OC([H])([H])C([H])([H])C([H])([H])[N+]([H])([H])C([H])([H])C([H])([H])C([H])([H])C([H])([H])N([H])C(=O)N3C([H])([H])C([H])([H])C([H])([H])C([H])(n4nc(-c5c([H])c([H])c(Oc6c([H])c([H])c(F)c([H])c6F)c([H])c5[H])c(C(=O)N([H])[H])c4N([H])[H])C3([H])[H])c([H])c([H])c2C1([H])[H]

$$$$
17:0:0
     RDKit          3D

105112  0  0  1  0  0  0  0  0999 V2000
  -28.6420  -20.4440   17.0700 N   0  0  0  0  0  4  0  0  0  0  0  0
  -28.9930  -20.2960   16.1370 H   0  0  0  0  0  0  0  0  0  0  0  0
  -27.8360  -19.8610   17.1940 H   0  0  0  0  0  0  0  0  0  0  0  0
  -29.6310  -19.9740   18.0700 C   0  0  0  0  0  2  0  0  0  0  0  0
  -29.5020  -18.4550   18.3850 C   0  0  0  0  0  2  0  0  0  0  0  0
  -28.5640  -18.0320   19.4510 N   0  0  0  0  0  0  0  0  0  0  0  0
  -27.1920  -18.5540   19.3580 C   0  0  0  0  0  2  0  0  0  0  0  0
  -26.8530  -19.0290   17.9230 C   0  0  0  0  0  2  0  0  0  0  0  0
  -25.3860  -19.4080   17.6650 C   0  0  0  0  0  2  0  0  0  0  0  0
  -25.0810  -21.6600   18.6470 C   0  0  0  0  0  0  0  0  0  0  0  0
  -24.8710  -20.3410   18.6600 N   0  0  0  0  0  0  0  0  0  0  0  0
  -25.8220  -22.2120   17.8330 O   0  0  0  0  0  0  0  0  0  0  0  0
  -24.2500  -19.9680   19.3670 H   0  0  0  0  0  0  0  0  0  0  0  0
  -24.1430  -23.6480   19.6560 C   0  0  0  0  0  2  0  0  0  0  0  0
  -24.3430  -22.3220   19.7030 C   0  0  0  0  0  3  0  0  0  0  0  0
  -29.0930  -18.0550   20.8240 C   0  0  0  0  0  2  0  0  0  0  0  0
  -30.4440  -17.3120   20.9650 C   0  0  0  0  0  2  0  0  0  0  0  0
  -31.0280  -14.8800   20.7680 C   0  0  0  0  0  0  0  0  0  0  0  0
  -30.7950  -12.7830   19.5250 C   0  0  0  0  0  2  0  0  0  0  0  0
  -29.8900  -13.0370   18.3030 C   0  0  0  0  0  2  0  0  0  0  0  0
  -28.4070  -12.8590   18.6780 C   0  0  0  0  0  2  0  0  0  0  0  0
  -28.0170  -13.6710   19.9390 C   0  0  0  0  0  3  0  0  0  0  0  0
  -29.0210  -13.3860   21.0800 C   0  0  0  0  0  2  0  0  0  0  0  0
  -30.3750  -13.7020   20.5870 N   0  0  0  0  0  0  0  0  0  0  0  0
  -32.1880  -15.0810   20.4050 O   0  0  0  0  0  0  0  0  0  0  0  0
  -30.2280  -15.8760   21.1620 N   0  0  0  0  0  0  0  0  0  0  0  0
  -29.3120  -15.5950   21.4700 H   0  0  0  0  0  0  0  0  0  0  0  0
  -25.5740  -14.2630   20.4940 C   0  0  0  0  0  0  0  0  0  0  0  0
  -24.4930  -13.4840   20.8070 C   0  0  0  0  0  0  0  0  0  0  0  0
  -24.9710  -12.1370   20.8280 C   0  0  0  0  0  0  0  0  0  0  0  0
  -26.6410  -13.3920   20.3440 N   0  0  0  0  0  0  0  0  0  0  0  0
  -26.2780  -12.1100   20.6060 N   0  0  0  0  0  0  0  0  0  0  0  0
  -24.2530  -10.8670   20.9950 C   0  0  0  0  0  0  0  0  0  0  0  0
  -24.6170   -9.9320   21.9880 C   0  0  0  0  0  3  0  0  0  0  0  0
  -23.8950   -8.7300   22.1350 C   0  0  0  0  0  3  0  0  0  0  0  0
  -22.8010   -8.4480   21.2790 C   0  0  0  0  0  0  0  0  0  0  0  0
  -22.4600   -9.3710   20.2760 C   0  0  0  0  0  3  0  0  0  0  0  0
  -23.1840  -10.5660   20.1310 C   0  0  0  0  0  3  0  0  0  0  0  0
  -22.0650   -7.2870   21.3270 O   0  0  0  0  0  0  0  0  0  0  0  0
  -21.8890   -6.5960   22.5000 C   0  0  0  0  0  0  0  0  0  0  0  0
  -21.3090   -7.2010   23.6370 C   0  0  0  0  0  3  0  0  0  0  0  0
  -21.0810   -6.4360   24.8000 C   0  0  0  0  0  3  0  0  0  0  0  0
  -21.4250   -5.0710   24.8240 C   0  0  0  0  0  0  0  0  0  0  0  0
  -22.0010   -4.4680   23.6910 C   0  0  0  0  0  3  0  0  0  0  0  0
  -22.2280   -5.2300   22.5320 C   0  0  0  0  0  0  0  0  0  0  0  0
  -22.7640   -4.6430   21.4340 F   0  0  0  0  0  0  0  0  0  0  0  0
  -21.1980   -4.3340   25.9360 F   0  0  0  0  0  0  0  0  0  0  0  0
  -23.0770  -13.9480   20.9800 C   0  0  0  0  0  0  0  0  0  0  0  0
  -22.3120  -13.2770   21.8370 N   0  0  0  0  0  0  0  0  0  0  0  0
  -22.6500  -14.9430   20.3960 O   0  0  0  0  0  0  0  0  0  0  0  0
  -22.6680  -12.4800   22.3410 H   0  0  0  0  0  0  0  0  0  0  0  0
  -21.3630  -13.5810   22.0020 H   0  0  0  0  0  0  0  0  0  0  0  0
  -25.7400  -15.6320   20.3060 N   0  0  0  0  0  0  0  0  0  0  0  0
  -24.9770  -16.2890   20.4020 H   0  0  0  0  0  0  0  0  0  0  0  0
  -26.6180  -16.0600   20.0460 H   0  0  0  0  0  0  0  0  0  0  0  0
  -28.1810  -21.8460   17.2160 C   0  0  0  0  0  2  0  0  0  0  0  0
  -29.2260  -22.8950   16.7770 C   0  0  0  0  0  2  0  0  0  0  0  0
  -28.9230  -24.3040   17.3230 C   0  0  0  0  0  2  0  0  0  0  0  0
  -29.9790  -25.3530   16.9070 C   0  0  0  0  0  2  0  0  0  0  0  0
  -29.8940  -26.5820   17.7240 N   0  0  0  0  0  4  0  0  0  0  0  0
  -28.9270  -26.7500   17.9520 H   0  0  0  0  0  0  0  0  0  0  0  0
  -30.1970  -27.3650   17.1640 H   0  0  0  0  0  0  0  0  0  0  0  0
  -30.6960  -26.5520   18.9730 C   0  0  0  0  0  2  0  0  0  0  0  0
  -30.0530  -27.4140   20.0640 C   0  0  0  0  0  2  0  0  0  0  0  0
  -28.8780  -26.7130   20.4650 O   0  0  0  0  0  0  0  0  0  0  0  0
  -24.7140  -31.7460   23.3240 C   0  0  0  0  0  0  0  0  0  0  0  0
  -27.7090  -27.4250   20.4380 C   0  0  0  0  0  0  0  0  0  0  0  0
  -23.6710  -30.3090   21.6010 C   0  0  0  0  0  3  0  0  0  0  0  0
  -25.2660  -28.8210   20.2910 C   0  0  0  0  0  0  0  0  0  0  0  0
  -26.1860  -30.7580   21.5790 C   0  0  0  0  0  2  0  0  0  0  0  0
  -26.3610  -29.3920   20.9520 C   0  0  0  0  0  0  0  0  0  0  0  0
  -27.5870  -28.7030   21.0260 C   0  0  0  0  0  3  0  0  0  0  0  0
  -26.5920  -26.8440   19.8040 C   0  0  0  0  0  3  0  0  0  0  0  0
  -25.3720  -27.5420   19.7170 C   0  0  0  0  0  3  0  0  0  0  0  0
  -23.9970  -29.6400   20.2400 C   0  0  0  0  0  2  0  0  0  0  0  0
  -24.8710  -30.9500   22.2290 N   0  0  0  0  0  0  0  0  0  0  0  0
  -23.5910  -31.9870   23.7840 O   0  0  0  0  0  0  0  0  0  0  0  0
  -22.9830  -29.2680   22.5140 C   0  0  0  0  0  0  0  0  0  0  0  0
  -21.6690  -29.0780   22.3160 N   0  0  0  0  0  0  0  0  0  0  0  0
  -23.6320  -28.6350   23.3510 O   0  0  0  0  0  0  0  0  0  0  0  0
  -21.2110  -29.6410   21.6130 H   0  0  0  0  0  0  0  0  0  0  0  0
  -18.2730  -27.8970   22.6520 C   0  0  0  0  0  0  0  0  0  0  0  0
  -20.8180  -28.1260   23.0300 C   0  0  0  0  0  3  0  0  0  0  0  0
  -20.9360  -26.7110   22.4200 C   0  0  0  0  0  2  0  0  0  0  0  0
  -19.8720  -26.4240   21.3550 C   0  0  0  0  0  2  0  0  0  0  0  0
  -18.4660  -26.5650   21.9460 C   0  0  0  0  0  2  0  0  0  0  0  0
  -19.3790  -28.6380   23.1470 C   0  0  0  0  0  0  0  0  0  0  0  0
  -19.1450  -29.8890   23.7600 C   0  0  0  0  0  3  0  0  0  0  0  0
  -17.8380  -30.3930   23.8900 C   0  0  0  0  0  3  0  0  0  0  0  0
  -16.7450  -29.6460   23.4150 C   0  0  0  0  0  3  0  0  0  0  0  0
  -16.9650  -28.4000   22.8010 C   0  0  0  0  0  3  0  0  0  0  0  0
  -25.9370  -32.4130   24.0320 C   0  0  0  0  0  3  0  0  0  0  0  0
  -26.3730  -31.6670   25.3510 C   0  0  1  0  0  0  0  0  0  0  0  0
  -25.2080  -31.4170   26.3350 C   0  0  0  0  0  1  0  0  0  0  0  0
  -27.0110  -30.2980   25.0160 C   0  0  0  0  0  1  0  0  0  0  0  0
  -27.4570  -32.4920   26.0840 C   0  0  0  0  0  1  0  0  0  0  0  0
  -25.5750  -33.8070   24.3170 N   0  0  0  0  0  0  0  0  0  0  0  0
  -25.9510  -34.8560   23.5740 C   0  0  0  0  0  0  0  0  0  0  0  0
  -26.7080  -34.7540   22.6050 O   0  0  0  0  0  0  0  0  0  0  0  0
  -24.9150  -33.9600   25.0670 H   0  0  0  0  0  0  0  0  0  0  0  0
  -24.2260  -36.6080   23.0470 C   0  0  0  0  0  1  0  0  0  0  0  0
  -25.3970  -36.2370   23.9700 C   0  0  0  0  0  3  0  0  0  0  0  0
  -27.4390  -37.1680   24.9680 C   0  0  0  0  0  1  0  0  0  0  0  0
  -26.4140  -37.3100   23.9370 N   0  0  0  0  0  0  0  0  0  0  0  0
  -25.9780  -38.2210   24.0480 H   0  0  0  0  0  0  0  0  0  0  0  0
  1  3  1  0
  1 56  1  0
  1  4  1  0
  2  1  1  0
  4  5  1  0
  5  6  1  0
  6 16  1  0
  7  6  1  0
  8  7  1  0
  9  8  1  0
  9 11  1  0
 10 11  1  0
 10 15  1  0
 11 13  1  0
 12 10  2  0
 14 15  2  0
 16 17  1  0
 17 26  1  0
 18 26  1  0
 19 24  1  0
 20 21  1  0
 20 19  1  0
 22 21  1  0
 22 31  1  0
 22 23  1  0
 24 18  1  0
 24 23  1  0
 25 18  2  0
 26 27  1  0
 28 29  2  0
 29 30  1  0
 29 48  1  0
 30 33  1  0
 31 28  1  0
 31 32  1  0
 32 30  2  0
 33 34  1  0
 34 35  2  0
 36 39  1  0
 36 35  1  0
 37 36  2  0
 38 37  1  0
 38 33  2  0
 39 40  1  0
 40 45  2  0
 40 41  1  0
 41 42  2  0
 42 43  1  0
 43 47  1  0
 44 43  2  0
 45 44  1  0
 46 45  1  0
 48 49  1  0
 49 52  1  0
 49 51  1  0
 50 48  2  0
 53 54  1  0
 53 28  1  0
 55 53  1  0
 57 56  1  0
 57 58  1  0
 59 58  1  0
 59 60  1  0
 60 61  1  0
 60 63  1  0
 62 60  1  0
 63 64  1  0
 64 65  1  0
 66 77  2  0
 67 65  1  0
 67 72  1  0
 68 76  1  0
 68 78  1  0
 69 71  1  0
 70 76  1  0
 71 72  2  0
 71 70  1  0
 73 67  2  0
 74 73  1  0
 74 69  2  0
 75 69  1  0
 75 68  1  0
 76 66  1  0
 78 80  2  0
 79 78  1  0
 81 79  1  0
 82 91  2  0
 82 87  1  0
 83 79  1  0
 83 87  1  0
 84 83  1  0
 85 86  1  0
 85 84  1  0
 86 82  1  0
 87 88  2  0
 88 89  1  0
 90 89  2  0
 91 90  1  0
 92 66  1  0
 92 97  1  0
 92 93  1  0
 93 96  1  1
 93 94  1  0
 95 93  1  0
 97100  1  0
 98102  1  0
 98 97  1  0
 99 98  2  0
102101  1  0
104102  1  0
104105  1  0
104103  1  0
M  ISO  4  18 100  26 100  64 101  65 101
M  END
>  <TORSDO>  (18) 
F 33

>  <SCORE>  (18) 
-9.008

>  <name>  (18) 
17

>  <ligand_id>  (18) 
17

>  <original_smiles>  (18) 
[H]C([H])=C([H])C(=O)N([H])C([H])([H])C([H])([H])C([H])([H])N(C([H])([H])C([H])([H])N([H])C(=O)N1C([H])([H])C([H])([H])C([H])([H])C([H])(n2nc(-c3c([H])c([H])c(Oc4c([H])c([H])c(F)c([H])c4F)c([H])c3[H])c(C(=O)N([H])[H])c2N([H])[H])C1([H])[H])C([H])([H])C([H])([H])[N+]([H])([H])C([H])([H])C([H])([H])C([H])([H])C([H])([H])[N+]([H])([H])C([H])([H])C([H])([H])Oc1c([H])c([H])c2c(c1[H])C([H])([H])N(C(=O)C([H])(N([H])C(=O)C([H])(N([H])C([H])([H])[H])C([H])([H])[H])C(C([H])([H])[H])(C([H])([H])[H])C([H])([H])[H])C([H])(C(=O)N([H])C1([H])c3c([H])c([H])c([H])c([H])c3C([H])([H])C([H])([H])C1([H])[H])C2([H])[H]

>  <smiles>  (18) 
[H]C([H])=C([H])C(=O)N([H])C([H])([H])C([H])([H])C([H])([H])N(C([H])([H])C([H])([H])N([H])C(=O)N1C([H])([H])C([H])([H])C([H])([H])C([H])(n2nc(-c3c([H])c([H])c(Oc4c([H])c([H])c(F)c([H])c4F)c([H])c3[H])c(C(=O)N([H])[H])c2N([H])[H])C1([H])[H])C([H])([H])C([H])([H])[N+]([H])([H])C([H])([H])C([H])([H])C([H])([H])C([H])([H])[N+]([H])([H])C([H])([H])C([H])([H])Oc1c([H])c([H])c2c(c1[H])C([H])([H])N(C(=O)C([H])(N([H])C(=O)C([H])(N([H])C([H])([H])[H])C([H])([H])[H])C(C([H])([H])[H])(C([H])([H])[H])C([H])([H])[H])C([H])(C(=O)N([H])C1([H])c3c([H])c([H])c([H])c([H])c3C([H])([H])C([H])([H])C1([H])[H])C2([H])[H]

$$$$
18:0:0
     RDKit          3D

 97104  0  0  1  0  0  0  0  0999 V2000
  -29.3070  -24.1250   24.0480 C   0  0  0  0  0  2  0  0  0  0  0  0
  -29.8710  -22.8120   24.3350 N   0  0  0  0  0  0  0  0  0  0  0  0
  -29.1080  -22.1360   24.4060 H   0  0  0  0  0  0  0  0  0  0  0  0
  -30.8260  -22.3670   23.3180 C   0  0  0  0  0  2  0  0  0  0  0  0
  -31.1680  -20.8740   23.4660 C   0  0  0  0  0  2  0  0  0  0  0  0
  -31.2910  -20.2270   22.1470 N   0  0  0  0  0  4  0  0  0  0  0  0
  -30.5230  -20.5310   21.5710 H   0  0  0  0  0  0  0  0  0  0  0  0
  -32.1450  -20.5440   21.7170 H   0  0  0  0  0  0  0  0  0  0  0  0
  -31.2950  -18.7520   22.1980 C   0  0  0  0  0  2  0  0  0  0  0  0
  -31.4590  -18.1380   20.7960 C   0  0  0  0  0  2  0  0  0  0  0  0
  -32.0900  -16.7350   20.8100 C   0  0  0  0  0  2  0  0  0  0  0  0
  -31.1490  -14.8840   19.4440 C   0  0  0  0  0  0  0  0  0  0  0  0
  -30.8720  -12.5130   18.8530 C   0  0  0  0  0  2  0  0  0  0  0  0
  -29.8000  -12.2400   17.7870 C   0  0  0  0  0  2  0  0  0  0  0  0
  -28.4180  -12.0850   18.4420 C   0  0  0  0  0  2  0  0  0  0  0  0
  -28.0860  -13.2570   19.4000 C   0  0  0  0  0  3  0  0  0  0  0  0
  -29.2500  -13.5280   20.3810 C   0  0  0  0  0  2  0  0  0  0  0  0
  -30.4970  -13.7110   19.6140 N   0  0  0  0  0  0  0  0  0  0  0  0
  -31.8980  -15.1240   18.4920 O   0  0  0  0  0  0  0  0  0  0  0  0
  -31.1250  -15.6700   20.5280 N   0  0  0  0  0  0  0  0  0  0  0  0
  -30.5480  -15.3490   21.2910 H   0  0  0  0  0  0  0  0  0  0  0  0
  -25.9520  -13.9300   20.6790 C   0  0  0  0  0  0  0  0  0  0  0  0
  -24.8940  -13.1950   21.1440 C   0  0  0  0  0  0  0  0  0  0  0  0
  -25.1830  -11.8360   20.8140 C   0  0  0  0  0  0  0  0  0  0  0  0
  -26.8280  -13.0190   20.1070 N   0  0  0  0  0  0  0  0  0  0  0  0
  -26.3760  -11.7450   20.2390 N   0  0  0  0  0  0  0  0  0  0  0  0
  -24.3690  -10.6220   20.9600 C   0  0  0  0  0  0  0  0  0  0  0  0
  -24.7340   -9.5900   21.8530 C   0  0  0  0  0  3  0  0  0  0  0  0
  -23.9240   -8.4420   21.9890 C   0  0  0  0  0  3  0  0  0  0  0  0
  -22.7350   -8.3180   21.2300 C   0  0  0  0  0  0  0  0  0  0  0  0
  -22.3890   -9.3370   20.3270 C   0  0  0  0  0  3  0  0  0  0  0  0
  -23.1980  -10.4770   20.1890 C   0  0  0  0  0  3  0  0  0  0  0  0
  -21.9020   -7.2270   21.2780 O   0  0  0  0  0  0  0  0  0  0  0  0
  -21.6010   -6.6000   22.4610 C   0  0  0  0  0  0  0  0  0  0  0  0
  -20.9900   -7.2870   23.5340 C   0  0  0  0  0  3  0  0  0  0  0  0
  -20.6360   -6.5890   24.7060 C   0  0  0  0  0  3  0  0  0  0  0  0
  -20.8820   -5.2070   24.8050 C   0  0  0  0  0  0  0  0  0  0  0  0
  -21.4850   -4.5210   23.7360 C   0  0  0  0  0  3  0  0  0  0  0  0
  -21.8410   -5.2160   22.5660 C   0  0  0  0  0  0  0  0  0  0  0  0
  -22.4030   -4.5460   21.5320 F   0  0  0  0  0  0  0  0  0  0  0  0
  -20.5350   -4.5340   25.9270 F   0  0  0  0  0  0  0  0  0  0  0  0
  -23.6400  -13.7290   21.7740 C   0  0  0  0  0  0  0  0  0  0  0  0
  -23.0590  -12.9860   22.7080 N   0  0  0  0  0  0  0  0  0  0  0  0
  -23.1960  -14.8370   21.4750 O   0  0  0  0  0  0  0  0  0  0  0  0
  -23.4330  -12.0850   22.9680 H   0  0  0  0  0  0  0  0  0  0  0  0
  -22.2250  -13.3210   23.1690 H   0  0  0  0  0  0  0  0  0  0  0  0
  -26.2350  -15.2930   20.6790 N   0  0  0  0  0  0  0  0  0  0  0  0
  -25.5850  -15.9830   21.0400 H   0  0  0  0  0  0  0  0  0  0  0  0
  -27.0570  -15.7060   20.2560 H   0  0  0  0  0  0  0  0  0  0  0  0
  -28.0190  -24.3540   24.8550 C   0  0  0  0  0  2  0  0  0  0  0  0
  -27.3820  -25.6340   24.5420 N   0  0  0  0  0  0  0  0  0  0  0  0
  -26.5840  -25.7440   25.1700 H   0  0  0  0  0  0  0  0  0  0  0  0
  -26.8950  -25.7450   23.1650 C   0  0  0  0  0  2  0  0  0  0  0  0
  -27.9550  -26.3230   22.2530 C   0  0  0  0  0  3  0  0  0  0  0  0
  -28.4120  -25.7160   21.1440 C   0  0  0  0  0  3  0  0  0  0  0  0
  -29.4060  -26.3330   20.1730 C   0  0  0  0  0  2  0  0  0  0  0  0
  -28.7510  -26.7980   18.9910 O   0  0  0  0  0  0  0  0  0  0  0  0
  -25.7830  -31.6310   23.2800 C   0  0  0  0  0  0  0  0  0  0  0  0
  -27.6850  -27.6250   19.2420 C   0  0  0  0  0  0  0  0  0  0  0  0
  -24.2810  -30.5870   21.6110 C   0  0  0  0  0  3  0  0  0  0  0  0
  -25.4300  -29.2200   19.7910 C   0  0  0  0  0  0  0  0  0  0  0  0
  -26.7830  -30.8280   21.1490 C   0  0  0  0  0  2  0  0  0  0  0  0
  -26.6840  -29.5790   20.3030 C   0  0  0  0  0  0  0  0  0  0  0  0
  -27.8170  -28.7840   20.0340 C   0  0  0  0  0  3  0  0  0  0  0  0
  -26.4240  -27.2760   18.7200 C   0  0  0  0  0  3  0  0  0  0  0  0
  -25.2910  -28.0650   18.9990 C   0  0  0  0  0  3  0  0  0  0  0  0
  -24.2680  -30.1260   20.1300 C   0  0  0  0  0  2  0  0  0  0  0  0
  -25.6410  -31.0180   22.0710 N   0  0  0  0  0  0  0  0  0  0  0  0
  -24.7990  -31.8780   23.9900 O   0  0  0  0  0  0  0  0  0  0  0  0
  -23.6680  -29.4660   22.4810 C   0  0  0  0  0  0  0  0  0  0  0  0
  -22.3410  -29.2970   22.3860 N   0  0  0  0  0  0  0  0  0  0  0  0
  -24.3830  -28.7590   23.1960 O   0  0  0  0  0  0  0  0  0  0  0  0
  -21.8270  -29.9210   21.7790 H   0  0  0  0  0  0  0  0  0  0  0  0
  -19.0040  -27.9710   22.7740 C   0  0  0  0  0  0  0  0  0  0  0  0
  -21.5510  -28.2810   23.0800 C   0  0  0  0  0  3  0  0  0  0  0  0
  -21.6990  -26.9010   22.4000 C   0  0  0  0  0  2  0  0  0  0  0  0
  -20.6110  -26.6230   21.3580 C   0  0  0  0  0  2  0  0  0  0  0  0
  -19.2220  -26.6810   22.0020 C   0  0  0  0  0  2  0  0  0  0  0  0
  -20.0980  -28.7310   23.2650 C   0  0  0  0  0  0  0  0  0  0  0  0
  -19.8410  -29.9410   23.9440 C   0  0  0  0  0  3  0  0  0  0  0  0
  -18.5220  -30.3940   24.1350 C   0  0  0  0  0  3  0  0  0  0  0  0
  -17.4410  -29.6300   23.6610 C   0  0  0  0  0  3  0  0  0  0  0  0
  -17.6840  -28.4200   22.9860 C   0  0  0  0  0  3  0  0  0  0  0  0
  -27.1810  -32.0690   23.8170 C   0  0  0  0  0  3  0  0  0  0  0  0
  -27.7130  -31.1560   24.9900 C   0  0  1  0  0  0  0  0  0  0  0  0
  -26.6820  -30.9390   26.1230 C   0  0  0  0  0  1  0  0  0  0  0  0
  -28.1280  -29.7650   24.4540 C   0  0  0  0  0  1  0  0  0  0  0  0
  -28.9820  -31.7860   25.6120 C   0  0  0  0  0  1  0  0  0  0  0  0
  -27.0680  -33.4660   24.2530 N   0  0  0  0  0  0  0  0  0  0  0  0
  -27.5090  -34.5200   23.5530 C   0  0  0  0  0  0  0  0  0  0  0  0
  -28.1260  -34.4070   22.4910 O   0  0  0  0  0  0  0  0  0  0  0  0
  -26.5290  -33.6370   25.0890 H   0  0  0  0  0  0  0  0  0  0  0  0
  -26.0280  -36.5420   23.3730 C   0  0  0  0  0  1  0  0  0  0  0  0
  -27.2180  -35.9220   24.1210 C   0  0  0  0  0  3  0  0  0  0  0  0
  -29.4630  -36.4570   24.9590 C   0  0  0  0  0  1  0  0  0  0  0  0
  -28.3800  -36.8360   24.0550 N   0  0  0  0  0  0  0  0  0  0  0  0
  -28.1030  -37.7890   24.2730 H   0  0  0  0  0  0  0  0  0  0  0  0
  1  2  1  0
  1 50  1  0
  2  3  1  0
  4  5  1  0
  4  2  1  0
  6  9  1  0
  6  5  1  0
  7  6  1  0
  8  6  1  0
 10 11  1  0
 10  9  1  0
 12 18  1  0
 12 20  1  0
 13 18  1  0
 14 15  1  0
 14 13  1  0
 16 15  1  0
 16 25  1  0
 16 17  1  0
 18 17  1  0
 19 12  2  0
 20 11  1  0
 20 21  1  0
 22 47  1  0
 22 23  2  0
 23 42  1  0
 24 27  1  0
 24 23  1  0
 25 26  1  0
 25 22  1  0
 26 24  2  0
 27 28  1  0
 28 29  2  0
 30 33  1  0
 30 29  1  0
 31 30  2  0
 32 31  1  0
 32 27  2  0
 33 34  1  0
 34 39  2  0
 34 35  1  0
 35 36  2  0
 36 37  1  0
 37 41  1  0
 38 37  2  0
 39 38  1  0
 40 39  1  0
 42 43  1  0
 43 45  1  0
 43 46  1  0
 44 42  2  0
 47 48  1  0
 49 47  1  0
 51 50  1  0
 51 52  1  0
 53 51  1  0
 54 53  1  0
 55 54  2  0
 56 55  1  0
 57 59  1  0
 57 56  1  0
 58 69  2  0
 59 64  1  0
 60 68  1  0
 60 70  1  0
 61 67  1  0
 61 63  1  0
 62 68  1  0
 63 62  1  0
 64 63  2  0
 65 66  1  0
 65 59  2  0
 66 61  2  0
 67 60  1  0
 68 58  1  0
 70 72  2  0
 71 70  1  0
 73 71  1  0
 74 83  2  0
 74 79  1  0
 75 71  1  0
 75 79  1  0
 76 75  1  0
 77 78  1  0
 77 76  1  0
 78 74  1  0
 79 80  2  0
 80 81  1  0
 82 81  2  0
 83 82  1  0
 84 58  1  0
 84 89  1  0
 84 85  1  0
 85 88  1  1
 85 86  1  0
 87 85  1  0
 89 92  1  0
 90 94  1  0
 90 89  1  0
 91 90  2  0
 94 93  1  0
 96 94  1  0
 96 97  1  0
 96 95  1  0
M  ISO  4  12 100  20 100  56 101  57 101
M  END
>  <TORSDO>  (19) 
F 28

>  <SCORE>  (19) 
-5.013

>  <name>  (19) 
18

>  <ligand_id>  (19) 
18

>  <original_smiles>  (19) 
[H]C(=C([H])C([H])([H])N([H])C([H])([H])C([H])([H])N([H])C([H])([H])C([H])([H])[N+]([H])([H])C([H])([H])C([H])([H])C([H])([H])N([H])C(=O)N1C([H])([H])C([H])([H])C([H])([H])C([H])(n2nc(-c3c([H])c([H])c(Oc4c([H])c([H])c(F)c([H])c4F)c([H])c3[H])c(C(=O)N([H])[H])c2N([H])[H])C1([H])[H])C([H])([H])Oc1c([H])c([H])c2c(c1[H])C([H])([H])N(C(=O)C([H])(N([H])C(=O)C([H])(N([H])C([H])([H])[H])C([H])([H])[H])C(C([H])([H])[H])(C([H])([H])[H])C([H])([H])[H])C([H])(C(=O)N([H])C1([H])c3c([H])c([H])c([H])c([H])c3C([H])([H])C([H])([H])C1([H])[H])C2([H])[H]

>  <smiles>  (19) 
[H]C(=C([H])C([H])([H])N([H])C([H])([H])C([H])([H])N([H])C([H])([H])C([H])([H])[N+]([H])([H])C([H])([H])C([H])([H])C([H])([H])N([H])C(=O)N1C([H])([H])C([H])([H])C([H])([H])C([H])(n2nc(-c3c([H])c([H])c(Oc4c([H])c([H])c(F)c([H])c4F)c([H])c3[H])c(C(=O)N([H])[H])c2N([H])[H])C1([H])[H])C([H])([H])Oc1c([H])c([H])c2c(c1[H])C([H])([H])N(C(=O)C([H])(N([H])C(=O)C([H])(N([H])C([H])([H])[H])C([H])([H])[H])C(C([H])([H])[H])(C([H])([H])[H])C([H])([H])[H])C([H])(C(=O)N([H])C1([H])c3c([H])c([H])c([H])c([H])c3C([H])([H])C([H])([H])C1([H])[H])C2([H])[H]

$$$$
19:0:0
     RDKit          3D

105114  0  0  1  0  0  0  0  0999 V2000
  -26.4040  -19.9870   20.1010 C   0  0  0  0  0  2  0  0  0  0  0  0
  -29.0980  -19.3920   17.6280 C   0  0  0  0  0  2  0  0  0  0  0  0
  -32.0710  -17.5370   18.0500 C   0  0  0  0  0  2  0  0  0  0  0  0
  -27.5550  -19.3210   19.3680 C   0  0  0  0  0  0  0  0  0  0  0  0
  -31.3220  -17.9110   20.4040 C   0  0  0  0  0  2  0  0  0  0  0  0
  -30.2050  -16.8650   20.1540 C   0  0  0  0  0  3  0  0  0  0  0  0
  -29.1450  -17.4350   19.1480 C   0  0  0  0  0  3  0  0  0  0  0  0
  -28.0830  -19.9160   18.2480 N   0  0  0  0  0  0  0  0  0  0  0  0
  -30.8680  -17.6670   17.4300 N   0  0  0  0  0  0  0  0  0  0  0  0
  -29.7610  -18.2530   18.0900 N   0  0  0  0  0  0  0  0  0  0  0  0
  -32.3390  -17.8290   19.3440 N   0  0  0  0  0  0  0  0  0  0  0  0
  -28.0430  -18.1930   19.8090 N   0  0  0  0  0  0  0  0  0  0  0  0
  -30.7590  -17.2800   16.5000 H   0  0  0  0  0  0  0  0  0  0  0  0
  -33.3010  -17.8180   19.6650 H   0  0  0  0  0  0  0  0  0  0  0  0
  -27.5140  -17.6860   20.5150 H   0  0  0  0  0  0  0  0  0  0  0  0
  -31.5720  -14.7090   20.1140 C   0  0  0  0  0  0  0  0  0  0  0  0
  -31.3600  -12.3000   19.7070 C   0  0  0  0  0  2  0  0  0  0  0  0
  -30.4590  -12.1110   18.4680 C   0  0  0  0  0  2  0  0  0  0  0  0
  -28.9710  -12.0950   18.8730 C   0  0  0  0  0  2  0  0  0  0  0  0
  -28.5770  -13.2910   19.7850 C   0  0  0  0  0  3  0  0  0  0  0  0
  -29.5890  -13.4340   20.9490 C   0  0  0  0  0  2  0  0  0  0  0  0
  -30.9340  -13.5410   20.3640 N   0  0  0  0  0  0  0  0  0  0  0  0
  -32.7480  -14.7850   19.7640 O   0  0  0  0  0  0  0  0  0  0  0  0
  -30.7400  -15.6100   19.5810 N   0  0  0  0  0  0  0  0  0  0  0  0
  -31.0540  -15.7570   18.6340 H   0  0  0  0  0  0  0  0  0  0  0  0
  -26.2930  -14.1690   20.5910 C   0  0  0  0  0  0  0  0  0  0  0  0
  -25.1470  -13.5230   20.9610 C   0  0  0  0  0  0  0  0  0  0  0  0
  -25.4230  -12.1270   20.8330 C   0  0  0  0  0  0  0  0  0  0  0  0
  -27.2100  -13.1740   20.2780 N   0  0  0  0  0  0  0  0  0  0  0  0
  -26.6900  -11.9390   20.4850 N   0  0  0  0  0  0  0  0  0  0  0  0
  -24.5460  -10.9610   20.9610 C   0  0  0  0  0  0  0  0  0  0  0  0
  -24.8430   -9.9110   21.8590 C   0  0  0  0  0  3  0  0  0  0  0  0
  -23.9700   -8.8100   21.9810 C   0  0  0  0  0  3  0  0  0  0  0  0
  -22.7890   -8.7510   21.2050 C   0  0  0  0  0  0  0  0  0  0  0  0
  -22.5150   -9.7830   20.2900 C   0  0  0  0  0  3  0  0  0  0  0  0
  -23.3870  -10.8770   20.1630 C   0  0  0  0  0  3  0  0  0  0  0  0
  -21.9010   -7.7020   21.2420 O   0  0  0  0  0  0  0  0  0  0  0  0
  -21.7190   -6.9530   22.3760 C   0  0  0  0  0  0  0  0  0  0  0  0
  -21.2620   -7.5250   23.5830 C   0  0  0  0  0  3  0  0  0  0  0  0
  -21.0110   -6.7050   24.7010 C   0  0  0  0  0  3  0  0  0  0  0  0
  -21.2200   -5.3160   24.6150 C   0  0  0  0  0  0  0  0  0  0  0  0
  -21.6710   -4.7420   23.4130 C   0  0  0  0  0  3  0  0  0  0  0  0
  -21.9170   -5.5590   22.2950 C   0  0  0  0  0  0  0  0  0  0  0  0
  -22.3320   -5.0010   21.1340 F   0  0  0  0  0  0  0  0  0  0  0  0
  -20.9780   -4.5260   25.6890 F   0  0  0  0  0  0  0  0  0  0  0  0
  -23.8290  -14.1600   21.2970 C   0  0  0  0  0  0  0  0  0  0  0  0
  -23.0190  -13.5220   22.1350 N   0  0  0  0  0  0  0  0  0  0  0  0
  -23.5310  -15.2680   20.8470 O   0  0  0  0  0  0  0  0  0  0  0  0
  -23.2520  -12.6210   22.5210 H   0  0  0  0  0  0  0  0  0  0  0  0
  -22.1420  -13.9500   22.3970 H   0  0  0  0  0  0  0  0  0  0  0  0
  -26.6130  -15.5220   20.4550 N   0  0  0  0  0  0  0  0  0  0  0  0
  -25.7420  -16.0450   20.4560 H   0  0  0  0  0  0  0  0  0  0  0  0
  -27.0620  -15.6450   19.5550 H   0  0  0  0  0  0  0  0  0  0  0  0
  -25.8330  -21.0750   19.2620 N   0  0  0  0  0  4  0  0  0  0  0  0
  -24.8530  -20.8740   19.1300 H   0  0  0  0  0  0  0  0  0  0  0  0
  -26.2650  -20.9530   18.3560 H   0  0  0  0  0  0  0  0  0  0  0  0
  -25.9770  -22.4790   19.7410 C   0  0  0  0  0  2  0  0  0  0  0  0
  -27.2720  -23.2070   19.2660 C   0  0  0  0  0  2  0  0  0  0  0  0
  -27.0820  -24.6180   18.6410 C   0  0  0  0  0  2  0  0  0  0  0  0
  -27.7860  -24.7730   17.3410 N   0  0  0  0  0  4  0  0  0  0  0  0
  -27.1300  -24.5760   16.6020 H   0  0  0  0  0  0  0  0  0  0  0  0
  -28.5290  -24.0960   17.2840 H   0  0  0  0  0  0  0  0  0  0  0  0
  -28.3630  -26.1140   17.0880 C   0  0  0  0  0  2  0  0  0  0  0  0
  -27.9620  -26.6440   15.6880 C   0  0  0  0  0  2  0  0  0  0  0  0
  -27.4140  -27.9650   15.7290 O   0  0  0  0  0  0  0  0  0  0  0  0
  -24.8200  -27.7400   22.3020 C   0  0  0  0  0  0  0  0  0  0  0  0
  -26.2940  -28.1400   16.5070 C   0  0  0  0  0  0  0  0  0  0  0  0
  -23.1330  -27.9070   20.5020 C   0  0  0  0  0  3  0  0  0  0  0  0
  -24.0410  -28.4370   18.1810 C   0  0  0  0  0  0  0  0  0  0  0  0
  -25.4670  -28.8860   20.1830 C   0  0  0  0  0  2  0  0  0  0  0  0
  -25.3310  -28.5800   18.7080 C   0  0  0  0  0  0  0  0  0  0  0  0
  -26.4580  -28.4360   17.8750 C   0  0  0  0  0  3  0  0  0  0  0  0
  -24.9870  -28.0120   15.9840 C   0  0  0  0  0  3  0  0  0  0  0  0
  -23.8630  -28.1470   16.8190 C   0  0  0  0  0  3  0  0  0  0  0  0
  -22.8920  -28.6200   19.1420 C   0  0  0  0  0  2  0  0  0  0  0  0
  -24.5150  -28.1400   21.0360 N   0  0  0  0  0  0  0  0  0  0  0  0
  -23.9670  -27.2240   23.0370 O   0  0  0  0  0  0  0  0  0  0  0  0
  -22.7820  -26.4100   20.3390 C   0  0  0  0  0  0  0  0  0  0  0  0
  -21.5560  -26.1290   19.8710 N   0  0  0  0  0  0  0  0  0  0  0  0
  -23.6080  -25.5310   20.6050 O   0  0  0  0  0  0  0  0  0  0  0  0
  -20.9230  -26.8980   19.6920 H   0  0  0  0  0  0  0  0  0  0  0  0
  -18.9850  -24.3330   18.0800 C   0  0  0  0  0  0  0  0  0  0  0  0
  -21.0300  -24.7930   19.5920 C   0  0  0  0  0  3  0  0  0  0  0  0
  -21.8650  -24.0820   18.5000 C   0  0  0  0  0  2  0  0  0  0  0  0
  -21.3110  -24.2740   17.0850 C   0  0  0  0  0  2  0  0  0  0  0  0
  -19.8730  -23.7520   16.9930 C   0  0  0  0  0  2  0  0  0  0  0  0
  -19.5280  -24.8370   19.2910 C   0  0  0  0  0  0  0  0  0  0  0  0
  -18.6560  -25.4040   20.2480 C   0  0  0  0  0  3  0  0  0  0  0  0
  -17.2730  -25.4720   20.0120 C   0  0  0  0  0  3  0  0  0  0  0  0
  -16.7390  -24.9570   18.8150 C   0  0  0  0  0  3  0  0  0  0  0  0
  -17.5920  -24.3860   17.8560 C   0  0  0  0  0  3  0  0  0  0  0  0
  -26.2520  -27.9300   22.8940 C   0  0  0  0  0  3  0  0  0  0  0  0
  -26.1030  -28.5460   24.2190 N   0  0  0  0  0  0  0  0  0  0  0  0
  -26.4410  -29.8110   24.5060 C   0  0  0  0  0  0  0  0  0  0  0  0
  -26.9810  -30.5630   23.6900 O   0  0  0  0  0  0  0  0  0  0  0  0
  -25.6110  -28.0090   24.9190 H   0  0  0  0  0  0  0  0  0  0  0  0
  -24.9220  -31.2740   25.8720 C   0  0  0  0  0  1  0  0  0  0  0  0
  -26.1270  -30.3220   25.9240 C   0  0  0  0  0  3  0  0  0  0  0  0
  -28.3620  -30.0940   26.9100 C   0  0  0  0  0  1  0  0  0  0  0  0
  -27.2710  -31.0020   26.5700 N   0  0  0  0  0  0  0  0  0  0  0  0
  -26.9770  -31.4760   27.4200 H   0  0  0  0  0  0  0  0  0  0  0  0
  -27.0670  -26.5830   22.9900 C   0  0  1  0  0  0  0  0  0  0  0  0
  -26.3050  -25.4460   23.7090 C   0  0  0  0  0  1  0  0  0  0  0  0
  -27.4480  -26.0840   21.5770 C   0  0  0  0  0  1  0  0  0  0  0  0
  -28.3940  -26.8260   23.7440 C   0  0  0  0  0  1  0  0  0  0  0  0
  2  8  1  0
  3 11  1  0
  4 12  1  0
  4  1  1  0
  6 24  1  0
  6  5  1  0
  7 12  1  0
  7  6  1  0
  8  4  2  0
  9  3  1  0
  9 10  1  0
 10  2  1  0
 10  7  1  0
 11 14  1  0
 11  5  1  0
 12 15  1  0
 13  9  1  0
 16 22  1  0
 17 22  1  0
 18 19  1  0
 18 17  1  0
 20 19  1  0
 20 29  1  0
 20 21  1  0
 22 21  1  0
 23 16  2  0
 24 16  1  0
 25 24  1  0
 26 27  2  0
 27 46  1  0
 28 31  1  0
 28 27  1  0
 29 30  1  0
 29 26  1  0
 30 28  2  0
 31 32  1  0
 32 33  2  0
 34 37  1  0
 34 33  1  0
 35 34  2  0
 36 35  1  0
 36 31  2  0
 37 38  1  0
 38 39  1  0
 39 40  2  0
 41 40  1  0
 41 45  1  0
 42 41  2  0
 43 38  2  0
 43 42  1  0
 44 43  1  0
 46 47  1  0
 47 50  1  0
 47 49  1  0
 48 46  2  0
 51 52  1  0
 51 26  1  0
 53 51  1  0
 54 57  1  0
 54  1  1  0
 55 54  1  0
 56 54  1  0
 58 57  1  0
 59 58  1  0
 60 59  1  0
 61 60  1  0
 62 60  1  0
 63 60  1  0
 64 65  1  0
 64 63  1  0
 65 67  1  0
 66 77  2  0
 67 72  1  0
 68 78  1  0
 68 76  1  0
 69 71  1  0
 69 75  1  0
 70 76  1  0
 71 70  1  0
 72 71  2  0
 73 67  2  0
 73 74  1  0
 74 69  2  0
 75 68  1  0
 76 66  1  0
 78 80  2  0
 79 78  1  0
 81 79  1  0
 82 87  1  0
 83 79  1  0
 84 83  1  0
 85 84  1  0
 86 85  1  0
 86 82  1  0
 87 83  1  0
 87 88  2  0
 89 88  1  0
 90 89  2  0
 91 82  2  0
 91 90  1  0
 92 66  1  0
 92102  1  0
 92 93  1  0
 93 94  1  0
 93 96  1  0
 94 98  1  0
 95 94  2  0
 98 97  1  0
 98100  1  0
100 99  1  0
100101  1  0
102103  1  1
102105  1  0
104102  1  0
M  ISO  4  16 100  24 100  64 101  65 101
M  END
>  <TORSDO>  (20) 
F 24

>  <SCORE>  (20) 
-7.556

>  <name>  (20) 
19

>  <ligand_id>  (20) 
19

>  <original_smiles>  (20) 
[H]C1=NC(C([H])([H])[N+]([H])([H])C([H])([H])C([H])([H])C([H])([H])[N+]([H])([H])C([H])([H])C([H])([H])Oc2c([H])c([H])c3c(c2[H])C([H])([H])N(C(=O)C([H])(N([H])C(=O)C([H])(N([H])C([H])([H])[H])C([H])([H])[H])C(C([H])([H])[H])(C([H])([H])[H])C([H])([H])[H])C([H])(C(=O)N([H])C2([H])c4c([H])c([H])c([H])c([H])c4C([H])([H])C([H])([H])C2([H])[H])C3([H])[H])=[N+]([H])C2([H])N1N([H])C([H])=[N+]([H])C([H])([H])C2([H])N([H])C(=O)N1C([H])([H])C([H])([H])C([H])([H])C([H])(n2nc(-c3c([H])c([H])c(Oc4c([H])c([H])c(F)c([H])c4F)c([H])c3[H])c(C(=O)N([H])[H])c2N([H])[H])C1([H])[H]

>  <smiles>  (20) 
[H]C1=NC(C([H])([H])[N+]([H])([H])C([H])([H])C([H])([H])C([H])([H])[N+]([H])([H])C([H])([H])C([H])([H])Oc2c([H])c([H])c3c(c2[H])C([H])([H])N(C(=O)C([H])(N([H])C(=O)C([H])(N([H])C([H])([H])[H])C([H])([H])[H])C(C([H])([H])[H])(C([H])([H])[H])C([H])([H])[H])C([H])(C(=O)N([H])C2([H])c4c([H])c([H])c([H])c([H])c4C([H])([H])C([H])([H])C2([H])[H])C3([H])[H])=[N+]([H])C2([H])N1N([H])C([H])=[N+]([H])C([H])([H])C2([H])N([H])C(=O)N1C([H])([H])C([H])([H])C([H])([H])C([H])(n2nc(-c3c([H])c([H])c(Oc4c([H])c([H])c(F)c([H])c4F)c([H])c3[H])c(C(=O)N([H])[H])c2N([H])[H])C1([H])[H]

$$$$
20:0:0
     RDKit          3D

 98105  0  0  1  0  0  0  0  0999 V2000
  -29.1780  -22.5200   21.7880 C   0  0  0  0  0  0  0  0  0  0  0  0
  -27.8550  -22.6360   21.9140 N   0  0  0  0  0  0  0  0  0  0  0  0
  -29.8620  -23.2790   21.0970 O   0  0  0  0  0  0  0  0  0  0  0  0
  -27.3760  -21.9290   22.4540 H   0  0  0  0  0  0  0  0  0  0  0  0
  -29.8430  -21.3760   22.5380 C   0  0  0  0  0  2  0  0  0  0  0  0
  -31.2890  -21.6310   22.6160 N   0  0  0  0  0  4  0  0  0  0  0  0
  -31.5260  -21.8660   23.5670 H   0  0  0  0  0  0  0  0  0  0  0  0
  -31.4340  -22.4640   22.0620 H   0  0  0  0  0  0  0  0  0  0  0  0
  -32.1250  -20.5190   22.1160 C   0  0  0  0  0  2  0  0  0  0  0  0
  -33.6130  -20.7330   22.4160 C   0  0  0  0  0  2  0  0  0  0  0  0
  -34.3500  -20.4490   21.2320 O   0  0  0  0  0  0  0  0  0  0  0  0
  -38.8000  -25.9900   21.2290 C   0  0  0  0  0  0  0  0  0  0  0  0
  -34.8050  -21.5650   20.5810 C   0  0  0  0  0  0  0  0  0  0  0  0
  -37.0850  -25.9810   19.4430 C   0  0  0  0  0  3  0  0  0  0  0  0
  -35.7680  -23.8130   19.1870 C   0  0  0  0  0  0  0  0  0  0  0  0
  -37.9230  -23.7920   20.4590 C   0  0  0  0  0  2  0  0  0  0  0  0
  -36.5560  -23.2100   20.1750 C   0  0  0  0  0  0  0  0  0  0  0  0
  -36.0800  -22.0850   20.8770 C   0  0  0  0  0  3  0  0  0  0  0  0
  -34.0140  -22.1740   19.5870 C   0  0  0  0  0  3  0  0  0  0  0  0
  -34.4900  -23.3020   18.8910 C   0  0  0  0  0  3  0  0  0  0  0  0
  -36.3630  -25.0050   18.4750 C   0  0  0  0  0  2  0  0  0  0  0  0
  -37.9580  -25.2710   20.4340 N   0  0  0  0  0  0  0  0  0  0  0  0
  -38.8930  -27.2190   21.1160 O   0  0  0  0  0  0  0  0  0  0  0  0
  -36.0250  -26.8900   20.1010 C   0  0  0  0  0  0  0  0  0  0  0  0
  -35.6540  -27.9760   19.4050 N   0  0  0  0  0  0  0  0  0  0  0  0
  -35.5350  -26.6010   21.1960 O   0  0  0  0  0  0  0  0  0  0  0  0
  -36.1050  -28.1450   18.5170 H   0  0  0  0  0  0  0  0  0  0  0  0
  -34.1110  -31.1090   18.4880 C   0  0  0  0  0  0  0  0  0  0  0  0
  -34.6460  -28.9530   19.8090 C   0  0  0  0  0  3  0  0  0  0  0  0
  -33.2260  -28.4820   19.4160 C   0  0  0  0  0  2  0  0  0  0  0  0
  -32.7740  -29.0060   18.0500 C   0  0  0  0  0  2  0  0  0  0  0  0
  -32.7780  -30.5380   18.0320 C   0  0  0  0  0  2  0  0  0  0  0  0
  -34.9940  -30.3590   19.3080 C   0  0  0  0  0  0  0  0  0  0  0  0
  -36.2350  -30.9230   19.6730 C   0  0  0  0  0  3  0  0  0  0  0  0
  -36.5980  -32.2110   19.2350 C   0  0  0  0  0  3  0  0  0  0  0  0
  -35.7130  -32.9550   18.4360 C   0  0  0  0  0  3  0  0  0  0  0  0
  -34.4720  -32.4060   18.0680 C   0  0  0  0  0  3  0  0  0  0  0  0
  -39.7040  -25.3000   22.2990 C   0  0  0  0  0  3  0  0  0  0  0  0
  -39.1770  -25.4880   23.7750 C   0  0  1  0  0  0  0  0  0  0  0  0
  -39.2350  -26.9500   24.2740 C   0  0  0  0  0  1  0  0  0  0  0  0
  -37.7140  -25.0040   23.8970 C   0  0  0  0  0  1  0  0  0  0  0  0
  -40.0140  -24.6180   24.7450 C   0  0  0  0  0  1  0  0  0  0  0  0
  -41.0580  -25.8480   22.1550 N   0  0  0  0  0  0  0  0  0  0  0  0
  -42.0520  -25.2500   21.4830 C   0  0  0  0  0  0  0  0  0  0  0  0
  -41.9390  -24.1290   20.9760 O   0  0  0  0  0  0  0  0  0  0  0  0
  -41.2070  -26.7850   22.4970 H   0  0  0  0  0  0  0  0  0  0  0  0
  -43.5070  -26.5880   19.9310 C   0  0  0  0  0  1  0  0  0  0  0  0
  -43.3800  -26.0170   21.3530 C   0  0  0  0  0  3  0  0  0  0  0  0
  -44.7060  -24.8990   23.0890 C   0  0  0  0  0  1  0  0  0  0  0  0
  -44.5690  -25.1940   21.6660 N   0  0  0  0  0  0  0  0  0  0  0  0
  -45.4190  -25.6550   21.3540 H   0  0  0  0  0  0  0  0  0  0  0  0
  -26.9900  -23.5400   21.1590 C   0  0  0  0  0  3  0  0  0  0  0  0
  -26.8250  -22.9890   19.7350 C   0  0  0  0  0  0  0  0  0  0  0  0
  -27.2760  -21.7460   19.5080 N   0  0  0  0  0  0  0  0  0  0  0  0
  -26.3330  -23.6890   18.8500 O   0  0  0  0  0  0  0  0  0  0  0  0
  -27.6070  -21.2050   20.2940 H   0  0  0  0  0  0  0  0  0  0  0  0
  -27.2820  -21.1130   18.2000 C   0  0  0  0  0  2  0  0  0  0  0  0
  -28.1240  -19.8250   18.1740 C   0  0  0  0  0  2  0  0  0  0  0  0
  -30.2220  -19.8830   16.8520 C   0  0  0  0  0  0  0  0  0  0  0  0
  -32.0190  -20.7550   15.4010 C   0  0  0  0  0  2  0  0  0  0  0  0
  -32.8000  -21.9110   16.0540 C   0  0  0  0  0  2  0  0  0  0  0  0
  -32.0930  -23.2620   15.8290 C   0  0  0  0  0  2  0  0  0  0  0  0
  -30.5930  -23.2050   16.2120 C   0  0  0  0  0  3  0  0  0  0  0  0
  -29.9200  -21.9940   15.5310 C   0  0  0  0  0  2  0  0  0  0  0  0
  -30.6440  -20.7600   15.9100 N   0  0  0  0  0  0  0  0  0  0  0  0
  -30.9610  -19.1220   17.4880 O   0  0  0  0  0  0  0  0  0  0  0  0
  -28.8920  -19.8430   16.9430 N   0  0  0  0  0  0  0  0  0  0  0  0
  -28.4260  -20.2970   16.1690 H   0  0  0  0  0  0  0  0  0  0  0  0
  -30.0540  -25.7200   16.4340 C   0  0  0  0  0  0  0  0  0  0  0  0
  -29.2320  -26.5430   15.7110 C   0  0  0  0  0  0  0  0  0  0  0  0
  -28.6240  -25.7180   14.7160 C   0  0  0  0  0  0  0  0  0  0  0  0
  -29.9110  -24.4560   15.8770 N   0  0  0  0  0  0  0  0  0  0  0  0
  -29.0030  -24.4570   14.8670 N   0  0  0  0  0  0  0  0  0  0  0  0
  -27.7460  -26.0670   13.5890 C   0  0  0  0  0  0  0  0  0  0  0  0
  -26.3740  -25.7260   13.5900 C   0  0  0  0  0  3  0  0  0  0  0  0
  -25.5480  -26.0860   12.5040 C   0  0  0  0  0  3  0  0  0  0  0  0
  -26.0880  -26.7960   11.4060 C   0  0  0  0  0  0  0  0  0  0  0  0
  -27.4590  -27.1120   11.4000 C   0  0  0  0  0  3  0  0  0  0  0  0
  -28.2810  -26.7480   12.4780 C   0  0  0  0  0  3  0  0  0  0  0  0
  -25.3660  -27.1640   10.2970 O   0  0  0  0  0  0  0  0  0  0  0  0
  -24.0850  -27.6440   10.3990 C   0  0  0  0  0  0  0  0  0  0  0  0
  -23.8130  -28.9470   10.8670 C   0  0  0  0  0  3  0  0  0  0  0  0
  -22.4870  -29.4250   10.8890 C   0  0  0  0  0  3  0  0  0  0  0  0
  -21.4360  -28.6060   10.4350 C   0  0  0  0  0  0  0  0  0  0  0  0
  -21.7060  -27.3090    9.9630 C   0  0  0  0  0  3  0  0  0  0  0  0
  -23.0280  -26.8310    9.9410 C   0  0  0  0  0  0  0  0  0  0  0  0
  -23.2870  -25.5900    9.4640 F   0  0  0  0  0  0  0  0  0  0  0  0
  -20.1630  -29.0660   10.4460 F   0  0  0  0  0  0  0  0  0  0  0  0
  -29.0850  -28.0300   15.8700 C   0  0  0  0  0  0  0  0  0  0  0  0
  -27.8570  -28.5370   15.8070 N   0  0  0  0  0  0  0  0  0  0  0  0
  -30.0570  -28.7510   16.0950 O   0  0  0  0  0  0  0  0  0  0  0  0
  -27.0560  -27.9490   15.6260 H   0  0  0  0  0  0  0  0  0  0  0  0
  -27.7190  -29.5310   15.9290 H   0  0  0  0  0  0  0  0  0  0  0  0
  -30.9200  -25.9380   17.4990 N   0  0  0  0  0  0  0  0  0  0  0  0
  -31.0820  -26.8600   17.8920 H   0  0  0  0  0  0  0  0  0  0  0  0
  -31.5240  -25.2300   17.8950 H   0  0  0  0  0  0  0  0  0  0  0  0
  -24.9850  -25.1270   21.4990 C   0  0  0  0  0  1  0  0  0  0  0  0
  -25.6520  -23.7990   21.8910 C   0  0  0  0  0  2  0  0  0  0  0  0
  1  2  1  0
  1  5  1  0
  2  4  1  0
  3  1  2  0
  5  6  1  0
  6  7  1  0
  8  6  1  0
  9 10  1  0
  9  6  1  0
 11 10  1  0
 13 18  1  0
 13 11  1  0
 14 24  1  0
 14 22  1  0
 15 17  1  0
 17 16  1  0
 17 18  2  0
 19 13  2  0
 20 15  2  0
 20 19  1  0
 21 15  1  0
 21 14  1  0
 22 16  1  0
 22 12  1  0
 23 12  2  0
 24 26  2  0
 25 24  1  0
 27 25  1  0
 28 33  1  0
 29 25  1  0
 30 29  1  0
 31 30  1  0
 32 31  1  0
 32 28  1  0
 33 34  2  0
 33 29  1  0
 35 34  1  0
 36 35  2  0
 37 36  1  0
 37 28  2  0
 38 12  1  0
 38 39  1  0
 39 41  1  6
 39 40  1  0
 39 42  1  0
 43 38  1  0
 43 46  1  0
 44 43  1  0
 45 44  2  0
 48 47  1  0
 48 44  1  0
 48 50  1  0
 50 49  1  0
 51 50  1  0
 52 98  1  0
 52  2  1  0
 53 52  1  0
 54 53  1  0
 54 56  1  0
 55 53  2  0
 57 54  1  0
 58 57  1  0
 59 67  1  0
 59 66  2  0
 60 65  1  0
 60 61  1  0
 62 61  1  0
 62 63  1  0
 63 64  1  0
 64 65  1  0
 65 59  1  0
 67 58  1  0
 68 67  1  0
 69 94  1  0
 70 89  1  0
 70 69  2  0
 71 73  2  0
 71 70  1  0
 72 63  1  0
 72 69  1  0
 73 72  1  0
 74 75  1  0
 74 71  1  0
 76 75  2  0
 77 76  1  0
 78 77  2  0
 78 79  1  0
 79 74  2  0
 80 81  1  0
 80 77  1  0
 81 82  1  0
 82 83  2  0
 84 88  1  0
 84 83  1  0
 85 84  2  0
 86 85  1  0
 86 81  2  0
 87 86  1  0
 89 91  2  0
 90 89  1  0
 90 93  1  0
 92 90  1  0
 94 95  1  0
 94 96  1  0
 97 98  1  0
M  ISO  4  10 101  11 101  59 100  67 100
M  END
>  <TORSDO>  (21) 
F 25

>  <SCORE>  (21) 
-4.518

>  <name>  (21) 
20

>  <ligand_id>  (21) 
20

>  <original_smiles>  (21) 
[H]c1c([H])c([H])c2c(c1[H])C([H])([H])C([H])([H])C([H])([H])C2([H])N([H])C(=O)C1([H])N(C(=O)C([H])(N([H])C(=O)C([H])(N([H])C([H])([H])[H])C([H])([H])[H])C(C([H])([H])[H])(C([H])([H])[H])C([H])([H])[H])C([H])([H])c2c([H])c(OC([H])([H])C([H])([H])[N+]([H])([H])C([H])([H])C(=O)N([H])C([H])(C(=O)N([H])C([H])([H])C([H])([H])N([H])C(=O)N3C([H])([H])C([H])([H])C([H])([H])C([H])(n4nc(-c5c([H])c([H])c(Oc6c([H])c([H])c(F)c([H])c6F)c([H])c5[H])c(C(=O)N([H])[H])c4N([H])[H])C3([H])[H])C([H])([H])C([H])([H])[H])c([H])c([H])c2C1([H])[H]

>  <smiles>  (21) 
[H]c1c([H])c([H])c2c(c1[H])C([H])([H])C([H])([H])C([H])([H])C2([H])N([H])C(=O)C1([H])N(C(=O)C([H])(N([H])C(=O)C([H])(N([H])C([H])([H])[H])C([H])([H])[H])C(C([H])([H])[H])(C([H])([H])[H])C([H])([H])[H])C([H])([H])c2c([H])c(OC([H])([H])C([H])([H])[N+]([H])([H])C([H])([H])C(=O)N([H])C([H])(C(=O)N([H])C([H])([H])C([H])([H])N([H])C(=O)N3C([H])([H])C([H])([H])C([H])([H])C([H])(n4nc(-c5c([H])c([H])c(Oc6c([H])c([H])c(F)c([H])c6F)c([H])c5[H])c(C(=O)N([H])[H])c4N([H])[H])C3([H])[H])C([H])([H])C([H])([H])[H])c([H])c([H])c2C1([H])[H]

$$$$
21:0:0
     RDKit          3D

 94101  0  0  1  0  0  0  0  0999 V2000
  -29.5520  -22.3610   23.1850 C   0  0  0  0  0  3  0  0  0  0  0  0
  -30.1040  -23.5840   23.2580 C   0  0  0  0  0  3  0  0  0  0  0  0
  -29.2460  -24.7400   23.3180 C   0  0  0  0  0  0  0  0  0  0  0  0
  -29.0970  -25.3600   22.1410 N   0  0  0  0  0  0  0  0  0  0  0  0
  -28.6830  -25.1430   24.3330 O   0  0  0  0  0  0  0  0  0  0  0  0
  -28.5270  -26.1940   22.1290 H   0  0  0  0  0  0  0  0  0  0  0  0
  -29.6020  -24.9490   20.8270 C   0  0  0  0  0  2  0  0  0  0  0  0
  -28.6690  -25.4930   19.7460 C   0  0  0  0  0  2  0  0  0  0  0  0
  -28.5900  -26.8970   19.9630 O   0  0  0  0  0  0  0  0  0  0  0  0
  -24.6580  -31.8450   23.1810 C   0  0  0  0  0  0  0  0  0  0  0  0
  -27.3640  -27.5190   20.0030 C   0  0  0  0  0  0  0  0  0  0  0  0
  -23.4640  -30.4470   21.5250 C   0  0  0  0  0  3  0  0  0  0  0  0
  -24.9300  -28.9510   20.0780 C   0  0  0  0  0  0  0  0  0  0  0  0
  -25.9790  -30.8500   21.3210 C   0  0  0  0  0  2  0  0  0  0  0  0
  -26.0800  -29.4920   20.6640 C   0  0  0  0  0  0  0  0  0  0  0  0
  -27.2970  -28.7810   20.6280 C   0  0  0  0  0  3  0  0  0  0  0  0
  -26.1950  -26.9840   19.4120 C   0  0  0  0  0  3  0  0  0  0  0  0
  -24.9800  -27.6910   19.4550 C   0  0  0  0  0  3  0  0  0  0  0  0
  -23.6740  -29.7880   20.1360 C   0  0  0  0  0  2  0  0  0  0  0  0
  -24.7190  -31.0610   22.0680 N   0  0  0  0  0  0  0  0  0  0  0  0
  -23.5770  -32.0950   23.7290 O   0  0  0  0  0  0  0  0  0  0  0  0
  -22.8320  -29.4050   22.4740 C   0  0  0  0  0  0  0  0  0  0  0  0
  -21.5110  -29.2050   22.3460 N   0  0  0  0  0  0  0  0  0  0  0  0
  -23.5260  -28.7780   23.2780 O   0  0  0  0  0  0  0  0  0  0  0  0
  -21.0080  -29.7630   21.6710 H   0  0  0  0  0  0  0  0  0  0  0  0
  -18.1570  -27.9660   22.8370 C   0  0  0  0  0  0  0  0  0  0  0  0
  -20.7110  -28.2460   23.1070 C   0  0  0  0  0  3  0  0  0  0  0  0
  -20.8270  -26.8250   22.5100 C   0  0  0  0  0  2  0  0  0  0  0  0
  -19.7270  -26.5060   21.4930 C   0  0  0  0  0  2  0  0  0  0  0  0
  -18.3460  -26.6280   22.1420 C   0  0  0  0  0  2  0  0  0  0  0  0
  -19.2680  -28.7330   23.2750 C   0  0  0  0  0  0  0  0  0  0  0  0
  -19.0380  -29.9900   23.8800 C   0  0  0  0  0  3  0  0  0  0  0  0
  -17.7280  -30.4750   24.0540 C   0  0  0  0  0  3  0  0  0  0  0  0
  -16.6310  -29.7030   23.6330 C   0  0  0  0  0  3  0  0  0  0  0  0
  -16.8470  -28.4510   23.0280 C   0  0  0  0  0  3  0  0  0  0  0  0
  -25.9400  -32.4830   23.8030 C   0  0  0  0  0  3  0  0  0  0  0  0
  -25.6160  -33.8730   24.1490 N   0  0  0  0  0  0  0  0  0  0  0  0
  -25.9360  -34.9370   23.4010 C   0  0  0  0  0  0  0  0  0  0  0  0
  -26.6080  -34.8550   22.3690 O   0  0  0  0  0  0  0  0  0  0  0  0
  -25.0200  -34.0120   24.9520 H   0  0  0  0  0  0  0  0  0  0  0  0
  -24.1880  -36.7130   23.0640 C   0  0  0  0  0  1  0  0  0  0  0  0
  -25.4310  -36.3130   23.8750 C   0  0  0  0  0  3  0  0  0  0  0  0
  -27.5500  -37.2130   24.7300 C   0  0  0  0  0  1  0  0  0  0  0  0
  -26.4520  -37.3790   23.7800 N   0  0  0  0  0  0  0  0  0  0  0  0
  -26.0330  -38.2930   23.9360 H   0  0  0  0  0  0  0  0  0  0  0  0
  -26.4760  -31.7000   25.0630 C   0  0  1  0  0  0  0  0  0  0  0  0
  -25.3940  -31.4320   26.1340 C   0  0  0  0  0  1  0  0  0  0  0  0
  -27.0750  -30.3380   24.6440 C   0  0  0  0  0  1  0  0  0  0  0  0
  -27.6200  -32.5020   25.7300 C   0  0  0  0  0  1  0  0  0  0  0  0
  -30.4150  -21.2160   23.0400 C   0  0  0  0  0  0  0  0  0  0  0  0
  -29.8380  -20.2690   22.2960 N   0  0  0  0  0  0  0  0  0  0  0  0
  -31.5730  -21.1390   23.4570 O   0  0  0  0  0  0  0  0  0  0  0  0
  -28.8780  -20.4210   22.0110 H   0  0  0  0  0  0  0  0  0  0  0  0
  -30.5840  -19.2290   21.6020 C   0  0  0  0  0  2  0  0  0  0  0  0
  -29.9860  -17.8290   21.7900 C   0  0  0  0  0  2  0  0  0  0  0  0
  -30.8420  -16.8370   20.9970 C   0  0  0  0  0  2  0  0  0  0  0  0
  -30.8550  -14.5450   20.1930 C   0  0  0  0  0  0  0  0  0  0  0  0
  -30.4330  -12.4860   18.9260 C   0  0  0  0  0  2  0  0  0  0  0  0
  -29.4570  -12.7900   17.7750 C   0  0  0  0  0  2  0  0  0  0  0  0
  -27.9940  -12.6780   18.2490 C   0  0  0  0  0  2  0  0  0  0  0  0
  -27.7270  -13.4370   19.5780 C   0  0  0  0  0  3  0  0  0  0  0  0
  -28.8180  -13.1240   20.6280 C   0  0  0  0  0  2  0  0  0  0  0  0
  -30.1300  -13.4120   20.0260 N   0  0  0  0  0  0  0  0  0  0  0  0
  -31.9080  -14.7720   19.5910 O   0  0  0  0  0  0  0  0  0  0  0  0
  -30.3120  -15.4790   20.9800 N   0  0  0  0  0  0  0  0  0  0  0  0
  -29.4500  -15.2710   21.4600 H   0  0  0  0  0  0  0  0  0  0  0  0
  -25.3380  -14.0240   20.3420 C   0  0  0  0  0  0  0  0  0  0  0  0
  -24.2890  -13.2420   20.7460 C   0  0  0  0  0  0  0  0  0  0  0  0
  -24.7640  -11.8970   20.7150 C   0  0  0  0  0  0  0  0  0  0  0  0
  -26.3870  -13.1530   20.0920 N   0  0  0  0  0  0  0  0  0  0  0  0
  -26.0460  -11.8690   20.3690 N   0  0  0  0  0  0  0  0  0  0  0  0
  -24.0570  -10.6270   20.9350 C   0  0  0  0  0  0  0  0  0  0  0  0
  -24.4970   -9.6970   21.9030 C   0  0  0  0  0  3  0  0  0  0  0  0
  -23.7920   -8.4920   22.1100 C   0  0  0  0  0  3  0  0  0  0  0  0
  -22.6320   -8.2080   21.3500 C   0  0  0  0  0  0  0  0  0  0  0  0
  -22.2110   -9.1270   20.3720 C   0  0  0  0  0  3  0  0  0  0  0  0
  -22.9180  -10.3240   20.1620 C   0  0  0  0  0  3  0  0  0  0  0  0
  -21.9000   -7.0510   21.4640 O   0  0  0  0  0  0  0  0  0  0  0  0
  -21.8080   -6.3710   22.6530 C   0  0  0  0  0  0  0  0  0  0  0  0
  -21.3100   -6.9820   23.8240 C   0  0  0  0  0  3  0  0  0  0  0  0
  -21.1660   -6.2270   25.0050 C   0  0  0  0  0  3  0  0  0  0  0  0
  -21.5090   -4.8610   25.0150 C   0  0  0  0  0  0  0  0  0  0  0  0
  -22.0010   -4.2500   23.8490 C   0  0  0  0  0  3  0  0  0  0  0  0
  -22.1470   -5.0030   22.6700 C   0  0  0  0  0  0  0  0  0  0  0  0
  -22.6000   -4.4040   21.5420 F   0  0  0  0  0  0  0  0  0  0  0  0
  -21.3660   -4.1330   26.1470 F   0  0  0  0  0  0  0  0  0  0  0  0
  -22.8930  -13.7050   21.0530 C   0  0  0  0  0  0  0  0  0  0  0  0
  -22.2000  -13.0130   21.9490 N   0  0  0  0  0  0  0  0  0  0  0  0
  -22.4260  -14.7180   20.5330 O   0  0  0  0  0  0  0  0  0  0  0  0
  -22.5910  -12.1980   22.4000 H   0  0  0  0  0  0  0  0  0  0  0  0
  -21.2630  -13.3020   22.1910 H   0  0  0  0  0  0  0  0  0  0  0  0
  -25.4800  -15.3940   20.1460 N   0  0  0  0  0  0  0  0  0  0  0  0
  -24.7090  -16.0400   20.2740 H   0  0  0  0  0  0  0  0  0  0  0  0
  -26.3170  -15.8410   19.7950 H   0  0  0  0  0  0  0  0  0  0  0  0
  1  2  2  0
  2  3  1  0
  3  5  2  0
  4  3  1  0
  6  4  1  0
  7  4  1  0
  8  9  1  0
  8  7  1  0
  9 11  1  0
 10 21  2  0
 11 16  1  0
 12 20  1  0
 12 22  1  0
 13 19  1  0
 13 15  1  0
 14 20  1  0
 15 14  1  0
 16 15  2  0
 17 18  1  0
 17 11  2  0
 18 13  2  0
 19 12  1  0
 20 10  1  0
 22 24  2  0
 23 22  1  0
 25 23  1  0
 26 35  2  0
 26 31  1  0
 27 23  1  0
 27 31  1  0
 28 27  1  0
 29 30  1  0
 29 28  1  0
 30 26  1  0
 31 32  2  0
 32 33  1  0
 34 33  2  0
 35 34  1  0
 36 10  1  0
 36 37  1  0
 36 46  1  0
 37 40  1  0
 38 42  1  0
 38 37  1  0
 39 38  2  0
 42 41  1  0
 44 42  1  0
 44 45  1  0
 44 43  1  0
 46 49  1  1
 46 47  1  0
 48 46  1  0
 50  1  1  0
 50 52  2  0
 51 50  1  0
 53 51  1  0
 54 55  1  0
 54 51  1  0
 56 55  1  0
 57 65  1  0
 58 63  1  0
 59 60  1  0
 59 58  1  0
 61 60  1  0
 61 70  1  0
 61 62  1  0
 63 57  1  0
 63 62  1  0
 64 57  2  0
 65 56  1  0
 65 66  1  0
 67 68  2  0
 68 87  1  0
 69 68  1  0
 69 72  1  0
 70 67  1  0
 70 71  1  0
 71 69  2  0
 72 73  1  0
 73 74  2  0
 75 78  1  0
 75 74  1  0
 76 75  2  0
 77 76  1  0
 77 72  2  0
 78 79  1  0
 79 84  2  0
 79 80  1  0
 80 81  2  0
 81 82  1  0
 82 86  1  0
 83 82  2  0
 84 83  1  0
 85 84  1  0
 87 88  1  0
 88 91  1  0
 88 90  1  0
 89 87  2  0
 92 93  1  0
 92 67  1  0
 94 92  1  0
M  ISO  4   8 101   9 101  57 100  65 100
M  END
>  <TORSDO>  (22) 
F 23

>  <SCORE>  (22) 
-12.234

>  <name>  (22) 
21

>  <ligand_id>  (22) 
21

>  <original_smiles>  (22) 
[H]C(C(=O)N([H])C([H])([H])C([H])([H])Oc1c([H])c([H])c2c(c1[H])C([H])([H])N(C(=O)C([H])(N([H])C(=O)C([H])(N([H])C([H])([H])[H])C([H])([H])[H])C(C([H])([H])[H])(C([H])([H])[H])C([H])([H])[H])C([H])(C(=O)N([H])C1([H])c3c([H])c([H])c([H])c([H])c3C([H])([H])C([H])([H])C1([H])[H])C2([H])[H])=C([H])C(=O)N([H])C([H])([H])C([H])([H])C([H])([H])N([H])C(=O)N1C([H])([H])C([H])([H])C([H])([H])C([H])(n2nc(-c3c([H])c([H])c(Oc4c([H])c([H])c(F)c([H])c4F)c([H])c3[H])c(C(=O)N([H])[H])c2N([H])[H])C1([H])[H]

>  <smiles>  (22) 
[H]C(C(=O)N([H])C([H])([H])C([H])([H])Oc1c([H])c([H])c2c(c1[H])C([H])([H])N(C(=O)C([H])(N([H])C(=O)C([H])(N([H])C([H])([H])[H])C([H])([H])[H])C(C([H])([H])[H])(C([H])([H])[H])C([H])([H])[H])C([H])(C(=O)N([H])C1([H])c3c([H])c([H])c([H])c([H])c3C([H])([H])C([H])([H])C1([H])[H])C2([H])[H])=C([H])C(=O)N([H])C([H])([H])C([H])([H])C([H])([H])N([H])C(=O)N1C([H])([H])C([H])([H])C([H])([H])C([H])(n2nc(-c3c([H])c([H])c(Oc4c([H])c([H])c(F)c([H])c4F)c([H])c3[H])c(C(=O)N([H])[H])c2N([H])[H])C1([H])[H]

$$$$
22:0:0
     RDKit          3D

 97105  0  0  1  0  0  0  0  0999 V2000
  -29.0780  -22.6560   22.2690 N   0  0  0  0  0  4  0  0  0  0  0  0
  -28.3560  -21.9650   22.3740 H   0  0  0  0  0  0  0  0  0  0  0  0
  -29.0110  -23.0320   21.3360 H   0  0  0  0  0  0  0  0  0  0  0  0
  -30.3960  -22.0260   22.4640 C   0  0  0  0  0  2  0  0  0  0  0  0
  -30.8590  -20.8820   20.2610 C   0  0  0  0  0  3  0  0  0  0  0  0
  -30.5240  -20.8160   21.5610 C   0  0  0  0  0  3  0  0  0  0  0  0
  -31.4980  -18.9770   17.0660 C   0  0  0  0  0  3  0  0  0  0  0  0
  -31.3890  -20.0170   18.0050 C   0  0  0  0  0  3  0  0  0  0  0  0
  -31.1870  -17.6570   17.4340 C   0  0  0  0  0  3  0  0  0  0  0  0
  -30.6690  -18.4160   19.6930 C   0  0  0  0  0  3  0  0  0  0  0  0
  -30.9840  -19.7480   19.3290 C   0  0  0  0  0  0  0  0  0  0  0  0
  -30.7470  -17.3680   18.7480 C   0  0  0  0  0  0  0  0  0  0  0  0
  -31.0360  -14.8970   18.8530 C   0  0  0  0  0  0  0  0  0  0  0  0
  -31.2340  -12.4950   19.3750 C   0  0  0  0  0  2  0  0  0  0  0  0
  -30.3850  -11.6190   18.4370 C   0  0  0  0  0  2  0  0  0  0  0  0
  -28.9490  -11.4860   18.9740 C   0  0  0  0  0  2  0  0  0  0  0  0
  -28.3220  -12.8590   19.3360 C   0  0  0  0  0  3  0  0  0  0  0  0
  -29.2850  -13.6880   20.2150 C   0  0  0  0  0  2  0  0  0  0  0  0
  -30.5800  -13.8040   19.5170 N   0  0  0  0  0  0  0  0  0  0  0  0
  -31.9820  -14.8490   18.0590 O   0  0  0  0  0  0  0  0  0  0  0  0
  -30.4210  -16.0490   19.1730 N   0  0  0  0  0  0  0  0  0  0  0  0
  -29.6030  -15.9500   19.7520 H   0  0  0  0  0  0  0  0  0  0  0  0
  -26.1080  -13.6600   20.3820 C   0  0  0  0  0  0  0  0  0  0  0  0
  -25.0190  -12.9760   20.8520 C   0  0  0  0  0  0  0  0  0  0  0  0
  -25.3250  -11.5900   20.6950 C   0  0  0  0  0  0  0  0  0  0  0  0
  -27.0170  -12.6950   19.9740 N   0  0  0  0  0  0  0  0  0  0  0  0
  -26.5530  -11.4420   20.2150 N   0  0  0  0  0  0  0  0  0  0  0  0
  -24.5000  -10.3970   20.9200 C   0  0  0  0  0  0  0  0  0  0  0  0
  -24.7080   -9.5530   22.0330 C   0  0  0  0  0  3  0  0  0  0  0  0
  -23.8900   -8.4200   22.2370 C   0  0  0  0  0  3  0  0  0  0  0  0
  -22.8480   -8.1260   21.3250 C   0  0  0  0  0  0  0  0  0  0  0  0
  -22.6610   -8.9550   20.2060 C   0  0  0  0  0  3  0  0  0  0  0  0
  -23.4790  -10.0780   20.0010 C   0  0  0  0  0  3  0  0  0  0  0  0
  -22.0210   -7.0330   21.4280 O   0  0  0  0  0  0  0  0  0  0  0  0
  -21.4240   -6.6910   22.6150 C   0  0  0  0  0  0  0  0  0  0  0  0
  -20.5350   -7.5630   23.2820 C   0  0  0  0  0  3  0  0  0  0  0  0
  -19.8910   -7.1440   24.4630 C   0  0  0  0  0  3  0  0  0  0  0  0
  -20.1270   -5.8540   24.9740 C   0  0  0  0  0  0  0  0  0  0  0  0
  -21.0080   -4.9820   24.3090 C   0  0  0  0  0  3  0  0  0  0  0  0
  -21.6520   -5.4000   23.1310 C   0  0  0  0  0  0  0  0  0  0  0  0
  -22.4830   -4.5480   22.4840 F   0  0  0  0  0  0  0  0  0  0  0  0
  -19.5020   -5.4480   26.1050 F   0  0  0  0  0  0  0  0  0  0  0  0
  -23.7270  -13.5710   21.3340 C   0  0  0  0  0  0  0  0  0  0  0  0
  -23.0720  -12.9240   22.2900 N   0  0  0  0  0  0  0  0  0  0  0  0
  -23.3160  -14.6460   20.8980 O   0  0  0  0  0  0  0  0  0  0  0  0
  -23.4200  -12.0530   22.6660 H   0  0  0  0  0  0  0  0  0  0  0  0
  -22.2090  -13.3030   22.6540 H   0  0  0  0  0  0  0  0  0  0  0  0
  -26.3940  -15.0160   20.2500 N   0  0  0  0  0  0  0  0  0  0  0  0
  -25.7230  -15.7380   20.4880 H   0  0  0  0  0  0  0  0  0  0  0  0
  -27.2460  -15.3840   19.8440 H   0  0  0  0  0  0  0  0  0  0  0  0
  -28.7850  -23.7740   23.1810 C   0  0  0  0  0  2  0  0  0  0  0  0
  -28.0720  -24.8890   22.4040 C   0  0  0  0  0  2  0  0  0  0  0  0
  -28.7660  -25.1590   21.1450 N   0  0  0  0  0  0  0  0  0  0  0  0
  -29.5430  -25.7920   21.3240 H   0  0  0  0  0  0  0  0  0  0  0  0
  -27.8330  -25.8200   20.2360 C   0  0  0  0  0  2  0  0  0  0  0  0
  -28.4930  -26.2540   18.9040 C   0  0  0  0  0  2  0  0  0  0  0  0
  -27.5350  -26.7750   17.9760 O   0  0  0  0  0  0  0  0  0  0  0  0
  -25.7950  -30.6660   23.6570 C   0  0  0  0  0  0  0  0  0  0  0  0
  -26.6680  -27.6780   18.5320 C   0  0  0  0  0  0  0  0  0  0  0  0
  -24.0350  -30.4030   21.9370 C   0  0  0  0  0  3  0  0  0  0  0  0
  -24.8020  -29.4280   19.7080 C   0  0  0  0  0  0  0  0  0  0  0  0
  -26.5070  -30.3350   21.2940 C   0  0  0  0  0  2  0  0  0  0  0  0
  -26.1250  -29.4040   20.1660 C   0  0  0  0  0  0  0  0  0  0  0  0
  -27.0640  -28.5260   19.5870 C   0  0  0  0  0  3  0  0  0  0  0  0
  -25.3410  -27.7230   18.0610 C   0  0  0  0  0  3  0  0  0  0  0  0
  -24.4010  -28.5840   18.6560 C   0  0  0  0  0  3  0  0  0  0  0  0
  -23.8580  -30.3870   20.3950 C   0  0  0  0  0  2  0  0  0  0  0  0
  -25.4760  -30.4510   22.3500 N   0  0  0  0  0  0  0  0  0  0  0  0
  -24.9160  -30.8650   24.5060 O   0  0  0  0  0  0  0  0  0  0  0  0
  -23.2670  -29.2050   22.5350 C   0  0  0  0  0  0  0  0  0  0  0  0
  -21.9290  -29.2320   22.4140 N   0  0  0  0  0  0  0  0  0  0  0  0
  -23.8690  -28.2670   23.0650 O   0  0  0  0  0  0  0  0  0  0  0  0
  -21.5120  -30.0360   21.9660 H   0  0  0  0  0  0  0  0  0  0  0  0
  -18.4610  -28.2250   22.3960 C   0  0  0  0  0  0  0  0  0  0  0  0
  -21.0010  -28.1980   22.8730 C   0  0  0  0  0  3  0  0  0  0  0  0
  -21.0600  -26.9550   21.9580 C   0  0  0  0  0  2  0  0  0  0  0  0
  -20.0230  -26.9880   20.8310 C   0  0  0  0  0  2  0  0  0  0  0  0
  -18.6050  -27.0810   21.4040 C   0  0  0  0  0  2  0  0  0  0  0  0
  -19.5890  -28.7600   23.0730 C   0  0  0  0  0  0  0  0  0  0  0  0
  -19.4060  -29.8470   23.9560 C   0  0  0  0  0  3  0  0  0  0  0  0
  -18.1260  -30.3920   24.1700 C   0  0  0  0  0  3  0  0  0  0  0  0
  -17.0100  -29.8450   23.5120 C   0  0  0  0  0  3  0  0  0  0  0  0
  -17.1790  -28.7630   22.6300 C   0  0  0  0  0  3  0  0  0  0  0  0
  -27.2790  -30.6940   24.1410 C   0  0  0  0  0  3  0  0  0  0  0  0
  -27.4330  -31.8540   25.0300 N   0  0  0  0  0  0  0  0  0  0  0  0
  -28.0390  -32.9990   24.6870 C   0  0  0  0  0  0  0  0  0  0  0  0
  -28.5960  -33.1610   23.5980 O   0  0  0  0  0  0  0  0  0  0  0  0
  -26.9540  -31.8120   25.9170 H   0  0  0  0  0  0  0  0  0  0  0  0
  -26.9490  -35.1740   25.3210 C   0  0  0  0  0  1  0  0  0  0  0  0
  -28.0210  -34.1460   25.7150 C   0  0  0  0  0  3  0  0  0  0  0  0
  -30.3470  -33.9760   26.4820 C   0  0  0  0  0  1  0  0  0  0  0  0
  -29.3280  -34.8220   25.8650 N   0  0  0  0  0  0  0  0  0  0  0  0
  -29.2360  -35.6660   26.4240 H   0  0  0  0  0  0  0  0  0  0  0  0
  -27.7210  -29.3670   24.8710 C   0  0  1  0  0  0  0  0  0  0  0  0
  -26.7330  -28.9010   25.9650 C   0  0  0  0  0  1  0  0  0  0  0  0
  -27.8780  -28.2120   23.8540 C   0  0  0  0  0  1  0  0  0  0  0  0
  -29.1070  -29.5670   25.5290 C   0  0  0  0  0  1  0  0  0  0  0  0
  1  2  1  0
  1  4  1  0
  1 51  1  0
  3  1  1  0
  5  6  2  0
  6  4  1  0
  7  9  2  0
  7  8  1  0
  8 11  2  0
  9 12  1  0
 11 10  1  0
 11  5  1  0
 12 21  1  0
 12 10  2  0
 13 21  1  0
 13 19  1  0
 14 19  1  0
 15 16  1  0
 15 14  1  0
 17 16  1  0
 17 26  1  0
 17 18  1  0
 19 18  1  0
 20 13  2  0
 21 22  1  0
 23 24  2  0
 24 43  1  0
 25 24  1  0
 25 28  1  0
 26 27  1  0
 26 23  1  0
 27 25  2  0
 28 29  1  0
 29 30  2  0
 31 34  1  0
 31 30  1  0
 32 31  2  0
 33 32  1  0
 33 28  2  0
 34 35  1  0
 35 40  2  0
 35 36  1  0
 36 37  2  0
 37 38  1  0
 38 42  1  0
 39 38  2  0
 40 39  1  0
 41 40  1  0
 43 44  1  0
 44 47  1  0
 44 46  1  0
 45 43  2  0
 48 23  1  0
 48 49  1  0
 50 48  1  0
 52 51  1  0
 53 54  1  0
 53 52  1  0
 55 53  1  0
 56 55  1  0
 57 59  1  0
 57 56  1  0
 58 69  2  0
 59 64  1  0
 60 68  1  0
 60 70  1  0
 61 63  1  0
 61 67  1  0
 62 68  1  0
 63 62  1  0
 64 63  2  0
 65 59  2  0
 65 66  1  0
 66 61  2  0
 67 60  1  0
 68 58  1  0
 70 72  2  0
 71 70  1  0
 73 71  1  0
 74 83  2  0
 74 79  1  0
 75 71  1  0
 75 79  1  0
 76 75  1  0
 77 78  1  0
 77 76  1  0
 78 74  1  0
 79 80  2  0
 80 81  1  0
 82 81  2  0
 83 82  1  0
 84 58  1  0
 84 94  1  0
 84 85  1  0
 85 88  1  0
 86 85  1  0
 86 90  1  0
 87 86  2  0
 90 89  1  0
 90 92  1  0
 92 93  1  0
 92 91  1  0
 94 97  1  1
 94 95  1  0
 96 94  1  0
M  ISO  4  13 100  21 100  56 101  57 101
M  END
>  <TORSDO>  (23) 
F 24

>  <SCORE>  (23) 
-8.536

>  <name>  (23) 
22

>  <ligand_id>  (23) 
22

>  <original_smiles>  (23) 
[H]C(=C([H])C([H])([H])[N+]([H])([H])C([H])([H])C([H])([H])N([H])C([H])([H])C([H])([H])Oc1c([H])c([H])c2c(c1[H])C([H])([H])N(C(=O)C([H])(N([H])C(=O)C([H])(N([H])C([H])([H])[H])C([H])([H])[H])C(C([H])([H])[H])(C([H])([H])[H])C([H])([H])[H])C([H])(C(=O)N([H])C1([H])c3c([H])c([H])c([H])c([H])c3C([H])([H])C([H])([H])C1([H])[H])C2([H])[H])c1c([H])c([H])c([H])c(N([H])C(=O)N2C([H])([H])C([H])([H])C([H])([H])C([H])(n3nc(-c4c([H])c([H])c(Oc5c([H])c([H])c(F)c([H])c5F)c([H])c4[H])c(C(=O)N([H])[H])c3N([H])[H])C2([H])[H])c1[H]

>  <smiles>  (23) 
[H]C(=C([H])C([H])([H])[N+]([H])([H])C([H])([H])C([H])([H])N([H])C([H])([H])C([H])([H])Oc1c([H])c([H])c2c(c1[H])C([H])([H])N(C(=O)C([H])(N([H])C(=O)C([H])(N([H])C([H])([H])[H])C([H])([H])[H])C(C([H])([H])[H])(C([H])([H])[H])C([H])([H])[H])C([H])(C(=O)N([H])C1([H])c3c([H])c([H])c([H])c([H])c3C([H])([H])C([H])([H])C1([H])[H])C2([H])[H])c1c([H])c([H])c([H])c(N([H])C(=O)N2C([H])([H])C([H])([H])C([H])([H])C([H])(n3nc(-c4c([H])c([H])c(Oc5c([H])c([H])c(F)c([H])c5F)c([H])c4[H])c(C(=O)N([H])[H])c3N([H])[H])C2([H])[H])c1[H]

$$$$
23:0:0
     RDKit          3D

113120  0  0  1  0  0  0  0  0999 V2000
  -32.4730  -17.8550   13.5060 C   0  0  0  0  0  1  0  0  0  0  0  0
  -32.3210  -18.5770   14.8520 C   0  0  0  0  0  3  0  0  0  0  0  0
  -30.6300  -18.7690   16.6500 C   0  0  0  0  0  0  0  0  0  0  0  0
  -30.9780  -18.3790   15.4110 N   0  0  0  0  0  0  0  0  0  0  0  0
  -31.4610  -18.9910   17.5350 O   0  0  0  0  0  0  0  0  0  0  0  0
  -30.2380  -18.1460   14.7600 H   0  0  0  0  0  0  0  0  0  0  0  0
  -29.1650  -19.0910   16.9370 C   0  0  0  0  0  2  0  0  0  0  0  0
  -29.1630  -20.2960   17.7960 N   0  0  0  0  0  4  0  0  0  0  0  0
  -30.1420  -20.5490   17.8220 H   0  0  0  0  0  0  0  0  0  0  0  0
  -28.9030  -20.0430   18.7330 H   0  0  0  0  0  0  0  0  0  0  0  0
  -28.3690  -21.4600   17.3420 C   0  0  0  0  0  2  0  0  0  0  0  0
  -28.7910  -22.7570   18.0800 C   0  0  0  0  0  2  0  0  0  0  0  0
  -27.9660  -23.8940   17.6680 N   0  0  0  0  0  0  0  0  0  0  0  0
  -27.0190  -23.7730   18.0260 H   0  0  0  0  0  0  0  0  0  0  0  0
  -28.4900  -25.1920   18.1110 C   0  0  0  0  0  2  0  0  0  0  0  0
  -28.4310  -25.3710   19.6500 C   0  0  0  0  0  2  0  0  0  0  0  0
  -28.4340  -26.7450   20.0540 O   0  0  0  0  0  0  0  0  0  0  0  0
  -24.6150  -31.8660   23.2130 C   0  0  0  0  0  0  0  0  0  0  0  0
  -27.2390  -27.4420   20.0790 C   0  0  0  0  0  0  0  0  0  0  0  0
  -23.4010  -30.4880   21.5530 C   0  0  0  0  0  3  0  0  0  0  0  0
  -24.8470  -28.9560   20.1220 C   0  0  0  0  0  0  0  0  0  0  0  0
  -25.9300  -30.8370   21.3670 C   0  0  0  0  0  2  0  0  0  0  0  0
  -26.0090  -29.4690   20.7150 C   0  0  0  0  0  0  0  0  0  0  0  0
  -27.2060  -28.7170   20.6930 C   0  0  0  0  0  3  0  0  0  0  0  0
  -26.0460  -26.9380   19.5050 C   0  0  0  0  0  3  0  0  0  0  0  0
  -24.8600  -27.6900   19.5200 C   0  0  0  0  0  3  0  0  0  0  0  0
  -23.6090  -29.8200   20.1690 C   0  0  0  0  0  2  0  0  0  0  0  0
  -24.6660  -31.0790   22.1010 N   0  0  0  0  0  0  0  0  0  0  0  0
  -23.5340  -32.1390   23.7520 O   0  0  0  0  0  0  0  0  0  0  0  0
  -22.7410  -29.4620   22.5020 C   0  0  0  0  0  0  0  0  0  0  0  0
  -21.4140  -29.2990   22.3780 N   0  0  0  0  0  0  0  0  0  0  0  0
  -23.4200  -28.8160   23.3040 O   0  0  0  0  0  0  0  0  0  0  0  0
  -20.9320  -29.8720   21.7020 H   0  0  0  0  0  0  0  0  0  0  0  0
  -18.0260  -28.1360   22.8510 C   0  0  0  0  0  0  0  0  0  0  0  0
  -20.5860  -28.3640   23.1370 C   0  0  0  0  0  3  0  0  0  0  0  0
  -20.6770  -26.9380   22.5450 C   0  0  0  0  0  2  0  0  0  0  0  0
  -19.5720  -26.6380   21.5250 C   0  0  0  0  0  2  0  0  0  0  0  0
  -18.1900  -26.7910   22.1650 C   0  0  0  0  0  2  0  0  0  0  0  0
  -19.1510  -28.8810   23.2930 C   0  0  0  0  0  0  0  0  0  0  0  0
  -18.9430  -30.1430   23.8920 C   0  0  0  0  0  3  0  0  0  0  0  0
  -17.6430  -30.6570   24.0570 C   0  0  0  0  0  3  0  0  0  0  0  0
  -16.5320  -29.9060   23.6320 C   0  0  0  0  0  3  0  0  0  0  0  0
  -16.7260  -28.6480   23.0340 C   0  0  0  0  0  3  0  0  0  0  0  0
  -25.9040  -32.4800   23.8400 C   0  0  0  0  0  3  0  0  0  0  0  0
  -25.5910  -33.8610   24.2300 N   0  0  0  0  0  0  0  0  0  0  0  0
  -25.9050  -34.9450   23.5100 C   0  0  0  0  0  0  0  0  0  0  0  0
  -26.5610  -34.8900   22.4660 O   0  0  0  0  0  0  0  0  0  0  0  0
  -25.0050  -33.9790   25.0440 H   0  0  0  0  0  0  0  0  0  0  0  0
  -24.1510  -36.7310   23.2620 C   0  0  0  0  0  1  0  0  0  0  0  0
  -25.4120  -36.3080   24.0310 C   0  0  0  0  0  3  0  0  0  0  0  0
  -27.5590  -37.1780   24.8450 C   0  0  0  0  0  1  0  0  0  0  0  0
  -26.4290  -37.3770   23.9400 N   0  0  0  0  0  0  0  0  0  0  0  0
  -26.0160  -38.2820   24.1440 H   0  0  0  0  0  0  0  0  0  0  0  0
  -26.4480  -31.6570   25.0710 C   0  0  1  0  0  0  0  0  0  0  0  0
  -25.3780  -31.3690   26.1480 C   0  0  0  0  0  1  0  0  0  0  0  0
  -27.0320  -30.3010   24.6100 C   0  0  0  0  0  1  0  0  0  0  0  0
  -27.6040  -32.4290   25.7480 C   0  0  0  0  0  1  0  0  0  0  0  0
  -33.2920  -20.7740   15.5970 C   0  0  0  0  0  3  0  0  0  0  0  0
  -32.5080  -20.0860   14.7520 C   0  0  0  0  0  2  0  0  0  0  0  0
  -33.6950  -22.7510   16.9150 C   0  0  0  0  0  2  0  0  0  0  0  0
  -33.1410  -22.1940   15.8290 C   0  0  0  0  0  3  0  0  0  0  0  0
  -33.2400  -24.0050   17.4700 C   0  0  0  0  0  3  0  0  0  0  0  0
  -33.3940  -24.1940   18.7880 C   0  0  0  0  0  3  0  0  0  0  0  0
  -32.7250  -25.1980   19.5820 C   0  0  0  0  0  3  0  0  0  0  0  0
  -32.5790  -24.9530   20.8940 C   0  0  0  0  0  3  0  0  0  0  0  0
  -31.7750  -25.7650   21.8230 C   0  0  0  0  0  0  0  0  0  0  0  0
  -31.6170  -26.9790   21.6730 O   0  0  0  0  0  0  0  0  0  0  0  0
  -31.1280  -23.6740   22.9410 C   0  0  0  0  0  3  0  0  0  0  0  0
  -31.1320  -25.0350   22.9400 C   0  0  0  0  0  3  0  0  0  0  0  0
  -30.8920  -22.3890   23.5930 C   0  0  0  0  0  3  0  0  0  0  0  0
  -31.0080  -21.2310   22.9150 C   0  0  0  0  0  3  0  0  0  0  0  0
  -30.8460  -19.9300   23.5370 C   0  0  0  0  0  3  0  0  0  0  0  0
  -30.9480  -18.7780   22.8280 C   0  0  0  0  0  3  0  0  0  0  0  0
  -30.8250  -17.2490   22.7340 C   0  0  0  0  0  2  0  0  0  0  0  0
  -30.3730  -16.7990   21.3310 C   0  0  0  0  0  2  0  0  0  0  0  0
  -30.7220  -14.4180   20.6130 C   0  0  0  0  0  0  0  0  0  0  0  0
  -30.4240  -12.2960   19.4000 C   0  0  0  0  0  2  0  0  0  0  0  0
  -29.4850  -12.5160   18.1960 C   0  0  0  0  0  2  0  0  0  0  0  0
  -28.0120  -12.3580   18.6200 C   0  0  0  0  0  2  0  0  0  0  0  0
  -27.6680  -13.1940   19.8810 C   0  0  0  0  0  3  0  0  0  0  0  0
  -28.7070  -12.9490   20.9990 C   0  0  0  0  0  2  0  0  0  0  0  0
  -30.0440  -13.2510   20.4520 N   0  0  0  0  0  0  0  0  0  0  0  0
  -31.8200  -14.6420   20.0960 O   0  0  0  0  0  0  0  0  0  0  0  0
  -30.0470  -15.3710   21.2750 N   0  0  0  0  0  0  0  0  0  0  0  0
  -29.1500  -15.0960   21.6480 H   0  0  0  0  0  0  0  0  0  0  0  0
  -25.2640  -13.8120   20.5680 C   0  0  0  0  0  0  0  0  0  0  0  0
  -24.1860  -13.0410   20.9150 C   0  0  0  0  0  0  0  0  0  0  0  0
  -24.6390  -11.6890   20.8720 C   0  0  0  0  0  0  0  0  0  0  0  0
  -26.3060  -12.9260   20.3390 N   0  0  0  0  0  0  0  0  0  0  0  0
  -25.9320  -11.6440   20.5740 N   0  0  0  0  0  0  0  0  0  0  0  0
  -23.9030  -10.4290   21.0410 C   0  0  0  0  0  0  0  0  0  0  0  0
  -24.3610   -9.4210   21.9150 C   0  0  0  0  0  3  0  0  0  0  0  0
  -23.6290   -8.2250   22.0740 C   0  0  0  0  0  3  0  0  0  0  0  0
  -22.4270   -8.0280   21.3550 C   0  0  0  0  0  0  0  0  0  0  0  0
  -21.9880   -9.0270   20.4650 C   0  0  0  0  0  3  0  0  0  0  0  0
  -22.7210  -10.2130   20.3050 C   0  0  0  0  0  3  0  0  0  0  0  0
  -21.6650   -6.8880   21.4220 O   0  0  0  0  0  0  0  0  0  0  0  0
  -21.6870   -6.0720   22.5270 C   0  0  0  0  0  0  0  0  0  0  0  0
  -21.4020   -6.5620   23.8190 C   0  0  0  0  0  3  0  0  0  0  0  0
  -21.3650   -5.6780   24.9170 C   0  0  0  0  0  3  0  0  0  0  0  0
  -21.6050   -4.3060   24.7220 C   0  0  0  0  0  0  0  0  0  0  0  0
  -21.8810   -3.8140   23.4340 C   0  0  0  0  0  3  0  0  0  0  0  0
  -21.9210   -4.6960   22.3400 C   0  0  0  0  0  0  0  0  0  0  0  0
  -22.1680   -4.2140   21.0980 F   0  0  0  0  0  0  0  0  0  0  0  0
  -21.5640   -3.4530   25.7740 F   0  0  0  0  0  0  0  0  0  0  0  0
  -22.7890  -13.5240   21.1850 C   0  0  0  0  0  0  0  0  0  0  0  0
  -22.0550  -12.8220   22.0410 N   0  0  0  0  0  0  0  0  0  0  0  0
  -22.3560  -14.5570   20.6770 O   0  0  0  0  0  0  0  0  0  0  0  0
  -22.4150  -11.9830   22.4720 H   0  0  0  0  0  0  0  0  0  0  0  0
  -21.1140  -13.1230   22.2610 H   0  0  0  0  0  0  0  0  0  0  0  0
  -25.4380  -15.1830   20.4130 N   0  0  0  0  0  0  0  0  0  0  0  0
  -24.6780  -15.8430   20.5470 H   0  0  0  0  0  0  0  0  0  0  0  0
  -26.3090  -15.6290   20.1480 H   0  0  0  0  0  0  0  0  0  0  0  0
  2  1  1  0
  2  4  1  0
  3  7  1  0
  3  5  2  0
  4  3  1  0
  6  4  1  0
  7  8  1  0
  8  9  1  0
  8 10  1  0
 11  8  1  0
 11 12  1  0
 13 14  1  0
 13 12  1  0
 13 15  1  0
 15 16  1  0
 16 17  1  0
 17 19  1  0
 18 29  2  0
 19 24  1  0
 20 28  1  0
 20 30  1  0
 21 27  1  0
 21 23  1  0
 22 28  1  0
 23 22  1  0
 24 23  2  0
 25 26  1  0
 25 19  2  0
 26 21  2  0
 27 20  1  0
 28 18  1  0
 30 32  2  0
 31 30  1  0
 33 31  1  0
 34 43  2  0
 34 39  1  0
 35 31  1  0
 35 39  1  0
 36 35  1  0
 37 38  1  0
 37 36  1  0
 38 34  1  0
 39 40  2  0
 40 41  1  0
 42 41  2  0
 43 42  1  0
 44 18  1  0
 44 45  1  0
 44 54  1  0
 45 48  1  0
 46 50  1  0
 46 45  1  0
 47 46  2  0
 50 49  1  0
 52 50  1  0
 52 53  1  0
 52 51  1  0
 54 57  1  1
 54 55  1  0
 56 54  1  0
 58 61  2  0
 59  2  1  0
 59 58  1  0
 60 62  1  0
 61 60  1  0
 62 63  2  0
 63 64  1  0
 64 65  2  0
 65 66  1  0
 66 69  1  0
 67 66  2  0
 68 70  1  0
 69 68  2  0
 71 72  1  0
 71 70  2  0
 73 72  2  0
 74 73  1  0
 75 74  1  0
 76 84  1  0
 77 82  1  0
 78 79  1  0
 78 77  1  0
 80 79  1  0
 80 89  1  0
 80 81  1  0
 82 76  1  0
 82 81  1  0
 83 76  2  0
 84 75  1  0
 84 85  1  0
 86 87  2  0
 87106  1  0
 88 87  1  0
 88 91  1  0
 89 86  1  0
 89 90  1  0
 90 88  2  0
 91 92  1  0
 92 93  2  0
 94 97  1  0
 94 93  1  0
 95 94  2  0
 96 95  1  0
 96 91  2  0
 97 98  1  0
 98 99  1  0
 99100  2  0
101100  1  0
101105  1  0
102101  2  0
103 98  2  0
103102  1  0
104103  1  0
106107  1  0
107110  1  0
107109  1  0
108106  2  0
111112  1  0
111 86  1  0
113111  1  0
M  ISO  4  16 101  17 101  76 100  84 100
M  END
>  <TORSDO>  (24) 
F 34

>  <SCORE>  (24) 
-6.497

>  <name>  (24) 
23

>  <ligand_id>  (24) 
23

>  <original_smiles>  (24) 
[H]C(C(=O)C([H])=C([H])C([H])=C([H])C([H])=C([H])C([H])([H])C([H])([H])N([H])C(=O)N1C([H])([H])C([H])([H])C([H])([H])C([H])(n2nc(-c3c([H])c([H])c(Oc4c([H])c([H])c(F)c([H])c4F)c([H])c3[H])c(C(=O)N([H])[H])c2N([H])[H])C1([H])[H])=C([H])C([H])=C([H])C([H])=C([H])C([H])=C([H])C([H])(N([H])C(=O)C([H])([H])[N+]([H])([H])C([H])([H])C([H])([H])N([H])C([H])([H])C([H])([H])Oc1c([H])c([H])c2c(c1[H])C([H])([H])N(C(=O)C([H])(N([H])C(=O)C([H])(N([H])C([H])([H])[H])C([H])([H])[H])C(C([H])([H])[H])(C([H])([H])[H])C([H])([H])[H])C([H])(C(=O)N([H])C1([H])c3c([H])c([H])c([H])c([H])c3C([H])([H])C([H])([H])C1([H])[H])C2([H])[H])C([H])([H])[H]

>  <smiles>  (24) 
[H]C(C(=O)C([H])=C([H])C([H])=C([H])C([H])=C([H])C([H])([H])C([H])([H])N([H])C(=O)N1C([H])([H])C([H])([H])C([H])([H])C([H])(n2nc(-c3c([H])c([H])c(Oc4c([H])c([H])c(F)c([H])c4F)c([H])c3[H])c(C(=O)N([H])[H])c2N([H])[H])C1([H])[H])=C([H])C([H])=C([H])C([H])=C([H])C([H])=C([H])C([H])(N([H])C(=O)C([H])([H])[N+]([H])([H])C([H])([H])C([H])([H])N([H])C([H])([H])C([H])([H])Oc1c([H])c([H])c2c(c1[H])C([H])([H])N(C(=O)C([H])(N([H])C(=O)C([H])(N([H])C([H])([H])[H])C([H])([H])[H])C(C([H])([H])[H])(C([H])([H])[H])C([H])([H])[H])C([H])(C(=O)N([H])C1([H])c3c([H])c([H])c([H])c([H])c3C([H])([H])C([H])([H])C1([H])[H])C2([H])[H])C([H])([H])[H]

$$$$
24:0:0
     RDKit          3D

 90 97  0  0  1  0  0  0  0  0999 V2000
  -29.2260  -23.8050   21.0500 N   0  0  0  0  0  4  0  0  0  0  0  0
  -29.1920  -23.6260   22.0420 H   0  0  0  0  0  0  0  0  0  0  0  0
  -28.2740  -23.8920   20.7290 H   0  0  0  0  0  0  0  0  0  0  0  0
  -29.8270  -22.6300   20.3620 C   0  0  0  0  0  2  0  0  0  0  0  0
  -29.8630  -21.3540   21.2370 C   0  0  0  0  0  2  0  0  0  0  0  0
  -30.3180  -20.0940   20.4680 C   0  0  0  0  0  2  0  0  0  0  0  0
  -30.3700  -18.9840   21.3610 O   0  0  0  0  0  0  0  0  0  0  0  0
  -30.4300  -17.7160   20.7100 C   0  0  0  0  0  2  0  0  0  0  0  0
  -30.6410  -16.6170   21.7740 C   0  0  0  0  0  2  0  0  0  0  0  0
  -30.6920  -14.4260   20.5600 C   0  0  0  0  0  0  0  0  0  0  0  0
  -30.3430  -12.3300   19.3050 C   0  0  0  0  0  2  0  0  0  0  0  0
  -29.3840  -12.5570   18.1200 C   0  0  0  0  0  2  0  0  0  0  0  0
  -27.9140  -12.4230   18.5650 C   0  0  0  0  0  2  0  0  0  0  0  0
  -27.5980  -13.2470   19.8410 C   0  0  0  0  0  3  0  0  0  0  0  0
  -28.6560  -12.9790   20.9330 C   0  0  0  0  0  2  0  0  0  0  0  0
  -29.9870  -13.2800   20.3680 N   0  0  0  0  0  0  0  0  0  0  0  0
  -31.7610  -14.6740   20.0000 O   0  0  0  0  0  0  0  0  0  0  0  0
  -30.1120  -15.3130   21.3780 N   0  0  0  0  0  0  0  0  0  0  0  0
  -29.2230  -15.0440   21.7720 H   0  0  0  0  0  0  0  0  0  0  0  0
  -25.2050  -13.8740   20.5600 C   0  0  0  0  0  0  0  0  0  0  0  0
  -24.1320  -13.1100   20.9350 C   0  0  0  0  0  0  0  0  0  0  0  0
  -24.5850  -11.7550   20.9040 C   0  0  0  0  0  0  0  0  0  0  0  0
  -26.2430  -12.9850   20.3260 N   0  0  0  0  0  0  0  0  0  0  0  0
  -25.8720  -11.7060   20.5880 N   0  0  0  0  0  0  0  0  0  0  0  0
  -23.8510  -10.4980   21.1000 C   0  0  0  0  0  0  0  0  0  0  0  0
  -24.3030   -9.5150   22.0090 C   0  0  0  0  0  3  0  0  0  0  0  0
  -23.5720   -8.3210   22.1920 C   0  0  0  0  0  3  0  0  0  0  0  0
  -22.3760   -8.1030   21.4690 C   0  0  0  0  0  0  0  0  0  0  0  0
  -21.9430   -9.0750   20.5490 C   0  0  0  0  0  3  0  0  0  0  0  0
  -22.6730  -10.2610   20.3640 C   0  0  0  0  0  3  0  0  0  0  0  0
  -21.6130   -6.9630   21.5640 O   0  0  0  0  0  0  0  0  0  0  0  0
  -21.6140   -6.1900   22.6970 C   0  0  0  0  0  0  0  0  0  0  0  0
  -21.2760   -6.7200   23.9600 C   0  0  0  0  0  3  0  0  0  0  0  0
  -21.2200   -5.8750   25.0860 C   0  0  0  0  0  3  0  0  0  0  0  0
  -21.4930   -4.5010   24.9510 C   0  0  0  0  0  0  0  0  0  0  0  0
  -21.8250   -3.9690   23.6920 C   0  0  0  0  0  3  0  0  0  0  0  0
  -21.8820   -4.8120   22.5670 C   0  0  0  0  0  0  0  0  0  0  0  0
  -22.1820   -4.2910   21.3530 F   0  0  0  0  0  0  0  0  0  0  0  0
  -21.4310   -3.6870   26.0300 F   0  0  0  0  0  0  0  0  0  0  0  0
  -22.7400  -13.5960   21.2150 C   0  0  0  0  0  0  0  0  0  0  0  0
  -22.0140  -12.9090   22.0910 N   0  0  0  0  0  0  0  0  0  0  0  0
  -22.3040  -14.6210   20.6940 O   0  0  0  0  0  0  0  0  0  0  0  0
  -22.3790  -12.0800   22.5360 H   0  0  0  0  0  0  0  0  0  0  0  0
  -21.0810  -13.2170   22.3200 H   0  0  0  0  0  0  0  0  0  0  0  0
  -25.3770  -15.2440   20.3810 N   0  0  0  0  0  0  0  0  0  0  0  0
  -24.6180  -15.9050   20.4970 H   0  0  0  0  0  0  0  0  0  0  0  0
  -26.2370  -15.6770   20.0620 H   0  0  0  0  0  0  0  0  0  0  0  0
  -29.9350  -25.0960   20.8270 C   0  0  0  0  0  2  0  0  0  0  0  0
  -29.0890  -26.3460   21.1710 C   0  0  0  0  0  2  0  0  0  0  0  0
  -28.3500  -26.6740   20.0000 O   0  0  0  0  0  0  0  0  0  0  0  0
  -24.6160  -31.8900   23.2310 C   0  0  0  0  0  0  0  0  0  0  0  0
  -27.2210  -27.4440   20.1320 C   0  0  0  0  0  0  0  0  0  0  0  0
  -23.3910  -30.4850   21.6020 C   0  0  0  0  0  3  0  0  0  0  0  0
  -24.8300  -28.9420   20.1730 C   0  0  0  0  0  0  0  0  0  0  0  0
  -25.9140  -30.8410   21.3810 C   0  0  0  0  0  2  0  0  0  0  0  0
  -25.9930  -29.4640   20.7560 C   0  0  0  0  0  0  0  0  0  0  0  0
  -27.1940  -28.7170   20.7480 C   0  0  0  0  0  3  0  0  0  0  0  0
  -26.0470  -26.9400   19.5400 C   0  0  0  0  0  3  0  0  0  0  0  0
  -24.8490  -27.6750   19.5660 C   0  0  0  0  0  3  0  0  0  0  0  0
  -23.5870  -29.8020   20.2230 C   0  0  0  0  0  2  0  0  0  0  0  0
  -24.6580  -31.0870   22.1290 N   0  0  0  0  0  0  0  0  0  0  0  0
  -23.5400  -32.1650   23.7800 O   0  0  0  0  0  0  0  0  0  0  0  0
  -22.7480  -29.4670   22.5730 C   0  0  0  0  0  0  0  0  0  0  0  0
  -21.4240  -29.2840   22.4550 N   0  0  0  0  0  0  0  0  0  0  0  0
  -23.4400  -28.8460   23.3840 O   0  0  0  0  0  0  0  0  0  0  0  0
  -20.9300  -29.8370   21.7680 H   0  0  0  0  0  0  0  0  0  0  0  0
  -18.0550  -28.0790   22.9700 C   0  0  0  0  0  0  0  0  0  0  0  0
  -20.6120  -28.3490   23.2340 C   0  0  0  0  0  3  0  0  0  0  0  0
  -20.7200  -26.9150   22.6680 C   0  0  0  0  0  2  0  0  0  0  0  0
  -19.6170  -26.5800   21.6590 C   0  0  0  0  0  2  0  0  0  0  0  0
  -18.2360  -26.7240   22.3050 C   0  0  0  0  0  2  0  0  0  0  0  0
  -19.1720  -28.8480   23.3910 C   0  0  0  0  0  0  0  0  0  0  0  0
  -18.9500  -30.1160   23.9720 C   0  0  0  0  0  3  0  0  0  0  0  0
  -17.6450  -30.6140   24.1370 C   0  0  0  0  0  3  0  0  0  0  0  0
  -16.5430  -29.8420   23.7310 C   0  0  0  0  0  3  0  0  0  0  0  0
  -16.7480  -28.5770   23.1540 C   0  0  0  0  0  3  0  0  0  0  0  0
  -25.9110  -32.5180   23.8340 C   0  0  0  0  0  3  0  0  0  0  0  0
  -25.6050  -33.9140   24.1760 N   0  0  0  0  0  0  0  0  0  0  0  0
  -25.9280  -34.9690   23.4170 C   0  0  0  0  0  0  0  0  0  0  0  0
  -26.5870  -34.8710   22.3780 O   0  0  0  0  0  0  0  0  0  0  0  0
  -25.0170  -34.0650   24.9830 H   0  0  0  0  0  0  0  0  0  0  0  0
  -24.1930  -36.7590   23.0900 C   0  0  0  0  0  1  0  0  0  0  0  0
  -25.4440  -36.3550   23.8860 C   0  0  0  0  0  3  0  0  0  0  0  0
  -27.5890  -37.2340   24.6930 C   0  0  0  0  0  1  0  0  0  0  0  0
  -26.4750  -37.4090   23.7660 N   0  0  0  0  0  0  0  0  0  0  0  0
  -26.0690  -38.3280   23.9260 H   0  0  0  0  0  0  0  0  0  0  0  0
  -26.4510  -31.7380   25.0950 C   0  0  1  0  0  0  0  0  0  0  0  0
  -25.3770  -31.4940   26.1810 C   0  0  0  0  0  1  0  0  0  0  0  0
  -27.0270  -30.3630   24.6830 C   0  0  0  0  0  1  0  0  0  0  0  0
  -27.6120  -32.5280   25.7410 C   0  0  0  0  0  1  0  0  0  0  0  0
  1  2  1  0
  3  1  1  0
  4  1  1  0
  4  5  1  0
  6  5  1  0
  6  7  1  0
  8  7  1  0
  8  9  1  0
 10 18  1  0
 11 16  1  0
 12 13  1  0
 12 11  1  0
 14 13  1  0
 14 23  1  0
 14 15  1  0
 16 10  1  0
 16 15  1  0
 17 10  2  0
 18 19  1  0
 18  9  1  0
 20 21  2  0
 21 40  1  0
 22 21  1  0
 22 25  1  0
 23 20  1  0
 23 24  1  0
 24 22  2  0
 25 26  1  0
 26 27  2  0
 28 31  1  0
 28 27  1  0
 29 28  2  0
 30 29  1  0
 30 25  2  0
 31 32  1  0
 32 33  1  0
 33 34  2  0
 35 34  1  0
 35 39  1  0
 36 35  2  0
 37 32  2  0
 37 36  1  0
 38 37  1  0
 40 41  1  0
 41 44  1  0
 41 43  1  0
 42 40  2  0
 45 46  1  0
 45 20  1  0
 47 45  1  0
 48  1  1  0
 48 49  1  0
 50 52  1  0
 50 49  1  0
 51 62  2  0
 52 57  1  0
 53 61  1  0
 53 63  1  0
 54 60  1  0
 54 56  1  0
 55 61  1  0
 56 55  1  0
 57 56  2  0
 58 59  1  0
 58 52  2  0
 59 54  2  0
 60 53  1  0
 61 51  1  0
 63 65  2  0
 64 63  1  0
 66 64  1  0
 67 76  2  0
 67 72  1  0
 68 64  1  0
 68 72  1  0
 69 68  1  0
 70 71  1  0
 70 69  1  0
 71 67  1  0
 72 73  2  0
 73 74  1  0
 75 74  2  0
 76 75  1  0
 77 51  1  0
 77 78  1  0
 77 87  1  0
 78 81  1  0
 79 83  1  0
 79 78  1  0
 80 79  2  0
 83 82  1  0
 85 83  1  0
 85 86  1  0
 85 84  1  0
 87 90  1  1
 87 88  1  0
 89 87  1  0
M  ISO  4  10 100  18 100  49 101  50 101
M  END
>  <TORSDO>  (25) 
F 24

>  <SCORE>  (25) 
-12.385

>  <name>  (25) 
24

>  <ligand_id>  (25) 
24

>  <original_smiles>  (25) 
[H]c1c([H])c([H])c2c(c1[H])C([H])([H])C([H])([H])C([H])([H])C2([H])N([H])C(=O)C1([H])N(C(=O)C([H])(N([H])C(=O)C([H])(N([H])C([H])([H])[H])C([H])([H])[H])C(C([H])([H])[H])(C([H])([H])[H])C([H])([H])[H])C([H])([H])c2c([H])c(OC([H])([H])C([H])([H])[N+]([H])([H])C([H])([H])C([H])([H])C([H])([H])OC([H])([H])C([H])([H])N([H])C(=O)N3C([H])([H])C([H])([H])C([H])([H])C([H])(n4nc(-c5c([H])c([H])c(Oc6c([H])c([H])c(F)c([H])c6F)c([H])c5[H])c(C(=O)N([H])[H])c4N([H])[H])C3([H])[H])c([H])c([H])c2C1([H])[H]

>  <smiles>  (25) 
[H]c1c([H])c([H])c2c(c1[H])C([H])([H])C([H])([H])C([H])([H])C2([H])N([H])C(=O)C1([H])N(C(=O)C([H])(N([H])C(=O)C([H])(N([H])C([H])([H])[H])C([H])([H])[H])C(C([H])([H])[H])(C([H])([H])[H])C([H])([H])[H])C([H])([H])c2c([H])c(OC([H])([H])C([H])([H])[N+]([H])([H])C([H])([H])C([H])([H])C([H])([H])OC([H])([H])C([H])([H])N([H])C(=O)N3C([H])([H])C([H])([H])C([H])([H])C([H])(n4nc(-c5c([H])c([H])c(Oc6c([H])c([H])c(F)c([H])c6F)c([H])c5[H])c(C(=O)N([H])[H])c4N([H])[H])C3([H])[H])c([H])c([H])c2C1([H])[H]

$$$$
25:0:0
     RDKit          3D

 99101  0  0  1  0  0  0  0  0999 V2000
  -30.5530  -18.8700   19.1930 N   0  0  0  0  0  4  0  0  0  0  0  0
  -31.0910  -18.9700   18.3460 H   0  0  0  0  0  0  0  0  0  0  0  0
  -31.1800  -18.6010   19.9340 H   0  0  0  0  0  0  0  0  0  0  0  0
  -29.9530  -20.1720   19.5450 C   0  0  0  0  0  2  0  0  0  0  0  0
  -30.9600  -21.3440   19.5330 C   0  0  0  0  0  2  0  0  0  0  0  0
  -30.3830  -22.4620   18.7920 N   0  0  0  0  0  0  0  0  0  0  0  0
  -30.4140  -22.2820   17.7890 H   0  0  0  0  0  0  0  0  0  0  0  0
  -31.0380  -23.7260   19.0930 C   0  0  0  0  0  2  0  0  0  0  0  0
  -30.0650  -24.8700   18.7690 C   0  0  0  0  0  2  0  0  0  0  0  0
  -30.5310  -26.2190   19.3460 C   0  0  0  0  0  2  0  0  0  0  0  0
  -29.4140  -27.2700   19.4100 C   0  0  0  0  0  2  0  0  0  0  0  0
  -28.3810  -26.7570   20.2420 O   0  0  0  0  0  0  0  0  0  0  0  0
  -24.5280  -31.9060   23.2950 C   0  0  0  0  0  0  0  0  0  0  0  0
  -27.2290  -27.4970   20.2520 C   0  0  0  0  0  0  0  0  0  0  0  0
  -23.3460  -30.5020   21.6350 C   0  0  0  0  0  3  0  0  0  0  0  0
  -24.8220  -28.9590   20.2410 C   0  0  0  0  0  0  0  0  0  0  0  0
  -25.8700  -30.8700   21.4710 C   0  0  0  0  0  2  0  0  0  0  0  0
  -25.9680  -29.5000   20.8390 C   0  0  0  0  0  0  0  0  0  0  0  0
  -27.1760  -28.7740   20.8460 C   0  0  0  0  0  3  0  0  0  0  0  0
  -26.0680  -26.9480   19.6750 C   0  0  0  0  0  3  0  0  0  0  0  0
  -24.8630  -27.6780   19.6590 C   0  0  0  0  0  3  0  0  0  0  0  0
  -23.5750  -29.8130   20.2620 C   0  0  0  0  0  2  0  0  0  0  0  0
  -24.5980  -31.1060   22.1930 N   0  0  0  0  0  0  0  0  0  0  0  0
  -23.4400  -32.1800   23.8190 O   0  0  0  0  0  0  0  0  0  0  0  0
  -22.6780  -29.4850   22.5880 C   0  0  0  0  0  0  0  0  0  0  0  0
  -21.3590  -29.2940   22.4280 N   0  0  0  0  0  0  0  0  0  0  0  0
  -23.3450  -28.8690   23.4230 O   0  0  0  0  0  0  0  0  0  0  0  0
  -20.8830  -29.8430   21.7250 H   0  0  0  0  0  0  0  0  0  0  0  0
  -17.9810  -28.0840   22.8390 C   0  0  0  0  0  0  0  0  0  0  0  0
  -20.5270  -28.3580   23.1830 C   0  0  0  0  0  3  0  0  0  0  0  0
  -20.6540  -26.9230   22.6230 C   0  0  0  0  0  2  0  0  0  0  0  0
  -19.5850  -26.5860   21.5800 C   0  0  0  0  0  2  0  0  0  0  0  0
  -18.1850  -26.7290   22.1830 C   0  0  0  0  0  2  0  0  0  0  0  0
  -19.0810  -28.8560   23.2950 C   0  0  0  0  0  0  0  0  0  0  0  0
  -18.8400  -30.1250   23.8650 C   0  0  0  0  0  3  0  0  0  0  0  0
  -17.5290  -30.6210   23.9870 C   0  0  0  0  0  3  0  0  0  0  0  0
  -16.4410  -29.8460   23.5490 C   0  0  0  0  0  3  0  0  0  0  0  0
  -16.6680  -28.5790   22.9810 C   0  0  0  0  0  3  0  0  0  0  0  0
  -25.8080  -32.5330   23.9340 C   0  0  0  0  0  3  0  0  0  0  0  0
  -25.5080  -33.9390   24.2320 N   0  0  0  0  0  0  0  0  0  0  0  0
  -25.8810  -34.9740   23.4670 C   0  0  0  0  0  0  0  0  0  0  0  0
  -26.5860  -34.8440   22.4610 O   0  0  0  0  0  0  0  0  0  0  0  0
  -24.8880  -34.1160   25.0090 H   0  0  0  0  0  0  0  0  0  0  0  0
  -24.1990  -36.7860   23.0120 C   0  0  0  0  0  1  0  0  0  0  0  0
  -25.3970  -36.3760   23.8830 C   0  0  0  0  0  3  0  0  0  0  0  0
  -27.5070  -37.2400   24.7940 C   0  0  0  0  0  1  0  0  0  0  0  0
  -26.4510  -37.4110   23.7990 N   0  0  0  0  0  0  0  0  0  0  0  0
  -26.0550  -38.3400   23.9130 H   0  0  0  0  0  0  0  0  0  0  0  0
  -26.2900  -31.7760   25.2320 C   0  0  1  0  0  0  0  0  0  0  0  0
  -25.1730  -31.5640   26.2790 C   0  0  0  0  0  1  0  0  0  0  0  0
  -26.8680  -30.3890   24.8700 C   0  0  0  0  0  1  0  0  0  0  0  0
  -27.4350  -32.5690   25.9070 C   0  0  0  0  0  1  0  0  0  0  0  0
  -29.5310  -17.8210   18.9910 C   0  0  0  0  0  2  0  0  0  0  0  0
  -30.0860  -16.3880   19.0930 C   0  0  0  0  0  2  0  0  0  0  0  0
  -28.9590  -15.3560   18.8520 C   0  0  0  0  0  2  0  0  0  0  0  0
  -29.3290  -13.7850   18.5540 C   0  0  0  0  0  1  0  0  0  0  0  0
  -29.2300  -11.7370   19.8000 N   0  0  0  0  0  0  0  0  0  0  0  0
  -29.1540  -11.0850   19.0350 H   0  0  0  0  0  0  0  0  0  0  0  0
  -28.3060  -11.7510   20.2070 H   0  0  0  0  0  0  0  0  0  0  0  0
  -30.0890  -10.9260   20.8400 C   0  0  0  0  0  2  0  0  0  0  0  0
  -30.8190  -11.5670   22.1340 C   0  0  0  0  0  2  0  0  0  0  0  0
  -31.7200  -13.7420   21.1900 C   0  0  0  0  0  0  0  0  0  0  0  0
  -31.2190  -12.5380   18.9290 C   0  0  0  0  0  1  0  0  0  0  0  0
  -29.7380  -11.9560   17.6070 C   0  0  0  0  0 15  0  0  0  0  0  0
  -27.7630  -12.3330   18.1140 C   0  0  0  0  0 15  0  0  0  0  0  0
  -27.4450  -13.4000   19.8310 C   0  0  0  0  0  1  0  0  0  0  0  0
  -29.0060  -13.8210   21.0750 C   0  0  0  0  0  1  0  0  0  0  0  0
  -30.7320  -13.4940   20.4740 N   0  0  0  0  0  0  0  0  0  0  0  0
  -32.5850  -14.5110   20.7890 O   0  0  0  0  0  0  0  0  0  0  0  0
  -31.8470  -12.6620   21.9770 N   0  0  0  0  0  0  0  0  0  0  0  0
  -32.7160  -12.5630   22.4840 H   0  0  0  0  0  0  0  0  0  0  0  0
  -25.3580  -13.9250   20.8680 C   0  0  0  0  0  0  0  0  0  0  0  0
  -24.3280  -13.1080   21.1690 C   0  0  0  0  0  0  0  0  0  0  0  0
  -24.8210  -11.7670   21.0520 C   0  0  0  0  0  0  0  0  0  0  0  0
  -26.3370  -13.0470   20.5240 N   0  0  0  0  0  0  0  0  0  0  0  0
  -26.1010  -11.7510   20.7230 N   0  0  0  0  0  0  0  0  0  0  0  0
  -24.1320  -10.4940   21.1510 C   0  0  0  0  0  0  0  0  0  0  0  0
  -24.5470   -9.5090   22.0690 C   0  0  0  0  0  3  0  0  0  0  0  0
  -23.8320   -8.3010   22.1760 C   0  0  0  0  0  3  0  0  0  0  0  0
  -22.6970   -8.0780   21.3610 C   0  0  0  0  0  0  0  0  0  0  0  0
  -22.3170   -9.0500   20.4200 C   0  0  0  0  0  3  0  0  0  0  0  0
  -23.0320  -10.2500   20.3100 C   0  0  0  0  0  3  0  0  0  0  0  0
  -21.9450   -6.9320   21.3900 O   0  0  0  0  0  0  0  0  0  0  0  0
  -21.7950   -6.2080   22.5430 C   0  0  0  0  0  0  0  0  0  0  0  0
  -21.2470   -6.7720   23.7150 C   0  0  0  0  0  3  0  0  0  0  0  0
  -21.0440   -5.9680   24.8540 C   0  0  0  0  0  3  0  0  0  0  0  0
  -21.3840   -4.6010   24.8210 C   0  0  0  0  0  0  0  0  0  0  0  0
  -21.9280   -4.0380   23.6530 C   0  0  0  0  0  3  0  0  0  0  0  0
  -22.1300   -4.8390   22.5160 C   0  0  0  0  0  0  0  0  0  0  0  0
  -22.6370   -4.2900   21.3870 F   0  0  0  0  0  0  0  0  0  0  0  0
  -21.1800   -3.8260   25.9110 F   0  0  0  0  0  0  0  0  0  0  0  0
  -22.9390  -13.5690   21.4190 C   0  0  0  0  0  0  0  0  0  0  0  0
  -22.2090  -12.8360   22.2440 N   0  0  0  0  0  0  0  0  0  0  0  0
  -22.5200  -14.6160   20.9270 O   0  0  0  0  0  0  0  0  0  0  0  0
  -22.5790  -11.9960   22.6660 H   0  0  0  0  0  0  0  0  0  0  0  0
  -21.2660  -13.1190   22.4680 H   0  0  0  0  0  0  0  0  0  0  0  0
  -25.5320  -15.3090   20.7660 N   0  0  0  0  0  0  0  0  0  0  0  0
  -24.7770  -15.9530   20.9780 H   0  0  0  0  0  0  0  0  0  0  0  0
  -26.3860  -15.7790   20.5000 H   0  0  0  0  0  0  0  0  0  0  0  0
  1  4  1  0
  1  3  1  0
  2  1  1  0
  5  4  1  0
  6  8  1  0
  6  5  1  0
  7  6  1  0
  9  8  1  0
  9 10  1  0
 10 11  1  0
 11 12  1  0
 12 14  1  0
 13 24  2  0
 14 19  1  0
 15 23  1  0
 15 25  1  0
 16 22  1  0
 16 18  1  0
 17 23  1  0
 18 19  2  0
 18 17  1  0
 20 14  2  0
 21 20  1  0
 21 16  2  0
 22 15  1  0
 23 13  1  0
 25 27  2  0
 26 25  1  0
 28 26  1  0
 29 38  2  0
 29 34  1  0
 30 26  1  0
 30 34  1  0
 31 30  1  0
 32 33  1  0
 32 31  1  0
 33 29  1  0
 34 35  2  0
 35 36  1  0
 37 36  2  0
 38 37  1  0
 39 13  1  0
 39 40  1  0
 39 49  1  0
 40 43  1  0
 41 45  1  0
 41 40  1  0
 42 41  2  0
 45 44  1  0
 47 45  1  0
 47 48  1  0
 47 46  1  0
 49 52  1  1
 49 50  1  0
 51 49  1  0
 53 54  1  0
 53  1  1  0
 55 54  1  0
 56 55  1  0
 57 59  1  0
 57 60  1  0
 58 57  1  0
 60 61  1  0
 62 70  1  0
 63 68  1  0
 66 75  1  0
 68 67  1  0
 68 62  1  0
 69 62  2  0
 70 61  1  0
 70 71  1  0
 72 73  2  0
 73 92  1  0
 74 77  1  0
 74 73  1  0
 75 76  1  0
 75 72  1  0
 76 74  2  0
 77 78  1  0
 78 79  2  0
 80 83  1  0
 80 79  1  0
 81 80  2  0
 82 81  1  0
 82 77  2  0
 83 84  1  0
 84 85  1  0
 85 86  2  0
 87 86  1  0
 87 91  1  0
 88 87  2  0
 89 84  2  0
 89 88  1  0
 90 89  1  0
 92 93  1  0
 93 96  1  0
 93 95  1  0
 94 92  2  0
 97 72  1  0
 97 98  1  0
 99 97  1  0
M  ISO  4  11 101  12 101  62 100  70 100
M  END
>  <TORSDO>  (26) 
F 30

>  <SCORE>  (26) 
-10.826

>  <name>  (26) 
25

>  <ligand_id>  (26) 
25

>  <original_smiles>  (26) 
[H]c1c([H])c([H])c2c(c1[H])C([H])([H])C([H])([H])C([H])([H])C2([H])N([H])C(=O)C1([H])N(C(=O)C([H])(N([H])C(=O)C([H])(N([H])C([H])([H])[H])C([H])([H])[H])C(C([H])([H])[H])(C([H])([H])[H])C([H])([H])[H])C([H])([H])c2c([H])c(OC([H])([H])C([H])([H])C([H])([H])C([H])([H])N([H])C([H])([H])C([H])([H])[N+]([H])([H])C([H])([H])C([H])([H])C([H])([H])C([H])([H])[N+]([H])([H])C([H])([H])C([H])([H])N([H])C(=O)N3C([H])([H])C([H])([H])C([H])([H])C([H])(n4nc(-c5c([H])c([H])c(Oc6c([H])c([H])c(F)c([H])c6F)c([H])c5[H])c(C(=O)N([H])[H])c4N([H])[H])C3([H])[H])c([H])c([H])c2C1([H])[H]

>  <smiles>  (26) 
[H]c1c([H])c([H])c2c(c1[H])C([H])([H])C([H])([H])C([H])([H])C2([H])N([H])C(=O)C1([H])N(C(=O)C([H])(N([H])C(=O)C([H])(N([H])C([H])([H])[H])C([H])([H])[H])C(C([H])([H])[H])(C([H])([H])[H])C([H])([H])[H])C([H])([H])c2c([H])c(OC([H])([H])C([H])([H])C([H])([H])C([H])([H])N([H])C([H])([H])C([H])([H])[N+]([H])([H])C([H])([H])C([H])([H])C([H])([H])C([H])([H])[N+]([H])([H])C([H])([H])C([H])([H])N([H])C(=O)N3C([H])([H])C([H])([H])C([H])([H])C([H])(n4nc(-c5c([H])c([H])c(Oc6c([H])c([H])c(F)c([H])c6F)c([H])c5[H])c(C(=O)N([H])[H])c4N([H])[H])C3([H])[H])c([H])c([H])c2C1([H])[H]

$$$$
26:0:0
     RDKit          3D

 98105  0  0  1  0  0  0  0  0999 V2000
  -30.1750  -23.5570   25.2820 C   0  0  0  0  0  2  0  0  0  0  0  0
  -30.3570  -22.0590   25.5820 C   0  0  0  0  0  2  0  0  0  0  0  0
  -31.5590  -21.4440   24.8500 C   0  0  0  0  0  2  0  0  0  0  0  0
  -31.1010  -20.3100   24.1290 O   0  0  0  0  0  0  0  0  0  0  0  0
  -32.0050  -19.9030   23.1090 C   0  0  0  0  0  2  0  0  0  0  0  0
  -31.1800  -19.5360   21.8710 C   0  0  0  0  0  2  0  0  0  0  0  0
  -30.2110  -20.6090   21.5460 N   0  0  0  0  0  4  0  0  0  0  0  0
  -29.5670  -20.6880   22.3190 H   0  0  0  0  0  0  0  0  0  0  0  0
  -30.7060  -21.4850   21.4800 H   0  0  0  0  0  0  0  0  0  0  0  0
  -29.4680  -20.3910   20.2890 C   0  0  0  0  0  2  0  0  0  0  0  0
  -28.3530  -21.4340   20.0710 C   0  0  0  0  0  2  0  0  0  0  0  0
  -27.4790  -21.0610   18.8640 C   0  0  0  0  0  2  0  0  0  0  0  0
  -25.7520  -22.4490   17.7200 C   0  0  0  0  0  0  0  0  0  0  0  0
  -23.6520  -22.4770   16.4340 C   0  0  0  0  0  2  0  0  0  0  0  0
  -23.0140  -23.8590   16.2410 C   0  0  0  0  0  2  0  0  0  0  0  0
  -22.1160  -24.2110   17.4390 C   0  0  0  0  0  2  0  0  0  0  0  0
  -22.8420  -24.0200   18.7950 C   0  0  0  0  0  3  0  0  0  0  0  0
  -23.5280  -22.6390   18.8750 C   0  0  0  0  0  2  0  0  0  0  0  0
  -24.4000  -22.4660   17.6980 N   0  0  0  0  0  0  0  0  0  0  0  0
  -26.4640  -22.7200   16.7460 O   0  0  0  0  0  0  0  0  0  0  0  0
  -26.2360  -21.8280   18.8010 N   0  0  0  0  0  0  0  0  0  0  0  0
  -25.5510  -21.6260   19.5160 H   0  0  0  0  0  0  0  0  0  0  0  0
  -21.9930  -25.1700   20.9370 C   0  0  0  0  0  0  0  0  0  0  0  0
  -20.8580  -24.9910   21.6830 C   0  0  0  0  0  0  0  0  0  0  0  0
  -20.1370  -23.9290   21.0560 C   0  0  0  0  0  0  0  0  0  0  0  0
  -21.9300  -24.2330   19.9170 N   0  0  0  0  0  0  0  0  0  0  0  0
  -20.8260  -23.4490   20.0280 N   0  0  0  0  0  0  0  0  0  0  0  0
  -18.8050  -23.3790   21.3410 C   0  0  0  0  0  0  0  0  0  0  0  0
  -18.5970  -21.9890   21.4880 C   0  0  0  0  0  3  0  0  0  0  0  0
  -17.3110  -21.4850   21.7780 C   0  0  0  0  0  3  0  0  0  0  0  0
  -16.2180  -22.3720   21.9280 C   0  0  0  0  0  0  0  0  0  0  0  0
  -16.4270  -23.7520   21.7570 C   0  0  0  0  0  3  0  0  0  0  0  0
  -17.7060  -24.2520   21.4630 C   0  0  0  0  0  3  0  0  0  0  0  0
  -14.9300  -21.9720   22.1850 O   0  0  0  0  0  0  0  0  0  0  0  0
  -14.6550  -20.7750   22.7980 C   0  0  0  0  0  0  0  0  0  0  0  0
  -15.1860  -20.4500   24.0650 C   0  0  0  0  0  3  0  0  0  0  0  0
  -14.8230  -19.2400   24.6900 C   0  0  0  0  0  3  0  0  0  0  0  0
  -13.9260  -18.3610   24.0560 C   0  0  0  0  0  0  0  0  0  0  0  0
  -13.3940  -18.6850   22.7960 C   0  0  0  0  0  3  0  0  0  0  0  0
  -13.7550  -19.8910   22.1700 C   0  0  0  0  0  0  0  0  0  0  0  0
  -13.2230  -20.2100   20.9660 F   0  0  0  0  0  0  0  0  0  0  0  0
  -13.5710  -17.2010   24.6590 F   0  0  0  0  0  0  0  0  0  0  0  0
  -20.4160  -25.8200   22.8540 C   0  0  0  0  0  0  0  0  0  0  0  0
  -19.6890  -25.2210   23.7920 N   0  0  0  0  0  0  0  0  0  0  0  0
  -20.7560  -26.9980   22.9680 O   0  0  0  0  0  0  0  0  0  0  0  0
  -19.4280  -24.2490   23.7080 H   0  0  0  0  0  0  0  0  0  0  0  0
  -19.3920  -25.7410   24.6040 H   0  0  0  0  0  0  0  0  0  0  0  0
  -23.0610  -26.0580   21.0300 N   0  0  0  0  0  0  0  0  0  0  0  0
  -23.1060  -26.7850   21.7360 H   0  0  0  0  0  0  0  0  0  0  0  0
  -23.8320  -26.0920   20.3740 H   0  0  0  0  0  0  0  0  0  0  0  0
  -28.7300  -24.0320   25.5130 C   0  0  0  0  0  2  0  0  0  0  0  0
  -28.3860  -25.3370   24.7710 C   0  0  0  0  0  2  0  0  0  0  0  0
  -28.1640  -25.1040   23.3250 N   0  0  0  0  0  4  0  0  0  0  0  0
  -27.6950  -24.2160   23.2300 H   0  0  0  0  0  0  0  0  0  0  0  0
  -29.0480  -25.0200   22.8470 H   0  0  0  0  0  0  0  0  0  0  0  0
  -27.3240  -26.1160   22.6440 C   0  0  0  0  0  2  0  0  0  0  0  0
  -28.0670  -27.4260   22.3280 C   0  0  0  0  0  2  0  0  0  0  0  0
  -27.1040  -28.4560   22.1260 O   0  0  0  0  0  0  0  0  0  0  0  0
  -28.5160  -32.0690   28.1070 C   0  0  0  0  0  0  0  0  0  0  0  0
  -26.6430  -29.0560   23.2680 C   0  0  0  0  0  0  0  0  0  0  0  0
  -26.1930  -31.2480   27.8520 C   0  0  0  0  0  3  0  0  0  0  0  0
  -25.5910  -30.3320   25.5490 C   0  0  0  0  0  0  0  0  0  0  0  0
  -27.6290  -31.7640   25.8010 C   0  0  0  0  0  2  0  0  0  0  0  0
  -26.8610  -30.6840   25.0710 C   0  0  0  0  0  0  0  0  0  0  0  0
  -27.3950  -30.0460   23.9350 C   0  0  0  0  0  3  0  0  0  0  0  0
  -25.3650  -28.7080   23.7510 C   0  0  0  0  0  3  0  0  0  0  0  0
  -24.8400  -29.3370   24.8970 C   0  0  0  0  0  3  0  0  0  0  0  0
  -25.0930  -31.0720   26.7680 C   0  0  0  0  0  2  0  0  0  0  0  0
  -27.5060  -31.6880   27.2750 N   0  0  0  0  0  0  0  0  0  0  0  0
  -28.3580  -32.1000   29.3340 O   0  0  0  0  0  0  0  0  0  0  0  0
  -26.2930  -29.9400   28.6680 C   0  0  0  0  0  0  0  0  0  0  0  0
  -25.2950  -29.6990   29.5330 N   0  0  0  0  0  0  0  0  0  0  0  0
  -27.2320  -29.1580   28.4980 O   0  0  0  0  0  0  0  0  0  0  0  0
  -24.5670  -30.3950   29.6180 H   0  0  0  0  0  0  0  0  0  0  0  0
  -23.1540  -28.0970   31.9610 C   0  0  0  0  0  0  0  0  0  0  0  0
  -25.1560  -28.5150   30.3790 C   0  0  0  0  0  3  0  0  0  0  0  0
  -24.6320  -27.3090   29.5650 C   0  0  0  0  0  2  0  0  0  0  0  0
  -23.1080  -27.1670   29.6080 C   0  0  0  0  0  2  0  0  0  0  0  0
  -22.6250  -27.0000   31.0520 C   0  0  0  0  0  2  0  0  0  0  0  0
  -24.3340  -28.8180   31.6360 C   0  0  0  0  0  0  0  0  0  0  0  0
  -24.7650  -29.8500   32.4980 C   0  0  0  0  0  3  0  0  0  0  0  0
  -24.0430  -30.1630   33.6650 C   0  0  0  0  0  3  0  0  0  0  0  0
  -22.8860  -29.4330   33.9900 C   0  0  0  0  0  3  0  0  0  0  0  0
  -22.4460  -28.4010   33.1420 C   0  0  0  0  0  3  0  0  0  0  0  0
  -29.9110  -32.5040   27.5540 C   0  0  0  0  0  3  0  0  0  0  0  0
  -30.3450  -33.6790   28.3190 N   0  0  0  0  0  0  0  0  0  0  0  0
  -30.2200  -34.9460   27.8990 C   0  0  0  0  0  0  0  0  0  0  0  0
  -29.7900  -35.2430   26.7820 O   0  0  0  0  0  0  0  0  0  0  0  0
  -30.6550  -33.5120   29.2640 H   0  0  0  0  0  0  0  0  0  0  0  0
  -29.3900  -36.6340   29.5660 C   0  0  0  0  0  1  0  0  0  0  0  0
  -30.6390  -36.0590   28.8770 C   0  0  0  0  0  3  0  0  0  0  0  0
  -32.7240  -36.7420   27.7750 C   0  0  0  0  0  1  0  0  0  0  0  0
  -31.3980  -37.1530   28.2320 N   0  0  0  0  0  0  0  0  0  0  0  0
  -31.5120  -37.9370   28.8670 H   0  0  0  0  0  0  0  0  0  0  0  0
  -30.9930  -31.3590   27.6260 C   0  0  1  0  0  0  0  0  0  0  0  0
  -31.1250  -30.7170   29.0270 C   0  0  0  0  0  1  0  0  0  0  0  0
  -30.6630  -30.2340   26.6180 C   0  0  0  0  0  1  0  0  0  0  0  0
  -32.3770  -31.9190   27.2270 C   0  0  0  0  0  1  0  0  0  0  0  0
  1 51  1  0
  1  2  1  0
  3  2  1  0
  4  3  1  0
  5  4  1  0
  6  5  1  0
  7  6  1  0
  7  8  1  0
  9  7  1  0
 10  7  1  0
 11 10  1  0
 12 11  1  0
 13 21  1  0
 14 19  1  0
 15 14  1  0
 15 16  1  0
 17 16  1  0
 17 18  1  0
 17 26  1  0
 19 13  1  0
 19 18  1  0
 20 13  2  0
 21 12  1  0
 21 22  1  0
 23 48  1  0
 23 24  2  0
 24 43  1  0
 25 28  1  0
 25 24  1  0
 26 27  1  0
 26 23  1  0
 27 25  2  0
 28 33  2  0
 28 29  1  0
 29 30  2  0
 30 31  1  0
 31 34  1  0
 32 31  2  0
 33 32  1  0
 34 35  1  0
 35 36  1  0
 36 37  2  0
 38 42  1  0
 38 37  1  0
 39 38  2  0
 40 39  1  0
 40 35  2  0
 41 40  1  0
 43 45  2  0
 43 44  1  0
 44 47  1  0
 46 44  1  0
 48 49  1  0
 50 48  1  0
 52 51  1  0
 53 52  1  0
 54 53  1  0
 55 53  1  0
 56 53  1  0
 57 56  1  0
 58 57  1  0
 58 60  1  0
 59 70  2  0
 60 66  2  0
 60 65  1  0
 61 71  1  0
 62 68  1  0
 63 69  1  0
 64 62  1  0
 64 63  1  0
 65 64  2  0
 66 67  1  0
 67 62  2  0
 68 61  1  0
 69 61  1  0
 69 59  1  0
 71 72  1  0
 72 74  1  0
 73 71  2  0
 75 84  1  0
 76 72  1  0
 76 80  1  0
 77 78  1  0
 77 76  1  0
 78 79  1  0
 79 75  1  0
 80 75  2  0
 80 81  1  0
 81 82  2  0
 82 83  1  0
 84 83  2  0
 85 95  1  0
 85 59  1  0
 85 86  1  0
 86 89  1  0
 87 86  1  0
 87 91  1  0
 88 87  2  0
 91 90  1  0
 92 93  1  0
 93 94  1  0
 93 91  1  0
 95 96  1  1
 97 95  1  0
 98 95  1  0
M  ISO  4  13 100  21 100  57 101  58 101
M  END
>  <TORSDO>  (27) 
F 30

>  <SCORE>  (27) 
2.010

>  <name>  (27) 
26

>  <ligand_id>  (27) 
26

>  <original_smiles>  (27) 
[H]c1c([H])c([H])c2c(c1[H])C([H])([H])C([H])([H])C([H])([H])C2([H])N([H])C(=O)C1([H])N(C(=O)C([H])(N([H])C(=O)C([H])(N([H])C([H])([H])[H])C([H])([H])[H])C(C([H])([H])[H])(C([H])([H])[H])C([H])([H])[H])C([H])([H])c2c([H])c(OC([H])([H])C([H])([H])[N+]([H])([H])C([H])([H])C([H])([H])C([H])([H])C([H])([H])C([H])([H])OC([H])([H])C([H])([H])[N+]([H])([H])C([H])([H])C([H])([H])C([H])([H])N([H])C(=O)N3C([H])([H])C([H])([H])C([H])([H])C([H])(n4nc(-c5c([H])c([H])c(Oc6c([H])c([H])c(F)c([H])c6F)c([H])c5[H])c(C(=O)N([H])[H])c4N([H])[H])C3([H])[H])c([H])c([H])c2C1([H])[H]

>  <smiles>  (27) 
[H]c1c([H])c([H])c2c(c1[H])C([H])([H])C([H])([H])C([H])([H])C2([H])N([H])C(=O)C1([H])N(C(=O)C([H])(N([H])C(=O)C([H])(N([H])C([H])([H])[H])C([H])([H])[H])C(C([H])([H])[H])(C([H])([H])[H])C([H])([H])[H])C([H])([H])c2c([H])c(OC([H])([H])C([H])([H])[N+]([H])([H])C([H])([H])C([H])([H])C([H])([H])C([H])([H])C([H])([H])OC([H])([H])C([H])([H])[N+]([H])([H])C([H])([H])C([H])([H])C([H])([H])N([H])C(=O)N3C([H])([H])C([H])([H])C([H])([H])C([H])(n4nc(-c5c([H])c([H])c(Oc6c([H])c([H])c(F)c([H])c6F)c([H])c5[H])c(C(=O)N([H])[H])c4N([H])[H])C3([H])[H])c([H])c([H])c2C1([H])[H]

$$$$
27:0:0
     RDKit          3D

100101  0  0  1  0  0  0  0  0999 V2000
  -21.8570  -23.0480   26.1120 C   0  0  0  0  0  2  0  0  0  0  0  0
  -23.8480  -21.8450   25.1960 C   0  0  0  0  0  0  0  0  0  0  0  0
  -22.7950  -22.6730   25.0320 N   0  0  0  0  0  0  0  0  0  0  0  0
  -24.2080  -21.4700   26.3130 O   0  0  0  0  0  0  0  0  0  0  0  0
  -22.5570  -22.9400   24.0880 H   0  0  0  0  0  0  0  0  0  0  0  0
  -24.4620  -21.4180   23.9390 C   0  0  0  0  0  3  0  0  0  0  0  0
  -25.3290  -20.3720   23.8860 C   0  0  0  0  0  3  0  0  0  0  0  0
  -26.1690  -20.8360   21.4980 C   0  0  0  0  0  1  0  0  0  0  0  0
  -25.9770  -19.7920   22.6150 C   0  0  0  0  0  3  0  0  0  0  0  0
  -27.2790  -19.0050   22.8590 C   0  0  0  0  0  3  0  0  0  0  0  0
  -27.6500  -18.0620   22.0740 N   0  0  0  0  0  0  0  0  0  0  0  0
  -28.9100  -17.3610   22.3080 C   0  0  0  0  0  2  0  0  0  0  0  0
  -28.9760  -16.1030   21.4000 C   0  0  0  0  0  2  0  0  0  0  0  0
  -30.6980  -14.4400   20.6690 C   0  0  0  0  0  0  0  0  0  0  0  0
  -30.4180  -12.3290   19.4020 C   0  0  0  0  0  2  0  0  0  0  0  0
  -29.4800  -12.5390   18.1950 C   0  0  0  0  0  2  0  0  0  0  0  0
  -28.0030  -12.3890   18.6130 C   0  0  0  0  0  2  0  0  0  0  0  0
  -27.6610  -13.1980   19.8920 C   0  0  0  0  0  3  0  0  0  0  0  0
  -28.7020  -12.9200   21.0000 C   0  0  0  0  0  2  0  0  0  0  0  0
  -30.0230  -13.2750   20.4610 N   0  0  0  0  0  0  0  0  0  0  0  0
  -31.7810  -14.6770   20.1270 O   0  0  0  0  0  0  0  0  0  0  0  0
  -30.2050  -15.3070   21.5770 N   0  0  0  0  0  0  0  0  0  0  0  0
  -30.9490  -15.8740   21.9560 H   0  0  0  0  0  0  0  0  0  0  0  0
  -25.2580  -13.8160   20.5700 C   0  0  0  0  0  0  0  0  0  0  0  0
  -24.1820  -13.0440   20.9180 C   0  0  0  0  0  0  0  0  0  0  0  0
  -24.6370  -11.6900   20.8740 C   0  0  0  0  0  0  0  0  0  0  0  0
  -26.3010  -12.9310   20.3470 N   0  0  0  0  0  0  0  0  0  0  0  0
  -25.9290  -11.6470   20.5790 N   0  0  0  0  0  0  0  0  0  0  0  0
  -23.9030  -10.4290   21.0410 C   0  0  0  0  0  0  0  0  0  0  0  0
  -24.3590   -9.4210   21.9200 C   0  0  0  0  0  3  0  0  0  0  0  0
  -23.6280   -8.2240   22.0760 C   0  0  0  0  0  3  0  0  0  0  0  0
  -22.4270   -8.0270   21.3550 C   0  0  0  0  0  0  0  0  0  0  0  0
  -21.9890   -9.0240   20.4650 C   0  0  0  0  0  3  0  0  0  0  0  0
  -22.7200  -10.2130   20.3070 C   0  0  0  0  0  3  0  0  0  0  0  0
  -21.6640   -6.8860   21.4240 O   0  0  0  0  0  0  0  0  0  0  0  0
  -21.6850   -6.0730   22.5280 C   0  0  0  0  0  0  0  0  0  0  0  0
  -21.4010   -6.5640   23.8210 C   0  0  0  0  0  3  0  0  0  0  0  0
  -21.3660   -5.6800   24.9180 C   0  0  0  0  0  3  0  0  0  0  0  0
  -21.6050   -4.3060   24.7240 C   0  0  0  0  0  0  0  0  0  0  0  0
  -21.8820   -3.8140   23.4360 C   0  0  0  0  0  3  0  0  0  0  0  0
  -21.9190   -4.6950   22.3410 C   0  0  0  0  0  0  0  0  0  0  0  0
  -22.1660   -4.2130   21.0990 F   0  0  0  0  0  0  0  0  0  0  0  0
  -21.5620   -3.4540   25.7750 F   0  0  0  0  0  0  0  0  0  0  0  0
  -22.7850  -13.5240   21.1860 C   0  0  0  0  0  0  0  0  0  0  0  0
  -22.0480  -12.8220   22.0410 N   0  0  0  0  0  0  0  0  0  0  0  0
  -22.3550  -14.5560   20.6730 O   0  0  0  0  0  0  0  0  0  0  0  0
  -22.4070  -11.9850   22.4770 H   0  0  0  0  0  0  0  0  0  0  0  0
  -21.1120  -13.1300   22.2630 H   0  0  0  0  0  0  0  0  0  0  0  0
  -25.4310  -15.1880   20.4100 N   0  0  0  0  0  0  0  0  0  0  0  0
  -24.6770  -15.8510   20.5500 H   0  0  0  0  0  0  0  0  0  0  0  0
  -26.3030  -15.6350   20.1580 H   0  0  0  0  0  0  0  0  0  0  0  0
  -20.9450  -24.2840   25.8380 C   0  0  0  0  0  2  0  0  0  0  0  0
  -20.1450  -24.2070   24.5090 C   0  0  0  0  0  2  0  0  0  0  0  0
  -19.1860  -25.3960   24.0770 C   0  0  0  0  0  2  0  0  0  0  0  0
  -19.6960  -26.7210   23.4400 N   0  0  0  0  0  0  0  0  0  0  0  0
  -20.1700  -27.1500   24.2150 H   0  0  0  0  0  0  0  0  0  0  0  0
  -18.8380  -27.2600   23.3460 H   0  0  0  0  0  0  0  0  0  0  0  0
  -20.8700  -27.5930   21.4660 C   0  0  0  0  0 15  0  0  0  0  0  0
  -22.8460  -27.1420   20.8370 C   0  0  0  0  0 15  0  0  0  0  0  0
  -24.6800  -27.0100   21.1800 O   0  0  0  0  0  1  0  0  0  0  0  0
  -24.6780  -31.9440   23.2140 C   0  0  0  0  0  0  0  0  0  0  0  0
  -25.9960  -27.1910   20.5260 C   0  0  0  0  0  3  0  0  0  0  0  0
  -23.4850  -30.6250   21.5580 C   0  0  0  0  0  3  0  0  0  0  0  0
  -24.8210  -29.3090   19.8010 C   0  0  0  0  0  3  0  0  0  0  0  0
  -26.0000  -30.8370   21.3970 C   0  0  0  0  0  2  0  0  0  0  0  0
  -25.9070  -29.5170   20.6600 C   0  0  0  0  0  3  0  0  0  0  0  0
  -26.6930  -28.3820   20.9210 C   0  0  0  0  0  2  0  0  0  0  0  0
  -25.7600  -27.1500   19.1780 C   0  0  0  0  0  2  0  0  0  0  0  0
  -24.8590  -28.1930   18.9110 C   0  0  0  0  0  2  0  0  0  0  0  0
  -23.6010  -30.1480   20.0670 C   0  0  0  0  0  2  0  0  0  0  0  0
  -24.7410  -31.2010   22.0770 N   0  0  0  0  0  0  0  0  0  0  0  0
  -23.5950  -32.2100   23.7590 O   0  0  0  0  0  0  0  0  0  0  0  0
  -23.0660  -29.5580   22.5840 C   0  0  0  0  0  0  0  0  0  0  0  0
  -21.8230  -29.5410   22.9210 N   0  0  0  0  0  0  0  0  0  0  0  0
  -23.8370  -28.8030   23.1630 O   0  0  0  0  0  0  0  0  0  0  0  0
  -21.1980  -30.2390   22.5400 H   0  0  0  0  0  0  0  0  0  0  0  0
  -18.3760  -28.2560   22.2600 C   0  0  0  0  0  0  0  0  0  0  0  0
  -21.2280  -28.4250   23.6090 C   0  0  0  0  0  2  0  0  0  0  0  0
  -21.8550  -26.3580   23.0770 C   0  0  0  0  0 15  0  0  0  0  0  0
  -20.3290  -25.4090   21.6870 C   0  0  0  0  0 15  0  0  0  0  0  0
  -18.6130  -26.5820   21.4000 C   0  0  0  0  0  1  0  0  0  0  0  0
  -19.4910  -29.0390   23.1470 C   0  0  0  0  0  0  0  0  0  0  0  0
  -19.0490  -30.1620   23.8870 C   0  0  0  0  0  3  0  0  0  0  0  0
  -17.6970  -30.5400   23.9910 C   0  0  0  0  0  3  0  0  0  0  0  0
  -16.6950  -29.7600   23.3950 C   0  0  0  0  0  3  0  0  0  0  0  0
  -17.0270  -28.6490   22.5790 C   0  0  0  0  0  3  0  0  0  0  0  0
  -25.9640  -32.5080   23.8580 C   0  0  0  0  0  3  0  0  0  0  0  0
  -25.6480  -33.8820   24.2560 N   0  0  0  0  0  0  0  0  0  0  0  0
  -25.9190  -34.9610   23.5140 C   0  0  0  0  0  0  0  0  0  0  0  0
  -26.5520  -34.9030   22.4560 O   0  0  0  0  0  0  0  0  0  0  0  0
  -25.0860  -33.9970   25.0880 H   0  0  0  0  0  0  0  0  0  0  0  0
  -24.1530  -36.7330   23.2600 C   0  0  0  0  0  1  0  0  0  0  0  0
  -25.4160  -36.3190   24.0320 C   0  0  0  0  0  3  0  0  0  0  0  0
  -27.5610  -37.1890   24.8470 C   0  0  0  0  0  1  0  0  0  0  0  0
  -26.4320  -37.3900   23.9420 N   0  0  0  0  0  0  0  0  0  0  0  0
  -26.0190  -38.2960   24.1460 H   0  0  0  0  0  0  0  0  0  0  0  0
  -26.4670  -31.6640   25.0890 C   0  0  1  0  0  0  0  0  0  0  0  0
  -25.3760  -31.3780   26.1460 C   0  0  0  0  0  1  0  0  0  0  0  0
  -27.0420  -30.3030   24.6330 C   0  0  0  0  0  1  0  0  0  0  0  0
  -27.6230  -32.4220   25.7810 C   0  0  0  0  0  1  0  0  0  0  0  0
  2  4  2  0
  3  2  1  0
  3  1  1  0
  5  3  1  0
  6  2  1  0
  7  6  2  0
  9  8  1  0
  9 10  1  0
  9  7  1  0
 11 12  1  0
 11 10  2  0
 13 22  1  0
 13 12  1  0
 14 22  1  0
 15 20  1  0
 16 17  1  0
 16 15  1  0
 18 17  1  0
 18 27  1  0
 18 19  1  0
 20 14  1  0
 20 19  1  0
 21 14  2  0
 22 23  1  0
 24 25  2  0
 25 44  1  0
 26 25  1  0
 26 29  1  0
 27 24  1  0
 27 28  1  0
 28 26  2  0
 29 30  1  0
 30 31  2  0
 32 35  1  0
 32 31  1  0
 33 32  2  0
 34 33  1  0
 34 29  2  0
 35 36  1  0
 36 37  1  0
 37 38  2  0
 39 38  1  0
 39 43  1  0
 40 39  2  0
 41 36  2  0
 41 40  1  0
 42 41  1  0
 44 45  1  0
 45 48  1  0
 45 47  1  0
 46 44  2  0
 49 50  1  0
 49 24  1  0
 51 49  1  0
 52  1  1  0
 53 52  1  0
 54 53  1  0
 55 54  1  0
 55 56  1  0
 57 55  1  0
 61 72  2  0
 62 67  1  0
 62 60  1  0
 63 71  1  0
 63 73  1  0
 64 69  1  0
 64 70  1  0
 64 66  1  0
 65 71  1  0
 66 67  1  0
 66 65  1  0
 68 62  1  0
 69 68  1  0
 70 63  1  0
 71 61  1  0
 73 74  1  0
 73 75  2  0
 74 78  1  0
 76 74  1  0
 77 86  2  0
 77 82  1  0
 81 77  1  0
 82 78  1  0
 82 83  2  0
 83 84  1  0
 85 84  2  0
 86 85  1  0
 87 61  1  0
 87 88  1  0
 87 97  1  0
 88 91  1  0
 89 93  1  0
 89 88  1  0
 90 89  2  0
 93 92  1  0
 95 93  1  0
 95 96  1  0
 95 94  1  0
 97100  1  1
 97 98  1  0
 99 97  1  0
M  ISO  4  14 100  22 100  59 101  60 101
M  END
>  <TORSDO>  (28) 
F 28

>  <SCORE>  (28) 
76.855

>  <name>  (28) 
27

>  <ligand_id>  (28) 
27

>  <original_smiles>  (28) 
[H]C(=NC([H])([H])C([H])([H])N([H])C(=O)N1C([H])([H])C([H])([H])C([H])([H])C([H])(n2nc(-c3c([H])c([H])c(Oc4c([H])c([H])c(F)c([H])c4F)c([H])c3[H])c(C(=O)N([H])[H])c2N([H])[H])C1([H])[H])C([H])(C([H])=C([H])C(=O)N([H])C([H])([H])C([H])([H])C([H])([H])C([H])([H])[N+]([H])([H])C([H])([H])C([H])([H])Oc1c([H])c([H])c2c(c1[H])C([H])([H])N(C(=O)C([H])(N([H])C(=O)C([H])(N([H])C([H])([H])[H])C([H])([H])[H])C(C([H])([H])[H])(C([H])([H])[H])C([H])([H])[H])C([H])(C(=O)N([H])C1([H])c3c([H])c([H])c([H])c([H])c3C([H])([H])C([H])([H])C1([H])[H])C2([H])[H])C([H])([H])[H]

>  <smiles>  (28) 
[H]C(=NC([H])([H])C([H])([H])N([H])C(=O)N1C([H])([H])C([H])([H])C([H])([H])C([H])(n2nc(-c3c([H])c([H])c(Oc4c([H])c([H])c(F)c([H])c4F)c([H])c3[H])c(C(=O)N([H])[H])c2N([H])[H])C1([H])[H])C([H])(C([H])=C([H])C(=O)N([H])C([H])([H])C([H])([H])C([H])([H])C([H])([H])[N+]([H])([H])C([H])([H])C([H])([H])Oc1c([H])c([H])c2c(c1[H])C([H])([H])N(C(=O)C([H])(N([H])C(=O)C([H])(N([H])C([H])([H])[H])C([H])([H])[H])C(C([H])([H])[H])(C([H])([H])[H])C([H])([H])[H])C([H])(C(=O)N([H])C1([H])c3c([H])c([H])c([H])c([H])c3C([H])([H])C([H])([H])C1([H])[H])C2([H])[H])C([H])([H])[H]

$$$$
28:0:0
     RDKit          3D

100107  0  0  1  0  0  0  0  0999 V2000
  -22.9970  -22.6200   18.3070 C   0  0  0  0  0  2  0  0  0  0  0  0
  -23.7620  -22.3970   17.0500 N   0  0  0  0  0  4  0  0  0  0  0  0
  -23.0850  -22.4580   16.3050 H   0  0  0  0  0  0  0  0  0  0  0  0
  -24.4200  -23.1390   16.8770 H   0  0  0  0  0  0  0  0  0  0  0  0
  -24.4080  -21.0710   16.9050 C   0  0  0  0  0  2  0  0  0  0  0  0
  -25.9010  -21.0980   17.3000 C   0  0  0  0  0  2  0  0  0  0  0  0
  -26.3800  -19.8210   18.0080 C   0  0  0  0  0  2  0  0  0  0  0  0
  -27.8300  -19.9440   18.4880 C   0  0  0  0  0  2  0  0  0  0  0  0
  -28.1030  -18.8770   19.3770 O   0  0  0  0  0  0  0  0  0  0  0  0
  -29.4480  -18.8760   19.8220 C   0  0  0  0  0  2  0  0  0  0  0  0
  -29.6090  -17.7130   20.7980 C   0  0  0  0  0  2  0  0  0  0  0  0
  -31.0820  -17.4730   21.1700 C   0  0  0  0  0  2  0  0  0  0  0  0
  -31.3040  -16.2450   22.0750 C   0  0  0  0  0  2  0  0  0  0  0  0
  -30.9190  -14.4390   20.4040 C   0  0  0  0  0  0  0  0  0  0  0  0
  -30.4630  -12.4530   19.0260 C   0  0  0  0  0  2  0  0  0  0  0  0
  -29.4790  -12.7360   17.8770 C   0  0  0  0  0  2  0  0  0  0  0  0
  -28.0250  -12.5810   18.3540 C   0  0  0  0  0  2  0  0  0  0  0  0
  -27.7420  -13.3680   19.6590 C   0  0  0  0  0  3  0  0  0  0  0  0
  -28.8220  -13.0770   20.7240 C   0  0  0  0  0  2  0  0  0  0  0  0
  -30.1530  -13.3510   20.1450 N   0  0  0  0  0  0  0  0  0  0  0  0
  -31.8550  -14.8040   19.6860 O   0  0  0  0  0  0  0  0  0  0  0  0
  -30.6470  -15.0470   21.5620 N   0  0  0  0  0  0  0  0  0  0  0  0
  -29.9080  -14.6440   22.1200 H   0  0  0  0  0  0  0  0  0  0  0  0
  -25.3540  -13.9620   20.4270 C   0  0  0  0  0  0  0  0  0  0  0  0
  -24.2990  -13.1830   20.8130 C   0  0  0  0  0  0  0  0  0  0  0  0
  -24.7640  -11.8320   20.7550 C   0  0  0  0  0  0  0  0  0  0  0  0
  -26.3990  -13.0890   20.1640 N   0  0  0  0  0  0  0  0  0  0  0  0
  -26.0460  -11.8020   20.4160 N   0  0  0  0  0  0  0  0  0  0  0  0
  -24.0490  -10.5640   20.9490 C   0  0  0  0  0  0  0  0  0  0  0  0
  -24.4780   -9.6100   21.8980 C   0  0  0  0  0  3  0  0  0  0  0  0
  -23.7630   -8.4070   22.0780 C   0  0  0  0  0  3  0  0  0  0  0  0
  -22.6030   -8.1490   21.3080 C   0  0  0  0  0  0  0  0  0  0  0  0
  -22.1930   -9.0910   20.3490 C   0  0  0  0  0  3  0  0  0  0  0  0
  -22.9100  -10.2860   20.1680 C   0  0  0  0  0  3  0  0  0  0  0  0
  -21.8600   -6.9970   21.3960 O   0  0  0  0  0  0  0  0  0  0  0  0
  -21.7640   -6.2900   22.5680 C   0  0  0  0  0  0  0  0  0  0  0  0
  -21.2690   -6.8760   23.7530 C   0  0  0  0  0  3  0  0  0  0  0  0
  -21.1220   -6.0960   24.9160 C   0  0  0  0  0  3  0  0  0  0  0  0
  -21.4590   -4.7280   24.8950 C   0  0  0  0  0  0  0  0  0  0  0  0
  -21.9450   -4.1410   23.7140 C   0  0  0  0  0  3  0  0  0  0  0  0
  -22.0940   -4.9200   22.5530 C   0  0  0  0  0  0  0  0  0  0  0  0
  -22.5430   -4.3440   21.4120 F   0  0  0  0  0  0  0  0  0  0  0  0
  -21.3100   -3.9750   26.0100 F   0  0  0  0  0  0  0  0  0  0  0  0
  -22.9070  -13.6490   21.1280 C   0  0  0  0  0  0  0  0  0  0  0  0
  -22.2120  -12.9510   22.0200 N   0  0  0  0  0  0  0  0  0  0  0  0
  -22.4430  -14.6690   20.6180 O   0  0  0  0  0  0  0  0  0  0  0  0
  -22.6010  -12.1250   22.4520 H   0  0  0  0  0  0  0  0  0  0  0  0
  -21.2800  -13.2450   22.2730 H   0  0  0  0  0  0  0  0  0  0  0  0
  -25.5110  -15.3370   20.2620 N   0  0  0  0  0  0  0  0  0  0  0  0
  -24.7490  -15.9890   20.4080 H   0  0  0  0  0  0  0  0  0  0  0  0
  -26.3600  -15.7840   19.9420 H   0  0  0  0  0  0  0  0  0  0  0  0
  -23.7920  -22.4520   19.6330 C   0  0  0  0  0  2  0  0  0  0  0  0
  -24.7750  -23.5980   19.9590 C   0  0  0  0  0  2  0  0  0  0  0  0
  -25.4990  -23.3800   21.2390 N   0  0  0  0  0  4  0  0  0  0  0  0
  -26.0410  -22.5310   21.2040 H   0  0  0  0  0  0  0  0  0  0  0  0
  -24.8140  -23.2590   21.9700 H   0  0  0  0  0  0  0  0  0  0  0  0
  -26.3760  -24.4980   21.6640 C   0  0  0  0  0  2  0  0  0  0  0  0
  -27.7220  -24.5430   20.9100 C   0  0  0  0  0  2  0  0  0  0  0  0
  -28.5530  -25.8090   21.2090 C   0  0  0  0  0  2  0  0  0  0  0  0
  -28.4250  -26.8250   20.2120 O   0  0  0  0  0  0  0  0  0  0  0  0
  -24.6420  -31.9230   23.4450 C   0  0  0  0  0  0  0  0  0  0  0  0
  -27.2730  -27.5650   20.2600 C   0  0  0  0  0  0  0  0  0  0  0  0
  -23.4480  -30.5970   21.7350 C   0  0  0  0  0  3  0  0  0  0  0  0
  -24.9050  -29.0880   20.2870 C   0  0  0  0  0  0  0  0  0  0  0  0
  -25.9790  -30.9240   21.5950 C   0  0  0  0  0  2  0  0  0  0  0  0
  -26.0560  -29.5710   20.9260 C   0  0  0  0  0  0  0  0  0  0  0  0
  -27.2450  -28.8100   20.9210 C   0  0  0  0  0  3  0  0  0  0  0  0
  -26.1200  -27.1090   19.5880 C   0  0  0  0  0  3  0  0  0  0  0  0
  -24.9280  -27.8520   19.6210 C   0  0  0  0  0  3  0  0  0  0  0  0
  -23.6750  -29.9630   20.3370 C   0  0  0  0  0  2  0  0  0  0  0  0
  -24.7070  -31.1590   22.3200 N   0  0  0  0  0  0  0  0  0  0  0  0
  -23.5540  -32.1960   23.9700 O   0  0  0  0  0  0  0  0  0  0  0  0
  -22.7610  -29.5510   22.6430 C   0  0  0  0  0  0  0  0  0  0  0  0
  -21.4360  -29.4030   22.4850 N   0  0  0  0  0  0  0  0  0  0  0  0
  -23.4170  -28.8810   23.4450 O   0  0  0  0  0  0  0  0  0  0  0  0
  -20.9710  -30.0010   21.8160 H   0  0  0  0  0  0  0  0  0  0  0  0
  -18.0220  -28.2910   22.8850 C   0  0  0  0  0  0  0  0  0  0  0  0
  -20.5810  -28.4590   23.2050 C   0  0  0  0  0  3  0  0  0  0  0  0
  -20.6510  -27.0520   22.5680 C   0  0  0  0  0  2  0  0  0  0  0  0
  -19.5570  -26.8000   21.5270 C   0  0  0  0  0  2  0  0  0  0  0  0
  -18.1720  -26.9640   22.1600 C   0  0  0  0  0  2  0  0  0  0  0  0
  -19.1560  -29.0000   23.3640 C   0  0  0  0  0  0  0  0  0  0  0  0
  -18.9660  -30.2440   24.0040 C   0  0  0  0  0  3  0  0  0  0  0  0
  -17.6760  -30.7780   24.1720 C   0  0  0  0  0  3  0  0  0  0  0  0
  -16.5560  -30.0640   23.7140 C   0  0  0  0  0  3  0  0  0  0  0  0
  -16.7280  -28.8220   23.0750 C   0  0  0  0  0  3  0  0  0  0  0  0
  -25.9260  -32.5090   24.1110 C   0  0  0  0  0  3  0  0  0  0  0  0
  -25.6540  -33.9180   24.4250 N   0  0  0  0  0  0  0  0  0  0  0  0
  -26.0620  -34.9530   23.6790 C   0  0  0  0  0  0  0  0  0  0  0  0
  -26.7730  -34.8210   22.6790 O   0  0  0  0  0  0  0  0  0  0  0  0
  -25.0260  -34.1020   25.1930 H   0  0  0  0  0  0  0  0  0  0  0  0
  -24.4260  -36.8110   23.2410 C   0  0  0  0  0  1  0  0  0  0  0  0
  -25.6090  -36.3590   24.1110 C   0  0  0  0  0  3  0  0  0  0  0  0
  -27.7350  -37.1610   25.0440 C   0  0  0  0  0  1  0  0  0  0  0  0
  -26.6870  -37.3710   24.0480 N   0  0  0  0  0  0  0  0  0  0  0  0
  -26.3110  -38.3070   24.1780 H   0  0  0  0  0  0  0  0  0  0  0  0
  -26.3680  -31.7180   25.4030 C   0  0  1  0  0  0  0  0  0  0  0  0
  -25.2270  -31.5130   26.4260 C   0  0  0  0  0  1  0  0  0  0  0  0
  -26.9100  -30.3210   25.0210 C   0  0  0  0  0  1  0  0  0  0  0  0
  -27.5230  -32.4660   26.1090 C   0  0  0  0  0  1  0  0  0  0  0  0
  1 52  1  0
  2  1  1  0
  3  2  1  0
  4  2  1  0
  5  2  1  0
  5  6  1  0
  6  7  1  0
  7  8  1  0
  8  9  1  0
  9 10  1  0
 10 11  1  0
 11 12  1  0
 12 13  1  0
 14 22  1  0
 15 20  1  0
 16 17  1  0
 16 15  1  0
 18 17  1  0
 18 27  1  0
 18 19  1  0
 20 14  1  0
 20 19  1  0
 21 14  2  0
 22 13  1  0
 22 23  1  0
 24 25  2  0
 25 44  1  0
 26 25  1  0
 26 29  1  0
 27 28  1  0
 27 24  1  0
 28 26  2  0
 29 30  1  0
 30 31  2  0
 32 35  1  0
 32 31  1  0
 33 32  2  0
 34 33  1  0
 34 29  2  0
 35 36  1  0
 36 37  1  0
 37 38  2  0
 39 38  1  0
 39 43  1  0
 40 39  2  0
 41 36  2  0
 41 40  1  0
 42 41  1  0
 44 45  1  0
 45 48  1  0
 45 47  1  0
 46 44  2  0
 49 50  1  0
 49 24  1  0
 51 49  1  0
 52 53  1  0
 53 54  1  0
 54 57  1  0
 54 56  1  0
 55 54  1  0
 58 59  1  0
 58 57  1  0
 60 62  1  0
 60 59  1  0
 61 72  2  0
 62 67  1  0
 63 71  1  0
 63 73  1  0
 64 70  1  0
 64 66  1  0
 65 71  1  0
 66 65  1  0
 67 66  2  0
 68 69  1  0
 68 62  2  0
 69 64  2  0
 70 63  1  0
 71 61  1  0
 73 75  2  0
 74 73  1  0
 76 74  1  0
 77 86  2  0
 77 82  1  0
 78 74  1  0
 78 82  1  0
 79 78  1  0
 80 81  1  0
 80 79  1  0
 81 77  1  0
 82 83  2  0
 83 84  1  0
 85 84  2  0
 86 85  1  0
 87 61  1  0
 87 88  1  0
 87 97  1  0
 88 91  1  0
 89 93  1  0
 89 88  1  0
 90 89  2  0
 93 92  1  0
 95 93  1  0
 95 96  1  0
 95 94  1  0
 97100  1  1
 97 98  1  0
 99 97  1  0
M  ISO  4  14 100  22 100  59 101  60 101
M  END
>  <TORSDO>  (29) 
F 32

>  <SCORE>  (29) 
-10.035

>  <name>  (29) 
28

>  <ligand_id>  (29) 
28

>  <original_smiles>  (29) 
[H]c1c([H])c([H])c2c(c1[H])C([H])([H])C([H])([H])C([H])([H])C2([H])N([H])C(=O)C1([H])N(C(=O)C([H])(N([H])C(=O)C([H])(N([H])C([H])([H])[H])C([H])([H])[H])C(C([H])([H])[H])(C([H])([H])[H])C([H])([H])[H])C([H])([H])c2c([H])c(OC([H])([H])C([H])([H])C([H])([H])[N+]([H])([H])C([H])([H])C([H])([H])C([H])([H])[N+]([H])([H])C([H])([H])C([H])([H])C([H])([H])C([H])([H])OC([H])([H])C([H])([H])C([H])([H])C([H])([H])N([H])C(=O)N3C([H])([H])C([H])([H])C([H])([H])C([H])(n4nc(-c5c([H])c([H])c(Oc6c([H])c([H])c(F)c([H])c6F)c([H])c5[H])c(C(=O)N([H])[H])c4N([H])[H])C3([H])[H])c([H])c([H])c2C1([H])[H]

>  <smiles>  (29) 
[H]c1c([H])c([H])c2c(c1[H])C([H])([H])C([H])([H])C([H])([H])C2([H])N([H])C(=O)C1([H])N(C(=O)C([H])(N([H])C(=O)C([H])(N([H])C([H])([H])[H])C([H])([H])[H])C(C([H])([H])[H])(C([H])([H])[H])C([H])([H])[H])C([H])([H])c2c([H])c(OC([H])([H])C([H])([H])C([H])([H])[N+]([H])([H])C([H])([H])C([H])([H])C([H])([H])[N+]([H])([H])C([H])([H])C([H])([H])C([H])([H])C([H])([H])OC([H])([H])C([H])([H])C([H])([H])C([H])([H])N([H])C(=O)N3C([H])([H])C([H])([H])C([H])([H])C([H])(n4nc(-c5c([H])c([H])c(Oc6c([H])c([H])c(F)c([H])c6F)c([H])c5[H])c(C(=O)N([H])[H])c4N([H])[H])C3([H])[H])c([H])c([H])c2C1([H])[H]

$$$$
29:0:0
     RDKit          3D

 94101  0  0  1  0  0  0  0  0999 V2000
  -29.5520  -22.3610   23.1850 C   0  0  0  0  0  3  0  0  0  0  0  0
  -30.1040  -23.5840   23.2580 C   0  0  0  0  0  3  0  0  0  0  0  0
  -29.2460  -24.7400   23.3180 C   0  0  0  0  0  0  0  0  0  0  0  0
  -29.0970  -25.3600   22.1410 N   0  0  0  0  0  0  0  0  0  0  0  0
  -28.6830  -25.1430   24.3330 O   0  0  0  0  0  0  0  0  0  0  0  0
  -28.5270  -26.1940   22.1290 H   0  0  0  0  0  0  0  0  0  0  0  0
  -29.6020  -24.9490   20.8270 C   0  0  0  0  0  2  0  0  0  0  0  0
  -28.6690  -25.4930   19.7460 C   0  0  0  0  0  2  0  0  0  0  0  0
  -28.5900  -26.8970   19.9630 O   0  0  0  0  0  0  0  0  0  0  0  0
  -24.6580  -31.8450   23.1810 C   0  0  0  0  0  0  0  0  0  0  0  0
  -27.3640  -27.5190   20.0030 C   0  0  0  0  0  0  0  0  0  0  0  0
  -23.4640  -30.4470   21.5250 C   0  0  0  0  0  3  0  0  0  0  0  0
  -24.9300  -28.9510   20.0780 C   0  0  0  0  0  0  0  0  0  0  0  0
  -25.9790  -30.8500   21.3210 C   0  0  0  0  0  2  0  0  0  0  0  0
  -26.0800  -29.4920   20.6640 C   0  0  0  0  0  0  0  0  0  0  0  0
  -27.2970  -28.7810   20.6280 C   0  0  0  0  0  3  0  0  0  0  0  0
  -26.1950  -26.9840   19.4120 C   0  0  0  0  0  3  0  0  0  0  0  0
  -24.9800  -27.6910   19.4550 C   0  0  0  0  0  3  0  0  0  0  0  0
  -23.6740  -29.7880   20.1360 C   0  0  0  0  0  2  0  0  0  0  0  0
  -24.7190  -31.0610   22.0680 N   0  0  0  0  0  0  0  0  0  0  0  0
  -23.5770  -32.0950   23.7290 O   0  0  0  0  0  0  0  0  0  0  0  0
  -22.8320  -29.4050   22.4740 C   0  0  0  0  0  0  0  0  0  0  0  0
  -21.5110  -29.2050   22.3460 N   0  0  0  0  0  0  0  0  0  0  0  0
  -23.5260  -28.7780   23.2780 O   0  0  0  0  0  0  0  0  0  0  0  0
  -21.0080  -29.7630   21.6710 H   0  0  0  0  0  0  0  0  0  0  0  0
  -18.1570  -27.9660   22.8370 C   0  0  0  0  0  0  0  0  0  0  0  0
  -20.7110  -28.2460   23.1070 C   0  0  0  0  0  3  0  0  0  0  0  0
  -20.8270  -26.8250   22.5100 C   0  0  0  0  0  2  0  0  0  0  0  0
  -19.7270  -26.5060   21.4930 C   0  0  0  0  0  2  0  0  0  0  0  0
  -18.3460  -26.6280   22.1420 C   0  0  0  0  0  2  0  0  0  0  0  0
  -19.2680  -28.7330   23.2750 C   0  0  0  0  0  0  0  0  0  0  0  0
  -19.0380  -29.9900   23.8800 C   0  0  0  0  0  3  0  0  0  0  0  0
  -17.7280  -30.4750   24.0540 C   0  0  0  0  0  3  0  0  0  0  0  0
  -16.6310  -29.7030   23.6330 C   0  0  0  0  0  3  0  0  0  0  0  0
  -16.8470  -28.4510   23.0280 C   0  0  0  0  0  3  0  0  0  0  0  0
  -25.9400  -32.4830   23.8030 C   0  0  0  0  0  3  0  0  0  0  0  0
  -25.6160  -33.8730   24.1490 N   0  0  0  0  0  0  0  0  0  0  0  0
  -25.9360  -34.9370   23.4010 C   0  0  0  0  0  0  0  0  0  0  0  0
  -26.6080  -34.8550   22.3690 O   0  0  0  0  0  0  0  0  0  0  0  0
  -25.0200  -34.0120   24.9520 H   0  0  0  0  0  0  0  0  0  0  0  0
  -24.1880  -36.7130   23.0640 C   0  0  0  0  0  1  0  0  0  0  0  0
  -25.4310  -36.3130   23.8750 C   0  0  0  0  0  3  0  0  0  0  0  0
  -27.5500  -37.2130   24.7300 C   0  0  0  0  0  1  0  0  0  0  0  0
  -26.4520  -37.3790   23.7800 N   0  0  0  0  0  0  0  0  0  0  0  0
  -26.0330  -38.2930   23.9360 H   0  0  0  0  0  0  0  0  0  0  0  0
  -26.4760  -31.7000   25.0630 C   0  0  1  0  0  0  0  0  0  0  0  0
  -25.3940  -31.4320   26.1340 C   0  0  0  0  0  1  0  0  0  0  0  0
  -27.0750  -30.3380   24.6440 C   0  0  0  0  0  1  0  0  0  0  0  0
  -27.6200  -32.5020   25.7300 C   0  0  0  0  0  1  0  0  0  0  0  0
  -30.4150  -21.2160   23.0400 C   0  0  0  0  0  0  0  0  0  0  0  0
  -29.8380  -20.2690   22.2960 N   0  0  0  0  0  0  0  0  0  0  0  0
  -31.5730  -21.1390   23.4570 O   0  0  0  0  0  0  0  0  0  0  0  0
  -28.8780  -20.4210   22.0110 H   0  0  0  0  0  0  0  0  0  0  0  0
  -30.5840  -19.2290   21.6020 C   0  0  0  0  0  2  0  0  0  0  0  0
  -29.9860  -17.8290   21.7900 C   0  0  0  0  0  2  0  0  0  0  0  0
  -30.8420  -16.8370   20.9970 C   0  0  0  0  0  2  0  0  0  0  0  0
  -30.8550  -14.5450   20.1930 C   0  0  0  0  0  0  0  0  0  0  0  0
  -30.4330  -12.4860   18.9260 C   0  0  0  0  0  2  0  0  0  0  0  0
  -29.4570  -12.7900   17.7750 C   0  0  0  0  0  2  0  0  0  0  0  0
  -27.9940  -12.6780   18.2490 C   0  0  0  0  0  2  0  0  0  0  0  0
  -27.7270  -13.4370   19.5780 C   0  0  0  0  0  3  0  0  0  0  0  0
  -28.8180  -13.1240   20.6280 C   0  0  0  0  0  2  0  0  0  0  0  0
  -30.1300  -13.4120   20.0260 N   0  0  0  0  0  0  0  0  0  0  0  0
  -31.9080  -14.7720   19.5910 O   0  0  0  0  0  0  0  0  0  0  0  0
  -30.3120  -15.4790   20.9800 N   0  0  0  0  0  0  0  0  0  0  0  0
  -29.4500  -15.2710   21.4600 H   0  0  0  0  0  0  0  0  0  0  0  0
  -25.3380  -14.0240   20.3420 C   0  0  0  0  0  0  0  0  0  0  0  0
  -24.2890  -13.2420   20.7460 C   0  0  0  0  0  0  0  0  0  0  0  0
  -24.7640  -11.8970   20.7150 C   0  0  0  0  0  0  0  0  0  0  0  0
  -26.3870  -13.1530   20.0920 N   0  0  0  0  0  0  0  0  0  0  0  0
  -26.0460  -11.8690   20.3690 N   0  0  0  0  0  0  0  0  0  0  0  0
  -24.0570  -10.6270   20.9350 C   0  0  0  0  0  0  0  0  0  0  0  0
  -24.4970   -9.6970   21.9030 C   0  0  0  0  0  3  0  0  0  0  0  0
  -23.7920   -8.4920   22.1100 C   0  0  0  0  0  3  0  0  0  0  0  0
  -22.6320   -8.2080   21.3500 C   0  0  0  0  0  0  0  0  0  0  0  0
  -22.2110   -9.1270   20.3720 C   0  0  0  0  0  3  0  0  0  0  0  0
  -22.9180  -10.3240   20.1620 C   0  0  0  0  0  3  0  0  0  0  0  0
  -21.9000   -7.0510   21.4640 O   0  0  0  0  0  0  0  0  0  0  0  0
  -21.8080   -6.3710   22.6530 C   0  0  0  0  0  0  0  0  0  0  0  0
  -21.3100   -6.9820   23.8240 C   0  0  0  0  0  3  0  0  0  0  0  0
  -21.1660   -6.2270   25.0050 C   0  0  0  0  0  3  0  0  0  0  0  0
  -21.5090   -4.8610   25.0150 C   0  0  0  0  0  0  0  0  0  0  0  0
  -22.0010   -4.2500   23.8490 C   0  0  0  0  0  3  0  0  0  0  0  0
  -22.1470   -5.0030   22.6700 C   0  0  0  0  0  0  0  0  0  0  0  0
  -22.6000   -4.4040   21.5420 F   0  0  0  0  0  0  0  0  0  0  0  0
  -21.3660   -4.1330   26.1470 F   0  0  0  0  0  0  0  0  0  0  0  0
  -22.8930  -13.7050   21.0530 C   0  0  0  0  0  0  0  0  0  0  0  0
  -22.2000  -13.0130   21.9490 N   0  0  0  0  0  0  0  0  0  0  0  0
  -22.4260  -14.7180   20.5330 O   0  0  0  0  0  0  0  0  0  0  0  0
  -22.5910  -12.1980   22.4000 H   0  0  0  0  0  0  0  0  0  0  0  0
  -21.2630  -13.3020   22.1910 H   0  0  0  0  0  0  0  0  0  0  0  0
  -25.4800  -15.3940   20.1460 N   0  0  0  0  0  0  0  0  0  0  0  0
  -24.7090  -16.0400   20.2740 H   0  0  0  0  0  0  0  0  0  0  0  0
  -26.3170  -15.8410   19.7950 H   0  0  0  0  0  0  0  0  0  0  0  0
  1  2  2  0
  2  3  1  0
  3  5  2  0
  4  3  1  0
  6  4  1  0
  7  4  1  0
  8  9  1  0
  8  7  1  0
  9 11  1  0
 10 21  2  0
 11 16  1  0
 12 20  1  0
 12 22  1  0
 13 19  1  0
 13 15  1  0
 14 20  1  0
 15 14  1  0
 16 15  2  0
 17 18  1  0
 17 11  2  0
 18 13  2  0
 19 12  1  0
 20 10  1  0
 22 24  2  0
 23 22  1  0
 25 23  1  0
 26 35  2  0
 26 31  1  0
 27 23  1  0
 27 31  1  0
 28 27  1  0
 29 30  1  0
 29 28  1  0
 30 26  1  0
 31 32  2  0
 32 33  1  0
 34 33  2  0
 35 34  1  0
 36 10  1  0
 36 37  1  0
 36 46  1  0
 37 40  1  0
 38 42  1  0
 38 37  1  0
 39 38  2  0
 42 41  1  0
 44 42  1  0
 44 45  1  0
 44 43  1  0
 46 49  1  1
 46 47  1  0
 48 46  1  0
 50  1  1  0
 50 52  2  0
 51 50  1  0
 53 51  1  0
 54 55  1  0
 54 51  1  0
 56 55  1  0
 57 65  1  0
 58 63  1  0
 59 60  1  0
 59 58  1  0
 61 60  1  0
 61 70  1  0
 61 62  1  0
 63 57  1  0
 63 62  1  0
 64 57  2  0
 65 56  1  0
 65 66  1  0
 67 68  2  0
 68 87  1  0
 69 68  1  0
 69 72  1  0
 70 67  1  0
 70 71  1  0
 71 69  2  0
 72 73  1  0
 73 74  2  0
 75 78  1  0
 75 74  1  0
 76 75  2  0
 77 76  1  0
 77 72  2  0
 78 79  1  0
 79 84  2  0
 79 80  1  0
 80 81  2  0
 81 82  1  0
 82 86  1  0
 83 82  2  0
 84 83  1  0
 85 84  1  0
 87 88  1  0
 88 91  1  0
 88 90  1  0
 89 87  2  0
 92 93  1  0
 92 67  1  0
 94 92  1  0
M  ISO  4   8 101   9 101  57 100  65 100
M  END
>  <TORSDO>  (30) 
F 23

>  <SCORE>  (30) 
-12.234

>  <name>  (30) 
29

>  <ligand_id>  (30) 
29

>  <original_smiles>  (30) 
[H]C(C(=O)N([H])C([H])([H])C([H])([H])Oc1c([H])c([H])c2c(c1[H])C([H])([H])N(C(=O)C([H])(N([H])C(=O)C([H])(N([H])C([H])([H])[H])C([H])([H])[H])C(C([H])([H])[H])(C([H])([H])[H])C([H])([H])[H])C([H])(C(=O)N([H])C1([H])c3c([H])c([H])c([H])c([H])c3C([H])([H])C([H])([H])C1([H])[H])C2([H])[H])=C([H])C(=O)N([H])C([H])([H])C([H])([H])C([H])([H])N([H])C(=O)N1C([H])([H])C([H])([H])C([H])([H])C([H])(n2nc(-c3c([H])c([H])c(Oc4c([H])c([H])c(F)c([H])c4F)c([H])c3[H])c(C(=O)N([H])[H])c2N([H])[H])C1([H])[H]

>  <smiles>  (30) 
[H]C(C(=O)N([H])C([H])([H])C([H])([H])Oc1c([H])c([H])c2c(c1[H])C([H])([H])N(C(=O)C([H])(N([H])C(=O)C([H])(N([H])C([H])([H])[H])C([H])([H])[H])C(C([H])([H])[H])(C([H])([H])[H])C([H])([H])[H])C([H])(C(=O)N([H])C1([H])c3c([H])c([H])c([H])c([H])c3C([H])([H])C([H])([H])C1([H])[H])C2([H])[H])=C([H])C(=O)N([H])C([H])([H])C([H])([H])C([H])([H])N([H])C(=O)N1C([H])([H])C([H])([H])C([H])([H])C([H])(n2nc(-c3c([H])c([H])c(Oc4c([H])c([H])c(F)c([H])c4F)c([H])c3[H])c(C(=O)N([H])[H])c2N([H])[H])C1([H])[H]

$$$$
30:0:0
     RDKit          3D

 97104  0  0  1  0  0  0  0  0999 V2000
  -29.5330  -21.8840   22.7820 C   0  0  0  0  0  0  0  0  0  0  0  0
  -28.3580  -22.4880   22.5400 N   0  0  0  0  0  0  0  0  0  0  0  0
  -30.5940  -22.2620   22.2850 O   0  0  0  0  0  0  0  0  0  0  0  0
  -27.5560  -22.1180   23.0310 H   0  0  0  0  0  0  0  0  0  0  0  0
  -29.5300  -20.6900   23.7410 C   0  0  0  0  0  2  0  0  0  0  0  0
  -30.9170  -20.0120   23.9280 C   0  0  0  0  0  2  0  0  0  0  0  0
  -31.4900  -19.3860   22.7070 N   0  0  0  0  0  4  0  0  0  0  0  0
  -31.5940  -20.0840   21.9870 H   0  0  0  0  0  0  0  0  0  0  0  0
  -32.4190  -19.0830   22.9580 H   0  0  0  0  0  0  0  0  0  0  0  0
  -30.7580  -18.1990   22.1900 C   0  0  0  0  0  2  0  0  0  0  0  0
  -31.4180  -17.5630   20.9430 C   0  0  0  0  0  2  0  0  0  0  0  0
  -31.5740  -15.2600   19.9630 C   0  0  0  0  0  0  0  0  0  0  0  0
  -31.3440  -13.0140   18.9630 C   0  0  0  0  0  2  0  0  0  0  0  0
  -30.4130  -13.0770   17.7380 C   0  0  0  0  0  2  0  0  0  0  0  0
  -28.9450  -12.9120   18.1720 C   0  0  0  0  0  2  0  0  0  0  0  0
  -28.5660  -13.8690   19.3350 C   0  0  0  0  0  3  0  0  0  0  0  0
  -29.6030  -13.7700   20.4740 C   0  0  0  0  0  2  0  0  0  0  0  0
  -30.9330  -14.0630   19.9060 N   0  0  0  0  0  0  0  0  0  0  0  0
  -32.5970  -15.5180   19.3210 O   0  0  0  0  0  0  0  0  0  0  0  0
  -30.9980  -16.1680   20.7650 N   0  0  0  0  0  0  0  0  0  0  0  0
  -30.1880  -15.8540   21.2790 H   0  0  0  0  0  0  0  0  0  0  0  0
  -26.1490  -14.4910   19.9650 C   0  0  0  0  0  0  0  0  0  0  0  0
  -25.0960  -13.7360   20.3990 C   0  0  0  0  0  0  0  0  0  0  0  0
  -25.5820  -12.3930   20.4830 C   0  0  0  0  0  0  0  0  0  0  0  0
  -27.2140  -13.6140   19.8170 N   0  0  0  0  0  0  0  0  0  0  0  0
  -26.8740  -12.3520   20.1840 N   0  0  0  0  0  0  0  0  0  0  0  0
  -24.8830  -11.1390   20.7830 C   0  0  0  0  0  0  0  0  0  0  0  0
  -25.2650  -10.3200   21.8670 C   0  0  0  0  0  3  0  0  0  0  0  0
  -24.5660   -9.1260   22.1420 C   0  0  0  0  0  3  0  0  0  0  0  0
  -23.4730   -8.7400   21.3340 C   0  0  0  0  0  0  0  0  0  0  0  0
  -23.1120   -9.5460   20.2400 C   0  0  0  0  0  3  0  0  0  0  0  0
  -23.8110  -10.7330   19.9650 C   0  0  0  0  0  3  0  0  0  0  0  0
  -22.7520   -7.5850   21.5120 O   0  0  0  0  0  0  0  0  0  0  0  0
  -22.3690   -7.1600   22.7580 C   0  0  0  0  0  0  0  0  0  0  0  0
  -21.5770   -7.9620   23.6080 C   0  0  0  0  0  3  0  0  0  0  0  0
  -21.1480   -7.4580   24.8530 C   0  0  0  0  0  3  0  0  0  0  0  0
  -21.5020   -6.1530   25.2440 C   0  0  0  0  0  0  0  0  0  0  0  0
  -22.2870   -5.3530   24.3980 C   0  0  0  0  0  3  0  0  0  0  0  0
  -22.7180   -5.8540   23.1560 C   0  0  0  0  0  0  0  0  0  0  0  0
  -23.4580   -5.0710   22.3340 F   0  0  0  0  0  0  0  0  0  0  0  0
  -21.0840   -5.6650   26.4370 F   0  0  0  0  0  0  0  0  0  0  0  0
  -23.6890  -14.2030   20.6330 C   0  0  0  0  0  0  0  0  0  0  0  0
  -22.9810  -13.5790   21.5660 N   0  0  0  0  0  0  0  0  0  0  0  0
  -23.2240  -15.1650   20.0220 O   0  0  0  0  0  0  0  0  0  0  0  0
  -23.3680  -12.7950   22.0750 H   0  0  0  0  0  0  0  0  0  0  0  0
  -22.0420  -13.8850   21.7750 H   0  0  0  0  0  0  0  0  0  0  0  0
  -26.2940  -15.8440   19.6670 N   0  0  0  0  0  0  0  0  0  0  0  0
  -25.5220  -16.4990   19.7080 H   0  0  0  0  0  0  0  0  0  0  0  0
  -27.1380  -16.2550   19.2850 H   0  0  0  0  0  0  0  0  0  0  0  0
  -28.1610  -23.7600   21.8340 C   0  0  0  0  0  2  0  0  0  0  0  0
  -27.4350  -23.6290   20.4760 C   0  0  0  0  0  2  0  0  0  0  0  0
  -28.2860  -23.1480   19.2800 C   0  0  0  0  0  2  0  0  0  0  0  0
  -29.3910  -24.0010   19.0130 O   0  0  0  0  0  0  0  0  0  0  0  0
  -30.6540  -23.4870   19.4310 C   0  0  0  0  0  2  0  0  0  0  0  0
  -31.5750  -24.6540   19.8020 C   0  0  0  0  0  2  0  0  0  0  0  0
  -31.1270  -25.4030   21.0680 C   0  0  0  0  0  2  0  0  0  0  0  0
  -31.1180  -26.8130   20.8450 O   0  0  0  0  0  0  0  0  0  0  0  0
  -26.0880  -30.1890   24.5170 C   0  0  0  0  0  0  0  0  0  0  0  0
  -29.8520  -27.3400   20.8260 C   0  0  0  0  0  0  0  0  0  0  0  0
  -25.3570  -29.1880   22.3740 C   0  0  0  0  0  3  0  0  0  0  0  0
  -27.2300  -28.3760   20.8460 C   0  0  0  0  0  0  0  0  0  0  0  0
  -27.7720  -29.9670   22.6960 C   0  0  0  0  0  2  0  0  0  0  0  0
  -28.1880  -28.8750   21.7370 C   0  0  0  0  0  0  0  0  0  0  0  0
  -29.5020  -28.3650   21.7290 C   0  0  0  0  0  3  0  0  0  0  0  0
  -28.8770  -26.8380   19.9360 C   0  0  0  0  0  3  0  0  0  0  0  0
  -27.5680  -27.3550   19.9410 C   0  0  0  0  0  3  0  0  0  0  0  0
  -25.8450  -28.9840   20.9150 C   0  0  0  0  0  2  0  0  0  0  0  0
  -26.4160  -29.7750   23.2610 N   0  0  0  0  0  0  0  0  0  0  0  0
  -24.9200  -30.1300   24.9270 O   0  0  0  0  0  0  0  0  0  0  0  0
  -24.7990  -27.8460   22.8900 C   0  0  0  0  0  0  0  0  0  0  0  0
  -23.6280  -27.4470   22.3690 N   0  0  0  0  0  0  0  0  0  0  0  0
  -25.4260  -27.1780   23.7180 O   0  0  0  0  0  0  0  0  0  0  0  0
  -23.1740  -28.0590   21.7060 H   0  0  0  0  0  0  0  0  0  0  0  0
  -20.7650  -25.4330   21.4930 C   0  0  0  0  0  0  0  0  0  0  0  0
  -22.9330  -26.1970   22.6710 C   0  0  0  0  0  3  0  0  0  0  0  0
  -23.6160  -24.9960   21.9770 C   0  0  0  0  0  2  0  0  0  0  0  0
  -23.0100  -24.6690   20.6080 C   0  0  0  0  0  2  0  0  0  0  0  0
  -21.5190  -24.3450   20.7460 C   0  0  0  0  0  2  0  0  0  0  0  0
  -21.4330  -26.3120   22.3850 C   0  0  0  0  0  0  0  0  0  0  0  0
  -20.6950  -27.3290   23.0300 C   0  0  0  0  0  3  0  0  0  0  0  0
  -19.3140  -27.4740   22.7940 C   0  0  0  0  0  3  0  0  0  0  0  0
  -18.6550  -26.5910   21.9240 C   0  0  0  0  0  3  0  0  0  0  0  0
  -19.3780  -25.5680   21.2820 C   0  0  0  0  0  3  0  0  0  0  0  0
  -27.1590  -30.7700   25.4930 C   0  0  0  0  0  3  0  0  0  0  0  0
  -26.8230  -32.1820   25.7250 N   0  0  0  0  0  0  0  0  0  0  0  0
  -27.4280  -33.2160   25.1260 C   0  0  0  0  0  0  0  0  0  0  0  0
  -28.3910  -33.0810   24.3660 O   0  0  0  0  0  0  0  0  0  0  0  0
  -26.0110  -32.3650   26.2940 H   0  0  0  0  0  0  0  0  0  0  0  0
  -26.0040  -35.0850   24.2340 C   0  0  0  0  0  1  0  0  0  0  0  0
  -26.8770  -34.6260   25.4120 C   0  0  0  0  0  3  0  0  0  0  0  0
  -28.6640  -35.3900   26.9120 C   0  0  0  0  0  1  0  0  0  0  0  0
  -27.9350  -35.6270   25.6680 N   0  0  0  0  0  0  0  0  0  0  0  0
  -27.5450  -36.5650   25.7050 H   0  0  0  0  0  0  0  0  0  0  0  0
  -27.2510  -29.9860   26.8580 C   0  0  1  0  0  0  0  0  0  0  0  0
  -25.8830  -29.8110   27.5580 C   0  0  0  0  0  1  0  0  0  0  0  0
  -27.8560  -28.5790   26.6350 C   0  0  0  0  0  1  0  0  0  0  0  0
  -28.1990  -30.7260   27.8280 C   0  0  0  0  0  1  0  0  0  0  0  0
  1  5  1  0
  2  1  1  0
  2  4  1  0
  3  1  2  0
  5  6  1  0
  7  9  1  0
  7  6  1  0
  8  7  1  0
 10  7  1  0
 11 10  1  0
 12 20  1  0
 13 18  1  0
 14 15  1  0
 14 13  1  0
 16 15  1  0
 16 25  1  0
 16 17  1  0
 18 12  1  0
 18 17  1  0
 19 12  2  0
 20 11  1  0
 20 21  1  0
 22 23  2  0
 23 24  1  0
 23 42  1  0
 24 27  1  0
 25 22  1  0
 25 26  1  0
 26 24  2  0
 27 28  1  0
 28 29  2  0
 30 33  1  0
 30 29  1  0
 31 30  2  0
 32 31  1  0
 32 27  2  0
 33 34  1  0
 34 39  2  0
 34 35  1  0
 35 36  2  0
 36 37  1  0
 37 41  1  0
 38 37  2  0
 39 38  1  0
 40 39  1  0
 42 43  1  0
 43 46  1  0
 43 45  1  0
 44 42  2  0
 47 48  1  0
 47 22  1  0
 49 47  1  0
 50  2  1  0
 51 50  1  0
 52 51  1  0
 53 52  1  0
 53 54  1  0
 54 55  1  0
 55 56  1  0
 57 56  1  0
 58 69  2  0
 59 57  1  0
 59 64  1  0
 60 70  1  0
 60 68  1  0
 61 67  1  0
 61 63  1  0
 62 68  1  0
 63 62  1  0
 64 63  2  0
 65 66  1  0
 65 59  2  0
 66 61  2  0
 67 60  1  0
 68 58  1  0
 70 72  2  0
 71 70  1  0
 73 71  1  0
 74 79  1  0
 75 71  1  0
 76 75  1  0
 77 78  1  0
 77 76  1  0
 78 74  1  0
 79 75  1  0
 79 80  2  0
 81 80  1  0
 82 81  2  0
 83 74  2  0
 83 82  1  0
 84 58  1  0
 84 85  1  0
 84 94  1  0
 85 88  1  0
 86 90  1  0
 86 85  1  0
 87 86  2  0
 90 89  1  0
 90 92  1  0
 92 93  1  0
 92 91  1  0
 94 95  1  1
 94 97  1  0
 96 94  1  0
M  ISO  4  12 100  20 100  56 101  57 101
M  END
>  <TORSDO>  (31) 
F 28

>  <SCORE>  (31) 
-6.507

>  <name>  (31) 
30

>  <ligand_id>  (31) 
30

>  <original_smiles>  (31) 
[H]c1c([H])c([H])c2c(c1[H])C([H])([H])C([H])([H])C([H])([H])C2([H])N([H])C(=O)C1([H])N(C(=O)C([H])(N([H])C(=O)C([H])(N([H])C([H])([H])[H])C([H])([H])[H])C(C([H])([H])[H])(C([H])([H])[H])C([H])([H])[H])C([H])([H])c2c([H])c(OC([H])([H])C([H])([H])C([H])([H])OC([H])([H])C([H])([H])C([H])([H])N([H])C(=O)C([H])([H])C([H])([H])[N+]([H])([H])C([H])([H])C([H])([H])N([H])C(=O)N3C([H])([H])C([H])([H])C([H])([H])C([H])(n4nc(-c5c([H])c([H])c(Oc6c([H])c([H])c(F)c([H])c6F)c([H])c5[H])c(C(=O)N([H])[H])c4N([H])[H])C3([H])[H])c([H])c([H])c2C1([H])[H]

>  <smiles>  (31) 
[H]c1c([H])c([H])c2c(c1[H])C([H])([H])C([H])([H])C([H])([H])C2([H])N([H])C(=O)C1([H])N(C(=O)C([H])(N([H])C(=O)C([H])(N([H])C([H])([H])[H])C([H])([H])[H])C(C([H])([H])[H])(C([H])([H])[H])C([H])([H])[H])C([H])([H])c2c([H])c(OC([H])([H])C([H])([H])C([H])([H])OC([H])([H])C([H])([H])C([H])([H])N([H])C(=O)C([H])([H])C([H])([H])[N+]([H])([H])C([H])([H])C([H])([H])N([H])C(=O)N3C([H])([H])C([H])([H])C([H])([H])C([H])(n4nc(-c5c([H])c([H])c(Oc6c([H])c([H])c(F)c([H])c6F)c([H])c5[H])c(C(=O)N([H])[H])c4N([H])[H])C3([H])[H])c([H])c([H])c2C1([H])[H]

$$$$
31:0:0
     RDKit          3D

 99108  0  0  1  0  0  0  0  0999 V2000
  -30.9340  -21.5930   23.1090 N   0  0  0  0  0  0  0  0  0  0  0  0
  -30.0560  -21.3980   23.5850 H   0  0  0  0  0  0  0  0  0  0  0  0
  -29.7740  -18.6290   22.6290 C   0  0  0  0  0  3  0  0  0  0  0  0
  -29.4850  -17.2950   22.2730 C   0  0  0  0  0  3  0  0  0  0  0  0
  -31.6340  -17.1220   21.1470 C   0  0  0  0  0  3  0  0  0  0  0  0
  -32.7940  -20.5360   21.7950 C   0  0  0  0  0  3  0  0  0  0  0  0
  -30.9890  -19.2440   22.2450 C   0  0  0  0  0  0  0  0  0  0  0  0
  -31.9100  -18.4540   21.4990 C   0  0  0  0  0  0  0  0  0  0  0  0
  -30.3980  -16.5350   21.5100 C   0  0  0  0  0  0  0  0  0  0  0  0
  -31.5720  -20.5480   22.4180 C   0  0  0  0  0  0  0  0  0  0  0  0
  -32.9930  -19.2760   21.2560 N   0  0  0  0  0  0  0  0  0  0  0  0
  -33.8300  -19.0190   20.7430 H   0  0  0  0  0  0  0  0  0  0  0  0
  -30.4860  -14.4210   20.1790 C   0  0  0  0  0  0  0  0  0  0  0  0
  -30.1190  -12.3390   18.9050 C   0  0  0  0  0  2  0  0  0  0  0  0
  -29.1020  -12.5650   17.7720 C   0  0  0  0  0  2  0  0  0  0  0  0
  -27.6620  -12.3710   18.2840 C   0  0  0  0  0  2  0  0  0  0  0  0
  -27.3830  -13.1600   19.5900 C   0  0  0  0  0  3  0  0  0  0  0  0
  -28.5040  -12.9190   20.6270 C   0  0  0  0  0  2  0  0  0  0  0  0
  -29.7960  -13.2620   20.0030 N   0  0  0  0  0  0  0  0  0  0  0  0
  -31.4620  -14.7220   19.4830 O   0  0  0  0  0  0  0  0  0  0  0  0
  -30.0280  -15.2040   21.1720 N   0  0  0  0  0  0  0  0  0  0  0  0
  -29.2090  -14.8390   21.6350 H   0  0  0  0  0  0  0  0  0  0  0  0
  -25.0090  -13.6850   20.4420 C   0  0  0  0  0  0  0  0  0  0  0  0
  -23.9860  -12.8740   20.8560 C   0  0  0  0  0  0  0  0  0  0  0  0
  -24.4820  -11.5370   20.7680 C   0  0  0  0  0  0  0  0  0  0  0  0
  -26.0640  -12.8390   20.1360 N   0  0  0  0  0  0  0  0  0  0  0  0
  -25.7530  -11.5420   20.3850 N   0  0  0  0  0  0  0  0  0  0  0  0
  -23.8040  -10.2510   20.9730 C   0  0  0  0  0  0  0  0  0  0  0  0
  -24.2690   -9.3150   21.9240 C   0  0  0  0  0  3  0  0  0  0  0  0
  -23.5890   -8.0930   22.1160 C   0  0  0  0  0  3  0  0  0  0  0  0
  -22.4320   -7.7970   21.3570 C   0  0  0  0  0  0  0  0  0  0  0  0
  -21.9880   -8.7220   20.3960 C   0  0  0  0  0  3  0  0  0  0  0  0
  -22.6680   -9.9360   20.2020 C   0  0  0  0  0  3  0  0  0  0  0  0
  -21.7240   -6.6240   21.4560 O   0  0  0  0  0  0  0  0  0  0  0  0
  -21.6240   -5.9410   22.6420 C   0  0  0  0  0  0  0  0  0  0  0  0
  -21.0930   -6.5430   23.8050 C   0  0  0  0  0  3  0  0  0  0  0  0
  -20.9440   -5.7850   24.9840 C   0  0  0  0  0  3  0  0  0  0  0  0
  -21.3140   -4.4260   25.0000 C   0  0  0  0  0  0  0  0  0  0  0  0
  -21.8360   -3.8250   23.8420 C   0  0  0  0  0  3  0  0  0  0  0  0
  -21.9870   -4.5800   22.6660 C   0  0  0  0  0  0  0  0  0  0  0  0
  -22.4720   -3.9900   21.5460 F   0  0  0  0  0  0  0  0  0  0  0  0
  -21.1630   -3.6960   26.1290 F   0  0  0  0  0  0  0  0  0  0  0  0
  -22.5940  -13.3040   21.2210 C   0  0  0  0  0  0  0  0  0  0  0  0
  -21.9500  -12.5840   22.1310 N   0  0  0  0  0  0  0  0  0  0  0  0
  -22.0890  -14.3150   20.7340 O   0  0  0  0  0  0  0  0  0  0  0  0
  -22.3720  -11.7670   22.5480 H   0  0  0  0  0  0  0  0  0  0  0  0
  -21.0190  -12.8530   22.4180 H   0  0  0  0  0  0  0  0  0  0  0  0
  -25.1270  -15.0640   20.2840 N   0  0  0  0  0  0  0  0  0  0  0  0
  -24.3550  -15.7000   20.4550 H   0  0  0  0  0  0  0  0  0  0  0  0
  -25.9550  -15.5310   19.9350 H   0  0  0  0  0  0  0  0  0  0  0  0
  -31.3240  -22.9780   22.8960 C   0  0  0  0  0  2  0  0  0  0  0  0
  -30.1240  -23.9320   22.9820 C   0  0  0  0  0  2  0  0  0  0  0  0
  -30.5130  -25.3560   22.5470 C   0  0  0  0  0  2  0  0  0  0  0  0
  -29.4050  -26.3240   22.6970 N   0  0  0  0  0  4  0  0  0  0  0  0
  -29.8000  -27.1200   23.1740 H   0  0  0  0  0  0  0  0  0  0  0  0
  -28.7000  -25.9500   23.3130 H   0  0  0  0  0  0  0  0  0  0  0  0
  -28.8140  -26.8490   21.4390 C   0  0  0  0  0  2  0  0  0  0  0  0
  -27.7990  -25.8990   20.7690 C   0  0  0  0  0  2  0  0  0  0  0  0
  -27.2870  -26.4480   19.5520 O   0  0  0  0  0  0  0  0  0  0  0  0
  -24.0960  -31.7430   23.0780 C   0  0  0  0  0  0  0  0  0  0  0  0
  -26.1890  -27.2570   19.6980 C   0  0  0  0  0  0  0  0  0  0  0  0
  -22.6690  -30.4820   21.4930 C   0  0  0  0  0  3  0  0  0  0  0  0
  -23.9000  -28.8870   19.9280 C   0  0  0  0  0  0  0  0  0  0  0  0
  -25.1870  -30.6820   21.1080 C   0  0  0  0  0  2  0  0  0  0  0  0
  -25.1280  -29.3270   20.4350 C   0  0  0  0  0  0  0  0  0  0  0  0
  -26.2770  -28.5240   20.3130 C   0  0  0  0  0  3  0  0  0  0  0  0
  -24.9500  -26.8200   19.1860 C   0  0  0  0  0  3  0  0  0  0  0  0
  -23.8010  -27.6290   19.3040 C   0  0  0  0  0  3  0  0  0  0  0  0
  -22.7260  -29.8260   20.0860 C   0  0  0  0  0  2  0  0  0  0  0  0
  -24.0080  -30.9780   21.9530 N   0  0  0  0  0  0  0  0  0  0  0  0
  -23.0800  -32.0710   23.7070 O   0  0  0  0  0  0  0  0  0  0  0  0
  -22.0200  -29.4810   22.4740 C   0  0  0  0  0  0  0  0  0  0  0  0
  -20.6850  -29.3580   22.4030 N   0  0  0  0  0  0  0  0  0  0  0  0
  -22.7120  -28.8180   23.2510 O   0  0  0  0  0  0  0  0  0  0  0  0
  -20.1900  -29.9420   21.7440 H   0  0  0  0  0  0  0  0  0  0  0  0
  -17.2930  -28.2680   22.9860 C   0  0  0  0  0  0  0  0  0  0  0  0
  -19.8620  -28.4480   23.1980 C   0  0  0  0  0  3  0  0  0  0  0  0
  -19.9090  -27.0120   22.6270 C   0  0  0  0  0  2  0  0  0  0  0  0
  -18.7750  -26.7180   21.6410 C   0  0  0  0  0  2  0  0  0  0  0  0
  -17.4130  -26.9090   22.3170 C   0  0  0  0  0  2  0  0  0  0  0  0
  -18.4440  -28.9970   23.3860 C   0  0  0  0  0  0  0  0  0  0  0  0
  -18.2790  -30.2710   23.9730 C   0  0  0  0  0  3  0  0  0  0  0  0
  -16.9940  -30.8150   24.1620 C   0  0  0  0  0  3  0  0  0  0  0  0
  -15.8580  -30.0820   23.7790 C   0  0  0  0  0  3  0  0  0  0  0  0
  -16.0080  -28.8100   23.1980 C   0  0  0  0  0  3  0  0  0  0  0  0
  -25.4670  -32.2580   23.6170 C   0  0  0  0  0  3  0  0  0  0  0  0
  -25.2790  -33.6500   24.0510 N   0  0  0  0  0  0  0  0  0  0  0  0
  -25.6550  -34.7220   23.3410 C   0  0  0  0  0  0  0  0  0  0  0  0
  -26.2680  -34.6360   22.2740 O   0  0  0  0  0  0  0  0  0  0  0  0
  -24.7330  -33.7940   24.8880 H   0  0  0  0  0  0  0  0  0  0  0  0
  -24.0610  -36.6560   23.1650 C   0  0  0  0  0  1  0  0  0  0  0  0
  -25.2940  -36.1110   23.9040 C   0  0  0  0  0  3  0  0  0  0  0  0
  -27.5180  -36.7710   24.7050 C   0  0  0  0  0  1  0  0  0  0  0  0
  -26.4020  -37.0870   23.8180 N   0  0  0  0  0  0  0  0  0  0  0  0
  -26.0770  -38.0240   24.0430 H   0  0  0  0  0  0  0  0  0  0  0  0
  -26.0420  -31.3780   24.7920 C   0  0  1  0  0  0  0  0  0  0  0  0
  -25.0330  -31.1340   25.9370 C   0  0  0  0  0  1  0  0  0  0  0  0
  -26.4990  -29.9990   24.2630 C   0  0  0  0  0  1  0  0  0  0  0  0
  -27.2960  -32.0570   25.3920 C   0  0  0  0  0  1  0  0  0  0  0  0
  1  2  1  0
  4  3  1  0
  5  8  2  0
  5  9  1  0
  6 10  2  0
  7 10  1  0
  7  3  2  0
  8  7  1  0
  9  4  2  0
 10  1  1  0
 11  8  1  0
 11  6  1  0
 12 11  1  0
 13 21  1  0
 14 19  1  0
 15 16  1  0
 15 14  1  0
 17 16  1  0
 17 26  1  0
 17 18  1  0
 19 13  1  0
 19 18  1  0
 20 13  2  0
 21  9  1  0
 21 22  1  0
 23 24  2  0
 24 43  1  0
 25 24  1  0
 25 28  1  0
 26 27  1  0
 26 23  1  0
 27 25  2  0
 28 29  1  0
 29 30  2  0
 31 34  1  0
 31 30  1  0
 32 31  2  0
 33 32  1  0
 33 28  2  0
 34 35  1  0
 35 40  2  0
 35 36  1  0
 36 37  2  0
 37 38  1  0
 38 42  1  0
 39 38  2  0
 40 39  1  0
 41 40  1  0
 43 44  1  0
 44 47  1  0
 44 46  1  0
 45 43  2  0
 48 23  1  0
 48 49  1  0
 50 48  1  0
 51 52  1  0
 51  1  1  0
 53 54  1  0
 53 52  1  0
 54 55  1  0
 54 56  1  0
 57 54  1  0
 58 57  1  0
 59 61  1  0
 59 58  1  0
 60 71  2  0
 61 66  1  0
 62 70  1  0
 62 72  1  0
 63 69  1  0
 63 65  1  0
 64 70  1  0
 65 64  1  0
 66 65  2  0
 67 68  1  0
 67 61  2  0
 68 63  2  0
 69 62  1  0
 70 60  1  0
 72 74  2  0
 73 72  1  0
 75 73  1  0
 76 85  2  0
 76 81  1  0
 77 73  1  0
 77 81  1  0
 78 77  1  0
 79 80  1  0
 79 78  1  0
 80 76  1  0
 81 82  2  0
 82 83  1  0
 84 83  2  0
 85 84  1  0
 86 60  1  0
 86 87  1  0
 86 96  1  0
 87 90  1  0
 88 92  1  0
 88 87  1  0
 89 88  2  0
 92 91  1  0
 94 92  1  0
 94 95  1  0
 94 93  1  0
 96 99  1  1
 96 97  1  0
 98 96  1  0
M  ISO  4  13 100  21 100  58 101  59 101
M  END
>  <TORSDO>  (32) 
F 23

>  <SCORE>  (32) 
-7.886

>  <name>  (32) 
31

>  <ligand_id>  (32) 
31

>  <original_smiles>  (32) 
[H]c1c([H])c([H])c2c(c1[H])C([H])([H])C([H])([H])C([H])([H])C2([H])N([H])C(=O)C1([H])N(C(=O)C([H])(N([H])C(=O)C([H])(N([H])C([H])([H])[H])C([H])([H])[H])C(C([H])([H])[H])(C([H])([H])[H])C([H])([H])[H])C([H])([H])c2c([H])c(OC([H])([H])C([H])([H])[N+]([H])([H])C([H])([H])C([H])([H])C([H])([H])N([H])c3c([H])n([H])c4c([H])c(N([H])C(=O)N5C([H])([H])C([H])([H])C([H])([H])C([H])(n6nc(-c7c([H])c([H])c(Oc8c([H])c([H])c(F)c([H])c8F)c([H])c7[H])c(C(=O)N([H])[H])c6N([H])[H])C5([H])[H])c([H])c([H])c34)c([H])c([H])c2C1([H])[H]

>  <smiles>  (32) 
[H]c1c([H])c([H])c2c(c1[H])C([H])([H])C([H])([H])C([H])([H])C2([H])N([H])C(=O)C1([H])N(C(=O)C([H])(N([H])C(=O)C([H])(N([H])C([H])([H])[H])C([H])([H])[H])C(C([H])([H])[H])(C([H])([H])[H])C([H])([H])[H])C([H])([H])c2c([H])c(OC([H])([H])C([H])([H])[N+]([H])([H])C([H])([H])C([H])([H])C([H])([H])N([H])c3c([H])n([H])c4c([H])c(N([H])C(=O)N5C([H])([H])C([H])([H])C([H])([H])C([H])(n6nc(-c7c([H])c([H])c(Oc8c([H])c([H])c(F)c([H])c8F)c([H])c7[H])c(C(=O)N([H])[H])c6N([H])[H])C5([H])[H])c([H])c([H])c34)c([H])c([H])c2C1([H])[H]

$$$$
32:0:0
     RDKit          3D

 94101  0  0  1  0  0  0  0  0999 V2000
  -26.6810  -22.1530   17.3220 N   0  0  0  0  0  4  0  0  0  0  0  0
  -26.8630  -21.1860   17.0910 H   0  0  0  0  0  0  0  0  0  0  0  0
  -26.3760  -22.5950   16.4700 H   0  0  0  0  0  0  0  0  0  0  0  0
  -25.5510  -22.1880   18.2870 C   0  0  0  0  0  2  0  0  0  0  0  0
  -25.8850  -21.5160   19.6270 C   0  0  0  0  0  2  0  0  0  0  0  0
  -26.4150  -20.2270   19.3290 O   0  0  0  0  0  0  0  0  0  0  0  0
  -27.3650  -19.7820   20.2840 C   0  0  0  0  0  2  0  0  0  0  0  0
  -27.7630  -18.3410   19.9350 C   0  0  0  0  0  2  0  0  0  0  0  0
  -28.9880  -17.8500   20.7240 C   0  0  0  0  0  2  0  0  0  0  0  0
  -29.0930  -16.3180   20.7070 C   0  0  0  0  0  2  0  0  0  0  0  0
  -30.4810  -15.7550   21.0690 C   0  0  0  0  0  2  0  0  0  0  0  0
  -31.6040  -13.8550   19.8810 C   0  0  0  0  0  0  0  0  0  0  0  0
  -31.0490  -11.6320   19.0050 C   0  0  0  0  0  2  0  0  0  0  0  0
  -30.0960  -11.7920   17.8050 C   0  0  0  0  0  2  0  0  0  0  0  0
  -28.6270  -11.8490   18.2740 C   0  0  0  0  0  2  0  0  0  0  0  0
  -28.3990  -12.8440   19.4430 C   0  0  0  0  0  3  0  0  0  0  0  0
  -29.4680  -12.6530   20.5400 C   0  0  0  0  0  2  0  0  0  0  0  0
  -30.7950  -12.7610   19.9130 N   0  0  0  0  0  0  0  0  0  0  0  0
  -32.7350  -13.8400   19.3990 O   0  0  0  0  0  0  0  0  0  0  0  0
  -31.0010  -15.0420   19.9090 N   0  0  0  0  0  0  0  0  0  0  0  0
  -31.4770  -15.6720   19.2800 H   0  0  0  0  0  0  0  0  0  0  0  0
  -26.1170  -13.7500   20.2350 C   0  0  0  0  0  0  0  0  0  0  0  0
  -24.9830  -13.1240   20.6700 C   0  0  0  0  0  0  0  0  0  0  0  0
  -25.2700  -11.7240   20.6270 C   0  0  0  0  0  0  0  0  0  0  0  0
  -27.0410  -12.7460   19.9790 N   0  0  0  0  0  0  0  0  0  0  0  0
  -26.5300  -11.5200   20.2630 N   0  0  0  0  0  0  0  0  0  0  0  0
  -24.3990  -10.5650   20.8540 C   0  0  0  0  0  0  0  0  0  0  0  0
  -24.7400   -9.5480   21.7730 C   0  0  0  0  0  3  0  0  0  0  0  0
  -23.8720   -8.4540   21.9830 C   0  0  0  0  0  3  0  0  0  0  0  0
  -22.6510   -8.3710   21.2740 C   0  0  0  0  0  0  0  0  0  0  0  0
  -22.3300   -9.3740   20.3420 C   0  0  0  0  0  3  0  0  0  0  0  0
  -23.1960  -10.4570   20.1290 C   0  0  0  0  0  3  0  0  0  0  0  0
  -21.7570   -7.3350   21.3950 O   0  0  0  0  0  0  0  0  0  0  0  0
  -21.6540   -6.6100   22.5550 C   0  0  0  0  0  0  0  0  0  0  0  0
  -21.3560   -7.2210   23.7920 C   0  0  0  0  0  3  0  0  0  0  0  0
  -21.1910   -6.4310   24.9470 C   0  0  0  0  0  3  0  0  0  0  0  0
  -21.3110   -5.0310   24.8660 C   0  0  0  0  0  0  0  0  0  0  0  0
  -21.6000   -4.4190   23.6340 C   0  0  0  0  0  3  0  0  0  0  0  0
  -21.7700   -5.2070   22.4800 C   0  0  0  0  0  0  0  0  0  0  0  0
  -22.0300   -4.6120   21.2920 F   0  0  0  0  0  0  0  0  0  0  0  0
  -21.1420   -4.2690   25.9720 F   0  0  0  0  0  0  0  0  0  0  0  0
  -23.6710  -13.7750   21.0030 C   0  0  0  0  0  0  0  0  0  0  0  0
  -22.9080  -13.1910   21.9200 N   0  0  0  0  0  0  0  0  0  0  0  0
  -23.3370  -14.8400   20.4830 O   0  0  0  0  0  0  0  0  0  0  0  0
  -23.1870  -12.3290   22.3630 H   0  0  0  0  0  0  0  0  0  0  0  0
  -22.0320  -13.6140   22.1860 H   0  0  0  0  0  0  0  0  0  0  0  0
  -26.4190  -15.0880   20.0090 N   0  0  0  0  0  0  0  0  0  0  0  0
  -25.7280  -15.8230   20.1110 H   0  0  0  0  0  0  0  0  0  0  0  0
  -27.2970  -15.4170   19.6310 H   0  0  0  0  0  0  0  0  0  0  0  0
  -27.9750  -22.7590   17.7340 C   0  0  0  0  0  2  0  0  0  0  0  0
  -27.8370  -24.2110   18.2290 C   0  0  0  0  0  2  0  0  0  0  0  0
  -29.1590  -24.9780   18.4120 C   0  0  0  0  0  2  0  0  0  0  0  0
  -28.9340  -26.4800   18.6560 C   0  0  0  0  0  2  0  0  0  0  0  0
  -28.4370  -26.7300   19.9730 O   0  0  0  0  0  0  0  0  0  0  0  0
  -24.7330  -31.7440   23.4110 C   0  0  0  0  0  0  0  0  0  0  0  0
  -27.2740  -27.4580   20.0460 C   0  0  0  0  0  0  0  0  0  0  0  0
  -23.4960  -30.4800   21.6810 C   0  0  0  0  0  3  0  0  0  0  0  0
  -24.9130  -28.9970   20.1710 C   0  0  0  0  0  0  0  0  0  0  0  0
  -26.0300  -30.7800   21.5190 C   0  0  0  0  0  2  0  0  0  0  0  0
  -26.0780  -29.4490   20.8050 C   0  0  0  0  0  0  0  0  0  0  0  0
  -27.2580  -28.6780   20.7570 C   0  0  0  0  0  3  0  0  0  0  0  0
  -26.0870  -27.0160   19.4210 C   0  0  0  0  0  3  0  0  0  0  0  0
  -24.9070  -27.7730   19.4880 C   0  0  0  0  0  3  0  0  0  0  0  0
  -23.6880  -29.8740   20.2670 C   0  0  0  0  0  2  0  0  0  0  0  0
  -24.7690  -31.0140   22.2620 N   0  0  0  0  0  0  0  0  0  0  0  0
  -23.6560  -32.0140   23.9620 O   0  0  0  0  0  0  0  0  0  0  0  0
  -22.8130  -29.4200   22.5770 C   0  0  0  0  0  0  0  0  0  0  0  0
  -21.4870  -29.2820   22.4270 N   0  0  0  0  0  0  0  0  0  0  0  0
  -23.4760  -28.7280   23.3540 O   0  0  0  0  0  0  0  0  0  0  0  0
  -21.0190  -29.8870   21.7670 H   0  0  0  0  0  0  0  0  0  0  0  0
  -18.0820  -28.1500   22.8100 C   0  0  0  0  0  0  0  0  0  0  0  0
  -20.6370  -28.3250   23.1360 C   0  0  0  0  0  3  0  0  0  0  0  0
  -20.7140  -26.9250   22.4850 C   0  0  0  0  0  2  0  0  0  0  0  0
  -19.6240  -26.6880   21.4360 C   0  0  0  0  0  2  0  0  0  0  0  0
  -18.2350  -26.8350   22.0650 C   0  0  0  0  0  2  0  0  0  0  0  0
  -19.2100  -28.8590   23.2960 C   0  0  0  0  0  0  0  0  0  0  0  0
  -19.0150  -30.0960   23.9500 C   0  0  0  0  0  3  0  0  0  0  0  0
  -17.7220  -30.6220   24.1230 C   0  0  0  0  0  3  0  0  0  0  0  0
  -16.6050  -29.9080   23.6540 C   0  0  0  0  0  3  0  0  0  0  0  0
  -16.7840  -28.6740   23.0030 C   0  0  0  0  0  3  0  0  0  0  0  0
  -26.0350  -32.2960   24.0720 C   0  0  0  0  0  3  0  0  0  0  0  0
  -26.5330  -31.4290   25.2920 C   0  0  1  0  0  0  0  0  0  0  0  0
  -25.4360  -31.1470   26.3460 C   0  0  0  0  0  1  0  0  0  0  0  0
  -27.0800  -30.0670   24.8050 C   0  0  0  0  0  1  0  0  0  0  0  0
  -27.7080  -32.1450   25.9970 C   0  0  0  0  0  1  0  0  0  0  0  0
  -25.7660  -33.6790   24.4860 N   0  0  0  0  0  0  0  0  0  0  0  0
  -26.1390  -34.7650   23.7960 C   0  0  0  0  0  0  0  0  0  0  0  0
  -26.8150  -34.7050   22.7660 O   0  0  0  0  0  0  0  0  0  0  0  0
  -25.1660  -33.8010   25.2880 H   0  0  0  0  0  0  0  0  0  0  0  0
  -24.4630  -36.6200   23.5390 C   0  0  0  0  0  1  0  0  0  0  0  0
  -25.6870  -36.1360   24.3330 C   0  0  0  0  0  3  0  0  0  0  0  0
  -27.8410  -36.9030   25.2240 C   0  0  0  0  0  1  0  0  0  0  0  0
  -26.7490  -37.1630   24.2900 N   0  0  0  0  0  0  0  0  0  0  0  0
  -26.3700  -38.0830   24.4960 H   0  0  0  0  0  0  0  0  0  0  0  0
  1 50  1  0
  1  4  1  0
  2  1  1  0
  3  1  1  0
  4  5  1  0
  6  5  1  0
  6  7  1  0
  8  7  1  0
  8  9  1  0
 10  9  1  0
 10 11  1  0
 12 20  1  0
 12 18  1  0
 13 18  1  0
 14 15  1  0
 14 13  1  0
 16 15  1  0
 16 25  1  0
 16 17  1  0
 18 17  1  0
 19 12  2  0
 20 11  1  0
 21 20  1  0
 22 23  2  0
 23 42  1  0
 24 23  1  0
 24 27  1  0
 25 22  1  0
 25 26  1  0
 26 24  2  0
 27 28  1  0
 28 29  2  0
 30 33  1  0
 30 29  1  0
 31 30  2  0
 32 31  1  0
 32 27  2  0
 33 34  1  0
 34 35  1  0
 35 36  2  0
 37 36  1  0
 37 41  1  0
 38 37  2  0
 39 34  2  0
 39 38  1  0
 40 39  1  0
 42 43  1  0
 43 46  1  0
 43 45  1  0
 44 42  2  0
 47 48  1  0
 47 22  1  0
 49 47  1  0
 50 51  1  0
 51 52  1  0
 52 53  1  0
 53 54  1  0
 54 56  1  0
 55 66  2  0
 56 61  1  0
 57 65  1  0
 57 67  1  0
 58 64  1  0
 58 60  1  0
 59 65  1  0
 60 59  1  0
 61 60  2  0
 62 63  1  0
 62 56  2  0
 63 58  2  0
 64 57  1  0
 65 55  1  0
 67 69  2  0
 68 67  1  0
 70 68  1  0
 71 80  2  0
 71 76  1  0
 72 68  1  0
 72 76  1  0
 73 72  1  0
 74 75  1  0
 74 73  1  0
 75 71  1  0
 76 77  2  0
 77 78  1  0
 79 78  2  0
 80 79  1  0
 81 55  1  0
 81 86  1  0
 81 82  1  0
 82 85  1  1
 82 83  1  0
 84 82  1  0
 86 89  1  0
 87 91  1  0
 87 86  1  0
 88 87  2  0
 91 90  1  0
 93 91  1  0
 93 94  1  0
 93 92  1  0
M  ISO  4  12 100  20 100  53 101  54 101
M  END
>  <TORSDO>  (33) 
F 28

>  <SCORE>  (33) 
-9.308

>  <name>  (33) 
32

>  <ligand_id>  (33) 
32

>  <original_smiles>  (33) 
[H]c1c([H])c([H])c2c(c1[H])C([H])([H])C([H])([H])C([H])([H])C2([H])N([H])C(=O)C1([H])N(C(=O)C([H])(N([H])C(=O)C([H])(N([H])C([H])([H])[H])C([H])([H])[H])C(C([H])([H])[H])(C([H])([H])[H])C([H])([H])[H])C([H])([H])c2c([H])c(OC([H])([H])C([H])([H])C([H])([H])C([H])([H])[N+]([H])([H])C([H])([H])C([H])([H])OC([H])([H])C([H])([H])C([H])([H])C([H])([H])C([H])([H])N([H])C(=O)N3C([H])([H])C([H])([H])C([H])([H])C([H])(n4nc(-c5c([H])c([H])c(Oc6c([H])c([H])c(F)c([H])c6F)c([H])c5[H])c(C(=O)N([H])[H])c4N([H])[H])C3([H])[H])c([H])c([H])c2C1([H])[H]

>  <smiles>  (33) 
[H]c1c([H])c([H])c2c(c1[H])C([H])([H])C([H])([H])C([H])([H])C2([H])N([H])C(=O)C1([H])N(C(=O)C([H])(N([H])C(=O)C([H])(N([H])C([H])([H])[H])C([H])([H])[H])C(C([H])([H])[H])(C([H])([H])[H])C([H])([H])[H])C([H])([H])c2c([H])c(OC([H])([H])C([H])([H])C([H])([H])C([H])([H])[N+]([H])([H])C([H])([H])C([H])([H])OC([H])([H])C([H])([H])C([H])([H])C([H])([H])C([H])([H])N([H])C(=O)N3C([H])([H])C([H])([H])C([H])([H])C([H])(n4nc(-c5c([H])c([H])c(Oc6c([H])c([H])c(F)c([H])c6F)c([H])c5[H])c(C(=O)N([H])[H])c4N([H])[H])C3([H])[H])c([H])c([H])c2C1([H])[H]

$$$$
33:0:0
     RDKit          3D

103111  0  0  1  0  0  0  0  0999 V2000
  -32.2370  -22.3900   20.1160 C   0  0  0  0  0  0  0  0  0  0  0  0
  -33.0490  -23.1910   20.8200 N   0  0  0  0  0  0  0  0  0  0  0  0
  -31.9970  -22.6130   18.9300 O   0  0  0  0  0  0  0  0  0  0  0  0
  -33.2420  -22.9400   21.7810 H   0  0  0  0  0  0  0  0  0  0  0  0
  -33.6710  -24.4030   20.2860 C   0  0  0  0  0  2  0  0  0  0  0  0
  -32.8110  -25.6900   20.4180 C   0  0  0  0  0  2  0  0  0  0  0  0
  -31.3730  -25.4920   20.7430 N   0  0  0  0  0  4  0  0  0  0  0  0
  -31.3030  -24.8500   21.5250 H   0  0  0  0  0  0  0  0  0  0  0  0
  -30.9160  -25.0580   19.9530 H   0  0  0  0  0  0  0  0  0  0  0  0
  -30.6830  -26.7660   21.0850 C   0  0  0  0  0  2  0  0  0  0  0  0
  -29.1720  -26.6190   21.3560 C   0  0  0  0  0  2  0  0  0  0  0  0
  -28.4110  -26.7050   20.1400 O   0  0  0  0  0  0  0  0  0  0  0  0
  -24.5630  -31.8750   23.2050 C   0  0  0  0  0  0  0  0  0  0  0  0
  -27.2490  -27.4480   20.1740 C   0  0  0  0  0  0  0  0  0  0  0  0
  -23.3580  -30.4530   21.5730 C   0  0  0  0  0  3  0  0  0  0  0  0
  -24.8210  -28.9060   20.1650 C   0  0  0  0  0  0  0  0  0  0  0  0
  -25.8730  -30.8370   21.3580 C   0  0  0  0  0  2  0  0  0  0  0  0
  -25.9700  -29.4580   20.7430 C   0  0  0  0  0  0  0  0  0  0  0  0
  -27.1830  -28.7430   20.7430 C   0  0  0  0  0  3  0  0  0  0  0  0
  -26.0880  -26.9100   19.5790 C   0  0  0  0  0  3  0  0  0  0  0  0
  -24.8740  -27.6280   19.5800 C   0  0  0  0  0  3  0  0  0  0  0  0
  -23.5680  -29.7520   20.2010 C   0  0  0  0  0  2  0  0  0  0  0  0
  -24.6160  -31.0690   22.1050 N   0  0  0  0  0  0  0  0  0  0  0  0
  -23.4810  -32.1450   23.7460 O   0  0  0  0  0  0  0  0  0  0  0  0
  -22.7120  -29.4390   22.5440 C   0  0  0  0  0  0  0  0  0  0  0  0
  -21.3870  -29.2620   22.4260 N   0  0  0  0  0  0  0  0  0  0  0  0
  -23.3990  -28.8170   23.3570 O   0  0  0  0  0  0  0  0  0  0  0  0
  -20.8960  -29.8150   21.7370 H   0  0  0  0  0  0  0  0  0  0  0  0
  -18.0090  -28.0990   22.9590 C   0  0  0  0  0  0  0  0  0  0  0  0
  -20.5710  -28.3310   23.2030 C   0  0  0  0  0  3  0  0  0  0  0  0
  -20.6530  -26.9000   22.6220 C   0  0  0  0  0  2  0  0  0  0  0  0
  -19.5360  -26.5890   21.6200 C   0  0  0  0  0  2  0  0  0  0  0  0
  -18.1640  -26.7480   22.2810 C   0  0  0  0  0  2  0  0  0  0  0  0
  -19.1390  -28.8490   23.3780 C   0  0  0  0  0  0  0  0  0  0  0  0
  -18.9400  -30.1150   23.9690 C   0  0  0  0  0  3  0  0  0  0  0  0
  -17.6420  -30.6280   24.1490 C   0  0  0  0  0  3  0  0  0  0  0  0
  -16.5260  -29.8740   23.7480 C   0  0  0  0  0  3  0  0  0  0  0  0
  -16.7100  -28.6110   23.1590 C   0  0  0  0  0  3  0  0  0  0  0  0
  -25.8480  -32.5130   23.8170 C   0  0  0  0  0  3  0  0  0  0  0  0
  -26.3910  -31.7340   25.0800 C   0  0  1  0  0  0  0  0  0  0  0  0
  -25.3150  -31.4720   26.1590 C   0  0  0  0  0  1  0  0  0  0  0  0
  -26.9840  -30.3700   24.6610 C   0  0  0  0  0  1  0  0  0  0  0  0
  -27.5420  -32.5340   25.7340 C   0  0  0  0  0  1  0  0  0  0  0  0
  -25.5290  -33.9050   24.1580 N   0  0  0  0  0  0  0  0  0  0  0  0
  -25.8560  -34.9650   23.4070 C   0  0  0  0  0  0  0  0  0  0  0  0
  -26.5260  -34.8740   22.3750 O   0  0  0  0  0  0  0  0  0  0  0  0
  -24.9320  -34.0480   24.9590 H   0  0  0  0  0  0  0  0  0  0  0  0
  -24.1180  -36.7520   23.0630 C   0  0  0  0  0  1  0  0  0  0  0  0
  -25.3580  -36.3460   23.8750 C   0  0  0  0  0  3  0  0  0  0  0  0
  -27.4860  -37.2350   24.7200 C   0  0  0  0  0  1  0  0  0  0  0  0
  -26.3860  -37.4060   23.7750 N   0  0  0  0  0  0  0  0  0  0  0  0
  -25.9730  -38.3220   23.9290 H   0  0  0  0  0  0  0  0  0  0  0  0
  -31.5030  -21.2350   20.8270 C   0  0  0  0  0  3  0  0  0  0  0  0
  -30.6600  -22.1620   23.0020 C   0  0  0  0  0  0  0  0  0  0  0  0
  -30.5480  -21.8890   24.4960 C   0  0  0  0  0  1  0  0  0  0  0  0
  -31.3950  -21.2960   22.2910 N   0  0  0  0  0  0  0  0  0  0  0  0
  -30.0740  -23.1240   22.4970 O   0  0  0  0  0  0  0  0  0  0  0  0
  -31.8320  -20.5410   22.8010 H   0  0  0  0  0  0  0  0  0  0  0  0
  -32.0420  -19.8510   20.3740 C   0  0  0  0  0  2  0  0  0  0  0  0
  -28.8460  -18.1810   19.0840 C   0  0  0  0  0  3  0  0  0  0  0  0
  -29.8740  -19.1150   19.2890 C   0  0  0  0  0  3  0  0  0  0  0  0
  -28.9160  -16.9180   19.6950 C   0  0  0  0  0  3  0  0  0  0  0  0
  -31.0420  -17.5260   20.7330 C   0  0  0  0  0  3  0  0  0  0  0  0
  -30.9600  -18.8070   20.1390 C   0  0  0  0  0  0  0  0  0  0  0  0
  -30.0250  -16.5730   20.4910 C   0  0  0  0  0  0  0  0  0  0  0  0
  -30.7240  -14.2680   20.4010 C   0  0  0  0  0  0  0  0  0  0  0  0
  -30.3790  -12.0820   19.3240 C   0  0  0  0  0  2  0  0  0  0  0  0
  -29.4240  -12.2500   18.1250 C   0  0  0  0  0  2  0  0  0  0  0  0
  -27.9570  -12.1320   18.5800 C   0  0  0  0  0  2  0  0  0  0  0  0
  -27.6370  -13.0290   19.8050 C   0  0  0  0  0  3  0  0  0  0  0  0
  -28.7010  -12.8490   20.9130 C   0  0  0  0  0  2  0  0  0  0  0  0
  -30.0300  -13.1010   20.3260 N   0  0  0  0  0  0  0  0  0  0  0  0
  -31.8210  -14.4410   19.8630 O   0  0  0  0  0  0  0  0  0  0  0  0
  -30.0830  -15.2670   21.0280 N   0  0  0  0  0  0  0  0  0  0  0  0
  -29.2350  -14.9570   21.4760 H   0  0  0  0  0  0  0  0  0  0  0  0
  -25.2660  -13.6970   20.5620 C   0  0  0  0  0  0  0  0  0  0  0  0
  -24.1870  -12.9500   20.9510 C   0  0  0  0  0  0  0  0  0  0  0  0
  -24.6130  -11.5890   20.9010 C   0  0  0  0  0  0  0  0  0  0  0  0
  -26.2860  -12.7910   20.3080 N   0  0  0  0  0  0  0  0  0  0  0  0
  -25.8950  -11.5180   20.5660 N   0  0  0  0  0  0  0  0  0  0  0  0
  -23.8590  -10.3440   21.0950 C   0  0  0  0  0  0  0  0  0  0  0  0
  -24.2980   -9.3480   21.9950 C   0  0  0  0  0  3  0  0  0  0  0  0
  -23.5460   -8.1670   22.1760 C   0  0  0  0  0  3  0  0  0  0  0  0
  -22.3420   -7.9740   21.4580 C   0  0  0  0  0  0  0  0  0  0  0  0
  -21.9220   -8.9600   20.5480 C   0  0  0  0  0  3  0  0  0  0  0  0
  -22.6740  -10.1330   20.3630 C   0  0  0  0  0  3  0  0  0  0  0  0
  -21.5590   -6.8500   21.5550 O   0  0  0  0  0  0  0  0  0  0  0  0
  -21.5500   -6.0730   22.6860 C   0  0  0  0  0  0  0  0  0  0  0  0
  -21.2080   -6.6010   23.9490 C   0  0  0  0  0  3  0  0  0  0  0  0
  -21.1420   -5.7520   25.0730 C   0  0  0  0  0  3  0  0  0  0  0  0
  -21.4100   -4.3780   24.9340 C   0  0  0  0  0  0  0  0  0  0  0  0
  -21.7500   -3.8490   23.6750 C   0  0  0  0  0  3  0  0  0  0  0  0
  -21.8160   -4.6950   22.5540 C   0  0  0  0  0  0  0  0  0  0  0  0
  -22.1210   -4.1760   21.3390 F   0  0  0  0  0  0  0  0  0  0  0  0
  -21.3410   -3.5620   26.0120 F   0  0  0  0  0  0  0  0  0  0  0  0
  -22.8080  -13.4630   21.2580 C   0  0  0  0  0  0  0  0  0  0  0  0
  -22.0840  -12.7810   22.1370 N   0  0  0  0  0  0  0  0  0  0  0  0
  -22.3850  -14.5000   20.7520 O   0  0  0  0  0  0  0  0  0  0  0  0
  -22.4380  -11.9420   22.5700 H   0  0  0  0  0  0  0  0  0  0  0  0
  -21.1600  -13.1100   22.3830 H   0  0  0  0  0  0  0  0  0  0  0  0
  -25.4580  -15.0640   20.3890 N   0  0  0  0  0  0  0  0  0  0  0  0
  -24.7130  -15.7370   20.5300 H   0  0  0  0  0  0  0  0  0  0  0  0
  -26.2980  -15.4820   20.0180 H   0  0  0  0  0  0  0  0  0  0  0  0
  1  2  1  0
  1 53  1  0
  2  4  1  0
  3  1  2  0
  5  6  1  0
  5  2  1  0
  6  7  1  0
  7 10  1  0
  7  8  1  0
  9  7  1  0
 10 11  1  0
 12 14  1  0
 12 11  1  0
 13 24  2  0
 14 19  1  0
 15 23  1  0
 15 25  1  0
 16 22  1  0
 16 18  1  0
 17 23  1  0
 18 17  1  0
 19 18  2  0
 20 21  1  0
 20 14  2  0
 21 16  2  0
 22 15  1  0
 23 13  1  0
 25 27  2  0
 26 25  1  0
 28 26  1  0
 29 38  2  0
 29 34  1  0
 30 26  1  0
 30 34  1  0
 31 30  1  0
 32 33  1  0
 32 31  1  0
 33 29  1  0
 34 35  2  0
 35 36  1  0
 37 36  2  0
 38 37  1  0
 39 13  1  0
 39 44  1  0
 39 40  1  0
 40 43  1  1
 40 41  1  0
 42 40  1  0
 44 47  1  0
 45 49  1  0
 45 44  1  0
 46 45  2  0
 49 48  1  0
 51 49  1  0
 51 52  1  0
 51 50  1  0
 53 59  1  0
 53 56  1  0
 54 55  1  0
 56 58  1  0
 56 54  1  0
 57 54  2  0
 60 61  2  0
 60 62  1  0
 61 64  1  0
 62 65  2  0
 64 59  1  0
 64 63  2  0
 65 63  1  0
 65 74  1  0
 66 74  1  0
 67 72  1  0
 68 69  1  0
 68 67  1  0
 70 69  1  0
 70 79  1  0
 70 71  1  0
 72 66  1  0
 72 71  1  0
 73 66  2  0
 74 75  1  0
 76 77  2  0
 77 96  1  0
 78 77  1  0
 78 81  1  0
 79 76  1  0
 79 80  1  0
 80 78  2  0
 81 82  1  0
 82 83  2  0
 84 87  1  0
 84 83  1  0
 85 84  2  0
 86 85  1  0
 86 81  2  0
 87 88  1  0
 88 89  1  0
 89 90  2  0
 91 90  1  0
 91 95  1  0
 92 91  2  0
 93 88  2  0
 93 92  1  0
 94 93  1  0
 96 97  1  0
 97100  1  0
 97 99  1  0
 98 96  2  0
101102  1  0
101 76  1  0
103101  1  0
M  ISO  4  11 101  12 101  66 100  74 100
M  END
>  <TORSDO>  (34) 
F 25

>  <SCORE>  (34) 
-12.435

>  <name>  (34) 
33

>  <ligand_id>  (34) 
33

>  <original_smiles>  (34) 
[H]c1c([H])c(N([H])C(=O)N2C([H])([H])C([H])([H])C([H])([H])C([H])(n3nc(-c4c([H])c([H])c(Oc5c([H])c([H])c(F)c([H])c5F)c([H])c4[H])c(C(=O)N([H])[H])c3N([H])[H])C2([H])[H])c([H])c(C([H])([H])C([H])(C(=O)N([H])C([H])([H])C([H])([H])[N+]([H])([H])C([H])([H])C([H])([H])Oc2c([H])c([H])c3c(c2[H])C([H])([H])N(C(=O)C([H])(N([H])C(=O)C([H])(N([H])C([H])([H])[H])C([H])([H])[H])C(C([H])([H])[H])(C([H])([H])[H])C([H])([H])[H])C([H])(C(=O)N([H])C2([H])c4c([H])c([H])c([H])c([H])c4C([H])([H])C([H])([H])C2([H])[H])C3([H])[H])N([H])C(=O)C([H])([H])[H])c1[H]

>  <smiles>  (34) 
[H]c1c([H])c(N([H])C(=O)N2C([H])([H])C([H])([H])C([H])([H])C([H])(n3nc(-c4c([H])c([H])c(Oc5c([H])c([H])c(F)c([H])c5F)c([H])c4[H])c(C(=O)N([H])[H])c3N([H])[H])C2([H])[H])c([H])c(C([H])([H])C([H])(C(=O)N([H])C([H])([H])C([H])([H])[N+]([H])([H])C([H])([H])C([H])([H])Oc2c([H])c([H])c3c(c2[H])C([H])([H])N(C(=O)C([H])(N([H])C(=O)C([H])(N([H])C([H])([H])[H])C([H])([H])[H])C(C([H])([H])[H])(C([H])([H])[H])C([H])([H])[H])C([H])(C(=O)N([H])C2([H])c4c([H])c([H])c([H])c([H])c4C([H])([H])C([H])([H])C2([H])[H])C3([H])[H])N([H])C(=O)C([H])([H])[H])c1[H]

$$$$
34:0:0
     RDKit          3D

 95102  0  0  1  0  0  0  0  0999 V2000
  -26.0290  -21.4130   19.8760 C   0  0  0  0  0  2  0  0  0  0  0  0
  -25.7110  -19.9140   19.7070 C   0  0  0  0  0  2  0  0  0  0  0  0
  -26.2620  -19.3260   18.3980 C   0  0  0  0  0  2  0  0  0  0  0  0
  -28.4870  -18.5000   17.6760 C   0  0  0  0  0  0  0  0  0  0  0  0
  -27.6910  -19.1540   18.5260 N   0  0  0  0  0  0  0  0  0  0  0  0
  -28.1940  -18.2860   16.4970 O   0  0  0  0  0  0  0  0  0  0  0  0
  -28.0920  -19.2640   19.4400 H   0  0  0  0  0  0  0  0  0  0  0  0
  -29.6910  -18.0100   18.3360 C   0  0  0  0  0  3  0  0  0  0  0  0
  -29.7560  -17.8570   19.6780 C   0  0  0  0  0  3  0  0  0  0  0  0
  -30.9410  -17.3050   20.4210 C   0  0  0  0  0  2  0  0  0  0  0  0
  -31.3200  -14.8860   20.7130 C   0  0  0  0  0  0  0  0  0  0  0  0
  -30.9090  -12.8760   19.4040 C   0  0  0  0  0  2  0  0  0  0  0  0
  -30.0520  -13.3060   18.1960 C   0  0  0  0  0  2  0  0  0  0  0  0
  -28.5510  -13.2510   18.5370 C   0  0  0  0  0  2  0  0  0  0  0  0
  -28.2020  -13.9880   19.8550 C   0  0  0  0  0  3  0  0  0  0  0  0
  -29.1830  -13.5880   20.9890 C   0  0  0  0  0  2  0  0  0  0  0  0
  -30.5660  -13.7820   20.5050 N   0  0  0  0  0  0  0  0  0  0  0  0
  -32.5180  -14.9960   20.4400 O   0  0  0  0  0  0  0  0  0  0  0  0
  -30.5700  -15.9710   20.8600 N   0  0  0  0  0  0  0  0  0  0  0  0
  -29.5850  -15.7770   20.9250 H   0  0  0  0  0  0  0  0  0  0  0  0
  -25.7850  -14.6760   20.4240 C   0  0  0  0  0  0  0  0  0  0  0  0
  -24.6710  -13.9330   20.7030 C   0  0  0  0  0  0  0  0  0  0  0  0
  -25.0920  -12.5680   20.6870 C   0  0  0  0  0  0  0  0  0  0  0  0
  -26.8150  -13.7650   20.2370 N   0  0  0  0  0  0  0  0  0  0  0  0
  -26.3960  -12.4920   20.4640 N   0  0  0  0  0  0  0  0  0  0  0  0
  -24.3170  -11.3260   20.8200 C   0  0  0  0  0  0  0  0  0  0  0  0
  -24.6730  -10.3220   21.7530 C   0  0  0  0  0  3  0  0  0  0  0  0
  -23.8910   -9.1550   21.8800 C   0  0  0  0  0  3  0  0  0  0  0  0
  -22.7490   -8.9740   21.0620 C   0  0  0  0  0  0  0  0  0  0  0  0
  -22.4150   -9.9610   20.1210 C   0  0  0  0  0  3  0  0  0  0  0  0
  -23.1980  -11.1240   19.9900 C   0  0  0  0  0  3  0  0  0  0  0  0
  -21.9490   -7.8590   21.0910 O   0  0  0  0  0  0  0  0  0  0  0  0
  -21.8120   -7.0950   22.2220 C   0  0  0  0  0  0  0  0  0  0  0  0
  -21.3720   -7.6530   23.4420 C   0  0  0  0  0  3  0  0  0  0  0  0
  -21.1690   -6.8240   24.5610 C   0  0  0  0  0  3  0  0  0  0  0  0
  -21.4140   -5.4380   24.4660 C   0  0  0  0  0  0  0  0  0  0  0  0
  -21.8460   -4.8820   23.2500 C   0  0  0  0  0  3  0  0  0  0  0  0
  -22.0430   -5.7100   22.1290 C   0  0  0  0  0  0  0  0  0  0  0  0
  -22.4380   -5.1670   20.9530 F   0  0  0  0  0  0  0  0  0  0  0  0
  -21.2160   -4.6380   25.5380 F   0  0  0  0  0  0  0  0  0  0  0  0
  -23.2700  -14.4470   20.8920 C   0  0  0  0  0  0  0  0  0  0  0  0
  -22.4750  -13.7650   21.7130 N   0  0  0  0  0  0  0  0  0  0  0  0
  -22.8900  -15.4850   20.3510 O   0  0  0  0  0  0  0  0  0  0  0  0
  -21.5270  -14.0750   21.8630 H   0  0  0  0  0  0  0  0  0  0  0  0
  -22.7900  -12.9200   22.1680 H   0  0  0  0  0  0  0  0  0  0  0  0
  -25.9920  -16.0480   20.2930 N   0  0  0  0  0  0  0  0  0  0  0  0
  -25.2300  -16.6980   20.4610 H   0  0  0  0  0  0  0  0  0  0  0  0
  -26.8800  -16.5040   20.1320 H   0  0  0  0  0  0  0  0  0  0  0  0
  -27.4620  -21.8050   20.3320 C   0  0  0  0  0  2  0  0  0  0  0  0
  -27.8350  -23.0870   19.7000 N   0  0  0  0  0  4  0  0  0  0  0  0
  -28.2210  -22.9260   18.7770 H   0  0  0  0  0  0  0  0  0  0  0  0
  -26.9400  -23.5300   19.5500 H   0  0  0  0  0  0  0  0  0  0  0  0
  -28.6210  -24.1240   20.4310 C   0  0  0  0  0  2  0  0  0  0  0  0
  -27.9820  -25.4400   19.9690 C   0  0  0  0  0  2  0  0  0  0  0  0
  -28.3560  -26.8000   20.3130 O   0  0  0  0  0  0  0  0  0  0  0  0
  -24.6370  -32.0940   23.3630 C   0  0  0  0  0  0  0  0  0  0  0  0
  -27.2550  -27.6550   20.2310 C   0  0  0  0  0  0  0  0  0  0  0  0
  -23.4310  -30.6890   21.7370 C   0  0  0  0  0  3  0  0  0  0  0  0
  -24.8770  -29.2070   20.2790 C   0  0  0  0  0  0  0  0  0  0  0  0
  -25.9640  -31.0580   21.5260 C   0  0  0  0  0  2  0  0  0  0  0  0
  -26.0470  -29.6970   20.8730 C   0  0  0  0  0  0  0  0  0  0  0  0
  -27.2420  -28.9260   20.8590 C   0  0  0  0  0  3  0  0  0  0  0  0
  -26.0650  -27.2510   19.5610 C   0  0  0  0  0  3  0  0  0  0  0  0
  -24.8810  -27.9770   19.6260 C   0  0  0  0  0  3  0  0  0  0  0  0
  -23.6300  -30.0460   20.3480 C   0  0  0  0  0  2  0  0  0  0  0  0
  -24.6970  -31.2940   22.2650 N   0  0  0  0  0  0  0  0  0  0  0  0
  -23.5560  -32.3560   23.9110 O   0  0  0  0  0  0  0  0  0  0  0  0
  -22.8080  -29.6430   22.6910 C   0  0  0  0  0  0  0  0  0  0  0  0
  -21.4930  -29.4000   22.5370 N   0  0  0  0  0  0  0  0  0  0  0  0
  -23.4970  -29.0550   23.5270 O   0  0  0  0  0  0  0  0  0  0  0  0
  -20.9950  -29.9250   21.8320 H   0  0  0  0  0  0  0  0  0  0  0  0
  -18.1670  -28.0530   22.9550 C   0  0  0  0  0  0  0  0  0  0  0  0
  -20.6990  -28.4430   23.3050 C   0  0  0  0  0  3  0  0  0  0  0  0
  -20.8920  -27.0040   22.7760 C   0  0  0  0  0  2  0  0  0  0  0  0
  -19.8430  -26.6000   21.7360 C   0  0  0  0  0  2  0  0  0  0  0  0
  -18.4320  -26.6950   22.3290 C   0  0  0  0  0  2  0  0  0  0  0  0
  -19.2310  -28.8800   23.4010 C   0  0  0  0  0  0  0  0  0  0  0  0
  -18.9320  -30.1460   23.9460 C   0  0  0  0  0  3  0  0  0  0  0  0
  -17.6000  -30.5890   24.0540 C   0  0  0  0  0  3  0  0  0  0  0  0
  -16.5480  -29.7580   23.6280 C   0  0  0  0  0  3  0  0  0  0  0  0
  -16.8320  -28.4930   23.0830 C   0  0  0  0  0  3  0  0  0  0  0  0
  -25.9210  -32.7400   23.9700 C   0  0  0  0  0  3  0  0  0  0  0  0
  -26.4440  -31.9900   25.2560 C   0  0  1  0  0  0  0  0  0  0  0  0
  -25.3460  -31.7430   26.3140 C   0  0  0  0  0  1  0  0  0  0  0  0
  -27.0580  -30.6200   24.8830 C   0  0  0  0  0  1  0  0  0  0  0  0
  -27.5710  -32.8150   25.9190 C   0  0  0  0  0  1  0  0  0  0  0  0
  -25.6050  -34.1410   24.2700 N   0  0  0  0  0  0  0  0  0  0  0  0
  -25.9310  -35.1780   23.4870 C   0  0  0  0  0  0  0  0  0  0  0  0
  -26.5990  -35.0560   22.4580 O   0  0  0  0  0  0  0  0  0  0  0  0
  -25.0070  -34.3110   25.0650 H   0  0  0  0  0  0  0  0  0  0  0  0
  -24.1870  -36.9490   23.0990 C   0  0  0  0  0  1  0  0  0  0  0  0
  -25.4340  -36.5700   23.9150 C   0  0  0  0  0  3  0  0  0  0  0  0
  -27.5650  -37.4850   24.7170 C   0  0  0  0  0  1  0  0  0  0  0  0
  -26.4580  -37.6270   23.7770 N   0  0  0  0  0  0  0  0  0  0  0  0
  -26.0460  -38.5470   23.9090 H   0  0  0  0  0  0  0  0  0  0  0  0
  1 49  1  0
  2  1  1  0
  3  5  1  0
  3  2  1  0
  4  8  1  0
  4  5  1  0
  5  7  1  0
  6  4  2  0
  8  9  2  0
  9 10  1  0
 10 19  1  0
 11 19  1  0
 12 17  1  0
 13 14  1  0
 13 12  1  0
 15 14  1  0
 15 24  1  0
 15 16  1  0
 17 11  1  0
 17 16  1  0
 18 11  2  0
 19 20  1  0
 21 22  2  0
 22 41  1  0
 23 22  1  0
 23 26  1  0
 24 21  1  0
 24 25  1  0
 25 23  2  0
 26 27  1  0
 27 28  2  0
 29 32  1  0
 29 28  1  0
 30 29  2  0
 31 30  1  0
 31 26  2  0
 32 33  1  0
 33 34  1  0
 34 35  2  0
 36 35  1  0
 36 40  1  0
 37 36  2  0
 38 33  2  0
 38 37  1  0
 39 38  1  0
 41 42  1  0
 42 44  1  0
 42 45  1  0
 43 41  2  0
 46 21  1  0
 46 47  1  0
 48 46  1  0
 50 49  1  0
 50 53  1  0
 51 50  1  0
 52 50  1  0
 54 55  1  0
 54 53  1  0
 56 67  2  0
 57 55  1  0
 57 62  1  0
 58 66  1  0
 58 68  1  0
 59 65  1  0
 59 61  1  0
 60 66  1  0
 61 60  1  0
 62 61  2  0
 63 64  1  0
 63 57  2  0
 64 59  2  0
 65 58  1  0
 66 56  1  0
 68 70  2  0
 69 68  1  0
 71 69  1  0
 72 81  2  0
 72 77  1  0
 73 69  1  0
 73 77  1  0
 74 73  1  0
 75 76  1  0
 75 74  1  0
 76 72  1  0
 77 78  2  0
 78 79  1  0
 80 79  2  0
 81 80  1  0
 82 56  1  0
 82 87  1  0
 82 83  1  0
 83 86  1  1
 83 84  1  0
 85 83  1  0
 87 90  1  0
 88 92  1  0
 88 87  1  0
 89 88  2  0
 92 91  1  0
 94 95  1  0
 94 92  1  0
 94 93  1  0
M  ISO  4  11 100  19 100  54 101  55 101
M  END
>  <TORSDO>  (35) 
F 25

>  <SCORE>  (35) 
-8.523

>  <name>  (35) 
34

>  <ligand_id>  (35) 
34

>  <original_smiles>  (35) 
[H]C(C(=O)N([H])C([H])([H])C([H])([H])C([H])([H])C([H])([H])[N+]([H])([H])C([H])([H])C([H])([H])Oc1c([H])c([H])c2c(c1[H])C([H])([H])N(C(=O)C([H])(N([H])C(=O)C([H])(N([H])C([H])([H])[H])C([H])([H])[H])C(C([H])([H])[H])(C([H])([H])[H])C([H])([H])[H])C([H])(C(=O)N([H])C1([H])c3c([H])c([H])c([H])c([H])c3C([H])([H])C([H])([H])C1([H])[H])C2([H])[H])=C([H])C([H])([H])N([H])C(=O)N1C([H])([H])C([H])([H])C([H])([H])C([H])(n2nc(-c3c([H])c([H])c(Oc4c([H])c([H])c(F)c([H])c4F)c([H])c3[H])c(C(=O)N([H])[H])c2N([H])[H])C1([H])[H]

>  <smiles>  (35) 
[H]C(C(=O)N([H])C([H])([H])C([H])([H])C([H])([H])C([H])([H])[N+]([H])([H])C([H])([H])C([H])([H])Oc1c([H])c([H])c2c(c1[H])C([H])([H])N(C(=O)C([H])(N([H])C(=O)C([H])(N([H])C([H])([H])[H])C([H])([H])[H])C(C([H])([H])[H])(C([H])([H])[H])C([H])([H])[H])C([H])(C(=O)N([H])C1([H])c3c([H])c([H])c([H])c([H])c3C([H])([H])C([H])([H])C1([H])[H])C2([H])[H])=C([H])C([H])([H])N([H])C(=O)N1C([H])([H])C([H])([H])C([H])([H])C([H])(n2nc(-c3c([H])c([H])c(Oc4c([H])c([H])c(F)c([H])c4F)c([H])c3[H])c(C(=O)N([H])[H])c2N([H])[H])C1([H])[H]

$$$$
35:0:0
     RDKit          3D

 93101  0  0  1  0  0  0  0  0999 V2000
  -29.3620  -22.7480   20.7940 C   0  0  0  0  0  2  0  0  0  0  0  0
  -27.6020  -22.6750   19.1840 C   0  0  0  0  0  2  0  0  0  0  0  0
  -28.9730  -21.3420   21.3050 C   0  0  0  0  0  2  0  0  0  0  0  0
  -27.1730  -21.2790   19.6650 C   0  0  0  0  0  2  0  0  0  0  0  0
  -28.1680  -23.4480   20.3000 N   0  0  0  0  0  0  0  0  0  0  0  0
  -28.3350  -20.5500   20.2230 N   0  0  2  0  0  4  0  0  0  0  0  0
  -29.0170  -20.4950   19.4810 H   0  0  0  0  0  0  0  0  0  0  0  0
  -28.5090  -24.7870   19.8180 C   0  0  0  0  0  2  0  0  0  0  0  0
  -28.7870  -25.7900   20.9610 C   0  0  0  0  0  2  0  0  0  0  0  0
  -28.9020  -27.1340   20.4840 O   0  0  0  0  0  0  0  0  0  0  0  0
  -24.8380  -32.0950   23.5730 C   0  0  0  0  0  0  0  0  0  0  0  0
  -27.7180  -27.8320   20.4700 C   0  0  0  0  0  0  0  0  0  0  0  0
  -23.7320  -30.7020   21.8540 C   0  0  0  0  0  3  0  0  0  0  0  0
  -25.2800  -29.2510   20.4450 C   0  0  0  0  0  0  0  0  0  0  0  0
  -26.2520  -31.1380   21.7630 C   0  0  0  0  0  2  0  0  0  0  0  0
  -26.3970  -29.7890   21.0960 C   0  0  0  0  0  0  0  0  0  0  0  0
  -27.6190  -29.0810   21.1190 C   0  0  0  0  0  3  0  0  0  0  0  0
  -26.5980  -27.3280   19.7770 C   0  0  0  0  0  3  0  0  0  0  0  0
  -25.3720  -28.0140   19.7880 C   0  0  0  0  0  3  0  0  0  0  0  0
  -24.0110  -30.0690   20.4660 C   0  0  0  0  0  2  0  0  0  0  0  0
  -24.9570  -31.3250   22.4550 N   0  0  0  0  0  0  0  0  0  0  0  0
  -23.7320  -32.3240   24.0780 O   0  0  0  0  0  0  0  0  0  0  0  0
  -23.0790  -29.6350   22.7600 C   0  0  0  0  0  0  0  0  0  0  0  0
  -21.7700  -29.4080   22.5660 N   0  0  0  0  0  0  0  0  0  0  0  0
  -23.7480  -29.0190   23.5940 O   0  0  0  0  0  0  0  0  0  0  0  0
  -21.2910  -29.9590   21.8690 H   0  0  0  0  0  0  0  0  0  0  0  0
  -18.4150  -28.1140   22.9080 C   0  0  0  0  0  0  0  0  0  0  0  0
  -20.9540  -28.4270   23.2800 C   0  0  0  0  0  3  0  0  0  0  0  0
  -21.1150  -27.0160   22.6680 C   0  0  0  0  0  2  0  0  0  0  0  0
  -20.0580  -26.6980   21.6050 C   0  0  0  0  0  2  0  0  0  0  0  0
  -18.6500  -26.7900   22.2020 C   0  0  0  0  0  2  0  0  0  0  0  0
  -19.4970  -28.8900   23.4010 C   0  0  0  0  0  0  0  0  0  0  0  0
  -19.2260  -30.1310   24.0180 C   0  0  0  0  0  3  0  0  0  0  0  0
  -17.9040  -30.5960   24.1480 C   0  0  0  0  0  3  0  0  0  0  0  0
  -16.8350  -29.8160   23.6740 C   0  0  0  0  0  3  0  0  0  0  0  0
  -17.0910  -28.5770   23.0590 C   0  0  0  0  0  3  0  0  0  0  0  0
  -26.0840  -32.7430   24.2530 C   0  0  0  0  0  3  0  0  0  0  0  0
  -25.7730  -34.1600   24.4820 N   0  0  0  0  0  0  0  0  0  0  0  0
  -26.1490  -35.1600   23.6740 C   0  0  0  0  0  0  0  0  0  0  0  0
  -26.8640  -34.9890   22.6840 O   0  0  0  0  0  0  0  0  0  0  0  0
  -25.1430  -34.3690   25.2430 H   0  0  0  0  0  0  0  0  0  0  0  0
  -24.4370  -36.9240   23.1410 C   0  0  0  0  0  1  0  0  0  0  0  0
  -25.6510  -36.5760   24.0190 C   0  0  0  0  0  3  0  0  0  0  0  0
  -27.7670  -37.5050   24.8470 C   0  0  0  0  0  1  0  0  0  0  0  0
  -26.6900  -37.6180   23.8680 N   0  0  0  0  0  0  0  0  0  0  0  0
  -26.2850  -38.5470   23.9490 H   0  0  0  0  0  0  0  0  0  0  0  0
  -26.4960  -32.0350   25.6020 C   0  0  1  0  0  0  0  0  0  0  0  0
  -25.3110  -31.8050   26.5700 C   0  0  0  0  0  1  0  0  0  0  0  0
  -27.1470  -30.6600   25.3210 C   0  0  0  0  0  1  0  0  0  0  0  0
  -27.5580  -32.8840   26.3380 C   0  0  0  0  0  1  0  0  0  0  0  0
  -28.0230  -19.1520   20.6110 C   0  0  0  0  0  2  0  0  0  0  0  0
  -28.8010  -18.1590   19.7450 C   0  0  0  0  0  2  0  0  0  0  0  0
  -30.1840  -18.2000   20.0860 O   0  0  0  0  0  0  0  0  0  0  0  0
  -30.8700  -17.0700   19.5660 C   0  0  0  0  0  2  0  0  0  0  0  0
  -32.0950  -16.6950   20.4180 C   0  0  0  0  0  2  0  0  0  0  0  0
  -32.3350  -14.2790   19.8480 C   0  0  0  0  0  0  0  0  0  0  0  0
  -31.8310  -11.9250   19.2990 C   0  0  0  0  0  2  0  0  0  0  0  0
  -30.8440  -11.8080   18.1220 C   0  0  0  0  0  2  0  0  0  0  0  0
  -29.3830  -11.9200   18.6010 C   0  0  0  0  0  2  0  0  0  0  0  0
  -29.1540  -13.1420   19.5270 C   0  0  0  0  0  3  0  0  0  0  0  0
  -30.2220  -13.1710   20.6410 C   0  0  0  0  0  2  0  0  0  0  0  0
  -31.5660  -13.1760   20.0190 N   0  0  0  0  0  0  0  0  0  0  0  0
  -33.2650  -14.3650   19.0400 O   0  0  0  0  0  0  0  0  0  0  0  0
  -32.0210  -15.2670   20.6850 N   0  0  0  0  0  0  0  0  0  0  0  0
  -31.3690  -14.9970   21.4060 H   0  0  0  0  0  0  0  0  0  0  0  0
  -27.0110  -14.2150   20.4830 C   0  0  0  0  0  0  0  0  0  0  0  0
  -25.8080  -13.6750   20.8560 C   0  0  0  0  0  0  0  0  0  0  0  0
  -25.9260  -12.2670   20.6480 C   0  0  0  0  0  0  0  0  0  0  0  0
  -27.7990  -13.1460   20.0790 N   0  0  0  0  0  0  0  0  0  0  0  0
  -27.1490  -11.9640   20.2320 N   0  0  0  0  0  0  0  0  0  0  0  0
  -24.9290  -11.1950   20.7690 C   0  0  0  0  0  0  0  0  0  0  0  0
  -25.1810  -10.0360   21.5370 C   0  0  0  0  0  3  0  0  0  0  0  0
  -24.2010   -9.0270   21.6520 C   0  0  0  0  0  3  0  0  0  0  0  0
  -22.9530   -9.1720   21.0000 C   0  0  0  0  0  0  0  0  0  0  0  0
  -22.7160  -10.3180   20.2200 C   0  0  0  0  0  3  0  0  0  0  0  0
  -23.6940  -11.3190   20.1020 C   0  0  0  0  0  3  0  0  0  0  0  0
  -21.9510   -8.2320   21.0350 O   0  0  0  0  0  0  0  0  0  0  0  0
  -21.8130   -7.3680   22.0910 C   0  0  0  0  0  0  0  0  0  0  0  0
  -21.6490   -7.8290   23.4160 C   0  0  0  0  0  3  0  0  0  0  0  0
  -21.4390   -6.9090   24.4610 C   0  0  0  0  0  3  0  0  0  0  0  0
  -21.3810   -5.5290   24.1840 C   0  0  0  0  0  0  0  0  0  0  0  0
  -21.5400   -5.0680   22.8660 C   0  0  0  0  0  3  0  0  0  0  0  0
  -21.7500   -5.9860   21.8220 C   0  0  0  0  0  0  0  0  0  0  0  0
  -21.8780   -5.5380   20.5500 F   0  0  0  0  0  0  0  0  0  0  0  0
  -21.1710   -4.6450   25.1870 F   0  0  0  0  0  0  0  0  0  0  0  0
  -24.5850  -14.4290   21.2910 C   0  0  0  0  0  0  0  0  0  0  0  0
  -23.7680  -13.8310   22.1520 N   0  0  0  0  0  0  0  0  0  0  0  0
  -24.3690  -15.5760   20.9020 O   0  0  0  0  0  0  0  0  0  0  0  0
  -23.9510  -12.8960   22.4860 H   0  0  0  0  0  0  0  0  0  0  0  0
  -22.9440  -14.3140   22.4790 H   0  0  0  0  0  0  0  0  0  0  0  0
  -27.4920  -15.5200   20.4330 N   0  0  0  0  0  0  0  0  0  0  0  0
  -26.8900  -16.3130   20.6260 H   0  0  0  0  0  0  0  0  0  0  0  0
  -28.3600  -15.7800   19.9840 H   0  0  0  0  0  0  0  0  0  0  0  0
  1  3  1  0
  2  4  1  0
  2  5  1  0
  4  6  1  0
  5  1  1  0
  6 51  1  0
  6  3  1  0
  6  7  1  6
  8  5  1  0
  8  9  1  0
 10  9  1  0
 11 22  2  0
 12 10  1  0
 12 17  1  0
 13 21  1  0
 13 23  1  0
 14 20  1  0
 14 16  1  0
 15 21  1  0
 16 17  2  0
 16 15  1  0
 18 19  1  0
 18 12  2  0
 19 14  2  0
 20 13  1  0
 21 11  1  0
 23 25  2  0
 24 23  1  0
 26 24  1  0
 27 36  2  0
 27 32  1  0
 28 24  1  0
 28 32  1  0
 29 28  1  0
 30 31  1  0
 30 29  1  0
 31 27  1  0
 32 33  2  0
 33 34  1  0
 35 34  2  0
 36 35  1  0
 37 11  1  0
 37 38  1  0
 37 47  1  0
 38 41  1  0
 39 43  1  0
 39 38  1  0
 40 39  2  0
 43 42  1  0
 45 46  1  0
 45 43  1  0
 45 44  1  0
 47 50  1  1
 47 48  1  0
 49 47  1  0
 52 53  1  0
 52 51  1  0
 54 53  1  0
 54 55  1  0
 55 64  1  0
 56 62  1  0
 56 64  1  0
 57 62  1  0
 58 59  1  0
 58 57  1  0
 60 59  1  0
 60 69  1  0
 60 61  1  0
 62 61  1  0
 63 56  2  0
 64 65  1  0
 66 67  2  0
 67 86  1  0
 68 71  1  0
 68 67  1  0
 69 70  1  0
 69 66  1  0
 70 68  2  0
 71 72  1  0
 72 73  2  0
 74 77  1  0
 74 73  1  0
 75 74  2  0
 76 75  1  0
 76 71  2  0
 77 78  1  0
 78 79  1  0
 79 80  2  0
 81 80  1  0
 81 85  1  0
 82 81  2  0
 83 78  2  0
 83 82  1  0
 84 83  1  0
 86 87  1  0
 87 90  1  0
 87 89  1  0
 88 86  2  0
 91 66  1  0
 91 92  1  0
 93 91  1  0
M  ISO  4   9 101  10 101  56 100  64 100
M  END
>  <TORSDO>  (36) 
F 23

>  <SCORE>  (36) 
-10.866

>  <name>  (36) 
35

>  <ligand_id>  (36) 
35

>  <original_smiles>  (36) 
[H]c1c([H])c([H])c2c(c1[H])C([H])([H])C([H])([H])C([H])([H])C2([H])N([H])C(=O)C1([H])N(C(=O)C([H])(N([H])C(=O)C([H])(N([H])C([H])([H])[H])C([H])([H])[H])C(C([H])([H])[H])(C([H])([H])[H])C([H])([H])[H])C([H])([H])c2c([H])c(OC([H])([H])C([H])([H])N3C([H])([H])C([H])([H])[N+]([H])(C([H])([H])C([H])([H])OC([H])([H])C([H])([H])N([H])C(=O)N4C([H])([H])C([H])([H])C([H])([H])C([H])(n5nc(-c6c([H])c([H])c(Oc7c([H])c([H])c(F)c([H])c7F)c([H])c6[H])c(C(=O)N([H])[H])c5N([H])[H])C4([H])[H])C([H])([H])C3([H])[H])c([H])c([H])c2C1([H])[H]

>  <smiles>  (36) 
[H]c1c([H])c([H])c2c(c1[H])C([H])([H])C([H])([H])C([H])([H])C2([H])N([H])C(=O)C1([H])N(C(=O)C([H])(N([H])C(=O)C([H])(N([H])C([H])([H])[H])C([H])([H])[H])C(C([H])([H])[H])(C([H])([H])[H])C([H])([H])[H])C([H])([H])c2c([H])c(OC([H])([H])C([H])([H])N3C([H])([H])C([H])([H])[N+]([H])(C([H])([H])C([H])([H])OC([H])([H])C([H])([H])N([H])C(=O)N4C([H])([H])C([H])([H])C([H])([H])C([H])(n5nc(-c6c([H])c([H])c(Oc7c([H])c([H])c(F)c([H])c7F)c([H])c6[H])c(C(=O)N([H])[H])c5N([H])[H])C4([H])[H])C([H])([H])C3([H])[H])c([H])c([H])c2C1([H])[H]

$$$$
36:0:0
     RDKit          3D

 97104  0  0  1  0  0  0  0  0999 V2000
  -31.0220  -19.5780   21.1520 C   0  0  0  0  0  2  0  0  0  0  0  0
  -30.8630  -18.2060   21.8330 C   0  0  0  0  0  2  0  0  0  0  0  0
  -31.0000  -17.0680   20.8980 N   0  0  0  0  0  4  0  0  0  0  0  0
  -31.6910  -17.2810   20.1970 H   0  0  0  0  0  0  0  0  0  0  0  0
  -30.1220  -16.9130   20.4330 H   0  0  0  0  0  0  0  0  0  0  0  0
  -31.3990  -15.8210   21.5800 C   0  0  0  0  0  2  0  0  0  0  0  0
  -31.6450  -14.6440   20.6050 C   0  0  0  0  0  3  0  0  0  0  0  0
  -30.0790  -13.8120   18.8310 C   0  0  0  0  0  0  0  0  0  0  0  0
  -29.2300  -11.9040   17.5290 C   0  0  0  0  0  2  0  0  0  0  0  0
  -27.9650  -12.1790   16.6990 C   0  0  0  0  0  2  0  0  0  0  0  0
  -26.7060  -11.9670   17.5540 C   0  0  0  0  0  2  0  0  0  0  0  0
  -26.7700  -12.7400   18.8950 C   0  0  0  0  0  3  0  0  0  0  0  0
  -28.1050  -12.4720   19.6280 C   0  0  0  0  0  2  0  0  0  0  0  0
  -29.2250  -12.7690   18.7150 N   0  0  0  0  0  0  0  0  0  0  0  0
  -30.7170  -14.2930   17.8890 O   0  0  0  0  0  0  0  0  0  0  0  0
  -30.3700  -14.1120   20.1030 N   0  0  0  0  0  0  0  0  0  0  0  0
  -29.8110  -13.6210   20.7840 H   0  0  0  0  0  0  0  0  0  0  0  0
  -24.6950  -13.2830   20.3240 C   0  0  0  0  0  0  0  0  0  0  0  0
  -23.7790  -12.4800   20.9490 C   0  0  0  0  0  0  0  0  0  0  0  0
  -24.1980  -11.1360   20.7000 C   0  0  0  0  0  0  0  0  0  0  0  0
  -25.6170  -12.4270   19.7400 N   0  0  0  0  0  0  0  0  0  0  0  0
  -25.3370  -11.1290   20.0200 N   0  0  0  0  0  0  0  0  0  0  0  0
  -23.5520   -9.8580   21.0240 C   0  0  0  0  0  0  0  0  0  0  0  0
  -24.1410   -8.9370   21.9160 C   0  0  0  0  0  3  0  0  0  0  0  0
  -23.4920   -7.7220   22.2240 C   0  0  0  0  0  3  0  0  0  0  0  0
  -22.2390   -7.4190   21.6400 C   0  0  0  0  0  0  0  0  0  0  0  0
  -21.6680   -8.3300   20.7350 C   0  0  0  0  0  3  0  0  0  0  0  0
  -22.3170   -9.5360   20.4250 C   0  0  0  0  0  3  0  0  0  0  0  0
  -21.5470   -6.2530   21.8610 O   0  0  0  0  0  0  0  0  0  0  0  0
  -21.5830   -5.6140   23.0750 C   0  0  0  0  0  0  0  0  0  0  0  0
  -21.1620   -6.2490   24.2650 C   0  0  0  0  0  3  0  0  0  0  0  0
  -21.1500   -5.5320   25.4780 C   0  0  0  0  0  3  0  0  0  0  0  0
  -21.5460   -4.1820   25.5040 C   0  0  0  0  0  0  0  0  0  0  0  0
  -21.9600   -3.5470   24.3190 C   0  0  0  0  0  3  0  0  0  0  0  0
  -21.9750   -4.2610   23.1080 C   0  0  0  0  0  0  0  0  0  0  0  0
  -22.3540   -3.6370   21.9660 F   0  0  0  0  0  0  0  0  0  0  0  0
  -21.5270   -3.4910   26.6670 F   0  0  0  0  0  0  0  0  0  0  0  0
  -22.5300  -12.9250   21.6550 C   0  0  0  0  0  0  0  0  0  0  0  0
  -22.1030  -12.1860   22.6730 N   0  0  0  0  0  0  0  0  0  0  0  0
  -21.9520  -13.9650   21.3380 O   0  0  0  0  0  0  0  0  0  0  0  0
  -22.5890  -11.3440   22.9470 H   0  0  0  0  0  0  0  0  0  0  0  0
  -21.2800  -12.4650   23.1860 H   0  0  0  0  0  0  0  0  0  0  0  0
  -24.8100  -14.6630   20.1870 N   0  0  0  0  0  0  0  0  0  0  0  0
  -24.1160  -15.3030   20.5570 H   0  0  0  0  0  0  0  0  0  0  0  0
  -25.5330  -15.1290   19.6530 H   0  0  0  0  0  0  0  0  0  0  0  0
  -33.8070  -14.0050   21.8360 C   0  0  0  0  0  1  0  0  0  0  0  0
  -31.7130  -12.6980   22.2920 C   0  0  0  0  0  1  0  0  0  0  0  0
  -32.8930  -12.4840   20.0960 C   0  0  0  0  0  1  0  0  0  0  0  0
  -32.4970  -13.4770   21.2110 C   0  0  1  0  0  0  0  0  0  0  0  0
  -30.5300  -20.7090   22.0730 C   0  0  0  0  0  2  0  0  0  0  0  0
  -30.8820  -22.0570   21.5780 N   0  0  0  0  0  4  0  0  0  0  0  0
  -30.7630  -22.0830   20.5790 H   0  0  0  0  0  0  0  0  0  0  0  0
  -31.8510  -22.2450   21.7810 H   0  0  0  0  0  0  0  0  0  0  0  0
  -30.0430  -23.1150   22.1810 C   0  0  0  0  0  2  0  0  0  0  0  0
  -30.2900  -24.4980   21.5620 C   0  0  0  0  0  2  0  0  0  0  0  0
  -29.1930  -25.4880   21.9700 C   0  0  0  0  0  2  0  0  0  0  0  0
  -29.3100  -26.6640   21.1840 O   0  0  0  0  0  0  0  0  0  0  0  0
  -24.9230  -31.7840   23.4290 C   0  0  0  0  0  0  0  0  0  0  0  0
  -28.1210  -27.3190   21.0220 C   0  0  0  0  0  0  0  0  0  0  0  0
  -23.9930  -30.2170   21.7540 C   0  0  0  0  0  3  0  0  0  0  0  0
  -25.6790  -28.6620   20.6390 C   0  0  0  0  0  0  0  0  0  0  0  0
  -26.5020  -30.6960   21.8400 C   0  0  0  0  0  2  0  0  0  0  0  0
  -26.7260  -29.2920   21.3230 C   0  0  0  0  0  0  0  0  0  0  0  0
  -27.9540  -28.6260   21.5160 C   0  0  0  0  0  3  0  0  0  0  0  0
  -27.0640  -26.6850   20.3390 C   0  0  0  0  0  3  0  0  0  0  0  0
  -25.8390  -27.3530   20.1470 C   0  0  0  0  0  3  0  0  0  0  0  0
  -24.4030  -29.4540   20.4670 C   0  0  0  0  0  2  0  0  0  0  0  0
  -25.1490  -30.9180   22.4010 N   0  0  0  0  0  0  0  0  0  0  0  0
  -23.7720  -32.0390   23.8090 O   0  0  0  0  0  0  0  0  0  0  0  0
  -23.2690  -29.2310   22.6970 C   0  0  0  0  0  0  0  0  0  0  0  0
  -21.9710  -29.0020   22.4370 N   0  0  0  0  0  0  0  0  0  0  0  0
  -23.8750  -28.6740   23.6160 O   0  0  0  0  0  0  0  0  0  0  0  0
  -21.5470  -29.5020   21.6690 H   0  0  0  0  0  0  0  0  0  0  0  0
  -18.5620  -27.8460   22.7180 C   0  0  0  0  0  0  0  0  0  0  0  0
  -21.0970  -28.0850   23.1670 C   0  0  0  0  0  3  0  0  0  0  0  0
  -21.2260  -26.6420   22.6250 C   0  0  0  0  0  2  0  0  0  0  0  0
  -20.1940  -26.3110   21.5420 C   0  0  0  0  0  2  0  0  0  0  0  0
  -18.7720  -26.4810   22.0840 C   0  0  0  0  0  2  0  0  0  0  0  0
  -19.6550  -28.6050   23.2120 C   0  0  0  0  0  0  0  0  0  0  0  0
  -19.4090  -29.8830   23.7580 C   0  0  0  0  0  3  0  0  0  0  0  0
  -18.1020  -30.4000   23.8220 C   0  0  0  0  0  3  0  0  0  0  0  0
  -17.0200  -29.6360   23.3490 C   0  0  0  0  0  3  0  0  0  0  0  0
  -17.2520  -28.3620   22.8010 C   0  0  0  0  0  3  0  0  0  0  0  0
  -26.0960  -32.5130   24.1570 C   0  0  0  0  0  3  0  0  0  0  0  0
  -26.5100  -31.8230   25.5130 C   0  0  1  0  0  0  0  0  0  0  0  0
  -25.3100  -31.4760   26.4260 C   0  0  0  0  0  1  0  0  0  0  0  0
  -27.2950  -30.5190   25.2400 C   0  0  0  0  0  1  0  0  0  0  0  0
  -27.4620  -32.7510   26.3040 C   0  0  0  0  0  1  0  0  0  0  0  0
  -25.6790  -33.9020   24.3860 N   0  0  0  0  0  0  0  0  0  0  0  0
  -26.0120  -34.9340   23.6000 C   0  0  0  0  0  0  0  0  0  0  0  0
  -26.7720  -34.8230   22.6330 O   0  0  0  0  0  0  0  0  0  0  0  0
  -25.0130  -34.0580   25.1280 H   0  0  0  0  0  0  0  0  0  0  0  0
  -24.2040  -36.5780   23.0150 C   0  0  0  0  0  1  0  0  0  0  0  0
  -25.4030  -36.3070   23.9380 C   0  0  0  0  0  3  0  0  0  0  0  0
  -27.4120  -37.3720   24.8600 C   0  0  0  0  0  1  0  0  0  0  0  0
  -26.3700  -37.4210   23.8380 N   0  0  0  0  0  0  0  0  0  0  0  0
  -25.8980  -38.3180   23.9120 H   0  0  0  0  0  0  0  0  0  0  0  0
  1  2  1  0
  1 50  1  0
  3  6  1  0
  3  2  1  0
  4  3  1  0
  5  3  1  0
  7 49  1  0
  7  6  1  0
  8 16  1  0
  9 14  1  0
 10  9  1  0
 10 11  1  0
 12 11  1  0
 12 13  1  0
 12 21  1  0
 14  8  1  0
 14 13  1  0
 15  8  2  0
 16  7  1  0
 16 17  1  0
 18 19  2  0
 19 38  1  0
 20 19  1  0
 20 23  1  0
 21 22  1  0
 21 18  1  0
 22 20  2  0
 23 24  1  0
 24 25  2  0
 26 29  1  0
 26 25  1  0
 27 26  2  0
 28 27  1  0
 28 23  2  0
 29 30  1  0
 30 35  2  0
 30 31  1  0
 31 32  2  0
 32 33  1  0
 33 37  1  0
 34 33  2  0
 35 34  1  0
 36 35  1  0
 38 39  1  0
 39 41  1  0
 39 42  1  0
 40 38  2  0
 43 18  1  0
 43 44  1  0
 45 43  1  0
 49 48  1  6
 49 46  1  0
 49 47  1  0
 51 53  1  0
 51 50  1  0
 51 54  1  0
 52 51  1  0
 55 56  1  0
 55 54  1  0
 57 56  1  0
 58 69  2  0
 59 57  1  0
 59 64  1  0
 60 68  1  0
 60 70  1  0
 61 63  1  0
 62 68  1  0
 63 64  2  0
 63 62  1  0
 65 59  2  0
 66 65  1  0
 66 61  2  0
 67 61  1  0
 67 60  1  0
 68 58  1  0
 70 72  2  0
 71 70  1  0
 73 71  1  0
 74 83  2  0
 74 79  1  0
 75 71  1  0
 75 79  1  0
 76 75  1  0
 77 78  1  0
 77 76  1  0
 78 74  1  0
 79 80  2  0
 80 81  1  0
 82 81  2  0
 83 82  1  0
 84 58  1  0
 84 89  1  0
 84 85  1  0
 85 88  1  1
 85 86  1  0
 87 85  1  0
 89 92  1  0
 90 94  1  0
 90 89  1  0
 91 90  2  0
 94 93  1  0
 96 97  1  0
 96 94  1  0
 96 95  1  0
M  ISO  4   8 100  16 100  56 101  57 101
M  END
>  <TORSDO>  (37) 
F 26

>  <SCORE>  (37) 
-4.820

>  <name>  (37) 
36

>  <ligand_id>  (37) 
36

>  <original_smiles>  (37) 
[H]c1c([H])c([H])c2c(c1[H])C([H])([H])C([H])([H])C([H])([H])C2([H])N([H])C(=O)C1([H])N(C(=O)C([H])(N([H])C(=O)C([H])(N([H])C([H])([H])[H])C([H])([H])[H])C(C([H])([H])[H])(C([H])([H])[H])C([H])([H])[H])C([H])([H])c2c([H])c(OC([H])([H])C([H])([H])C([H])([H])[N+]([H])([H])C([H])([H])C([H])([H])C([H])([H])[N+]([H])([H])C([H])([H])C([H])(N([H])C(=O)N3C([H])([H])C([H])([H])C([H])([H])C([H])(n4nc(-c5c([H])c([H])c(Oc6c([H])c([H])c(F)c([H])c6F)c([H])c5[H])c(C(=O)N([H])[H])c4N([H])[H])C3([H])[H])C(C([H])([H])[H])(C([H])([H])[H])C([H])([H])[H])c([H])c([H])c2C1([H])[H]

>  <smiles>  (37) 
[H]c1c([H])c([H])c2c(c1[H])C([H])([H])C([H])([H])C([H])([H])C2([H])N([H])C(=O)C1([H])N(C(=O)C([H])(N([H])C(=O)C([H])(N([H])C([H])([H])[H])C([H])([H])[H])C(C([H])([H])[H])(C([H])([H])[H])C([H])([H])[H])C([H])([H])c2c([H])c(OC([H])([H])C([H])([H])C([H])([H])[N+]([H])([H])C([H])([H])C([H])([H])C([H])([H])[N+]([H])([H])C([H])([H])C([H])(N([H])C(=O)N3C([H])([H])C([H])([H])C([H])([H])C([H])(n4nc(-c5c([H])c([H])c(Oc6c([H])c([H])c(F)c([H])c6F)c([H])c5[H])c(C(=O)N([H])[H])c4N([H])[H])C3([H])[H])C(C([H])([H])[H])(C([H])([H])[H])C([H])([H])[H])c([H])c([H])c2C1([H])[H]

$$$$
37:0:0
     RDKit          3D

 99106  0  0  1  0  0  0  0  0999 V2000
  -23.4640  -27.2830   25.0530 C   0  0  0  0  0  2  0  0  0  0  0  0
  -23.5790  -25.6200   24.3270 C   0  0  0  0  0  2  0  0  0  0  0  0
  -25.1510  -23.1190   23.8200 C   0  0  0  0  0  0  0  0  0  0  0  0
  -24.3330  -22.4500   24.6550 N   0  0  0  0  0  4  0  0  0  0  0  0
  -24.8460  -24.5940   23.8360 N   0  0  0  0  0  0  0  0  0  0  0  0
  -24.4390  -21.4540   24.8000 H   0  0  0  0  0  0  0  0  0  0  0  0
  -23.6850  -22.9300   25.2670 H   0  0  0  0  0  0  0  0  0  0  0  0
  -25.5050  -25.1190   23.2700 H   0  0  0  0  0  0  0  0  0  0  0  0
  -26.3230  -22.0530   23.0080 C   0  0  0  0  0  3  0  0  0  0  0  0
  -26.6850  -20.2430   22.7950 C   0  0  0  0  0  3  0  0  0  0  0  0
  -27.9990  -19.1800   22.0770 C   0  0  0  0  0  3  0  0  0  0  0  0
  -28.2410  -17.3790   21.8030 C   0  0  0  0  0  3  0  0  0  0  0  0
  -30.2310  -15.2180   20.7620 C   0  0  0  0  0  0  0  0  0  0  0  0
  -30.3800  -12.8430   19.6590 C   0  0  0  0  0  2  0  0  0  0  0  0
  -29.5370  -12.6390   18.3690 C   0  0  0  0  0  2  0  0  0  0  0  0
  -28.0800  -12.3240   18.7310 C   0  0  0  0  0  2  0  0  0  0  0  0
  -27.5740  -13.2580   19.8560 C   0  0  0  0  0  3  0  0  0  0  0  0
  -28.5170  -13.3320   21.0630 C   0  0  0  0  0  2  0  0  0  0  0  0
  -29.7440  -13.9030   20.5520 N   0  0  0  0  0  0  0  0  0  0  0  0
  -31.4210  -15.2890   20.3860 O   0  0  0  0  0  0  0  0  0  0  0  0
  -29.5400  -16.4940   21.1830 N   0  0  0  0  0  0  0  0  0  0  0  0
  -30.2780  -17.1770   21.0720 H   0  0  0  0  0  0  0  0  0  0  0  0
  -25.2120  -13.8180   20.5670 C   0  0  0  0  0  0  0  0  0  0  0  0
  -24.1530  -13.0410   20.9190 C   0  0  0  0  0  0  0  0  0  0  0  0
  -24.6170  -11.6880   20.8730 C   0  0  0  0  0  0  0  0  0  0  0  0
  -26.2440  -12.9400   20.3050 N   0  0  0  0  0  0  0  0  0  0  0  0
  -25.9050  -11.6530   20.5590 N   0  0  0  0  0  0  0  0  0  0  0  0
  -23.8930  -10.4260   21.0420 C   0  0  0  0  0  0  0  0  0  0  0  0
  -24.3550   -9.4190   21.9180 C   0  0  0  0  0  3  0  0  0  0  0  0
  -23.6250   -8.2210   22.0760 C   0  0  0  0  0  3  0  0  0  0  0  0
  -22.4240   -8.0240   21.3550 C   0  0  0  0  0  0  0  0  0  0  0  0
  -21.9830   -9.0190   20.4650 C   0  0  0  0  0  3  0  0  0  0  0  0
  -22.7120  -10.2070   20.3050 C   0  0  0  0  0  3  0  0  0  0  0  0
  -21.6630   -6.8820   21.4240 O   0  0  0  0  0  0  0  0  0  0  0  0
  -21.6840   -6.0700   22.5280 C   0  0  0  0  0  0  0  0  0  0  0  0
  -21.4000   -6.5620   23.8210 C   0  0  0  0  0  3  0  0  0  0  0  0
  -21.3660   -5.6780   24.9180 C   0  0  0  0  0  3  0  0  0  0  0  0
  -21.6050   -4.3050   24.7240 C   0  0  0  0  0  0  0  0  0  0  0  0
  -21.8820   -3.8120   23.4370 C   0  0  0  0  0  3  0  0  0  0  0  0
  -21.9190   -4.6920   22.3420 C   0  0  0  0  0  0  0  0  0  0  0  0
  -22.1670   -4.2120   21.0990 F   0  0  0  0  0  0  0  0  0  0  0  0
  -21.5630   -3.4540   25.7760 F   0  0  0  0  0  0  0  0  0  0  0  0
  -22.7580  -13.5160   21.1950 C   0  0  0  0  0  0  0  0  0  0  0  0
  -22.0280  -12.8150   22.0510 N   0  0  0  0  0  0  0  0  0  0  0  0
  -22.3290  -14.5500   20.6810 O   0  0  0  0  0  0  0  0  0  0  0  0
  -22.3920  -11.9780   22.4840 H   0  0  0  0  0  0  0  0  0  0  0  0
  -21.0910  -13.1190   22.2800 H   0  0  0  0  0  0  0  0  0  0  0  0
  -25.3830  -15.1930   20.4180 N   0  0  0  0  0  0  0  0  0  0  0  0
  -24.6190  -15.8470   20.5460 H   0  0  0  0  0  0  0  0  0  0  0  0
  -26.2270  -15.6270   20.0720 H   0  0  0  0  0  0  0  0  0  0  0  0
  -22.3080  -28.7580   25.1370 C   0  0  0  0  0  2  0  0  0  0  0  0
  -21.7920  -30.0740   24.1170 N   0  0  0  0  0  4  0  0  0  0  0  0
  -21.0860  -30.5240   24.6780 H   0  0  0  0  0  0  0  0  0  0  0  0
  -22.5610  -30.7410   24.1520 H   0  0  0  0  0  0  0  0  0  0  0  0
  -21.1640  -30.3200   22.4890 C   0  0  0  0  0  3  0  0  0  0  0  0
  -21.3360  -29.3520   20.8500 C   0  0  0  0  0  3  0  0  0  0  0  0
  -22.4660  -27.9610   20.1440 C   0  0  0  0  0  2  0  0  0  0  0  0
  -23.9610  -26.8850   20.5960 C   0  0  0  0  0  2  0  0  0  0  0  0
  -25.6440  -26.8400   20.8560 O   0  0  0  0  0  0  0  0  0  0  0  0
  -24.7230  -31.8640   23.2200 C   0  0  0  0  0  0  0  0  0  0  0  0
  -26.7020  -27.3340   20.1270 C   0  0  0  0  0  3  0  0  0  0  0  0
  -23.7070  -30.3600   21.5660 C   0  0  0  0  0  3  0  0  0  0  0  0
  -25.1040  -29.3800   19.7490 C   0  0  0  0  0  3  0  0  0  0  0  0
  -26.1650  -30.8310   21.4680 C   0  0  0  0  0  2  0  0  0  0  0  0
  -26.1690  -29.5750   20.6220 C   0  0  0  0  0  3  0  0  0  0  0  0
  -27.1170  -28.5540   20.7200 C   0  0  0  0  0  2  0  0  0  0  0  0
  -26.1110  -27.3520   18.8870 C   0  0  0  0  0  2  0  0  0  0  0  0
  -25.1520  -28.3710   18.7620 C   0  0  0  0  0  2  0  0  0  0  0  0
  -23.9540  -30.2730   20.0150 C   0  0  0  0  0  2  0  0  0  0  0  0
  -24.8660  -31.0650   22.1330 N   0  0  0  0  0  0  0  0  0  0  0  0
  -23.6100  -32.0790   23.7310 O   0  0  0  0  0  0  0  0  0  0  0  0
  -23.4550  -28.9650   22.4420 C   0  0  0  0  0  0  0  0  0  0  0  0
  -22.3140  -28.0630   22.7200 N   0  0  0  0  0  0  0  0  0  0  0  0
  -24.4070  -28.6530   23.0840 O   0  0  0  0  0  0  0  0  0  0  0  0
  -22.8020  -27.2840   23.1320 H   0  0  0  0  0  0  0  0  0  0  0  0
  -18.0610  -28.0380   22.7760 C   0  0  0  0  0  0  0  0  0  0  0  0
  -20.7210  -27.7590   23.0310 C   0  0  0  0  0  3  0  0  0  0  0  0
  -20.5170  -26.4450   22.3330 C   0  0  0  0  0  2  0  0  0  0  0  0
  -19.3720  -26.4460   21.3520 C   0  0  0  0  0  2  0  0  0  0  0  0
  -18.0590  -26.7140   22.0560 C   0  0  0  0  0  2  0  0  0  0  0  0
  -19.2720  -28.5770   23.3120 C   0  0  0  0  0  0  0  0  0  0  0  0
  -18.9730  -29.7140   24.1780 C   0  0  0  0  0  3  0  0  0  0  0  0
  -17.7460  -30.4160   24.2130 C   0  0  0  0  0  3  0  0  0  0  0  0
  -16.6340  -29.8770   23.5730 C   0  0  0  0  0  3  0  0  0  0  0  0
  -16.7890  -28.6480   22.9230 C   0  0  0  0  0  3  0  0  0  0  0  0
  -25.9700  -32.5050   23.8730 C   0  0  0  0  0  3  0  0  0  0  0  0
  -25.6180  -33.8770   24.2600 N   0  0  0  0  0  0  0  0  0  0  0  0
  -25.9060  -34.9590   23.5250 C   0  0  0  0  0  0  0  0  0  0  0  0
  -26.5470  -34.8990   22.4730 O   0  0  0  0  0  0  0  0  0  0  0  0
  -25.0330  -33.9940   25.0750 H   0  0  0  0  0  0  0  0  0  0  0  0
  -24.1430  -36.7340   23.2630 C   0  0  0  0  0  1  0  0  0  0  0  0
  -25.4070  -36.3240   24.0380 C   0  0  0  0  0  3  0  0  0  0  0  0
  -27.5550  -37.1840   24.8470 C   0  0  0  0  0  1  0  0  0  0  0  0
  -26.4270  -37.3890   23.9410 N   0  0  0  0  0  0  0  0  0  0  0  0
  -26.0260  -38.3000   24.1390 H   0  0  0  0  0  0  0  0  0  0  0  0
  -26.4740  -31.6760   25.1150 C   0  0  1  0  0  0  0  0  0  0  0  0
  -25.3730  -31.3700   26.1570 C   0  0  0  0  0  1  0  0  0  0  0  0
  -27.0810  -30.3190   24.6870 C   0  0  0  0  0  1  0  0  0  0  0  0
  -27.6090  -32.4480   25.8210 C   0  0  0  0  0  1  0  0  0  0  0  0
  1 51  1  0
  2  1  1  0
  3  5  1  0
  3  4  2  0
  4  6  1  0
  4  7  1  0
  5  2  1  0
  8  5  1  0
  9  3  1  0
 10  9  2  0
 11 10  1  0
 12 11  2  0
 13 21  1  0
 14 19  1  0
 15 16  1  0
 15 14  1  0
 17 16  1  0
 17 26  1  0
 17 18  1  0
 19 13  1  0
 19 18  1  0
 20 13  2  0
 21 12  1  0
 22 21  1  0
 23 24  2  0
 24 43  1  0
 25 24  1  0
 25 28  1  0
 26 27  1  0
 26 23  1  0
 27 25  2  0
 28 29  1  0
 29 30  2  0
 31 34  1  0
 31 30  1  0
 32 31  2  0
 33 32  1  0
 33 28  2  0
 34 35  1  0
 35 36  1  0
 36 37  2  0
 38 37  1  0
 38 42  1  0
 39 38  2  0
 40 35  2  0
 40 39  1  0
 41 40  1  0
 43 44  1  0
 44 47  1  0
 44 46  1  0
 45 43  2  0
 48 49  1  0
 48 23  1  0
 50 48  1  0
 52 54  1  0
 52 53  1  0
 52 51  1  0
 55 52  1  0
 56 55  2  0
 57 58  1  0
 57 56  1  0
 58 59  1  0
 60 71  2  0
 61 66  1  0
 61 59  1  0
 62 70  1  0
 62 72  1  0
 63 68  1  0
 63 69  1  0
 63 65  1  0
 64 70  1  0
 65 66  1  0
 65 64  1  0
 67 61  1  0
 68 67  1  0
 69 62  1  0
 70 60  1  0
 72 73  1  0
 72 74  2  0
 73 75  1  0
 76 85  2  0
 76 81  1  0
 77 73  1  0
 77 81  1  0
 78 77  1  0
 79 80  1  0
 79 78  1  0
 80 76  1  0
 81 82  2  0
 82 83  1  0
 84 83  2  0
 85 84  1  0
 86 60  1  0
 86 87  1  0
 86 96  1  0
 87 90  1  0
 88 92  1  0
 88 87  1  0
 89 88  2  0
 92 91  1  0
 94 92  1  0
 94 95  1  0
 94 93  1  0
 96 99  1  1
 96 97  1  0
 98 96  1  0
M  ISO  4  13 100  21 100  58 101  59 101
M  END
>  <TORSDO>  (38) 
F 28

>  <SCORE>  (38) 
17.378

>  <name>  (38) 
37

>  <ligand_id>  (38) 
37

>  <original_smiles>  (38) 
[H]c1c([H])c([H])c2c(c1[H])C([H])([H])C([H])([H])C([H])([H])C2([H])N([H])C(=O)C1([H])N(C(=O)C([H])(N([H])C(=O)C([H])(N([H])C([H])([H])[H])C([H])([H])[H])C(C([H])([H])[H])(C([H])([H])[H])C([H])([H])[H])C([H])([H])c2c([H])c(OC([H])([H])C([H])([H])C([H])([H])C([H])([H])[N+]([H])([H])C([H])([H])C([H])([H])C([H])([H])[N+]([H])=C(N([H])[H])C([H])([H])C([H])([H])C([H])([H])C([H])([H])N([H])C(=O)N3C([H])([H])C([H])([H])C([H])([H])C([H])(n4nc(-c5c([H])c([H])c(Oc6c([H])c([H])c(F)c([H])c6F)c([H])c5[H])c(C(=O)N([H])[H])c4N([H])[H])C3([H])[H])c([H])c([H])c2C1([H])[H]

>  <smiles>  (38) 
[H]c1c([H])c([H])c2c(c1[H])C([H])([H])C([H])([H])C([H])([H])C2([H])N([H])C(=O)C1([H])N(C(=O)C([H])(N([H])C(=O)C([H])(N([H])C([H])([H])[H])C([H])([H])[H])C(C([H])([H])[H])(C([H])([H])[H])C([H])([H])[H])C([H])([H])c2c([H])c(OC([H])([H])C([H])([H])C([H])([H])C([H])([H])[N+]([H])([H])C([H])([H])C([H])([H])C([H])([H])[N+]([H])=C(N([H])[H])C([H])([H])C([H])([H])C([H])([H])C([H])([H])N([H])C(=O)N3C([H])([H])C([H])([H])C([H])([H])C([H])(n4nc(-c5c([H])c([H])c(Oc6c([H])c([H])c(F)c([H])c6F)c([H])c5[H])c(C(=O)N([H])[H])c4N([H])[H])C3([H])[H])c([H])c([H])c2C1([H])[H]

$$$$
39:0:0
     RDKit          3D

 98105  0  0  1  0  0  0  0  0999 V2000
  -23.8260  -20.7760   19.4400 C   0  0  0  0  0  2  0  0  0  0  0  0
  -24.3950  -22.1380   19.8700 C   0  0  0  0  0  2  0  0  0  0  0  0
  -25.2950  -22.6360   18.8200 N   0  0  0  0  0  4  0  0  0  0  0  0
  -25.7190  -21.8060   18.4210 H   0  0  0  0  0  0  0  0  0  0  0  0
  -24.7370  -23.0640   18.0990 H   0  0  0  0  0  0  0  0  0  0  0  0
  -26.3250  -23.5880   19.2590 C   0  0  0  0  0  2  0  0  0  0  0  0
  -27.1380  -24.0770   18.0500 C   0  0  0  0  0  2  0  0  0  0  0  0
  -28.1110  -25.2030   18.4210 C   0  0  0  0  0  2  0  0  0  0  0  0
  -28.2780  -26.2410   17.2960 C   0  0  0  0  0  2  0  0  0  0  0  0
  -28.2010  -27.5500   17.8470 O   0  0  0  0  0  0  0  0  0  0  0  0
  -24.7660  -30.9690   23.0190 C   0  0  0  0  0  0  0  0  0  0  0  0
  -26.9800  -28.0510   18.2530 C   0  0  0  0  0  0  0  0  0  0  0  0
  -23.3330  -30.0890   21.2030 C   0  0  0  0  0  3  0  0  0  0  0  0
  -24.5650  -29.2200   19.1480 C   0  0  0  0  0  0  0  0  0  0  0  0
  -25.7760  -30.7030   20.7580 C   0  0  0  0  0  2  0  0  0  0  0  0
  -25.7870  -29.6300   19.6920 C   0  0  0  0  0  0  0  0  0  0  0  0
  -26.9920  -29.0480   19.2480 C   0  0  0  0  0  3  0  0  0  0  0  0
  -25.7340  -27.6350   17.7210 C   0  0  0  0  0  3  0  0  0  0  0  0
  -24.5310  -28.2170   18.1640 C   0  0  0  0  0  3  0  0  0  0  0  0
  -23.3230  -29.9120   19.6610 C   0  0  0  0  0  2  0  0  0  0  0  0
  -24.6530  -30.5830   21.7170 N   0  0  0  0  0  0  0  0  0  0  0  0
  -23.7870  -30.9610   23.7770 O   0  0  0  0  0  0  0  0  0  0  0  0
  -22.8820  -28.7620   21.8530 C   0  0  0  0  0  0  0  0  0  0  0  0
  -21.5910  -28.4290   21.6940 N   0  0  0  0  0  0  0  0  0  0  0  0
  -23.6870  -28.0460   22.4550 O   0  0  0  0  0  0  0  0  0  0  0  0
  -20.9960  -29.0720   21.1920 H   0  0  0  0  0  0  0  0  0  0  0  0
  -18.4980  -26.5650   21.6970 C   0  0  0  0  0  0  0  0  0  0  0  0
  -20.9520  -27.2100   22.1850 C   0  0  0  0  0  3  0  0  0  0  0  0
  -21.3390  -25.9920   21.3160 C   0  0  0  0  0  2  0  0  0  0  0  0
  -20.3410  -25.7150   20.1860 C   0  0  0  0  0  2  0  0  0  0  0  0
  -18.9430  -25.4600   20.7560 C   0  0  0  0  0  2  0  0  0  0  0  0
  -19.4410  -27.3960   22.3570 C   0  0  0  0  0  0  0  0  0  0  0  0
  -18.9730  -28.4310   23.1960 C   0  0  0  0  0  3  0  0  0  0  0  0
  -17.5940  -28.6400   23.3830 C   0  0  0  0  0  3  0  0  0  0  0  0
  -16.6650  -27.8040   22.7380 C   0  0  0  0  0  3  0  0  0  0  0  0
  -17.1170  -26.7690   21.9020 C   0  0  0  0  0  3  0  0  0  0  0  0
  -26.1250  -31.4620   23.6110 C   0  0  0  0  0  3  0  0  0  0  0  0
  -25.8820  -32.7650   24.2450 N   0  0  0  0  0  0  0  0  0  0  0  0
  -26.2100  -33.9460   23.7040 C   0  0  0  0  0  0  0  0  0  0  0  0
  -26.8200  -34.0470   22.6360 O   0  0  0  0  0  0  0  0  0  0  0  0
  -25.3350  -32.7590   25.0940 H   0  0  0  0  0  0  0  0  0  0  0  0
  -24.5560  -35.8370   23.8020 C   0  0  0  0  0  1  0  0  0  0  0  0
  -25.7930  -35.2160   24.4690 C   0  0  0  0  0  3  0  0  0  0  0  0
  -27.9780  -35.8150   25.4160 C   0  0  0  0  0  1  0  0  0  0  0  0
  -26.8700  -36.2270   24.5580 N   0  0  0  0  0  0  0  0  0  0  0  0
  -26.5090  -37.1100   24.9080 H   0  0  0  0  0  0  0  0  0  0  0  0
  -26.7610  -30.4480   24.6370 C   0  0  1  0  0  0  0  0  0  0  0  0
  -25.7870  -29.9990   25.7540 C   0  0  0  0  0  1  0  0  0  0  0  0
  -27.2590  -29.1770   23.9100 C   0  0  0  0  0  1  0  0  0  0  0  0
  -28.0000  -31.0880   25.3070 C   0  0  0  0  0  1  0  0  0  0  0  0
  -24.8810  -19.6500   19.4030 C   0  0  0  0  0  2  0  0  0  0  0  0
  -26.0020  -19.9660   18.5040 N   0  0  0  0  0  0  0  0  0  0  0  0
  -25.6220  -20.1040   17.5650 H   0  0  0  0  0  0  0  0  0  0  0  0
  -26.8520  -18.7790   18.3990 C   0  0  0  0  0  2  0  0  0  0  0  0
  -28.3200  -19.0890   18.0140 C   0  0  0  0  0  2  0  0  0  0  0  0
  -29.2090  -19.1530   19.1990 N   0  0  0  0  0  4  0  0  0  0  0  0
  -28.7520  -19.7260   19.8940 H   0  0  0  0  0  0  0  0  0  0  0  0
  -30.0540  -19.6220   18.9090 H   0  0  0  0  0  0  0  0  0  0  0  0
  -29.5770  -17.8270   19.7430 C   0  0  0  0  0  2  0  0  0  0  0  0
  -30.4270  -17.8770   21.0380 C   0  0  0  0  0  2  0  0  0  0  0  0
  -31.3100  -15.5440   20.9840 C   0  0  0  0  0  0  0  0  0  0  0  0
  -31.0760  -13.3450   19.8960 C   0  0  0  0  0  2  0  0  0  0  0  0
  -30.2200  -13.4700   18.6110 C   0  0  0  0  0  2  0  0  0  0  0  0
  -28.7230  -13.7790   18.8720 C   0  0  0  0  0  2  0  0  0  0  0  0
  -28.3440  -13.6790   20.3490 C   0  0  0  0  0  3  0  0  0  0  0  0
  -29.3190  -14.1060   21.4500 C   0  0  0  0  0  2  0  0  0  0  0  0
  -30.6560  -14.3610   20.8760 N   0  0  0  0  0  0  0  0  0  0  0  0
  -32.3910  -15.7820   20.4430 O   0  0  0  0  0  0  0  0  0  0  0  0
  -30.5920  -16.5170   21.5540 N   0  0  0  0  0  0  0  0  0  0  0  0
  -29.8100  -16.1580   22.0910 H   0  0  0  0  0  0  0  0  0  0  0  0
  -25.9220  -14.6310   20.9430 C   0  0  0  0  0  0  0  0  0  0  0  0
  -24.7900  -13.8950   21.1900 C   0  0  0  0  0  0  0  0  0  0  0  0
  -25.1840  -12.5350   21.0730 C   0  0  0  0  0  0  0  0  0  0  0  0
  -26.9270  -13.6880   20.6950 N   0  0  0  0  0  0  0  0  0  0  0  0
  -26.4560  -12.4430   20.8190 N   0  0  0  0  0  0  0  0  0  0  0  0
  -24.4540  -11.2810   21.1260 C   0  0  0  0  0  0  0  0  0  0  0  0
  -24.8360  -10.2580   22.0200 C   0  0  0  0  0  3  0  0  0  0  0  0
  -24.1240   -9.0440   22.0480 C   0  0  0  0  0  3  0  0  0  0  0  0
  -23.0270   -8.8540   21.1770 C   0  0  0  0  0  0  0  0  0  0  0  0
  -22.6790   -9.8650   20.2650 C   0  0  0  0  0  3  0  0  0  0  0  0
  -23.3890  -11.0730   20.2320 C   0  0  0  0  0  3  0  0  0  0  0  0
  -22.2840   -7.7030   21.1230 O   0  0  0  0  0  0  0  0  0  0  0  0
  -22.0350   -6.9620   22.2480 C   0  0  0  0  0  0  0  0  0  0  0  0
  -21.3700   -7.5060   23.3690 C   0  0  0  0  0  3  0  0  0  0  0  0
  -21.0720   -6.6850   24.4740 C   0  0  0  0  0  3  0  0  0  0  0  0
  -21.4290   -5.3230   24.4580 C   0  0  0  0  0  0  0  0  0  0  0  0
  -22.0880   -4.7810   23.3410 C   0  0  0  0  0  3  0  0  0  0  0  0
  -22.3900   -5.5980   22.2390 C   0  0  0  0  0  0  0  0  0  0  0  0
  -23.0070   -5.0680   21.1550 F   0  0  0  0  0  0  0  0  0  0  0  0
  -21.1320   -4.5330   25.5150 F   0  0  0  0  0  0  0  0  0  0  0  0
  -23.3980  -14.3920   21.4640 C   0  0  0  0  0  0  0  0  0  0  0  0
  -22.6210  -13.6340   22.2320 N   0  0  0  0  0  0  0  0  0  0  0  0
  -23.0030  -15.4720   21.0330 O   0  0  0  0  0  0  0  0  0  0  0  0
  -22.9420  -12.7470   22.5880 H   0  0  0  0  0  0  0  0  0  0  0  0
  -21.6930  -13.9550   22.4730 H   0  0  0  0  0  0  0  0  0  0  0  0
  -26.1600  -15.9970   20.9240 N   0  0  0  0  0  0  0  0  0  0  0  0
  -25.4450  -16.6490   21.2260 H   0  0  0  0  0  0  0  0  0  0  0  0
  -27.0980  -16.3630   20.9680 H   0  0  0  0  0  0  0  0  0  0  0  0
  1  2  1  0
  3  6  1  0
  3  2  1  0
  4  3  1  0
  5  3  1  0
  7  8  1  0
  7  6  1  0
  9 10  1  0
  9  8  1  0
 10 12  1  0
 11 22  2  0
 12 17  1  0
 13 21  1  0
 13 23  1  0
 14 20  1  0
 14 16  1  0
 15 21  1  0
 16 15  1  0
 17 16  2  0
 18 19  1  0
 18 12  2  0
 19 14  2  0
 20 13  1  0
 21 11  1  0
 23 25  2  0
 24 23  1  0
 26 24  1  0
 27 36  2  0
 27 32  1  0
 28 24  1  0
 28 32  1  0
 29 28  1  0
 30 31  1  0
 30 29  1  0
 31 27  1  0
 32 33  2  0
 33 34  1  0
 35 34  2  0
 36 35  1  0
 37 11  1  0
 37 38  1  0
 37 47  1  0
 38 41  1  0
 39 38  1  0
 39 43  1  0
 40 39  2  0
 43 42  1  0
 43 45  1  0
 45 46  1  0
 45 44  1  0
 47 50  1  1
 47 48  1  0
 49 47  1  0
 51  1  1  0
 52 51  1  0
 53 52  1  0
 54 52  1  0
 55 54  1  0
 55 56  1  0
 56 59  1  0
 56 57  1  0
 58 56  1  0
 59 60  1  0
 60 69  1  0
 61 69  1  0
 62 67  1  0
 63 64  1  0
 63 62  1  0
 65 64  1  0
 65 74  1  0
 65 66  1  0
 67 61  1  0
 67 66  1  0
 68 61  2  0
 69 70  1  0
 71 72  2  0
 72 91  1  0
 73 76  1  0
 73 72  1  0
 74 75  1  0
 74 71  1  0
 75 73  2  0
 76 77  1  0
 77 78  2  0
 79 78  1  0
 80 79  2  0
 81 80  1  0
 81 76  2  0
 82 79  1  0
 82 83  1  0
 83 84  1  0
 84 85  2  0
 86 85  1  0
 86 90  1  0
 87 86  2  0
 88 83  2  0
 88 87  1  0
 89 88  1  0
 91 92  1  0
 92 95  1  0
 92 94  1  0
 93 91  2  0
 96 71  1  0
 96 98  1  0
 96 97  1  0
M  ISO  4   9 101  10 101  61 100  69 100
M  END
>  <TORSDO>  (39) 
F 29

>  <SCORE>  (39) 
-3.091

>  <name>  (39) 
39

>  <ligand_id>  (39) 
39

>  <original_smiles>  (39) 
[H]c1c([H])c([H])c2c(c1[H])C([H])([H])C([H])([H])C([H])([H])C2([H])N([H])C(=O)C1([H])N(C(=O)C([H])(N([H])C(=O)C([H])(N([H])C([H])([H])[H])C([H])([H])[H])C(C([H])([H])[H])(C([H])([H])[H])C([H])([H])[H])C([H])([H])c2c([H])c(OC([H])([H])C([H])([H])C([H])([H])C([H])([H])[N+]([H])([H])C([H])([H])C([H])([H])C([H])([H])N([H])C([H])([H])C([H])([H])[N+]([H])([H])C([H])([H])C([H])([H])N([H])C(=O)N3C([H])([H])C([H])([H])C([H])([H])C([H])(n4nc(-c5c([H])c([H])c(Oc6c([H])c([H])c(F)c([H])c6F)c([H])c5[H])c(C(=O)N([H])[H])c4N([H])[H])C3([H])[H])c([H])c([H])c2C1([H])[H]

>  <smiles>  (39) 
[H]c1c([H])c([H])c2c(c1[H])C([H])([H])C([H])([H])C([H])([H])C2([H])N([H])C(=O)C1([H])N(C(=O)C([H])(N([H])C(=O)C([H])(N([H])C([H])([H])[H])C([H])([H])[H])C(C([H])([H])[H])(C([H])([H])[H])C([H])([H])[H])C([H])([H])c2c([H])c(OC([H])([H])C([H])([H])C([H])([H])C([H])([H])[N+]([H])([H])C([H])([H])C([H])([H])C([H])([H])N([H])C([H])([H])C([H])([H])[N+]([H])([H])C([H])([H])C([H])([H])N([H])C(=O)N3C([H])([H])C([H])([H])C([H])([H])C([H])(n4nc(-c5c([H])c([H])c(Oc6c([H])c([H])c(F)c([H])c6F)c([H])c5[H])c(C(=O)N([H])[H])c4N([H])[H])C3([H])[H])c([H])c([H])c2C1([H])[H]

$$$$
40:0:0
     RDKit          3D

 97104  0  0  1  0  0  0  0  0999 V2000
  -29.0260  -22.1060   21.8050 C   0  0  0  0  0  2  0  0  0  0  0  0
  -27.6250  -21.8970   21.3640 N   0  0  0  0  0  4  0  0  0  0  0  0
  -27.2240  -21.1280   21.8770 H   0  0  0  0  0  0  0  0  0  0  0  0
  -27.0660  -22.7110   21.5640 H   0  0  0  0  0  0  0  0  0  0  0  0
  -27.4800  -21.6250   19.9140 C   0  0  0  0  0  2  0  0  0  0  0  0
  -28.1560  -20.3050   19.5020 C   0  0  0  0  0  2  0  0  0  0  0  0
  -28.0920  -20.0280   17.9930 C   0  0  0  0  0  2  0  0  0  0  0  0
  -29.0170  -18.8720   17.6060 C   0  0  0  0  0  2  0  0  0  0  0  0
  -28.5550  -17.6990   18.2580 O   0  0  0  0  0  0  0  0  0  0  0  0
  -29.5860  -16.8340   18.7060 C   0  0  0  0  0  2  0  0  0  0  0  0
  -29.7910  -16.9870   20.2360 C   0  0  0  0  0  2  0  0  0  0  0  0
  -30.6250  -14.6990   20.6530 C   0  0  0  0  0  0  0  0  0  0  0  0
  -30.4560  -12.4990   19.5890 C   0  0  0  0  0  2  0  0  0  0  0  0
  -29.5430  -12.6570   18.3510 C   0  0  0  0  0  2  0  0  0  0  0  0
  -28.0530  -12.5150   18.7280 C   0  0  0  0  0  2  0  0  0  0  0  0
  -27.6600  -13.3640   19.9670 C   0  0  0  0  0  3  0  0  0  0  0  0
  -28.6850  -13.1680   21.1110 C   0  0  0  0  0  2  0  0  0  0  0  0
  -30.0260  -13.4860   20.5870 N   0  0  0  0  0  0  0  0  0  0  0  0
  -31.7600  -14.9380   20.2330 O   0  0  0  0  0  0  0  0  0  0  0  0
  -29.7750  -15.6940   20.9180 N   0  0  0  0  0  0  0  0  0  0  0  0
  -28.8890  -15.4200   21.3120 H   0  0  0  0  0  0  0  0  0  0  0  0
  -25.2240  -13.9320   20.5920 C   0  0  0  0  0  0  0  0  0  0  0  0
  -24.1610  -13.1370   20.9310 C   0  0  0  0  0  0  0  0  0  0  0  0
  -24.6510  -11.7960   20.9190 C   0  0  0  0  0  0  0  0  0  0  0  0
  -26.2960  -13.0710   20.4040 N   0  0  0  0  0  0  0  0  0  0  0  0
  -25.9510  -11.7820   20.6550 N   0  0  0  0  0  0  0  0  0  0  0  0
  -23.9500  -10.5180   21.0870 C   0  0  0  0  0  0  0  0  0  0  0  0
  -24.3730   -9.5650   22.0400 C   0  0  0  0  0  3  0  0  0  0  0  0
  -23.6690   -8.3510   22.1980 C   0  0  0  0  0  3  0  0  0  0  0  0
  -22.5300   -8.0790   21.4020 C   0  0  0  0  0  0  0  0  0  0  0  0
  -22.1300   -9.0220   20.4390 C   0  0  0  0  0  3  0  0  0  0  0  0
  -22.8340  -10.2270   20.2790 C   0  0  0  0  0  3  0  0  0  0  0  0
  -21.8000   -6.9180   21.4720 O   0  0  0  0  0  0  0  0  0  0  0  0
  -21.7250   -6.1840   22.6300 C   0  0  0  0  0  0  0  0  0  0  0  0
  -21.2280   -6.7360   23.8300 C   0  0  0  0  0  3  0  0  0  0  0  0
  -21.0970   -5.9260   24.9760 C   0  0  0  0  0  3  0  0  0  0  0  0
  -21.4540   -4.5650   24.9230 C   0  0  0  0  0  0  0  0  0  0  0  0
  -21.9460   -4.0140   23.7270 C   0  0  0  0  0  3  0  0  0  0  0  0
  -22.0760   -4.8200   22.5840 C   0  0  0  0  0  0  0  0  0  0  0  0
  -22.5280   -4.2780   21.4260 F   0  0  0  0  0  0  0  0  0  0  0  0
  -21.3240   -3.7850   26.0210 F   0  0  0  0  0  0  0  0  0  0  0  0
  -22.7430  -13.5790   21.1640 C   0  0  0  0  0  0  0  0  0  0  0  0
  -22.0120  -12.8670   22.0130 N   0  0  0  0  0  0  0  0  0  0  0  0
  -22.2910  -14.5880   20.6220 O   0  0  0  0  0  0  0  0  0  0  0  0
  -22.3890  -12.0480   22.4690 H   0  0  0  0  0  0  0  0  0  0  0  0
  -21.0580  -13.1340   22.2110 H   0  0  0  0  0  0  0  0  0  0  0  0
  -25.3690  -15.3060   20.4120 N   0  0  0  0  0  0  0  0  0  0  0  0
  -24.5920  -15.9530   20.4960 H   0  0  0  0  0  0  0  0  0  0  0  0
  -26.2190  -15.7520   20.0910 H   0  0  0  0  0  0  0  0  0  0  0  0
  -29.1860  -22.5720   23.2680 C   0  0  0  0  0  2  0  0  0  0  0  0
  -28.7980  -24.0250   23.6300 C   0  0  0  0  0  2  0  0  0  0  0  0
  -29.5480  -25.0610   22.8840 N   0  0  0  0  0  4  0  0  0  0  0  0
  -30.4290  -24.6890   22.5630 H   0  0  0  0  0  0  0  0  0  0  0  0
  -29.7760  -25.8010   23.5360 H   0  0  0  0  0  0  0  0  0  0  0  0
  -28.7670  -25.6500   21.7730 C   0  0  0  0  0  2  0  0  0  0  0  0
  -29.5680  -26.6220   20.8930 C   0  0  0  0  0  2  0  0  0  0  0  0
  -28.8230  -26.8330   19.6980 O   0  0  0  0  0  0  0  0  0  0  0  0
  -24.7610  -31.6450   23.0790 C   0  0  0  0  0  0  0  0  0  0  0  0
  -27.6250  -27.4930   19.8230 C   0  0  0  0  0  0  0  0  0  0  0  0
  -23.6120  -30.2260   21.4080 C   0  0  0  0  0  3  0  0  0  0  0  0
  -25.1360  -28.8140   19.9260 C   0  0  0  0  0  0  0  0  0  0  0  0
  -26.1050  -30.7400   21.1910 C   0  0  0  0  0  2  0  0  0  0  0  0
  -26.2620  -29.3910   20.5240 C   0  0  0  0  0  0  0  0  0  0  0  0
  -27.5070  -28.7360   20.4810 C   0  0  0  0  0  3  0  0  0  0  0  0
  -26.4890  -26.9210   19.2180 C   0  0  0  0  0  3  0  0  0  0  0  0
  -25.2410  -27.5720   19.2730 C   0  0  0  0  0  3  0  0  0  0  0  0
  -23.8420  -29.5930   20.0090 C   0  0  0  0  0  2  0  0  0  0  0  0
  -24.8440  -30.8840   21.9530 N   0  0  0  0  0  0  0  0  0  0  0  0
  -23.6740  -31.8460   23.6390 O   0  0  0  0  0  0  0  0  0  0  0  0
  -23.0330  -29.1450   22.3470 C   0  0  0  0  0  0  0  0  0  0  0  0
  -21.7200  -28.8930   22.2250 N   0  0  0  0  0  0  0  0  0  0  0  0
  -23.7570  -28.5340   23.1370 O   0  0  0  0  0  0  0  0  0  0  0  0
  -21.1950  -29.4420   21.5570 H   0  0  0  0  0  0  0  0  0  0  0  0
  -18.4150  -27.5060   22.6990 C   0  0  0  0  0  0  0  0  0  0  0  0
  -20.9580  -27.8940   22.9720 C   0  0  0  0  0  3  0  0  0  0  0  0
  -21.1360  -26.4860   22.3590 C   0  0  0  0  0  2  0  0  0  0  0  0
  -20.0470  -26.1290   21.3400 C   0  0  0  0  0  2  0  0  0  0  0  0
  -18.6640  -26.1830   21.9910 C   0  0  0  0  0  2  0  0  0  0  0  0
  -19.4950  -28.3160   23.1440 C   0  0  0  0  0  0  0  0  0  0  0  0
  -19.2100  -29.5520   23.7640 C   0  0  0  0  0  3  0  0  0  0  0  0
  -17.8820  -29.9790   23.9440 C   0  0  0  0  0  3  0  0  0  0  0  0
  -16.8190  -29.1650   23.5170 C   0  0  0  0  0  3  0  0  0  0  0  0
  -17.0870  -27.9300   22.9000 C   0  0  0  0  0  3  0  0  0  0  0  0
  -26.0210  -32.3250   23.7050 C   0  0  0  0  0  3  0  0  0  0  0  0
  -26.6000  -31.5370   24.9430 C   0  0  1  0  0  0  0  0  0  0  0  0
  -25.5400  -31.2010   26.0190 C   0  0  0  0  0  1  0  0  0  0  0  0
  -27.2490  -30.2100   24.4870 C   0  0  0  0  0  1  0  0  0  0  0  0
  -27.7180  -32.3700   25.6160 C   0  0  0  0  0  1  0  0  0  0  0  0
  -25.6450  -33.6910   24.0830 N   0  0  0  0  0  0  0  0  0  0  0  0
  -25.9150  -34.7820   23.3550 C   0  0  0  0  0  0  0  0  0  0  0  0
  -26.5820  -34.7470   22.3160 O   0  0  0  0  0  0  0  0  0  0  0  0
  -25.0410  -33.7880   24.8870 H   0  0  0  0  0  0  0  0  0  0  0  0
  -24.0920  -36.4900   23.0670 C   0  0  0  0  0  1  0  0  0  0  0  0
  -25.3590  -36.1260   23.8590 C   0  0  0  0  0  3  0  0  0  0  0  0
  -27.4480  -37.0950   24.7050 C   0  0  0  0  0  1  0  0  0  0  0  0
  -26.3330  -37.2380   23.7740 N   0  0  0  0  0  0  0  0  0  0  0  0
  -25.8800  -38.1280   23.9550 H   0  0  0  0  0  0  0  0  0  0  0  0
  1 50  1  0
  2  4  1  0
  2  1  1  0
  2  3  1  0
  5  2  1  0
  6  5  1  0
  7  6  1  0
  8  7  1  0
  8  9  1  0
  9 10  1  0
 10 11  1  0
 11 20  1  0
 12 20  1  0
 13 18  1  0
 14 15  1  0
 14 13  1  0
 16 15  1  0
 16 25  1  0
 16 17  1  0
 18 12  1  0
 18 17  1  0
 19 12  2  0
 20 21  1  0
 22 23  2  0
 23 42  1  0
 24 23  1  0
 24 27  1  0
 25 22  1  0
 25 26  1  0
 26 24  2  0
 27 28  1  0
 28 29  2  0
 30 33  1  0
 30 29  1  0
 31 30  2  0
 32 31  1  0
 32 27  2  0
 33 34  1  0
 34 35  1  0
 35 36  2  0
 37 36  1  0
 37 41  1  0
 38 37  2  0
 39 34  2  0
 39 38  1  0
 40 39  1  0
 42 43  1  0
 43 46  1  0
 43 45  1  0
 44 42  2  0
 47 48  1  0
 47 22  1  0
 49 47  1  0
 50 51  1  0
 52 54  1  0
 52 51  1  0
 53 52  1  0
 55 52  1  0
 56 55  1  0
 57 59  1  0
 57 56  1  0
 58 69  2  0
 59 64  1  0
 60 68  1  0
 60 70  1  0
 61 67  1  0
 61 63  1  0
 62 68  1  0
 63 62  1  0
 64 63  2  0
 65 66  1  0
 65 59  2  0
 66 61  2  0
 67 60  1  0
 68 58  1  0
 70 72  2  0
 71 70  1  0
 73 71  1  0
 74 83  2  0
 74 79  1  0
 75 71  1  0
 75 79  1  0
 76 75  1  0
 77 78  1  0
 77 76  1  0
 78 74  1  0
 79 80  2  0
 80 81  1  0
 82 81  2  0
 83 82  1  0
 84 58  1  0
 84 89  1  0
 84 85  1  0
 85 88  1  1
 85 86  1  0
 87 85  1  0
 89 92  1  0
 90 94  1  0
 90 89  1  0
 91 90  2  0
 94 93  1  0
 96 94  1  0
 96 97  1  0
 96 95  1  0
M  ISO  4  12 100  20 100  56 101  57 101
M  END
>  <TORSDO>  (40) 
F 29

>  <SCORE>  (40) 
-10.112

>  <name>  (40) 
40

>  <ligand_id>  (40) 
40

>  <original_smiles>  (40) 
[H]c1c([H])c([H])c2c(c1[H])C([H])([H])C([H])([H])C([H])([H])C2([H])N([H])C(=O)C1([H])N(C(=O)C([H])(N([H])C(=O)C([H])(N([H])C([H])([H])[H])C([H])([H])[H])C(C([H])([H])[H])(C([H])([H])[H])C([H])([H])[H])C([H])([H])c2c([H])c(OC([H])([H])C([H])([H])[N+]([H])([H])C([H])([H])C([H])([H])C([H])([H])[N+]([H])([H])C([H])([H])C([H])([H])C([H])([H])C([H])([H])OC([H])([H])C([H])([H])N([H])C(=O)N3C([H])([H])C([H])([H])C([H])([H])C([H])(n4nc(-c5c([H])c([H])c(Oc6c([H])c([H])c(F)c([H])c6F)c([H])c5[H])c(C(=O)N([H])[H])c4N([H])[H])C3([H])[H])c([H])c([H])c2C1([H])[H]

>  <smiles>  (40) 
[H]c1c([H])c([H])c2c(c1[H])C([H])([H])C([H])([H])C([H])([H])C2([H])N([H])C(=O)C1([H])N(C(=O)C([H])(N([H])C(=O)C([H])(N([H])C([H])([H])[H])C([H])([H])[H])C(C([H])([H])[H])(C([H])([H])[H])C([H])([H])[H])C([H])([H])c2c([H])c(OC([H])([H])C([H])([H])[N+]([H])([H])C([H])([H])C([H])([H])C([H])([H])[N+]([H])([H])C([H])([H])C([H])([H])C([H])([H])C([H])([H])OC([H])([H])C([H])([H])N([H])C(=O)N3C([H])([H])C([H])([H])C([H])([H])C([H])(n4nc(-c5c([H])c([H])c(Oc6c([H])c([H])c(F)c([H])c6F)c([H])c5[H])c(C(=O)N([H])[H])c4N([H])[H])C3([H])[H])c([H])c([H])c2C1([H])[H]

$$$$
41:0:0
     RDKit          3D

 95102  0  0  1  0  0  0  0  0999 V2000
  -25.2780  -22.2920   21.7430 N   0  0  0  0  0  4  0  0  0  0  0  0
  -24.5030  -22.8190   22.1160 H   0  0  0  0  0  0  0  0  0  0  0  0
  -25.4520  -21.5440   22.3940 H   0  0  0  0  0  0  0  0  0  0  0  0
  -26.4520  -23.1970   21.7090 C   0  0  0  0  0  2  0  0  0  0  0  0
  -26.2030  -24.3900   20.7720 C   0  0  0  0  0  2  0  0  0  0  0  0
  -27.4550  -25.0150   20.1310 C   0  0  0  0  0  2  0  0  0  0  0  0
  -26.9880  -26.0510   19.1030 C   0  0  0  0  0  2  0  0  0  0  0  0
  -28.0830  -26.9280   18.4610 C   0  0  0  0  0  2  0  0  0  0  0  0
  -27.5150  -27.9040   17.5750 O   0  0  0  0  0  0  0  0  0  0  0  0
  -25.0260  -30.9970   23.4500 C   0  0  0  0  0  0  0  0  0  0  0  0
  -26.4950  -28.6170   18.1490 C   0  0  0  0  0  0  0  0  0  0  0  0
  -23.3670  -30.5730   21.6620 C   0  0  0  0  0  3  0  0  0  0  0  0
  -24.3330  -29.9250   19.3890 C   0  0  0  0  0  0  0  0  0  0  0  0
  -25.8270  -30.9760   21.0980 C   0  0  0  0  0  2  0  0  0  0  0  0
  -25.6320  -30.0880   19.8890 C   0  0  0  0  0  0  0  0  0  0  0  0
  -26.7200  -29.4320   19.2760 C   0  0  0  0  0  3  0  0  0  0  0  0
  -25.1900  -28.4830   17.6340 C   0  0  0  0  0  3  0  0  0  0  0  0
  -24.1030  -29.1210   18.2590 C   0  0  0  0  0  3  0  0  0  0  0  0
  -23.2220  -30.6480   20.1170 C   0  0  0  0  0  2  0  0  0  0  0  0
  -24.7710  -30.8300   22.1230 N   0  0  0  0  0  0  0  0  0  0  0  0
  -24.1110  -30.9800   24.2840 O   0  0  0  0  0  0  0  0  0  0  0  0
  -22.8020  -29.2180   22.1450 C   0  0  0  0  0  0  0  0  0  0  0  0
  -21.4790  -29.0420   22.0080 N   0  0  0  0  0  0  0  0  0  0  0  0
  -23.5470  -28.3510   22.6040 O   0  0  0  0  0  0  0  0  0  0  0  0
  -20.9340  -29.8100   21.6430 H   0  0  0  0  0  0  0  0  0  0  0  0
  -18.2380  -27.4580   21.8130 C   0  0  0  0  0  0  0  0  0  0  0  0
  -20.7350  -27.8350   22.3530 C   0  0  0  0  0  3  0  0  0  0  0  0
  -21.0200  -26.6950   21.3480 C   0  0  0  0  0  2  0  0  0  0  0  0
  -19.9950  -26.6260   20.2090 C   0  0  0  0  0  2  0  0  0  0  0  0
  -18.5920  -26.4090   20.7740 C   0  0  0  0  0  2  0  0  0  0  0  0
  -19.2460  -28.1350   22.5480 C   0  0  0  0  0  0  0  0  0  0  0  0
  -18.8680  -29.1190   23.4870 C   0  0  0  0  0  3  0  0  0  0  0  0
  -17.5110  -29.4240   23.6990 C   0  0  0  0  0  3  0  0  0  0  0  0
  -16.5140  -28.7380   22.9840 C   0  0  0  0  0  3  0  0  0  0  0  0
  -16.8780  -27.7550   22.0450 C   0  0  0  0  0  3  0  0  0  0  0  0
  -26.4730  -31.2360   23.9820 C   0  0  0  0  0  3  0  0  0  0  0  0
  -26.4470  -32.4530   24.8020 N   0  0  0  0  0  0  0  0  0  0  0  0
  -26.9770  -33.6270   24.4330 C   0  0  0  0  0  0  0  0  0  0  0  0
  -27.6110  -33.7740   23.3840 O   0  0  0  0  0  0  0  0  0  0  0  0
  -25.9000  -32.4200   25.6480 H   0  0  0  0  0  0  0  0  0  0  0  0
  -25.7030  -35.7630   24.7920 C   0  0  0  0  0  1  0  0  0  0  0  0
  -26.7720  -34.8270   25.3770 C   0  0  0  0  0  3  0  0  0  0  0  0
  -28.9880  -34.8500   26.4320 C   0  0  0  0  0  1  0  0  0  0  0  0
  -28.0130  -35.5890   25.6360 N   0  0  0  0  0  0  0  0  0  0  0  0
  -27.8070  -36.4610   26.1180 H   0  0  0  0  0  0  0  0  0  0  0  0
  -27.0430  -30.0170   24.8080 C   0  0  1  0  0  0  0  0  0  0  0  0
  -26.0980  -29.5320   25.9330 C   0  0  0  0  0  1  0  0  0  0  0  0
  -27.3260  -28.8140   23.8800 C   0  0  0  0  0  1  0  0  0  0  0  0
  -28.3950  -30.4060   25.4490 C   0  0  0  0  0  1  0  0  0  0  0  0
  -24.8700  -21.7150   20.4330 C   0  0  0  0  0  2  0  0  0  0  0  0
  -25.3370  -20.2570   20.2460 C   0  0  0  0  0  2  0  0  0  0  0  0
  -25.7500  -19.8730   18.8060 C   0  0  0  0  0  2  0  0  0  0  0  0
  -26.3130  -18.5110   18.8010 N   0  0  0  0  0  4  0  0  0  0  0  0
  -25.5920  -17.8900   18.4640 H   0  0  0  0  0  0  0  0  0  0  0  0
  -26.5140  -18.2420   19.7510 H   0  0  0  0  0  0  0  0  0  0  0  0
  -27.5420  -18.2670   18.0160 C   0  0  0  0  0  2  0  0  0  0  0  0
  -28.2780  -17.1070   18.6940 C   0  0  0  0  0  2  0  0  0  0  0  0
  -30.5260  -16.5260   19.6090 C   0  0  0  0  0  0  0  0  0  0  0  0
  -31.1230  -14.4560   20.8190 C   0  0  0  0  0  2  0  0  0  0  0  0
  -30.6930  -13.2040   20.0250 C   0  0  0  0  0  2  0  0  0  0  0  0
  -29.2230  -12.8270   20.3090 C   0  0  0  0  0  2  0  0  0  0  0  0
  -28.2790  -14.0470   20.1920 C   0  0  0  0  0  3  0  0  0  0  0  0
  -28.8540  -15.2180   21.0260 C   0  0  0  0  0  2  0  0  0  0  0  0
  -30.1860  -15.5430   20.4930 N   0  0  0  0  0  0  0  0  0  0  0  0
  -31.6740  -16.6750   19.1930 O   0  0  0  0  0  0  0  0  0  0  0  0
  -29.5940  -17.4230   19.2510 N   0  0  0  0  0  0  0  0  0  0  0  0
  -30.0050  -18.2590   18.8620 H   0  0  0  0  0  0  0  0  0  0  0  0
  -25.8280  -14.5550   20.8120 C   0  0  0  0  0  0  0  0  0  0  0  0
  -24.7660  -13.7270   21.0690 C   0  0  0  0  0  0  0  0  0  0  0  0
  -25.2720  -12.3950   20.9570 C   0  0  0  0  0  0  0  0  0  0  0  0
  -26.9090  -13.7180   20.5740 N   0  0  0  0  0  0  0  0  0  0  0  0
  -26.5740  -12.4130   20.7160 N   0  0  0  0  0  0  0  0  0  0  0  0
  -24.5810  -11.0990   21.0070 C   0  0  0  0  0  0  0  0  0  0  0  0
  -24.8110  -10.1830   22.0570 C   0  0  0  0  0  3  0  0  0  0  0  0
  -24.1230   -8.9520   22.0960 C   0  0  0  0  0  3  0  0  0  0  0  0
  -23.1920   -8.6270   21.0810 C   0  0  0  0  0  0  0  0  0  0  0  0
  -22.9840   -9.5330   20.0260 C   0  0  0  0  0  3  0  0  0  0  0  0
  -23.6740  -10.7560   19.9850 C   0  0  0  0  0  3  0  0  0  0  0  0
  -22.4930   -7.4440   21.0250 O   0  0  0  0  0  0  0  0  0  0  0  0
  -21.9970   -6.8470   22.1570 C   0  0  0  0  0  0  0  0  0  0  0  0
  -21.0840   -7.5080   23.0090 C   0  0  0  0  0  3  0  0  0  0  0  0
  -20.5430   -6.8300   24.1190 C   0  0  0  0  0  3  0  0  0  0  0  0
  -20.9070   -5.4940   24.3750 C   0  0  0  0  0  0  0  0  0  0  0  0
  -21.8130   -4.8360   23.5270 C   0  0  0  0  0  3  0  0  0  0  0  0
  -22.3540   -5.5090   22.4180 C   0  0  0  0  0  0  0  0  0  0  0  0
  -23.2080   -4.8610   21.5900 F   0  0  0  0  0  0  0  0  0  0  0  0
  -20.3820   -4.8410   25.4400 F   0  0  0  0  0  0  0  0  0  0  0  0
  -23.3410  -14.1380   21.2960 C   0  0  0  0  0  0  0  0  0  0  0  0
  -22.5920  -13.3590   22.0700 N   0  0  0  0  0  0  0  0  0  0  0  0
  -22.8930  -15.1800   20.8210 O   0  0  0  0  0  0  0  0  0  0  0  0
  -22.9560  -12.5080   22.4680 H   0  0  0  0  0  0  0  0  0  0  0  0
  -21.6340  -13.6170   22.2590 H   0  0  0  0  0  0  0  0  0  0  0  0
  -25.9600  -15.9430   20.7270 N   0  0  0  0  0  0  0  0  0  0  0  0
  -25.0690  -16.4170   20.6150 H   0  0  0  0  0  0  0  0  0  0  0  0
  -26.6130  -16.2410   20.0120 H   0  0  0  0  0  0  0  0  0  0  0  0
  1  2  1  0
  1  3  1  0
  4  1  1  0
  5  4  1  0
  6  5  1  0
  7  6  1  0
  8  7  1  0
  9 11  1  0
  9  8  1  0
 10 21  2  0
 11 16  1  0
 12 20  1  0
 12 22  1  0
 13 15  1  0
 13 19  1  0
 14 20  1  0
 15 14  1  0
 16 15  2  0
 17 11  2  0
 17 18  1  0
 18 13  2  0
 19 12  1  0
 20 10  1  0
 22 24  2  0
 23 22  1  0
 25 23  1  0
 26 35  2  0
 26 31  1  0
 27 23  1  0
 27 31  1  0
 28 27  1  0
 29 30  1  0
 29 28  1  0
 30 26  1  0
 31 32  2  0
 32 33  1  0
 34 33  2  0
 35 34  1  0
 36 10  1  0
 36 37  1  0
 36 46  1  0
 37 40  1  0
 38 37  1  0
 38 42  1  0
 39 38  2  0
 42 41  1  0
 42 44  1  0
 44 45  1  0
 44 43  1  0
 46 49  1  1
 46 47  1  0
 48 46  1  0
 50  1  1  0
 51 50  1  0
 52 51  1  0
 53 52  1  0
 53 55  1  0
 54 53  1  0
 56 57  1  0
 56 53  1  0
 57 66  1  0
 58 64  1  0
 60 61  1  0
 60 59  1  0
 62 61  1  0
 62 71  1  0
 62 63  1  0
 64 59  1  0
 64 63  1  0
 65 58  2  0
 66 58  1  0
 67 66  1  0
 68 69  2  0
 69 88  1  0
 70 73  1  0
 70 69  1  0
 71 72  1  0
 71 68  1  0
 72 70  2  0
 73 74  1  0
 74 75  2  0
 76 75  1  0
 77 76  2  0
 78 77  1  0
 78 73  2  0
 79 76  1  0
 79 80  1  0
 80 85  2  0
 80 81  1  0
 81 82  2  0
 82 83  1  0
 83 87  1  0
 84 83  2  0
 85 84  1  0
 86 85  1  0
 88 89  1  0
 89 92  1  0
 89 91  1  0
 90 88  2  0
 93 68  1  0
 94 93  1  0
 95 93  1  0
M  ISO  4   8 101   9 101  58 100  66 100
M  END
>  <TORSDO>  (41) 
F 27

>  <SCORE>  (41) 
-0.157

>  <name>  (41) 
41

>  <ligand_id>  (41) 
41

>  <original_smiles>  (41) 
[H]c1c([H])c([H])c2c(c1[H])C([H])([H])C([H])([H])C([H])([H])C2([H])N([H])C(=O)C1([H])N(C(=O)C([H])(N([H])C(=O)C([H])(N([H])C([H])([H])[H])C([H])([H])[H])C(C([H])([H])[H])(C([H])([H])[H])C([H])([H])[H])C([H])([H])c2c([H])c(OC([H])([H])C([H])([H])C([H])([H])C([H])([H])C([H])([H])[N+]([H])([H])C([H])([H])C([H])([H])C([H])([H])[N+]([H])([H])C([H])([H])C([H])([H])N([H])C(=O)N3C([H])([H])C([H])([H])C([H])([H])C([H])(n4nc(-c5c([H])c([H])c(Oc6c([H])c([H])c(F)c([H])c6F)c([H])c5[H])c(C(=O)N([H])[H])c4N([H])[H])C3([H])[H])c([H])c([H])c2C1([H])[H]

>  <smiles>  (41) 
[H]c1c([H])c([H])c2c(c1[H])C([H])([H])C([H])([H])C([H])([H])C2([H])N([H])C(=O)C1([H])N(C(=O)C([H])(N([H])C(=O)C([H])(N([H])C([H])([H])[H])C([H])([H])[H])C(C([H])([H])[H])(C([H])([H])[H])C([H])([H])[H])C([H])([H])c2c([H])c(OC([H])([H])C([H])([H])C([H])([H])C([H])([H])C([H])([H])[N+]([H])([H])C([H])([H])C([H])([H])C([H])([H])[N+]([H])([H])C([H])([H])C([H])([H])N([H])C(=O)N3C([H])([H])C([H])([H])C([H])([H])C([H])(n4nc(-c5c([H])c([H])c(Oc6c([H])c([H])c(F)c([H])c6F)c([H])c5[H])c(C(=O)N([H])[H])c4N([H])[H])C3([H])[H])c([H])c([H])c2C1([H])[H]

$$$$
42:0:0
     RDKit          3D

 98105  0  0  1  0  0  0  0  0999 V2000
  -27.9270  -20.5750   16.2820 C   0  0  0  0  0  2  0  0  0  0  0  0
  -28.2320  -21.0710   17.7040 C   0  0  0  0  0  2  0  0  0  0  0  0
  -28.2650  -22.6000   17.7960 C   0  0  0  0  0  2  0  0  0  0  0  0
  -28.4610  -23.0470   19.1870 N   0  0  0  0  0  4  0  0  0  0  0  0
  -29.2320  -22.5440   19.6000 H   0  0  0  0  0  0  0  0  0  0  0  0
  -27.6300  -22.8070   19.7100 H   0  0  0  0  0  0  0  0  0  0  0  0
  -28.7150  -24.4990   19.3140 C   0  0  0  0  0  2  0  0  0  0  0  0
  -28.4750  -24.9840   20.7520 C   0  0  0  0  0  2  0  0  0  0  0  0
  -28.5050  -26.4070   20.8150 O   0  0  0  0  0  0  0  0  0  0  0  0
  -24.5280  -31.6630   23.3890 C   0  0  0  0  0  0  0  0  0  0  0  0
  -27.3180  -27.0900   20.6870 C   0  0  0  0  0  0  0  0  0  0  0  0
  -23.4190  -30.2210   21.7130 C   0  0  0  0  0  3  0  0  0  0  0  0
  -24.9450  -28.6110   20.4630 C   0  0  0  0  0  0  0  0  0  0  0  0
  -25.9550  -30.5450   21.6820 C   0  0  0  0  0  2  0  0  0  0  0  0
  -26.0650  -29.1500   21.1070 C   0  0  0  0  0  0  0  0  0  0  0  0
  -27.2550  -28.4010   21.2070 C   0  0  0  0  0  3  0  0  0  0  0  0
  -26.1700  -26.5510   20.0570 C   0  0  0  0  0  3  0  0  0  0  0  0
  -24.9920  -27.3100   19.9380 C   0  0  0  0  0  3  0  0  0  0  0  0
  -23.7150  -29.4830   20.3810 C   0  0  0  0  0  2  0  0  0  0  0  0
  -24.6490  -30.8240   22.3230 N   0  0  0  0  0  0  0  0  0  0  0  0
  -23.4150  -31.9740   23.8370 O   0  0  0  0  0  0  0  0  0  0  0  0
  -22.6810  -29.2460   22.6590 C   0  0  0  0  0  0  0  0  0  0  0  0
  -21.3670  -29.0840   22.4410 N   0  0  0  0  0  0  0  0  0  0  0  0
  -23.2910  -28.6360   23.5400 O   0  0  0  0  0  0  0  0  0  0  0  0
  -20.9390  -29.6300   21.7060 H   0  0  0  0  0  0  0  0  0  0  0  0
  -17.9300  -28.0130   22.7520 C   0  0  0  0  0  0  0  0  0  0  0  0
  -20.4740  -28.1880   23.1760 C   0  0  0  0  0  3  0  0  0  0  0  0
  -20.5600  -26.7420   22.6330 C   0  0  0  0  0  2  0  0  0  0  0  0
  -19.5120  -26.4370   21.5610 C   0  0  0  0  0  2  0  0  0  0  0  0
  -18.1000  -26.6430   22.1170 C   0  0  0  0  0  2  0  0  0  0  0  0
  -19.0470  -28.7460   23.2340 C   0  0  0  0  0  0  0  0  0  0  0  0
  -18.8380  -30.0310   23.7820 C   0  0  0  0  0  3  0  0  0  0  0  0
  -17.5460  -30.5820   23.8540 C   0  0  0  0  0  3  0  0  0  0  0  0
  -16.4410  -29.8440   23.3920 C   0  0  0  0  0  3  0  0  0  0  0  0
  -16.6340  -28.5620   22.8470 C   0  0  0  0  0  3  0  0  0  0  0  0
  -25.7770  -32.2950   24.0810 C   0  0  0  0  0  3  0  0  0  0  0  0
  -26.1690  -31.5800   25.4320 C   0  0  1  0  0  0  0  0  0  0  0  0
  -24.9840  -31.4070   26.4110 C   0  0  0  0  0  1  0  0  0  0  0  0
  -26.7580  -30.1770   25.1520 C   0  0  0  0  0  1  0  0  0  0  0  0
  -27.2700  -32.3890   26.1560 C   0  0  0  0  0  1  0  0  0  0  0  0
  -25.4860  -33.7160   24.3080 N   0  0  0  0  0  0  0  0  0  0  0  0
  -25.9030  -34.7120   23.5170 C   0  0  0  0  0  0  0  0  0  0  0  0
  -26.6440  -34.5340   22.5450 O   0  0  0  0  0  0  0  0  0  0  0  0
  -24.8420  -33.9330   25.0540 H   0  0  0  0  0  0  0  0  0  0  0  0
  -24.2570  -36.5190   22.9290 C   0  0  0  0  0  1  0  0  0  0  0  0
  -25.4230  -36.1350   23.8560 C   0  0  0  0  0  3  0  0  0  0  0  0
  -27.5010  -37.0280   24.8080 C   0  0  0  0  0  1  0  0  0  0  0  0
  -26.4900  -37.1560   23.7640 N   0  0  0  0  0  0  0  0  0  0  0  0
  -26.0980  -38.0920   23.8150 H   0  0  0  0  0  0  0  0  0  0  0  0
  -28.1650  -19.0680   16.1110 C   0  0  0  0  0  2  0  0  0  0  0  0
  -30.3090  -18.3450   17.2120 C   0  0  0  0  0  0  0  0  0  0  0  0
  -31.6160  -18.1290   17.0640 N   0  0  0  0  0  4  0  0  0  0  0  0
  -29.7080  -18.1600   18.4000 N   0  0  0  0  0  0  0  0  0  0  0  0
  -29.6030  -18.7520   16.1460 N   0  0  0  0  0  0  0  0  0  0  0  0
  -32.2060  -17.8960   17.8460 H   0  0  0  0  0  0  0  0  0  0  0  0
  -32.0800  -18.2430   16.1720 H   0  0  0  0  0  0  0  0  0  0  0  0
  -28.7100  -18.3220   18.4510 H   0  0  0  0  0  0  0  0  0  0  0  0
  -30.0850  -18.8800   15.2650 H   0  0  0  0  0  0  0  0  0  0  0  0
  -30.3100  -17.6030   19.6180 C   0  0  0  0  0  2  0  0  0  0  0  0
  -30.6420  -16.1260   19.3990 C   0  0  0  0  0  2  0  0  0  0  0  0
  -31.1930  -14.1990   20.7390 C   0  0  0  0  0  0  0  0  0  0  0  0
  -30.8340  -12.0640   19.6420 C   0  0  0  0  0  2  0  0  0  0  0  0
  -29.9560  -12.3600   18.4060 C   0  0  0  0  0  2  0  0  0  0  0  0
  -28.4600  -12.2960   18.7750 C   0  0  0  0  0  2  0  0  0  0  0  0
  -28.1110  -13.1220   20.0420 C   0  0  0  0  0  3  0  0  0  0  0  0
  -29.1190  -12.8530   21.1880 C   0  0  0  0  0  2  0  0  0  0  0  0
  -30.4830  -13.0500   20.6700 N   0  0  0  0  0  0  0  0  0  0  0  0
  -32.4000  -14.2820   20.5090 O   0  0  0  0  0  0  0  0  0  0  0  0
  -30.4230  -15.2760   20.5710 N   0  0  0  0  0  0  0  0  0  0  0  0
  -29.4590  -15.1510   20.8400 H   0  0  0  0  0  0  0  0  0  0  0  0
  -25.7100  -13.8160   20.6560 C   0  0  0  0  0  0  0  0  0  0  0  0
  -24.6010  -13.0780   20.9780 C   0  0  0  0  0  0  0  0  0  0  0  0
  -25.0180  -11.7120   20.9640 C   0  0  0  0  0  0  0  0  0  0  0  0
  -26.7320  -12.8980   20.4670 N   0  0  0  0  0  0  0  0  0  0  0  0
  -26.3170  -11.6300   20.7110 N   0  0  0  0  0  0  0  0  0  0  0  0
  -24.2430  -10.4750   21.1200 C   0  0  0  0  0  0  0  0  0  0  0  0
  -24.5750   -9.5170   22.1030 C   0  0  0  0  0  3  0  0  0  0  0  0
  -23.8040   -8.3420   22.2460 C   0  0  0  0  0  3  0  0  0  0  0  0
  -22.6880   -8.1200   21.4030 C   0  0  0  0  0  0  0  0  0  0  0  0
  -22.3780   -9.0670   20.4110 C   0  0  0  0  0  3  0  0  0  0  0  0
  -23.1480  -10.2320   20.2680 C   0  0  0  0  0  3  0  0  0  0  0  0
  -21.8980   -6.9970   21.4530 O   0  0  0  0  0  0  0  0  0  0  0  0
  -21.7250   -6.2900   22.6160 C   0  0  0  0  0  0  0  0  0  0  0  0
  -21.1400   -6.8730   23.7610 C   0  0  0  0  0  3  0  0  0  0  0  0
  -20.9150   -6.0900   24.9120 C   0  0  0  0  0  3  0  0  0  0  0  0
  -21.2660   -4.7260   24.9170 C   0  0  0  0  0  0  0  0  0  0  0  0
  -21.8420   -4.1430   23.7750 C   0  0  0  0  0  3  0  0  0  0  0  0
  -22.0680   -4.9220   22.6270 C   0  0  0  0  0  0  0  0  0  0  0  0
  -22.6050   -4.3520   21.5210 F   0  0  0  0  0  0  0  0  0  0  0  0
  -21.0430   -3.9730   26.0180 F   0  0  0  0  0  0  0  0  0  0  0  0
  -23.2110  -13.6020   21.1940 C   0  0  0  0  0  0  0  0  0  0  0  0
  -22.4220  -12.9260   22.0220 N   0  0  0  0  0  0  0  0  0  0  0  0
  -22.8310  -14.6440   20.6630 O   0  0  0  0  0  0  0  0  0  0  0  0
  -22.7410  -12.0810   22.4720 H   0  0  0  0  0  0  0  0  0  0  0  0
  -21.4860  -13.2580   22.2080 H   0  0  0  0  0  0  0  0  0  0  0  0
  -25.9240  -15.1790   20.4860 N   0  0  0  0  0  0  0  0  0  0  0  0
  -25.1680  -15.8510   20.5610 H   0  0  0  0  0  0  0  0  0  0  0  0
  -26.7920  -15.5970   20.1760 H   0  0  0  0  0  0  0  0  0  0  0  0
  1  2  1  0
  2  3  1  0
  3  4  1  0
  4  7  1  0
  4  5  1  0
  4  6  1  0
  7  8  1  0
  8  9  1  0
 10 21  2  0
 11  9  1  0
 11 16  1  0
 12 20  1  0
 12 22  1  0
 13 15  1  0
 14 20  1  0
 15 16  2  0
 15 14  1  0
 17 11  2  0
 18 17  1  0
 18 13  2  0
 19 13  1  0
 19 12  1  0
 20 10  1  0
 22 24  2  0
 23 22  1  0
 25 23  1  0
 26 35  2  0
 26 31  1  0
 27 23  1  0
 27 31  1  0
 28 27  1  0
 29 30  1  0
 29 28  1  0
 30 26  1  0
 31 32  2  0
 32 33  1  0
 34 33  2  0
 35 34  1  0
 36 10  1  0
 36 41  1  0
 36 37  1  0
 37 40  1  1
 37 38  1  0
 39 37  1  0
 41 44  1  0
 42 46  1  0
 42 41  1  0
 43 42  2  0
 46 45  1  0
 48 49  1  0
 48 46  1  0
 48 47  1  0
 50 54  1  0
 50  1  1  0
 51 53  1  0
 52 51  2  0
 52 55  1  0
 53 57  1  0
 53 59  1  0
 54 51  1  0
 56 52  1  0
 58 54  1  0
 60 59  1  0
 60 69  1  0
 62 67  1  0
 63 64  1  0
 63 62  1  0
 65 64  1  0
 65 74  1  0
 65 66  1  0
 67 61  1  0
 67 66  1  0
 68 61  2  0
 69 61  1  0
 69 70  1  0
 71 72  2  0
 72 91  1  0
 73 72  1  0
 73 76  1  0
 74 71  1  0
 74 75  1  0
 75 73  2  0
 76 77  1  0
 77 78  2  0
 79 82  1  0
 79 78  1  0
 80 79  2  0
 81 80  1  0
 81 76  2  0
 82 83  1  0
 83 88  2  0
 83 84  1  0
 84 85  2  0
 85 86  1  0
 86 90  1  0
 87 86  2  0
 88 87  1  0
 89 88  1  0
 91 92  1  0
 92 95  1  0
 92 94  1  0
 93 91  2  0
 96 97  1  0
 96 71  1  0
 98 96  1  0
M  ISO  4   8 101   9 101  61 100  69 100
M  END
>  <TORSDO>  (42) 
F 25

>  <SCORE>  (42) 
-10.919

>  <name>  (42) 
42

>  <ligand_id>  (42) 
42

>  <original_smiles>  (42) 
[H]c1c([H])c([H])c2c(c1[H])C([H])([H])C([H])([H])C([H])([H])C2([H])N([H])C(=O)C1([H])N(C(=O)C([H])(N([H])C(=O)C([H])(N([H])C([H])([H])[H])C([H])([H])[H])C(C([H])([H])[H])(C([H])([H])[H])C([H])([H])[H])C([H])([H])c2c([H])c(OC([H])([H])C([H])([H])[N+]([H])([H])C([H])([H])C([H])([H])C([H])([H])C([H])([H])[N+]([H])=C(N([H])[H])N([H])C([H])([H])C([H])([H])N([H])C(=O)N3C([H])([H])C([H])([H])C([H])([H])C([H])(n4nc(-c5c([H])c([H])c(Oc6c([H])c([H])c(F)c([H])c6F)c([H])c5[H])c(C(=O)N([H])[H])c4N([H])[H])C3([H])[H])c([H])c([H])c2C1([H])[H]

>  <smiles>  (42) 
[H]c1c([H])c([H])c2c(c1[H])C([H])([H])C([H])([H])C([H])([H])C2([H])N([H])C(=O)C1([H])N(C(=O)C([H])(N([H])C(=O)C([H])(N([H])C([H])([H])[H])C([H])([H])[H])C(C([H])([H])[H])(C([H])([H])[H])C([H])([H])[H])C([H])([H])c2c([H])c(OC([H])([H])C([H])([H])[N+]([H])([H])C([H])([H])C([H])([H])C([H])([H])C([H])([H])[N+]([H])=C(N([H])[H])N([H])C([H])([H])C([H])([H])N([H])C(=O)N3C([H])([H])C([H])([H])C([H])([H])C([H])(n4nc(-c5c([H])c([H])c(Oc6c([H])c([H])c(F)c([H])c6F)c([H])c5[H])c(C(=O)N([H])[H])c4N([H])[H])C3([H])[H])c([H])c([H])c2C1([H])[H]

$$$$
43:0:0
     RDKit          3D

 98105  0  0  1  0  0  0  0  0999 V2000
  -26.2920  -20.0180   17.4890 C   0  0  0  0  0  2  0  0  0  0  0  0
  -27.8350  -19.9880   17.4220 C   0  0  0  0  0  2  0  0  0  0  0  0
  -28.4420  -18.5890   17.6470 C   0  0  0  0  0  2  0  0  0  0  0  0
  -28.9360  -18.4280   18.9750 O   0  0  0  0  0  0  0  0  0  0  0  0
  -27.9260  -18.3580   19.9760 C   0  0  0  0  0  2  0  0  0  0  0  0
  -28.6420  -18.1440   21.3060 C   0  0  0  0  0  2  0  0  0  0  0  0
  -29.5910  -17.0160   21.2090 N   0  0  0  0  0  4  0  0  0  0  0  0
  -29.8790  -17.5840   20.4190 H   0  0  0  0  0  0  0  0  0  0  0  0
  -29.5150  -17.1700   22.2020 H   0  0  0  0  0  0  0  0  0  0  0  0
  -31.0200  -17.1050   21.5860 C   0  0  0  0  0  2  0  0  0  0  0  0
  -31.9160  -16.1510   20.7710 C   0  0  0  0  0  2  0  0  0  0  0  0
  -31.7430  -13.8320   19.8660 C   0  0  0  0  0  0  0  0  0  0  0  0
  -31.1800  -11.5940   18.9900 C   0  0  0  0  0  2  0  0  0  0  0  0
  -30.2100  -11.7100   17.7970 C   0  0  0  0  0  2  0  0  0  0  0  0
  -28.7480  -11.7900   18.2790 C   0  0  0  0  0  2  0  0  0  0  0  0
  -28.5490  -12.8440   19.4010 C   0  0  0  0  0  3  0  0  0  0  0  0
  -29.6090  -12.6580   20.5070 C   0  0  0  0  0  2  0  0  0  0  0  0
  -30.9450  -12.7350   19.8830 N   0  0  0  0  0  0  0  0  0  0  0  0
  -32.7530  -13.9380   19.1630 O   0  0  0  0  0  0  0  0  0  0  0  0
  -31.3400  -14.8120   20.6830 N   0  0  0  0  0  0  0  0  0  0  0  0
  -30.5390  -14.6020   21.2600 H   0  0  0  0  0  0  0  0  0  0  0  0
  -26.3240  -13.8390   20.2360 C   0  0  0  0  0  0  0  0  0  0  0  0
  -25.1650  -13.2520   20.6670 C   0  0  0  0  0  0  0  0  0  0  0  0
  -25.3890  -11.8440   20.5990 C   0  0  0  0  0  0  0  0  0  0  0  0
  -27.1920  -12.7990   19.9430 N   0  0  0  0  0  0  0  0  0  0  0  0
  -26.6320  -11.5920   20.2110 N   0  0  0  0  0  0  0  0  0  0  0  0
  -24.4700  -10.7200   20.8220 C   0  0  0  0  0  0  0  0  0  0  0  0
  -24.7780   -9.6890   21.7370 C   0  0  0  0  0  3  0  0  0  0  0  0
  -23.8750   -8.6250   21.9470 C   0  0  0  0  0  3  0  0  0  0  0  0
  -22.6490   -8.5860   21.2420 C   0  0  0  0  0  0  0  0  0  0  0  0
  -22.3560   -9.6030   20.3170 C   0  0  0  0  0  3  0  0  0  0  0  0
  -23.2590  -10.6590   20.1040 C   0  0  0  0  0  3  0  0  0  0  0  0
  -21.7220   -7.5780   21.3630 O   0  0  0  0  0  0  0  0  0  0  0  0
  -21.5890   -6.8570   22.5230 C   0  0  0  0  0  0  0  0  0  0  0  0
  -21.3040   -7.4800   23.7570 C   0  0  0  0  0  3  0  0  0  0  0  0
  -21.1060   -6.6960   24.9110 C   0  0  0  0  0  3  0  0  0  0  0  0
  -21.1850   -5.2930   24.8320 C   0  0  0  0  0  0  0  0  0  0  0  0
  -21.4650   -4.6710   23.6020 C   0  0  0  0  0  3  0  0  0  0  0  0
  -21.6640   -5.4520   22.4510 C   0  0  0  0  0  0  0  0  0  0  0  0
  -21.9130   -4.8470   21.2640 F   0  0  0  0  0  0  0  0  0  0  0  0
  -20.9870   -4.5400   25.9390 F   0  0  0  0  0  0  0  0  0  0  0  0
  -23.8860  -13.9550   21.0230 C   0  0  0  0  0  0  0  0  0  0  0  0
  -23.1130  -13.3920   21.9460 N   0  0  0  0  0  0  0  0  0  0  0  0
  -23.5890  -15.0360   20.5180 O   0  0  0  0  0  0  0  0  0  0  0  0
  -23.3670  -12.5170   22.3790 H   0  0  0  0  0  0  0  0  0  0  0  0
  -22.2540  -13.8450   22.2210 H   0  0  0  0  0  0  0  0  0  0  0  0
  -26.7030  -15.1630   20.0450 N   0  0  0  0  0  0  0  0  0  0  0  0
  -25.9900  -15.8830   20.0580 H   0  0  0  0  0  0  0  0  0  0  0  0
  -27.4900  -15.3860   19.4490 H   0  0  0  0  0  0  0  0  0  0  0  0
  -25.6630  -21.4230   17.4490 C   0  0  0  0  0  2  0  0  0  0  0  0
  -25.6890  -22.1740   18.7970 C   0  0  0  0  0  2  0  0  0  0  0  0
  -26.9970  -22.8110   19.0540 N   0  0  0  0  0  4  0  0  0  0  0  0
  -27.1450  -23.4990   18.3330 H   0  0  0  0  0  0  0  0  0  0  0  0
  -27.7180  -22.1130   18.9610 H   0  0  0  0  0  0  0  0  0  0  0  0
  -27.1270  -23.4440   20.3860 C   0  0  0  0  0  2  0  0  0  0  0  0
  -28.4540  -24.2140   20.5320 C   0  0  0  0  0  2  0  0  0  0  0  0
  -28.6510  -25.3860   19.5450 C   0  0  0  0  0  2  0  0  0  0  0  0
  -28.4670  -26.6520   20.1680 O   0  0  0  0  0  0  0  0  0  0  0  0
  -24.5700  -31.7040   23.2320 C   0  0  0  0  0  0  0  0  0  0  0  0
  -27.2500  -27.2970   20.1430 C   0  0  0  0  0  0  0  0  0  0  0  0
  -23.3750  -30.3140   21.5680 C   0  0  0  0  0  3  0  0  0  0  0  0
  -24.8410  -28.7800   20.1530 C   0  0  0  0  0  0  0  0  0  0  0  0
  -25.9000  -30.6690   21.4020 C   0  0  0  0  0  2  0  0  0  0  0  0
  -25.9870  -29.3010   20.7630 C   0  0  0  0  0  0  0  0  0  0  0  0
  -27.1850  -28.5600   20.7690 C   0  0  0  0  0  3  0  0  0  0  0  0
  -26.0880  -26.7900   19.5160 C   0  0  0  0  0  3  0  0  0  0  0  0
  -24.8840  -27.5200   19.5310 C   0  0  0  0  0  3  0  0  0  0  0  0
  -23.5960  -29.6370   20.1880 C   0  0  0  0  0  2  0  0  0  0  0  0
  -24.6330  -30.9090   22.1270 N   0  0  0  0  0  0  0  0  0  0  0  0
  -23.4850  -31.9780   23.7630 O   0  0  0  0  0  0  0  0  0  0  0  0
  -22.7130  -29.2900   22.5150 C   0  0  0  0  0  0  0  0  0  0  0  0
  -21.3870  -29.1240   22.3800 N   0  0  0  0  0  0  0  0  0  0  0  0
  -23.3870  -28.6470   23.3240 O   0  0  0  0  0  0  0  0  0  0  0  0
  -20.9020  -29.6940   21.7020 H   0  0  0  0  0  0  0  0  0  0  0  0
  -17.9990  -27.9740   22.8510 C   0  0  0  0  0  0  0  0  0  0  0  0
  -20.5580  -28.1880   23.1370 C   0  0  0  0  0  3  0  0  0  0  0  0
  -20.6430  -26.7640   22.5400 C   0  0  0  0  0  2  0  0  0  0  0  0
  -19.5400  -26.4710   21.5180 C   0  0  0  0  0  2  0  0  0  0  0  0
  -18.1570  -26.6290   22.1590 C   0  0  0  0  0  2  0  0  0  0  0  0
  -19.1260  -28.7120   23.2960 C   0  0  0  0  0  0  0  0  0  0  0  0
  -18.9260  -29.9730   23.8980 C   0  0  0  0  0  3  0  0  0  0  0  0
  -17.6300  -30.4930   24.0650 C   0  0  0  0  0  3  0  0  0  0  0  0
  -16.5140  -29.7500   23.6390 C   0  0  0  0  0  3  0  0  0  0  0  0
  -16.7000  -28.4920   23.0370 C   0  0  0  0  0  3  0  0  0  0  0  0
  -25.8540  -32.3240   23.8680 C   0  0  0  0  0  3  0  0  0  0  0  0
  -25.5510  -33.7210   24.2070 N   0  0  0  0  0  0  0  0  0  0  0  0
  -25.8930  -34.7770   23.4570 C   0  0  0  0  0  0  0  0  0  0  0  0
  -26.5700  -34.6770   22.4300 O   0  0  0  0  0  0  0  0  0  0  0  0
  -24.9550  -33.8730   25.0070 H   0  0  0  0  0  0  0  0  0  0  0  0
  -24.1630  -36.5680   23.1080 C   0  0  0  0  0  1  0  0  0  0  0  0
  -25.4040  -36.1620   23.9190 C   0  0  0  0  0  3  0  0  0  0  0  0
  -27.5370  -37.0440   24.7560 C   0  0  0  0  0  1  0  0  0  0  0  0
  -26.4350  -37.2170   23.8130 N   0  0  0  0  0  0  0  0  0  0  0  0
  -26.0290  -38.1350   23.9690 H   0  0  0  0  0  0  0  0  0  0  0  0
  -26.3610  -31.5380   25.1390 C   0  0  1  0  0  0  0  0  0  0  0  0
  -25.2620  -31.2970   26.1990 C   0  0  0  0  0  1  0  0  0  0  0  0
  -26.9380  -30.1610   24.7340 C   0  0  0  0  0  1  0  0  0  0  0  0
  -27.5130  -32.3180   25.8170 C   0  0  0  0  0  1  0  0  0  0  0  0
  2  1  1  0
  2  3  1  0
  3  4  1  0
  4  5  1  0
  5  6  1  0
  7  6  1  0
  7 10  1  0
  7  9  1  0
  8  7  1  0
 11 10  1  0
 12 18  1  0
 12 20  1  0
 13 18  1  0
 14 15  1  0
 14 13  1  0
 16 15  1  0
 16 25  1  0
 16 17  1  0
 18 17  1  0
 19 12  2  0
 20 11  1  0
 20 21  1  0
 22 23  2  0
 23 42  1  0
 24 23  1  0
 24 27  1  0
 25 26  1  0
 25 22  1  0
 26 24  2  0
 27 28  1  0
 28 29  2  0
 30 33  1  0
 30 29  1  0
 31 30  2  0
 32 31  1  0
 32 27  2  0
 33 34  1  0
 34 35  1  0
 35 36  2  0
 37 36  1  0
 37 41  1  0
 38 37  2  0
 39 34  2  0
 39 38  1  0
 40 39  1  0
 42 43  1  0
 43 46  1  0
 43 45  1  0
 44 42  2  0
 47 48  1  0
 47 22  1  0
 49 47  1  0
 50  1  1  0
 50 51  1  0
 51 52  1  0
 52 55  1  0
 53 52  1  0
 54 52  1  0
 55 56  1  0
 57 58  1  0
 57 56  1  0
 59 70  2  0
 60 58  1  0
 60 65  1  0
 61 69  1  0
 61 71  1  0
 62 68  1  0
 62 64  1  0
 63 69  1  0
 64 65  2  0
 64 63  1  0
 66 67  1  0
 66 60  2  0
 67 62  2  0
 68 61  1  0
 69 59  1  0
 71 73  2  0
 72 71  1  0
 74 72  1  0
 75 84  2  0
 75 80  1  0
 76 72  1  0
 76 80  1  0
 77 76  1  0
 78 79  1  0
 78 77  1  0
 79 75  1  0
 80 81  2  0
 81 82  1  0
 83 82  2  0
 84 83  1  0
 85 59  1  0
 85 86  1  0
 85 95  1  0
 86 89  1  0
 87 91  1  0
 87 86  1  0
 88 87  2  0
 91 90  1  0
 93 91  1  0
 93 94  1  0
 93 92  1  0
 95 98  1  1
 95 96  1  0
 97 95  1  0
M  ISO  4  12 100  20 100  57 101  58 101
M  END
>  <TORSDO>  (43) 
F 30

>  <SCORE>  (43) 
-9.867

>  <name>  (43) 
43

>  <ligand_id>  (43) 
43

>  <original_smiles>  (43) 
[H]c1c([H])c([H])c2c(c1[H])C([H])([H])C([H])([H])C([H])([H])C2([H])N([H])C(=O)C1([H])N(C(=O)C([H])(N([H])C(=O)C([H])(N([H])C([H])([H])[H])C([H])([H])[H])C(C([H])([H])[H])(C([H])([H])[H])C([H])([H])[H])C([H])([H])c2c([H])c(OC([H])([H])C([H])([H])C([H])([H])[N+]([H])([H])C([H])([H])C([H])([H])C([H])([H])C([H])([H])C([H])([H])OC([H])([H])C([H])([H])[N+]([H])([H])C([H])([H])C([H])([H])N([H])C(=O)N3C([H])([H])C([H])([H])C([H])([H])C([H])(n4nc(-c5c([H])c([H])c(Oc6c([H])c([H])c(F)c([H])c6F)c([H])c5[H])c(C(=O)N([H])[H])c4N([H])[H])C3([H])[H])c([H])c([H])c2C1([H])[H]

>  <smiles>  (43) 
[H]c1c([H])c([H])c2c(c1[H])C([H])([H])C([H])([H])C([H])([H])C2([H])N([H])C(=O)C1([H])N(C(=O)C([H])(N([H])C(=O)C([H])(N([H])C([H])([H])[H])C([H])([H])[H])C(C([H])([H])[H])(C([H])([H])[H])C([H])([H])[H])C([H])([H])c2c([H])c(OC([H])([H])C([H])([H])C([H])([H])[N+]([H])([H])C([H])([H])C([H])([H])C([H])([H])C([H])([H])C([H])([H])OC([H])([H])C([H])([H])[N+]([H])([H])C([H])([H])C([H])([H])N([H])C(=O)N3C([H])([H])C([H])([H])C([H])([H])C([H])(n4nc(-c5c([H])c([H])c(Oc6c([H])c([H])c(F)c([H])c6F)c([H])c5[H])c(C(=O)N([H])[H])c4N([H])[H])C3([H])[H])c([H])c([H])c2C1([H])[H]

$$$$
44:0:0
     RDKit          3D

 97104  0  0  1  0  0  0  0  0999 V2000
  -32.8220  -25.0580   19.1470 C   0  0  0  0  0  2  0  0  0  0  0  0
  -33.2440  -23.7100   18.5470 C   0  0  0  0  0  2  0  0  0  0  0  0
  -32.8820  -22.5320   19.4640 C   0  0  0  0  0  2  0  0  0  0  0  0
  -33.2280  -21.1710   18.8340 C   0  0  0  0  0  2  0  0  0  0  0  0
  -31.8380  -19.4710   20.0340 C   0  0  0  0  0  0  0  0  0  0  0  0
  -33.0100  -20.0500   19.7440 N   0  0  0  0  0  0  0  0  0  0  0  0
  -30.7590  -19.9140   19.6350 O   0  0  0  0  0  0  0  0  0  0  0  0
  -33.8390  -19.6100   20.1220 H   0  0  0  0  0  0  0  0  0  0  0  0
  -32.0200  -18.2710   20.8340 C   0  0  0  0  0  3  0  0  0  0  0  0
  -30.9740  -17.5030   21.2030 C   0  0  0  0  0  3  0  0  0  0  0  0
  -31.1120  -16.2330   22.0290 C   0  0  0  0  0  2  0  0  0  0  0  0
  -30.7090  -14.3720   20.4160 C   0  0  0  0  0  0  0  0  0  0  0  0
  -30.2610  -12.3400   19.0850 C   0  0  0  0  0  2  0  0  0  0  0  0
  -29.2960  -12.6180   17.9220 C   0  0  0  0  0  2  0  0  0  0  0  0
  -27.8290  -12.4910   18.3800 C   0  0  0  0  0  2  0  0  0  0  0  0
  -27.5410  -13.2750   19.6880 C   0  0  0  0  0  3  0  0  0  0  0  0
  -28.6190  -12.9890   20.7590 C   0  0  0  0  0  2  0  0  0  0  0  0
  -29.9480  -13.2710   20.1830 N   0  0  0  0  0  0  0  0  0  0  0  0
  -31.7030  -14.6610   19.7440 O   0  0  0  0  0  0  0  0  0  0  0  0
  -30.3560  -15.1080   21.4780 N   0  0  0  0  0  0  0  0  0  0  0  0
  -29.5510  -14.7890   21.9990 H   0  0  0  0  0  0  0  0  0  0  0  0
  -25.1480  -13.8730   20.4410 C   0  0  0  0  0  0  0  0  0  0  0  0
  -24.0900  -13.0950   20.8290 C   0  0  0  0  0  0  0  0  0  0  0  0
  -24.5560  -11.7460   20.7890 C   0  0  0  0  0  0  0  0  0  0  0  0
  -26.1940  -12.9970   20.1910 N   0  0  0  0  0  0  0  0  0  0  0  0
  -25.8390  -11.7130   20.4570 N   0  0  0  0  0  0  0  0  0  0  0  0
  -23.8350  -10.4830   20.9940 C   0  0  0  0  0  0  0  0  0  0  0  0
  -24.2900   -9.5180   21.9220 C   0  0  0  0  0  3  0  0  0  0  0  0
  -23.5710   -8.3180   22.1150 C   0  0  0  0  0  3  0  0  0  0  0  0
  -22.3840   -8.0760   21.3830 C   0  0  0  0  0  0  0  0  0  0  0  0
  -21.9500   -9.0280   20.4440 C   0  0  0  0  0  3  0  0  0  0  0  0
  -22.6690  -10.2180   20.2500 C   0  0  0  0  0  3  0  0  0  0  0  0
  -21.6340   -6.9280   21.4870 O   0  0  0  0  0  0  0  0  0  0  0  0
  -21.6150   -6.1820   22.6370 C   0  0  0  0  0  0  0  0  0  0  0  0
  -21.2310   -6.7320   23.8790 C   0  0  0  0  0  3  0  0  0  0  0  0
  -21.1620   -5.9110   25.0210 C   0  0  0  0  0  3  0  0  0  0  0  0
  -21.4660   -4.5400   24.9240 C   0  0  0  0  0  0  0  0  0  0  0  0
  -21.8430   -3.9890   23.6880 C   0  0  0  0  0  3  0  0  0  0  0  0
  -21.9160   -4.8080   22.5470 C   0  0  0  0  0  0  0  0  0  0  0  0
  -22.2600   -4.2670   21.3530 F   0  0  0  0  0  0  0  0  0  0  0  0
  -21.3910   -3.7500   26.0200 F   0  0  0  0  0  0  0  0  0  0  0  0
  -22.6950  -13.5670   21.1260 C   0  0  0  0  0  0  0  0  0  0  0  0
  -21.9810  -12.8700   22.0030 N   0  0  0  0  0  0  0  0  0  0  0  0
  -22.2460  -14.5910   20.6120 O   0  0  0  0  0  0  0  0  0  0  0  0
  -22.3490  -12.0420   22.4470 H   0  0  0  0  0  0  0  0  0  0  0  0
  -21.0440  -13.1710   22.2330 H   0  0  0  0  0  0  0  0  0  0  0  0
  -25.2970  -15.2440   20.2630 N   0  0  0  0  0  0  0  0  0  0  0  0
  -24.5200  -15.8840   20.3960 H   0  0  0  0  0  0  0  0  0  0  0  0
  -26.1370  -15.7060   19.9350 H   0  0  0  0  0  0  0  0  0  0  0  0
  -33.2390  -26.2560   18.2750 C   0  0  0  0  0  2  0  0  0  0  0  0
  -32.9800  -27.6430   18.9080 C   0  0  0  0  0  2  0  0  0  0  0  0
  -31.5810  -28.1010   18.7660 N   0  0  0  0  0  4  0  0  0  0  0  0
  -31.2550  -27.8520   17.8460 H   0  0  0  0  0  0  0  0  0  0  0  0
  -31.5840  -29.1100   18.8030 H   0  0  0  0  0  0  0  0  0  0  0  0
  -30.6290  -27.6260   19.7980 C   0  0  0  0  0  2  0  0  0  0  0  0
  -29.3280  -27.1290   19.1530 C   0  0  0  0  0  2  0  0  0  0  0  0
  -28.4100  -26.7390   20.1670 O   0  0  0  0  0  0  0  0  0  0  0  0
  -24.5830  -31.8890   23.2320 C   0  0  0  0  0  0  0  0  0  0  0  0
  -27.2530  -27.4700   20.1870 C   0  0  0  0  0  0  0  0  0  0  0  0
  -23.3840  -30.4690   21.5960 C   0  0  0  0  0  3  0  0  0  0  0  0
  -24.8470  -28.9280   20.1890 C   0  0  0  0  0  0  0  0  0  0  0  0
  -25.9020  -30.8500   21.3950 C   0  0  0  0  0  2  0  0  0  0  0  0
  -25.9980  -29.4740   20.7710 C   0  0  0  0  0  0  0  0  0  0  0  0
  -27.2080  -28.7510   20.7750 C   0  0  0  0  0  3  0  0  0  0  0  0
  -26.0890  -26.9210   19.6150 C   0  0  0  0  0  3  0  0  0  0  0  0
  -24.8840  -27.6470   19.6100 C   0  0  0  0  0  3  0  0  0  0  0  0
  -23.5970  -29.7770   20.2230 C   0  0  0  0  0  2  0  0  0  0  0  0
  -24.6410  -31.0840   22.1340 N   0  0  0  0  0  0  0  0  0  0  0  0
  -23.5010  -32.1590   23.7720 O   0  0  0  0  0  0  0  0  0  0  0  0
  -22.7360  -29.4530   22.5640 C   0  0  0  0  0  0  0  0  0  0  0  0
  -21.4130  -29.2690   22.4380 N   0  0  0  0  0  0  0  0  0  0  0  0
  -23.4220  -28.8330   23.3810 O   0  0  0  0  0  0  0  0  0  0  0  0
  -20.9210  -29.8180   21.7470 H   0  0  0  0  0  0  0  0  0  0  0  0
  -18.0380  -28.0930   22.9590 C   0  0  0  0  0  0  0  0  0  0  0  0
  -20.5990  -28.3350   23.2140 C   0  0  0  0  0  3  0  0  0  0  0  0
  -20.6890  -26.9040   22.6370 C   0  0  0  0  0  2  0  0  0  0  0  0
  -19.5790  -26.5880   21.6300 C   0  0  0  0  0  2  0  0  0  0  0  0
  -18.2010  -26.7420   22.2810 C   0  0  0  0  0  2  0  0  0  0  0  0
  -19.1640  -28.8470   23.3830 C   0  0  0  0  0  0  0  0  0  0  0  0
  -18.9570  -30.1140   23.9750 C   0  0  0  0  0  3  0  0  0  0  0  0
  -17.6550  -30.6230   24.1480 C   0  0  0  0  0  3  0  0  0  0  0  0
  -16.5450  -29.8640   23.7420 C   0  0  0  0  0  3  0  0  0  0  0  0
  -16.7370  -28.6020   23.1520 C   0  0  0  0  0  3  0  0  0  0  0  0
  -25.8680  -32.5280   23.8480 C   0  0  0  0  0  3  0  0  0  0  0  0
  -25.5510  -33.9220   24.1800 N   0  0  0  0  0  0  0  0  0  0  0  0
  -25.8830  -34.9770   23.4230 C   0  0  0  0  0  0  0  0  0  0  0  0
  -26.5580  -34.8790   22.3960 O   0  0  0  0  0  0  0  0  0  0  0  0
  -24.9550  -34.0740   24.9800 H   0  0  0  0  0  0  0  0  0  0  0  0
  -24.1510  -36.7620   23.0490 C   0  0  0  0  0  1  0  0  0  0  0  0
  -25.3820  -36.3630   23.8780 C   0  0  0  0  0  3  0  0  0  0  0  0
  -27.5060  -37.2500   24.7340 C   0  0  0  0  0  1  0  0  0  0  0  0
  -26.4120  -37.4200   23.7820 N   0  0  0  0  0  0  0  0  0  0  0  0
  -26.0010  -38.3380   23.9330 H   0  0  0  0  0  0  0  0  0  0  0  0
  -26.3990  -31.7550   25.1180 C   0  0  1  0  0  0  0  0  0  0  0  0
  -25.3130  -31.4930   26.1870 C   0  0  0  0  0  1  0  0  0  0  0  0
  -26.9990  -30.3880   24.7120 C   0  0  0  0  0  1  0  0  0  0  0  0
  -27.5410  -32.5600   25.7820 C   0  0  0  0  0  1  0  0  0  0  0  0
  2  1  1  0
  2  3  1  0
  4  3  1  0
  4  6  1  0
  5  9  1  0
  6  5  1  0
  6  8  1  0
  7  5  2  0
  9 10  2  0
 10 11  1  0
 12 20  1  0
 13 18  1  0
 14 15  1  0
 14 13  1  0
 16 15  1  0
 16 25  1  0
 16 17  1  0
 18 12  1  0
 18 17  1  0
 19 12  2  0
 20 21  1  0
 20 11  1  0
 22 23  2  0
 23 42  1  0
 24 23  1  0
 24 27  1  0
 25 22  1  0
 25 26  1  0
 26 24  2  0
 27 28  1  0
 28 29  2  0
 30 33  1  0
 30 29  1  0
 31 30  2  0
 32 31  1  0
 32 27  2  0
 33 34  1  0
 34 35  1  0
 35 36  2  0
 37 36  1  0
 37 41  1  0
 38 37  2  0
 39 34  2  0
 39 38  1  0
 40 39  1  0
 42 43  1  0
 43 46  1  0
 43 45  1  0
 44 42  2  0
 47 48  1  0
 47 22  1  0
 49 47  1  0
 50 51  1  0
 50  1  1  0
 52 54  1  0
 52 51  1  0
 52 55  1  0
 53 52  1  0
 56 55  1  0
 56 57  1  0
 57 59  1  0
 58 69  2  0
 59 64  1  0
 60 68  1  0
 60 70  1  0
 61 67  1  0
 61 63  1  0
 62 68  1  0
 63 64  2  0
 63 62  1  0
 65 59  2  0
 66 65  1  0
 66 61  2  0
 67 60  1  0
 68 58  1  0
 70 72  2  0
 71 70  1  0
 73 71  1  0
 74 83  2  0
 74 79  1  0
 75 71  1  0
 75 79  1  0
 76 75  1  0
 77 78  1  0
 77 76  1  0
 78 74  1  0
 79 80  2  0
 80 81  1  0
 82 81  2  0
 83 82  1  0
 84 58  1  0
 84 85  1  0
 84 94  1  0
 85 88  1  0
 86 90  1  0
 86 85  1  0
 87 86  2  0
 90 89  1  0
 92 90  1  0
 92 93  1  0
 92 91  1  0
 94 97  1  1
 94 95  1  0
 96 94  1  0
M  ISO  4  12 100  20 100  56 101  57 101
M  END
>  <TORSDO>  (44) 
F 27

>  <SCORE>  (44) 
-11.567

>  <name>  (44) 
44

>  <ligand_id>  (44) 
44

>  <original_smiles>  (44) 
[H]C(C(=O)N([H])C([H])([H])C([H])([H])C([H])([H])C([H])([H])C([H])([H])C([H])([H])[N+]([H])([H])C([H])([H])C([H])([H])Oc1c([H])c([H])c2c(c1[H])C([H])([H])N(C(=O)C([H])(N([H])C(=O)C([H])(N([H])C([H])([H])[H])C([H])([H])[H])C(C([H])([H])[H])(C([H])([H])[H])C([H])([H])[H])C([H])(C(=O)N([H])C1([H])c3c([H])c([H])c([H])c([H])c3C([H])([H])C([H])([H])C1([H])[H])C2([H])[H])=C([H])C([H])([H])N([H])C(=O)N1C([H])([H])C([H])([H])C([H])([H])C([H])(n2nc(-c3c([H])c([H])c(Oc4c([H])c([H])c(F)c([H])c4F)c([H])c3[H])c(C(=O)N([H])[H])c2N([H])[H])C1([H])[H]

>  <smiles>  (44) 
[H]C(C(=O)N([H])C([H])([H])C([H])([H])C([H])([H])C([H])([H])C([H])([H])C([H])([H])[N+]([H])([H])C([H])([H])C([H])([H])Oc1c([H])c([H])c2c(c1[H])C([H])([H])N(C(=O)C([H])(N([H])C(=O)C([H])(N([H])C([H])([H])[H])C([H])([H])[H])C(C([H])([H])[H])(C([H])([H])[H])C([H])([H])[H])C([H])(C(=O)N([H])C1([H])c3c([H])c([H])c([H])c([H])c3C([H])([H])C([H])([H])C1([H])[H])C2([H])[H])=C([H])C([H])([H])N([H])C(=O)N1C([H])([H])C([H])([H])C([H])([H])C([H])(n2nc(-c3c([H])c([H])c(Oc4c([H])c([H])c(F)c([H])c4F)c([H])c3[H])c(C(=O)N([H])[H])c2N([H])[H])C1([H])[H]

$$$$
45:0:0
     RDKit          3D

 98105  0  0  1  0  0  0  0  0999 V2000
  -28.7980  -20.9150   26.0700 C   0  0  0  0  0  2  0  0  0  0  0  0
  -29.3240  -21.2660   24.7410 N   0  0  0  0  0  0  0  0  0  0  0  0
  -28.5910  -21.1120   24.0480 H   0  0  0  0  0  0  0  0  0  0  0  0
  -29.7950  -22.6390   24.6420 C   0  0  0  0  0  2  0  0  0  0  0  0
  -30.1540  -22.9940   23.1890 C   0  0  0  0  0  2  0  0  0  0  0  0
  -30.5560  -24.3940   23.0930 N   0  0  0  0  0  0  0  0  0  0  0  0
  -29.8600  -24.9760   23.5620 H   0  0  0  0  0  0  0  0  0  0  0  0
  -30.6980  -24.8640   21.7150 C   0  0  0  0  0  2  0  0  0  0  0  0
  -30.9960  -26.3700   21.6610 C   0  0  0  0  0  2  0  0  0  0  0  0
  -30.6690  -26.8480   20.3570 O   0  0  0  0  0  0  0  0  0  0  0  0
  -25.4970  -30.7300   23.2590 C   0  0  0  0  0  0  0  0  0  0  0  0
  -29.3790  -27.2990   20.2590 C   0  0  0  0  0  0  0  0  0  0  0  0
  -24.8080  -29.2140   21.4250 C   0  0  0  0  0  3  0  0  0  0  0  0
  -26.7090  -28.1700   20.0800 C   0  0  0  0  0  0  0  0  0  0  0  0
  -27.1730  -30.1750   21.5070 C   0  0  0  0  0  2  0  0  0  0  0  0
  -27.6400  -28.9130   20.8160 C   0  0  0  0  0  0  0  0  0  0  0  0
  -28.9770  -28.4820   20.9110 C   0  0  0  0  0  3  0  0  0  0  0  0
  -28.4440  -26.5620   19.5060 C   0  0  0  0  0  3  0  0  0  0  0  0
  -27.1040  -26.9900   19.4200 C   0  0  0  0  0  3  0  0  0  0  0  0
  -25.2940  -28.7010   20.0410 C   0  0  0  0  0  2  0  0  0  0  0  0
  -25.8350  -30.0510   22.1260 N   0  0  0  0  0  0  0  0  0  0  0  0
  -24.3370  -30.7060   23.6960 O   0  0  0  0  0  0  0  0  0  0  0  0
  -24.3360  -28.0010   22.2590 C   0  0  0  0  0  0  0  0  0  0  0  0
  -23.1310  -27.5030   21.9510 N   0  0  0  0  0  0  0  0  0  0  0  0
  -25.0590  -27.5150   23.1330 O   0  0  0  0  0  0  0  0  0  0  0  0
  -22.6020  -27.9630   21.2230 H   0  0  0  0  0  0  0  0  0  0  0  0
  -20.1400  -25.4800   21.9430 C   0  0  0  0  0  0  0  0  0  0  0  0
  -22.4940  -26.3420   22.5710 C   0  0  0  0  0  3  0  0  0  0  0  0
  -23.0270  -25.0240   21.9620 C   0  0  0  0  0  2  0  0  0  0  0  0
  -22.1760  -24.5100   20.7970 C   0  0  0  0  0  2  0  0  0  0  0  0
  -20.7350  -24.2640   21.2520 C   0  0  0  0  0  2  0  0  0  0  0  0
  -20.9670  -26.4630   22.5470 C   0  0  0  0  0  0  0  0  0  0  0  0
  -20.3650  -27.5940   23.1430 C   0  0  0  0  0  3  0  0  0  0  0  0
  -18.9650  -27.7470   23.1460 C   0  0  0  0  0  3  0  0  0  0  0  0
  -18.1510  -26.7610   22.5630 C   0  0  0  0  0  3  0  0  0  0  0  0
  -18.7370  -25.6300   21.9680 C   0  0  0  0  0  3  0  0  0  0  0  0
  -26.5410  -31.5870   24.0430 C   0  0  0  0  0  3  0  0  0  0  0  0
  -27.0050  -30.9190   25.3940 C   0  0  1  0  0  0  0  0  0  0  0  0
  -25.8310  -30.4690   26.2970 C   0  0  0  0  0  1  0  0  0  0  0  0
  -27.8910  -29.6830   25.1110 C   0  0  0  0  0  1  0  0  0  0  0  0
  -27.8780  -31.9110   26.2000 C   0  0  0  0  0  1  0  0  0  0  0  0
  -25.9370  -32.9010   24.2940 N   0  0  0  0  0  0  0  0  0  0  0  0
  -26.1870  -34.0020   23.5710 C   0  0  0  0  0  0  0  0  0  0  0  0
  -27.0190  -34.0310   22.6600 O   0  0  0  0  0  0  0  0  0  0  0  0
  -25.2080  -32.9400   24.9920 H   0  0  0  0  0  0  0  0  0  0  0  0
  -24.2440  -35.4440   22.9020 C   0  0  0  0  0  1  0  0  0  0  0  0
  -25.3880  -35.2720   23.9150 C   0  0  0  0  0  3  0  0  0  0  0  0
  -27.1540  -36.5230   25.0710 C   0  0  0  0  0  1  0  0  0  0  0  0
  -26.2170  -36.4970   23.9500 N   0  0  0  0  0  0  0  0  0  0  0  0
  -25.6320  -37.3260   24.0090 H   0  0  0  0  0  0  0  0  0  0  0  0
  -28.6770  -19.3900   26.1630 C   0  0  0  0  0  2  0  0  0  0  0  0
  -29.2860  -18.8490   24.9530 N   0  0  0  0  0  0  0  0  0  0  0  0
  -29.0860  -19.6030   24.2810 H   0  0  0  0  0  0  0  0  0  0  0  0
  -30.7390  -18.6190   25.0170 C   0  0  0  0  0  2  0  0  0  0  0  0
  -31.2880  -18.4400   23.5950 C   0  0  0  0  0  2  0  0  0  0  0  0
  -30.3540  -17.5930   22.8260 N   0  0  0  0  0  4  0  0  0  0  0  0
  -30.2560  -16.6950   23.2650 H   0  0  0  0  0  0  0  0  0  0  0  0
  -29.4660  -18.0630   22.9510 H   0  0  0  0  0  0  0  0  0  0  0  0
  -30.6680  -17.4490   21.3900 C   0  0  0  0  0  2  0  0  0  0  0  0
  -31.4380  -16.1460   21.1120 C   0  0  0  0  0  2  0  0  0  0  0  0
  -30.6000  -14.3950   19.5450 C   0  0  0  0  0  0  0  0  0  0  0  0
  -30.2400  -12.1270   18.6470 C   0  0  0  0  0  2  0  0  0  0  0  0
  -29.1490  -12.0360   17.5680 C   0  0  0  0  0  2  0  0  0  0  0  0
  -27.7680  -11.8430   18.2160 C   0  0  0  0  0  2  0  0  0  0  0  0
  -27.4880  -12.9000   19.3110 C   0  0  0  0  0  3  0  0  0  0  0  0
  -28.6640  -12.9900   20.3090 C   0  0  0  0  0  2  0  0  0  0  0  0
  -29.9140  -13.2280   19.5640 N   0  0  0  0  0  0  0  0  0  0  0  0
  -31.3670  -14.7270   18.6350 O   0  0  0  0  0  0  0  0  0  0  0  0
  -30.5540  -15.0520   20.7120 N   0  0  0  0  0  0  0  0  0  0  0  0
  -29.9690  -14.6330   21.4210 H   0  0  0  0  0  0  0  0  0  0  0  0
  -25.2810  -13.5270   20.4840 C   0  0  0  0  0  0  0  0  0  0  0  0
  -24.2540  -12.7600   20.9710 C   0  0  0  0  0  0  0  0  0  0  0  0
  -24.6360  -11.4020   20.7430 C   0  0  0  0  0  0  0  0  0  0  0  0
  -26.2240  -12.6350   19.9960 N   0  0  0  0  0  0  0  0  0  0  0  0
  -25.8480  -11.3470   20.2080 N   0  0  0  0  0  0  0  0  0  0  0  0
  -23.8930  -10.1540   20.9540 C   0  0  0  0  0  0  0  0  0  0  0  0
  -24.3590   -9.1590   21.8430 C   0  0  0  0  0  3  0  0  0  0  0  0
  -23.6180   -7.9730   22.0390 C   0  0  0  0  0  3  0  0  0  0  0  0
  -22.4000   -7.7740   21.3480 C   0  0  0  0  0  0  0  0  0  0  0  0
  -21.9530   -8.7580   20.4480 C   0  0  0  0  0  3  0  0  0  0  0  0
  -22.6930   -9.9350   20.2490 C   0  0  0  0  0  3  0  0  0  0  0  0
  -21.6260   -6.6430   21.4570 O   0  0  0  0  0  0  0  0  0  0  0  0
  -21.5180   -5.9570   22.6400 C   0  0  0  0  0  0  0  0  0  0  0  0
  -21.0400   -6.5720   23.8170 C   0  0  0  0  0  3  0  0  0  0  0  0
  -20.8770   -5.8110   24.9920 C   0  0  0  0  0  3  0  0  0  0  0  0
  -21.1850   -4.4380   24.9910 C   0  0  0  0  0  0  0  0  0  0  0  0
  -21.6550   -3.8220   23.8180 C   0  0  0  0  0  3  0  0  0  0  0  0
  -21.8200   -4.5800   22.6450 C   0  0  0  0  0  0  0  0  0  0  0  0
  -22.2530   -3.9780   21.5120 F   0  0  0  0  0  0  0  0  0  0  0  0
  -21.0210   -3.7060   26.1180 F   0  0  0  0  0  0  0  0  0  0  0  0
  -22.9520  -13.2580   21.5280 C   0  0  0  0  0  0  0  0  0  0  0  0
  -22.3640  -12.5190   22.4640 N   0  0  0  0  0  0  0  0  0  0  0  0
  -22.4740  -14.3330   21.1710 O   0  0  0  0  0  0  0  0  0  0  0  0
  -22.7640  -11.6440   22.7670 H   0  0  0  0  0  0  0  0  0  0  0  0
  -21.5010  -12.8350   22.8820 H   0  0  0  0  0  0  0  0  0  0  0  0
  -25.4800  -14.9000   20.3990 N   0  0  0  0  0  0  0  0  0  0  0  0
  -24.7790  -15.5700   20.6960 H   0  0  0  0  0  0  0  0  0  0  0  0
  -26.2930  -15.3390   19.9840 H   0  0  0  0  0  0  0  0  0  0  0  0
  1 51  1  0
  2  1  1  0
  3  2  1  0
  4  2  1  0
  5  4  1  0
  6  5  1  0
  6  7  1  0
  8  6  1  0
  9  8  1  0
 10  9  1  0
 11 22  2  0
 12 10  1  0
 12 17  1  0
 13 21  1  0
 13 23  1  0
 14 16  1  0
 15 21  1  0
 16 17  2  0
 16 15  1  0
 18 12  2  0
 19 18  1  0
 19 14  2  0
 20 14  1  0
 20 13  1  0
 21 11  1  0
 23 25  2  0
 24 23  1  0
 26 24  1  0
 27 36  2  0
 27 32  1  0
 28 24  1  0
 29 28  1  0
 30 31  1  0
 30 29  1  0
 31 27  1  0
 32 28  1  0
 32 33  2  0
 33 34  1  0
 35 34  2  0
 36 35  1  0
 37 11  1  0
 37 42  1  0
 37 38  1  0
 38 41  1  1
 38 39  1  0
 40 38  1  0
 42 45  1  0
 43 47  1  0
 43 42  1  0
 44 43  2  0
 47 46  1  0
 47 49  1  0
 49 50  1  0
 49 48  1  0
 52 54  1  0
 52 51  1  0
 53 52  1  0
 55 54  1  0
 56 58  1  0
 56 57  1  0
 56 55  1  0
 59 56  1  0
 60 59  1  0
 61 67  1  0
 61 69  1  0
 62 67  1  0
 63 64  1  0
 63 62  1  0
 65 64  1  0
 65 74  1  0
 65 66  1  0
 67 66  1  0
 68 61  2  0
 69 60  1  0
 69 70  1  0
 71 72  2  0
 72 91  1  0
 73 76  1  0
 73 72  1  0
 74 75  1  0
 74 71  1  0
 75 73  2  0
 76 77  1  0
 77 78  2  0
 79 82  1  0
 79 78  1  0
 80 79  2  0
 81 80  1  0
 81 76  2  0
 82 83  1  0
 83 88  2  0
 83 84  1  0
 84 85  2  0
 86 85  1  0
 86 90  1  0
 87 86  2  0
 88 87  1  0
 89 88  1  0
 91 92  1  0
 92 94  1  0
 92 95  1  0
 93 91  2  0
 96 71  1  0
 96 97  1  0
 98 96  1  0
M  ISO  4   9 101  10 101  61 100  69 100
M  END
>  <TORSDO>  (45) 
F 29

>  <SCORE>  (45) 
0.437

>  <name>  (45) 
45

>  <ligand_id>  (45) 
45

>  <original_smiles>  (45) 
[H]c1c([H])c([H])c2c(c1[H])C([H])([H])C([H])([H])C([H])([H])C2([H])N([H])C(=O)C1([H])N(C(=O)C([H])(N([H])C(=O)C([H])(N([H])C([H])([H])[H])C([H])([H])[H])C(C([H])([H])[H])(C([H])([H])[H])C([H])([H])[H])C([H])([H])c2c([H])c(OC([H])([H])C([H])([H])N([H])C([H])([H])C([H])([H])N([H])C([H])([H])C([H])([H])N([H])C([H])([H])C([H])([H])[N+]([H])([H])C([H])([H])C([H])([H])N([H])C(=O)N3C([H])([H])C([H])([H])C([H])([H])C([H])(n4nc(-c5c([H])c([H])c(Oc6c([H])c([H])c(F)c([H])c6F)c([H])c5[H])c(C(=O)N([H])[H])c4N([H])[H])C3([H])[H])c([H])c([H])c2C1([H])[H]

>  <smiles>  (45) 
[H]c1c([H])c([H])c2c(c1[H])C([H])([H])C([H])([H])C([H])([H])C2([H])N([H])C(=O)C1([H])N(C(=O)C([H])(N([H])C(=O)C([H])(N([H])C([H])([H])[H])C([H])([H])[H])C(C([H])([H])[H])(C([H])([H])[H])C([H])([H])[H])C([H])([H])c2c([H])c(OC([H])([H])C([H])([H])N([H])C([H])([H])C([H])([H])N([H])C([H])([H])C([H])([H])N([H])C([H])([H])C([H])([H])[N+]([H])([H])C([H])([H])C([H])([H])N([H])C(=O)N3C([H])([H])C([H])([H])C([H])([H])C([H])(n4nc(-c5c([H])c([H])c(Oc6c([H])c([H])c(F)c([H])c6F)c([H])c5[H])c(C(=O)N([H])[H])c4N([H])[H])C3([H])[H])c([H])c([H])c2C1([H])[H]

$$$$
46:0:0
     RDKit          3D

 97104  0  0  1  0  0  0  0  0999 V2000
  -29.9400  -23.4190   17.2290 C   0  0  0  0  0  2  0  0  0  0  0  0
  -31.2380  -23.9490   17.8770 C   0  0  0  0  0  2  0  0  0  0  0  0
  -31.0350  -25.0890   18.8890 C   0  0  0  0  0  2  0  0  0  0  0  0
  -30.2490  -24.6340   20.0580 N   0  0  0  0  0  4  0  0  0  0  0  0
  -30.6480  -23.7660   20.3820 H   0  0  0  0  0  0  0  0  0  0  0  0
  -29.3080  -24.4390   19.7550 H   0  0  0  0  0  0  0  0  0  0  0  0
  -30.1720  -25.5600   21.2150 C   0  0  0  0  0  2  0  0  0  0  0  0
  -29.4770  -26.8980   20.9030 C   0  0  0  0  0  2  0  0  0  0  0  0
  -28.3390  -26.6050   20.0980 O   0  0  0  0  0  0  0  0  0  0  0  0
  -24.6030  -31.8530   23.2200 C   0  0  0  0  0  0  0  0  0  0  0  0
  -27.2250  -27.4090   20.1630 C   0  0  0  0  0  0  0  0  0  0  0  0
  -23.3760  -30.4420   21.5930 C   0  0  0  0  0  3  0  0  0  0  0  0
  -24.8190  -28.8910   20.1730 C   0  0  0  0  0  0  0  0  0  0  0  0
  -25.8950  -30.8040   21.3730 C   0  0  0  0  0  2  0  0  0  0  0  0
  -25.9780  -29.4280   20.7480 C   0  0  0  0  0  0  0  0  0  0  0  0
  -27.1840  -28.6970   20.7500 C   0  0  0  0  0  3  0  0  0  0  0  0
  -26.0540  -26.8840   19.5850 C   0  0  0  0  0  3  0  0  0  0  0  0
  -24.8500  -27.6130   19.5890 C   0  0  0  0  0  3  0  0  0  0  0  0
  -23.5720  -29.7460   20.2190 C   0  0  0  0  0  2  0  0  0  0  0  0
  -24.6430  -31.0480   22.1220 N   0  0  0  0  0  0  0  0  0  0  0  0
  -23.5280  -32.1310   23.7690 O   0  0  0  0  0  0  0  0  0  0  0  0
  -22.7340  -29.4300   22.5650 C   0  0  0  0  0  0  0  0  0  0  0  0
  -21.4090  -29.2500   22.4480 N   0  0  0  0  0  0  0  0  0  0  0  0
  -23.4220  -28.8100   23.3820 O   0  0  0  0  0  0  0  0  0  0  0  0
  -20.9160  -29.8100   21.7650 H   0  0  0  0  0  0  0  0  0  0  0  0
  -18.0400  -28.0590   22.9620 C   0  0  0  0  0  0  0  0  0  0  0  0
  -20.5960  -28.3190   23.2300 C   0  0  0  0  0  3  0  0  0  0  0  0
  -20.7000  -26.8820   22.6680 C   0  0  0  0  0  2  0  0  0  0  0  0
  -19.5970  -26.5480   21.6580 C   0  0  0  0  0  2  0  0  0  0  0  0
  -18.2150  -26.7020   22.3000 C   0  0  0  0  0  2  0  0  0  0  0  0
  -19.1590  -28.8260   23.3830 C   0  0  0  0  0  0  0  0  0  0  0  0
  -18.9430  -30.0960   23.9580 C   0  0  0  0  0  3  0  0  0  0  0  0
  -17.6390  -30.6020   24.1170 C   0  0  0  0  0  3  0  0  0  0  0  0
  -16.5340  -29.8320   23.7130 C   0  0  0  0  0  3  0  0  0  0  0  0
  -16.7330  -28.5620   23.1430 C   0  0  0  0  0  3  0  0  0  0  0  0
  -25.9010  -32.4800   23.8250 C   0  0  0  0  0  3  0  0  0  0  0  0
  -25.5960  -33.8740   24.1680 N   0  0  0  0  0  0  0  0  0  0  0  0
  -25.9230  -34.9310   23.4130 C   0  0  0  0  0  0  0  0  0  0  0  0
  -26.5820  -34.8380   22.3740 O   0  0  0  0  0  0  0  0  0  0  0  0
  -25.0090  -34.0220   24.9750 H   0  0  0  0  0  0  0  0  0  0  0  0
  -24.1870  -36.7230   23.0870 C   0  0  0  0  0  1  0  0  0  0  0  0
  -25.4360  -36.3140   23.8860 C   0  0  0  0  0  3  0  0  0  0  0  0
  -27.5750  -37.1950   24.7060 C   0  0  0  0  0  1  0  0  0  0  0  0
  -26.4650  -37.3710   23.7750 N   0  0  0  0  0  0  0  0  0  0  0  0
  -26.0570  -38.2860   23.9430 H   0  0  0  0  0  0  0  0  0  0  0  0
  -26.4450  -31.6960   25.0800 C   0  0  1  0  0  0  0  0  0  0  0  0
  -25.3670  -31.4190   26.1530 C   0  0  0  0  0  1  0  0  0  0  0  0
  -27.0490  -30.3360   24.6580 C   0  0  0  0  0  1  0  0  0  0  0  0
  -27.5830  -32.4980   25.7530 C   0  0  0  0  0  1  0  0  0  0  0  0
  -30.1100  -22.0080   16.6540 C   0  0  0  0  0  2  0  0  0  0  0  0
  -30.2270  -21.0380   17.7360 N   0  0  0  0  0  0  0  0  0  0  0  0
  -29.4030  -21.1220   18.3280 H   0  0  0  0  0  0  0  0  0  0  0  0
  -30.2570  -19.6940   17.1690 C   0  0  0  0  0  2  0  0  0  0  0  0
  -31.1560  -18.7990   18.0290 C   0  0  0  0  0  2  0  0  0  0  0  0
  -30.5650  -18.6370   19.3690 N   0  0  0  0  0  4  0  0  0  0  0  0
  -30.7590  -19.4630   19.9090 H   0  0  0  0  0  0  0  0  0  0  0  0
  -29.5690  -18.5960   19.2210 H   0  0  0  0  0  0  0  0  0  0  0  0
  -30.9770  -17.4210   20.0940 C   0  0  0  0  0  2  0  0  0  0  0  0
  -29.7240  -16.6990   20.6280 C   0  0  0  0  0  2  0  0  0  0  0  0
  -30.6350  -14.3630   20.5480 C   0  0  0  0  0  0  0  0  0  0  0  0
  -30.3440  -12.2540   19.3220 C   0  0  0  0  0  2  0  0  0  0  0  0
  -29.4270  -12.5540   18.1180 C   0  0  0  0  0  2  0  0  0  0  0  0
  -27.9310  -12.5060   18.5110 C   0  0  0  0  0  2  0  0  0  0  0  0
  -27.6140  -13.2580   19.8330 C   0  0  0  0  0  3  0  0  0  0  0  0
  -28.6440  -12.8890   20.9240 C   0  0  0  0  0  2  0  0  0  0  0  0
  -29.9850  -13.1870   20.3970 N   0  0  0  0  0  0  0  0  0  0  0  0
  -31.7410  -14.5890   20.0520 O   0  0  0  0  0  0  0  0  0  0  0  0
  -29.8730  -15.3220   21.0950 N   0  0  0  0  0  0  0  0  0  0  0  0
  -29.0420  -14.9730   21.5530 H   0  0  0  0  0  0  0  0  0  0  0  0
  -25.2160  -13.8930   20.5220 C   0  0  0  0  0  0  0  0  0  0  0  0
  -24.1420  -13.1310   20.8880 C   0  0  0  0  0  0  0  0  0  0  0  0
  -24.5890  -11.7740   20.8580 C   0  0  0  0  0  0  0  0  0  0  0  0
  -26.2520  -13.0010   20.2940 N   0  0  0  0  0  0  0  0  0  0  0  0
  -25.8780  -11.7210   20.5500 N   0  0  0  0  0  0  0  0  0  0  0  0
  -23.8540  -10.5180   21.0500 C   0  0  0  0  0  0  0  0  0  0  0  0
  -24.2900   -9.5430   21.9750 C   0  0  0  0  0  3  0  0  0  0  0  0
  -23.5600   -8.3500   22.1570 C   0  0  0  0  0  3  0  0  0  0  0  0
  -22.3780   -8.1210   21.4110 C   0  0  0  0  0  0  0  0  0  0  0  0
  -21.9610   -9.0840   20.4750 C   0  0  0  0  0  3  0  0  0  0  0  0
  -22.6920  -10.2700   20.2930 C   0  0  0  0  0  3  0  0  0  0  0  0
  -21.6190   -6.9790   21.4960 O   0  0  0  0  0  0  0  0  0  0  0  0
  -21.5930   -6.2150   22.6360 C   0  0  0  0  0  0  0  0  0  0  0  0
  -21.2120   -6.7550   23.8830 C   0  0  0  0  0  3  0  0  0  0  0  0
  -21.1230   -5.9190   25.0140 C   0  0  0  0  0  3  0  0  0  0  0  0
  -21.4140   -4.5460   24.8990 C   0  0  0  0  0  0  0  0  0  0  0  0
  -21.7940   -4.0070   23.6570 C   0  0  0  0  0  3  0  0  0  0  0  0
  -21.8780   -4.8400   22.5260 C   0  0  0  0  0  0  0  0  0  0  0  0
  -22.2190   -4.3130   21.3260 F   0  0  0  0  0  0  0  0  0  0  0  0
  -21.3240   -3.7410   25.9820 F   0  0  0  0  0  0  0  0  0  0  0  0
  -22.7510  -13.6210   21.1660 C   0  0  0  0  0  0  0  0  0  0  0  0
  -22.0220  -12.9260   22.0270 N   0  0  0  0  0  0  0  0  0  0  0  0
  -22.3250  -14.6570   20.6570 O   0  0  0  0  0  0  0  0  0  0  0  0
  -22.3870  -12.0870   22.4520 H   0  0  0  0  0  0  0  0  0  0  0  0
  -21.0900  -13.2350   22.2620 H   0  0  0  0  0  0  0  0  0  0  0  0
  -25.3900  -15.2650   20.3530 N   0  0  0  0  0  0  0  0  0  0  0  0
  -24.6300  -15.9240   20.4810 H   0  0  0  0  0  0  0  0  0  0  0  0
  -26.2440  -15.7020   20.0380 H   0  0  0  0  0  0  0  0  0  0  0  0
  1  2  1  0
  2  3  1  0
  3  4  1  0
  4  5  1  0
  4  7  1  0
  6  4  1  0
  8  7  1  0
  9 11  1  0
  9  8  1  0
 10 21  2  0
 11 16  1  0
 12 20  1  0
 12 22  1  0
 13 19  1  0
 13 15  1  0
 14 20  1  0
 15 16  2  0
 15 14  1  0
 17 18  1  0
 17 11  2  0
 18 13  2  0
 19 12  1  0
 20 10  1  0
 22 24  2  0
 23 22  1  0
 25 23  1  0
 26 35  2  0
 26 31  1  0
 27 23  1  0
 27 31  1  0
 28 27  1  0
 29 30  1  0
 29 28  1  0
 30 26  1  0
 31 32  2  0
 32 33  1  0
 34 33  2  0
 35 34  1  0
 36 10  1  0
 36 37  1  0
 36 46  1  0
 37 40  1  0
 38 42  1  0
 38 37  1  0
 39 38  2  0
 42 41  1  0
 44 42  1  0
 44 45  1  0
 44 43  1  0
 46 49  1  1
 46 47  1  0
 48 46  1  0
 50  1  1  0
 50 51  1  0
 51 52  1  0
 53 51  1  0
 53 54  1  0
 54 55  1  0
 55 56  1  0
 55 58  1  0
 57 55  1  0
 58 59  1  0
 59 68  1  0
 60 68  1  0
 61 66  1  0
 62 63  1  0
 62 61  1  0
 64 63  1  0
 64 73  1  0
 64 65  1  0
 66 60  1  0
 66 65  1  0
 67 60  2  0
 68 69  1  0
 70 71  2  0
 71 90  1  0
 72 71  1  0
 72 75  1  0
 73 70  1  0
 73 74  1  0
 74 72  2  0
 75 76  1  0
 76 77  2  0
 78 81  1  0
 78 77  1  0
 79 78  2  0
 80 79  1  0
 80 75  2  0
 81 82  1  0
 82 83  1  0
 83 84  2  0
 85 84  1  0
 85 89  1  0
 86 85  2  0
 87 82  2  0
 87 86  1  0
 88 87  1  0
 90 91  1  0
 91 94  1  0
 91 93  1  0
 92 90  2  0
 95 96  1  0
 95 70  1  0
 97 95  1  0
M  ISO  4   8 101   9 101  60 100  68 100
M  END
>  <TORSDO>  (46) 
F 28

>  <SCORE>  (46) 
-11.244

>  <name>  (46) 
46

>  <ligand_id>  (46) 
46

>  <original_smiles>  (46) 
[H]c1c([H])c([H])c2c(c1[H])C([H])([H])C([H])([H])C([H])([H])C2([H])N([H])C(=O)C1([H])N(C(=O)C([H])(N([H])C(=O)C([H])(N([H])C([H])([H])[H])C([H])([H])[H])C(C([H])([H])[H])(C([H])([H])[H])C([H])([H])[H])C([H])([H])c2c([H])c(OC([H])([H])C([H])([H])[N+]([H])([H])C([H])([H])C([H])([H])C([H])([H])C([H])([H])N([H])C([H])([H])C([H])([H])[N+]([H])([H])C([H])([H])C([H])([H])N([H])C(=O)N3C([H])([H])C([H])([H])C([H])([H])C([H])(n4nc(-c5c([H])c([H])c(Oc6c([H])c([H])c(F)c([H])c6F)c([H])c5[H])c(C(=O)N([H])[H])c4N([H])[H])C3([H])[H])c([H])c([H])c2C1([H])[H]

>  <smiles>  (46) 
[H]c1c([H])c([H])c2c(c1[H])C([H])([H])C([H])([H])C([H])([H])C2([H])N([H])C(=O)C1([H])N(C(=O)C([H])(N([H])C(=O)C([H])(N([H])C([H])([H])[H])C([H])([H])[H])C(C([H])([H])[H])(C([H])([H])[H])C([H])([H])[H])C([H])([H])c2c([H])c(OC([H])([H])C([H])([H])[N+]([H])([H])C([H])([H])C([H])([H])C([H])([H])C([H])([H])N([H])C([H])([H])C([H])([H])[N+]([H])([H])C([H])([H])C([H])([H])N([H])C(=O)N3C([H])([H])C([H])([H])C([H])([H])C([H])(n4nc(-c5c([H])c([H])c(Oc6c([H])c([H])c(F)c([H])c6F)c([H])c5[H])c(C(=O)N([H])[H])c4N([H])[H])C3([H])[H])c([H])c([H])c2C1([H])[H]

$$$$
47:0:0
     RDKit          3D

 99106  0  0  1  0  0  0  0  0999 V2000
  -27.1270  -22.2300   18.0870 C   0  0  0  0  0  3  0  0  0  0  0  0
  -27.3700  -22.8160   16.8980 C   0  0  0  0  0  3  0  0  0  0  0  0
  -27.5600  -20.8670   18.3420 C   0  0  0  0  0  0  0  0  0  0  0  0
  -27.3300  -20.4880   19.6040 N   0  0  0  0  0  0  0  0  0  0  0  0
  -28.0950  -20.1190   17.5210 O   0  0  0  0  0  0  0  0  0  0  0  0
  -26.8680  -21.1490   20.2160 H   0  0  0  0  0  0  0  0  0  0  0  0
  -27.6640  -19.1810   20.1700 C   0  0  0  0  0  2  0  0  0  0  0  0
  -29.1850  -18.9980   20.3670 C   0  0  0  0  0  2  0  0  0  0  0  0
  -29.5170  -17.7100   21.0110 N   0  0  0  0  0  4  0  0  0  0  0  0
  -29.0980  -16.9640   20.4830 H   0  0  0  0  0  0  0  0  0  0  0  0
  -29.1200  -17.6990   21.9370 H   0  0  0  0  0  0  0  0  0  0  0  0
  -30.9700  -17.4520   21.1080 C   0  0  0  0  0  2  0  0  0  0  0  0
  -31.2970  -16.1210   21.8170 C   0  0  0  0  0  2  0  0  0  0  0  0
  -31.0040  -14.1840   20.2580 C   0  0  0  0  0  0  0  0  0  0  0  0
  -30.5710  -12.1000   19.0010 C   0  0  0  0  0  2  0  0  0  0  0  0
  -29.6000  -12.3310   17.8290 C   0  0  0  0  0  2  0  0  0  0  0  0
  -28.1370  -12.2260   18.2990 C   0  0  0  0  0  2  0  0  0  0  0  0
  -27.8570  -13.0810   19.5630 C   0  0  0  0  0  3  0  0  0  0  0  0
  -28.9250  -12.8110   20.6460 C   0  0  0  0  0  2  0  0  0  0  0  0
  -30.2570  -13.0670   20.0620 N   0  0  0  0  0  0  0  0  0  0  0  0
  -32.0120  -14.4580   19.5980 O   0  0  0  0  0  0  0  0  0  0  0  0
  -30.5850  -14.9660   21.2620 N   0  0  0  0  0  0  0  0  0  0  0  0
  -29.7830  -14.6270   21.7740 H   0  0  0  0  0  0  0  0  0  0  0  0
  -25.4950  -13.7740   20.3220 C   0  0  0  0  0  0  0  0  0  0  0  0
  -24.4130  -13.0390   20.7280 C   0  0  0  0  0  0  0  0  0  0  0  0
  -24.8300  -11.6730   20.6950 C   0  0  0  0  0  0  0  0  0  0  0  0
  -26.5060  -12.8580   20.0720 N   0  0  0  0  0  0  0  0  0  0  0  0
  -26.1090  -11.5900   20.3510 N   0  0  0  0  0  0  0  0  0  0  0  0
  -24.0700  -10.4360   20.9140 C   0  0  0  0  0  0  0  0  0  0  0  0
  -24.4740   -9.4810   21.8730 C   0  0  0  0  0  3  0  0  0  0  0  0
  -23.7170   -8.3080   22.0770 C   0  0  0  0  0  3  0  0  0  0  0  0
  -22.5420   -8.0810   21.3210 C   0  0  0  0  0  0  0  0  0  0  0  0
  -22.1590   -9.0230   20.3520 C   0  0  0  0  0  3  0  0  0  0  0  0
  -22.9160  -10.1880   20.1450 C   0  0  0  0  0  3  0  0  0  0  0  0
  -21.7590   -6.9580   21.4340 O   0  0  0  0  0  0  0  0  0  0  0  0
  -21.6630   -6.2620   22.6120 C   0  0  0  0  0  0  0  0  0  0  0  0
  -21.2200   -6.8740   23.8060 C   0  0  0  0  0  3  0  0  0  0  0  0
  -21.0700   -6.1060   24.9780 C   0  0  0  0  0  3  0  0  0  0  0  0
  -21.3520   -4.7270   24.9570 C   0  0  0  0  0  0  0  0  0  0  0  0
  -21.7870   -4.1150   23.7680 C   0  0  0  0  0  3  0  0  0  0  0  0
  -21.9390   -4.8790   22.5990 C   0  0  0  0  0  0  0  0  0  0  0  0
  -22.3380   -4.2810   21.4510 F   0  0  0  0  0  0  0  0  0  0  0  0
  -21.2000   -3.9870   26.0800 F   0  0  0  0  0  0  0  0  0  0  0  0
  -23.0390  -13.5620   21.0330 C   0  0  0  0  0  0  0  0  0  0  0  0
  -22.3130  -12.8950   21.9240 N   0  0  0  0  0  0  0  0  0  0  0  0
  -22.6190  -14.5960   20.5170 O   0  0  0  0  0  0  0  0  0  0  0  0
  -22.6660  -12.0580   22.3620 H   0  0  0  0  0  0  0  0  0  0  0  0
  -21.3920  -13.2270   22.1710 H   0  0  0  0  0  0  0  0  0  0  0  0
  -25.6970  -15.1370   20.1240 N   0  0  0  0  0  0  0  0  0  0  0  0
  -24.9350  -15.8010   20.2060 H   0  0  0  0  0  0  0  0  0  0  0  0
  -26.5130  -15.5220   19.6670 H   0  0  0  0  0  0  0  0  0  0  0  0
  -26.9550  -24.2290   16.5200 C   0  0  0  0  0  2  0  0  0  0  0  0
  -28.1230  -25.0740   15.9760 C   0  0  0  0  0  2  0  0  0  0  0  0
  -29.1920  -25.3050   16.9730 N   0  0  0  0  0  4  0  0  0  0  0  0
  -30.0050  -25.6130   16.4580 H   0  0  0  0  0  0  0  0  0  0  0  0
  -29.4450  -24.4330   17.4110 H   0  0  0  0  0  0  0  0  0  0  0  0
  -28.9010  -26.3470   17.9880 C   0  0  0  0  0  2  0  0  0  0  0  0
  -28.8000  -25.7760   19.4160 C   0  0  0  0  0  2  0  0  0  0  0  0
  -28.5730  -26.8210   20.3620 O   0  0  0  0  0  0  0  0  0  0  0  0
  -24.7270  -31.9260   23.4550 C   0  0  0  0  0  0  0  0  0  0  0  0
  -27.3700  -27.4970   20.3590 C   0  0  0  0  0  0  0  0  0  0  0  0
  -23.5230  -30.5460   21.7910 C   0  0  0  0  0  3  0  0  0  0  0  0
  -24.9760  -29.0050   20.3730 C   0  0  0  0  0  0  0  0  0  0  0  0
  -26.0530  -30.8860   21.6220 C   0  0  0  0  0  2  0  0  0  0  0  0
  -26.1320  -29.5190   20.9760 C   0  0  0  0  0  0  0  0  0  0  0  0
  -27.3260  -28.7680   20.9740 C   0  0  0  0  0  3  0  0  0  0  0  0
  -26.1860  -26.9830   19.7770 C   0  0  0  0  0  3  0  0  0  0  0  0
  -24.9980  -27.7340   19.7770 C   0  0  0  0  0  3  0  0  0  0  0  0
  -23.7390  -29.8740   20.4080 C   0  0  0  0  0  2  0  0  0  0  0  0
  -24.7850  -31.1340   22.3470 N   0  0  0  0  0  0  0  0  0  0  0  0
  -23.6430  -32.2030   23.9870 O   0  0  0  0  0  0  0  0  0  0  0  0
  -22.8560  -29.5210   22.7370 C   0  0  0  0  0  0  0  0  0  0  0  0
  -21.5400  -29.3160   22.5610 N   0  0  0  0  0  0  0  0  0  0  0  0
  -23.5190  -28.9140   23.5800 O   0  0  0  0  0  0  0  0  0  0  0  0
  -21.0660  -29.8610   21.8550 H   0  0  0  0  0  0  0  0  0  0  0  0
  -18.1740  -28.0550   22.9180 C   0  0  0  0  0  0  0  0  0  0  0  0
  -20.7090  -28.3750   23.3110 C   0  0  0  0  0  3  0  0  0  0  0  0
  -20.8700  -26.9360   22.7680 C   0  0  0  0  0  2  0  0  0  0  0  0
  -19.8270  -26.5680   21.7070 C   0  0  0  0  0  2  0  0  0  0  0  0
  -18.4120  -26.6960   22.2790 C   0  0  0  0  0  2  0  0  0  0  0  0
  -19.2530  -28.8490   23.3860 C   0  0  0  0  0  0  0  0  0  0  0  0
  -18.9790  -30.1210   23.9370 C   0  0  0  0  0  3  0  0  0  0  0  0
  -17.6570  -30.5960   24.0260 C   0  0  0  0  0  3  0  0  0  0  0  0
  -16.5910  -29.7970   23.5780 C   0  0  0  0  0  3  0  0  0  0  0  0
  -16.8500  -28.5290   23.0290 C   0  0  0  0  0  3  0  0  0  0  0  0
  -26.0130  -32.5390   24.0910 C   0  0  0  0  0  3  0  0  0  0  0  0
  -25.7320  -33.9500   24.3880 N   0  0  0  0  0  0  0  0  0  0  0  0
  -26.0950  -34.9760   23.6090 C   0  0  0  0  0  0  0  0  0  0  0  0
  -26.7770  -34.8350   22.5910 O   0  0  0  0  0  0  0  0  0  0  0  0
  -25.1340  -34.1340   25.1820 H   0  0  0  0  0  0  0  0  0  0  0  0
  -24.4030  -36.7870   23.1890 C   0  0  0  0  0  1  0  0  0  0  0  0
  -25.6280  -36.3850   24.0240 C   0  0  0  0  0  3  0  0  0  0  0  0
  -27.7700  -37.2510   24.8560 C   0  0  0  0  0  1  0  0  0  0  0  0
  -26.6800  -37.4160   23.8970 N   0  0  0  0  0  0  0  0  0  0  0  0
  -26.2880  -38.3460   24.0210 H   0  0  0  0  0  0  0  0  0  0  0  0
  -26.4890  -31.7800   25.3900 C   0  0  1  0  0  0  0  0  0  0  0  0
  -25.3690  -31.5680   26.4350 C   0  0  0  0  0  1  0  0  0  0  0  0
  -27.0680  -30.3930   25.0300 C   0  0  0  0  0  1  0  0  0  0  0  0
  -27.6330  -32.5700   26.0700 C   0  0  0  0  0  1  0  0  0  0  0  0
  1  3  1  0
  2  1  2  0
  3  4  1  0
  4  7  1  0
  4  6  1  0
  5  3  2  0
  7  8  1  0
  8  9  1  0
  9 12  1  0
  9 11  1  0
 10  9  1  0
 12 13  1  0
 14 22  1  0
 15 20  1  0
 16 17  1  0
 16 15  1  0
 18 17  1  0
 18 27  1  0
 18 19  1  0
 20 14  1  0
 20 19  1  0
 21 14  2  0
 22 23  1  0
 22 13  1  0
 24 25  2  0
 25 44  1  0
 26 25  1  0
 26 29  1  0
 27 24  1  0
 27 28  1  0
 28 26  2  0
 29 30  1  0
 30 31  2  0
 32 35  1  0
 32 31  1  0
 33 32  2  0
 34 33  1  0
 34 29  2  0
 35 36  1  0
 36 37  1  0
 37 38  2  0
 39 38  1  0
 39 43  1  0
 40 39  2  0
 41 36  2  0
 41 40  1  0
 42 41  1  0
 44 45  1  0
 45 48  1  0
 45 47  1  0
 46 44  2  0
 49 50  1  0
 49 24  1  0
 51 49  1  0
 52  2  1  0
 53 52  1  0
 53 54  1  0
 54 56  1  0
 54 57  1  0
 55 54  1  0
 57 58  1  0
 58 59  1  0
 60 71  2  0
 61 59  1  0
 61 66  1  0
 62 70  1  0
 62 72  1  0
 63 69  1  0
 63 65  1  0
 64 70  1  0
 65 64  1  0
 66 65  2  0
 67 61  2  0
 68 67  1  0
 68 63  2  0
 69 62  1  0
 70 60  1  0
 72 74  2  0
 73 72  1  0
 75 73  1  0
 76 85  2  0
 76 81  1  0
 77 73  1  0
 77 81  1  0
 78 77  1  0
 79 80  1  0
 79 78  1  0
 80 76  1  0
 81 82  2  0
 82 83  1  0
 84 83  2  0
 85 84  1  0
 86 60  1  0
 86 87  1  0
 86 96  1  0
 87 90  1  0
 88 92  1  0
 88 87  1  0
 89 88  2  0
 92 91  1  0
 94 95  1  0
 94 92  1  0
 94 93  1  0
 96 99  1  1
 96 97  1  0
 98 96  1  0
M  ISO  4  14 100  22 100  58 101  59 101
M  END
>  <TORSDO>  (47) 
F 27

>  <SCORE>  (47) 
-10.498

>  <name>  (47) 
47

>  <ligand_id>  (47) 
47

>  <original_smiles>  (47) 
[H]C(C(=O)N([H])C([H])([H])C([H])([H])[N+]([H])([H])C([H])([H])C([H])([H])N([H])C(=O)N1C([H])([H])C([H])([H])C([H])([H])C([H])(n2nc(-c3c([H])c([H])c(Oc4c([H])c([H])c(F)c([H])c4F)c([H])c3[H])c(C(=O)N([H])[H])c2N([H])[H])C1([H])[H])=C([H])C([H])([H])C([H])([H])[N+]([H])([H])C([H])([H])C([H])([H])Oc1c([H])c([H])c2c(c1[H])C([H])([H])N(C(=O)C([H])(N([H])C(=O)C([H])(N([H])C([H])([H])[H])C([H])([H])[H])C(C([H])([H])[H])(C([H])([H])[H])C([H])([H])[H])C([H])(C(=O)N([H])C1([H])c3c([H])c([H])c([H])c([H])c3C([H])([H])C([H])([H])C1([H])[H])C2([H])[H]

>  <smiles>  (47) 
[H]C(C(=O)N([H])C([H])([H])C([H])([H])[N+]([H])([H])C([H])([H])C([H])([H])N([H])C(=O)N1C([H])([H])C([H])([H])C([H])([H])C([H])(n2nc(-c3c([H])c([H])c(Oc4c([H])c([H])c(F)c([H])c4F)c([H])c3[H])c(C(=O)N([H])[H])c2N([H])[H])C1([H])[H])=C([H])C([H])([H])C([H])([H])[N+]([H])([H])C([H])([H])C([H])([H])Oc1c([H])c([H])c2c(c1[H])C([H])([H])N(C(=O)C([H])(N([H])C(=O)C([H])(N([H])C([H])([H])[H])C([H])([H])[H])C(C([H])([H])[H])(C([H])([H])[H])C([H])([H])[H])C([H])(C(=O)N([H])C1([H])c3c([H])c([H])c([H])c([H])c3C([H])([H])C([H])([H])C1([H])[H])C2([H])[H]

$$$$
48:0:0
     RDKit          3D

 94101  0  0  1  0  0  0  0  0999 V2000
  -29.6420  -20.9360   21.3980 C   0  0  0  0  0  2  0  0  0  0  0  0
  -30.6720  -19.9460   21.1280 N   0  0  0  0  0  0  0  0  0  0  0  0
  -31.5750  -20.4220   21.0650 H   0  0  0  0  0  0  0  0  0  0  0  0
  -30.7350  -18.9250   22.1710 C   0  0  0  0  0  2  0  0  0  0  0  0
  -31.8620  -17.9180   21.9090 C   0  0  0  0  0  2  0  0  0  0  0  0
  -31.8940  -16.8860   22.9590 N   0  0  0  0  0  4  0  0  0  0  0  0
  -32.0680  -17.3110   23.8560 H   0  0  0  0  0  0  0  0  0  0  0  0
  -30.9930  -16.4390   22.9960 H   0  0  0  0  0  0  0  0  0  0  0  0
  -32.8850  -15.8220   22.7330 C   0  0  0  0  0  2  0  0  0  0  0  0
  -32.2320  -14.4410   22.8820 C   0  0  0  0  0  2  0  0  0  0  0  0
  -30.8940  -14.1770   20.8090 C   0  0  0  0  0  0  0  0  0  0  0  0
  -30.3960  -12.2840   19.3380 C   0  0  0  0  0  2  0  0  0  0  0  0
  -29.4510  -12.5440   18.1610 C   0  0  0  0  0  2  0  0  0  0  0  0
  -27.9900  -12.3770   18.6060 C   0  0  0  0  0  2  0  0  0  0  0  0
  -27.6620  -13.2040   19.8750 C   0  0  0  0  0  3  0  0  0  0  0  0
  -28.7060  -12.9650   20.9880 C   0  0  0  0  0  2  0  0  0  0  0  0
  -30.0550  -13.1890   20.4400 N   0  0  0  0  0  0  0  0  0  0  0  0
  -31.7480  -14.6780   20.0730 O   0  0  0  0  0  0  0  0  0  0  0  0
  -30.9730  -14.2790   22.1430 N   0  0  0  0  0  0  0  0  0  0  0  0
  -30.2410  -13.7850   22.6350 H   0  0  0  0  0  0  0  0  0  0  0  0
  -25.2580  -13.8170   20.5690 C   0  0  0  0  0  0  0  0  0  0  0  0
  -24.1830  -13.0440   20.9180 C   0  0  0  0  0  0  0  0  0  0  0  0
  -24.6370  -11.6910   20.8720 C   0  0  0  0  0  0  0  0  0  0  0  0
  -26.3030  -12.9340   20.3400 N   0  0  0  0  0  0  0  0  0  0  0  0
  -25.9300  -11.6490   20.5780 N   0  0  0  0  0  0  0  0  0  0  0  0
  -23.9040  -10.4290   21.0390 C   0  0  0  0  0  0  0  0  0  0  0  0
  -24.3590   -9.4210   21.9180 C   0  0  0  0  0  3  0  0  0  0  0  0
  -23.6280   -8.2240   22.0750 C   0  0  0  0  0  3  0  0  0  0  0  0
  -22.4260   -8.0270   21.3540 C   0  0  0  0  0  0  0  0  0  0  0  0
  -21.9890   -9.0250   20.4640 C   0  0  0  0  0  3  0  0  0  0  0  0
  -22.7210  -10.2130   20.3050 C   0  0  0  0  0  3  0  0  0  0  0  0
  -21.6630   -6.8870   21.4240 O   0  0  0  0  0  0  0  0  0  0  0  0
  -21.6850   -6.0730   22.5280 C   0  0  0  0  0  0  0  0  0  0  0  0
  -21.4020   -6.5640   23.8220 C   0  0  0  0  0  3  0  0  0  0  0  0
  -21.3650   -5.6800   24.9180 C   0  0  0  0  0  3  0  0  0  0  0  0
  -21.6040   -4.3050   24.7230 C   0  0  0  0  0  0  0  0  0  0  0  0
  -21.8810   -3.8150   23.4350 C   0  0  0  0  0  3  0  0  0  0  0  0
  -21.9190   -4.6960   22.3410 C   0  0  0  0  0  0  0  0  0  0  0  0
  -22.1660   -4.2140   21.0980 F   0  0  0  0  0  0  0  0  0  0  0  0
  -21.5620   -3.4540   25.7740 F   0  0  0  0  0  0  0  0  0  0  0  0
  -22.7850  -13.5240   21.1850 C   0  0  0  0  0  0  0  0  0  0  0  0
  -22.0490  -12.8230   22.0400 N   0  0  0  0  0  0  0  0  0  0  0  0
  -22.3540  -14.5560   20.6720 O   0  0  0  0  0  0  0  0  0  0  0  0
  -22.4090  -11.9870   22.4770 H   0  0  0  0  0  0  0  0  0  0  0  0
  -21.1110  -13.1270   22.2610 H   0  0  0  0  0  0  0  0  0  0  0  0
  -25.4330  -15.1890   20.4080 N   0  0  0  0  0  0  0  0  0  0  0  0
  -24.6710  -15.8520   20.5120 H   0  0  0  0  0  0  0  0  0  0  0  0
  -26.2970  -15.6230   20.1070 H   0  0  0  0  0  0  0  0  0  0  0  0
  -29.7340  -22.1070   20.4180 C   0  0  0  0  0  2  0  0  0  0  0  0
  -28.9470  -23.2150   20.9310 N   0  0  0  0  0  0  0  0  0  0  0  0
  -29.2550  -23.4240   21.8820 H   0  0  0  0  0  0  0  0  0  0  0  0
  -29.0370  -24.4320   20.1290 C   0  0  0  0  0  2  0  0  0  0  0  0
  -28.3460  -25.5850   20.8610 C   0  0  0  0  0  2  0  0  0  0  0  0
  -28.3980  -26.7620   20.0660 O   0  0  0  0  0  0  0  0  0  0  0  0
  -24.6100  -31.8710   23.2130 C   0  0  0  0  0  0  0  0  0  0  0  0
  -27.2350  -27.4820   20.0830 C   0  0  0  0  0  0  0  0  0  0  0  0
  -23.3960  -30.4940   21.5530 C   0  0  0  0  0  3  0  0  0  0  0  0
  -24.8430  -28.9650   20.1160 C   0  0  0  0  0  0  0  0  0  0  0  0
  -25.9200  -30.8500   21.3590 C   0  0  0  0  0  2  0  0  0  0  0  0
  -26.0000  -29.4880   20.7070 C   0  0  0  0  0  0  0  0  0  0  0  0
  -27.2030  -28.7530   20.6880 C   0  0  0  0  0  3  0  0  0  0  0  0
  -26.0660  -26.9590   19.4930 C   0  0  0  0  0  3  0  0  0  0  0  0
  -24.8670  -27.6960   19.5090 C   0  0  0  0  0  3  0  0  0  0  0  0
  -23.6010  -29.8240   20.1680 C   0  0  0  0  0  2  0  0  0  0  0  0
  -24.6600  -31.0850   22.1010 N   0  0  0  0  0  0  0  0  0  0  0  0
  -23.5310  -32.1440   23.7560 O   0  0  0  0  0  0  0  0  0  0  0  0
  -22.7380  -29.4670   22.5010 C   0  0  0  0  0  0  0  0  0  0  0  0
  -21.4120  -29.3020   22.3750 N   0  0  0  0  0  0  0  0  0  0  0  0
  -23.4170  -28.8220   23.3040 O   0  0  0  0  0  0  0  0  0  0  0  0
  -20.9270  -29.8730   21.6960 H   0  0  0  0  0  0  0  0  0  0  0  0
  -18.0270  -28.1370   22.8500 C   0  0  0  0  0  0  0  0  0  0  0  0
  -20.5850  -28.3650   23.1340 C   0  0  0  0  0  3  0  0  0  0  0  0
  -20.6770  -26.9390   22.5420 C   0  0  0  0  0  2  0  0  0  0  0  0
  -19.5750  -26.6390   21.5210 C   0  0  0  0  0  2  0  0  0  0  0  0
  -18.1920  -26.7920   22.1620 C   0  0  0  0  0  2  0  0  0  0  0  0
  -19.1510  -28.8820   23.2920 C   0  0  0  0  0  0  0  0  0  0  0  0
  -18.9440  -30.1440   23.8920 C   0  0  0  0  0  3  0  0  0  0  0  0
  -17.6440  -30.6580   24.0560 C   0  0  0  0  0  3  0  0  0  0  0  0
  -16.5340  -29.9080   23.6320 C   0  0  0  0  0  3  0  0  0  0  0  0
  -16.7250  -28.6500   23.0340 C   0  0  0  0  0  3  0  0  0  0  0  0
  -25.9020  -32.4840   23.8410 C   0  0  0  0  0  3  0  0  0  0  0  0
  -26.4470  -31.6600   25.0720 C   0  0  1  0  0  0  0  0  0  0  0  0
  -25.3750  -31.3680   26.1480 C   0  0  0  0  0  1  0  0  0  0  0  0
  -27.0280  -30.3050   24.6050 C   0  0  0  0  0  1  0  0  0  0  0  0
  -27.6070  -32.4290   25.7470 C   0  0  0  0  0  1  0  0  0  0  0  0
  -25.5890  -33.8640   24.2350 N   0  0  0  0  0  0  0  0  0  0  0  0
  -25.9030  -34.9490   23.5140 C   0  0  0  0  0  0  0  0  0  0  0  0
  -26.5580  -34.8930   22.4690 O   0  0  0  0  0  0  0  0  0  0  0  0
  -25.0050  -33.9800   25.0510 H   0  0  0  0  0  0  0  0  0  0  0  0
  -24.1490  -36.7320   23.2640 C   0  0  0  0  0  1  0  0  0  0  0  0
  -25.4100  -36.3120   24.0340 C   0  0  0  0  0  3  0  0  0  0  0  0
  -27.5580  -37.1810   24.8460 C   0  0  0  0  0  1  0  0  0  0  0  0
  -26.4290  -37.3800   23.9400 N   0  0  0  0  0  0  0  0  0  0  0  0
  -26.0190  -38.2880   24.1420 H   0  0  0  0  0  0  0  0  0  0  0  0
  2  1  1  0
  2  4  1  0
  3  2  1  0
  5  4  1  0
  5  6  1  0
  6  8  1  0
  6  7  1  0
  9 10  1  0
  9  6  1  0
 11 19  1  0
 12 17  1  0
 13 14  1  0
 13 12  1  0
 15 14  1  0
 15 24  1  0
 15 16  1  0
 17 11  1  0
 17 16  1  0
 18 11  2  0
 19 20  1  0
 19 10  1  0
 21 22  2  0
 22 41  1  0
 23 22  1  0
 23 26  1  0
 24 21  1  0
 24 25  1  0
 25 23  2  0
 26 27  1  0
 27 28  2  0
 29 32  1  0
 29 28  1  0
 30 29  2  0
 31 30  1  0
 31 26  2  0
 32 33  1  0
 33 34  1  0
 34 35  2  0
 36 35  1  0
 36 40  1  0
 37 36  2  0
 38 33  2  0
 38 37  1  0
 39 38  1  0
 41 42  1  0
 42 45  1  0
 42 44  1  0
 43 41  2  0
 46 47  1  0
 46 21  1  0
 48 46  1  0
 49 50  1  0
 49  1  1  0
 50 51  1  0
 52 53  1  0
 52 50  1  0
 54 56  1  0
 54 53  1  0
 55 66  2  0
 56 61  1  0
 57 65  1  0
 57 67  1  0
 58 64  1  0
 58 60  1  0
 59 65  1  0
 60 59  1  0
 61 60  2  0
 62 63  1  0
 62 56  2  0
 63 58  2  0
 64 57  1  0
 65 55  1  0
 67 69  2  0
 68 67  1  0
 70 68  1  0
 71 80  2  0
 71 76  1  0
 72 68  1  0
 72 76  1  0
 73 72  1  0
 74 75  1  0
 74 73  1  0
 75 71  1  0
 76 77  2  0
 77 78  1  0
 79 78  2  0
 80 79  1  0
 81 55  1  0
 81 86  1  0
 81 82  1  0
 82 85  1  1
 82 83  1  0
 84 82  1  0
 86 89  1  0
 87 91  1  0
 87 86  1  0
 88 87  2  0
 91 90  1  0
 93 91  1  0
 93 94  1  0
 93 92  1  0
M  ISO  4  11 100  19 100  53 101  54 101
M  END
>  <TORSDO>  (48) 
F 26

>  <SCORE>  (48) 
-2.703

>  <name>  (48) 
48

>  <ligand_id>  (48) 
48

>  <original_smiles>  (48) 
[H]c1c([H])c([H])c2c(c1[H])C([H])([H])C([H])([H])C([H])([H])C2([H])N([H])C(=O)C1([H])N(C(=O)C([H])(N([H])C(=O)C([H])(N([H])C([H])([H])[H])C([H])([H])[H])C(C([H])([H])[H])(C([H])([H])[H])C([H])([H])[H])C([H])([H])c2c([H])c(OC([H])([H])C([H])([H])N([H])C([H])([H])C([H])([H])N([H])C([H])([H])C([H])([H])[N+]([H])([H])C([H])([H])C([H])([H])N([H])C(=O)N3C([H])([H])C([H])([H])C([H])([H])C([H])(n4nc(-c5c([H])c([H])c(Oc6c([H])c([H])c(F)c([H])c6F)c([H])c5[H])c(C(=O)N([H])[H])c4N([H])[H])C3([H])[H])c([H])c([H])c2C1([H])[H]

>  <smiles>  (48) 
[H]c1c([H])c([H])c2c(c1[H])C([H])([H])C([H])([H])C([H])([H])C2([H])N([H])C(=O)C1([H])N(C(=O)C([H])(N([H])C(=O)C([H])(N([H])C([H])([H])[H])C([H])([H])[H])C(C([H])([H])[H])(C([H])([H])[H])C([H])([H])[H])C([H])([H])c2c([H])c(OC([H])([H])C([H])([H])N([H])C([H])([H])C([H])([H])N([H])C([H])([H])C([H])([H])[N+]([H])([H])C([H])([H])C([H])([H])N([H])C(=O)N3C([H])([H])C([H])([H])C([H])([H])C([H])(n4nc(-c5c([H])c([H])c(Oc6c([H])c([H])c(F)c([H])c6F)c([H])c5[H])c(C(=O)N([H])[H])c4N([H])[H])C3([H])[H])c([H])c([H])c2C1([H])[H]

$$$$
49:0:0
     RDKit          3D

 91 98  0  0  1  0  0  0  0  0999 V2000
  -27.8710  -22.2240   21.6580 C   0  0  0  0  0  2  0  0  0  0  0  0
  -28.8190  -21.1920   22.2950 C   0  0  0  0  0  2  0  0  0  0  0  0
  -30.3380  -19.4930   21.2790 C   0  0  0  0  0  0  0  0  0  0  0  0
  -29.1380  -20.0820   21.3940 N   0  0  0  0  0  0  0  0  0  0  0  0
  -31.3410  -19.9250   21.8490 O   0  0  0  0  0  0  0  0  0  0  0  0
  -28.3680  -19.6770   20.8780 H   0  0  0  0  0  0  0  0  0  0  0  0
  -30.4070  -18.2160   20.4240 C   0  0  0  0  0  2  0  0  0  0  0  0
  -31.6130  -17.2840   20.7270 C   0  0  0  0  0  2  0  0  0  0  0  0
  -31.8280  -14.8830   19.9680 C   0  0  0  0  0  0  0  0  0  0  0  0
  -31.4890  -12.5950   19.0950 C   0  0  0  0  0  2  0  0  0  0  0  0
  -30.5450  -12.6290   17.8770 C   0  0  0  0  0  2  0  0  0  0  0  0
  -29.0650  -12.6110   18.3170 C   0  0  0  0  0  2  0  0  0  0  0  0
  -28.7540  -13.6360   19.4440 C   0  0  0  0  0  3  0  0  0  0  0  0
  -29.7990  -13.5180   20.5740 C   0  0  0  0  0  2  0  0  0  0  0  0
  -31.1360  -13.7150   19.9790 N   0  0  0  0  0  0  0  0  0  0  0  0
  -32.8900  -15.0460   19.3580 O   0  0  0  0  0  0  0  0  0  0  0  0
  -31.2270  -15.8730   20.6410 N   0  0  0  0  0  0  0  0  0  0  0  0
  -30.3790  -15.6060   21.1180 H   0  0  0  0  0  0  0  0  0  0  0  0
  -26.4250  -14.4440   20.1960 C   0  0  0  0  0  0  0  0  0  0  0  0
  -25.3070  -13.7620   20.5970 C   0  0  0  0  0  0  0  0  0  0  0  0
  -25.6570  -12.3770   20.5620 C   0  0  0  0  0  0  0  0  0  0  0  0
  -27.3910  -13.4790   19.9500 N   0  0  0  0  0  0  0  0  0  0  0  0
  -26.9310  -12.2310   20.2240 N   0  0  0  0  0  0  0  0  0  0  0  0
  -24.8370  -11.1780   20.7780 C   0  0  0  0  0  0  0  0  0  0  0  0
  -25.1610  -10.2320   21.7760 C   0  0  0  0  0  3  0  0  0  0  0  0
  -24.3460   -9.0970   21.9770 C   0  0  0  0  0  3  0  0  0  0  0  0
  -23.1930   -8.8990   21.1810 C   0  0  0  0  0  0  0  0  0  0  0  0
  -22.8900   -9.8310   20.1730 C   0  0  0  0  0  3  0  0  0  0  0  0
  -23.7040  -10.9580   19.9700 C   0  0  0  0  0  3  0  0  0  0  0  0
  -22.3590   -7.8120   21.2870 O   0  0  0  0  0  0  0  0  0  0  0  0
  -22.1300   -7.1960   22.4900 C   0  0  0  0  0  0  0  0  0  0  0  0
  -21.6030   -7.8970   23.5970 C   0  0  0  0  0  3  0  0  0  0  0  0
  -21.3160   -7.2100   24.7930 C   0  0  0  0  0  3  0  0  0  0  0  0
  -21.5460   -5.8250   24.8830 C   0  0  0  0  0  0  0  0  0  0  0  0
  -22.0670   -5.1240   23.7810 C   0  0  0  0  0  3  0  0  0  0  0  0
  -22.3550   -5.8080   22.5860 C   0  0  0  0  0  0  0  0  0  0  0  0
  -22.8360   -5.1250   21.5200 F   0  0  0  0  0  0  0  0  0  0  0  0
  -21.2640   -5.1630   26.0300 F   0  0  0  0  0  0  0  0  0  0  0  0
  -23.9610  -14.3510   20.9040 C   0  0  0  0  0  0  0  0  0  0  0  0
  -23.2030  -13.7240   21.8000 N   0  0  0  0  0  0  0  0  0  0  0  0
  -23.5900  -15.4010   20.3810 O   0  0  0  0  0  0  0  0  0  0  0  0
  -23.5090  -12.8660   22.2340 H   0  0  0  0  0  0  0  0  0  0  0  0
  -22.2970  -14.1030   22.0420 H   0  0  0  0  0  0  0  0  0  0  0  0
  -26.6970  -15.7960   20.0070 N   0  0  0  0  0  0  0  0  0  0  0  0
  -25.9940  -16.5170   20.1370 H   0  0  0  0  0  0  0  0  0  0  0  0
  -27.5700  -16.1560   19.6450 H   0  0  0  0  0  0  0  0  0  0  0  0
  -28.5130  -22.8770   20.5670 O   0  0  0  0  0  0  0  0  0  0  0  0
  -27.8270  -24.0530   20.1430 C   0  0  0  0  0  2  0  0  0  0  0  0
  -28.6420  -24.7300   19.0320 C   0  0  0  0  0  2  0  0  0  0  0  0
  -28.0070  -26.0030   18.4410 C   0  0  0  0  0  2  0  0  0  0  0  0
  -27.9060  -27.0500   19.4100 O   0  0  0  0  0  0  0  0  0  0  0  0
  -24.5470  -31.9500   23.2920 C   0  0  0  0  0  0  0  0  0  0  0  0
  -26.7220  -27.7400   19.5830 C   0  0  0  0  0  0  0  0  0  0  0  0
  -23.1290  -30.7100   21.6900 C   0  0  0  0  0  3  0  0  0  0  0  0
  -24.3740  -29.2690   19.9960 C   0  0  0  0  0  0  0  0  0  0  0  0
  -25.6200  -31.0450   21.2340 C   0  0  0  0  0  2  0  0  0  0  0  0
  -25.6010  -29.7270   20.4900 C   0  0  0  0  0  0  0  0  0  0  0  0
  -26.7720  -28.9650   20.2870 C   0  0  0  0  0  3  0  0  0  0  0  0
  -25.4680  -27.2810   19.1140 C   0  0  0  0  0  3  0  0  0  0  0  0
  -24.3030  -28.0450   19.3130 C   0  0  0  0  0  3  0  0  0  0  0  0
  -23.1640  -30.1400   20.2480 C   0  0  0  0  0  2  0  0  0  0  0  0
  -24.4580  -31.2440   22.1300 N   0  0  0  0  0  0  0  0  0  0  0  0
  -23.5400  -32.1960   23.9690 O   0  0  0  0  0  0  0  0  0  0  0  0
  -22.5630  -29.6250   22.6320 C   0  0  0  0  0  0  0  0  0  0  0  0
  -21.2460  -29.3790   22.5360 N   0  0  0  0  0  0  0  0  0  0  0  0
  -23.3010  -29.0100   23.4060 O   0  0  0  0  0  0  0  0  0  0  0  0
  -20.7070  -29.9300   21.8820 H   0  0  0  0  0  0  0  0  0  0  0  0
  -17.9910  -27.8690   22.9400 C   0  0  0  0  0  0  0  0  0  0  0  0
  -20.5000  -28.3770   23.2950 C   0  0  0  0  0  3  0  0  0  0  0  0
  -20.7620  -26.9550   22.7450 C   0  0  0  0  0  2  0  0  0  0  0  0
  -19.7320  -26.5150   21.7000 C   0  0  0  0  0  2  0  0  0  0  0  0
  -18.3210  -26.5340   22.2940 C   0  0  0  0  0  2  0  0  0  0  0  0
  -19.0150  -28.7410   23.3960 C   0  0  0  0  0  0  0  0  0  0  0  0
  -18.6540  -29.9860   23.9550 C   0  0  0  0  0  3  0  0  0  0  0  0
  -17.3020  -30.3610   24.0670 C   0  0  0  0  0  3  0  0  0  0  0  0
  -16.2930  -29.4870   23.6300 C   0  0  0  0  0  3  0  0  0  0  0  0
  -16.6370  -28.2440   23.0700 C   0  0  0  0  0  3  0  0  0  0  0  0
  -25.9130  -32.5020   23.8110 C   0  0  0  0  0  3  0  0  0  0  0  0
  -25.6940  -33.8910   24.2340 N   0  0  0  0  0  0  0  0  0  0  0  0
  -26.0110  -34.9670   23.5010 C   0  0  0  0  0  0  0  0  0  0  0  0
  -26.5910  -34.8910   22.4130 O   0  0  0  0  0  0  0  0  0  0  0  0
  -25.1700  -34.0300   25.0850 H   0  0  0  0  0  0  0  0  0  0  0  0
  -24.3380  -36.8400   23.3750 C   0  0  0  0  0  1  0  0  0  0  0  0
  -25.6210  -36.3480   24.0610 C   0  0  0  0  0  3  0  0  0  0  0  0
  -27.8520  -37.1040   24.7550 C   0  0  0  0  0  1  0  0  0  0  0  0
  -26.6860  -37.3640   23.9140 N   0  0  0  0  0  0  0  0  0  0  0  0
  -26.3330  -38.2910   24.1400 H   0  0  0  0  0  0  0  0  0  0  0  0
  -26.5200  -31.6470   24.9900 C   0  0  1  0  0  0  0  0  0  0  0  0
  -25.5230  -31.3790   26.1400 C   0  0  0  0  0  1  0  0  0  0  0  0
  -27.0130  -30.2780   24.4650 C   0  0  0  0  0  1  0  0  0  0  0  0
  -27.7540  -32.3680   25.5790 C   0  0  0  0  0  1  0  0  0  0  0  0
  1  2  1  0
  3  4  1  0
  3  5  2  0
  4  2  1  0
  6  4  1  0
  7  8  1  0
  7  3  1  0
  9 15  1  0
  9 17  1  0
 10 15  1  0
 11 12  1  0
 11 10  1  0
 13 12  1  0
 13 22  1  0
 13 14  1  0
 15 14  1  0
 16  9  2  0
 17  8  1  0
 17 18  1  0
 19 20  2  0
 20 39  1  0
 21 20  1  0
 21 24  1  0
 22 19  1  0
 22 23  1  0
 23 21  2  0
 24 25  1  0
 25 26  2  0
 27 30  1  0
 27 26  1  0
 28 27  2  0
 29 28  1  0
 29 24  2  0
 30 31  1  0
 31 36  2  0
 31 32  1  0
 32 33  2  0
 33 34  1  0
 34 38  1  0
 35 34  2  0
 36 35  1  0
 37 36  1  0
 39 40  1  0
 40 43  1  0
 40 42  1  0
 41 39  2  0
 44 45  1  0
 44 19  1  0
 46 44  1  0
 47  1  1  0
 48 47  1  0
 49 48  1  0
 50 49  1  0
 50 51  1  0
 51 53  1  0
 52 63  2  0
 53 58  1  0
 54 62  1  0
 54 64  1  0
 55 61  1  0
 55 57  1  0
 56 62  1  0
 57 56  1  0
 58 57  2  0
 59 60  1  0
 59 53  2  0
 60 55  2  0
 61 54  1  0
 62 52  1  0
 64 66  2  0
 65 64  1  0
 67 65  1  0
 68 77  2  0
 68 73  1  0
 69 65  1  0
 69 73  1  0
 70 69  1  0
 71 72  1  0
 71 70  1  0
 72 68  1  0
 73 74  2  0
 74 75  1  0
 76 75  2  0
 77 76  1  0
 78 52  1  0
 78 79  1  0
 78 88  1  0
 79 82  1  0
 80 84  1  0
 80 79  1  0
 81 80  2  0
 84 83  1  0
 86 84  1  0
 86 87  1  0
 86 85  1  0
 88 91  1  1
 88 89  1  0
 90 88  1  0
M  ISO  4   9 100  17 100  50 101  51 101
M  END
>  <TORSDO>  (49) 
F 24

>  <SCORE>  (49) 
-10.286

>  <name>  (49) 
49

>  <ligand_id>  (49) 
49

>  <original_smiles>  (49) 
[H]c1c([H])c([H])c2c(c1[H])C([H])([H])C([H])([H])C([H])([H])C2([H])N([H])C(=O)C1([H])N(C(=O)C([H])(N([H])C(=O)C([H])(N([H])C([H])([H])[H])C([H])([H])[H])C(C([H])([H])[H])(C([H])([H])[H])C([H])([H])[H])C([H])([H])c2c([H])c(OC([H])([H])C([H])([H])C([H])([H])OC([H])([H])C([H])([H])N([H])C(=O)C([H])([H])C([H])([H])N([H])C(=O)N3C([H])([H])C([H])([H])C([H])([H])C([H])(n4nc(-c5c([H])c([H])c(Oc6c([H])c([H])c(F)c([H])c6F)c([H])c5[H])c(C(=O)N([H])[H])c4N([H])[H])C3([H])[H])c([H])c([H])c2C1([H])[H]

>  <smiles>  (49) 
[H]c1c([H])c([H])c2c(c1[H])C([H])([H])C([H])([H])C([H])([H])C2([H])N([H])C(=O)C1([H])N(C(=O)C([H])(N([H])C(=O)C([H])(N([H])C([H])([H])[H])C([H])([H])[H])C(C([H])([H])[H])(C([H])([H])[H])C([H])([H])[H])C([H])([H])c2c([H])c(OC([H])([H])C([H])([H])C([H])([H])OC([H])([H])C([H])([H])N([H])C(=O)C([H])([H])C([H])([H])N([H])C(=O)N3C([H])([H])C([H])([H])C([H])([H])C([H])(n4nc(-c5c([H])c([H])c(Oc6c([H])c([H])c(F)c([H])c6F)c([H])c5[H])c(C(=O)N([H])[H])c4N([H])[H])C3([H])[H])c([H])c([H])c2C1([H])[H]

$$$$
50:0:0
     RDKit          3D

 95103  0  0  1  0  0  0  0  0999 V2000
  -25.8130  -22.2550   19.9590 N   0  0  0  0  0  4  0  0  0  0  0  0
  -25.1790  -22.7440   20.5720 H   0  0  0  0  0  0  0  0  0  0  0  0
  -25.6910  -22.6380   19.0370 H   0  0  0  0  0  0  0  0  0  0  0  0
  -25.4230  -20.8240   19.9130 C   0  0  0  0  0  2  0  0  0  0  0  0
  -27.3530  -19.2000   19.8930 C   0  0  0  0  0  3  0  0  0  0  0  0
  -26.5120  -20.0160   19.2330 C   0  0  0  0  0  3  0  0  0  0  0  0
  -30.1130  -18.1360   17.5000 C   0  0  0  0  0  3  0  0  0  0  0  0
  -28.9070  -18.6800   17.9710 C   0  0  0  0  0  3  0  0  0  0  0  0
  -30.9600  -17.4390   18.3790 C   0  0  0  0  0  3  0  0  0  0  0  0
  -29.3780  -17.8080   20.1980 C   0  0  0  0  0  3  0  0  0  0  0  0
  -28.5420  -18.5430   19.3310 C   0  0  0  0  0  0  0  0  0  0  0  0
  -30.5840  -17.2470   19.7330 C   0  0  0  0  0  0  0  0  0  0  0  0
  -32.0650  -15.4240   20.3630 C   0  0  0  0  0  0  0  0  0  0  0  0
  -31.7230  -13.1670   19.4360 C   0  0  0  0  0  2  0  0  0  0  0  0
  -30.8730  -13.2210   18.1540 C   0  0  0  0  0  2  0  0  0  0  0  0
  -29.3700  -13.1810   18.4930 C   0  0  0  0  0  2  0  0  0  0  0  0
  -28.9720  -14.1990   19.5950 C   0  0  0  0  0  3  0  0  0  0  0  0
  -29.9450  -14.1260   20.7940 C   0  0  0  0  0  2  0  0  0  0  0  0
  -31.3140  -14.2940   20.2790 N   0  0  0  0  0  0  0  0  0  0  0  0
  -33.2430  -15.4910   20.0080 O   0  0  0  0  0  0  0  0  0  0  0  0
  -31.4080  -16.5530   20.6590 N   0  0  0  0  0  0  0  0  0  0  0  0
  -31.9530  -17.1810   21.2320 H   0  0  0  0  0  0  0  0  0  0  0  0
  -26.5920  -14.9970   20.1650 C   0  0  0  0  0  0  0  0  0  0  0  0
  -25.4530  -14.3100   20.4830 C   0  0  0  0  0  0  0  0  0  0  0  0
  -25.8180  -12.9310   20.5020 C   0  0  0  0  0  0  0  0  0  0  0  0
  -27.5820  -14.0370   20.0070 N   0  0  0  0  0  0  0  0  0  0  0  0
  -27.1160  -12.7910   20.2700 N   0  0  0  0  0  0  0  0  0  0  0  0
  -24.9980  -11.7270   20.6700 C   0  0  0  0  0  0  0  0  0  0  0  0
  -25.3140  -10.7510   21.6390 C   0  0  0  0  0  3  0  0  0  0  0  0
  -24.5020   -9.6080   21.7950 C   0  0  0  0  0  3  0  0  0  0  0  0
  -23.3580   -9.4350   20.9790 C   0  0  0  0  0  0  0  0  0  0  0  0
  -23.0610  -10.3990   19.9990 C   0  0  0  0  0  3  0  0  0  0  0  0
  -23.8740  -11.5330   19.8420 C   0  0  0  0  0  3  0  0  0  0  0  0
  -22.5240   -8.3440   21.0430 O   0  0  0  0  0  0  0  0  0  0  0  0
  -22.3000   -7.6770   22.2190 C   0  0  0  0  0  0  0  0  0  0  0  0
  -21.7770   -8.3290   23.3580 C   0  0  0  0  0  3  0  0  0  0  0  0
  -21.4950   -7.5900   24.5240 C   0  0  0  0  0  3  0  0  0  0  0  0
  -21.7250   -6.2020   24.5520 C   0  0  0  0  0  0  0  0  0  0  0  0
  -22.2410   -5.5500   23.4180 C   0  0  0  0  0  3  0  0  0  0  0  0
  -22.5240   -6.2860   22.2540 C   0  0  0  0  0  0  0  0  0  0  0  0
  -22.9980   -5.6490   21.1560 F   0  0  0  0  0  0  0  0  0  0  0  0
  -21.4460   -5.4910   25.6700 F   0  0  0  0  0  0  0  0  0  0  0  0
  -24.0790  -14.8900   20.6620 C   0  0  0  0  0  0  0  0  0  0  0  0
  -23.2620  -14.2760   21.5090 N   0  0  0  0  0  0  0  0  0  0  0  0
  -23.7390  -15.9230   20.0850 O   0  0  0  0  0  0  0  0  0  0  0  0
  -23.5490  -13.4450   22.0020 H   0  0  0  0  0  0  0  0  0  0  0  0
  -22.3350  -14.6440   21.6690 H   0  0  0  0  0  0  0  0  0  0  0  0
  -26.8600  -16.3480   19.9760 N   0  0  0  0  0  0  0  0  0  0  0  0
  -27.7660  -16.7320   19.7360 H   0  0  0  0  0  0  0  0  0  0  0  0
  -26.1440  -17.0580   20.0730 H   0  0  0  0  0  0  0  0  0  0  0  0
  -27.2010  -22.5070   20.4170 C   0  0  0  0  0  2  0  0  0  0  0  0
  -27.8460  -23.6760   19.7010 C   0  0  0  0  0  3  0  0  0  0  0  0
  -28.6080  -24.6010   20.3090 C   0  0  0  0  0  3  0  0  0  0  0  0
  -29.3200  -25.7280   19.5900 C   0  0  0  0  0  2  0  0  0  0  0  0
  -29.1710  -26.9620   20.2770 O   0  0  0  0  0  0  0  0  0  0  0  0
  -25.1220  -31.6620   23.6890 C   0  0  0  0  0  0  0  0  0  0  0  0
  -27.9510  -27.6000   20.2850 C   0  0  0  0  0  0  0  0  0  0  0  0
  -24.0050  -30.4370   21.8520 C   0  0  0  0  0  3  0  0  0  0  0  0
  -25.5330  -29.0590   20.3490 C   0  0  0  0  0  0  0  0  0  0  0  0
  -26.5310  -30.8250   21.8150 C   0  0  0  0  0  2  0  0  0  0  0  0
  -26.6530  -29.5300   21.0440 C   0  0  0  0  0  0  0  0  0  0  0  0
  -27.8610  -28.8040   21.0130 C   0  0  0  0  0  3  0  0  0  0  0  0
  -26.8060  -27.1280   19.6000 C   0  0  0  0  0  3  0  0  0  0  0  0
  -25.6010  -27.8540   19.6310 C   0  0  0  0  0  3  0  0  0  0  0  0
  -24.2820  -29.9030   20.4210 C   0  0  0  0  0  2  0  0  0  0  0  0
  -25.2340  -30.9840   22.5130 N   0  0  0  0  0  0  0  0  0  0  0  0
  -24.0160  -31.8740   24.2030 O   0  0  0  0  0  0  0  0  0  0  0  0
  -23.3180  -29.3200   22.6710 C   0  0  0  0  0  0  0  0  0  0  0  0
  -22.0180  -29.1030   22.4110 N   0  0  0  0  0  0  0  0  0  0  0  0
  -23.9550  -28.6510   23.4890 O   0  0  0  0  0  0  0  0  0  0  0  0
  -21.5670  -29.7000   21.7310 H   0  0  0  0  0  0  0  0  0  0  0  0
  -18.6740  -27.7400   22.4800 C   0  0  0  0  0  0  0  0  0  0  0  0
  -21.1760  -28.0810   23.0310 C   0  0  0  0  0  3  0  0  0  0  0  0
  -21.4050  -26.7000   22.3730 C   0  0  0  0  0  2  0  0  0  0  0  0
  -20.4260  -26.4060   21.2310 C   0  0  0  0  0  2  0  0  0  0  0  0
  -18.9830  -26.4490   21.7390 C   0  0  0  0  0  2  0  0  0  0  0  0
  -19.7070  -28.5140   23.0720 C   0  0  0  0  0  0  0  0  0  0  0  0
  -19.3710  -29.7230   23.7190 C   0  0  0  0  0  3  0  0  0  0  0  0
  -18.0350  -30.1600   23.7800 C   0  0  0  0  0  3  0  0  0  0  0  0
  -17.0140  -29.3820   23.2050 C   0  0  0  0  0  3  0  0  0  0  0  0
  -17.3340  -28.1730   22.5630 C   0  0  0  0  0  3  0  0  0  0  0  0
  -26.3760  -32.2260   24.4310 C   0  0  0  0  0  3  0  0  0  0  0  0
  -26.0770  -33.6130   24.8110 N   0  0  0  0  0  0  0  0  0  0  0  0
  -26.4720  -34.6910   24.1210 C   0  0  0  0  0  0  0  0  0  0  0  0
  -27.1980  -34.6210   23.1260 O   0  0  0  0  0  0  0  0  0  0  0  0
  -25.4420  -33.7430   25.5840 H   0  0  0  0  0  0  0  0  0  0  0  0
  -24.7900  -36.5250   23.7620 C   0  0  0  0  0  1  0  0  0  0  0  0
  -25.9840  -36.0670   24.6130 C   0  0  0  0  0  3  0  0  0  0  0  0
  -28.0890  -36.8830   25.5800 C   0  0  0  0  0  1  0  0  0  0  0  0
  -27.0380  -37.1060   24.5920 N   0  0  0  0  0  0  0  0  0  0  0  0
  -26.6390  -38.0270   24.7540 H   0  0  0  0  0  0  0  0  0  0  0  0
  -26.7850  -31.3760   25.6970 C   0  0  1  0  0  0  0  0  0  0  0  0
  -25.6060  -31.0710   26.6490 C   0  0  0  0  0  1  0  0  0  0  0  0
  -27.4090  -30.0270   25.2690 C   0  0  0  0  0  1  0  0  0  0  0  0
  -27.8690  -32.1280   26.5050 C   0  0  0  0  0  1  0  0  0  0  0  0
  1 51  1  0
  1  2  1  0
  3  1  1  0
  4  1  1  0
  6  5  2  0
  6  4  1  0
  7  8  2  0
  7  9  1  0
  8 11  1  0
  9 12  2  0
 11  5  1  0
 11 10  2  0
 12 10  1  0
 12 21  1  0
 13 21  1  0
 14 19  1  0
 15 16  1  0
 15 14  1  0
 17 16  1  0
 17 26  1  0
 17 18  1  0
 19 13  1  0
 19 18  1  0
 20 13  2  0
 21 22  1  0
 23 24  2  0
 24 25  1  0
 24 43  1  0
 25 28  1  0
 26 23  1  0
 26 27  1  0
 27 25  2  0
 28 29  1  0
 29 30  2  0
 31 34  1  0
 31 30  1  0
 32 31  2  0
 33 32  1  0
 33 28  2  0
 34 35  1  0
 35 40  2  0
 35 36  1  0
 36 37  2  0
 37 38  1  0
 38 42  1  0
 39 38  2  0
 40 39  1  0
 41 40  1  0
 43 44  1  0
 44 47  1  0
 44 46  1  0
 45 43  2  0
 48 50  1  0
 48 23  1  0
 49 48  1  0
 52 53  2  0
 52 51  1  0
 54 55  1  0
 54 53  1  0
 55 57  1  0
 56 67  2  0
 57 62  1  0
 58 66  1  0
 58 68  1  0
 59 65  1  0
 59 61  1  0
 60 66  1  0
 61 60  1  0
 62 61  2  0
 63 64  1  0
 63 57  2  0
 64 59  2  0
 65 58  1  0
 66 56  1  0
 68 70  2  0
 69 68  1  0
 71 69  1  0
 72 81  2  0
 72 77  1  0
 73 69  1  0
 73 77  1  0
 74 73  1  0
 75 76  1  0
 75 74  1  0
 76 72  1  0
 77 78  2  0
 78 79  1  0
 80 79  2  0
 81 80  1  0
 82 56  1  0
 82 83  1  0
 82 92  1  0
 83 86  1  0
 84 88  1  0
 84 83  1  0
 85 84  2  0
 88 87  1  0
 90 88  1  0
 90 91  1  0
 90 89  1  0
 92 95  1  1
 92 93  1  0
 94 92  1  0
M  ISO  4  13 100  21 100  54 101  55 101
M  END
>  <TORSDO>  (50) 
F 22

>  <SCORE>  (50) 
-7.319

>  <name>  (50) 
50

>  <ligand_id>  (50) 
50

>  <original_smiles>  (50) 
[H]C(=C([H])C([H])([H])[N+]([H])([H])C([H])([H])C([H])=C([H])C([H])([H])Oc1c([H])c([H])c2c(c1[H])C([H])([H])N(C(=O)C([H])(N([H])C(=O)C([H])(N([H])C([H])([H])[H])C([H])([H])[H])C(C([H])([H])[H])(C([H])([H])[H])C([H])([H])[H])C([H])(C(=O)N([H])C1([H])c3c([H])c([H])c([H])c([H])c3C([H])([H])C([H])([H])C1([H])[H])C2([H])[H])c1c([H])c([H])c([H])c(N([H])C(=O)N2C([H])([H])C([H])([H])C([H])([H])C([H])(n3nc(-c4c([H])c([H])c(Oc5c([H])c([H])c(F)c([H])c5F)c([H])c4[H])c(C(=O)N([H])[H])c3N([H])[H])C2([H])[H])c1[H]

>  <smiles>  (50) 
[H]C(=C([H])C([H])([H])[N+]([H])([H])C([H])([H])C([H])=C([H])C([H])([H])Oc1c([H])c([H])c2c(c1[H])C([H])([H])N(C(=O)C([H])(N([H])C(=O)C([H])(N([H])C([H])([H])[H])C([H])([H])[H])C(C([H])([H])[H])(C([H])([H])[H])C([H])([H])[H])C([H])(C(=O)N([H])C1([H])c3c([H])c([H])c([H])c([H])c3C([H])([H])C([H])([H])C1([H])[H])C2([H])[H])c1c([H])c([H])c([H])c(N([H])C(=O)N2C([H])([H])C([H])([H])C([H])([H])C([H])(n3nc(-c4c([H])c([H])c(Oc5c([H])c([H])c(F)c([H])c5F)c([H])c4[H])c(C(=O)N([H])[H])c3N([H])[H])C2([H])[H])c1[H]

$$$$
51:0:0
     RDKit          3D

102109  0  0  1  0  0  0  0  0999 V2000
  -31.5750  -21.9180   17.7190 C   0  0  0  0  0  2  0  0  0  0  0  0
  -32.7360  -21.9320   18.6370 N   0  0  0  0  0  4  0  0  0  0  0  0
  -33.0000  -20.9980   18.9010 H   0  0  0  0  0  0  0  0  0  0  0  0
  -33.5020  -22.2740   18.0770 H   0  0  0  0  0  0  0  0  0  0  0  0
  -32.6490  -22.8740   19.7860 C   0  0  0  0  0  2  0  0  0  0  0  0
  -31.7600  -22.3950   20.9520 C   0  0  0  0  0  2  0  0  0  0  0  0
  -32.4440  -21.4400   21.9580 C   0  0  0  0  0  2  0  0  0  0  0  0
  -31.5120  -20.4270   22.5120 N   0  0  0  0  0  4  0  0  0  0  0  0
  -31.8580  -20.1280   23.4140 H   0  0  0  0  0  0  0  0  0  0  0  0
  -30.6120  -20.8480   22.6740 H   0  0  0  0  0  0  0  0  0  0  0  0
  -31.3940  -19.2230   21.6600 C   0  0  0  0  0  2  0  0  0  0  0  0
  -30.1250  -18.3980   21.9220 C   0  0  0  0  0  2  0  0  0  0  0  0
  -30.0890  -17.0860   21.1160 C   0  0  0  0  0  2  0  0  0  0  0  0
  -31.0990  -16.0370   21.6170 C   0  0  0  0  0  2  0  0  0  0  0  0
  -31.0630  -13.9540   20.2240 C   0  0  0  0  0  0  0  0  0  0  0  0
  -30.5600  -11.9100   18.9270 C   0  0  0  0  0  2  0  0  0  0  0  0
  -29.5940  -12.2210   17.7670 C   0  0  0  0  0  2  0  0  0  0  0  0
  -28.1240  -12.1890   18.2300 C   0  0  0  0  0  2  0  0  0  0  0  0
  -27.8960  -13.0170   19.5220 C   0  0  0  0  0  3  0  0  0  0  0  0
  -28.9480  -12.6400   20.5880 C   0  0  0  0  0  2  0  0  0  0  0  0
  -30.2910  -12.8590   20.0150 N   0  0  0  0  0  0  0  0  0  0  0  0
  -32.0660  -14.2320   19.5570 O   0  0  0  0  0  0  0  0  0  0  0  0
  -30.6470  -14.7070   21.2430 N   0  0  0  0  0  0  0  0  0  0  0  0
  -29.8480  -14.3480   21.7470 H   0  0  0  0  0  0  0  0  0  0  0  0
  -25.5500  -13.8000   20.2570 C   0  0  0  0  0  0  0  0  0  0  0  0
  -24.4450  -13.1070   20.6720 C   0  0  0  0  0  0  0  0  0  0  0  0
  -24.8170  -11.7280   20.6630 C   0  0  0  0  0  0  0  0  0  0  0  0
  -26.5330  -12.8480   20.0290 N   0  0  0  0  0  0  0  0  0  0  0  0
  -26.0930  -11.5980   20.3270 N   0  0  0  0  0  0  0  0  0  0  0  0
  -24.0160  -10.5180   20.8990 C   0  0  0  0  0  0  0  0  0  0  0  0
  -24.4120   -9.5420   21.8390 C   0  0  0  0  0  3  0  0  0  0  0  0
  -23.6180   -8.3970   22.0600 C   0  0  0  0  0  3  0  0  0  0  0  0
  -22.4120   -8.2210   21.3430 C   0  0  0  0  0  0  0  0  0  0  0  0
  -22.0320   -9.1840   20.3920 C   0  0  0  0  0  3  0  0  0  0  0  0
  -22.8280  -10.3200   20.1670 C   0  0  0  0  0  3  0  0  0  0  0  0
  -21.5890   -7.1270   21.4750 O   0  0  0  0  0  0  0  0  0  0  0  0
  -21.5310   -6.4080   22.6410 C   0  0  0  0  0  0  0  0  0  0  0  0
  -21.2050   -7.0100   23.8770 C   0  0  0  0  0  3  0  0  0  0  0  0
  -21.0870   -6.2200   25.0370 C   0  0  0  0  0  3  0  0  0  0  0  0
  -21.2880   -4.8280   24.9650 C   0  0  0  0  0  0  0  0  0  0  0  0
  -21.6080   -4.2250   23.7360 C   0  0  0  0  0  3  0  0  0  0  0  0
  -21.7270   -5.0130   22.5770 C   0  0  0  0  0  0  0  0  0  0  0  0
  -22.0130   -4.4250   21.3900 F   0  0  0  0  0  0  0  0  0  0  0  0
  -21.1710   -4.0640   26.0760 F   0  0  0  0  0  0  0  0  0  0  0  0
  -23.0850  -13.6770   20.9680 C   0  0  0  0  0  0  0  0  0  0  0  0
  -22.3410  -13.0510   21.8720 N   0  0  0  0  0  0  0  0  0  0  0  0
  -22.6940  -14.7110   20.4290 O   0  0  0  0  0  0  0  0  0  0  0  0
  -22.6720  -12.2140   22.3300 H   0  0  0  0  0  0  0  0  0  0  0  0
  -21.4280  -13.4100   22.1150 H   0  0  0  0  0  0  0  0  0  0  0  0
  -25.8010  -15.1530   20.0410 N   0  0  0  0  0  0  0  0  0  0  0  0
  -25.0780  -15.8580   20.1300 H   0  0  0  0  0  0  0  0  0  0  0  0
  -26.6760  -15.5220   19.6890 H   0  0  0  0  0  0  0  0  0  0  0  0
  -30.6110  -20.7330   17.9550 C   0  0  0  0  0  2  0  0  0  0  0  0
  -29.3150  -20.9770   17.3130 N   0  0  0  0  0  0  0  0  0  0  0  0
  -29.1970  -20.3120   16.5470 H   0  0  0  0  0  0  0  0  0  0  0  0
  -28.1170  -20.9080   18.1680 C   0  0  0  0  0  2  0  0  0  0  0  0
  -28.1260  -21.8950   19.3550 C   0  0  0  0  0  2  0  0  0  0  0  0
  -28.5180  -23.2360   18.9170 N   0  0  0  0  0  0  0  0  0  0  0  0
  -28.0020  -23.4630   18.0670 H   0  0  0  0  0  0  0  0  0  0  0  0
  -28.3450  -24.2950   19.9130 C   0  0  0  0  0  2  0  0  0  0  0  0
  -28.7370  -25.6620   19.3170 C   0  0  0  0  0  2  0  0  0  0  0  0
  -28.5220  -26.7430   20.2230 O   0  0  0  0  0  0  0  0  0  0  0  0
  -24.6260  -31.8560   23.2460 C   0  0  0  0  0  0  0  0  0  0  0  0
  -27.3120  -27.4020   20.2220 C   0  0  0  0  0  0  0  0  0  0  0  0
  -23.4370  -30.4320   21.6100 C   0  0  0  0  0  3  0  0  0  0  0  0
  -24.9000  -28.8800   20.2190 C   0  0  0  0  0  0  0  0  0  0  0  0
  -25.9620  -30.7980   21.4270 C   0  0  0  0  0  2  0  0  0  0  0  0
  -26.0520  -29.4180   20.8080 C   0  0  0  0  0  0  0  0  0  0  0  0
  -27.2520  -28.6820   20.8170 C   0  0  0  0  0  3  0  0  0  0  0  0
  -26.1350  -26.8640   19.6490 C   0  0  0  0  0  3  0  0  0  0  0  0
  -24.9350  -27.5950   19.6510 C   0  0  0  0  0  3  0  0  0  0  0  0
  -23.6560  -29.7370   20.2390 C   0  0  0  0  0  2  0  0  0  0  0  0
  -24.6930  -31.0460   22.1510 N   0  0  0  0  0  0  0  0  0  0  0  0
  -23.5390  -32.1310   23.7720 O   0  0  0  0  0  0  0  0  0  0  0  0
  -22.7790  -29.4200   22.5750 C   0  0  0  0  0  0  0  0  0  0  0  0
  -21.4580  -29.2290   22.4370 N   0  0  0  0  0  0  0  0  0  0  0  0
  -23.4580  -28.8080   23.4070 O   0  0  0  0  0  0  0  0  0  0  0  0
  -20.9720  -29.7840   21.7450 H   0  0  0  0  0  0  0  0  0  0  0  0
  -18.0860  -28.0030   22.8880 C   0  0  0  0  0  0  0  0  0  0  0  0
  -20.6350  -28.2940   23.2050 C   0  0  0  0  0  3  0  0  0  0  0  0
  -20.7640  -26.8530   22.6560 C   0  0  0  0  0  2  0  0  0  0  0  0
  -19.6850  -26.5010   21.6270 C   0  0  0  0  0  2  0  0  0  0  0  0
  -18.2900  -26.6430   22.2410 C   0  0  0  0  0  2  0  0  0  0  0  0
  -19.1880  -28.7850   23.3260 C   0  0  0  0  0  0  0  0  0  0  0  0
  -18.9440  -30.0580   23.8840 C   0  0  0  0  0  3  0  0  0  0  0  0
  -17.6310  -30.5470   24.0130 C   0  0  0  0  0  3  0  0  0  0  0  0
  -16.5430  -29.7620   23.5900 C   0  0  0  0  0  3  0  0  0  0  0  0
  -16.7720  -28.4920   23.0340 C   0  0  0  0  0  3  0  0  0  0  0  0
  -25.9060  -32.4940   23.8730 C   0  0  0  0  0  3  0  0  0  0  0  0
  -25.5870  -33.8900   24.1980 N   0  0  0  0  0  0  0  0  0  0  0  0
  -25.9170  -34.9430   23.4370 C   0  0  0  0  0  0  0  0  0  0  0  0
  -26.5920  -34.8410   22.4080 O   0  0  0  0  0  0  0  0  0  0  0  0
  -24.9860  -34.0400   24.9950 H   0  0  0  0  0  0  0  0  0  0  0  0
  -24.1790  -36.7270   23.0710 C   0  0  0  0  0  1  0  0  0  0  0  0
  -25.4200  -36.3300   23.8870 C   0  0  0  0  0  3  0  0  0  0  0  0
  -27.5500  -37.2300   24.7160 C   0  0  0  0  0  1  0  0  0  0  0  0
  -26.4460  -37.3890   23.7720 N   0  0  0  0  0  0  0  0  0  0  0  0
  -26.0360  -38.3080   23.9150 H   0  0  0  0  0  0  0  0  0  0  0  0
  -26.4250  -31.7270   25.1500 C   0  0  1  0  0  0  0  0  0  0  0  0
  -25.3340  -31.4850   26.2200 C   0  0  0  0  0  1  0  0  0  0  0  0
  -27.0150  -30.3520   24.7570 C   0  0  0  0  0  1  0  0  0  0  0  0
  -27.5700  -32.5290   25.8110 C   0  0  0  0  0  1  0  0  0  0  0  0
  1 53  1  0
  1  2  1  0
  2  3  1  0
  2  5  1  0
  4  2  1  0
  5  6  1  0
  6  7  1  0
  7  8  1  0
  8 10  1  0
  8  9  1  0
 11 12  1  0
 11  8  1  0
 13 14  1  0
 13 12  1  0
 15 23  1  0
 16 21  1  0
 17 18  1  0
 17 16  1  0
 19 18  1  0
 19 28  1  0
 19 20  1  0
 21 15  1  0
 21 20  1  0
 22 15  2  0
 23 14  1  0
 23 24  1  0
 25 26  2  0
 26 45  1  0
 27 26  1  0
 27 30  1  0
 28 25  1  0
 28 29  1  0
 29 27  2  0
 30 31  1  0
 31 32  2  0
 33 36  1  0
 33 32  1  0
 34 33  2  0
 35 34  1  0
 35 30  2  0
 36 37  1  0
 37 38  1  0
 38 39  2  0
 40 39  1  0
 40 44  1  0
 41 40  2  0
 42 37  2  0
 42 41  1  0
 43 42  1  0
 45 46  1  0
 46 49  1  0
 46 48  1  0
 47 45  2  0
 50 51  1  0
 50 25  1  0
 52 50  1  0
 54 53  1  0
 54 56  1  0
 55 54  1  0
 56 57  1  0
 58 57  1  0
 58 60  1  0
 59 58  1  0
 61 60  1  0
 61 62  1  0
 63 74  2  0
 64 62  1  0
 64 69  1  0
 65 73  1  0
 65 75  1  0
 66 72  1  0
 66 68  1  0
 67 73  1  0
 68 69  2  0
 68 67  1  0
 70 71  1  0
 70 64  2  0
 71 66  2  0
 72 65  1  0
 73 63  1  0
 75 77  2  0
 76 75  1  0
 78 76  1  0
 79 88  2  0
 79 84  1  0
 80 76  1  0
 80 84  1  0
 81 80  1  0
 82 83  1  0
 82 81  1  0
 83 79  1  0
 84 85  2  0
 85 86  1  0
 87 86  2  0
 88 87  1  0
 89 63  1  0
 89 90  1  0
 89 99  1  0
 90 93  1  0
 91 95  1  0
 91 90  1  0
 92 91  2  0
 95 94  1  0
 97 95  1  0
 97 98  1  0
 97 96  1  0
 99102  1  1
 99100  1  0
101 99  1  0
M  ISO  4  15 100  23 100  61 101  62 101
M  END
>  <TORSDO>  (51) 
F 32

>  <SCORE>  (51) 
-10.115

>  <name>  (51) 
51

>  <ligand_id>  (51) 
51

>  <original_smiles>  (51) 
[H]c1c([H])c([H])c2c(c1[H])C([H])([H])C([H])([H])C([H])([H])C2([H])N([H])C(=O)C1([H])N(C(=O)C([H])(N([H])C(=O)C([H])(N([H])C([H])([H])[H])C([H])([H])[H])C(C([H])([H])[H])(C([H])([H])[H])C([H])([H])[H])C([H])([H])c2c([H])c(OC([H])([H])C([H])([H])N([H])C([H])([H])C([H])([H])N([H])C([H])([H])C([H])([H])[N+]([H])([H])C([H])([H])C([H])([H])C([H])([H])[N+]([H])([H])C([H])([H])C([H])([H])C([H])([H])C([H])([H])N([H])C(=O)N3C([H])([H])C([H])([H])C([H])([H])C([H])(n4nc(-c5c([H])c([H])c(Oc6c([H])c([H])c(F)c([H])c6F)c([H])c5[H])c(C(=O)N([H])[H])c4N([H])[H])C3([H])[H])c([H])c([H])c2C1([H])[H]

>  <smiles>  (51) 
[H]c1c([H])c([H])c2c(c1[H])C([H])([H])C([H])([H])C([H])([H])C2([H])N([H])C(=O)C1([H])N(C(=O)C([H])(N([H])C(=O)C([H])(N([H])C([H])([H])[H])C([H])([H])[H])C(C([H])([H])[H])(C([H])([H])[H])C([H])([H])[H])C([H])([H])c2c([H])c(OC([H])([H])C([H])([H])N([H])C([H])([H])C([H])([H])N([H])C([H])([H])C([H])([H])[N+]([H])([H])C([H])([H])C([H])([H])C([H])([H])[N+]([H])([H])C([H])([H])C([H])([H])C([H])([H])C([H])([H])N([H])C(=O)N3C([H])([H])C([H])([H])C([H])([H])C([H])(n4nc(-c5c([H])c([H])c(Oc6c([H])c([H])c(F)c([H])c6F)c([H])c5[H])c(C(=O)N([H])[H])c4N([H])[H])C3([H])[H])c([H])c([H])c2C1([H])[H]

$$$$
52:0:0
     RDKit          3D

100107  0  0  1  0  0  0  0  0999 V2000
  -25.0380  -21.3030   17.6740 C   0  0  0  0  0  2  0  0  0  0  0  0
  -25.1930  -21.9520   19.0750 C   0  0  0  0  0  2  0  0  0  0  0  0
  -26.6410  -22.4080   19.3290 C   0  0  0  0  0  2  0  0  0  0  0  0
  -26.9620  -22.7520   20.8060 C   0  0  0  0  0  2  0  0  0  0  0  0
  -28.1900  -23.5680   20.9690 N   0  0  0  0  0  4  0  0  0  0  0  0
  -29.0020  -23.0300   20.7070 H   0  0  0  0  0  0  0  0  0  0  0  0
  -28.2820  -23.7840   21.9530 H   0  0  0  0  0  0  0  0  0  0  0  0
  -28.1330  -24.8220   20.1880 C   0  0  0  0  0  2  0  0  0  0  0  0
  -28.7700  -26.0510   20.8370 C   0  0  0  0  0  2  0  0  0  0  0  0
  -28.6360  -27.1490   19.9330 O   0  0  0  0  0  0  0  0  0  0  0  0
  -24.6940  -31.9320   23.3960 C   0  0  0  0  0  0  0  0  0  0  0  0
  -27.4420  -27.8260   19.9940 C   0  0  0  0  0  0  0  0  0  0  0  0
  -23.5230  -30.6640   21.6230 C   0  0  0  0  0  3  0  0  0  0  0  0
  -25.0140  -29.2650   20.0990 C   0  0  0  0  0  0  0  0  0  0  0  0
  -26.0450  -31.0630   21.4980 C   0  0  0  0  0  2  0  0  0  0  0  0
  -26.1510  -29.7510   20.7570 C   0  0  0  0  0  0  0  0  0  0  0  0
  -27.3640  -29.0320   20.7180 C   0  0  0  0  0  3  0  0  0  0  0  0
  -26.3010  -27.3750   19.2910 C   0  0  0  0  0  3  0  0  0  0  0  0
  -25.0810  -28.0670   19.3690 C   0  0  0  0  0  3  0  0  0  0  0  0
  -23.7570  -30.1010   20.1960 C   0  0  0  0  0  2  0  0  0  0  0  0
  -24.7720  -31.2300   22.2330 N   0  0  0  0  0  0  0  0  0  0  0  0
  -23.6040  -32.1530   23.9390 O   0  0  0  0  0  0  0  0  0  0  0  0
  -22.8710  -29.5600   22.4840 C   0  0  0  0  0  0  0  0  0  0  0  0
  -21.5540  -29.3690   22.3090 N   0  0  0  0  0  0  0  0  0  0  0  0
  -23.5450  -28.8850   23.2680 O   0  0  0  0  0  0  0  0  0  0  0  0
  -21.0700  -29.9730   21.6580 H   0  0  0  0  0  0  0  0  0  0  0  0
  -18.1990  -28.0510   22.5820 C   0  0  0  0  0  0  0  0  0  0  0  0
  -20.7350  -28.3600   22.9810 C   0  0  0  0  0  3  0  0  0  0  0  0
  -20.9040  -26.9720   22.3210 C   0  0  0  0  0  2  0  0  0  0  0  0
  -19.8530  -26.6860   21.2420 C   0  0  0  0  0  2  0  0  0  0  0  0
  -18.4420  -26.7530   21.8320 C   0  0  0  0  0  2  0  0  0  0  0  0
  -19.2760  -28.8140   23.1080 C   0  0  0  0  0  0  0  0  0  0  0  0
  -18.9970  -30.0340   23.7620 C   0  0  0  0  0  3  0  0  0  0  0  0
  -17.6720  -30.4910   23.8960 C   0  0  0  0  0  3  0  0  0  0  0  0
  -16.6090  -29.7240   23.3870 C   0  0  0  0  0  3  0  0  0  0  0  0
  -16.8740  -28.5050   22.7390 C   0  0  0  0  0  3  0  0  0  0  0  0
  -25.9710  -32.5160   24.0830 C   0  0  0  0  0  3  0  0  0  0  0  0
  -25.6560  -33.8870   24.5050 N   0  0  0  0  0  0  0  0  0  0  0  0
  -26.0090  -34.9900   23.8310 C   0  0  0  0  0  0  0  0  0  0  0  0
  -26.7080  -34.9580   22.8130 O   0  0  0  0  0  0  0  0  0  0  0  0
  -25.0400  -33.9880   25.2990 H   0  0  0  0  0  0  0  0  0  0  0  0
  -24.2930  -36.8050   23.5530 C   0  0  0  0  0  1  0  0  0  0  0  0
  -25.5100  -36.3420   24.3700 C   0  0  0  0  0  3  0  0  0  0  0  0
  -27.6200  -37.1590   25.3220 C   0  0  0  0  0  1  0  0  0  0  0  0
  -26.5460  -37.3990   24.3610 N   0  0  0  0  0  0  0  0  0  0  0  0
  -26.1350  -38.3060   24.5640 H   0  0  0  0  0  0  0  0  0  0  0  0
  -26.4710  -31.6530   25.3060 C   0  0  1  0  0  0  0  0  0  0  0  0
  -25.3650  -31.3370   26.3380 C   0  0  0  0  0  1  0  0  0  0  0  0
  -27.0600  -30.3090   24.8170 C   0  0  0  0  0  1  0  0  0  0  0  0
  -27.6110  -32.3970   26.0390 C   0  0  0  0  0  1  0  0  0  0  0  0
  -24.0870  -20.0830   17.5520 C   0  0  0  0  0  2  0  0  0  0  0  0
  -24.4950  -18.7320   18.2140 C   0  0  0  0  0  2  0  0  0  0  0  0
  -25.5880  -18.8250   19.2120 N   0  0  0  0  0  4  0  0  0  0  0  0
  -25.3690  -18.1860   19.9550 H   0  0  0  0  0  0  0  0  0  0  0  0
  -25.5670  -19.7520   19.6040 H   0  0  0  0  0  0  0  0  0  0  0  0
  -26.9690  -18.5270   18.7570 C   0  0  0  0  0  2  0  0  0  0  0  0
  -27.9100  -18.4160   19.9730 C   0  0  0  0  0  2  0  0  0  0  0  0
  -29.9720  -17.2280   20.5810 C   0  0  0  0  0  0  0  0  0  0  0  0
  -29.2330  -17.8630   19.6640 N   0  0  0  0  0  0  0  0  0  0  0  0
  -29.5980  -17.0810   21.7480 O   0  0  0  0  0  0  0  0  0  0  0  0
  -29.6100  -17.9860   18.7290 H   0  0  0  0  0  0  0  0  0  0  0  0
  -31.3020  -16.6120   20.1740 C   0  0  0  0  0  2  0  0  0  0  0  0
  -31.6950  -14.2330   19.8970 C   0  0  0  0  0  0  0  0  0  0  0  0
  -31.1650  -12.0210   18.9770 C   0  0  0  0  0  2  0  0  0  0  0  0
  -30.2110  -12.1870   17.7760 C   0  0  0  0  0  2  0  0  0  0  0  0
  -28.7430  -12.2090   18.2480 C   0  0  0  0  0  2  0  0  0  0  0  0
  -28.5050  -13.1920   19.4220 C   0  0  0  0  0  3  0  0  0  0  0  0
  -29.5780  -12.9990   20.5250 C   0  0  0  0  0  2  0  0  0  0  0  0
  -30.9180  -13.1210   19.9140 N   0  0  0  0  0  0  0  0  0  0  0  0
  -32.6960  -14.3740   19.1840 O   0  0  0  0  0  0  0  0  0  0  0  0
  -31.2570  -15.2350   20.6440 N   0  0  0  0  0  0  0  0  0  0  0  0
  -30.4940  -15.0100   21.2690 H   0  0  0  0  0  0  0  0  0  0  0  0
  -26.2040  -14.0260   20.2310 C   0  0  0  0  0  0  0  0  0  0  0  0
  -25.0770  -13.3710   20.6520 C   0  0  0  0  0  0  0  0  0  0  0  0
  -25.3930  -11.9810   20.5850 C   0  0  0  0  0  0  0  0  0  0  0  0
  -27.1470  -13.0500   19.9590 N   0  0  0  0  0  0  0  0  0  0  0  0
  -26.6560  -11.8120   20.2120 N   0  0  0  0  0  0  0  0  0  0  0  0
  -24.5440  -10.8060   20.7980 C   0  0  0  0  0  0  0  0  0  0  0  0
  -24.8830   -9.8190   21.7490 C   0  0  0  0  0  3  0  0  0  0  0  0
  -24.0440   -8.7020   21.9500 C   0  0  0  0  0  3  0  0  0  0  0  0
  -22.8570   -8.5630   21.1960 C   0  0  0  0  0  0  0  0  0  0  0  0
  -22.5360   -9.5400   20.2360 C   0  0  0  0  0  3  0  0  0  0  0  0
  -23.3700  -10.6510   20.0350 C   0  0  0  0  0  3  0  0  0  0  0  0
  -21.9940   -7.4960   21.3060 O   0  0  0  0  0  0  0  0  0  0  0  0
  -21.8400   -6.8120   22.4840 C   0  0  0  0  0  0  0  0  0  0  0  0
  -21.4270   -7.4540   23.6720 C   0  0  0  0  0  3  0  0  0  0  0  0
  -21.2190   -6.6990   24.8450 C   0  0  0  0  0  3  0  0  0  0  0  0
  -21.4090   -5.3050   24.8290 C   0  0  0  0  0  0  0  0  0  0  0  0
  -21.8110   -4.6630   23.6450 C   0  0  0  0  0  3  0  0  0  0  0  0
  -22.0230   -5.4150   22.4760 C   0  0  0  0  0  0  0  0  0  0  0  0
  -22.3920   -4.7900   21.3320 F   0  0  0  0  0  0  0  0  0  0  0  0
  -21.1940   -4.5760   25.9500 F   0  0  0  0  0  0  0  0  0  0  0  0
  -23.7620  -13.9970   21.0050 C   0  0  0  0  0  0  0  0  0  0  0  0
  -23.0170  -13.3780   21.9160 N   0  0  0  0  0  0  0  0  0  0  0  0
  -23.4090  -15.0660   20.5090 O   0  0  0  0  0  0  0  0  0  0  0  0
  -23.3270  -12.5180   22.3490 H   0  0  0  0  0  0  0  0  0  0  0  0
  -22.1280  -13.7720   22.1870 H   0  0  0  0  0  0  0  0  0  0  0  0
  -26.4790  -15.3670   20.0450 N   0  0  0  0  0  0  0  0  0  0  0  0
  -25.7710  -16.0490   20.2610 H   0  0  0  0  0  0  0  0  0  0  0  0
  -27.4000  -15.7320   19.8550 H   0  0  0  0  0  0  0  0  0  0  0  0
  1  2  1  0
  2  3  1  0
  3  4  1  0
  4  5  1  0
  5  7  1  0
  6  5  1  0
  8  9  1  0
  8  5  1  0
 10 12  1  0
 10  9  1  0
 11 22  2  0
 12 17  1  0
 13 21  1  0
 13 23  1  0
 14 20  1  0
 14 16  1  0
 15 21  1  0
 16 15  1  0
 17 16  2  0
 18 19  1  0
 18 12  2  0
 19 14  2  0
 20 13  1  0
 21 11  1  0
 23 25  2  0
 24 23  1  0
 26 24  1  0
 27 36  2  0
 27 32  1  0
 28 24  1  0
 28 32  1  0
 29 28  1  0
 30 31  1  0
 30 29  1  0
 31 27  1  0
 32 33  2  0
 33 34  1  0
 35 34  2  0
 36 35  1  0
 37 11  1  0
 37 38  1  0
 37 47  1  0
 38 41  1  0
 39 43  1  0
 39 38  1  0
 40 39  2  0
 43 42  1  0
 45 43  1  0
 45 46  1  0
 45 44  1  0
 47 50  1  1
 47 48  1  0
 49 47  1  0
 51  1  1  0
 51 52  1  0
 52 53  1  0
 53 55  1  0
 53 54  1  0
 56 53  1  0
 56 57  1  0
 58 60  2  0
 59 57  1  0
 59 58  1  0
 61 59  1  0
 62 58  1  0
 62 71  1  0
 63 69  1  0
 63 71  1  0
 64 69  1  0
 65 66  1  0
 65 64  1  0
 67 66  1  0
 67 76  1  0
 67 68  1  0
 69 68  1  0
 70 63  2  0
 71 72  1  0
 73 74  2  0
 74 93  1  0
 75 74  1  0
 75 78  1  0
 76 77  1  0
 76 73  1  0
 77 75  2  0
 78 79  1  0
 79 80  2  0
 81 84  1  0
 81 80  1  0
 82 81  2  0
 83 82  1  0
 83 78  2  0
 84 85  1  0
 85 86  1  0
 86 87  2  0
 88 87  1  0
 88 92  1  0
 89 88  2  0
 90 85  2  0
 90 89  1  0
 91 90  1  0
 93 94  1  0
 94 97  1  0
 94 96  1  0
 95 93  2  0
 98 73  1  0
 98 99  1  0
100 98  1  0
M  ISO  4   9 101  10 101  63 100  71 100
M  END
>  <TORSDO>  (52) 
F 29

>  <SCORE>  (52) 
-8.064

>  <name>  (52) 
52

>  <ligand_id>  (52) 
52

>  <original_smiles>  (52) 
[H]c1c([H])c([H])c2c(c1[H])C([H])([H])C([H])([H])C([H])([H])C2([H])N([H])C(=O)C1([H])N(C(=O)C([H])(N([H])C(=O)C([H])(N([H])C([H])([H])[H])C([H])([H])[H])C(C([H])([H])[H])(C([H])([H])[H])C([H])([H])[H])C([H])([H])c2c([H])c(OC([H])([H])C([H])([H])[N+]([H])([H])C([H])([H])C([H])([H])C([H])([H])C([H])([H])C([H])([H])C([H])([H])[N+]([H])([H])C([H])([H])C([H])([H])N([H])C(=O)C([H])([H])N([H])C(=O)N3C([H])([H])C([H])([H])C([H])([H])C([H])(n4nc(-c5c([H])c([H])c(Oc6c([H])c([H])c(F)c([H])c6F)c([H])c5[H])c(C(=O)N([H])[H])c4N([H])[H])C3([H])[H])c([H])c([H])c2C1([H])[H]

>  <smiles>  (52) 
[H]c1c([H])c([H])c2c(c1[H])C([H])([H])C([H])([H])C([H])([H])C2([H])N([H])C(=O)C1([H])N(C(=O)C([H])(N([H])C(=O)C([H])(N([H])C([H])([H])[H])C([H])([H])[H])C(C([H])([H])[H])(C([H])([H])[H])C([H])([H])[H])C([H])([H])c2c([H])c(OC([H])([H])C([H])([H])[N+]([H])([H])C([H])([H])C([H])([H])C([H])([H])C([H])([H])C([H])([H])C([H])([H])[N+]([H])([H])C([H])([H])C([H])([H])N([H])C(=O)C([H])([H])N([H])C(=O)N3C([H])([H])C([H])([H])C([H])([H])C([H])(n4nc(-c5c([H])c([H])c(Oc6c([H])c([H])c(F)c([H])c6F)c([H])c5[H])c(C(=O)N([H])[H])c4N([H])[H])C3([H])[H])c([H])c([H])c2C1([H])[H]

$$$$
53:0:0
     RDKit          3D

 99106  0  0  1  0  0  0  0  0999 V2000
  -29.1390  -21.1320   23.2970 C   0  0  0  0  0  2  0  0  0  0  0  0
  -30.1540  -21.8960   24.0500 N   0  0  0  0  0  4  0  0  0  0  0  0
  -29.7410  -22.7560   24.3740 H   0  0  0  0  0  0  0  0  0  0  0  0
  -30.8880  -22.1390   23.4070 H   0  0  0  0  0  0  0  0  0  0  0  0
  -30.6990  -21.1520   25.2110 C   0  0  0  0  0  2  0  0  0  0  0  0
  -32.1490  -21.5410   25.5870 C   0  0  0  0  0  2  0  0  0  0  0  0
  -33.0730  -22.0620   24.4520 C   0  0  0  0  0  2  0  0  0  0  0  0
  -33.4540  -21.0760   23.4090 N   0  0  0  0  0  4  0  0  0  0  0  0
  -33.0260  -20.1790   23.5820 H   0  0  0  0  0  0  0  0  0  0  0  0
  -34.4470  -20.9390   23.5150 H   0  0  0  0  0  0  0  0  0  0  0  0
  -33.2430  -21.4920   22.0050 C   0  0  0  0  0  2  0  0  0  0  0  0
  -34.2980  -20.9020   21.0480 C   0  0  0  0  0  2  0  0  0  0  0  0
  -34.5950  -20.8230   18.5810 C   0  0  0  0  0  0  0  0  0  0  0  0
  -34.9960  -18.8190   17.2120 C   0  0  0  0  0  2  0  0  0  0  0  0
  -33.9690  -18.6390   16.0780 C   0  0  0  0  0  2  0  0  0  0  0  0
  -32.7340  -17.8710   16.5770 C   0  0  0  0  0  2  0  0  0  0  0  0
  -32.1640  -18.4740   17.8870 C   0  0  0  0  0  3  0  0  0  0  0  0
  -33.2790  -18.6870   18.9320 C   0  0  0  0  0  2  0  0  0  0  0  0
  -34.3540  -19.5070   18.3390 N   0  0  0  0  0  0  0  0  0  0  0  0
  -35.2590  -21.5380   17.8310 O   0  0  0  0  0  0  0  0  0  0  0  0
  -34.0510  -21.3610   19.6800 N   0  0  0  0  0  0  0  0  0  0  0  0
  -34.0360  -22.3690   19.6100 H   0  0  0  0  0  0  0  0  0  0  0  0
  -29.7320  -17.9410   18.5430 C   0  0  0  0  0  0  0  0  0  0  0  0
  -29.1470  -16.8090   19.0410 C   0  0  0  0  0  0  0  0  0  0  0  0
  -30.2010  -15.8560   19.1990 C   0  0  0  0  0  0  0  0  0  0  0  0
  -31.0820  -17.6510   18.4240 N   0  0  0  0  0  0  0  0  0  0  0  0
  -31.3660  -16.4020   18.8760 N   0  0  0  0  0  0  0  0  0  0  0  0
  -30.1600  -14.4400   19.5840 C   0  0  0  0  0  0  0  0  0  0  0  0
  -30.6530  -13.9950   20.8310 C   0  0  0  0  0  3  0  0  0  0  0  0
  -30.5870  -12.6300   21.1820 C   0  0  0  0  0  3  0  0  0  0  0  0
  -30.0190  -11.6940   20.2850 C   0  0  0  0  0  0  0  0  0  0  0  0
  -29.5480  -12.1390   19.0370 C   0  0  0  0  0  3  0  0  0  0  0  0
  -29.6220  -13.4970   18.6870 C   0  0  0  0  0  3  0  0  0  0  0  0
  -29.9400  -10.3440   20.5300 O   0  0  0  0  0  0  0  0  0  0  0  0
  -29.4020   -9.8550   21.6940 C   0  0  0  0  0  0  0  0  0  0  0  0
  -28.1140  -10.2330   22.1350 C   0  0  0  0  0  3  0  0  0  0  0  0
  -27.5680   -9.6530   23.2970 C   0  0  0  0  0  3  0  0  0  0  0  0
  -28.3040   -8.6930   24.0170 C   0  0  0  0  0  0  0  0  0  0  0  0
  -29.5850   -8.3120   23.5790 C   0  0  0  0  0  3  0  0  0  0  0  0
  -30.1300   -8.8890   22.4180 C   0  0  0  0  0  0  0  0  0  0  0  0
  -31.3540   -8.5020   21.9880 F   0  0  0  0  0  0  0  0  0  0  0  0
  -27.7780   -8.1320   25.1320 F   0  0  0  0  0  0  0  0  0  0  0  0
  -27.6800  -16.5870   19.2700 C   0  0  0  0  0  0  0  0  0  0  0  0
  -27.3310  -15.7900   20.2740 N   0  0  0  0  0  0  0  0  0  0  0  0
  -26.8320  -17.1630   18.5890 O   0  0  0  0  0  0  0  0  0  0  0  0
  -28.0290  -15.3310   20.8410 H   0  0  0  0  0  0  0  0  0  0  0  0
  -26.3540  -15.6310   20.4760 H   0  0  0  0  0  0  0  0  0  0  0  0
  -29.2360  -19.1860   18.1650 N   0  0  0  0  0  0  0  0  0  0  0  0
  -28.2430  -19.3940   18.1400 H   0  0  0  0  0  0  0  0  0  0  0  0
  -29.8070  -19.9340   17.7890 H   0  0  0  0  0  0  0  0  0  0  0  0
  -29.2330  -21.4140   21.8120 C   0  0  0  0  0  3  0  0  0  0  0  0
  -28.4230  -22.2640   21.1620 C   0  0  0  0  0  3  0  0  0  0  0  0
  -28.4790  -22.5500   19.6790 C   0  0  0  0  0  2  0  0  0  0  0  0
  -27.1070  -22.6710   19.1580 N   0  0  0  0  0  4  0  0  0  0  0  0
  -26.4850  -22.8170   19.9380 H   0  0  0  0  0  0  0  0  0  0  0  0
  -26.8490  -21.7940   18.7310 H   0  0  0  0  0  0  0  0  0  0  0  0
  -26.9230  -23.7770   18.1940 C   0  0  0  0  0  2  0  0  0  0  0  0
  -25.5580  -23.6970   17.5000 C   0  0  0  0  0  2  0  0  0  0  0  0
  -25.2920  -24.9520   16.8750 O   0  0  0  0  0  0  0  0  0  0  0  0
  -25.1670  -28.9320   22.7620 C   0  0  0  0  0  0  0  0  0  0  0  0
  -24.6190  -25.9200   17.5860 C   0  0  0  0  0  0  0  0  0  0  0  0
  -23.1770  -29.1180   21.3020 C   0  0  0  0  0  3  0  0  0  0  0  0
  -23.3830  -28.0250   19.0110 C   0  0  0  0  0  0  0  0  0  0  0  0
  -25.4550  -28.4820   20.3300 C   0  0  0  0  0  2  0  0  0  0  0  0
  -24.7140  -27.6840   19.2780 C   0  0  0  0  0  0  0  0  0  0  0  0
  -25.3350  -26.6350   18.5690 C   0  0  0  0  0  3  0  0  0  0  0  0
  -23.2740  -26.2760   17.3250 C   0  0  0  0  0  3  0  0  0  0  0  0
  -22.6560  -27.3210   18.0370 C   0  0  0  0  0  3  0  0  0  0  0  0
  -22.7970  -29.1740   19.7990 C   0  0  0  0  0  2  0  0  0  0  0  0
  -24.6310  -28.8170   21.5150 N   0  0  0  0  0  0  0  0  0  0  0  0
  -24.4810  -29.3200   23.7190 O   0  0  0  0  0  0  0  0  0  0  0  0
  -22.2360  -28.1200   22.0140 C   0  0  0  0  0  0  0  0  0  0  0  0
  -20.9340  -28.4500   22.0470 N   0  0  0  0  0  0  0  0  0  0  0  0
  -22.6710  -27.0710   22.4940 O   0  0  0  0  0  0  0  0  0  0  0  0
  -20.6600  -29.3320   21.6400 H   0  0  0  0  0  0  0  0  0  0  0  0
  -17.3450  -28.2010   22.3710 C   0  0  0  0  0  0  0  0  0  0  0  0
  -19.8570  -27.6500   22.6280 C   0  0  0  0  0  3  0  0  0  0  0  0
  -19.5670  -26.3990   21.7680 C   0  0  0  0  0  2  0  0  0  0  0  0
  -18.4550  -26.6190   20.7390 C   0  0  0  0  0  2  0  0  0  0  0  0
  -17.1510  -27.0230   21.4310 C   0  0  0  0  0  2  0  0  0  0  0  0
  -18.6190  -28.5060   22.9190 C   0  0  0  0  0  0  0  0  0  0  0  0
  -18.7500  -29.6340   23.7590 C   0  0  0  0  0  3  0  0  0  0  0  0
  -17.6390  -30.4460   24.0540 C   0  0  0  0  0  3  0  0  0  0  0  0
  -16.3780  -30.1310   23.5210 C   0  0  0  0  0  3  0  0  0  0  0  0
  -16.2320  -29.0090   22.6860 C   0  0  0  0  0  3  0  0  0  0  0  0
  -26.6670  -28.6030   23.0420 C   0  0  0  0  0  3  0  0  0  0  0  0
  -27.0950  -29.4260   24.1800 N   0  0  0  0  0  0  0  0  0  0  0  0
  -27.9490  -30.4550   24.0930 C   0  0  0  0  0  0  0  0  0  0  0  0
  -28.5220  -30.7660   23.0450 O   0  0  0  0  0  0  0  0  0  0  0  0
  -26.6260  -29.2650   25.0600 H   0  0  0  0  0  0  0  0  0  0  0  0
  -27.4890  -32.6240   25.2820 C   0  0  0  0  0  1  0  0  0  0  0  0
  -28.2090  -31.2690   25.3740 C   0  0  0  0  0  3  0  0  0  0  0  0
  -30.3530  -30.2660   26.0280 C   0  0  0  0  0  1  0  0  0  0  0  0
  -29.6460  -31.4870   25.6530 N   0  0  0  0  0  0  0  0  0  0  0  0
  -29.7690  -32.1680   26.3980 H   0  0  0  0  0  0  0  0  0  0  0  0
  -26.9250  -27.0730   23.3300 C   0  0  1  0  0  0  0  0  0  0  0  0
  -25.9970  -26.4810   24.4160 C   0  0  0  0  0  1  0  0  0  0  0  0
  -26.7390  -26.2390   22.0420 C   0  0  0  0  0  1  0  0  0  0  0  0
  -28.3900  -26.8640   23.7840 C   0  0  0  0  0  1  0  0  0  0  0  0
  1  2  1  0
  2  3  1  0
  2  5  1  0
  4  2  1  0
  5  6  1  0
  7  6  1  0
  8 10  1  0
  8  9  1  0
  8  7  1  0
 11  8  1  0
 12 11  1  0
 13 21  1  0
 14 19  1  0
 15 16  1  0
 15 14  1  0
 17 16  1  0
 17 26  1  0
 17 18  1  0
 19 13  1  0
 19 18  1  0
 20 13  2  0
 21 12  1  0
 22 21  1  0
 23 24  2  0
 24 25  1  0
 24 43  1  0
 25 28  1  0
 26 23  1  0
 26 27  1  0
 27 25  2  0
 28 29  1  0
 29 30  2  0
 31 34  1  0
 31 30  1  0
 32 31  2  0
 33 32  1  0
 33 28  2  0
 34 35  1  0
 35 36  2  0
 35 40  1  0
 36 37  1  0
 37 38  2  0
 38 42  1  0
 39 38  1  0
 40 39  2  0
 41 40  1  0
 43 44  1  0
 44 47  1  0
 44 46  1  0
 45 43  2  0
 48 23  1  0
 49 48  1  0
 50 48  1  0
 51  1  1  0
 52 51  2  0
 53 52  1  0
 54 53  1  0
 54 55  1  0
 56 54  1  0
 57 54  1  0
 58 57  1  0
 59 58  1  0
 59 61  1  0
 60 71  2  0
 61 66  1  0
 62 70  1  0
 62 72  1  0
 63 65  1  0
 63 69  1  0
 64 70  1  0
 65 64  1  0
 66 65  2  0
 67 61  2  0
 67 68  1  0
 68 63  2  0
 69 62  1  0
 70 60  1  0
 72 73  1  0
 72 74  2  0
 75 73  1  0
 76 85  2  0
 76 81  1  0
 77 73  1  0
 77 81  1  0
 78 77  1  0
 79 80  1  0
 79 78  1  0
 80 76  1  0
 81 82  2  0
 82 83  1  0
 84 83  2  0
 85 84  1  0
 86 60  1  0
 86 96  1  0
 86 87  1  0
 87 90  1  0
 88 87  1  0
 88 92  1  0
 89 88  2  0
 92 91  1  0
 92 94  1  0
 94 93  1  0
 94 95  1  0
 96 99  1  1
 96 97  1  0
 98 96  1  0
M  ISO  4  13 100  21 100  58 101  59 101
M  END
>  <TORSDO>  (53) 
F 28

>  <SCORE>  (53) 
-1.374

>  <name>  (53) 
53

>  <ligand_id>  (53) 
53

>  <original_smiles>  (53) 
[H]C(=C([H])C([H])([H])[N+]([H])([H])C([H])([H])C([H])([H])C([H])([H])[N+]([H])([H])C([H])([H])C([H])([H])N([H])C(=O)N1C([H])([H])C([H])([H])C([H])([H])C([H])(n2nc(-c3c([H])c([H])c(Oc4c([H])c([H])c(F)c([H])c4F)c([H])c3[H])c(C(=O)N([H])[H])c2N([H])[H])C1([H])[H])C([H])([H])[N+]([H])([H])C([H])([H])C([H])([H])Oc1c([H])c([H])c2c(c1[H])C([H])([H])N(C(=O)C([H])(N([H])C(=O)C([H])(N([H])C([H])([H])[H])C([H])([H])[H])C(C([H])([H])[H])(C([H])([H])[H])C([H])([H])[H])C([H])(C(=O)N([H])C1([H])c3c([H])c([H])c([H])c([H])c3C([H])([H])C([H])([H])C1([H])[H])C2([H])[H]

>  <smiles>  (53) 
[H]C(=C([H])C([H])([H])[N+]([H])([H])C([H])([H])C([H])([H])C([H])([H])[N+]([H])([H])C([H])([H])C([H])([H])N([H])C(=O)N1C([H])([H])C([H])([H])C([H])([H])C([H])(n2nc(-c3c([H])c([H])c(Oc4c([H])c([H])c(F)c([H])c4F)c([H])c3[H])c(C(=O)N([H])[H])c2N([H])[H])C1([H])[H])C([H])([H])[N+]([H])([H])C([H])([H])C([H])([H])Oc1c([H])c([H])c2c(c1[H])C([H])([H])N(C(=O)C([H])(N([H])C(=O)C([H])(N([H])C([H])([H])[H])C([H])([H])[H])C(C([H])([H])[H])(C([H])([H])[H])C([H])([H])[H])C([H])(C(=O)N([H])C1([H])c3c([H])c([H])c([H])c([H])c3C([H])([H])C([H])([H])C1([H])[H])C2([H])[H]

$$$$
54:0:0
     RDKit          3D

103110  0  0  1  0  0  0  0  0999 V2000
  -24.8230  -24.8890   13.5080 N   0  0  0  0  0  4  0  0  0  0  0  0
  -24.5380  -25.5730   12.8240 H   0  0  0  0  0  0  0  0  0  0  0  0
  -25.2860  -24.1590   12.9900 H   0  0  0  0  0  0  0  0  0  0  0  0
  -23.5670  -24.3840   14.1140 C   0  0  0  0  0  2  0  0  0  0  0  0
  -23.6910  -22.9810   14.7450 C   0  0  0  0  0  2  0  0  0  0  0  0
  -24.2410  -22.9880   16.1810 C   0  0  0  0  0  2  0  0  0  0  0  0
  -24.5210  -21.6280   16.6130 N   0  0  0  0  0  0  0  0  0  0  0  0
  -24.9200  -21.0920   15.8420 H   0  0  0  0  0  0  0  0  0  0  0  0
  -25.4460  -21.6250   17.7420 C   0  0  0  0  0  2  0  0  0  0  0  0
  -25.9090  -20.1830   17.9890 C   0  0  0  0  0  2  0  0  0  0  0  0
  -26.9390  -20.0590   19.0490 N   0  0  0  0  0  4  0  0  0  0  0  0
  -27.7740  -20.5370   18.7500 H   0  0  0  0  0  0  0  0  0  0  0  0
  -26.6050  -20.4980   19.8910 H   0  0  0  0  0  0  0  0  0  0  0  0
  -27.2370  -18.6370   19.3270 C   0  0  0  0  0  2  0  0  0  0  0  0
  -28.4490  -18.3420   20.2420 C   0  0  0  0  0  2  0  0  0  0  0  0
  -28.5050  -16.8160   20.4280 C   0  0  0  0  0  2  0  0  0  0  0  0
  -30.3620  -15.2590   20.5440 C   0  0  0  0  0  0  0  0  0  0  0  0
  -30.1540  -13.1400   19.2950 C   0  0  0  0  0  2  0  0  0  0  0  0
  -29.1900  -13.2930   18.1040 C   0  0  0  0  0  2  0  0  0  0  0  0
  -27.7360  -13.0120   18.5360 C   0  0  0  0  0  2  0  0  0  0  0  0
  -27.3310  -13.7820   19.8160 C   0  0  0  0  0  3  0  0  0  0  0  0
  -28.4200  -13.6660   20.9150 C   0  0  0  0  0  2  0  0  0  0  0  0
  -29.7190  -14.0720   20.3450 N   0  0  0  0  0  0  0  0  0  0  0  0
  -31.4960  -15.4970   20.1310 O   0  0  0  0  0  0  0  0  0  0  0  0
  -29.6730  -16.2610   21.1130 N   0  0  0  0  0  0  0  0  0  0  0  0
  -30.2830  -16.9710   21.4920 H   0  0  0  0  0  0  0  0  0  0  0  0
  -24.9130  -14.1920   20.5890 C   0  0  0  0  0  0  0  0  0  0  0  0
  -23.9080  -13.3280   20.9230 C   0  0  0  0  0  0  0  0  0  0  0  0
  -24.4680  -12.0160   20.8220 C   0  0  0  0  0  0  0  0  0  0  0  0
  -26.0150  -13.3970   20.3050 N   0  0  0  0  0  0  0  0  0  0  0  0
  -25.7530  -12.0840   20.5070 N   0  0  0  0  0  0  0  0  0  0  0  0
  -23.8430  -10.7000   20.9480 C   0  0  0  0  0  0  0  0  0  0  0  0
  -24.3250   -9.7360   21.8630 C   0  0  0  0  0  3  0  0  0  0  0  0
  -23.6910   -8.4800   21.9740 C   0  0  0  0  0  3  0  0  0  0  0  0
  -22.5640   -8.1800   21.1730 C   0  0  0  0  0  0  0  0  0  0  0  0
  -22.1070   -9.1320   20.2460 C   0  0  0  0  0  3  0  0  0  0  0  0
  -22.7400  -10.3800   20.1330 C   0  0  0  0  0  3  0  0  0  0  0  0
  -21.8990   -6.9800   21.1990 O   0  0  0  0  0  0  0  0  0  0  0  0
  -21.8110   -6.2320   22.3450 C   0  0  0  0  0  0  0  0  0  0  0  0
  -21.2560   -6.7530   23.5360 C   0  0  0  0  0  3  0  0  0  0  0  0
  -21.1200   -5.9260   24.6690 C   0  0  0  0  0  3  0  0  0  0  0  0
  -21.5320   -4.5810   24.6150 C   0  0  0  0  0  0  0  0  0  0  0  0
  -22.0820   -4.0610   23.4300 C   0  0  0  0  0  3  0  0  0  0  0  0
  -22.2190   -4.8840   22.2990 C   0  0  0  0  0  0  0  0  0  0  0  0
  -22.7300   -4.3720   21.1540 F   0  0  0  0  0  0  0  0  0  0  0  0
  -21.3950   -3.7840   25.7020 F   0  0  0  0  0  0  0  0  0  0  0  0
  -22.4820  -13.6870   21.2240 C   0  0  0  0  0  0  0  0  0  0  0  0
  -21.8210  -12.9060   22.0710 N   0  0  0  0  0  0  0  0  0  0  0  0
  -21.9560  -14.6920   20.7430 O   0  0  0  0  0  0  0  0  0  0  0  0
  -22.2540  -12.0970   22.4900 H   0  0  0  0  0  0  0  0  0  0  0  0
  -20.8660  -13.1290   22.3140 H   0  0  0  0  0  0  0  0  0  0  0  0
  -24.9670  -15.5800   20.4820 N   0  0  0  0  0  0  0  0  0  0  0  0
  -24.1480  -16.1550   20.6480 H   0  0  0  0  0  0  0  0  0  0  0  0
  -25.7730  -16.1040   20.1780 H   0  0  0  0  0  0  0  0  0  0  0  0
  -25.7690  -25.5850   14.4140 C   0  0  0  0  0  2  0  0  0  0  0  0
  -27.1460  -24.8850   14.4870 C   0  0  0  0  0  2  0  0  0  0  0  0
  -28.1650  -25.5860   15.4140 C   0  0  0  0  0  2  0  0  0  0  0  0
  -28.0970  -25.1340   16.8250 N   0  0  0  0  0  4  0  0  0  0  0  0
  -28.6800  -24.3140   16.9230 H   0  0  0  0  0  0  0  0  0  0  0  0
  -27.1520  -24.8670   17.0500 H   0  0  0  0  0  0  0  0  0  0  0  0
  -28.5330  -26.1590   17.8040 C   0  0  0  0  0  2  0  0  0  0  0  0
  -28.4490  -25.6620   19.2670 C   0  0  0  0  0  2  0  0  0  0  0  0
  -28.2620  -26.7540   20.1690 O   0  0  0  0  0  0  0  0  0  0  0  0
  -24.3710  -31.9080   23.1140 C   0  0  0  0  0  0  0  0  0  0  0  0
  -27.0480  -27.4120   20.1690 C   0  0  0  0  0  0  0  0  0  0  0  0
  -23.1820  -30.4760   21.4850 C   0  0  0  0  0  3  0  0  0  0  0  0
  -24.6490  -28.9050   20.1210 C   0  0  0  0  0  0  0  0  0  0  0  0
  -25.7090  -30.8280   21.3130 C   0  0  0  0  0  2  0  0  0  0  0  0
  -25.7980  -29.4430   20.7120 C   0  0  0  0  0  0  0  0  0  0  0  0
  -26.9960  -28.6990   20.7430 C   0  0  0  0  0  3  0  0  0  0  0  0
  -25.8660  -26.8660   19.6100 C   0  0  0  0  0  3  0  0  0  0  0  0
  -24.6740  -27.6110   19.5760 C   0  0  0  0  0  3  0  0  0  0  0  0
  -23.4070  -29.7680   20.1230 C   0  0  0  0  0  2  0  0  0  0  0  0
  -24.4390  -31.0840   22.0310 N   0  0  0  0  0  0  0  0  0  0  0  0
  -23.2840  -32.1950   23.6310 O   0  0  0  0  0  0  0  0  0  0  0  0
  -22.5170  -29.4750   22.4550 C   0  0  0  0  0  0  0  0  0  0  0  0
  -21.1930  -29.3020   22.3170 N   0  0  0  0  0  0  0  0  0  0  0  0
  -23.1880  -28.8560   23.2840 O   0  0  0  0  0  0  0  0  0  0  0  0
  -20.7170  -29.8500   21.6140 H   0  0  0  0  0  0  0  0  0  0  0  0
  -17.7960  -28.1800   22.8170 C   0  0  0  0  0  0  0  0  0  0  0  0
  -20.3580  -28.3880   23.0940 C   0  0  0  0  0  3  0  0  0  0  0  0
  -20.4350  -26.9520   22.5270 C   0  0  0  0  0  2  0  0  0  0  0  0
  -19.3280  -26.6430   21.5150 C   0  0  0  0  0  2  0  0  0  0  0  0
  -17.9480  -26.8210   22.1550 C   0  0  0  0  0  2  0  0  0  0  0  0
  -18.9290  -28.9230   23.2430 C   0  0  0  0  0  0  0  0  0  0  0  0
  -18.7360  -30.1980   23.8200 C   0  0  0  0  0  3  0  0  0  0  0  0
  -17.4420  -30.7260   23.9810 C   0  0  0  0  0  3  0  0  0  0  0  0
  -16.3230  -29.9800   23.5720 C   0  0  0  0  0  3  0  0  0  0  0  0
  -16.5010  -28.7110   22.9940 C   0  0  0  0  0  3  0  0  0  0  0  0
  -25.6510  -32.5460   23.7380 C   0  0  0  0  0  3  0  0  0  0  0  0
  -25.3330  -33.9410   24.0690 N   0  0  0  0  0  0  0  0  0  0  0  0
  -25.6670  -34.9940   23.3100 C   0  0  0  0  0  0  0  0  0  0  0  0
  -26.3470  -34.8940   22.2850 O   0  0  0  0  0  0  0  0  0  0  0  0
  -24.7270  -34.0920   24.8630 H   0  0  0  0  0  0  0  0  0  0  0  0
  -23.9270  -36.7710   22.9440 C   0  0  0  0  0  1  0  0  0  0  0  0
  -25.1660  -36.3790   23.7640 C   0  0  0  0  0  3  0  0  0  0  0  0
  -27.2890  -37.2770   24.6070 C   0  0  0  0  0  1  0  0  0  0  0  0
  -26.1910  -37.4390   23.6570 N   0  0  0  0  0  0  0  0  0  0  0  0
  -25.7780  -38.3560   23.8060 H   0  0  0  0  0  0  0  0  0  0  0  0
  -26.1700  -31.7730   25.0120 C   0  0  1  0  0  0  0  0  0  0  0  0
  -25.0770  -31.5240   26.0770 C   0  0  0  0  0  1  0  0  0  0  0  0
  -26.7640  -30.4010   24.6150 C   0  0  0  0  0  1  0  0  0  0  0  0
  -27.3170  -32.5710   25.6780 C   0  0  0  0  0  1  0  0  0  0  0  0
  1  4  1  0
  1 55  1  0
  2  1  1  0
  3  1  1  0
  4  5  1  0
  5  6  1  0
  6  7  1  0
  7  9  1  0
  8  7  1  0
  9 10  1  0
 10 11  1  0
 11 14  1  0
 11 13  1  0
 12 11  1  0
 14 15  1  0
 15 16  1  0
 16 25  1  0
 17 25  1  0
 18 23  1  0
 19 20  1  0
 19 18  1  0
 21 20  1  0
 21 30  1  0
 21 22  1  0
 23 17  1  0
 23 22  1  0
 24 17  2  0
 25 26  1  0
 27 28  2  0
 28 47  1  0
 29 28  1  0
 29 32  1  0
 30 31  1  0
 30 27  1  0
 31 29  2  0
 32 33  1  0
 33 34  2  0
 35 38  1  0
 35 34  1  0
 36 35  2  0
 37 36  1  0
 37 32  2  0
 38 39  1  0
 39 40  1  0
 40 41  2  0
 42 41  1  0
 42 46  1  0
 43 42  2  0
 44 39  2  0
 44 43  1  0
 45 44  1  0
 47 48  1  0
 48 51  1  0
 48 50  1  0
 49 47  2  0
 52 27  1  0
 52 53  1  0
 54 52  1  0
 55 56  1  0
 56 57  1  0
 57 58  1  0
 58 59  1  0
 58 60  1  0
 58 61  1  0
 61 62  1  0
 62 63  1  0
 63 65  1  0
 64 75  2  0
 65 70  1  0
 66 74  1  0
 66 76  1  0
 67 73  1  0
 67 69  1  0
 68 74  1  0
 69 70  2  0
 69 68  1  0
 71 65  2  0
 72 71  1  0
 72 67  2  0
 73 66  1  0
 74 64  1  0
 76 78  2  0
 77 76  1  0
 79 77  1  0
 80 89  2  0
 80 85  1  0
 81 77  1  0
 81 85  1  0
 82 81  1  0
 83 84  1  0
 83 82  1  0
 84 80  1  0
 85 86  2  0
 86 87  1  0
 88 87  2  0
 89 88  1  0
 90 64  1  0
 90 91  1  0
 90100  1  0
 91 94  1  0
 92 96  1  0
 92 91  1  0
 93 92  2  0
 96 95  1  0
 98 96  1  0
 98 99  1  0
 98 97  1  0
100103  1  1
100101  1  0
102100  1  0
M  ISO  4  17 100  25 100  62 101  63 101
M  END
>  <TORSDO>  (54) 
F 32

>  <SCORE>  (54) 
-9.614

>  <name>  (54) 
54

>  <ligand_id>  (54) 
54

>  <original_smiles>  (54) 
[H]c1c([H])c([H])c2c(c1[H])C([H])([H])C([H])([H])C([H])([H])C2([H])N([H])C(=O)C1([H])N(C(=O)C([H])(N([H])C(=O)C([H])(N([H])C([H])([H])[H])C([H])([H])[H])C(C([H])([H])[H])(C([H])([H])[H])C([H])([H])[H])C([H])([H])c2c([H])c(OC([H])([H])C([H])([H])[N+]([H])([H])C([H])([H])C([H])([H])C([H])([H])[N+]([H])([H])C([H])([H])C([H])([H])C([H])([H])N([H])C([H])([H])C([H])([H])[N+]([H])([H])C([H])([H])C([H])([H])C([H])([H])N([H])C(=O)N3C([H])([H])C([H])([H])C([H])([H])C([H])(n4nc(-c5c([H])c([H])c(Oc6c([H])c([H])c(F)c([H])c6F)c([H])c5[H])c(C(=O)N([H])[H])c4N([H])[H])C3([H])[H])c([H])c([H])c2C1([H])[H]

>  <smiles>  (54) 
[H]c1c([H])c([H])c2c(c1[H])C([H])([H])C([H])([H])C([H])([H])C2([H])N([H])C(=O)C1([H])N(C(=O)C([H])(N([H])C(=O)C([H])(N([H])C([H])([H])[H])C([H])([H])[H])C(C([H])([H])[H])(C([H])([H])[H])C([H])([H])[H])C([H])([H])c2c([H])c(OC([H])([H])C([H])([H])[N+]([H])([H])C([H])([H])C([H])([H])C([H])([H])[N+]([H])([H])C([H])([H])C([H])([H])C([H])([H])N([H])C([H])([H])C([H])([H])[N+]([H])([H])C([H])([H])C([H])([H])C([H])([H])N([H])C(=O)N3C([H])([H])C([H])([H])C([H])([H])C([H])(n4nc(-c5c([H])c([H])c(Oc6c([H])c([H])c(F)c([H])c6F)c([H])c5[H])c(C(=O)N([H])[H])c4N([H])[H])C3([H])[H])c([H])c([H])c2C1([H])[H]

$$$$
55:0:0
     RDKit          3D

 98105  0  0  1  0  0  0  0  0999 V2000
  -26.4130  -23.2620   16.6690 N   0  0  0  0  0  4  0  0  0  0  0  0
  -25.9850  -23.5590   17.5290 H   0  0  0  0  0  0  0  0  0  0  0  0
  -25.7400  -22.7130   16.1610 H   0  0  0  0  0  0  0  0  0  0  0  0
  -26.7100  -24.4770   15.8840 C   0  0  0  0  0  2  0  0  0  0  0  0
  -27.1870  -25.6310   16.7900 C   0  0  0  0  0  2  0  0  0  0  0  0
  -28.5640  -25.4300   17.2420 N   0  0  0  0  0  0  0  0  0  0  0  0
  -29.1820  -25.5610   16.4430 H   0  0  0  0  0  0  0  0  0  0  0  0
  -28.9300  -26.4040   18.2690 C   0  0  0  0  0  2  0  0  0  0  0  0
  -28.8300  -25.7880   19.6840 C   0  0  0  0  0  2  0  0  0  0  0  0
  -28.5980  -26.7900   20.6750 O   0  0  0  0  0  0  0  0  0  0  0  0
  -24.6840  -31.9960   23.5560 C   0  0  0  0  0  0  0  0  0  0  0  0
  -27.3950  -27.4660   20.6610 C   0  0  0  0  0  0  0  0  0  0  0  0
  -23.5190  -30.5540   21.9180 C   0  0  0  0  0  3  0  0  0  0  0  0
  -25.0020  -28.9710   20.5860 C   0  0  0  0  0  0  0  0  0  0  0  0
  -26.0510  -30.8920   21.7910 C   0  0  0  0  0  2  0  0  0  0  0  0
  -26.1430  -29.5040   21.1940 C   0  0  0  0  0  0  0  0  0  0  0  0
  -27.3400  -28.7560   21.2360 C   0  0  0  0  0  3  0  0  0  0  0  0
  -26.2200  -26.9330   20.0800 C   0  0  0  0  0  3  0  0  0  0  0  0
  -25.0320  -27.6800   20.0350 C   0  0  0  0  0  3  0  0  0  0  0  0
  -23.7640  -29.8370   20.5650 C   0  0  0  0  0  2  0  0  0  0  0  0
  -24.7670  -31.1630   22.4800 N   0  0  0  0  0  0  0  0  0  0  0  0
  -23.5880  -32.2910   24.0520 O   0  0  0  0  0  0  0  0  0  0  0  0
  -22.8340  -29.5620   22.8860 C   0  0  0  0  0  0  0  0  0  0  0  0
  -21.5380  -29.2980   22.6510 N   0  0  0  0  0  0  0  0  0  0  0  0
  -23.4690  -29.0320   23.8000 O   0  0  0  0  0  0  0  0  0  0  0  0
  -21.0900  -29.7820   21.8860 H   0  0  0  0  0  0  0  0  0  0  0  0
  -18.2150  -27.9010   22.8720 C   0  0  0  0  0  0  0  0  0  0  0  0
  -20.6990  -28.3720   23.4080 C   0  0  0  0  0  3  0  0  0  0  0  0
  -20.9610  -26.9080   22.9840 C   0  0  0  0  0  2  0  0  0  0  0  0
  -20.0120  -26.4180   21.8850 C   0  0  0  0  0  2  0  0  0  0  0  0
  -18.5580  -26.5150   22.3510 C   0  0  0  0  0  2  0  0  0  0  0  0
  -19.2220  -28.7780   23.3520 C   0  0  0  0  0  0  0  0  0  0  0  0
  -18.8540  -30.0690   23.7900 C   0  0  0  0  0  3  0  0  0  0  0  0
  -17.5090  -30.4850   23.7570 C   0  0  0  0  0  3  0  0  0  0  0  0
  -16.5140  -29.6060   23.2950 C   0  0  0  0  0  3  0  0  0  0  0  0
  -16.8670  -28.3170   22.8580 C   0  0  0  0  0  3  0  0  0  0  0  0
  -25.9560  -32.6350   24.1950 C   0  0  0  0  0  3  0  0  0  0  0  0
  -25.6740  -34.0600   24.4110 N   0  0  0  0  0  0  0  0  0  0  0  0
  -26.0610  -35.0450   23.5890 C   0  0  0  0  0  0  0  0  0  0  0  0
  -26.7640  -34.8510   22.5930 O   0  0  0  0  0  0  0  0  0  0  0  0
  -25.0550  -34.2880   25.1760 H   0  0  0  0  0  0  0  0  0  0  0  0
  -24.3810  -36.8360   23.0500 C   0  0  0  0  0  1  0  0  0  0  0  0
  -25.5910  -36.4730   23.9260 C   0  0  0  0  0  3  0  0  0  0  0  0
  -27.7120  -37.3820   24.7600 C   0  0  0  0  0  1  0  0  0  0  0  0
  -26.6480  -37.4940   23.7650 N   0  0  0  0  0  0  0  0  0  0  0  0
  -26.2580  -38.4300   23.8210 H   0  0  0  0  0  0  0  0  0  0  0  0
  -26.3930  -31.9400   25.5440 C   0  0  1  0  0  0  0  0  0  0  0  0
  -25.2360  -31.7630   26.5540 C   0  0  0  0  0  1  0  0  0  0  0  0
  -26.9970  -30.5430   25.2670 C   0  0  0  0  0  1  0  0  0  0  0  0
  -27.5050  -32.7710   26.2250 C   0  0  0  0  0  1  0  0  0  0  0  0
  -27.5830  -22.4110   16.9680 C   0  0  0  0  0  2  0  0  0  0  0  0
  -27.3170  -21.4330   18.1260 C   0  0  0  0  0  2  0  0  0  0  0  0
  -28.6050  -20.7040   18.5430 C   0  0  0  0  0  2  0  0  0  0  0  0
  -28.4220  -19.7410   19.7290 C   0  0  0  0  0  2  0  0  0  0  0  0
  -29.7210  -19.1690   20.1350 N   0  0  0  0  0  4  0  0  0  0  0  0
  -30.2840  -19.8990   20.5440 H   0  0  0  0  0  0  0  0  0  0  0  0
  -30.1960  -18.8430   19.3080 H   0  0  0  0  0  0  0  0  0  0  0  0
  -29.6360  -18.0440   21.0850 C   0  0  0  0  0  2  0  0  0  0  0  0
  -31.0390  -17.4980   21.4100 C   0  0  0  0  0  2  0  0  0  0  0  0
  -31.0480  -16.1990   22.2390 C   0  0  0  0  0  2  0  0  0  0  0  0
  -30.7580  -14.4400   20.4790 C   0  0  0  0  0  0  0  0  0  0  0  0
  -30.3330  -12.5200   18.9890 C   0  0  0  0  0  2  0  0  0  0  0  0
  -29.3420  -12.8750   17.8670 C   0  0  0  0  0  2  0  0  0  0  0  0
  -27.8890  -12.6810   18.3400 C   0  0  0  0  0  2  0  0  0  0  0  0
  -27.6130  -13.3710   19.7010 C   0  0  0  0  0  3  0  0  0  0  0  0
  -28.7020  -13.0010   20.7310 C   0  0  0  0  0  2  0  0  0  0  0  0
  -30.0200  -13.3480   20.1630 N   0  0  0  0  0  0  0  0  0  0  0  0
  -31.7450  -14.8060   19.8340 O   0  0  0  0  0  0  0  0  0  0  0  0
  -30.3620  -15.0840   21.5860 N   0  0  0  0  0  0  0  0  0  0  0  0
  -29.5570  -14.6970   22.0580 H   0  0  0  0  0  0  0  0  0  0  0  0
  -25.2070  -13.9030   20.4550 C   0  0  0  0  0  0  0  0  0  0  0  0
  -24.1690  -13.0950   20.8360 C   0  0  0  0  0  0  0  0  0  0  0  0
  -24.6700  -11.7580   20.7810 C   0  0  0  0  0  0  0  0  0  0  0  0
  -26.2750  -13.0560   20.1970 N   0  0  0  0  0  0  0  0  0  0  0  0
  -25.9540  -11.7600   20.4460 N   0  0  0  0  0  0  0  0  0  0  0  0
  -23.9860  -10.4730   20.9710 C   0  0  0  0  0  0  0  0  0  0  0  0
  -24.4150   -9.5460   21.9480 C   0  0  0  0  0  3  0  0  0  0  0  0
  -23.7310   -8.3240   22.1240 C   0  0  0  0  0  3  0  0  0  0  0  0
  -22.6030   -8.0200   21.3230 C   0  0  0  0  0  0  0  0  0  0  0  0
  -22.1960   -8.9360   20.3380 C   0  0  0  0  0  3  0  0  0  0  0  0
  -22.8810  -10.1500   20.1610 C   0  0  0  0  0  3  0  0  0  0  0  0
  -21.8940   -6.8470   21.4060 O   0  0  0  0  0  0  0  0  0  0  0  0
  -21.7790   -6.1570   22.5860 C   0  0  0  0  0  0  0  0  0  0  0  0
  -21.1780   -6.7280   23.7280 C   0  0  0  0  0  3  0  0  0  0  0  0
  -21.0180   -5.9600   24.8980 C   0  0  0  0  0  3  0  0  0  0  0  0
  -21.4480   -4.6200   24.9260 C   0  0  0  0  0  0  0  0  0  0  0  0
  -22.0410   -4.0470   23.7880 C   0  0  0  0  0  3  0  0  0  0  0  0
  -22.2030   -4.8130   22.6190 C   0  0  0  0  0  0  0  0  0  0  0  0
  -22.7570   -4.2500   21.5180 F   0  0  0  0  0  0  0  0  0  0  0  0
  -21.2870   -3.8790   26.0470 F   0  0  0  0  0  0  0  0  0  0  0  0
  -22.7640  -13.5270   21.1420 C   0  0  0  0  0  0  0  0  0  0  0  0
  -22.0720  -12.7930   22.0070 N   0  0  0  0  0  0  0  0  0  0  0  0
  -22.2890  -14.5490   20.6500 O   0  0  0  0  0  0  0  0  0  0  0  0
  -22.4710  -11.9670   22.4270 H   0  0  0  0  0  0  0  0  0  0  0  0
  -21.1310  -13.0630   22.2530 H   0  0  0  0  0  0  0  0  0  0  0  0
  -25.3290  -15.2790   20.2890 N   0  0  0  0  0  0  0  0  0  0  0  0
  -24.5440  -15.9100   20.4140 H   0  0  0  0  0  0  0  0  0  0  0  0
  -26.1600  -15.7420   19.9450 H   0  0  0  0  0  0  0  0  0  0  0  0
  1 51  1  0
  1  2  1  0
  3  1  1  0
  4  1  1  0
  4  5  1  0
  5  6  1  0
  6  8  1  0
  7  6  1  0
  8  9  1  0
  9 10  1  0
 11 22  2  0
 12 10  1  0
 12 17  1  0
 13 21  1  0
 13 23  1  0
 14 16  1  0
 15 21  1  0
 16 17  2  0
 16 15  1  0
 18 12  2  0
 19 18  1  0
 19 14  2  0
 20 14  1  0
 20 13  1  0
 21 11  1  0
 23 25  2  0
 24 23  1  0
 26 24  1  0
 27 32  1  0
 28 24  1  0
 29 28  1  0
 30 31  1  0
 30 29  1  0
 31 27  1  0
 32 28  1  0
 32 33  2  0
 34 33  1  0
 35 34  2  0
 36 27  2  0
 36 35  1  0
 37 11  1  0
 37 38  1  0
 37 47  1  0
 38 41  1  0
 39 43  1  0
 39 38  1  0
 40 39  2  0
 43 42  1  0
 45 46  1  0
 45 43  1  0
 45 44  1  0
 47 50  1  1
 47 48  1  0
 49 47  1  0
 51 52  1  0
 52 53  1  0
 53 54  1  0
 54 55  1  0
 55 56  1  0
 55 58  1  0
 57 55  1  0
 58 59  1  0
 59 60  1  0
 61 69  1  0
 62 67  1  0
 63 64  1  0
 63 62  1  0
 65 64  1  0
 65 74  1  0
 65 66  1  0
 67 61  1  0
 67 66  1  0
 68 61  2  0
 69 70  1  0
 69 60  1  0
 71 72  2  0
 72 91  1  0
 73 72  1  0
 73 76  1  0
 74 75  1  0
 74 71  1  0
 75 73  2  0
 76 77  1  0
 77 78  2  0
 79 82  1  0
 79 78  1  0
 80 79  2  0
 81 80  1  0
 81 76  2  0
 82 83  1  0
 83 88  2  0
 83 84  1  0
 84 85  2  0
 85 86  1  0
 86 90  1  0
 87 86  2  0
 88 87  1  0
 89 88  1  0
 91 92  1  0
 92 95  1  0
 92 94  1  0
 93 91  2  0
 96 97  1  0
 96 71  1  0
 98 96  1  0
M  ISO  4   9 101  10 101  61 100  69 100
M  END
>  <TORSDO>  (55) 
F 29

>  <SCORE>  (55) 
-8.876

>  <name>  (55) 
55

>  <ligand_id>  (55) 
55

>  <original_smiles>  (55) 
[H]c1c([H])c([H])c2c(c1[H])C([H])([H])C([H])([H])C([H])([H])C2([H])N([H])C(=O)C1([H])N(C(=O)C([H])(N([H])C(=O)C([H])(N([H])C([H])([H])[H])C([H])([H])[H])C(C([H])([H])[H])(C([H])([H])[H])C([H])([H])[H])C([H])([H])c2c([H])c(OC([H])([H])C([H])([H])N([H])C([H])([H])C([H])([H])[N+]([H])([H])C([H])([H])C([H])([H])C([H])([H])C([H])([H])[N+]([H])([H])C([H])([H])C([H])([H])C([H])([H])N([H])C(=O)N3C([H])([H])C([H])([H])C([H])([H])C([H])(n4nc(-c5c([H])c([H])c(Oc6c([H])c([H])c(F)c([H])c6F)c([H])c5[H])c(C(=O)N([H])[H])c4N([H])[H])C3([H])[H])c([H])c([H])c2C1([H])[H]

>  <smiles>  (55) 
[H]c1c([H])c([H])c2c(c1[H])C([H])([H])C([H])([H])C([H])([H])C2([H])N([H])C(=O)C1([H])N(C(=O)C([H])(N([H])C(=O)C([H])(N([H])C([H])([H])[H])C([H])([H])[H])C(C([H])([H])[H])(C([H])([H])[H])C([H])([H])[H])C([H])([H])c2c([H])c(OC([H])([H])C([H])([H])N([H])C([H])([H])C([H])([H])[N+]([H])([H])C([H])([H])C([H])([H])C([H])([H])C([H])([H])[N+]([H])([H])C([H])([H])C([H])([H])C([H])([H])N([H])C(=O)N3C([H])([H])C([H])([H])C([H])([H])C([H])(n4nc(-c5c([H])c([H])c(Oc6c([H])c([H])c(F)c([H])c6F)c([H])c5[H])c(C(=O)N([H])[H])c4N([H])[H])C3([H])[H])c([H])c([H])c2C1([H])[H]

$$$$
56:0:0
     RDKit          3D

101110  0  0  1  0  0  0  0  0999 V2000
  -25.3550  -28.0330   19.0740 N   0  0  0  0  0  4  0  0  0  0  0  0
  -24.6610  -27.3460   19.3240 H   0  0  0  0  0  0  0  0  0  0  0  0
  -25.1200  -28.8810   19.5640 H   0  0  0  0  0  0  0  0  0  0  0  0
  -25.3060  -28.2940   17.6200 C   0  0  0  0  0  2  0  0  0  0  0  0
  -26.6930  -28.2370   16.9500 C   0  0  0  0  0  2  0  0  0  0  0  0
  -26.6790  -27.3960   15.6540 C   0  0  0  0  0  2  0  0  0  0  0  0
  -27.6990  -27.9450   14.6270 C   0  0  0  0  0  2  0  0  0  0  0  0
  -29.1900  -27.8300   15.0260 C   0  0  0  0  0  2  0  0  0  0  0  0
  -29.7850  -26.5600   14.5390 N   0  0  0  0  0  4  0  0  0  0  0  0
  -29.7690  -25.9040   15.3040 H   0  0  0  0  0  0  0  0  0  0  0  0
  -30.7480  -26.7390   14.3010 H   0  0  0  0  0  0  0  0  0  0  0  0
  -29.1260  -25.9380   13.3580 C   0  0  0  0  0  2  0  0  0  0  0  0
  -29.9910  -24.8230   12.7030 C   0  0  0  0  0  2  0  0  0  0  0  0
  -31.4370  -24.7110   13.2600 C   0  0  0  0  0  2  0  0  0  0  0  0
  -32.3180  -23.3150   11.2630 C   0  0  0  0  0  0  0  0  0  0  0  0
  -31.4470  -23.0070    8.9760 C   0  0  0  0  0  2  0  0  0  0  0  0
  -31.5550  -24.3440    8.2120 C   0  0  0  0  0  2  0  0  0  0  0  0
  -30.3400  -25.2560    8.4980 C   0  0  0  0  0  2  0  0  0  0  0  0
  -29.9910  -25.3470   10.0090 C   0  0  0  0  0  3  0  0  0  0  0  0
  -29.9410  -23.9240   10.6100 C   0  0  0  0  0  2  0  0  0  0  0  0
  -31.2620  -23.3280   10.4000 N   0  0  0  0  0  0  0  0  0  0  0  0
  -33.3620  -22.7120   11.0010 O   0  0  0  0  0  0  0  0  0  0  0  0
  -32.3860  -24.2670   12.2200 N   0  0  0  0  0  0  0  0  0  0  0  0
  -33.3500  -24.4130   12.4840 H   0  0  0  0  0  0  0  0  0  0  0  0
  -28.5590  -27.3900   10.6470 C   0  0  0  0  0  0  0  0  0  0  0  0
  -27.2040  -27.5950   10.6320 C   0  0  0  0  0  0  0  0  0  0  0  0
  -26.6260  -26.3700   10.1810 C   0  0  0  0  0  0  0  0  0  0  0  0
  -28.7470  -26.0790   10.2310 N   0  0  0  0  0  0  0  0  0  0  0  0
  -27.5680  -25.4550    9.9910 N   0  0  0  0  0  0  0  0  0  0  0  0
  -25.2340  -26.0340    9.8540 C   0  0  0  0  0  0  0  0  0  0  0  0
  -24.3770  -25.4410   10.8070 C   0  0  0  0  0  3  0  0  0  0  0  0
  -23.0390  -25.1430   10.4760 C   0  0  0  0  0  3  0  0  0  0  0  0
  -22.5430  -25.4390    9.1830 C   0  0  0  0  0  0  0  0  0  0  0  0
  -23.4060  -26.0100    8.2340 C   0  0  0  0  0  3  0  0  0  0  0  0
  -24.7420  -26.3010    8.5610 C   0  0  0  0  0  3  0  0  0  0  0  0
  -21.2610  -25.1650    8.7680 O   0  0  0  0  0  0  0  0  0  0  0  0
  -20.1710  -25.7490    9.3620 C   0  0  0  0  0  0  0  0  0  0  0  0
  -19.9640  -27.1460    9.3280 C   0  0  0  0  0  3  0  0  0  0  0  0
  -18.7950  -27.6990    9.8870 C   0  0  0  0  0  3  0  0  0  0  0  0
  -17.8280  -26.8610   10.4730 C   0  0  0  0  0  0  0  0  0  0  0  0
  -18.0290  -25.4690   10.5030 C   0  0  0  0  0  3  0  0  0  0  0  0
  -19.1970  -24.9150    9.9490 C   0  0  0  0  0  0  0  0  0  0  0  0
  -19.3740  -23.5720    9.9620 F   0  0  0  0  0  0  0  0  0  0  0  0
  -16.7030  -27.3920   11.0040 F   0  0  0  0  0  0  0  0  0  0  0  0
  -26.4940  -28.8850   10.9300 C   0  0  0  0  0  0  0  0  0  0  0  0
  -25.2720  -28.8020   11.4500 N   0  0  0  0  0  0  0  0  0  0  0  0
  -27.0350  -29.9710   10.7430 O   0  0  0  0  0  0  0  0  0  0  0  0
  -24.8330  -27.9120   11.6270 H   0  0  0  0  0  0  0  0  0  0  0  0
  -24.7660  -29.6460   11.6760 H   0  0  0  0  0  0  0  0  0  0  0  0
  -29.6400  -28.2070   10.9600 N   0  0  0  0  0  0  0  0  0  0  0  0
  -29.5260  -29.1940   11.1620 H   0  0  0  0  0  0  0  0  0  0  0  0
  -30.6050  -27.9450   10.7970 H   0  0  0  0  0  0  0  0  0  0  0  0
  -26.6920  -27.6020   19.5460 C   0  0  0  0  0  2  0  0  0  0  0  0
  -26.9700  -28.1250   20.9660 C   0  0  0  0  0  2  0  0  0  0  0  0
  -28.0570  -27.3360   21.7300 C   0  0  1  0  0  0  0  0  0  0  0  0
  -27.9570  -27.5260   23.1950 N   0  0  0  0  0  4  0  0  0  0  0  0
  -28.7070  -28.1150   23.5200 H   0  0  0  0  0  0  0  0  0  0  0  0
  -28.0930  -26.6260   23.6350 H   0  0  0  0  0  0  0  0  0  0  0  0
  -26.6490  -28.0610   23.6460 C   0  0  0  0  0  2  0  0  0  0  0  0
  -26.6880  -29.5750   23.9840 C   0  0  0  0  0  2  0  0  0  0  0  0
  -27.9920  -30.1890   23.9360 O   0  0  0  0  0  0  0  0  0  0  0  0
  -31.1920  -24.6900   20.7310 C   0  0  0  0  0  0  0  0  0  0  0  0
  -28.9250  -29.7400   23.0190 C   0  0  0  0  0  0  0  0  0  0  0  0
  -32.2870  -26.8930   20.4220 C   0  0  0  0  0  3  0  0  0  0  0  0
  -30.9290  -28.9100   21.1930 C   0  0  0  0  0  0  0  0  0  0  0  0
  -29.7670  -26.7300   20.7970 C   0  0  0  0  0  2  0  0  0  0  0  0
  -29.8420  -28.0770   21.4740 C   0  0  2  0  0  0  0  0  0  0  0  0
  -28.8370  -28.4890   22.3640 C   0  0  0  0  0  3  0  0  0  0  0  0
  -30.0350  -30.5680   22.7390 C   0  0  0  0  0  3  0  0  0  0  0  0
  -31.0340  -30.1640   21.8260 C   0  0  0  0  0  3  0  0  0  0  0  0
  -31.9400  -28.3920   20.1970 C   0  0  0  0  0  2  0  0  0  0  0  0
  -31.0750  -26.0480   20.6830 N   0  0  0  0  0  0  0  0  0  0  0  0
  -32.2760  -24.1320   20.5100 O   0  0  0  0  0  0  0  0  0  0  0  0
  -33.3460  -26.8070   21.5410 C   0  0  0  0  0  0  0  0  0  0  0  0
  -34.6170  -27.0340   21.1750 N   0  0  0  0  0  0  0  0  0  0  0  0
  -33.0160  -26.5810   22.7100 O   0  0  0  0  0  0  0  0  0  0  0  0
  -34.8020  -27.2050   20.1970 H   0  0  0  0  0  0  0  0  0  0  0  0
  -38.2250  -27.2270   21.2470 C   0  0  0  0  0  0  0  0  0  0  0  0
  -35.7780  -27.0550   22.0610 C   0  0  0  0  0  3  0  0  0  0  0  0
  -35.9880  -28.4580   22.6750 C   0  0  0  0  0  2  0  0  0  0  0  0
  -36.9650  -29.3320   21.8820 C   0  0  0  0  0  2  0  0  0  0  0  0
  -38.3310  -28.6470   21.7780 C   0  0  0  0  0  2  0  0  0  0  0  0
  -37.0210  -26.4840   21.3710 C   0  0  0  0  0  0  0  0  0  0  0  0
  -36.9650  -25.1760   20.8400 C   0  0  0  0  0  3  0  0  0  0  0  0
  -38.0850  -24.6100   20.2000 C   0  0  0  0  0  3  0  0  0  0  0  0
  -39.2770  -25.3460   20.0940 C   0  0  0  0  0  3  0  0  0  0  0  0
  -39.3490  -26.6470   20.6220 C   0  0  0  0  0  3  0  0  0  0  0  0
  -29.9680  -23.7710   21.0370 C   0  0  0  0  0  3  0  0  0  0  0  0
  -29.7710  -22.8920   19.8750 N   0  0  0  0  0  0  0  0  0  0  0  0
  -28.8720  -23.1070   18.9070 C   0  0  0  0  0  0  0  0  0  0  0  0
  -28.0650  -24.0410   18.9360 O   0  0  0  0  0  0  0  0  0  0  0  0
  -30.4340  -22.1390   19.7590 H   0  0  0  0  0  0  0  0  0  0  0  0
  -29.6000  -22.7780   16.5230 C   0  0  0  0  0  1  0  0  0  0  0  0
  -28.8680  -22.1350   17.7130 C   0  0  0  0  0  3  0  0  0  0  0  0
  -26.8580  -20.8360   18.2620 C   0  0  0  0  0  1  0  0  0  0  0  0
  -27.5100  -21.7190   17.2990 N   0  0  0  0  0  0  0  0  0  0  0  0
  -27.5350  -21.2460   16.4000 H   0  0  0  0  0  0  0  0  0  0  0  0
  -30.1370  -22.9230   22.3570 C   0  0  1  0  0  0  0  0  0  0  0  0
  -31.4710  -22.1420   22.4300 C   0  0  0  0  0  1  0  0  0  0  0  0
  -30.0510  -23.8400   23.6000 C   0  0  0  0  0  1  0  0  0  0  0  0
  -28.9810  -21.9030   22.4790 C   0  0  0  0  0  1  0  0  0  0  0  0
  1  2  1  0
  1 53  1  0
  1  3  1  0
  4  1  1  0
  5  4  1  0
  6  5  1  0
  7  8  1  0
  7  6  1  0
  9  8  1  0
  9 10  1  0
 11  9  1  0
 12  9  1  0
 13 14  1  0
 13 12  1  0
 15 23  1  0
 16 21  1  0
 17 18  1  0
 17 16  1  0
 19 18  1  0
 19 28  1  0
 19 20  1  0
 21 20  1  0
 21 15  1  0
 22 15  2  0
 23 24  1  0
 23 14  1  0
 25 50  1  0
 26 25  2  0
 26 45  1  0
 27 26  1  0
 28 25  1  0
 29 27  2  0
 29 28  1  0
 30 27  1  0
 30 31  1  0
 32 31  2  0
 33 32  1  0
 34 35  1  0
 34 33  2  0
 35 30  2  0
 36 33  1  0
 36 37  1  0
 37 42  1  0
 38 37  2  0
 38 39  1  0
 39 40  2  0
 40 41  1  0
 40 44  1  0
 42 43  1  0
 42 41  2  0
 45 46  1  0
 46 48  1  0
 46 49  1  0
 47 45  2  0
 50 51  1  0
 52 50  1  0
 53 54  1  0
 55 54  1  6
 55 68  1  0
 55 56  1  0
 56 57  1  0
 56 58  1  0
 56 59  1  0
 59 60  1  0
 61 60  1  0
 63 61  1  0
 64 72  1  0
 64 74  1  0
 65 67  1  0
 65 70  2  0
 67 66  1  1
 67 55  1  0
 67 68  1  0
 68 63  1  0
 69 63  2  0
 70 69  1  0
 71 64  1  0
 71 65  1  0
 72 62  1  0
 72 66  1  0
 73 62  2  0
 74 76  2  0
 75 74  1  0
 77 75  1  0
 78 83  1  0
 78 82  1  0
 79 75  1  0
 79 80  1  0
 81 80  1  0
 82 81  1  0
 83 79  1  0
 84 83  2  0
 85 84  1  0
 86 85  2  0
 86 87  1  0
 87 78  2  0
 88 62  1  0
 88 98  1  0
 89 88  1  0
 90 91  2  0
 90 89  1  0
 92 89  1  0
 94 93  1  0
 94 90  1  0
 96 94  1  0
 96 95  1  0
 97 96  1  0
 98 99  1  6
 98101  1  0
 98100  1  0
M  ISO  4  15 100  23 100  60 101  61 101
M  END
>  <TORSDO>  (56) 
F 31

>  <SCORE>  (56) 
-1.869

>  <name>  (56) 
56

>  <ligand_id>  (56) 
56

>  <original_smiles>  (56) 
[H]c1c([H])c([H])c2c(c1[H])C([H])([H])C([H])([H])C([H])([H])C2([H])N([H])C(=O)C1([H])N(C(=O)C([H])(N([H])C(=O)C([H])(N([H])C([H])([H])[H])C([H])([H])[H])C(C([H])([H])[H])(C([H])([H])[H])C([H])([H])[H])C([H])([H])c2c([H])c(OC([H])([H])C([H])([H])[N+]([H])([H])C([H])([H])C([H])([H])C([H])([H])[N+]([H])([H])C([H])([H])C([H])([H])C([H])([H])C([H])([H])C([H])([H])[N+]([H])([H])C([H])([H])C([H])([H])C([H])([H])N([H])C(=O)N3C([H])([H])C([H])([H])C([H])([H])C([H])(n4nc(-c5c([H])c([H])c(Oc6c([H])c([H])c(F)c([H])c6F)c([H])c5[H])c(C(=O)N([H])[H])c4N([H])[H])C3([H])[H])c([H])c([H])c2C1([H])[H]

>  <smiles>  (56) 
[H]c1c([H])c([H])c2c(c1[H])C([H])([H])C([H])([H])C([H])([H])C2([H])N([H])C(=O)C1([H])N(C(=O)C([H])(N([H])C(=O)C([H])(N([H])C([H])([H])[H])C([H])([H])[H])C(C([H])([H])[H])(C([H])([H])[H])C([H])([H])[H])C([H])([H])c2c([H])c(OC([H])([H])C([H])([H])[N+]([H])([H])C([H])([H])C([H])([H])C([H])([H])[N+]([H])([H])C([H])([H])C([H])([H])C([H])([H])C([H])([H])C([H])([H])[N+]([H])([H])C([H])([H])C([H])([H])C([H])([H])N([H])C(=O)N3C([H])([H])C([H])([H])C([H])([H])C([H])(n4nc(-c5c([H])c([H])c(Oc6c([H])c([H])c(F)c([H])c6F)c([H])c5[H])c(C(=O)N([H])[H])c4N([H])[H])C3([H])[H])c([H])c([H])c2C1([H])[H]

$$$$
57:0:0
     RDKit          3D

 98105  0  0  1  0  0  0  0  0999 V2000
  -30.1750  -23.5570   25.2820 C   0  0  0  0  0  2  0  0  0  0  0  0
  -30.3570  -22.0590   25.5820 C   0  0  0  0  0  2  0  0  0  0  0  0
  -31.5590  -21.4440   24.8500 C   0  0  0  0  0  2  0  0  0  0  0  0
  -31.1010  -20.3100   24.1290 O   0  0  0  0  0  0  0  0  0  0  0  0
  -32.0050  -19.9030   23.1090 C   0  0  0  0  0  2  0  0  0  0  0  0
  -31.1800  -19.5360   21.8710 C   0  0  0  0  0  2  0  0  0  0  0  0
  -30.2110  -20.6090   21.5460 N   0  0  0  0  0  4  0  0  0  0  0  0
  -29.5670  -20.6880   22.3190 H   0  0  0  0  0  0  0  0  0  0  0  0
  -30.7060  -21.4850   21.4800 H   0  0  0  0  0  0  0  0  0  0  0  0
  -29.4680  -20.3910   20.2890 C   0  0  0  0  0  2  0  0  0  0  0  0
  -28.3530  -21.4340   20.0710 C   0  0  0  0  0  2  0  0  0  0  0  0
  -27.4790  -21.0610   18.8640 C   0  0  0  0  0  2  0  0  0  0  0  0
  -25.7520  -22.4490   17.7200 C   0  0  0  0  0  0  0  0  0  0  0  0
  -23.6520  -22.4770   16.4340 C   0  0  0  0  0  2  0  0  0  0  0  0
  -23.0140  -23.8590   16.2410 C   0  0  0  0  0  2  0  0  0  0  0  0
  -22.1160  -24.2110   17.4390 C   0  0  0  0  0  2  0  0  0  0  0  0
  -22.8420  -24.0200   18.7950 C   0  0  0  0  0  3  0  0  0  0  0  0
  -23.5280  -22.6390   18.8750 C   0  0  0  0  0  2  0  0  0  0  0  0
  -24.4000  -22.4660   17.6980 N   0  0  0  0  0  0  0  0  0  0  0  0
  -26.4640  -22.7200   16.7460 O   0  0  0  0  0  0  0  0  0  0  0  0
  -26.2360  -21.8280   18.8010 N   0  0  0  0  0  0  0  0  0  0  0  0
  -25.5510  -21.6260   19.5160 H   0  0  0  0  0  0  0  0  0  0  0  0
  -21.9930  -25.1700   20.9370 C   0  0  0  0  0  0  0  0  0  0  0  0
  -20.8580  -24.9910   21.6830 C   0  0  0  0  0  0  0  0  0  0  0  0
  -20.1370  -23.9290   21.0560 C   0  0  0  0  0  0  0  0  0  0  0  0
  -21.9300  -24.2330   19.9170 N   0  0  0  0  0  0  0  0  0  0  0  0
  -20.8260  -23.4490   20.0280 N   0  0  0  0  0  0  0  0  0  0  0  0
  -18.8050  -23.3790   21.3410 C   0  0  0  0  0  0  0  0  0  0  0  0
  -18.5970  -21.9890   21.4880 C   0  0  0  0  0  3  0  0  0  0  0  0
  -17.3110  -21.4850   21.7780 C   0  0  0  0  0  3  0  0  0  0  0  0
  -16.2180  -22.3720   21.9280 C   0  0  0  0  0  0  0  0  0  0  0  0
  -16.4270  -23.7520   21.7570 C   0  0  0  0  0  3  0  0  0  0  0  0
  -17.7060  -24.2520   21.4630 C   0  0  0  0  0  3  0  0  0  0  0  0
  -14.9300  -21.9720   22.1850 O   0  0  0  0  0  0  0  0  0  0  0  0
  -14.6550  -20.7750   22.7980 C   0  0  0  0  0  0  0  0  0  0  0  0
  -15.1860  -20.4500   24.0650 C   0  0  0  0  0  3  0  0  0  0  0  0
  -14.8230  -19.2400   24.6900 C   0  0  0  0  0  3  0  0  0  0  0  0
  -13.9260  -18.3610   24.0560 C   0  0  0  0  0  0  0  0  0  0  0  0
  -13.3940  -18.6850   22.7960 C   0  0  0  0  0  3  0  0  0  0  0  0
  -13.7550  -19.8910   22.1700 C   0  0  0  0  0  0  0  0  0  0  0  0
  -13.2230  -20.2100   20.9660 F   0  0  0  0  0  0  0  0  0  0  0  0
  -13.5710  -17.2010   24.6590 F   0  0  0  0  0  0  0  0  0  0  0  0
  -20.4160  -25.8200   22.8540 C   0  0  0  0  0  0  0  0  0  0  0  0
  -19.6890  -25.2210   23.7920 N   0  0  0  0  0  0  0  0  0  0  0  0
  -20.7560  -26.9980   22.9680 O   0  0  0  0  0  0  0  0  0  0  0  0
  -19.4280  -24.2490   23.7080 H   0  0  0  0  0  0  0  0  0  0  0  0
  -19.3920  -25.7410   24.6040 H   0  0  0  0  0  0  0  0  0  0  0  0
  -23.0610  -26.0580   21.0300 N   0  0  0  0  0  0  0  0  0  0  0  0
  -23.1060  -26.7850   21.7360 H   0  0  0  0  0  0  0  0  0  0  0  0
  -23.8320  -26.0920   20.3740 H   0  0  0  0  0  0  0  0  0  0  0  0
  -28.7300  -24.0320   25.5130 C   0  0  0  0  0  2  0  0  0  0  0  0
  -28.3860  -25.3370   24.7710 C   0  0  0  0  0  2  0  0  0  0  0  0
  -28.1640  -25.1040   23.3250 N   0  0  0  0  0  4  0  0  0  0  0  0
  -27.6950  -24.2160   23.2300 H   0  0  0  0  0  0  0  0  0  0  0  0
  -29.0480  -25.0200   22.8470 H   0  0  0  0  0  0  0  0  0  0  0  0
  -27.3240  -26.1160   22.6440 C   0  0  0  0  0  2  0  0  0  0  0  0
  -28.0670  -27.4260   22.3280 C   0  0  0  0  0  2  0  0  0  0  0  0
  -27.1040  -28.4560   22.1260 O   0  0  0  0  0  0  0  0  0  0  0  0
  -28.5160  -32.0690   28.1070 C   0  0  0  0  0  0  0  0  0  0  0  0
  -26.6430  -29.0560   23.2680 C   0  0  0  0  0  0  0  0  0  0  0  0
  -26.1930  -31.2480   27.8520 C   0  0  0  0  0  3  0  0  0  0  0  0
  -25.5910  -30.3320   25.5490 C   0  0  0  0  0  0  0  0  0  0  0  0
  -27.6290  -31.7640   25.8010 C   0  0  0  0  0  2  0  0  0  0  0  0
  -26.8610  -30.6840   25.0710 C   0  0  0  0  0  0  0  0  0  0  0  0
  -27.3950  -30.0460   23.9350 C   0  0  0  0  0  3  0  0  0  0  0  0
  -25.3650  -28.7080   23.7510 C   0  0  0  0  0  3  0  0  0  0  0  0
  -24.8400  -29.3370   24.8970 C   0  0  0  0  0  3  0  0  0  0  0  0
  -25.0930  -31.0720   26.7680 C   0  0  0  0  0  2  0  0  0  0  0  0
  -27.5060  -31.6880   27.2750 N   0  0  0  0  0  0  0  0  0  0  0  0
  -28.3580  -32.1000   29.3340 O   0  0  0  0  0  0  0  0  0  0  0  0
  -26.2930  -29.9400   28.6680 C   0  0  0  0  0  0  0  0  0  0  0  0
  -25.2950  -29.6990   29.5330 N   0  0  0  0  0  0  0  0  0  0  0  0
  -27.2320  -29.1580   28.4980 O   0  0  0  0  0  0  0  0  0  0  0  0
  -24.5670  -30.3950   29.6180 H   0  0  0  0  0  0  0  0  0  0  0  0
  -23.1540  -28.0970   31.9610 C   0  0  0  0  0  0  0  0  0  0  0  0
  -25.1560  -28.5150   30.3790 C   0  0  0  0  0  3  0  0  0  0  0  0
  -24.6320  -27.3090   29.5650 C   0  0  0  0  0  2  0  0  0  0  0  0
  -23.1080  -27.1670   29.6080 C   0  0  0  0  0  2  0  0  0  0  0  0
  -22.6250  -27.0000   31.0520 C   0  0  0  0  0  2  0  0  0  0  0  0
  -24.3340  -28.8180   31.6360 C   0  0  0  0  0  0  0  0  0  0  0  0
  -24.7650  -29.8500   32.4980 C   0  0  0  0  0  3  0  0  0  0  0  0
  -24.0430  -30.1630   33.6650 C   0  0  0  0  0  3  0  0  0  0  0  0
  -22.8860  -29.4330   33.9900 C   0  0  0  0  0  3  0  0  0  0  0  0
  -22.4460  -28.4010   33.1420 C   0  0  0  0  0  3  0  0  0  0  0  0
  -29.9110  -32.5040   27.5540 C   0  0  0  0  0  3  0  0  0  0  0  0
  -30.3450  -33.6790   28.3190 N   0  0  0  0  0  0  0  0  0  0  0  0
  -30.2200  -34.9460   27.8990 C   0  0  0  0  0  0  0  0  0  0  0  0
  -29.7900  -35.2430   26.7820 O   0  0  0  0  0  0  0  0  0  0  0  0
  -30.6550  -33.5120   29.2640 H   0  0  0  0  0  0  0  0  0  0  0  0
  -29.3900  -36.6340   29.5660 C   0  0  0  0  0  1  0  0  0  0  0  0
  -30.6390  -36.0590   28.8770 C   0  0  0  0  0  3  0  0  0  0  0  0
  -32.7240  -36.7420   27.7750 C   0  0  0  0  0  1  0  0  0  0  0  0
  -31.3980  -37.1530   28.2320 N   0  0  0  0  0  0  0  0  0  0  0  0
  -31.5120  -37.9370   28.8670 H   0  0  0  0  0  0  0  0  0  0  0  0
  -30.9930  -31.3590   27.6260 C   0  0  1  0  0  0  0  0  0  0  0  0
  -31.1250  -30.7170   29.0270 C   0  0  0  0  0  1  0  0  0  0  0  0
  -30.6630  -30.2340   26.6180 C   0  0  0  0  0  1  0  0  0  0  0  0
  -32.3770  -31.9190   27.2270 C   0  0  0  0  0  1  0  0  0  0  0  0
  1 51  1  0
  1  2  1  0
  3  2  1  0
  4  3  1  0
  5  4  1  0
  6  5  1  0
  7  6  1  0
  7  8  1  0
  9  7  1  0
 10  7  1  0
 11 10  1  0
 12 11  1  0
 13 21  1  0
 14 19  1  0
 15 14  1  0
 15 16  1  0
 17 16  1  0
 17 18  1  0
 17 26  1  0
 19 13  1  0
 19 18  1  0
 20 13  2  0
 21 12  1  0
 21 22  1  0
 23 48  1  0
 23 24  2  0
 24 43  1  0
 25 28  1  0
 25 24  1  0
 26 27  1  0
 26 23  1  0
 27 25  2  0
 28 33  2  0
 28 29  1  0
 29 30  2  0
 30 31  1  0
 31 34  1  0
 32 31  2  0
 33 32  1  0
 34 35  1  0
 35 36  1  0
 36 37  2  0
 38 42  1  0
 38 37  1  0
 39 38  2  0
 40 39  1  0
 40 35  2  0
 41 40  1  0
 43 45  2  0
 43 44  1  0
 44 47  1  0
 46 44  1  0
 48 49  1  0
 50 48  1  0
 52 51  1  0
 53 52  1  0
 54 53  1  0
 55 53  1  0
 56 53  1  0
 57 56  1  0
 58 57  1  0
 58 60  1  0
 59 70  2  0
 60 66  2  0
 60 65  1  0
 61 71  1  0
 62 68  1  0
 63 69  1  0
 64 62  1  0
 64 63  1  0
 65 64  2  0
 66 67  1  0
 67 62  2  0
 68 61  1  0
 69 61  1  0
 69 59  1  0
 71 72  1  0
 72 74  1  0
 73 71  2  0
 75 84  1  0
 76 72  1  0
 76 80  1  0
 77 78  1  0
 77 76  1  0
 78 79  1  0
 79 75  1  0
 80 75  2  0
 80 81  1  0
 81 82  2  0
 82 83  1  0
 84 83  2  0
 85 95  1  0
 85 59  1  0
 85 86  1  0
 86 89  1  0
 87 86  1  0
 87 91  1  0
 88 87  2  0
 91 90  1  0
 92 93  1  0
 93 94  1  0
 93 91  1  0
 95 96  1  1
 97 95  1  0
 98 95  1  0
M  ISO  4  13 100  21 100  57 101  58 101
M  END
>  <TORSDO>  (57) 
F 30

>  <SCORE>  (57) 
2.010

>  <name>  (57) 
57

>  <ligand_id>  (57) 
57

>  <original_smiles>  (57) 
[H]c1c([H])c([H])c2c(c1[H])C([H])([H])C([H])([H])C([H])([H])C2([H])N([H])C(=O)C1([H])N(C(=O)C([H])(N([H])C(=O)C([H])(N([H])C([H])([H])[H])C([H])([H])[H])C(C([H])([H])[H])(C([H])([H])[H])C([H])([H])[H])C([H])([H])c2c([H])c(OC([H])([H])C([H])([H])[N+]([H])([H])C([H])([H])C([H])([H])C([H])([H])C([H])([H])C([H])([H])OC([H])([H])C([H])([H])[N+]([H])([H])C([H])([H])C([H])([H])C([H])([H])N([H])C(=O)N3C([H])([H])C([H])([H])C([H])([H])C([H])(n4nc(-c5c([H])c([H])c(Oc6c([H])c([H])c(F)c([H])c6F)c([H])c5[H])c(C(=O)N([H])[H])c4N([H])[H])C3([H])[H])c([H])c([H])c2C1([H])[H]

>  <smiles>  (57) 
[H]c1c([H])c([H])c2c(c1[H])C([H])([H])C([H])([H])C([H])([H])C2([H])N([H])C(=O)C1([H])N(C(=O)C([H])(N([H])C(=O)C([H])(N([H])C([H])([H])[H])C([H])([H])[H])C(C([H])([H])[H])(C([H])([H])[H])C([H])([H])[H])C([H])([H])c2c([H])c(OC([H])([H])C([H])([H])[N+]([H])([H])C([H])([H])C([H])([H])C([H])([H])C([H])([H])C([H])([H])OC([H])([H])C([H])([H])[N+]([H])([H])C([H])([H])C([H])([H])C([H])([H])N([H])C(=O)N3C([H])([H])C([H])([H])C([H])([H])C([H])(n4nc(-c5c([H])c([H])c(Oc6c([H])c([H])c(F)c([H])c6F)c([H])c5[H])c(C(=O)N([H])[H])c4N([H])[H])C3([H])[H])c([H])c([H])c2C1([H])[H]

$$$$
58:0:0
     RDKit          3D

 91 98  0  0  1  0  0  0  0  0999 V2000
  -28.9450  -22.9550   20.8090 N   0  0  0  0  0  4  0  0  0  0  0  0
  -28.6080  -22.9470   21.7590 H   0  0  0  0  0  0  0  0  0  0  0  0
  -29.9520  -23.0010   20.8700 H   0  0  0  0  0  0  0  0  0  0  0  0
  -28.6330  -21.6190   20.2130 C   0  0  0  0  0  2  0  0  0  0  0  0
  -29.5590  -20.4900   20.7330 C   0  0  0  0  0  0  0  0  0  0  0  0
  -29.2280  -19.1990   20.5040 N   0  0  0  0  0  0  0  0  0  0  0  0
  -30.5940  -20.7990   21.3250 O   0  0  0  0  0  0  0  0  0  0  0  0
  -28.3650  -19.0180   20.0090 H   0  0  0  0  0  0  0  0  0  0  0  0
  -30.0310  -18.0240   20.9050 C   0  0  0  0  0  2  0  0  0  0  0  0
  -29.3980  -16.6550   20.5120 C   0  0  0  0  0  2  0  0  0  0  0  0
  -30.6650  -14.5090   20.4850 C   0  0  0  0  0  0  0  0  0  0  0  0
  -30.3570  -12.3500   19.3220 C   0  0  0  0  0  2  0  0  0  0  0  0
  -29.4110  -12.5240   18.1170 C   0  0  0  0  0  2  0  0  0  0  0  0
  -27.9410  -12.3690   18.5540 C   0  0  0  0  0  2  0  0  0  0  0  0
  -27.5980  -13.2360   19.7950 C   0  0  0  0  0  3  0  0  0  0  0  0
  -28.6500  -13.0470   20.9110 C   0  0  0  0  0  2  0  0  0  0  0  0
  -29.9740  -13.3450   20.3370 N   0  0  0  0  0  0  0  0  0  0  0  0
  -31.7770  -14.6930   19.9880 O   0  0  0  0  0  0  0  0  0  0  0  0
  -30.0570  -15.5010   21.1620 N   0  0  0  0  0  0  0  0  0  0  0  0
  -30.6610  -15.8320   21.9030 H   0  0  0  0  0  0  0  0  0  0  0  0
  -25.2050  -13.8530   20.4930 C   0  0  0  0  0  0  0  0  0  0  0  0
  -24.1290  -13.0850   20.8540 C   0  0  0  0  0  0  0  0  0  0  0  0
  -24.5860  -11.7330   20.8330 C   0  0  0  0  0  0  0  0  0  0  0  0
  -26.2450  -12.9680   20.2700 N   0  0  0  0  0  0  0  0  0  0  0  0
  -25.8780  -11.6860   20.5320 N   0  0  0  0  0  0  0  0  0  0  0  0
  -23.8550  -10.4740   21.0220 C   0  0  0  0  0  0  0  0  0  0  0  0
  -24.2950   -9.4970   21.9420 C   0  0  0  0  0  3  0  0  0  0  0  0
  -23.5660   -8.3030   22.1200 C   0  0  0  0  0  3  0  0  0  0  0  0
  -22.3830   -8.0770   21.3780 C   0  0  0  0  0  0  0  0  0  0  0  0
  -21.9620   -9.0410   20.4460 C   0  0  0  0  0  3  0  0  0  0  0  0
  -22.6910  -10.2280   20.2660 C   0  0  0  0  0  3  0  0  0  0  0  0
  -21.6230   -6.9350   21.4670 O   0  0  0  0  0  0  0  0  0  0  0  0
  -21.6010   -6.1710   22.6080 C   0  0  0  0  0  0  0  0  0  0  0  0
  -21.2290   -6.7110   23.8580 C   0  0  0  0  0  3  0  0  0  0  0  0
  -21.1490   -5.8770   24.9910 C   0  0  0  0  0  3  0  0  0  0  0  0
  -21.4340   -4.5030   24.8750 C   0  0  0  0  0  0  0  0  0  0  0  0
  -21.8010   -3.9620   23.6290 C   0  0  0  0  0  3  0  0  0  0  0  0
  -21.8820   -4.7940   22.4990 C   0  0  0  0  0  0  0  0  0  0  0  0
  -22.2140   -4.2650   21.2970 F   0  0  0  0  0  0  0  0  0  0  0  0
  -21.3530   -3.6980   25.9590 F   0  0  0  0  0  0  0  0  0  0  0  0
  -22.7330  -13.5690   21.1160 C   0  0  0  0  0  0  0  0  0  0  0  0
  -22.0000  -12.8770   21.9830 N   0  0  0  0  0  0  0  0  0  0  0  0
  -22.3010  -14.5940   20.5900 O   0  0  0  0  0  0  0  0  0  0  0  0
  -22.3630  -12.0450   22.4250 H   0  0  0  0  0  0  0  0  0  0  0  0
  -21.0670  -13.1860   22.2110 H   0  0  0  0  0  0  0  0  0  0  0  0
  -25.3830  -15.2220   20.3180 N   0  0  0  0  0  0  0  0  0  0  0  0
  -24.6390  -15.8990   20.4430 H   0  0  0  0  0  0  0  0  0  0  0  0
  -26.2570  -15.6450   20.0310 H   0  0  0  0  0  0  0  0  0  0  0  0
  -28.4170  -24.1590   20.0780 C   0  0  0  0  0  2  0  0  0  0  0  0
  -28.5940  -25.5060   20.8520 C   0  0  0  0  0  2  0  0  0  0  0  0
  -28.4310  -26.7130   20.0720 O   0  0  0  0  0  0  0  0  0  0  0  0
  -24.6110  -31.8850   23.2400 C   0  0  0  0  0  0  0  0  0  0  0  0
  -27.2440  -27.4160   20.1660 C   0  0  0  0  0  0  0  0  0  0  0  0
  -23.3970  -30.4800   21.6060 C   0  0  0  0  0  3  0  0  0  0  0  0
  -24.8450  -28.9280   20.1880 C   0  0  0  0  0  0  0  0  0  0  0  0
  -25.9200  -30.8330   21.3930 C   0  0  0  0  0  2  0  0  0  0  0  0
  -26.0070  -29.4550   20.7680 C   0  0  0  0  0  0  0  0  0  0  0  0
  -27.2080  -28.7090   20.7480 C   0  0  0  0  0  3  0  0  0  0  0  0
  -26.0670  -26.9020   19.5840 C   0  0  0  0  0  3  0  0  0  0  0  0
  -24.8720  -27.6520   19.5940 C   0  0  0  0  0  3  0  0  0  0  0  0
  -23.6040  -29.7910   20.2310 C   0  0  0  0  0  2  0  0  0  0  0  0
  -24.6610  -31.0810   22.1400 N   0  0  0  0  0  0  0  0  0  0  0  0
  -23.5320  -32.1590   23.7840 O   0  0  0  0  0  0  0  0  0  0  0  0
  -22.7460  -29.4650   22.5730 C   0  0  0  0  0  0  0  0  0  0  0  0
  -21.4200  -29.2870   22.4540 N   0  0  0  0  0  0  0  0  0  0  0  0
  -23.4330  -28.8410   23.3880 O   0  0  0  0  0  0  0  0  0  0  0  0
  -20.9270  -29.8360   21.7630 H   0  0  0  0  0  0  0  0  0  0  0  0
  -18.0490  -28.0850   22.9650 C   0  0  0  0  0  0  0  0  0  0  0  0
  -20.6070  -28.3490   23.2290 C   0  0  0  0  0  3  0  0  0  0  0  0
  -20.7130  -26.9170   22.6530 C   0  0  0  0  0  2  0  0  0  0  0  0
  -19.6050  -26.5910   21.6440 C   0  0  0  0  0  2  0  0  0  0  0  0
  -18.2250  -26.7340   22.2930 C   0  0  0  0  0  2  0  0  0  0  0  0
  -19.1680  -28.8490   23.3930 C   0  0  0  0  0  0  0  0  0  0  0  0
  -18.9490  -30.1150   23.9810 C   0  0  0  0  0  3  0  0  0  0  0  0
  -17.6430  -30.6150   24.1470 C   0  0  0  0  0  3  0  0  0  0  0  0
  -16.5390  -29.8480   23.7370 C   0  0  0  0  0  3  0  0  0  0  0  0
  -16.7440  -28.5830   23.1540 C   0  0  0  0  0  3  0  0  0  0  0  0
  -25.8990  -32.5180   23.8520 C   0  0  0  0  0  3  0  0  0  0  0  0
  -25.5890  -33.9130   24.1910 N   0  0  0  0  0  0  0  0  0  0  0  0
  -25.9110  -34.9700   23.4320 C   0  0  0  0  0  0  0  0  0  0  0  0
  -26.5720  -34.8730   22.3940 O   0  0  0  0  0  0  0  0  0  0  0  0
  -25.0010  -34.0640   24.9980 H   0  0  0  0  0  0  0  0  0  0  0  0
  -24.1710  -36.7560   23.1060 C   0  0  0  0  0  1  0  0  0  0  0  0
  -25.4240  -36.3550   23.8990 C   0  0  0  0  0  3  0  0  0  0  0  0
  -27.5670  -37.2450   24.7020 C   0  0  0  0  0  1  0  0  0  0  0  0
  -26.4510  -37.4130   23.7760 N   0  0  0  0  0  0  0  0  0  0  0  0
  -26.0410  -38.3310   23.9340 H   0  0  0  0  0  0  0  0  0  0  0  0
  -26.4320  -31.7410   25.1180 C   0  0  1  0  0  0  0  0  0  0  0  0
  -25.3500  -31.4970   26.1950 C   0  0  0  0  0  1  0  0  0  0  0  0
  -27.0110  -30.3670   24.7100 C   0  0  0  0  0  1  0  0  0  0  0  0
  -27.5880  -32.5340   25.7720 C   0  0  0  0  0  1  0  0  0  0  0  0
  1  3  1  0
  1  2  1  0
  4  5  1  0
  4  1  1  0
  5  7  2  0
  6  5  1  0
  6  9  1  0
  8  6  1  0
 10  9  1  0
 10 19  1  0
 11 19  1  0
 12 17  1  0
 13 14  1  0
 13 12  1  0
 15 14  1  0
 15 24  1  0
 15 16  1  0
 17 11  1  0
 17 16  1  0
 18 11  2  0
 19 20  1  0
 21 22  2  0
 22 41  1  0
 23 22  1  0
 23 26  1  0
 24 21  1  0
 24 25  1  0
 25 23  2  0
 26 27  1  0
 27 28  2  0
 29 32  1  0
 29 28  1  0
 30 29  2  0
 31 30  1  0
 31 26  2  0
 32 33  1  0
 33 34  1  0
 34 35  2  0
 36 35  1  0
 36 40  1  0
 37 36  2  0
 38 33  2  0
 38 37  1  0
 39 38  1  0
 41 42  1  0
 42 45  1  0
 42 44  1  0
 43 41  2  0
 46 47  1  0
 46 21  1  0
 48 46  1  0
 49  1  1  0
 49 50  1  0
 51 53  1  0
 51 50  1  0
 52 63  2  0
 53 58  1  0
 54 62  1  0
 54 64  1  0
 55 61  1  0
 55 57  1  0
 56 62  1  0
 57 56  1  0
 58 57  2  0
 59 60  1  0
 59 53  2  0
 60 55  2  0
 61 54  1  0
 62 52  1  0
 64 66  2  0
 65 64  1  0
 67 65  1  0
 68 77  2  0
 68 73  1  0
 69 65  1  0
 69 73  1  0
 70 69  1  0
 71 72  1  0
 71 70  1  0
 72 68  1  0
 73 74  2  0
 74 75  1  0
 76 75  2  0
 77 76  1  0
 78 52  1  0
 78 79  1  0
 78 88  1  0
 79 82  1  0
 80 84  1  0
 80 79  1  0
 81 80  2  0
 84 83  1  0
 86 84  1  0
 86 87  1  0
 86 85  1  0
 88 91  1  1
 88 89  1  0
 90 88  1  0
M  ISO  4  11 100  19 100  50 101  51 101
M  END
>  <TORSDO>  (58) 
F 22

>  <SCORE>  (58) 
-13.132

>  <name>  (58) 
58

>  <ligand_id>  (58) 
58

>  <original_smiles>  (58) 
[H]c1c([H])c([H])c2c(c1[H])C([H])([H])C([H])([H])C([H])([H])C2([H])N([H])C(=O)C1([H])N(C(=O)C([H])(N([H])C(=O)C([H])(N([H])C([H])([H])[H])C([H])([H])[H])C(C([H])([H])[H])(C([H])([H])[H])C([H])([H])[H])C([H])([H])c2c([H])c(OC([H])([H])C([H])([H])[N+]([H])([H])C([H])([H])C(=O)N([H])C([H])([H])C([H])([H])N([H])C(=O)N3C([H])([H])C([H])([H])C([H])([H])C([H])(n4nc(-c5c([H])c([H])c(Oc6c([H])c([H])c(F)c([H])c6F)c([H])c5[H])c(C(=O)N([H])[H])c4N([H])[H])C3([H])[H])c([H])c([H])c2C1([H])[H]

>  <smiles>  (58) 
[H]c1c([H])c([H])c2c(c1[H])C([H])([H])C([H])([H])C([H])([H])C2([H])N([H])C(=O)C1([H])N(C(=O)C([H])(N([H])C(=O)C([H])(N([H])C([H])([H])[H])C([H])([H])[H])C(C([H])([H])[H])(C([H])([H])[H])C([H])([H])[H])C([H])([H])c2c([H])c(OC([H])([H])C([H])([H])[N+]([H])([H])C([H])([H])C(=O)N([H])C([H])([H])C([H])([H])N([H])C(=O)N3C([H])([H])C([H])([H])C([H])([H])C([H])(n4nc(-c5c([H])c([H])c(Oc6c([H])c([H])c(F)c([H])c6F)c([H])c5[H])c(C(=O)N([H])[H])c4N([H])[H])C3([H])[H])c([H])c([H])c2C1([H])[H]

$$$$
59:0:0
     RDKit          3D

104108  0  0  1  0  0  0  0  0999 V2000
  -24.1870  -19.8560   24.0760 N   0  0  0  0  0  4  0  0  0  0  0  0
  -23.3800  -19.4780   24.5490 H   0  0  0  0  0  0  0  0  0  0  0  0
  -24.9160  -19.9610   24.7640 H   0  0  0  0  0  0  0  0  0  0  0  0
  -24.5830  -18.8720   23.0430 C   0  0  0  0  0  2  0  0  0  0  0  0
  -24.4310  -17.4330   23.5790 C   0  0  0  0  0  2  0  0  0  0  0  0
  -24.4410  -16.3130   22.5220 C   0  0  0  0  0  2  0  0  0  0  0  0
  -25.7540  -15.6860   22.3780 N   0  0  0  0  0  0  0  0  0  0  0  0
  -26.3210  -15.9520   23.1800 H   0  0  0  0  0  0  0  0  0  0  0  0
  -25.5770  -14.2330   22.4040 C   0  0  0  0  0  2  0  0  0  0  0  0
  -26.7090  -13.5230   23.1690 C   0  0  0  0  0  2  0  0  0  0  0  0
  -27.3270  -12.4840   22.3180 N   0  0  0  0  0  4  0  0  0  0  0  0
  -26.5880  -11.8790   22.0020 H   0  0  0  0  0  0  0  0  0  0  0  0
  -27.7160  -12.9520   21.5150 H   0  0  0  0  0  0  0  0  0  0  0  0
  -28.3610  -11.6430   22.9740 C   0  0  0  0  0  2  0  0  0  0  0  0
  -28.6940  -10.3600   22.1580 C   0  0  0  0  0  2  0  0  0  0  0  0
  -29.8340  -10.4370   21.1080 C   0  0  0  0  0  2  0  0  0  0  0  0
  -30.2580  -12.7640   19.5240 C   0  0  2  0  0  0  0  0  0  0  0  0
  -31.3640  -11.8880   18.7230 C   0  0  0  0  0  1  0  0  0  0  0  0
  -30.0080  -11.7000   17.4110 C   0  0  0  0  0  1  0  0  0  0  0  0
  -28.3500  -12.1270   17.8090 C   0  0  0  0  0  2  0  0  0  0  0  0
  -27.9100  -13.0980   19.2010 C   0  0  0  0  0  2  0  0  0  0  0  0
  -29.2010  -13.4430   20.5310 C   0  0  0  0  0  1  0  0  0  0  0  0
  -30.8590  -12.7530   20.2570 N   0  0  0  0  0  1  0  0  0  0  0  0
  -30.4750  -13.8950   18.7440 O   0  0  0  0  0  1  0  0  0  0  0  0
  -29.5820  -11.3330   19.9440 N   0  0  0  0  0  2  0  0  0  0  0  0
  -28.8810  -11.0120   19.2950 H   0  0  0  0  0  0  0  0  0  0  0  0
  -25.4980  -13.5360   19.9040 C   0  0  0  0  0  0  0  0  0  0  0  0
  -24.4540  -12.7620   20.3350 C   0  0  0  0  0  0  0  0  0  0  0  0
  -24.9380  -11.4160   20.3850 C   0  0  0  0  0  0  0  0  0  0  0  0
  -26.5790  -12.7020   19.7240 N   0  0  0  0  0  0  0  0  0  0  0  0
  -26.2380  -11.4090   20.0520 N   0  0  0  0  0  0  0  0  0  0  0  0
  -24.2060  -10.1610   20.6890 C   0  0  0  0  0  0  0  0  0  0  0  0
  -24.6030   -9.2870   21.7260 C   0  0  0  0  0  3  0  0  0  0  0  0
  -23.8600   -8.1170   22.0160 C   0  0  0  0  0  3  0  0  0  0  0  0
  -22.6970   -7.8080   21.2760 C   0  0  0  0  0  0  0  0  0  0  0  0
  -22.3030   -8.6790   20.2430 C   0  0  0  0  0  3  0  0  0  0  0  0
  -23.0500   -9.8340   19.9470 C   0  0  0  0  0  3  0  0  0  0  0  0
  -21.9320   -6.6790   21.4770 O   0  0  0  0  0  0  0  0  0  0  0  0
  -21.8030   -6.1000   22.7140 C   0  0  0  0  0  0  0  0  0  0  0  0
  -21.3420   -6.8230   23.8340 C   0  0  0  0  0  3  0  0  0  0  0  0
  -21.1440   -6.1680   25.0670 C   0  0  0  0  0  3  0  0  0  0  0  0
  -21.4060   -4.7890   25.1840 C   0  0  0  0  0  0  0  0  0  0  0  0
  -21.8610   -4.0620   24.0700 C   0  0  0  0  0  3  0  0  0  0  0  0
  -22.0510   -4.7160   22.8370 C   0  0  0  0  0  0  0  0  0  0  0  0
  -22.4660   -4.0030   21.7610 F   0  0  0  0  0  0  0  0  0  0  0  0
  -21.2210   -4.1580   26.3670 F   0  0  0  0  0  0  0  0  0  0  0  0
  -23.0650  -13.2530   20.6060 C   0  0  0  0  0  0  0  0  0  0  0  0
  -22.3620  -12.6550   21.5610 N   0  0  0  0  0  0  0  0  0  0  0  0
  -22.6140  -14.2370   20.0210 O   0  0  0  0  0  0  0  0  0  0  0  0
  -21.4770  -13.0530   21.8400 H   0  0  0  0  0  0  0  0  0  0  0  0
  -22.6880  -11.8290   22.0370 H   0  0  0  0  0  0  0  0  0  0  0  0
  -25.6100  -14.8910   19.6370 N   0  0  0  0  0  0  0  0  0  0  0  0
  -24.8000  -15.4940   19.6740 H   0  0  0  0  0  0  0  0  0  0  0  0
  -26.4290  -15.3540   19.2610 H   0  0  0  0  0  0  0  0  0  0  0  0
  -23.7880  -21.1800   23.5640 C   0  0  0  0  0  2  0  0  0  0  0  0
  -24.9620  -22.1250   23.4240 C   0  0  0  0  0  3  0  0  0  0  0  0
  -25.4010  -22.6020   22.2480 C   0  0  0  0  0  3  0  0  0  0  0  0
  -26.5420  -23.5870   22.1070 C   0  0  0  0  0  2  0  0  0  0  0  0
  -26.3660  -24.4350   20.9120 N   0  0  0  0  0  4  0  0  0  0  0  0
  -25.4740  -24.9060   20.9610 H   0  0  0  0  0  0  0  0  0  0  0  0
  -26.3430  -23.8380   20.1020 H   0  0  0  0  0  0  0  0  0  0  0  0
  -27.4440  -25.4410   20.7620 C   0  0  0  0  0  2  0  0  0  0  0  0
  -27.6970  -25.8500   19.2970 C   0  0  0  0  0  2  0  0  0  0  0  0
  -27.7360  -27.2760   19.1860 O   0  0  0  0  0  0  0  0  0  0  0  0
  -24.4990  -32.0420   23.3650 C   0  0  0  0  0  0  0  0  0  0  0  0
  -26.5750  -27.9760   19.4380 C   0  0  0  0  0  0  0  0  0  0  0  0
  -23.0350  -30.8430   21.7690 C   0  0  0  0  0  3  0  0  0  0  0  0
  -24.2380  -29.4680   19.9970 C   0  0  0  0  0  0  0  0  0  0  0  0
  -25.5180  -31.2040   21.2580 C   0  0  0  0  0  2  0  0  0  0  0  0
  -25.4800  -29.9120   20.4660 C   0  0  0  0  0  0  0  0  0  0  0  0
  -26.6520  -29.1710   20.1870 C   0  0  0  0  0  3  0  0  0  0  0  0
  -25.3100  -27.5510   18.9620 C   0  0  0  0  0  3  0  0  0  0  0  0
  -24.1440  -28.2820   19.2510 C   0  0  0  0  0  3  0  0  0  0  0  0
  -23.0350  -30.3240   20.3100 C   0  0  0  0  0  2  0  0  0  0  0  0
  -24.3770  -31.3670   22.1900 N   0  0  0  0  0  0  0  0  0  0  0  0
  -23.5120  -32.2640   24.0830 O   0  0  0  0  0  0  0  0  0  0  0  0
  -22.5000  -29.7270   22.6930 C   0  0  0  0  0  0  0  0  0  0  0  0
  -21.2100  -29.3870   22.5450 N   0  0  0  0  0  0  0  0  0  0  0  0
  -23.2490  -29.1660   23.4970 O   0  0  0  0  0  0  0  0  0  0  0  0
  -20.6560  -29.8890   21.8600 H   0  0  0  0  0  0  0  0  0  0  0  0
  -18.0820  -27.6120   22.7990 C   0  0  0  0  0  0  0  0  0  0  0  0
  -20.5050  -28.3510   23.2990 C   0  0  0  0  0  3  0  0  0  0  0  0
  -20.9170  -26.9360   22.8350 C   0  0  0  0  0  2  0  0  0  0  0  0
  -20.0210  -26.4000   21.7160 C   0  0  0  0  0  2  0  0  0  0  0  0
  -18.5730  -26.3000   22.2080 C   0  0  0  0  0  2  0  0  0  0  0  0
  -18.9900  -28.5840   23.2920 C   0  0  0  0  0  0  0  0  0  0  0  0
  -18.4890  -29.8040   23.7930 C   0  0  0  0  0  3  0  0  0  0  0  0
  -17.1060  -30.0620   23.8060 C   0  0  0  0  0  3  0  0  0  0  0  0
  -16.2090  -29.0900   23.3290 C   0  0  0  0  0  3  0  0  0  0  0  0
  -16.6950  -27.8690   22.8300 C   0  0  0  0  0  3  0  0  0  0  0  0
  -25.8750  -32.5910   23.8510 C   0  0  0  0  0  3  0  0  0  0  0  0
  -25.6850  -33.9960   24.2290 N   0  0  0  0  0  0  0  0  0  0  0  0
  -25.9980  -35.0400   23.4460 C   0  0  0  0  0  0  0  0  0  0  0  0
  -26.5440  -34.9160   22.3500 O   0  0  0  0  0  0  0  0  0  0  0  0
  -25.1960  -34.1730   25.0920 H   0  0  0  0  0  0  0  0  0  0  0  0
  -24.3410  -36.9250   23.3030 C   0  0  0  0  0  1  0  0  0  0  0  0
  -25.6400  -36.4430   23.9650 C   0  0  0  0  0  3  0  0  0  0  0  0
  -27.8890  -37.2130   24.5750 C   0  0  0  0  0  1  0  0  0  0  0  0
  -26.7080  -37.4410   23.7490 N   0  0  0  0  0  0  0  0  0  0  0  0
  -26.3680  -38.3800   23.9400 H   0  0  0  0  0  0  0  0  0  0  0  0
  -26.4880  -31.7630   25.0490 C   0  0  1  0  0  0  0  0  0  0  0  0
  -25.4950  -31.5220   26.2070 C   0  0  0  0  0  1  0  0  0  0  0  0
  -26.9900  -30.3800   24.5680 C   0  0  0  0  0  1  0  0  0  0  0  0
  -27.7160  -32.5030   25.6290 C   0  0  0  0  0  1  0  0  0  0  0  0
  1  2  1  0
  1  3  1  0
  4  5  1  0
  4  1  1  0
  6  5  1  0
  7  9  1  0
  7  6  1  0
  7  8  1  0
  9 10  1  0
 11 14  1  0
 11 10  1  0
 12 11  1  0
 13 11  1  0
 15 14  1  0
 16 15  1  0
 17 23  1  0
 17 22  1  1
 18 17  1  0
 19 20  1  0
 20 21  1  0
 21 30  1  0
 24 17  1  0
 25 16  1  0
 26 25  1  0
 27 28  2  0
 28 29  1  0
 28 47  1  0
 29 32  1  0
 30 27  1  0
 30 31  1  0
 31 29  2  0
 32 33  1  0
 33 34  2  0
 35 38  1  0
 35 34  1  0
 36 35  2  0
 37 36  1  0
 37 32  2  0
 38 39  1  0
 39 44  2  0
 39 40  1  0
 40 41  2  0
 41 42  1  0
 42 46  1  0
 43 42  2  0
 44 43  1  0
 45 44  1  0
 47 48  1  0
 48 50  1  0
 48 51  1  0
 49 47  2  0
 52 53  1  0
 52 27  1  0
 54 52  1  0
 55  1  1  0
 56 55  1  0
 57 56  2  0
 58 57  1  0
 59 60  1  0
 59 58  1  0
 61 59  1  0
 62 59  1  0
 63 62  1  0
 64 63  1  0
 64 66  1  0
 65 76  2  0
 66 71  1  0
 67 75  1  0
 67 77  1  0
 68 74  1  0
 68 70  1  0
 69 75  1  0
 70 69  1  0
 71 70  2  0
 72 73  1  0
 72 66  2  0
 73 68  2  0
 74 67  1  0
 75 65  1  0
 77 79  2  0
 78 77  1  0
 80 78  1  0
 81 90  2  0
 81 86  1  0
 82 78  1  0
 83 82  1  0
 84 85  1  0
 84 83  1  0
 85 81  1  0
 86 82  1  0
 86 87  2  0
 87 88  1  0
 89 88  2  0
 90 89  1  0
 91 65  1  0
 91 92  1  0
 91101  1  0
 92 95  1  0
 93 97  1  0
 93 92  1  0
 94 93  2  0
 97 96  1  0
 99100  1  0
 99 97  1  0
 99 98  1  0
101104  1  1
101102  1  0
103101  1  0
M  ISO  4  17 100  25 100  63 101  64 101
M  END
>  <TORSDO>  (59) 
F 32

>  <SCORE>  (59) 
28.356

>  <name>  (59) 
59

>  <ligand_id>  (59) 
59

>  <original_smiles>  (59) 
[H]C(=C([H])C([H])([H])[N+]([H])([H])C([H])([H])C([H])([H])C([H])([H])N([H])C([H])([H])C([H])([H])[N+]([H])([H])C([H])([H])C([H])([H])C([H])([H])N([H])C(=O)N1C([H])([H])C([H])([H])C([H])([H])C([H])(n2nc(-c3c([H])c([H])c(Oc4c([H])c([H])c(F)c([H])c4F)c([H])c3[H])c(C(=O)N([H])[H])c2N([H])[H])C1([H])[H])C([H])([H])[N+]([H])([H])C([H])([H])C([H])([H])Oc1c([H])c([H])c2c(c1[H])C([H])([H])N(C(=O)C([H])(N([H])C(=O)C([H])(N([H])C([H])([H])[H])C([H])([H])[H])C(C([H])([H])[H])(C([H])([H])[H])C([H])([H])[H])C([H])(C(=O)N([H])C1([H])c3c([H])c([H])c([H])c([H])c3C([H])([H])C([H])([H])C1([H])[H])C2([H])[H]

>  <smiles>  (59) 
[H]C(=C([H])C([H])([H])[N+]([H])([H])C([H])([H])C([H])([H])C([H])([H])N([H])C([H])([H])C([H])([H])[N+]([H])([H])C([H])([H])C([H])([H])C([H])([H])N([H])C(=O)N1C([H])([H])C([H])([H])C([H])([H])C([H])(n2nc(-c3c([H])c([H])c(Oc4c([H])c([H])c(F)c([H])c4F)c([H])c3[H])c(C(=O)N([H])[H])c2N([H])[H])C1([H])[H])C([H])([H])[N+]([H])([H])C([H])([H])C([H])([H])Oc1c([H])c([H])c2c(c1[H])C([H])([H])N(C(=O)C([H])(N([H])C(=O)C([H])(N([H])C([H])([H])[H])C([H])([H])[H])C(C([H])([H])[H])(C([H])([H])[H])C([H])([H])[H])C([H])(C(=O)N([H])C1([H])c3c([H])c([H])c([H])c([H])c3C([H])([H])C([H])([H])C1([H])[H])C2([H])[H]

$$$$
60:0:0
     RDKit          3D

104111  0  0  1  0  0  0  0  0999 V2000
  -23.2720  -22.5780   19.5690 C   0  0  0  0  0  2  0  0  0  0  0  0
  -23.6110  -23.9550   19.9480 N   0  0  0  0  0  0  0  0  0  0  0  0
  -24.3630  -24.3410   19.3890 H   0  0  0  0  0  0  0  0  0  0  0  0
  -23.9300  -24.0820   21.3760 C   0  0  0  0  0  2  0  0  0  0  0  0
  -24.8090  -25.3310   21.6360 C   0  0  0  0  0  2  0  0  0  0  0  0
  -25.6690  -25.2530   22.9260 C   0  0  0  0  0  2  0  0  0  0  0  0
  -26.8660  -26.1370   22.8920 N   0  0  0  0  0  4  0  0  0  0  0  0
  -27.1300  -26.2980   23.8520 H   0  0  0  0  0  0  0  0  0  0  0  0
  -26.6150  -27.0310   22.5010 H   0  0  0  0  0  0  0  0  0  0  0  0
  -28.0500  -25.5730   22.1900 C   0  0  0  0  0  2  0  0  0  0  0  0
  -29.1120  -26.6290   21.7830 C   0  0  0  0  0  2  0  0  0  0  0  0
  -28.8060  -27.2850   20.5500 O   0  0  0  0  0  0  0  0  0  0  0  0
  -24.9140  -32.2810   23.7750 C   0  0  0  0  0  0  0  0  0  0  0  0
  -27.6550  -28.0230   20.5690 C   0  0  0  0  0  0  0  0  0  0  0  0
  -23.7530  -30.9460   22.0450 C   0  0  0  0  0  3  0  0  0  0  0  0
  -25.2520  -29.4900   20.5830 C   0  0  0  0  0  0  0  0  0  0  0  0
  -26.2750  -31.3440   21.9110 C   0  0  0  0  0  2  0  0  0  0  0  0
  -26.3880  -30.0050   21.2190 C   0  0  0  0  0  0  0  0  0  0  0  0
  -27.5940  -29.2740   21.2170 C   0  0  0  0  0  3  0  0  0  0  0  0
  -26.5190  -27.5230   19.9050 C   0  0  0  0  0  3  0  0  0  0  0  0
  -25.3110  -28.2520   19.9170 C   0  0  0  0  0  3  0  0  0  0  0  0
  -23.9950  -30.3300   20.6410 C   0  0  0  0  0  2  0  0  0  0  0  0
  -24.9980  -31.5340   22.6370 N   0  0  0  0  0  0  0  0  0  0  0  0
  -23.8200  -32.5170   24.3080 O   0  0  0  0  0  0  0  0  0  0  0  0
  -23.0930  -29.8720   22.9390 C   0  0  0  0  0  0  0  0  0  0  0  0
  -21.8190  -29.5630   22.6540 N   0  0  0  0  0  0  0  0  0  0  0  0
  -23.7290  -29.3170   23.8420 O   0  0  0  0  0  0  0  0  0  0  0  0
  -21.3740  -30.0640   21.9000 H   0  0  0  0  0  0  0  0  0  0  0  0
  -18.5350  -28.0500   22.7660 C   0  0  0  0  0  0  0  0  0  0  0  0
  -21.0030  -28.5600   23.3340 C   0  0  0  0  0  3  0  0  0  0  0  0
  -21.3210  -27.1410   22.8060 C   0  0  0  0  0  2  0  0  0  0  0  0
  -20.3760  -26.6650   21.6980 C   0  0  0  0  0  2  0  0  0  0  0  0
  -18.9150  -26.7090   22.1590 C   0  0  0  0  0  2  0  0  0  0  0  0
  -19.5160  -28.9250   23.3020 C   0  0  0  0  0  0  0  0  0  0  0  0
  -19.1120  -30.1680   23.8330 C   0  0  0  0  0  3  0  0  0  0  0  0
  -17.7570  -30.5450   23.8300 C   0  0  0  0  0  3  0  0  0  0  0  0
  -16.7850  -29.6740   23.3080 C   0  0  0  0  0  3  0  0  0  0  0  0
  -17.1740  -28.4280   22.7830 C   0  0  0  0  0  3  0  0  0  0  0  0
  -26.1810  -32.8900   24.4490 C   0  0  0  0  0  3  0  0  0  0  0  0
  -25.9070  -34.3150   24.6840 N   0  0  0  0  0  0  0  0  0  0  0  0
  -26.3400  -35.3130   23.9050 C   0  0  0  0  0  0  0  0  0  0  0  0
  -27.0820  -35.1350   22.9350 O   0  0  0  0  0  0  0  0  0  0  0  0
  -25.2720  -34.5320   25.4390 H   0  0  0  0  0  0  0  0  0  0  0  0
  -24.7340  -37.1550   23.3160 C   0  0  0  0  0  1  0  0  0  0  0  0
  -25.8790  -36.7430   24.2530 C   0  0  0  0  0  3  0  0  0  0  0  0
  -27.9720  -37.5760   25.2310 C   0  0  0  0  0  1  0  0  0  0  0  0
  -26.9650  -37.7430   24.1860 N   0  0  0  0  0  0  0  0  0  0  0  0
  -26.5900  -38.6840   24.2620 H   0  0  0  0  0  0  0  0  0  0  0  0
  -26.5840  -32.1680   25.7940 C   0  0  1  0  0  0  0  0  0  0  0  0
  -25.3950  -31.9400   26.7570 C   0  0  0  0  0  1  0  0  0  0  0  0
  -27.2210  -30.7910   25.5000 C   0  0  0  0  0  1  0  0  0  0  0  0
  -27.6520  -33.0010   26.5380 C   0  0  0  0  0  1  0  0  0  0  0  0
  -23.5070  -22.3010   18.0630 C   0  0  0  0  0  2  0  0  0  0  0  0
  -24.7750  -22.9170   17.6180 N   0  0  0  0  0  4  0  0  0  0  0  0
  -25.4750  -22.6490   18.2850 H   0  0  0  0  0  0  0  0  0  0  0  0
  -25.0320  -22.4990   16.7350 H   0  0  0  0  0  0  0  0  0  0  0  0
  -24.7820  -24.3920   17.4850 C   0  0  0  0  0  2  0  0  0  0  0  0
  -26.2230  -24.9550   17.5750 C   0  0  0  0  0  2  0  0  0  0  0  0
  -26.9450  -24.5690   18.8940 C   0  0  0  0  0  2  0  0  0  0  0  0
  -28.4440  -24.2140   18.7430 C   0  0  0  0  0  2  0  0  0  0  0  0
  -29.1020  -24.0070   20.0630 N   0  0  0  0  0  4  0  0  0  0  0  0
  -28.4730  -23.4970   20.6550 H   0  0  0  0  0  0  0  0  0  0  0  0
  -29.2550  -24.9040   20.4970 H   0  0  0  0  0  0  0  0  0  0  0  0
  -30.3930  -23.2690   20.0710 C   0  0  0  0  0  2  0  0  0  0  0  0
  -30.6840  -22.5990   21.4500 C   0  0  0  0  0  2  0  0  0  0  0  0
  -32.0860  -21.9500   21.6250 C   0  0  0  0  0  2  0  0  0  0  0  0
  -33.1110  -19.7390   21.0280 C   0  0  0  0  0  0  0  0  0  0  0  0
  -33.3630  -18.1240   19.2180 C   0  0  0  0  0  2  0  0  0  0  0  0
  -32.4540  -18.6470   18.0880 C   0  0  0  0  0  2  0  0  0  0  0  0
  -31.0580  -18.0090   18.2300 C   0  0  0  0  0  2  0  0  0  0  0  0
  -30.4640  -18.2200   19.6450 C   0  0  0  0  0  3  0  0  0  0  0  0
  -31.4880  -17.8370   20.7480 C   0  0  0  0  0  2  0  0  0  0  0  0
  -32.7460  -18.5540   20.4770 N   0  0  0  0  0  0  0  0  0  0  0  0
  -34.2270  -20.2460   20.8870 O   0  0  0  0  0  0  0  0  0  0  0  0
  -32.0800  -20.4850   21.4810 N   0  0  0  0  0  0  0  0  0  0  0  0
  -31.2040  -20.0010   21.6000 H   0  0  0  0  0  0  0  0  0  0  0  0
  -27.9040  -18.0250   19.7620 C   0  0  0  0  0  0  0  0  0  0  0  0
  -27.0700  -16.9490   19.8810 C   0  0  0  0  0  0  0  0  0  0  0  0
  -27.9210  -15.8070   20.0000 C   0  0  0  0  0  0  0  0  0  0  0  0
  -29.1940  -17.5180   19.7990 N   0  0  0  0  0  0  0  0  0  0  0  0
  -29.1940  -16.1780   20.0040 N   0  0  0  0  0  0  0  0  0  0  0  0
  -27.5950  -14.3770   20.0670 C   0  0  0  0  0  0  0  0  0  0  0  0
  -27.8490  -13.6150   21.2300 C   0  0  0  0  0  3  0  0  0  0  0  0
  -27.5150  -12.2460   21.2760 C   0  0  0  0  0  3  0  0  0  0  0  0
  -26.9260  -11.6220   20.1520 C   0  0  0  0  0  0  0  0  0  0  0  0
  -26.6930  -12.3750   18.9900 C   0  0  0  0  0  3  0  0  0  0  0  0
  -27.0240  -13.7390   18.9480 C   0  0  0  0  0  3  0  0  0  0  0  0
  -26.5940  -10.2900   20.0940 O   0  0  0  0  0  0  0  0  0  0  0  0
  -25.8210   -9.6960   21.0590 C   0  0  0  0  0  0  0  0  0  0  0  0
  -24.5470  -10.1920   21.4040 C   0  0  0  0  0  3  0  0  0  0  0  0
  -23.7670   -9.5110   22.3570 C   0  0  0  0  0  3  0  0  0  0  0  0
  -24.2510   -8.3340   22.9600 C   0  0  0  0  0  0  0  0  0  0  0  0
  -25.5210   -7.8380   22.6150 C   0  0  0  0  0  3  0  0  0  0  0  0
  -26.3010   -8.5180   21.6630 C   0  0  0  0  0  0  0  0  0  0  0  0
  -27.5190   -8.0320   21.3210 F   0  0  0  0  0  0  0  0  0  0  0  0
  -23.4970   -7.6700   23.8640 F   0  0  0  0  0  0  0  0  0  0  0  0
  -25.5720  -16.9630   19.8170 C   0  0  0  0  0  0  0  0  0  0  0  0
  -24.9280  -15.9840   20.4410 N   0  0  0  0  0  0  0  0  0  0  0  0
  -24.9640  -17.8760   19.2520 O   0  0  0  0  0  0  0  0  0  0  0  0
  -25.4260  -15.2450   20.9100 H   0  0  0  0  0  0  0  0  0  0  0  0
  -23.9170  -15.9580   20.4360 H   0  0  0  0  0  0  0  0  0  0  0  0
  -27.6780  -19.3940   19.6240 N   0  0  0  0  0  0  0  0  0  0  0  0
  -26.7420  -19.7180   19.8460 H   0  0  0  0  0  0  0  0  0  0  0  0
  -28.3870  -20.0020   20.0030 H   0  0  0  0  0  0  0  0  0  0  0  0
  1  2  1  0
  2  4  1  0
  3  2  1  0
  4  5  1  0
  5  6  1  0
  7  6  1  0
  7  8  1  0
  9  7  1  0
 10  7  1  0
 11 10  1  0
 12 14  1  0
 12 11  1  0
 13 24  2  0
 14 19  1  0
 15 23  1  0
 15 25  1  0
 16 22  1  0
 16 18  1  0
 17 23  1  0
 18 17  1  0
 19 18  2  0
 20 21  1  0
 20 14  2  0
 21 16  2  0
 22 15  1  0
 23 13  1  0
 25 27  2  0
 26 25  1  0
 28 26  1  0
 29 38  2  0
 29 34  1  0
 30 26  1  0
 31 30  1  0
 32 33  1  0
 32 31  1  0
 33 29  1  0
 34 30  1  0
 34 35  2  0
 36 35  1  0
 37 36  2  0
 38 37  1  0
 39 13  1  0
 39 40  1  0
 39 49  1  0
 40 43  1  0
 41 45  1  0
 41 40  1  0
 42 41  2  0
 45 44  1  0
 47 45  1  0
 47 48  1  0
 47 46  1  0
 49 52  1  1
 49 50  1  0
 51 49  1  0
 53  1  1  0
 54 53  1  0
 54 55  1  0
 56 54  1  0
 57 58  1  0
 57 54  1  0
 58 59  1  0
 60 59  1  0
 60 61  1  0
 61 64  1  0
 61 63  1  0
 61 62  1  0
 64 65  1  0
 65 66  1  0
 67 75  1  0
 68 73  1  0
 69 70  1  0
 69 68  1  0
 71 70  1  0
 71 80  1  0
 71 72  1  0
 73 72  1  0
 73 67  1  0
 74 67  2  0
 75 76  1  0
 75 66  1  0
 77 80  1  0
 77 78  2  0
 78 79  1  0
 79 81  2  0
 79 82  1  0
 80 81  1  0
 82 83  1  0
 83 84  2  0
 85 84  1  0
 86 85  2  0
 87 86  1  0
 87 82  2  0
 88 85  1  0
 88 89  1  0
 89 90  2  0
 89 94  1  0
 90 91  1  0
 91 92  2  0
 92 96  1  0
 93 92  1  0
 94 93  2  0
 95 94  1  0
 97 78  1  0
 97 98  1  0
 98100  1  0
 99 97  2  0
101 98  1  0
102 77  1  0
102103  1  0
102104  1  0
M  ISO  4  11 101  12 101  67 100  75 100
M  END
>  <TORSDO>  (60) 
F 33

>  <SCORE>  (60) 
-6.102

>  <name>  (60) 
60

>  <ligand_id>  (60) 
60

>  <original_smiles>  (60) 
[H]c1c([H])c([H])c2c(c1[H])C([H])([H])C([H])([H])C([H])([H])C2([H])N([H])C(=O)C1([H])N(C(=O)C([H])(N([H])C(=O)C([H])(N([H])C([H])([H])[H])C([H])([H])[H])C(C([H])([H])[H])(C([H])([H])[H])C([H])([H])[H])C([H])([H])c2c([H])c(OC([H])([H])C([H])([H])[N+]([H])([H])C([H])([H])C([H])([H])C([H])([H])N([H])C([H])([H])C([H])([H])[N+]([H])([H])C([H])([H])C([H])([H])C([H])([H])C([H])([H])[N+]([H])([H])C([H])([H])C([H])([H])C([H])([H])N([H])C(=O)N3C([H])([H])C([H])([H])C([H])([H])C([H])(n4nc(-c5c([H])c([H])c(Oc6c([H])c([H])c(F)c([H])c6F)c([H])c5[H])c(C(=O)N([H])[H])c4N([H])[H])C3([H])[H])c([H])c([H])c2C1([H])[H]

>  <smiles>  (60) 
[H]c1c([H])c([H])c2c(c1[H])C([H])([H])C([H])([H])C([H])([H])C2([H])N([H])C(=O)C1([H])N(C(=O)C([H])(N([H])C(=O)C([H])(N([H])C([H])([H])[H])C([H])([H])[H])C(C([H])([H])[H])(C([H])([H])[H])C([H])([H])[H])C([H])([H])c2c([H])c(OC([H])([H])C([H])([H])[N+]([H])([H])C([H])([H])C([H])([H])C([H])([H])N([H])C([H])([H])C([H])([H])[N+]([H])([H])C([H])([H])C([H])([H])C([H])([H])C([H])([H])[N+]([H])([H])C([H])([H])C([H])([H])C([H])([H])N([H])C(=O)N3C([H])([H])C([H])([H])C([H])([H])C([H])(n4nc(-c5c([H])c([H])c(Oc6c([H])c([H])c(F)c([H])c6F)c([H])c5[H])c(C(=O)N([H])[H])c4N([H])[H])C3([H])[H])c([H])c([H])c2C1([H])[H]

$$$$
61:0:0
     RDKit          3D

 93100  0  0  1  0  0  0  0  0999 V2000
  -30.2060  -22.3790   21.2350 C   0  0  0  0  0  2  0  0  0  0  0  0
  -29.5150  -23.1860   20.2200 N   0  0  0  0  0  4  0  0  0  0  0  0
  -29.9730  -23.0180   19.3380 H   0  0  0  0  0  0  0  0  0  0  0  0
  -28.5620  -22.8700   20.1310 H   0  0  0  0  0  0  0  0  0  0  0  0
  -29.5620  -24.6380   20.4590 C   0  0  0  0  0  2  0  0  0  0  0  0
  -28.2850  -25.3140   19.9540 C   0  0  0  0  0  2  0  0  0  0  0  0
  -28.3670  -26.7220   20.1660 O   0  0  0  0  0  0  0  0  0  0  0  0
  -24.5940  -31.8920   23.2320 C   0  0  0  0  0  0  0  0  0  0  0  0
  -27.1850  -27.4280   20.1360 C   0  0  0  0  0  0  0  0  0  0  0  0
  -23.3750  -30.4940   21.6010 C   0  0  0  0  0  3  0  0  0  0  0  0
  -24.8010  -28.9490   20.1550 C   0  0  0  0  0  0  0  0  0  0  0  0
  -25.8980  -30.8320   21.3840 C   0  0  0  0  0  2  0  0  0  0  0  0
  -25.9640  -29.4640   20.7400 C   0  0  0  0  0  0  0  0  0  0  0  0
  -27.1560  -28.7100   20.7250 C   0  0  0  0  0  3  0  0  0  0  0  0
  -25.9990  -26.9220   19.5480 C   0  0  0  0  0  3  0  0  0  0  0  0
  -24.8130  -27.6780   19.5550 C   0  0  0  0  0  3  0  0  0  0  0  0
  -23.5650  -29.8200   20.2140 C   0  0  0  0  0  2  0  0  0  0  0  0
  -24.6460  -31.0870   22.1320 N   0  0  0  0  0  0  0  0  0  0  0  0
  -23.5150  -32.1680   23.7710 O   0  0  0  0  0  0  0  0  0  0  0  0
  -22.7250  -29.4750   22.5630 C   0  0  0  0  0  0  0  0  0  0  0  0
  -21.3980  -29.2950   22.4380 N   0  0  0  0  0  0  0  0  0  0  0  0
  -23.4080  -28.8440   23.3730 O   0  0  0  0  0  0  0  0  0  0  0  0
  -20.9090  -29.8650   21.7600 H   0  0  0  0  0  0  0  0  0  0  0  0
  -18.0290  -28.0980   22.9450 C   0  0  0  0  0  0  0  0  0  0  0  0
  -20.5840  -28.3580   23.2110 C   0  0  0  0  0  3  0  0  0  0  0  0
  -20.6860  -26.9240   22.6420 C   0  0  0  0  0  2  0  0  0  0  0  0
  -19.5830  -26.5960   21.6300 C   0  0  0  0  0  2  0  0  0  0  0  0
  -18.2030  -26.7470   22.2770 C   0  0  0  0  0  2  0  0  0  0  0  0
  -19.1480  -28.8610   23.3710 C   0  0  0  0  0  0  0  0  0  0  0  0
  -18.9310  -30.1280   23.9570 C   0  0  0  0  0  3  0  0  0  0  0  0
  -17.6250  -30.6280   24.1220 C   0  0  0  0  0  3  0  0  0  0  0  0
  -16.5210  -29.8630   23.7100 C   0  0  0  0  0  3  0  0  0  0  0  0
  -16.7240  -28.6000   23.1270 C   0  0  0  0  0  3  0  0  0  0  0  0
  -25.8870  -32.5190   23.8440 C   0  0  0  0  0  3  0  0  0  0  0  0
  -25.5820  -33.9140   24.1790 N   0  0  0  0  0  0  0  0  0  0  0  0
  -25.9010  -34.9710   23.4200 C   0  0  0  0  0  0  0  0  0  0  0  0
  -26.5580  -34.8730   22.3800 O   0  0  0  0  0  0  0  0  0  0  0  0
  -25.0020  -34.0660   24.9870 H   0  0  0  0  0  0  0  0  0  0  0  0
  -24.1670  -36.7650   23.0900 C   0  0  0  0  0  1  0  0  0  0  0  0
  -25.4180  -36.3570   23.8870 C   0  0  0  0  0  3  0  0  0  0  0  0
  -27.5610  -37.2430   24.6940 C   0  0  0  0  0  1  0  0  0  0  0  0
  -26.4480  -37.4120   23.7640 N   0  0  0  0  0  0  0  0  0  0  0  0
  -26.0460  -38.3340   23.9160 H   0  0  0  0  0  0  0  0  0  0  0  0
  -26.4120  -31.7480   25.1140 C   0  0  1  0  0  0  0  0  0  0  0  0
  -25.3290  -31.5080   26.1920 C   0  0  0  0  0  1  0  0  0  0  0  0
  -26.9930  -30.3760   24.7070 C   0  0  0  0  0  1  0  0  0  0  0  0
  -27.5680  -32.5400   25.7670 C   0  0  0  0  0  1  0  0  0  0  0  0
  -30.2510  -20.9130   20.7890 C   0  0  0  0  0  2  0  0  0  0  0  0
  -32.0810  -19.4050   19.9780 C   0  0  0  0  0  0  0  0  0  0  0  0
  -31.6370  -20.5570   20.5010 N   0  0  0  0  0  0  0  0  0  0  0  0
  -33.2740  -19.2170   19.7510 O   0  0  0  0  0  0  0  0  0  0  0  0
  -32.3100  -21.3010   20.6530 H   0  0  0  0  0  0  0  0  0  0  0  0
  -31.0320  -18.4410   19.7520 C   0  0  0  0  0  3  0  0  0  0  0  0
  -30.7840  -17.5370   20.7160 C   0  0  0  0  0  3  0  0  0  0  0  0
  -29.6000  -16.6120   20.7340 C   0  0  0  0  0  2  0  0  0  0  0  0
  -30.6460  -14.3770   20.5210 C   0  0  0  0  0  0  0  0  0  0  0  0
  -30.3870  -12.2810   19.2890 C   0  0  0  0  0  2  0  0  0  0  0  0
  -29.4460  -12.5570   18.1000 C   0  0  0  0  0  2  0  0  0  0  0  0
  -27.9630  -12.4530   18.5110 C   0  0  0  0  0  2  0  0  0  0  0  0
  -27.6320  -13.2370   19.8090 C   0  0  0  0  0  3  0  0  0  0  0  0
  -28.6660  -12.8850   20.9040 C   0  0  0  0  0  2  0  0  0  0  0  0
  -30.0130  -13.1880   20.3740 N   0  0  0  0  0  0  0  0  0  0  0  0
  -31.7170  -14.6720   19.9810 O   0  0  0  0  0  0  0  0  0  0  0  0
  -29.8970  -15.2640   21.1790 N   0  0  0  0  0  0  0  0  0  0  0  0
  -29.1410  -14.8180   21.6780 H   0  0  0  0  0  0  0  0  0  0  0  0
  -25.2140  -13.8820   20.4420 C   0  0  0  0  0  0  0  0  0  0  0  0
  -24.1310  -13.1220   20.8070 C   0  0  0  0  0  0  0  0  0  0  0  0
  -24.5830  -11.7690   20.8100 C   0  0  0  0  0  0  0  0  0  0  0  0
  -26.2600  -12.9860   20.2580 N   0  0  0  0  0  0  0  0  0  0  0  0
  -25.8770  -11.7120   20.5250 N   0  0  0  0  0  0  0  0  0  0  0  0
  -23.8490  -10.5130   21.0140 C   0  0  0  0  0  0  0  0  0  0  0  0
  -24.2730   -9.5490   21.9540 C   0  0  0  0  0  3  0  0  0  0  0  0
  -23.5360   -8.3580   22.1420 C   0  0  0  0  0  3  0  0  0  0  0  0
  -22.3640   -8.1210   21.3820 C   0  0  0  0  0  0  0  0  0  0  0  0
  -21.9620   -9.0720   20.4290 C   0  0  0  0  0  3  0  0  0  0  0  0
  -22.7010  -10.2530   20.2420 C   0  0  0  0  0  3  0  0  0  0  0  0
  -21.6050   -6.9780   21.4740 O   0  0  0  0  0  0  0  0  0  0  0  0
  -21.5590   -6.2370   22.6270 C   0  0  0  0  0  0  0  0  0  0  0  0
  -21.1530   -6.8000   23.8570 C   0  0  0  0  0  3  0  0  0  0  0  0
  -21.0510   -5.9880   25.0030 C   0  0  0  0  0  3  0  0  0  0  0  0
  -21.3430   -4.6130   24.9230 C   0  0  0  0  0  0  0  0  0  0  0  0
  -21.7470   -4.0500   23.6990 C   0  0  0  0  0  3  0  0  0  0  0  0
  -21.8480   -4.8590   22.5530 C   0  0  0  0  0  0  0  0  0  0  0  0
  -22.2130   -4.3090   21.3710 F   0  0  0  0  0  0  0  0  0  0  0  0
  -21.2380   -3.8290   26.0220 F   0  0  0  0  0  0  0  0  0  0  0  0
  -22.7360  -13.6110   21.0470 C   0  0  0  0  0  0  0  0  0  0  0  0
  -21.9860  -12.9340   21.9140 N   0  0  0  0  0  0  0  0  0  0  0  0
  -22.3080  -14.6260   20.5030 O   0  0  0  0  0  0  0  0  0  0  0  0
  -22.3410  -12.1120   22.3760 H   0  0  0  0  0  0  0  0  0  0  0  0
  -21.0480  -13.2480   22.1180 H   0  0  0  0  0  0  0  0  0  0  0  0
  -25.3910  -15.2460   20.2490 N   0  0  0  0  0  0  0  0  0  0  0  0
  -24.6260  -15.9090   20.3280 H   0  0  0  0  0  0  0  0  0  0  0  0
  -26.2490  -15.6690   19.9160 H   0  0  0  0  0  0  0  0  0  0  0  0
  2  5  1  0
  2  1  1  0
  3  2  1  0
  4  2  1  0
  6  7  1  0
  6  5  1  0
  8 19  2  0
  9  7  1  0
  9 14  1  0
 10 18  1  0
 10 20  1  0
 11 17  1  0
 11 13  1  0
 12 18  1  0
 13 12  1  0
 14 13  2  0
 15 16  1  0
 15  9  2  0
 16 11  2  0
 17 10  1  0
 18  8  1  0
 20 22  2  0
 21 20  1  0
 23 21  1  0
 24 33  2  0
 24 29  1  0
 25 21  1  0
 25 29  1  0
 26 25  1  0
 27 28  1  0
 27 26  1  0
 28 24  1  0
 29 30  2  0
 30 31  1  0
 32 31  2  0
 33 32  1  0
 34  8  1  0
 34 35  1  0
 34 44  1  0
 35 38  1  0
 36 40  1  0
 36 35  1  0
 37 36  2  0
 40 39  1  0
 42 40  1  0
 42 43  1  0
 42 41  1  0
 44 47  1  1
 44 45  1  0
 46 44  1  0
 48  1  1  0
 49 50  1  0
 50 52  1  0
 50 48  1  0
 51 49  2  0
 53 49  1  0
 53 54  2  0
 54 55  1  0
 55 64  1  0
 56 64  1  0
 57 62  1  0
 58 59  1  0
 58 57  1  0
 60 59  1  0
 60 69  1  0
 60 61  1  0
 62 56  1  0
 62 61  1  0
 63 56  2  0
 64 65  1  0
 66 67  2  0
 67 68  1  0
 67 86  1  0
 68 71  1  0
 69 66  1  0
 69 70  1  0
 70 68  2  0
 71 72  1  0
 72 73  2  0
 74 77  1  0
 74 73  1  0
 75 74  2  0
 76 75  1  0
 76 71  2  0
 77 78  1  0
 78 79  1  0
 79 80  2  0
 81 80  1  0
 81 85  1  0
 82 81  2  0
 83 78  2  0
 83 82  1  0
 84 83  1  0
 86 87  1  0
 87 90  1  0
 87 89  1  0
 88 86  2  0
 91 92  1  0
 91 66  1  0
 93 91  1  0
M  ISO  4   6 101   7 101  56 100  64 100
M  END
>  <TORSDO>  (61) 
F 23

>  <SCORE>  (61) 
-12.747

>  <name>  (61) 
61

>  <ligand_id>  (61) 
61

>  <original_smiles>  (61) 
[H]C(C(=O)N([H])C([H])([H])C([H])([H])[N+]([H])([H])C([H])([H])C([H])([H])Oc1c([H])c([H])c2c(c1[H])C([H])([H])N(C(=O)C([H])(N([H])C(=O)C([H])(N([H])C([H])([H])[H])C([H])([H])[H])C(C([H])([H])[H])(C([H])([H])[H])C([H])([H])[H])C([H])(C(=O)N([H])C1([H])c3c([H])c([H])c([H])c([H])c3C([H])([H])C([H])([H])C1([H])[H])C2([H])[H])=C([H])C([H])([H])N([H])C(=O)N1C([H])([H])C([H])([H])C([H])([H])C([H])(n2nc(-c3c([H])c([H])c(Oc4c([H])c([H])c(F)c([H])c4F)c([H])c3[H])c(C(=O)N([H])[H])c2N([H])[H])C1([H])[H]

>  <smiles>  (61) 
[H]C(C(=O)N([H])C([H])([H])C([H])([H])[N+]([H])([H])C([H])([H])C([H])([H])Oc1c([H])c([H])c2c(c1[H])C([H])([H])N(C(=O)C([H])(N([H])C(=O)C([H])(N([H])C([H])([H])[H])C([H])([H])[H])C(C([H])([H])[H])(C([H])([H])[H])C([H])([H])[H])C([H])(C(=O)N([H])C1([H])c3c([H])c([H])c([H])c([H])c3C([H])([H])C([H])([H])C1([H])[H])C2([H])[H])=C([H])C([H])([H])N([H])C(=O)N1C([H])([H])C([H])([H])C([H])([H])C([H])(n2nc(-c3c([H])c([H])c(Oc4c([H])c([H])c(F)c([H])c4F)c([H])c3[H])c(C(=O)N([H])[H])c2N([H])[H])C1([H])[H]

$$$$
62:0:0
     RDKit          3D

 99106  0  0  1  0  0  0  0  0999 V2000
  -25.6490  -21.6020   19.2200 C   0  0  0  0  0  2  0  0  0  0  0  0
  -26.2310  -20.1960   19.0350 C   0  0  0  0  0  2  0  0  0  0  0  0
  -26.8620  -19.7580   20.2740 N   0  0  0  0  0  0  0  0  0  0  0  0
  -26.3320  -20.1670   21.0420 H   0  0  0  0  0  0  0  0  0  0  0  0
  -26.7930  -18.3080   20.4330 C   0  0  0  0  0  2  0  0  0  0  0  0
  -27.0730  -17.5580   19.1160 C   0  0  0  0  0  2  0  0  0  0  0  0
  -28.1130  -16.5370   19.3170 N   0  0  0  0  0  4  0  0  0  0  0  0
  -28.9000  -16.7590   18.7300 H   0  0  0  0  0  0  0  0  0  0  0  0
  -28.4080  -16.5960   20.2910 H   0  0  0  0  0  0  0  0  0  0  0  0
  -27.6960  -15.1450   19.0660 C   0  0  0  0  0  2  0  0  0  0  0  0
  -28.9000  -14.3260   18.5670 C   0  0  0  0  0  2  0  0  0  0  0  0
  -28.7210  -12.7900   18.5360 C   0  0  0  0  0  2  0  0  0  0  0  0
  -30.3780  -11.2640   19.6020 C   0  0  0  0  0  0  0  0  0  0  0  0
  -32.8300  -11.1290   19.8180 C   0  0  0  0  0  2  0  0  0  0  0  0
  -33.2700  -11.7930   21.1400 C   0  0  0  0  0  2  0  0  0  0  0  0
  -33.4370  -13.3200   20.9810 C   0  0  0  0  0  2  0  0  0  0  0  0
  -32.2360  -13.9820   20.2540 C   0  0  0  0  0  3  0  0  0  0  0  0
  -31.9130  -13.1870   18.9700 C   0  0  0  0  0  2  0  0  0  0  0  0
  -31.6060  -11.8020   19.3600 N   0  0  0  0  0  0  0  0  0  0  0  0
  -30.2180  -10.1070   20.0000 O   0  0  0  0  0  0  0  0  0  0  0  0
  -29.3470  -12.1160   19.6740 N   0  0  0  0  0  0  0  0  0  0  0  0
  -28.6480  -11.7390   20.2990 H   0  0  0  0  0  0  0  0  0  0  0  0
  -31.6870  -16.5000   20.2090 C   0  0  0  0  0  0  0  0  0  0  0  0
  -32.4260  -17.5880   19.8290 C   0  0  0  0  0  0  0  0  0  0  0  0
  -33.6850  -17.0750   19.3900 C   0  0  0  0  0  0  0  0  0  0  0  0
  -32.4920  -15.3940   19.9770 N   0  0  0  0  0  0  0  0  0  0  0  0
  -33.6850  -15.7500   19.4380 N   0  0  0  0  0  0  0  0  0  0  0  0
  -34.9140  -17.7700   18.9860 C   0  0  0  0  0  0  0  0  0  0  0  0
  -35.5220  -17.5240   17.7350 C   0  0  0  0  0  3  0  0  0  0  0  0
  -36.6930  -18.2170   17.3590 C   0  0  0  0  0  3  0  0  0  0  0  0
  -37.2660  -19.1700   18.2340 C   0  0  0  0  0  0  0  0  0  0  0  0
  -36.6700  -19.3930   19.4880 C   0  0  0  0  0  3  0  0  0  0  0  0
  -35.5080  -18.6990   19.8640 C   0  0  0  0  0  3  0  0  0  0  0  0
  -38.4140  -19.8720   17.9630 O   0  0  0  0  0  0  0  0  0  0  0  0
  -38.7840  -20.1800   16.6800 C   0  0  0  0  0  0  0  0  0  0  0  0
  -37.9580  -20.9490   15.8300 C   0  0  0  0  0  3  0  0  0  0  0  0
  -38.4060  -21.2990   14.5410 C   0  0  0  0  0  3  0  0  0  0  0  0
  -39.6830  -20.8950   14.1040 C   0  0  0  0  0  0  0  0  0  0  0  0
  -40.5090  -20.1360   14.9520 C   0  0  0  0  0  3  0  0  0  0  0  0
  -40.0610  -19.7820   16.2360 C   0  0  0  0  0  0  0  0  0  0  0  0
  -40.8680  -19.0670   17.0560 F   0  0  0  0  0  0  0  0  0  0  0  0
  -40.1180  -21.2410   12.8690 F   0  0  0  0  0  0  0  0  0  0  0  0
  -32.0290  -19.0270   19.9640 C   0  0  0  0  0  0  0  0  0  0  0  0
  -32.4800  -19.8740   19.0450 N   0  0  0  0  0  0  0  0  0  0  0  0
  -31.2760  -19.3960   20.8630 O   0  0  0  0  0  0  0  0  0  0  0  0
  -33.0820  -19.5620   18.2980 H   0  0  0  0  0  0  0  0  0  0  0  0
  -32.2200  -20.8490   19.0920 H   0  0  0  0  0  0  0  0  0  0  0  0
  -30.4120  -16.3660   20.7580 N   0  0  0  0  0  0  0  0  0  0  0  0
  -30.2100  -17.2060   21.2940 H   0  0  0  0  0  0  0  0  0  0  0  0
  -30.3730  -15.5550   21.3680 H   0  0  0  0  0  0  0  0  0  0  0  0
  -24.2180  -21.6890   18.6730 C   0  0  0  0  0  2  0  0  0  0  0  0
  -23.4120  -22.9100   19.1540 C   0  0  0  0  0  2  0  0  0  0  0  0
  -23.8520  -24.2010   18.5730 N   0  0  0  0  0  4  0  0  0  0  0  0
  -23.2520  -24.9000   18.9830 H   0  0  0  0  0  0  0  0  0  0  0  0
  -23.6750  -24.2230   17.5820 H   0  0  0  0  0  0  0  0  0  0  0  0
  -25.2450  -24.6170   18.8660 C   0  0  0  0  0  2  0  0  0  0  0  0
  -25.6300  -25.8760   18.0550 C   0  0  0  0  0  2  0  0  0  0  0  0
  -26.8610  -25.6870   17.1430 C   0  0  0  0  0  2  0  0  0  0  0  0
  -27.2980  -26.9280   16.5870 O   0  0  0  0  0  0  0  0  0  0  0  0
  -28.5950  -27.2330    9.6170 C   0  0  0  0  0  0  0  0  0  0  0  0
  -28.2510  -26.8520   15.5980 C   0  0  0  0  0  0  0  0  0  0  0  0
  -30.4690  -26.4280   11.0210 C   0  0  0  0  0  3  0  0  0  0  0  0
  -30.1760  -26.7360   13.5370 C   0  0  0  0  0  0  0  0  0  0  0  0
  -28.7150  -28.0300   11.9710 C   0  0  0  0  0  2  0  0  0  0  0  0
  -28.9600  -27.3970   13.3240 C   0  0  0  0  0  0  0  0  0  0  0  0
  -27.9940  -27.4560   14.3500 C   0  0  0  0  0  3  0  0  0  0  0  0
  -29.4960  -26.2190   15.8080 C   0  0  0  0  0  3  0  0  0  0  0  0
  -30.4530  -26.1450   14.7810 C   0  0  0  0  0  3  0  0  0  0  0  0
  -31.1550  -26.7070   12.3870 C   0  0  0  0  0  2  0  0  0  0  0  0
  -29.2090  -27.2200   10.8340 N   0  0  0  0  0  0  0  0  0  0  0  0
  -29.0860  -26.6390    8.6480 O   0  0  0  0  0  0  0  0  0  0  0  0
  -30.2570  -24.9040   10.8860 C   0  0  0  0  0  0  0  0  0  0  0  0
  -31.2320  -24.2210   10.2660 N   0  0  0  0  0  0  0  0  0  0  0  0
  -29.2570  -24.3580   11.3590 O   0  0  0  0  0  0  0  0  0  0  0  0
  -32.0150  -24.7440    9.9010 H   0  0  0  0  0  0  0  0  0  0  0  0
  -33.0580  -21.5740    8.6260 C   0  0  0  0  0  0  0  0  0  0  0  0
  -31.2740  -22.7760   10.0560 C   0  0  0  0  0  3  0  0  0  0  0  0
  -31.9060  -22.0530   11.2690 C   0  0  0  0  0  2  0  0  0  0  0  0
  -33.4130  -21.8260   11.1190 C   0  0  0  0  0  2  0  0  0  0  0  0
  -33.7090  -20.9910    9.8710 C   0  0  0  0  0  2  0  0  0  0  0  0
  -31.9250  -22.4240    8.7150 C   0  0  0  0  0  0  0  0  0  0  0  0
  -31.3860  -22.9680    7.5290 C   0  0  0  0  0  3  0  0  0  0  0  0
  -31.9510  -22.6690    6.2760 C   0  0  0  0  0  3  0  0  0  0  0  0
  -33.0610  -21.8090    6.1940 C   0  0  0  0  0  3  0  0  0  0  0  0
  -33.6110  -21.2630    7.3660 C   0  0  0  0  0  3  0  0  0  0  0  0
  -27.2640  -28.0140    9.3780 C   0  0  0  0  0  3  0  0  0  0  0  0
  -27.1850  -28.3300    7.9460 N   0  0  0  0  0  0  0  0  0  0  0  0
  -27.4770  -29.5260    7.4200 C   0  0  0  0  0  0  0  0  0  0  0  0
  -27.7660  -30.5090    8.1070 O   0  0  0  0  0  0  0  0  0  0  0  0
  -26.9880  -27.5650    7.3180 H   0  0  0  0  0  0  0  0  0  0  0  0
  -28.8730  -29.6440    5.3360 C   0  0  0  0  0  1  0  0  0  0  0  0
  -27.4380  -29.6500    5.8850 C   0  0  0  0  0  3  0  0  0  0  0  0
  -25.2840  -30.8050    5.6410 C   0  0  0  0  0  1  0  0  0  0  0  0
  -26.7250  -30.8560    5.4110 N   0  0  0  0  0  0  0  0  0  0  0  0
  -26.8850  -31.0010    4.4180 H   0  0  0  0  0  0  0  0  0  0  0  0
  -25.9840  -27.2210    9.8440 C   0  0  1  0  0  0  0  0  0  0  0  0
  -25.9040  -25.7870    9.2690 C   0  0  0  0  0  1  0  0  0  0  0  0
  -25.9340  -27.1200   11.3880 C   0  0  0  0  0  1  0  0  0  0  0  0
  -24.7070  -27.9790    9.4070 C   0  0  0  0  0  1  0  0  0  0  0  0
  2  1  1  0
  2  3  1  0
  3  5  1  0
  3  4  1  0
  6  7  1  0
  6  5  1  0
  7  9  1  0
  8  7  1  0
 10  7  1  0
 11 10  1  0
 12 11  1  0
 12 21  1  0
 13 21  1  0
 13 20  2  0
 14 15  1  0
 16 15  1  0
 17 18  1  0
 17 16  1  0
 18 19  1  0
 19 13  1  0
 19 14  1  0
 21 22  1  0
 23 48  1  0
 24 43  1  0
 24 23  2  0
 25 27  2  0
 25 24  1  0
 26 23  1  0
 26 17  1  0
 27 26  1  0
 28 25  1  0
 28 33  1  0
 29 28  2  0
 30 29  1  0
 30 31  2  0
 31 32  1  0
 32 33  2  0
 34 31  1  0
 35 34  1  0
 36 35  2  0
 37 36  1  0
 38 37  2  0
 38 39  1  0
 39 40  2  0
 40 35  1  0
 40 41  1  0
 42 38  1  0
 43 45  2  0
 44 47  1  0
 44 43  1  0
 46 44  1  0
 48 49  1  0
 48 50  1  0
 51 52  1  0
 51  1  1  0
 53 56  1  0
 53 54  1  0
 53 52  1  0
 55 53  1  0
 57 56  1  0
 58 57  1  0
 59 58  1  0
 60 70  1  0
 61 67  1  0
 61 59  1  0
 62 72  1  0
 62 69  1  0
 63 68  1  0
 64 65  1  0
 65 63  2  0
 65 66  1  0
 66 61  2  0
 68 67  2  0
 69 63  1  0
 70 62  1  0
 70 64  1  0
 71 60  2  0
 72 74  2  0
 73 72  1  0
 75 73  1  0
 76 81  1  0
 76 80  1  0
 77 73  1  0
 77 78  1  0
 79 78  1  0
 80 79  1  0
 81 77  1  0
 82 81  2  0
 83 82  1  0
 84 83  2  0
 84 85  1  0
 85 76  2  0
 86 60  1  0
 86 96  1  0
 87 86  1  0
 88 87  1  0
 88 89  2  0
 90 87  1  0
 92 91  1  0
 92 88  1  0
 94 93  1  0
 94 92  1  0
 95 94  1  0
 96 98  1  1
 97 96  1  0
 99 96  1  0
M  ISO  4  13 100  21 100  58 101  59 101
M  END
>  <TORSDO>  (62) 
F 30

>  <SCORE>  (62) 
-1.104

>  <name>  (62) 
62

>  <ligand_id>  (62) 
62

>  <original_smiles>  (62) 
[H]c1c([H])c([H])c2c(c1[H])C([H])([H])C([H])([H])C([H])([H])C2([H])N([H])C(=O)C1([H])N(C(=O)C([H])(N([H])C(=O)C([H])(N([H])C([H])([H])[H])C([H])([H])[H])C(C([H])([H])[H])(C([H])([H])[H])C([H])([H])[H])C([H])([H])c2c([H])c(OC([H])([H])C([H])([H])C([H])([H])[N+]([H])([H])C([H])([H])C([H])([H])C([H])([H])C([H])([H])N([H])C([H])([H])C([H])([H])[N+]([H])([H])C([H])([H])C([H])([H])C([H])([H])N([H])C(=O)N3C([H])([H])C([H])([H])C([H])([H])C([H])(n4nc(-c5c([H])c([H])c(Oc6c([H])c([H])c(F)c([H])c6F)c([H])c5[H])c(C(=O)N([H])[H])c4N([H])[H])C3([H])[H])c([H])c([H])c2C1([H])[H]

>  <smiles>  (62) 
[H]c1c([H])c([H])c2c(c1[H])C([H])([H])C([H])([H])C([H])([H])C2([H])N([H])C(=O)C1([H])N(C(=O)C([H])(N([H])C(=O)C([H])(N([H])C([H])([H])[H])C([H])([H])[H])C(C([H])([H])[H])(C([H])([H])[H])C([H])([H])[H])C([H])([H])c2c([H])c(OC([H])([H])C([H])([H])C([H])([H])[N+]([H])([H])C([H])([H])C([H])([H])C([H])([H])C([H])([H])N([H])C([H])([H])C([H])([H])[N+]([H])([H])C([H])([H])C([H])([H])C([H])([H])N([H])C(=O)N3C([H])([H])C([H])([H])C([H])([H])C([H])(n4nc(-c5c([H])c([H])c(Oc6c([H])c([H])c(F)c([H])c6F)c([H])c5[H])c(C(=O)N([H])[H])c4N([H])[H])C3([H])[H])c([H])c([H])c2C1([H])[H]

$$$$
63:0:0
     RDKit          3D

 94101  0  0  1  0  0  0  0  0999 V2000
  -28.9040  -22.5470   18.6130 C   0  0  0  0  0  2  0  0  0  0  0  0
  -29.3660  -23.9030   18.0520 C   0  0  0  0  0  2  0  0  0  0  0  0
  -28.2280  -24.8390   17.9310 N   0  0  0  0  0  4  0  0  0  0  0  0
  -27.6890  -24.7930   18.7810 H   0  0  0  0  0  0  0  0  0  0  0  0
  -27.6370  -24.5120   17.1820 H   0  0  0  0  0  0  0  0  0  0  0  0
  -28.5740  -26.2600   17.6800 C   0  0  0  0  0  2  0  0  0  0  0  0
  -29.1250  -26.9790   18.9330 C   0  0  0  0  0  2  0  0  0  0  0  0
  -28.3210  -26.7540   20.0940 O   0  0  0  0  0  0  0  0  0  0  0  0
  -24.5550  -31.9110   23.2690 C   0  0  0  0  0  0  0  0  0  0  0  0
  -27.1640  -27.4870   20.1480 C   0  0  0  0  0  0  0  0  0  0  0  0
  -23.3290  -30.5100   21.6410 C   0  0  0  0  0  3  0  0  0  0  0  0
  -24.7700  -28.9680   20.2100 C   0  0  0  0  0  0  0  0  0  0  0  0
  -25.8540  -30.8680   21.4180 C   0  0  0  0  0  2  0  0  0  0  0  0
  -25.9330  -29.4980   20.7820 C   0  0  0  0  0  0  0  0  0  0  0  0
  -27.1390  -28.7620   20.7550 C   0  0  0  0  0  3  0  0  0  0  0  0
  -25.9770  -26.9490   19.6100 C   0  0  0  0  0  3  0  0  0  0  0  0
  -24.7820  -27.6900   19.6280 C   0  0  0  0  0  3  0  0  0  0  0  0
  -23.5250  -29.8230   20.2630 C   0  0  0  0  0  2  0  0  0  0  0  0
  -24.5980  -31.1110   22.1660 N   0  0  0  0  0  0  0  0  0  0  0  0
  -23.4790  -32.1900   23.8170 O   0  0  0  0  0  0  0  0  0  0  0  0
  -22.6870  -29.4920   22.6080 C   0  0  0  0  0  0  0  0  0  0  0  0
  -21.3650  -29.3020   22.4800 N   0  0  0  0  0  0  0  0  0  0  0  0
  -23.3760  -28.8750   23.4240 O   0  0  0  0  0  0  0  0  0  0  0  0
  -20.8720  -29.8490   21.7880 H   0  0  0  0  0  0  0  0  0  0  0  0
  -17.9960  -28.0980   22.9730 C   0  0  0  0  0  0  0  0  0  0  0  0
  -20.5500  -28.3690   23.2560 C   0  0  0  0  0  3  0  0  0  0  0  0
  -20.6630  -26.9340   22.6920 C   0  0  0  0  0  2  0  0  0  0  0  0
  -19.5680  -26.5970   21.6740 C   0  0  0  0  0  2  0  0  0  0  0  0
  -18.1820  -26.7440   22.3080 C   0  0  0  0  0  2  0  0  0  0  0  0
  -19.1100  -28.8680   23.4020 C   0  0  0  0  0  0  0  0  0  0  0  0
  -18.8830  -30.1380   23.9780 C   0  0  0  0  0  3  0  0  0  0  0  0
  -17.5750  -30.6370   24.1300 C   0  0  0  0  0  3  0  0  0  0  0  0
  -16.4770  -29.8620   23.7190 C   0  0  0  0  0  3  0  0  0  0  0  0
  -16.6870  -28.5960   23.1450 C   0  0  0  0  0  3  0  0  0  0  0  0
  -25.8490  -32.5360   23.8760 C   0  0  0  0  0  3  0  0  0  0  0  0
  -26.3790  -31.7680   25.1520 C   0  0  1  0  0  0  0  0  0  0  0  0
  -25.2910  -31.5410   26.2300 C   0  0  0  0  0  1  0  0  0  0  0  0
  -26.9530  -30.3860   24.7630 C   0  0  0  0  0  1  0  0  0  0  0  0
  -27.5390  -32.5630   25.7980 C   0  0  0  0  0  1  0  0  0  0  0  0
  -25.5540  -33.9390   24.1960 N   0  0  0  0  0  0  0  0  0  0  0  0
  -25.9000  -34.9810   23.4280 C   0  0  0  0  0  0  0  0  0  0  0  0
  -26.5710  -34.8650   22.3990 O   0  0  0  0  0  0  0  0  0  0  0  0
  -24.9490  -34.1050   24.9870 H   0  0  0  0  0  0  0  0  0  0  0  0
  -24.1910  -36.7860   23.0510 C   0  0  0  0  0  1  0  0  0  0  0  0
  -25.4210  -36.3750   23.8740 C   0  0  0  0  0  3  0  0  0  0  0  0
  -27.5580  -37.2420   24.7170 C   0  0  0  0  0  1  0  0  0  0  0  0
  -26.4650  -37.4170   23.7650 N   0  0  0  0  0  0  0  0  0  0  0  0
  -26.0660  -38.3420   23.9060 H   0  0  0  0  0  0  0  0  0  0  0  0
  -30.0550  -21.5370   18.7550 C   0  0  0  0  0  2  0  0  0  0  0  0
  -29.6040  -20.2270   19.4250 C   0  0  0  0  0  2  0  0  0  0  0  0
  -30.7350  -19.3180   19.7120 N   0  0  0  0  0  4  0  0  0  0  0  0
  -31.4020  -19.8130   20.2830 H   0  0  0  0  0  0  0  0  0  0  0  0
  -31.1980  -19.0620   18.8520 H   0  0  0  0  0  0  0  0  0  0  0  0
  -30.3310  -18.0950   20.4350 C   0  0  0  0  0  2  0  0  0  0  0  0
  -31.5360  -17.3360   21.0180 C   0  0  0  0  0  2  0  0  0  0  0  0
  -31.1420  -16.1570   21.9390 C   0  0  0  0  0  2  0  0  0  0  0  0
  -30.7370  -14.3080   20.2960 C   0  0  0  0  0  0  0  0  0  0  0  0
  -30.2780  -12.2760   18.9810 C   0  0  0  0  0  2  0  0  0  0  0  0
  -29.2890  -12.5390   17.8310 C   0  0  0  0  0  2  0  0  0  0  0  0
  -27.8360  -12.4040   18.3200 C   0  0  0  0  0  2  0  0  0  0  0  0
  -27.5670  -13.2090   19.6180 C   0  0  0  0  0  3  0  0  0  0  0  0
  -28.6550  -12.9250   20.6770 C   0  0  0  0  0  2  0  0  0  0  0  0
  -29.9740  -13.2080   20.0770 N   0  0  0  0  0  0  0  0  0  0  0  0
  -31.7510  -14.5660   19.6420 O   0  0  0  0  0  0  0  0  0  0  0  0
  -30.3490  -15.0940   21.3090 N   0  0  0  0  0  0  0  0  0  0  0  0
  -29.5040  -14.8120   21.7850 H   0  0  0  0  0  0  0  0  0  0  0  0
  -25.1930  -13.8330   20.3980 C   0  0  0  0  0  0  0  0  0  0  0  0
  -24.1330  -13.0650   20.8020 C   0  0  0  0  0  0  0  0  0  0  0  0
  -24.5870  -11.7120   20.7610 C   0  0  0  0  0  0  0  0  0  0  0  0
  -26.2260  -12.9460   20.1380 N   0  0  0  0  0  0  0  0  0  0  0  0
  -25.8660  -11.6650   20.4120 N   0  0  0  0  0  0  0  0  0  0  0  0
  -23.8620  -10.4540   20.9800 C   0  0  0  0  0  0  0  0  0  0  0  0
  -24.3170   -9.4900   21.9060 C   0  0  0  0  0  3  0  0  0  0  0  0
  -23.5950   -8.2960   22.1110 C   0  0  0  0  0  3  0  0  0  0  0  0
  -22.4030   -8.0550   21.3880 C   0  0  0  0  0  0  0  0  0  0  0  0
  -21.9640   -9.0070   20.4500 C   0  0  0  0  0  3  0  0  0  0  0  0
  -22.6880  -10.1940   20.2450 C   0  0  0  0  0  3  0  0  0  0  0  0
  -21.6500   -6.9120   21.5010 O   0  0  0  0  0  0  0  0  0  0  0  0
  -21.6350   -6.1700   22.6550 C   0  0  0  0  0  0  0  0  0  0  0  0
  -21.2510   -6.7280   23.8930 C   0  0  0  0  0  3  0  0  0  0  0  0
  -21.1840   -5.9140   25.0410 C   0  0  0  0  0  3  0  0  0  0  0  0
  -21.4920   -4.5430   24.9520 C   0  0  0  0  0  0  0  0  0  0  0  0
  -21.8690   -3.9850   23.7190 C   0  0  0  0  0  3  0  0  0  0  0  0
  -21.9380   -4.7960   22.5730 C   0  0  0  0  0  0  0  0  0  0  0  0
  -22.2820   -4.2490   21.3820 F   0  0  0  0  0  0  0  0  0  0  0  0
  -21.4200   -3.7580   26.0530 F   0  0  0  0  0  0  0  0  0  0  0  0
  -22.7470  -13.5510   21.1170 C   0  0  0  0  0  0  0  0  0  0  0  0
  -22.0430  -12.8580   22.0070 N   0  0  0  0  0  0  0  0  0  0  0  0
  -22.2960  -14.5760   20.6090 O   0  0  0  0  0  0  0  0  0  0  0  0
  -22.4210  -12.0290   22.4420 H   0  0  0  0  0  0  0  0  0  0  0  0
  -21.1120  -13.1630   22.2570 H   0  0  0  0  0  0  0  0  0  0  0  0
  -25.3610  -15.2020   20.2120 N   0  0  0  0  0  0  0  0  0  0  0  0
  -24.6050  -15.8640   20.3500 H   0  0  0  0  0  0  0  0  0  0  0  0
  -26.2090  -15.6320   19.8670 H   0  0  0  0  0  0  0  0  0  0  0  0
  1 49  1  0
  2  1  1  0
  3  2  1  0
  3  4  1  0
  5  3  1  0
  6  3  1  0
  6  7  1  0
  7  8  1  0
  8 10  1  0
  9 20  2  0
 10 15  1  0
 11 19  1  0
 11 21  1  0
 12 18  1  0
 12 14  1  0
 13 19  1  0
 14 13  1  0
 15 14  2  0
 16 17  1  0
 16 10  2  0
 17 12  2  0
 18 11  1  0
 19  9  1  0
 21 23  2  0
 22 21  1  0
 24 22  1  0
 25 34  2  0
 25 30  1  0
 26 22  1  0
 26 30  1  0
 27 26  1  0
 28 29  1  0
 28 27  1  0
 29 25  1  0
 30 31  2  0
 31 32  1  0
 33 32  2  0
 34 33  1  0
 35  9  1  0
 35 40  1  0
 35 36  1  0
 36 39  1  1
 36 37  1  0
 38 36  1  0
 40 43  1  0
 41 45  1  0
 41 40  1  0
 42 41  2  0
 45 44  1  0
 47 45  1  0
 47 48  1  0
 47 46  1  0
 49 50  1  0
 50 51  1  0
 51 52  1  0
 51 54  1  0
 53 51  1  0
 54 55  1  0
 55 56  1  0
 57 65  1  0
 58 63  1  0
 59 60  1  0
 59 58  1  0
 61 60  1  0
 61 70  1  0
 61 62  1  0
 63 57  1  0
 63 62  1  0
 64 57  2  0
 65 66  1  0
 65 56  1  0
 67 68  2  0
 68 87  1  0
 69 68  1  0
 69 72  1  0
 70 67  1  0
 70 71  1  0
 71 69  2  0
 72 73  1  0
 73 74  2  0
 75 78  1  0
 75 74  1  0
 76 75  2  0
 77 76  1  0
 77 72  2  0
 78 79  1  0
 79 80  1  0
 80 81  2  0
 82 81  1  0
 82 86  1  0
 83 82  2  0
 84 79  2  0
 84 83  1  0
 85 84  1  0
 87 88  1  0
 88 91  1  0
 88 90  1  0
 89 87  2  0
 92 93  1  0
 92 67  1  0
 94 92  1  0
M  ISO  4   7 101   8 101  57 100  65 100
M  END
>  <TORSDO>  (63) 
F 26

>  <SCORE>  (63) 
-11.668

>  <name>  (63) 
63

>  <ligand_id>  (63) 
63

>  <original_smiles>  (63) 
[H]c1c([H])c([H])c2c(c1[H])C([H])([H])C([H])([H])C([H])([H])C2([H])N([H])C(=O)C1([H])N(C(=O)C([H])(N([H])C(=O)C([H])(N([H])C([H])([H])[H])C([H])([H])[H])C(C([H])([H])[H])(C([H])([H])[H])C([H])([H])[H])C([H])([H])c2c([H])c(OC([H])([H])C([H])([H])[N+]([H])([H])C([H])([H])C([H])([H])C([H])([H])C([H])([H])[N+]([H])([H])C([H])([H])C([H])([H])C([H])([H])N([H])C(=O)N3C([H])([H])C([H])([H])C([H])([H])C([H])(n4nc(-c5c([H])c([H])c(Oc6c([H])c([H])c(F)c([H])c6F)c([H])c5[H])c(C(=O)N([H])[H])c4N([H])[H])C3([H])[H])c([H])c([H])c2C1([H])[H]

>  <smiles>  (63) 
[H]c1c([H])c([H])c2c(c1[H])C([H])([H])C([H])([H])C([H])([H])C2([H])N([H])C(=O)C1([H])N(C(=O)C([H])(N([H])C(=O)C([H])(N([H])C([H])([H])[H])C([H])([H])[H])C(C([H])([H])[H])(C([H])([H])[H])C([H])([H])[H])C([H])([H])c2c([H])c(OC([H])([H])C([H])([H])[N+]([H])([H])C([H])([H])C([H])([H])C([H])([H])C([H])([H])[N+]([H])([H])C([H])([H])C([H])([H])C([H])([H])N([H])C(=O)N3C([H])([H])C([H])([H])C([H])([H])C([H])(n4nc(-c5c([H])c([H])c(Oc6c([H])c([H])c(F)c([H])c6F)c([H])c5[H])c(C(=O)N([H])[H])c4N([H])[H])C3([H])[H])c([H])c([H])c2C1([H])[H]

$$$$
64:0:0
     RDKit          3D

 94101  0  0  1  0  0  0  0  0999 V2000
  -31.2630  -23.5420   18.5740 C   0  0  0  0  0  2  0  0  0  0  0  0
  -31.9940  -24.8580   18.9200 C   0  0  0  0  0  2  0  0  0  0  0  0
  -31.0750  -25.9850   19.2030 N   0  0  0  0  0  4  0  0  0  0  0  0
  -30.2350  -25.8930   18.6530 H   0  0  0  0  0  0  0  0  0  0  0  0
  -31.5330  -26.8250   18.8810 H   0  0  0  0  0  0  0  0  0  0  0  0
  -30.7170  -26.1880   20.6260 C   0  0  0  0  0  2  0  0  0  0  0  0
  -29.5860  -27.2090   20.7720 C   0  0  0  0  0  2  0  0  0  0  0  0
  -28.4310  -26.7120   20.0890 O   0  0  0  0  0  0  0  0  0  0  0  0
  -24.6260  -31.8970   23.1880 C   0  0  0  0  0  0  0  0  0  0  0  0
  -27.2770  -27.4660   20.1450 C   0  0  0  0  0  0  0  0  0  0  0  0
  -23.4000  -30.4720   21.5700 C   0  0  0  0  0  3  0  0  0  0  0  0
  -24.8460  -28.9170   20.1540 C   0  0  0  0  0  0  0  0  0  0  0  0
  -25.9120  -30.8480   21.3390 C   0  0  0  0  0  2  0  0  0  0  0  0
  -25.9970  -29.4680   20.7270 C   0  0  0  0  0  0  0  0  0  0  0  0
  -27.2060  -28.7510   20.7310 C   0  0  0  0  0  3  0  0  0  0  0  0
  -26.1090  -26.9210   19.5680 C   0  0  0  0  0  3  0  0  0  0  0  0
  -24.8940  -27.6360   19.5760 C   0  0  0  0  0  3  0  0  0  0  0  0
  -23.5970  -29.7660   20.1980 C   0  0  0  0  0  2  0  0  0  0  0  0
  -24.6640  -31.0880   22.0920 N   0  0  0  0  0  0  0  0  0  0  0  0
  -23.5520  -32.1750   23.7400 O   0  0  0  0  0  0  0  0  0  0  0  0
  -22.7610  -29.4650   22.5500 C   0  0  0  0  0  0  0  0  0  0  0  0
  -21.4350  -29.2850   22.4430 N   0  0  0  0  0  0  0  0  0  0  0  0
  -23.4550  -28.8450   23.3600 O   0  0  0  0  0  0  0  0  0  0  0  0
  -20.9370  -29.8410   21.7630 H   0  0  0  0  0  0  0  0  0  0  0  0
  -18.0650  -28.1120   22.9860 C   0  0  0  0  0  0  0  0  0  0  0  0
  -20.6250  -28.3580   23.2300 C   0  0  0  0  0  3  0  0  0  0  0  0
  -20.7150  -26.9210   22.6660 C   0  0  0  0  0  2  0  0  0  0  0  0
  -19.6020  -26.5960   21.6660 C   0  0  0  0  0  2  0  0  0  0  0  0
  -18.2280  -26.7540   22.3220 C   0  0  0  0  0  2  0  0  0  0  0  0
  -19.1910  -28.8730   23.3970 C   0  0  0  0  0  0  0  0  0  0  0  0
  -18.9850  -30.1450   23.9720 C   0  0  0  0  0  3  0  0  0  0  0  0
  -17.6860  -30.6550   24.1450 C   0  0  0  0  0  3  0  0  0  0  0  0
  -16.5730  -29.8910   23.7530 C   0  0  0  0  0  3  0  0  0  0  0  0
  -16.7640  -28.6220   23.1780 C   0  0  0  0  0  3  0  0  0  0  0  0
  -25.9230  -32.5290   23.7840 C   0  0  0  0  0  3  0  0  0  0  0  0
  -26.4870  -31.7380   25.0260 C   0  0  1  0  0  0  0  0  0  0  0  0
  -25.4270  -31.4590   26.1160 C   0  0  0  0  0  1  0  0  0  0  0  0
  -27.0870  -30.3810   24.5830 C   0  0  0  0  0  1  0  0  0  0  0  0
  -27.6400  -32.5370   25.6780 C   0  0  0  0  0  1  0  0  0  0  0  0
  -25.6110  -33.9160   24.1470 N   0  0  0  0  0  0  0  0  0  0  0  0
  -25.9150  -34.9850   23.3980 C   0  0  0  0  0  0  0  0  0  0  0  0
  -26.5600  -34.9070   22.3470 O   0  0  0  0  0  0  0  0  0  0  0  0
  -25.0370  -34.0500   24.9680 H   0  0  0  0  0  0  0  0  0  0  0  0
  -24.1560  -36.7590   23.1160 C   0  0  0  0  0  1  0  0  0  0  0  0
  -25.4220  -36.3580   23.8910 C   0  0  0  0  0  3  0  0  0  0  0  0
  -27.5690  -37.2530   24.6770 C   0  0  0  0  0  1  0  0  0  0  0  0
  -26.4380  -37.4260   23.7680 N   0  0  0  0  0  0  0  0  0  0  0  0
  -26.0250  -38.3370   23.9450 H   0  0  0  0  0  0  0  0  0  0  0  0
  -30.7280  -22.7610   19.7920 C   0  0  0  0  0  2  0  0  0  0  0  0
  -30.0500  -21.5170   19.3910 N   0  0  0  0  0  4  0  0  0  0  0  0
  -29.1690  -21.7350   18.9470 H   0  0  0  0  0  0  0  0  0  0  0  0
  -30.6300  -21.0580   18.7080 H   0  0  0  0  0  0  0  0  0  0  0  0
  -29.8120  -20.5500   20.4800 C   0  0  0  0  0  2  0  0  0  0  0  0
  -29.6310  -19.1590   19.8600 C   0  0  0  0  0  2  0  0  0  0  0  0
  -29.6470  -17.9700   20.8320 C   0  0  0  0  0  2  0  0  0  0  0  0
  -29.7500  -16.6810   20.0040 C   0  0  0  0  0  2  0  0  0  0  0  0
  -30.6070  -14.4330   20.4430 C   0  0  0  0  0  0  0  0  0  0  0  0
  -30.3190  -12.2760   19.3230 C   0  0  0  0  0  2  0  0  0  0  0  0
  -29.3760  -12.5220   18.1240 C   0  0  0  0  0  2  0  0  0  0  0  0
  -27.9000  -12.3970   18.5600 C   0  0  0  0  0  2  0  0  0  0  0  0
  -27.5780  -13.2190   19.8380 C   0  0  0  0  0  3  0  0  0  0  0  0
  -28.6380  -12.9560   20.9370 C   0  0  0  0  0  2  0  0  0  0  0  0
  -29.9660  -13.2410   20.3700 N   0  0  0  0  0  0  0  0  0  0  0  0
  -31.7310  -14.6340   19.9660 O   0  0  0  0  0  0  0  0  0  0  0  0
  -29.8090  -15.4520   20.7930 N   0  0  0  0  0  0  0  0  0  0  0  0
  -28.9490  -15.1870   21.2510 H   0  0  0  0  0  0  0  0  0  0  0  0
  -25.1880  -13.8420   20.5690 C   0  0  0  0  0  0  0  0  0  0  0  0
  -24.1200  -13.0720   20.9460 C   0  0  0  0  0  0  0  0  0  0  0  0
  -24.5760  -11.7200   20.9100 C   0  0  0  0  0  0  0  0  0  0  0  0
  -26.2270  -12.9550   20.3240 N   0  0  0  0  0  0  0  0  0  0  0  0
  -25.8620  -11.6750   20.5850 N   0  0  0  0  0  0  0  0  0  0  0  0
  -23.8500  -10.4590   21.1080 C   0  0  0  0  0  0  0  0  0  0  0  0
  -24.3120   -9.4720   22.0070 C   0  0  0  0  0  3  0  0  0  0  0  0
  -23.5840   -8.2780   22.1930 C   0  0  0  0  0  3  0  0  0  0  0  0
  -22.3800   -8.0610   21.4810 C   0  0  0  0  0  0  0  0  0  0  0  0
  -21.9370   -9.0370   20.5710 C   0  0  0  0  0  3  0  0  0  0  0  0
  -22.6660  -10.2230   20.3830 C   0  0  0  0  0  3  0  0  0  0  0  0
  -21.6230   -6.9180   21.5770 O   0  0  0  0  0  0  0  0  0  0  0  0
  -21.6420   -6.1360   22.7050 C   0  0  0  0  0  0  0  0  0  0  0  0
  -21.3280   -6.6590   23.9790 C   0  0  0  0  0  3  0  0  0  0  0  0
  -21.2880   -5.8050   25.1000 C   0  0  0  0  0  3  0  0  0  0  0  0
  -21.5540   -4.4320   24.9480 C   0  0  0  0  0  0  0  0  0  0  0  0
  -21.8620   -3.9080   23.6800 C   0  0  0  0  0  3  0  0  0  0  0  0
  -21.9030   -4.7580   22.5610 C   0  0  0  0  0  0  0  0  0  0  0  0
  -22.1800   -4.2470   21.3370 F   0  0  0  0  0  0  0  0  0  0  0  0
  -21.5090   -3.6090   26.0220 F   0  0  0  0  0  0  0  0  0  0  0  0
  -22.7280  -13.5540   21.2370 C   0  0  0  0  0  0  0  0  0  0  0  0
  -22.0100  -12.8640   22.1150 N   0  0  0  0  0  0  0  0  0  0  0  0
  -22.2860  -14.5780   20.7180 O   0  0  0  0  0  0  0  0  0  0  0  0
  -22.3790  -12.0360   22.5590 H   0  0  0  0  0  0  0  0  0  0  0  0
  -21.0770  -13.1730   22.3490 H   0  0  0  0  0  0  0  0  0  0  0  0
  -25.3520  -15.2130   20.3950 N   0  0  0  0  0  0  0  0  0  0  0  0
  -24.5820  -15.8630   20.5210 H   0  0  0  0  0  0  0  0  0  0  0  0
  -26.1940  -15.6610   20.0580 H   0  0  0  0  0  0  0  0  0  0  0  0
  1  2  1  0
  1 49  1  0
  2  3  1  0
  3  6  1  0
  4  3  1  0
  5  3  1  0
  6  7  1  0
  8 10  1  0
  8  7  1  0
  9 20  2  0
 10 15  1  0
 11 19  1  0
 11 21  1  0
 12 18  1  0
 12 14  1  0
 13 19  1  0
 14 15  2  0
 14 13  1  0
 16 17  1  0
 16 10  2  0
 17 12  2  0
 18 11  1  0
 19  9  1  0
 21 23  2  0
 22 21  1  0
 24 22  1  0
 25 34  2  0
 25 30  1  0
 26 22  1  0
 26 30  1  0
 27 26  1  0
 28 29  1  0
 28 27  1  0
 29 25  1  0
 30 31  2  0
 31 32  1  0
 33 32  2  0
 34 33  1  0
 35  9  1  0
 35 40  1  0
 35 36  1  0
 36 39  1  1
 36 37  1  0
 38 36  1  0
 40 43  1  0
 41 45  1  0
 41 40  1  0
 42 41  2  0
 45 44  1  0
 47 45  1  0
 47 48  1  0
 47 46  1  0
 50 49  1  0
 50 53  1  0
 51 50  1  0
 52 50  1  0
 54 53  1  0
 54 55  1  0
 56 65  1  0
 56 55  1  0
 57 65  1  0
 58 63  1  0
 59 60  1  0
 59 58  1  0
 61 60  1  0
 61 70  1  0
 61 62  1  0
 63 57  1  0
 63 62  1  0
 64 57  2  0
 65 66  1  0
 67 68  2  0
 68 87  1  0
 69 68  1  0
 69 72  1  0
 70 67  1  0
 70 71  1  0
 71 69  2  0
 72 73  1  0
 73 74  2  0
 75 78  1  0
 75 74  1  0
 76 75  2  0
 77 76  1  0
 77 72  2  0
 78 79  1  0
 79 80  1  0
 80 81  2  0
 82 81  1  0
 82 86  1  0
 83 82  2  0
 84 79  2  0
 84 83  1  0
 85 84  1  0
 87 88  1  0
 88 91  1  0
 88 90  1  0
 89 87  2  0
 92 93  1  0
 92 67  1  0
 94 92  1  0
M  ISO  4   7 101   8 101  57 100  65 100
M  END
>  <TORSDO>  (64) 
F 26

>  <SCORE>  (64) 
-11.668

>  <name>  (64) 
64

>  <ligand_id>  (64) 
64

>  <original_smiles>  (64) 
[H]c1c([H])c([H])c2c(c1[H])C([H])([H])C([H])([H])C([H])([H])C2([H])N([H])C(=O)C1([H])N(C(=O)C([H])(N([H])C(=O)C([H])(N([H])C([H])([H])[H])C([H])([H])[H])C(C([H])([H])[H])(C([H])([H])[H])C([H])([H])[H])C([H])([H])c2c([H])c(OC([H])([H])C([H])([H])[N+]([H])([H])C([H])([H])C([H])([H])C([H])([H])[N+]([H])([H])C([H])([H])C([H])([H])C([H])([H])C([H])([H])N([H])C(=O)N3C([H])([H])C([H])([H])C([H])([H])C([H])(n4nc(-c5c([H])c([H])c(Oc6c([H])c([H])c(F)c([H])c6F)c([H])c5[H])c(C(=O)N([H])[H])c4N([H])[H])C3([H])[H])c([H])c([H])c2C1([H])[H]

>  <smiles>  (64) 
[H]c1c([H])c([H])c2c(c1[H])C([H])([H])C([H])([H])C([H])([H])C2([H])N([H])C(=O)C1([H])N(C(=O)C([H])(N([H])C(=O)C([H])(N([H])C([H])([H])[H])C([H])([H])[H])C(C([H])([H])[H])(C([H])([H])[H])C([H])([H])[H])C([H])([H])c2c([H])c(OC([H])([H])C([H])([H])[N+]([H])([H])C([H])([H])C([H])([H])C([H])([H])[N+]([H])([H])C([H])([H])C([H])([H])C([H])([H])C([H])([H])N([H])C(=O)N3C([H])([H])C([H])([H])C([H])([H])C([H])(n4nc(-c5c([H])c([H])c(Oc6c([H])c([H])c(F)c([H])c6F)c([H])c5[H])c(C(=O)N([H])[H])c4N([H])[H])C3([H])[H])c([H])c([H])c2C1([H])[H]

$$$$
65:0:0
     RDKit          3D

 99106  0  0  1  0  0  0  0  0999 V2000
  -23.2920  -24.0610   22.4710 C   0  0  0  0  0  2  0  0  0  0  0  0
  -24.4940  -23.6500   23.1070 O   0  0  0  0  0  0  0  0  0  0  0  0
  -25.4890  -24.6700   23.1770 C   0  0  0  0  0  2  0  0  0  0  0  0
  -26.6260  -24.4030   22.1730 C   0  0  0  0  0  0  0  0  0  0  0  0
  -27.5290  -25.3790   22.0400 N   0  0  0  0  0  0  0  0  0  0  0  0
  -26.7000  -23.3310   21.5590 O   0  0  0  0  0  0  0  0  0  0  0  0
  -27.3850  -26.2200   22.5810 H   0  0  0  0  0  0  0  0  0  0  0  0
  -28.7570  -25.2920   21.2580 C   0  0  0  0  0  2  0  0  0  0  0  0
  -29.3810  -26.6810   21.0210 C   0  0  0  0  0  2  0  0  0  0  0  0
  -28.8440  -27.2730   19.8430 O   0  0  0  0  0  0  0  0  0  0  0  0
  -24.5830  -31.7180   23.4550 C   0  0  0  0  0  0  0  0  0  0  0  0
  -27.6300  -27.8960   19.9760 C   0  0  0  0  0  0  0  0  0  0  0  0
  -23.5250  -30.4420   21.6180 C   0  0  0  0  0  3  0  0  0  0  0  0
  -25.1250  -29.1830   20.0820 C   0  0  0  0  0  0  0  0  0  0  0  0
  -26.0160  -31.0020   21.5490 C   0  0  0  0  0  2  0  0  0  0  0  0
  -26.2190  -29.7210   20.7720 C   0  0  0  0  0  0  0  0  0  0  0  0
  -27.4760  -29.0800   20.7280 C   0  0  0  0  0  3  0  0  0  0  0  0
  -26.5270  -27.3650   19.2810 C   0  0  0  0  0  3  0  0  0  0  0  0
  -25.2700  -27.9980   19.3390 C   0  0  0  0  0  3  0  0  0  0  0  0
  -23.8170  -29.9380   20.1790 C   0  0  0  0  0  2  0  0  0  0  0  0
  -24.7220  -31.0630   22.2680 N   0  0  0  0  0  0  0  0  0  0  0  0
  -23.4720  -31.8480   23.9860 O   0  0  0  0  0  0  0  0  0  0  0  0
  -22.9270  -29.2710   22.4320 C   0  0  0  0  0  0  0  0  0  0  0  0
  -21.6520  -28.9470   22.1660 N   0  0  0  0  0  0  0  0  0  0  0  0
  -23.6140  -28.6560   23.2540 O   0  0  0  0  0  0  0  0  0  0  0  0
  -21.1550  -29.4970   21.4780 H   0  0  0  0  0  0  0  0  0  0  0  0
  -18.4490  -27.2800   22.1860 C   0  0  0  0  0  0  0  0  0  0  0  0
  -20.8970  -27.8560   22.7800 C   0  0  0  0  0  3  0  0  0  0  0  0
  -21.2660  -26.4980   22.1410 C   0  0  0  0  0  2  0  0  0  0  0  0
  -20.3410  -26.1040   20.9850 C   0  0  0  0  0  2  0  0  0  0  0  0
  -18.8890  -26.0170   21.4650 C   0  0  0  0  0  2  0  0  0  0  0  0
  -19.3930  -28.1510   22.7890 C   0  0  0  0  0  0  0  0  0  0  0  0
  -18.9350  -29.3300   23.4170 C   0  0  0  0  0  3  0  0  0  0  0  0
  -17.5620  -29.6410   23.4500 C   0  0  0  0  0  3  0  0  0  0  0  0
  -16.6310  -28.7680   22.8640 C   0  0  0  0  0  3  0  0  0  0  0  0
  -17.0740  -27.5890   22.2390 C   0  0  0  0  0  3  0  0  0  0  0  0
  -25.8050  -32.3560   24.1880 C   0  0  0  0  0  3  0  0  0  0  0  0
  -25.4840  -33.7680   24.4330 N   0  0  0  0  0  0  0  0  0  0  0  0
  -25.9430  -34.7900   23.6980 C   0  0  0  0  0  0  0  0  0  0  0  0
  -26.7490  -34.6440   22.7760 O   0  0  0  0  0  0  0  0  0  0  0  0
  -24.7890  -33.9590   25.1400 H   0  0  0  0  0  0  0  0  0  0  0  0
  -24.3410  -36.6090   23.0310 C   0  0  0  0  0  1  0  0  0  0  0  0
  -25.4230  -36.1980   24.0420 C   0  0  0  0  0  3  0  0  0  0  0  0
  -27.4190  -37.0540   25.1870 C   0  0  0  0  0  1  0  0  0  0  0  0
  -26.4860  -37.2260   24.0770 N   0  0  0  0  0  0  0  0  0  0  0  0
  -26.0850  -38.1570   24.1390 H   0  0  0  0  0  0  0  0  0  0  0  0
  -26.1770  -31.6250   25.5350 C   0  0  1  0  0  0  0  0  0  0  0  0
  -24.9760  -31.4340   26.4900 C   0  0  0  0  0  1  0  0  0  0  0  0
  -26.7870  -30.2340   25.2480 C   0  0  0  0  0  1  0  0  0  0  0  0
  -27.2630  -32.4350   26.2840 C   0  0  0  0  0  1  0  0  0  0  0  0
  -22.7750  -22.9140   21.5910 C   0  0  0  0  0  2  0  0  0  0  0  0
  -22.8370  -23.2490   20.0880 C   0  0  0  0  0  2  0  0  0  0  0  0
  -24.2510  -23.5700   19.5560 C   0  0  0  0  0  2  0  0  0  0  0  0
  -24.1870  -24.3030   18.2760 N   0  0  0  0  0  4  0  0  0  0  0  0
  -23.6280  -23.7720   17.6270 H   0  0  0  0  0  0  0  0  0  0  0  0
  -23.7120  -25.1800   18.4630 H   0  0  0  0  0  0  0  0  0  0  0  0
  -25.5000  -24.5690   17.6490 C   0  0  0  0  0  2  0  0  0  0  0  0
  -25.3500  -25.1550   16.2320 C   0  0  0  0  0  2  0  0  0  0  0  0
  -26.6680  -25.6870   15.6440 C   0  0  0  0  0  2  0  0  0  0  0  0
  -26.5000  -26.1880   14.1970 C   0  0  0  0  0  2  0  0  0  0  0  0
  -27.6690  -27.0530   13.6920 C   0  0  0  0  0  2  0  0  0  0  0  0
  -29.6370  -25.7250   12.9080 C   0  0  0  0  0  0  0  0  0  0  0  0
  -31.5940  -24.2970   12.4370 C   0  0  0  0  0  2  0  0  0  0  0  0
  -31.2780  -22.8160   12.7230 C   0  0  0  0  0  2  0  0  0  0  0  0
  -31.5180  -22.4780   14.2060 C   0  0  0  0  0  2  0  0  0  0  0  0
  -30.8400  -23.4940   15.1630 C   0  0  0  0  0  3  0  0  0  0  0  0
  -31.1770  -24.9420   14.7450 C   0  0  0  0  0  2  0  0  0  0  0  0
  -30.7760  -25.1230   13.3360 N   0  0  0  0  0  0  0  0  0  0  0  0
  -29.2500  -25.6890   11.7350 O   0  0  0  0  0  0  0  0  0  0  0  0
  -28.9520  -26.3740   13.8580 N   0  0  0  0  0  0  0  0  0  0  0  0
  -29.3600  -26.3750   14.7820 H   0  0  0  0  0  0  0  0  0  0  0  0
  -30.3840  -23.0190   17.6530 C   0  0  0  0  0  0  0  0  0  0  0  0
  -31.2240  -22.7630   18.7030 C   0  0  0  0  0  0  0  0  0  0  0  0
  -32.5490  -22.8330   18.1730 C   0  0  0  0  0  0  0  0  0  0  0  0
  -31.2030  -23.2370   16.5550 N   0  0  0  0  0  0  0  0  0  0  0  0
  -32.5160  -23.1730   16.8920 N   0  0  0  0  0  0  0  0  0  0  0  0
  -33.8460  -22.5390   18.7980 C   0  0  0  0  0  0  0  0  0  0  0  0
  -34.8970  -23.4820   18.7920 C   0  0  0  0  0  3  0  0  0  0  0  0
  -36.1290  -23.1840   19.4140 C   0  0  0  0  0  3  0  0  0  0  0  0
  -36.3180  -21.9350   20.0540 C   0  0  0  0  0  0  0  0  0  0  0  0
  -35.2750  -20.9930   20.0370 C   0  0  0  0  0  3  0  0  0  0  0  0
  -34.0510  -21.2880   19.4130 C   0  0  0  0  0  3  0  0  0  0  0  0
  -37.4870  -21.5490   20.6620 O   0  0  0  0  0  0  0  0  0  0  0  0
  -38.3510  -22.4650   21.2080 C   0  0  0  0  0  0  0  0  0  0  0  0
  -37.9490  -23.3510   22.2300 C   0  0  0  0  0  3  0  0  0  0  0  0
  -38.8870  -24.2290   22.8110 C   0  0  0  0  0  3  0  0  0  0  0  0
  -40.2270  -24.2130   22.3800 C   0  0  0  0  0  0  0  0  0  0  0  0
  -40.6300  -23.3270   21.3660 C   0  0  0  0  0  3  0  0  0  0  0  0
  -39.6950  -22.4530   20.7840 C   0  0  0  0  0  0  0  0  0  0  0  0
  -40.0940  -21.5860   19.8220 F   0  0  0  0  0  0  0  0  0  0  0  0
  -41.1310  -25.0490   22.9430 F   0  0  0  0  0  0  0  0  0  0  0  0
  -30.8230  -22.3810   20.0990 C   0  0  0  0  0  0  0  0  0  0  0  0
  -31.6170  -22.7660   21.0920 N   0  0  0  0  0  0  0  0  0  0  0  0
  -29.7740  -21.7770   20.3200 O   0  0  0  0  0  0  0  0  0  0  0  0
  -32.4670  -23.2790   20.9110 H   0  0  0  0  0  0  0  0  0  0  0  0
  -31.3700  -22.5460   22.0460 H   0  0  0  0  0  0  0  0  0  0  0  0
  -28.9980  -23.0660   17.5340 N   0  0  0  0  0  0  0  0  0  0  0  0
  -28.3850  -22.8210   18.3040 H   0  0  0  0  0  0  0  0  0  0  0  0
  -28.5060  -23.2050   16.6610 H   0  0  0  0  0  0  0  0  0  0  0  0
  1  2  1  0
  2  3  1  0
  4  3  1  0
  5  4  1  0
  5  7  1  0
  6  4  2  0
  8  5  1  0
  9  8  1  0
 10 12  1  0
 10  9  1  0
 11 22  2  0
 12 17  1  0
 13 21  1  0
 13 23  1  0
 14 20  1  0
 14 16  1  0
 15 21  1  0
 16 15  1  0
 17 16  2  0
 18 19  1  0
 18 12  2  0
 19 14  2  0
 20 13  1  0
 21 11  1  0
 23 25  2  0
 24 23  1  0
 26 24  1  0
 27 36  2  0
 27 32  1  0
 28 24  1  0
 28 32  1  0
 29 28  1  0
 30 31  1  0
 30 29  1  0
 31 27  1  0
 32 33  2  0
 33 34  1  0
 35 34  2  0
 36 35  1  0
 37 11  1  0
 37 38  1  0
 37 47  1  0
 38 41  1  0
 39 43  1  0
 39 38  1  0
 40 39  2  0
 43 42  1  0
 43 45  1  0
 45 46  1  0
 45 44  1  0
 47 50  1  1
 47 48  1  0
 49 47  1  0
 51  1  1  0
 52 51  1  0
 53 52  1  0
 54 56  1  0
 54 53  1  0
 55 54  1  0
 57 54  1  0
 58 57  1  0
 59 58  1  0
 60 59  1  0
 61 70  1  0
 61 60  1  0
 62 68  1  0
 62 70  1  0
 63 64  1  0
 63 68  1  0
 64 65  1  0
 66 65  1  0
 66 75  1  0
 67 66  1  0
 68 67  1  0
 69 62  2  0
 70 71  1  0
 72 73  2  0
 73 92  1  0
 74 73  1  0
 74 77  1  0
 75 76  1  0
 75 72  1  0
 76 74  2  0
 77 82  1  0
 78 77  2  0
 78 79  1  0
 79 80  2  0
 80 83  1  0
 81 80  1  0
 82 81  2  0
 83 84  1  0
 84 85  1  0
 85 86  2  0
 87 86  1  0
 87 91  1  0
 88 87  2  0
 89 84  2  0
 89 88  1  0
 90 89  1  0
 92 94  2  0
 92 93  1  0
 93 96  1  0
 95 93  1  0
 97 72  1  0
 97 98  1  0
 99 97  1  0
M  ISO  4   9 101  10 101  62 100  70 100
M  END
>  <TORSDO>  (65) 
F 30

>  <SCORE>  (65) 
-4.018

>  <name>  (65) 
65

>  <ligand_id>  (65) 
65

>  <original_smiles>  (65) 
[H]c1c([H])c([H])c2c(c1[H])C([H])([H])C([H])([H])C([H])([H])C2([H])N([H])C(=O)C1([H])N(C(=O)C([H])(N([H])C(=O)C([H])(N([H])C([H])([H])[H])C([H])([H])[H])C(C([H])([H])[H])(C([H])([H])[H])C([H])([H])[H])C([H])([H])c2c([H])c(OC([H])([H])C([H])([H])N([H])C(=O)C([H])([H])OC([H])([H])C([H])([H])C([H])([H])C([H])([H])[N+]([H])([H])C([H])([H])C([H])([H])C([H])([H])C([H])([H])C([H])([H])N([H])C(=O)N3C([H])([H])C([H])([H])C([H])([H])C([H])(n4nc(-c5c([H])c([H])c(Oc6c([H])c([H])c(F)c([H])c6F)c([H])c5[H])c(C(=O)N([H])[H])c4N([H])[H])C3([H])[H])c([H])c([H])c2C1([H])[H]

>  <smiles>  (65) 
[H]c1c([H])c([H])c2c(c1[H])C([H])([H])C([H])([H])C([H])([H])C2([H])N([H])C(=O)C1([H])N(C(=O)C([H])(N([H])C(=O)C([H])(N([H])C([H])([H])[H])C([H])([H])[H])C(C([H])([H])[H])(C([H])([H])[H])C([H])([H])[H])C([H])([H])c2c([H])c(OC([H])([H])C([H])([H])N([H])C(=O)C([H])([H])OC([H])([H])C([H])([H])C([H])([H])C([H])([H])[N+]([H])([H])C([H])([H])C([H])([H])C([H])([H])C([H])([H])C([H])([H])N([H])C(=O)N3C([H])([H])C([H])([H])C([H])([H])C([H])(n4nc(-c5c([H])c([H])c(Oc6c([H])c([H])c(F)c([H])c6F)c([H])c5[H])c(C(=O)N([H])[H])c4N([H])[H])C3([H])[H])c([H])c([H])c2C1([H])[H]

$$$$
66:0:0
     RDKit          3D

 92 99  0  0  1  0  0  0  0  0999 V2000
  -31.3730  -21.7310   21.6970 C   0  0  0  0  0  3  0  0  0  0  0  0
  -31.3140  -23.0780   21.6600 C   0  0  0  0  0  3  0  0  0  0  0  0
  -31.6080  -20.9020   20.5280 C   0  0  0  0  0  0  0  0  0  0  0  0
  -31.0110  -19.7130   20.6440 N   0  0  0  0  0  0  0  0  0  0  0  0
  -32.2820  -21.2020   19.5400 O   0  0  0  0  0  0  0  0  0  0  0  0
  -30.4690  -19.5360   21.4780 H   0  0  0  0  0  0  0  0  0  0  0  0
  -31.0620  -18.6780   19.6190 C   0  0  0  0  0  2  0  0  0  0  0  0
  -30.1710  -17.4720   19.9500 C   0  0  0  0  0  2  0  0  0  0  0  0
  -30.5810  -16.7050   21.2290 C   0  0  0  0  0  2  0  0  0  0  0  0
  -30.6910  -14.3750   20.4320 C   0  0  0  0  0  0  0  0  0  0  0  0
  -30.2990  -12.3020   19.1770 C   0  0  0  0  0  2  0  0  0  0  0  0
  -29.3300  -12.5790   18.0110 C   0  0  0  0  0  2  0  0  0  0  0  0
  -27.8660  -12.4490   18.4730 C   0  0  0  0  0  2  0  0  0  0  0  0
  -27.5770  -13.2390   19.7780 C   0  0  0  0  0  3  0  0  0  0  0  0
  -28.6540  -12.9470   20.8470 C   0  0  0  0  0  2  0  0  0  0  0  0
  -29.9750  -13.2380   20.2620 N   0  0  0  0  0  0  0  0  0  0  0  0
  -31.7590  -14.5980   19.8520 O   0  0  0  0  0  0  0  0  0  0  0  0
  -30.1110  -15.3210   21.1810 N   0  0  0  0  0  0  0  0  0  0  0  0
  -29.2400  -15.0920   21.6380 H   0  0  0  0  0  0  0  0  0  0  0  0
  -25.1870  -13.8410   20.5290 C   0  0  0  0  0  0  0  0  0  0  0  0
  -24.1270  -13.0640   20.9120 C   0  0  0  0  0  0  0  0  0  0  0  0
  -24.5890  -11.7130   20.8640 C   0  0  0  0  0  0  0  0  0  0  0  0
  -26.2300  -12.9630   20.2770 N   0  0  0  0  0  0  0  0  0  0  0  0
  -25.8720  -11.6790   20.5330 N   0  0  0  0  0  0  0  0  0  0  0  0
  -23.8680  -10.4490   21.0610 C   0  0  0  0  0  0  0  0  0  0  0  0
  -24.3310   -9.4690   21.9670 C   0  0  0  0  0  3  0  0  0  0  0  0
  -23.6130   -8.2670   22.1510 C   0  0  0  0  0  3  0  0  0  0  0  0
  -22.4180   -8.0380   21.4290 C   0  0  0  0  0  0  0  0  0  0  0  0
  -21.9750   -9.0060   20.5100 C   0  0  0  0  0  3  0  0  0  0  0  0
  -22.6930  -10.1980   20.3240 C   0  0  0  0  0  3  0  0  0  0  0  0
  -21.6700   -6.8890   21.5230 O   0  0  0  0  0  0  0  0  0  0  0  0
  -21.6690   -6.1230   22.6610 C   0  0  0  0  0  0  0  0  0  0  0  0
  -21.3040   -6.6530   23.9180 C   0  0  0  0  0  3  0  0  0  0  0  0
  -21.2500   -5.8130   25.0480 C   0  0  0  0  0  3  0  0  0  0  0  0
  -21.5500   -4.4440   24.9230 C   0  0  0  0  0  0  0  0  0  0  0  0
  -21.9070   -3.9120   23.6710 C   0  0  0  0  0  3  0  0  0  0  0  0
  -21.9630   -4.7490   22.5430 C   0  0  0  0  0  0  0  0  0  0  0  0
  -22.2880   -4.2290   21.3350 F   0  0  0  0  0  0  0  0  0  0  0  0
  -21.4900   -3.6330   26.0050 F   0  0  0  0  0  0  0  0  0  0  0  0
  -22.7330  -13.5360   21.2150 C   0  0  0  0  0  0  0  0  0  0  0  0
  -22.0240  -12.8340   22.0910 N   0  0  0  0  0  0  0  0  0  0  0  0
  -22.2820  -14.5630   20.7090 O   0  0  0  0  0  0  0  0  0  0  0  0
  -22.4020  -12.0040   22.5250 H   0  0  0  0  0  0  0  0  0  0  0  0
  -21.0900  -13.1320   22.3350 H   0  0  0  0  0  0  0  0  0  0  0  0
  -25.3470  -15.2120   20.3560 N   0  0  0  0  0  0  0  0  0  0  0  0
  -24.5840  -15.8680   20.4800 H   0  0  0  0  0  0  0  0  0  0  0  0
  -26.1950  -15.6530   20.0220 H   0  0  0  0  0  0  0  0  0  0  0  0
  -31.4580  -23.9870   20.4470 C   0  0  0  0  0  2  0  0  0  0  0  0
  -30.2890  -23.9780   19.6340 O   0  0  0  0  0  0  0  0  0  0  0  0
  -29.1340  -24.5430   20.2490 C   0  0  0  0  0  2  0  0  0  0  0  0
  -28.5250  -25.6100   19.3270 C   0  0  0  0  0  2  0  0  0  0  0  0
  -28.3050  -26.7940   20.0930 O   0  0  0  0  0  0  0  0  0  0  0  0
  -24.5220  -31.9010   23.2250 C   0  0  0  0  0  0  0  0  0  0  0  0
  -27.0910  -27.4470   20.0980 C   0  0  0  0  0  0  0  0  0  0  0  0
  -23.2820  -30.5120   21.5990 C   0  0  0  0  0  3  0  0  0  0  0  0
  -24.6990  -28.9570   20.1610 C   0  0  0  0  0  0  0  0  0  0  0  0
  -25.8070  -30.8450   21.3710 C   0  0  0  0  0  2  0  0  0  0  0  0
  -25.8670  -29.4740   20.7310 C   0  0  0  0  0  0  0  0  0  0  0  0
  -27.0600  -28.7220   20.7030 C   0  0  0  0  0  3  0  0  0  0  0  0
  -25.8940  -26.9280   19.5480 C   0  0  0  0  0  3  0  0  0  0  0  0
  -24.7040  -27.6800   19.5760 C   0  0  0  0  0  3  0  0  0  0  0  0
  -23.4650  -29.8280   20.2180 C   0  0  0  0  0  2  0  0  0  0  0  0
  -24.5560  -31.1010   22.1230 N   0  0  0  0  0  0  0  0  0  0  0  0
  -23.4510  -32.1850   23.7760 O   0  0  0  0  0  0  0  0  0  0  0  0
  -22.6330  -29.4950   22.5650 C   0  0  0  0  0  0  0  0  0  0  0  0
  -21.3090  -29.3140   22.4400 N   0  0  0  0  0  0  0  0  0  0  0  0
  -23.3180  -28.8730   23.3830 O   0  0  0  0  0  0  0  0  0  0  0  0
  -20.8200  -29.8680   21.7500 H   0  0  0  0  0  0  0  0  0  0  0  0
  -17.9370  -28.1170   22.9230 C   0  0  0  0  0  0  0  0  0  0  0  0
  -20.4910  -28.3840   23.2170 C   0  0  0  0  0  3  0  0  0  0  0  0
  -20.6040  -26.9470   22.6600 C   0  0  0  0  0  2  0  0  0  0  0  0
  -19.5120  -26.6070   21.6410 C   0  0  0  0  0  2  0  0  0  0  0  0
  -18.1240  -26.7580   22.2700 C   0  0  0  0  0  2  0  0  0  0  0  0
  -19.0500  -28.8870   23.3530 C   0  0  0  0  0  0  0  0  0  0  0  0
  -18.8240  -30.1600   23.9210 C   0  0  0  0  0  3  0  0  0  0  0  0
  -17.5160  -30.6620   24.0670 C   0  0  0  0  0  3  0  0  0  0  0  0
  -16.4180  -29.8870   23.6550 C   0  0  0  0  0  3  0  0  0  0  0  0
  -16.6280  -28.6180   23.0890 C   0  0  0  0  0  3  0  0  0  0  0  0
  -25.8230  -32.5180   23.8300 C   0  0  0  0  0  3  0  0  0  0  0  0
  -25.5350  -33.9190   24.1600 N   0  0  0  0  0  0  0  0  0  0  0  0
  -25.8770  -34.9660   23.3960 C   0  0  0  0  0  0  0  0  0  0  0  0
  -26.5400  -34.8510   22.3620 O   0  0  0  0  0  0  0  0  0  0  0  0
  -24.9490  -34.0840   24.9660 H   0  0  0  0  0  0  0  0  0  0  0  0
  -24.1700  -36.7760   23.0430 C   0  0  0  0  0  1  0  0  0  0  0  0
  -25.4080  -36.3590   23.8530 C   0  0  0  0  0  3  0  0  0  0  0  0
  -27.5570  -37.2160   24.6770 C   0  0  0  0  0  1  0  0  0  0  0  0
  -26.4540  -37.4000   23.7370 N   0  0  0  0  0  0  0  0  0  0  0  0
  -26.0600  -38.3240   23.8880 H   0  0  0  0  0  0  0  0  0  0  0  0
  -26.3490  -31.7400   25.0980 C   0  0  1  0  0  0  0  0  0  0  0  0
  -25.2680  -31.5130   26.1810 C   0  0  0  0  0  1  0  0  0  0  0  0
  -26.9100  -30.3570   24.6940 C   0  0  0  0  0  1  0  0  0  0  0  0
  -27.5170  -32.5200   25.7450 C   0  0  0  0  0  1  0  0  0  0  0  0
  2  1  2  0
  3  4  1  0
  3  1  1  0
  4  6  1  0
  5  3  2  0
  7  8  1  0
  7  4  1  0
  8  9  1  0
 10 18  1  0
 11 16  1  0
 12 13  1  0
 12 11  1  0
 14 13  1  0
 14 23  1  0
 14 15  1  0
 16 10  1  0
 16 15  1  0
 17 10  2  0
 18  9  1  0
 18 19  1  0
 20 21  2  0
 21 40  1  0
 22 21  1  0
 22 25  1  0
 23 20  1  0
 23 24  1  0
 24 22  2  0
 25 26  1  0
 26 27  2  0
 28 31  1  0
 28 27  1  0
 29 28  2  0
 30 29  1  0
 30 25  2  0
 31 32  1  0
 32 33  1  0
 33 34  2  0
 35 34  1  0
 35 39  1  0
 36 35  2  0
 37 32  2  0
 37 36  1  0
 38 37  1  0
 40 41  1  0
 41 44  1  0
 41 43  1  0
 42 40  2  0
 45 46  1  0
 45 20  1  0
 47 45  1  0
 48  2  1  0
 49 50  1  0
 49 48  1  0
 51 52  1  0
 51 50  1  0
 52 54  1  0
 53 64  2  0
 54 59  1  0
 55 63  1  0
 55 65  1  0
 56 62  1  0
 56 58  1  0
 57 63  1  0
 58 57  1  0
 59 58  2  0
 60 61  1  0
 60 54  2  0
 61 56  2  0
 62 55  1  0
 63 53  1  0
 65 67  2  0
 66 65  1  0
 68 66  1  0
 69 78  2  0
 69 74  1  0
 70 66  1  0
 70 74  1  0
 71 70  1  0
 72 73  1  0
 72 71  1  0
 73 69  1  0
 74 75  2  0
 75 76  1  0
 77 76  2  0
 78 77  1  0
 79 53  1  0
 79 80  1  0
 79 89  1  0
 80 83  1  0
 81 85  1  0
 81 80  1  0
 82 81  2  0
 85 84  1  0
 87 85  1  0
 87 88  1  0
 87 86  1  0
 89 92  1  1
 89 90  1  0
 91 89  1  0
M  ISO  4  10 100  18 100  51 101  52 101
M  END
>  <TORSDO>  (66) 
F 24

>  <SCORE>  (66) 
-12.190

>  <name>  (66) 
66

>  <ligand_id>  (66) 
66

>  <original_smiles>  (66) 
[H]C(C(=O)N([H])C([H])([H])C([H])([H])C([H])([H])N([H])C(=O)N1C([H])([H])C([H])([H])C([H])([H])C([H])(n2nc(-c3c([H])c([H])c(Oc4c([H])c([H])c(F)c([H])c4F)c([H])c3[H])c(C(=O)N([H])[H])c2N([H])[H])C1([H])[H])=C([H])C([H])([H])OC([H])([H])C([H])([H])Oc1c([H])c([H])c2c(c1[H])C([H])([H])N(C(=O)C([H])(N([H])C(=O)C([H])(N([H])C([H])([H])[H])C([H])([H])[H])C(C([H])([H])[H])(C([H])([H])[H])C([H])([H])[H])C([H])(C(=O)N([H])C1([H])c3c([H])c([H])c([H])c([H])c3C([H])([H])C([H])([H])C1([H])[H])C2([H])[H]

>  <smiles>  (66) 
[H]C(C(=O)N([H])C([H])([H])C([H])([H])C([H])([H])N([H])C(=O)N1C([H])([H])C([H])([H])C([H])([H])C([H])(n2nc(-c3c([H])c([H])c(Oc4c([H])c([H])c(F)c([H])c4F)c([H])c3[H])c(C(=O)N([H])[H])c2N([H])[H])C1([H])[H])=C([H])C([H])([H])OC([H])([H])C([H])([H])Oc1c([H])c([H])c2c(c1[H])C([H])([H])N(C(=O)C([H])(N([H])C(=O)C([H])(N([H])C([H])([H])[H])C([H])([H])[H])C(C([H])([H])[H])(C([H])([H])[H])C([H])([H])[H])C([H])(C(=O)N([H])C1([H])c3c([H])c([H])c([H])c([H])c3C([H])([H])C([H])([H])C1([H])[H])C2([H])[H]

$$$$
67:0:0
     RDKit          3D

 97104  0  0  1  0  0  0  0  0999 V2000
  -26.6410  -21.0920   18.2920 C   0  0  0  0  0  2  0  0  0  0  0  0
  -27.5660  -19.8170   20.2730 C   0  0  0  0  0  0  0  0  0  0  0  0
  -26.7930  -20.7590   19.7110 N   0  0  0  0  0  0  0  0  0  0  0  0
  -27.6730  -19.7590   21.5000 O   0  0  0  0  0  0  0  0  0  0  0  0
  -26.2930  -21.3520   20.3590 H   0  0  0  0  0  0  0  0  0  0  0  0
  -28.3000  -18.7800   19.4100 C   0  0  0  0  0  2  0  0  0  0  0  0
  -30.3670  -17.4320   19.6560 C   0  0  0  0  0  0  0  0  0  0  0  0
  -29.3700  -18.1500   20.1780 N   0  0  0  0  0  0  0  0  0  0  0  0
  -30.4710  -17.2340   18.4450 O   0  0  0  0  0  0  0  0  0  0  0  0
  -29.3270  -18.3030   21.1770 H   0  0  0  0  0  0  0  0  0  0  0  0
  -31.3770  -16.8140   20.6270 C   0  0  0  0  0  2  0  0  0  0  0  0
  -31.6060  -14.4510   19.8550 C   0  0  0  0  0  0  0  0  0  0  0  0
  -31.0730  -12.2990   18.7770 C   0  0  0  0  0  2  0  0  0  0  0  0
  -30.0740  -12.5200   17.6240 C   0  0  0  0  0  2  0  0  0  0  0  0
  -28.6220  -12.5160   18.1440 C   0  0  0  0  0  2  0  0  0  0  0  0
  -28.4270  -13.4420   19.3740 C   0  0  0  0  0  3  0  0  0  0  0  0
  -29.5170  -13.1640   20.4330 C   0  0  0  0  0  2  0  0  0  0  0  0
  -30.8410  -13.3310   19.7950 N   0  0  0  0  0  0  0  0  0  0  0  0
  -32.6160  -14.6320   19.1680 O   0  0  0  0  0  0  0  0  0  0  0  0
  -31.1340  -15.3790   20.6960 N   0  0  0  0  0  0  0  0  0  0  0  0
  -30.3350  -15.0960   21.2400 H   0  0  0  0  0  0  0  0  0  0  0  0
  -26.1820  -14.2890   20.3180 C   0  0  0  0  0  0  0  0  0  0  0  0
  -25.0540  -13.6290   20.7250 C   0  0  0  0  0  0  0  0  0  0  0  0
  -25.3340  -12.2380   20.5630 C   0  0  0  0  0  0  0  0  0  0  0  0
  -27.0840  -13.3070   19.9380 N   0  0  0  0  0  0  0  0  0  0  0  0
  -26.5790  -12.0640   20.1360 N   0  0  0  0  0  0  0  0  0  0  0  0
  -24.4680  -11.0630   20.7300 C   0  0  0  0  0  0  0  0  0  0  0  0
  -24.8240   -9.9980   21.5880 C   0  0  0  0  0  3  0  0  0  0  0  0
  -23.9670   -8.8860   21.7420 C   0  0  0  0  0  3  0  0  0  0  0  0
  -22.7390   -8.8330   21.0390 C   0  0  0  0  0  0  0  0  0  0  0  0
  -22.4000   -9.8860   20.1700 C   0  0  0  0  0  3  0  0  0  0  0  0
  -23.2580  -10.9880   20.0140 C   0  0  0  0  0  3  0  0  0  0  0  0
  -21.8570   -7.7820   21.1070 O   0  0  0  0  0  0  0  0  0  0  0  0
  -21.7300   -7.0210   22.2410 C   0  0  0  0  0  0  0  0  0  0  0  0
  -21.3830   -7.5910   23.4850 C   0  0  0  0  0  3  0  0  0  0  0  0
  -21.1960   -6.7630   24.6110 C   0  0  0  0  0  3  0  0  0  0  0  0
  -21.3490   -5.3680   24.4930 C   0  0  0  0  0  0  0  0  0  0  0  0
  -21.6900   -4.7990   23.2540 C   0  0  0  0  0  3  0  0  0  0  0  0
  -21.8780   -5.6230   22.1310 C   0  0  0  0  0  0  0  0  0  0  0  0
  -22.1870   -5.0690   20.9330 F   0  0  0  0  0  0  0  0  0  0  0  0
  -21.1640   -4.5720   25.5710 F   0  0  0  0  0  0  0  0  0  0  0  0
  -23.7570  -14.2520   21.1550 C   0  0  0  0  0  0  0  0  0  0  0  0
  -23.0250  -13.5940   22.0490 N   0  0  0  0  0  0  0  0  0  0  0  0
  -23.4080  -15.3540   20.7350 O   0  0  0  0  0  0  0  0  0  0  0  0
  -23.3190  -12.6960   22.4030 H   0  0  0  0  0  0  0  0  0  0  0  0
  -22.1580  -13.9930   22.3810 H   0  0  0  0  0  0  0  0  0  0  0  0
  -26.5160  -15.6380   20.2280 N   0  0  0  0  0  0  0  0  0  0  0  0
  -25.8590  -16.3720   20.4620 H   0  0  0  0  0  0  0  0  0  0  0  0
  -27.4000  -15.9840   19.8830 H   0  0  0  0  0  0  0  0  0  0  0  0
  -26.5290  -22.6210   18.1060 C   0  0  0  0  0  2  0  0  0  0  0  0
  -27.4790  -23.1810   17.0210 C   0  0  0  0  0  2  0  0  0  0  0  0
  -27.7510  -24.6280   17.1850 N   0  0  0  0  0  4  0  0  0  0  0  0
  -26.8720  -25.1210   17.2140 H   0  0  0  0  0  0  0  0  0  0  0  0
  -28.2320  -24.9460   16.3560 H   0  0  0  0  0  0  0  0  0  0  0  0
  -28.5960  -24.9660   18.3630 C   0  0  0  0  0  2  0  0  0  0  0  0
  -28.7900  -26.4810   18.5500 C   0  0  0  0  0  2  0  0  0  0  0  0
  -28.4090  -26.8770   19.8710 O   0  0  0  0  0  0  0  0  0  0  0  0
  -24.5740  -31.8390   23.2370 C   0  0  0  0  0  0  0  0  0  0  0  0
  -27.2070  -27.5330   19.9720 C   0  0  0  0  0  0  0  0  0  0  0  0
  -23.3500  -30.4830   21.5680 C   0  0  0  0  0  3  0  0  0  0  0  0
  -24.7920  -28.9880   20.0860 C   0  0  0  0  0  0  0  0  0  0  0  0
  -25.8670  -30.8590   21.3470 C   0  0  0  0  0  2  0  0  0  0  0  0
  -25.9500  -29.5040   20.6800 C   0  0  0  0  0  0  0  0  0  0  0  0
  -27.1570  -28.7760   20.6370 C   0  0  0  0  0  3  0  0  0  0  0  0
  -26.0250  -27.0060   19.4050 C   0  0  0  0  0  3  0  0  0  0  0  0
  -24.8210  -27.7330   19.4560 C   0  0  0  0  0  3  0  0  0  0  0  0
  -23.5420  -29.8370   20.1680 C   0  0  0  0  0  2  0  0  0  0  0  0
  -24.6160  -31.0730   22.1100 N   0  0  0  0  0  0  0  0  0  0  0  0
  -23.4990  -32.0920   23.7980 O   0  0  0  0  0  0  0  0  0  0  0  0
  -22.7130  -29.4340   22.5060 C   0  0  0  0  0  0  0  0  0  0  0  0
  -21.3930  -29.2330   22.3670 N   0  0  0  0  0  0  0  0  0  0  0  0
  -23.4040  -28.8020   23.3100 O   0  0  0  0  0  0  0  0  0  0  0  0
  -20.8980  -29.8030   21.6960 H   0  0  0  0  0  0  0  0  0  0  0  0
  -18.0480  -27.9410   22.7810 C   0  0  0  0  0  0  0  0  0  0  0  0
  -20.5910  -28.2630   23.1100 C   0  0  0  0  0  3  0  0  0  0  0  0
  -20.7420  -26.8410   22.5180 C   0  0  0  0  0  2  0  0  0  0  0  0
  -19.6720  -26.5100   21.4740 C   0  0  0  0  0  2  0  0  0  0  0  0
  -18.2740  -26.6060   22.0920 C   0  0  0  0  0  2  0  0  0  0  0  0
  -19.1370  -28.7280   23.2430 C   0  0  0  0  0  0  0  0  0  0  0  0
  -18.8760  -29.9800   23.8400 C   0  0  0  0  0  3  0  0  0  0  0  0
  -17.5560  -30.4470   23.9820 C   0  0  0  0  0  3  0  0  0  0  0  0
  -16.4800  -29.6590   23.5360 C   0  0  0  0  0  3  0  0  0  0  0  0
  -16.7260  -28.4080   22.9430 C   0  0  0  0  0  3  0  0  0  0  0  0
  -25.8680  -32.4500   23.8590 C   0  0  0  0  0  3  0  0  0  0  0  0
  -26.3890  -31.6560   25.1190 C   0  0  1  0  0  0  0  0  0  0  0  0
  -25.3000  -31.4090   26.1900 C   0  0  0  0  0  1  0  0  0  0  0  0
  -26.9590  -30.2820   24.6970 C   0  0  0  0  0  1  0  0  0  0  0  0
  -27.5500  -32.4310   25.7830 C   0  0  0  0  0  1  0  0  0  0  0  0
  -25.5730  -33.8480   24.2070 N   0  0  0  0  0  0  0  0  0  0  0  0
  -25.9170  -34.9030   23.4600 C   0  0  0  0  0  0  0  0  0  0  0  0
  -26.5880  -34.8060   22.4280 O   0  0  0  0  0  0  0  0  0  0  0  0
  -24.9770  -33.9990   25.0080 H   0  0  0  0  0  0  0  0  0  0  0  0
  -24.2060  -36.7150   23.1160 C   0  0  0  0  0  1  0  0  0  0  0  0
  -25.4390  -36.2910   23.9300 C   0  0  0  0  0  3  0  0  0  0  0  0
  -27.5780  -37.1460   24.7820 C   0  0  0  0  0  1  0  0  0  0  0  0
  -26.4830  -37.3350   23.8330 N   0  0  0  0  0  0  0  0  0  0  0  0
  -26.0860  -38.2570   23.9870 H   0  0  0  0  0  0  0  0  0  0  0  0
  1  3  1  0
  2  4  2  0
  3  2  1  0
  3  5  1  0
  6  8  1  0
  6  2  1  0
  7  8  1  0
  7 11  1  0
  8 10  1  0
  9  7  2  0
 11 20  1  0
 12 20  1  0
 13 18  1  0
 14 15  1  0
 14 13  1  0
 16 15  1  0
 16 25  1  0
 16 17  1  0
 18 12  1  0
 18 17  1  0
 19 12  2  0
 20 21  1  0
 22 23  2  0
 23 42  1  0
 24 23  1  0
 24 27  1  0
 25 26  1  0
 25 22  1  0
 26 24  2  0
 27 28  1  0
 28 29  2  0
 30 33  1  0
 30 29  1  0
 31 30  2  0
 32 31  1  0
 32 27  2  0
 33 34  1  0
 34 35  1  0
 35 36  2  0
 37 36  1  0
 37 41  1  0
 38 37  2  0
 39 34  2  0
 39 38  1  0
 40 39  1  0
 42 43  1  0
 43 46  1  0
 43 45  1  0
 44 42  2  0
 47 22  1  0
 47 48  1  0
 49 47  1  0
 50  1  1  0
 51 52  1  0
 51 50  1  0
 52 53  1  0
 52 55  1  0
 54 52  1  0
 55 56  1  0
 56 57  1  0
 57 59  1  0
 58 69  2  0
 59 64  1  0
 60 68  1  0
 60 70  1  0
 61 67  1  0
 61 63  1  0
 62 68  1  0
 63 62  1  0
 64 63  2  0
 65 66  1  0
 65 59  2  0
 66 61  2  0
 67 60  1  0
 68 58  1  0
 70 72  2  0
 71 70  1  0
 73 71  1  0
 74 83  2  0
 74 79  1  0
 75 71  1  0
 75 79  1  0
 76 75  1  0
 77 78  1  0
 77 76  1  0
 78 74  1  0
 79 80  2  0
 80 81  1  0
 82 81  2  0
 83 82  1  0
 84 58  1  0
 84 89  1  0
 84 85  1  0
 85 88  1  1
 85 86  1  0
 87 85  1  0
 89 92  1  0
 90 94  1  0
 90 89  1  0
 91 90  2  0
 94 93  1  0
 96 94  1  0
 96 97  1  0
 96 95  1  0
M  ISO  4  12 100  20 100  56 101  57 101
M  END
>  <TORSDO>  (67) 
F 25

>  <SCORE>  (67) 
-9.500

>  <name>  (67) 
67

>  <ligand_id>  (67) 
67

>  <original_smiles>  (67) 
[H]c1c([H])c([H])c2c(c1[H])C([H])([H])C([H])([H])C([H])([H])C2([H])N([H])C(=O)C1([H])N(C(=O)C([H])(N([H])C(=O)C([H])(N([H])C([H])([H])[H])C([H])([H])[H])C(C([H])([H])[H])(C([H])([H])[H])C([H])([H])[H])C([H])([H])c2c([H])c(OC([H])([H])C([H])([H])[N+]([H])([H])C([H])([H])C([H])([H])C([H])([H])N([H])C(=O)C([H])([H])N([H])C(=O)C([H])([H])N([H])C(=O)N3C([H])([H])C([H])([H])C([H])([H])C([H])(n4nc(-c5c([H])c([H])c(Oc6c([H])c([H])c(F)c([H])c6F)c([H])c5[H])c(C(=O)N([H])[H])c4N([H])[H])C3([H])[H])c([H])c([H])c2C1([H])[H]

>  <smiles>  (67) 
[H]c1c([H])c([H])c2c(c1[H])C([H])([H])C([H])([H])C([H])([H])C2([H])N([H])C(=O)C1([H])N(C(=O)C([H])(N([H])C(=O)C([H])(N([H])C([H])([H])[H])C([H])([H])[H])C(C([H])([H])[H])(C([H])([H])[H])C([H])([H])[H])C([H])([H])c2c([H])c(OC([H])([H])C([H])([H])[N+]([H])([H])C([H])([H])C([H])([H])C([H])([H])N([H])C(=O)C([H])([H])N([H])C(=O)C([H])([H])N([H])C(=O)N3C([H])([H])C([H])([H])C([H])([H])C([H])(n4nc(-c5c([H])c([H])c(Oc6c([H])c([H])c(F)c([H])c6F)c([H])c5[H])c(C(=O)N([H])[H])c4N([H])[H])C3([H])[H])c([H])c([H])c2C1([H])[H]

$$$$
68:0:0
     RDKit          3D

103109  0  0  1  0  0  0  0  0999 V2000
  -31.4850  -16.2890   18.2540 C   0  0  0  0  0  0  0  0  0  0  0  0
  -31.7950  -11.9590   17.1430 C   0  0  0  0  0  2  0  0  0  0  0  0
  -30.3470  -10.8980   17.8260 C   0  0  0  0  0  2  0  0  0  0  0  0
  -32.0220  -13.8760   17.3460 C   0  0  0  0  0  1  0  0  0  0  0  0
  -26.2130  -14.6300   18.4360 C   0  0  0  0  0  2  0  0  0  0  0  0
  -27.0870  -11.4680   18.4400 C   0  0  0  0  0  2  0  0  0  0  0  0
  -27.8250  -15.6810   18.7960 C   0  0  0  0  0  3  0  0  0  0  0  0
  -28.9640  -11.7230   18.8670 C   0  0  0  0  0  2  0  0  0  0  0  0
  -29.4470  -14.6030   19.0280 C   0  0  0  0  0  2  0  0  0  0  0  0
  -30.9720  -15.0180   18.2020 N   0  0  0  0  0  0  0  0  0  0  0  0
  -25.9720  -12.8580   18.3130 N   0  0  0  0  0  4  0  0  0  0  0  0
  -32.3300  -16.7140   17.4610 O   0  0  0  0  0  0  0  0  0  0  0  0
  -26.6660  -13.0300   17.6010 H   0  0  0  0  0  0  0  0  0  0  0  0
  -26.0710  -12.8440   19.3160 H   0  0  0  0  0  0  0  0  0  0  0  0
  -27.6570  -17.2950   19.6050 C   0  0  0  0  0  0  0  0  0  0  0  0
  -27.7050  -18.7590   19.2190 N   0  0  0  0  0  0  0  0  0  0  0  0
  -27.5320  -17.1410   20.8190 O   0  0  0  0  0  0  0  0  0  0  0  0
  -27.8060  -18.8640   18.2170 H   0  0  0  0  0  0  0  0  0  0  0  0
  -27.5200  -20.2890   19.9940 C   0  0  0  0  0  2  0  0  0  0  0  0
  -27.9690  -22.0740   19.6670 C   0  0  0  0  0  3  0  0  0  0  0  0
  -27.6140  -23.7250   20.4530 C   0  0  0  0  0  3  0  0  0  0  0  0
  -28.1650  -25.3410   20.5100 O   0  0  0  0  0  0  0  0  0  0  0  0
  -25.0570  -31.6840   23.6330 C   0  0  0  0  0  0  0  0  0  0  0  0
  -27.3530  -26.6090   20.5680 C   0  0  0  0  0  0  0  0  0  0  0  0
  -23.8680  -30.3810   21.9280 C   0  0  0  0  0  3  0  0  0  0  0  0
  -25.2700  -28.7200   20.5320 C   0  0  0  0  0  0  0  0  0  0  0  0
  -26.4580  -30.3970   21.9210 C   0  0  0  0  0  2  0  0  0  0  0  0
  -26.4580  -28.9930   21.2200 C   0  0  0  0  0  0  0  0  0  0  0  0
  -27.5110  -27.9520   21.2160 C   0  0  0  0  0  3  0  0  0  0  0  0
  -26.1600  -26.5310   19.8440 C   0  0  0  0  0  3  0  0  0  0  0  0
  -25.1510  -27.5140   19.8340 C   0  0  0  0  0  3  0  0  0  0  0  0
  -24.1270  -29.7290   20.5460 C   0  0  0  0  0  2  0  0  0  0  0  0
  -25.1510  -30.8500   22.5450 N   0  0  0  0  0  0  0  0  0  0  0  0
  -23.9590  -32.0290   24.1000 O   0  0  0  0  0  0  0  0  0  0  0  0
  -23.0800  -29.4010   22.8390 C   0  0  0  0  0  0  0  0  0  0  0  0
  -21.7460  -29.3200   22.6710 N   0  0  0  0  0  0  0  0  0  0  0  0
  -23.6780  -28.7210   23.6770 O   0  0  0  0  0  0  0  0  0  0  0  0
  -21.3190  -29.9230   21.9820 H   0  0  0  0  0  0  0  0  0  0  0  0
  -18.2830  -28.2900   23.0300 C   0  0  0  0  0  0  0  0  0  0  0  0
  -20.8430  -28.4160   23.3940 C   0  0  0  0  0  3  0  0  0  0  0  0
  -20.8870  -26.9870   22.8020 C   0  0  0  0  0  2  0  0  0  0  0  0
  -19.8100  -26.7380   21.7420 C   0  0  0  0  0  2  0  0  0  0  0  0
  -18.4150  -26.9450   22.3360 C   0  0  0  0  0  2  0  0  0  0  0  0
  -19.4220  -28.9880   23.5130 C   0  0  0  0  0  0  0  0  0  0  0  0
  -19.2420  -30.2480   24.1240 C   0  0  0  0  0  3  0  0  0  0  0  0
  -17.9570  -30.8100   24.2530 C   0  0  0  0  0  3  0  0  0  0  0  0
  -16.8330  -30.1080   23.7830 C   0  0  0  0  0  3  0  0  0  0  0  0
  -16.9960  -28.8500   23.1780 C   0  0  0  0  0  3  0  0  0  0  0  0
  -26.3240  -32.2590   24.3300 C   0  0  0  0  0  3  0  0  0  0  0  0
  -26.0530  -33.6680   24.6730 N   0  0  0  0  0  0  0  0  0  0  0  0
  -26.4670  -34.7290   23.9660 C   0  0  0  0  0  0  0  0  0  0  0  0
  -27.1800  -34.6200   22.9650 O   0  0  0  0  0  0  0  0  0  0  0  0
  -25.4290  -33.8290   25.4490 H   0  0  0  0  0  0  0  0  0  0  0  0
  -24.8330  -36.6130   23.6020 C   0  0  0  0  0  1  0  0  0  0  0  0
  -26.0270  -36.1290   24.4420 C   0  0  0  0  0  3  0  0  0  0  0  0
  -28.1730  -36.9000   25.3570 C   0  0  0  0  0  1  0  0  0  0  0  0
  -27.1070  -37.1400   24.3880 N   0  0  0  0  0  0  0  0  0  0  0  0
  -26.7350  -38.0710   24.5500 H   0  0  0  0  0  0  0  0  0  0  0  0
  -26.7330  -31.4600   25.6310 C   0  0  1  0  0  0  0  0  0  0  0  0
  -25.5750  -31.2800   26.6410 C   0  0  0  0  0  1  0  0  0  0  0  0
  -27.2610  -30.0520   25.2780 C   0  0  0  0  0  1  0  0  0  0  0  0
  -27.8870  -32.1930   26.3550 C   0  0  0  0  0  1  0  0  0  0  0  0
  -31.0880  -16.9610   19.4730 C   0  0  0  0  0  2  0  0  0  0  0  0
  -32.0080  -17.1870   20.4190 C   0  0  0  0  0  2  0  0  0  0  0  0
  -31.7250  -16.8800   21.8870 C   0  0  0  0  0  2  0  0  0  0  0  0
  -33.0570  -14.7480   21.5640 C   0  0  0  0  0  0  0  0  0  0  0  0
  -33.6470  -13.0730   19.9740 C   0  0  0  0  0  1  0  0  0  0  0  0
  -32.6680  -12.4800   17.8580 C   0  0  0  0  0  1  0  0  0  0  0  0
  -31.1760  -11.9570   18.0550 C   0  0  0  0  0  2  0  0  0  0  0  0
  -30.5500  -11.9770   20.4240 C   0  0  0  0  0  2  0  0  0  0  0  0
  -31.5500  -12.6820   21.6400 C   0  0  0  0  0  2  0  0  0  0  0  0
  -32.8710  -13.4140   21.2780 N   0  0  0  0  0  0  0  0  0  0  0  0
  -33.9810  -15.3870   21.0590 O   0  0  0  0  0  0  0  0  0  0  0  0
  -32.0530  -15.4420   22.1580 N   0  0  0  0  0  0  0  0  0  0  0  0
  -31.3220  -14.8930   22.5880 H   0  0  0  0  0  0  0  0  0  0  0  0
  -28.2640  -11.2030   21.3960 C   0  0  0  0  0  3  0  0  0  0  0  0
  -27.7980   -9.9640   21.7380 C   0  0  0  0  0  0  0  0  0  0  0  0
  -28.9120   -9.0910   21.8770 C   0  0  0  0  0  0  0  0  0  0  0  0
  -29.5990  -11.0520   21.1810 N   0  0  0  0  0  0  0  0  0  0  0  0
  -29.9850   -9.7900   21.6400 N   0  0  0  0  0  2  0  0  0  0  0  0
  -29.0380   -7.6550   22.1770 C   0  0  0  0  0  0  0  0  0  0  0  0
  -29.9050   -7.1830   23.1890 C   0  0  0  0  0  3  0  0  0  0  0  0
  -29.9410   -5.8100   23.5180 C   0  0  0  0  0  3  0  0  0  0  0  0
  -29.1150   -4.8930   22.8280 C   0  0  0  0  0  0  0  0  0  0  0  0
  -28.2960   -5.3620   21.7840 C   0  0  0  0  0  3  0  0  0  0  0  0
  -28.2620   -6.7270   21.4550 C   0  0  0  0  0  3  0  0  0  0  0  0
  -29.0840   -3.5410   23.0760 O   0  0  0  0  0  0  0  0  0  0  0  0
  -29.3960   -3.0270   24.3090 C   0  0  0  0  0  0  0  0  0  0  0  0
  -28.7300   -3.4400   25.4840 C   0  0  0  0  0  3  0  0  0  0  0  0
  -29.0400   -2.8350   26.7200 C   0  0  0  0  0  3  0  0  0  0  0  0
  -30.0060   -1.8120   26.7820 C   0  0  0  0  0  0  0  0  0  0  0  0
  -30.6650   -1.3950   25.6120 C   0  0  0  0  0  3  0  0  0  0  0  0
  -30.3570   -1.9980   24.3800 C   0  0  0  0  0  0  0  0  0  0  0  0
  -30.9810   -1.5770   23.2540 F   0  0  0  0  0  0  0  0  0  0  0  0
  -30.3000   -1.2280   27.9670 F   0  0  0  0  0  0  0  0  0  0  0  0
  -26.3680   -9.5990   21.8800 C   0  0  0  0  0  0  0  0  0  0  0  0
  -26.0640   -8.7200   22.8220 N   0  0  0  0  0  0  0  0  0  0  0  0
  -25.5130  -10.1430   21.1880 O   0  0  0  0  0  0  0  0  0  0  0  0
  -26.7790   -8.3050   23.3970 H   0  0  0  0  0  0  0  0  0  0  0  0
  -25.0960   -8.4670   22.9800 H   0  0  0  0  0  0  0  0  0  0  0  0
  -27.6840  -12.4360   21.1770 N   0  0  0  0  0  0  0  0  0  0  0  0
  -26.7000  -12.5840   21.3780 H   0  0  0  0  0  0  0  0  0  0  0  0
  -28.1970  -13.3160   21.1670 H   0  0  0  0  0  0  0  0  0  0  0  0
  1 63  1  0
  2 68  1  0
  2 69  1  0
  3 69  1  0
  3  8  1  0
  4 10  1  0
  6  8  1  0
  7  5  1  0
  7  9  1  0
  7 15  1  0
 10  1  1  0
 10  9  1  0
 11  5  1  0
 11  6  1  0
 11 14  1  0
 12  1  2  0
 13 11  1  0
 15 17  2  0
 16 15  1  0
 16 19  1  0
 18 16  1  0
 20 19  1  0
 20 21  2  0
 21 22  1  0
 22 24  1  0
 23 34  2  0
 24 29  1  0
 25 33  1  0
 25 35  1  0
 26 32  1  0
 26 28  1  0
 27 33  1  0
 28 27  1  0
 29 28  2  0
 30 24  2  0
 31 30  1  0
 31 26  2  0
 32 25  1  0
 33 23  1  0
 35 37  2  0
 36 35  1  0
 38 36  1  0
 39 48  2  0
 39 44  1  0
 40 36  1  0
 40 44  1  0
 41 40  1  0
 42 43  1  0
 42 41  1  0
 43 39  1  0
 44 45  2  0
 45 46  1  0
 47 46  2  0
 48 47  1  0
 49 23  1  0
 49 50  1  0
 49 59  1  0
 50 53  1  0
 51 55  1  0
 51 50  1  0
 52 51  2  0
 55 54  1  0
 57 55  1  0
 57 58  1  0
 57 56  1  0
 59 62  1  1
 59 60  1  0
 61 59  1  0
 63 64  1  0
 64 65  1  0
 65 74  1  0
 66 74  1  0
 67 72  1  0
 70 79  1  0
 70 71  1  0
 72 66  1  0
 72 71  1  0
 73 66  2  0
 74 75  1  0
 76101  1  0
 76 77  1  0
 77 78  2  0
 77 96  1  0
 78 81  1  0
 79 76  1  0
 79 80  1  0
 80 78  1  0
 81 82  1  0
 82 83  2  0
 84 87  1  0
 84 83  1  0
 85 84  2  0
 86 85  1  0
 86 81  2  0
 87 88  1  0
 88 93  2  0
 88 89  1  0
 89 90  2  0
 90 91  1  0
 91 95  1  0
 92 91  2  0
 93 92  1  0
 94 93  1  0
 96 97  1  0
 97100  1  0
 97 99  1  0
 98 96  2  0
101102  1  0
103101  1  0
M  ISO  4  21 101  22 101  66 100  74 100
M  END
>  <TORSDO>  (68) 
F 22

>  <SCORE>  (68) 
4.064

>  <name>  (68) 
68

>  <ligand_id>  (68) 
68

>  <original_smiles>  (68) 
[H]C(C(=O)N1C([H])([H])C([H])([H])C([H])([H])C2([H])C1([H])C([H])(C(=O)N([H])C([H])([H])C([H])([H])C([H])([H])Oc1c([H])c([H])c3c(c1[H])C([H])([H])N(C(=O)C([H])(N([H])C(=O)C([H])(N([H])C([H])([H])[H])C([H])([H])[H])C(C([H])([H])[H])(C([H])([H])[H])C([H])([H])[H])C([H])(C(=O)N([H])C1([H])c4c([H])c([H])c([H])c([H])c4C([H])([H])C([H])([H])C1([H])[H])C3([H])[H])C([H])([H])[N+]([H])([H])C2([H])[H])=C([H])C([H])([H])N([H])C(=O)N1C([H])([H])C([H])([H])C([H])([H])C([H])(n2nc(-c3c([H])c([H])c(Oc4c([H])c([H])c(F)c([H])c4F)c([H])c3[H])c(C(=O)N([H])[H])c2N([H])[H])C1([H])[H]

>  <smiles>  (68) 
[H]C(C(=O)N1C([H])([H])C([H])([H])C([H])([H])C2([H])C1([H])C([H])(C(=O)N([H])C([H])([H])C([H])([H])C([H])([H])Oc1c([H])c([H])c3c(c1[H])C([H])([H])N(C(=O)C([H])(N([H])C(=O)C([H])(N([H])C([H])([H])[H])C([H])([H])[H])C(C([H])([H])[H])(C([H])([H])[H])C([H])([H])[H])C([H])(C(=O)N([H])C1([H])c4c([H])c([H])c([H])c([H])c4C([H])([H])C([H])([H])C1([H])[H])C3([H])[H])C([H])([H])[N+]([H])([H])C2([H])[H])=C([H])C([H])([H])N([H])C(=O)N1C([H])([H])C([H])([H])C([H])([H])C([H])(n2nc(-c3c([H])c([H])c(Oc4c([H])c([H])c(F)c([H])c4F)c([H])c3[H])c(C(=O)N([H])[H])c2N([H])[H])C1([H])[H]

$$$$
69:0:0
     RDKit          3D

 98105  0  0  1  0  0  0  0  0999 V2000
  -32.8530  -25.3410   19.9130 C   0  0  0  0  0  0  0  0  0  0  0  0
  -33.5180  -26.2810   20.5950 N   0  0  0  0  0  0  0  0  0  0  0  0
  -32.4690  -25.5450   18.7580 O   0  0  0  0  0  0  0  0  0  0  0  0
  -33.8110  -26.0540   21.5360 H   0  0  0  0  0  0  0  0  0  0  0  0
  -31.7830  -23.1800   20.2150 C   0  0  0  0  0  3  0  0  0  0  0  0
  -32.6220  -24.1280   20.6780 C   0  0  0  0  0  3  0  0  0  0  0  0
  -31.5190  -21.9270   20.9030 C   0  0  0  0  0  3  0  0  0  0  0  0
  -30.6560  -21.0140   20.4170 C   0  0  0  0  0  3  0  0  0  0  0  0
  -30.3910  -19.7180   21.0620 C   0  0  0  0  0  3  0  0  0  0  0  0
  -29.6060  -18.8660   20.5360 N   0  0  0  0  0  0  0  0  0  0  0  0
  -29.4260  -17.5800   21.1880 C   0  0  0  0  0  2  0  0  0  0  0  0
  -30.6090  -16.6280   20.8930 C   0  0  0  0  0  2  0  0  0  0  0  0
  -30.7870  -14.2660   20.1580 C   0  0  0  0  0  0  0  0  0  0  0  0
  -30.4110  -12.1200   19.0100 C   0  0  0  0  0  2  0  0  0  0  0  0
  -29.4240  -12.3360   17.8450 C   0  0  0  0  0  2  0  0  0  0  0  0
  -27.9680  -12.2090   18.3320 C   0  0  0  0  0  2  0  0  0  0  0  0
  -27.6910  -13.0580   19.6030 C   0  0  0  0  0  3  0  0  0  0  0  0
  -28.7830  -12.8270   20.6700 C   0  0  0  0  0  2  0  0  0  0  0  0
  -30.0920  -13.1040   20.0540 N   0  0  0  0  0  0  0  0  0  0  0  0
  -31.8410  -14.4810   19.5530 O   0  0  0  0  0  0  0  0  0  0  0  0
  -30.2000  -15.2240   20.8890 N   0  0  0  0  0  0  0  0  0  0  0  0
  -29.3510  -14.9770   21.3770 H   0  0  0  0  0  0  0  0  0  0  0  0
  -25.3330  -13.7010   20.4120 C   0  0  0  0  0  0  0  0  0  0  0  0
  -24.2690  -12.9420   20.8220 C   0  0  0  0  0  0  0  0  0  0  0  0
  -24.7070  -11.5840   20.7620 C   0  0  0  0  0  0  0  0  0  0  0  0
  -26.3530  -12.8050   20.1330 N   0  0  0  0  0  0  0  0  0  0  0  0
  -25.9800  -11.5250   20.3950 N   0  0  0  0  0  0  0  0  0  0  0  0
  -23.9700  -10.3310   20.9760 C   0  0  0  0  0  0  0  0  0  0  0  0
  -24.4050   -9.3710   21.9140 C   0  0  0  0  0  3  0  0  0  0  0  0
  -23.6700   -8.1820   22.1150 C   0  0  0  0  0  3  0  0  0  0  0  0
  -22.4840   -7.9480   21.3790 C   0  0  0  0  0  0  0  0  0  0  0  0
  -22.0680   -8.8980   20.4270 C   0  0  0  0  0  3  0  0  0  0  0  0
  -22.8040  -10.0770   20.2250 C   0  0  0  0  0  3  0  0  0  0  0  0
  -21.7200   -6.8120   21.4870 O   0  0  0  0  0  0  0  0  0  0  0  0
  -21.6520   -6.1000   22.6570 C   0  0  0  0  0  0  0  0  0  0  0  0
  -21.2180   -6.6910   23.8650 C   0  0  0  0  0  3  0  0  0  0  0  0
  -21.0960   -5.9070   25.0290 C   0  0  0  0  0  3  0  0  0  0  0  0
  -21.3980   -4.5320   24.9870 C   0  0  0  0  0  0  0  0  0  0  0  0
  -21.8230   -3.9400   23.7850 C   0  0  0  0  0  3  0  0  0  0  0  0
  -21.9480   -4.7220   22.6220 C   0  0  0  0  0  0  0  0  0  0  0  0
  -22.3370   -4.1430   21.4610 F   0  0  0  0  0  0  0  0  0  0  0  0
  -21.2740   -3.7760   26.1030 F   0  0  0  0  0  0  0  0  0  0  0  0
  -22.8940  -13.4400   21.1630 C   0  0  0  0  0  0  0  0  0  0  0  0
  -22.1980  -12.7490   22.0580 N   0  0  0  0  0  0  0  0  0  0  0  0
  -22.4450  -14.4740   20.6690 O   0  0  0  0  0  0  0  0  0  0  0  0
  -22.5750  -11.9100   22.4760 H   0  0  0  0  0  0  0  0  0  0  0  0
  -21.2770  -13.0630   22.3300 H   0  0  0  0  0  0  0  0  0  0  0  0
  -25.5100  -15.0700   20.2340 N   0  0  0  0  0  0  0  0  0  0  0  0
  -24.7550  -15.7350   20.3660 H   0  0  0  0  0  0  0  0  0  0  0  0
  -26.3510  -15.4980   19.8660 H   0  0  0  0  0  0  0  0  0  0  0  0
  -33.9650  -27.5730   20.0580 C   0  0  0  0  0  2  0  0  0  0  0  0
  -32.8720  -28.6690   20.0200 C   0  0  0  0  0  2  0  0  0  0  0  0
  -31.6930  -28.2580   19.2280 N   0  0  0  0  0  4  0  0  0  0  0  0
  -31.9330  -27.3540   18.8250 H   0  0  0  0  0  0  0  0  0  0  0  0
  -31.5560  -28.9120   18.4720 H   0  0  0  0  0  0  0  0  0  0  0  0
  -30.4410  -28.0980   20.0020 C   0  0  0  0  0  2  0  0  0  0  0  0
  -29.4000  -27.2610   19.2360 C   0  0  0  0  0  2  0  0  0  0  0  0
  -28.4030  -26.7670   20.1210 O   0  0  0  0  0  0  0  0  0  0  0  0
  -24.5630  -31.8970   23.2230 C   0  0  0  0  0  0  0  0  0  0  0  0
  -27.2460  -27.4970   20.1560 C   0  0  0  0  0  0  0  0  0  0  0  0
  -23.3640  -30.4780   21.5830 C   0  0  0  0  0  3  0  0  0  0  0  0
  -24.8310  -28.9460   20.1710 C   0  0  0  0  0  0  0  0  0  0  0  0
  -25.8830  -30.8660   21.3840 C   0  0  0  0  0  2  0  0  0  0  0  0
  -25.9790  -29.4920   20.7570 C   0  0  0  0  0  0  0  0  0  0  0  0
  -27.1880  -28.7690   20.7620 C   0  0  0  0  0  3  0  0  0  0  0  0
  -26.0820  -26.9450   19.5830 C   0  0  0  0  0  3  0  0  0  0  0  0
  -24.8730  -27.6660   19.5860 C   0  0  0  0  0  3  0  0  0  0  0  0
  -23.5780  -29.7930   20.2080 C   0  0  0  0  0  2  0  0  0  0  0  0
  -24.6200  -31.0960   22.1220 N   0  0  0  0  0  0  0  0  0  0  0  0
  -23.4790  -32.1610   23.7630 O   0  0  0  0  0  0  0  0  0  0  0  0
  -22.7230  -29.4570   22.5490 C   0  0  0  0  0  0  0  0  0  0  0  0
  -21.3980  -29.2740   22.4300 N   0  0  0  0  0  0  0  0  0  0  0  0
  -23.4120  -28.8340   23.3620 O   0  0  0  0  0  0  0  0  0  0  0  0
  -20.9040  -29.8290   21.7460 H   0  0  0  0  0  0  0  0  0  0  0  0
  -18.0240  -28.0960   22.9470 C   0  0  0  0  0  0  0  0  0  0  0  0
  -20.5840  -28.3360   23.2040 C   0  0  0  0  0  3  0  0  0  0  0  0
  -20.6740  -26.9080   22.6190 C   0  0  0  0  0  2  0  0  0  0  0  0
  -19.5620  -26.5970   21.6110 C   0  0  0  0  0  2  0  0  0  0  0  0
  -18.1850  -26.7480   22.2660 C   0  0  0  0  0  2  0  0  0  0  0  0
  -19.1510  -28.8500   23.3730 C   0  0  0  0  0  0  0  0  0  0  0  0
  -18.9450  -30.1120   23.9700 C   0  0  0  0  0  3  0  0  0  0  0  0
  -17.6450  -30.6210   24.1470 C   0  0  0  0  0  3  0  0  0  0  0  0
  -16.5320  -29.8660   23.7370 C   0  0  0  0  0  3  0  0  0  0  0  0
  -16.7230  -28.6060   23.1440 C   0  0  0  0  0  3  0  0  0  0  0  0
  -25.8460  -32.5370   23.8410 C   0  0  0  0  0  3  0  0  0  0  0  0
  -26.3710  -31.7680   25.1140 C   0  0  1  0  0  0  0  0  0  0  0  0
  -25.2830  -31.5220   26.1840 C   0  0  0  0  0  1  0  0  0  0  0  0
  -26.9610  -30.3950   24.7150 C   0  0  0  0  0  1  0  0  0  0  0  0
  -27.5190  -32.5680   25.7750 C   0  0  0  0  0  1  0  0  0  0  0  0
  -25.5280  -33.9330   24.1660 N   0  0  0  0  0  0  0  0  0  0  0  0
  -25.8720  -34.9860   23.4110 C   0  0  0  0  0  0  0  0  0  0  0  0
  -26.5560  -34.8830   22.3890 O   0  0  0  0  0  0  0  0  0  0  0  0
  -24.9170  -34.0840   24.9560 H   0  0  0  0  0  0  0  0  0  0  0  0
  -24.1520  -36.7770   23.0130 C   0  0  0  0  0  1  0  0  0  0  0  0
  -25.3720  -36.3730   23.8580 C   0  0  0  0  0  3  0  0  0  0  0  0
  -27.4860  -37.2500   24.7420 C   0  0  0  0  0  1  0  0  0  0  0  0
  -26.4070  -37.4250   23.7750 N   0  0  0  0  0  0  0  0  0  0  0  0
  -26.0000  -38.3450   23.9150 H   0  0  0  0  0  0  0  0  0  0  0  0
  1  2  1  0
  1  6  1  0
  2  4  1  0
  3  1  2  0
  5  6  2  0
  5  7  1  0
  8  7  2  0
  8  9  1  0
 10  9  2  0
 10 11  1  0
 12 11  1  0
 13 21  1  0
 14 19  1  0
 15 16  1  0
 15 14  1  0
 17 16  1  0
 17 26  1  0
 17 18  1  0
 19 13  1  0
 19 18  1  0
 20 13  2  0
 21 12  1  0
 21 22  1  0
 23 24  2  0
 24 43  1  0
 25 24  1  0
 25 28  1  0
 26 27  1  0
 26 23  1  0
 27 25  2  0
 28 29  1  0
 29 30  2  0
 31 34  1  0
 31 30  1  0
 32 31  2  0
 33 32  1  0
 33 28  2  0
 34 35  1  0
 35 36  1  0
 36 37  2  0
 38 37  1  0
 38 42  1  0
 39 38  2  0
 40 35  2  0
 40 39  1  0
 41 40  1  0
 43 44  1  0
 44 47  1  0
 44 46  1  0
 45 43  2  0
 48 49  1  0
 48 23  1  0
 50 48  1  0
 51  2  1  0
 52 51  1  0
 53 56  1  0
 53 52  1  0
 54 53  1  0
 55 53  1  0
 57 56  1  0
 57 58  1  0
 58 60  1  0
 59 70  2  0
 60 65  1  0
 61 69  1  0
 61 71  1  0
 62 68  1  0
 62 64  1  0
 63 69  1  0
 64 65  2  0
 64 63  1  0
 66 67  1  0
 66 60  2  0
 67 62  2  0
 68 61  1  0
 69 59  1  0
 71 73  2  0
 72 71  1  0
 74 72  1  0
 75 84  2  0
 75 80  1  0
 76 72  1  0
 76 80  1  0
 77 76  1  0
 78 79  1  0
 78 77  1  0
 79 75  1  0
 80 81  2  0
 81 82  1  0
 83 82  2  0
 84 83  1  0
 85 59  1  0
 85 90  1  0
 85 86  1  0
 86 89  1  1
 86 87  1  0
 88 86  1  0
 90 93  1  0
 91 95  1  0
 91 90  1  0
 92 91  2  0
 95 94  1  0
 97 95  1  0
 97 98  1  0
 97 96  1  0
M  ISO  4  13 100  21 100  57 101  58 101
M  END
>  <TORSDO>  (69) 
F 26

>  <SCORE>  (69) 
-11.419

>  <name>  (69) 
69

>  <ligand_id>  (69) 
69

>  <original_smiles>  (69) 
[H]C(=NC([H])([H])C([H])([H])N([H])C(=O)N1C([H])([H])C([H])([H])C([H])([H])C([H])(n2nc(-c3c([H])c([H])c(Oc4c([H])c([H])c(F)c([H])c4F)c([H])c3[H])c(C(=O)N([H])[H])c2N([H])[H])C1([H])[H])C([H])=C([H])C([H])=C([H])C(=O)N([H])C([H])([H])C([H])([H])[N+]([H])([H])C([H])([H])C([H])([H])Oc1c([H])c([H])c2c(c1[H])C([H])([H])N(C(=O)C([H])(N([H])C(=O)C([H])(N([H])C([H])([H])[H])C([H])([H])[H])C(C([H])([H])[H])(C([H])([H])[H])C([H])([H])[H])C([H])(C(=O)N([H])C1([H])c3c([H])c([H])c([H])c([H])c3C([H])([H])C([H])([H])C1([H])[H])C2([H])[H]

>  <smiles>  (69) 
[H]C(=NC([H])([H])C([H])([H])N([H])C(=O)N1C([H])([H])C([H])([H])C([H])([H])C([H])(n2nc(-c3c([H])c([H])c(Oc4c([H])c([H])c(F)c([H])c4F)c([H])c3[H])c(C(=O)N([H])[H])c2N([H])[H])C1([H])[H])C([H])=C([H])C([H])=C([H])C(=O)N([H])C([H])([H])C([H])([H])[N+]([H])([H])C([H])([H])C([H])([H])Oc1c([H])c([H])c2c(c1[H])C([H])([H])N(C(=O)C([H])(N([H])C(=O)C([H])(N([H])C([H])([H])[H])C([H])([H])[H])C(C([H])([H])[H])(C([H])([H])[H])C([H])([H])[H])C([H])(C(=O)N([H])C1([H])c3c([H])c([H])c([H])c([H])c3C([H])([H])C([H])([H])C1([H])[H])C2([H])[H]

$$$$
70:0:0
     RDKit          3D

 96103  0  0  1  0  0  0  0  0999 V2000
  -25.6470  -23.5880   16.5660 C   0  0  0  0  0  2  0  0  0  0  0  0
  -26.9110  -24.1820   16.8510 O   0  0  0  0  0  0  0  0  0  0  0  0
  -28.0340  -23.3240   16.6500 C   0  0  0  0  0  2  0  0  0  0  0  0
  -28.3590  -22.6210   17.9850 C   0  0  0  0  0  2  0  0  0  0  0  0
  -29.4300  -21.5200   17.9290 C   0  0  0  0  0  2  0  0  0  0  0  0
  -29.3850  -20.6960   19.1610 N   0  0  0  0  0  4  0  0  0  0  0  0
  -29.9000  -21.1640   19.8910 H   0  0  0  0  0  0  0  0  0  0  0  0
  -28.4260  -20.6340   19.4620 H   0  0  0  0  0  0  0  0  0  0  0  0
  -29.8830  -19.3140   19.0030 C   0  0  0  0  0  2  0  0  0  0  0  0
  -29.6900  -18.4370   20.2730 C   0  0  0  0  0  2  0  0  0  0  0  0
  -30.2290  -17.0240   19.9980 C   0  0  0  0  0  2  0  0  0  0  0  0
  -30.8430  -14.9230   21.0140 C   0  0  0  0  0  0  0  0  0  0  0  0
  -30.6150  -12.7900   19.8460 C   0  0  0  0  0  2  0  0  0  0  0  0
  -29.7780  -13.0470   18.5760 C   0  0  0  0  0  2  0  0  0  0  0  0
  -28.2780  -12.9010   18.8830 C   0  0  0  0  0  2  0  0  0  0  0  0
  -27.8400  -13.7070   20.1350 C   0  0  0  0  0  3  0  0  0  0  0  0
  -28.8020  -13.4880   21.3280 C   0  0  0  0  0  2  0  0  0  0  0  0
  -30.1750  -13.7520   20.8710 N   0  0  0  0  0  0  0  0  0  0  0  0
  -32.0380  -15.0640   20.7450 O   0  0  0  0  0  0  0  0  0  0  0  0
  -30.0440  -16.0050   21.0490 N   0  0  0  0  0  0  0  0  0  0  0  0
  -29.1060  -15.8470   21.3830 H   0  0  0  0  0  0  0  0  0  0  0  0
  -25.3760  -14.2770   20.5930 C   0  0  0  0  0  0  0  0  0  0  0  0
  -24.2980  -13.4910   20.8840 C   0  0  0  0  0  0  0  0  0  0  0  0
  -24.7890  -12.1470   20.9370 C   0  0  0  0  0  0  0  0  0  0  0  0
  -26.4570  -13.4160   20.4940 N   0  0  0  0  0  0  0  0  0  0  0  0
  -26.1030  -12.1330   20.7560 N   0  0  0  0  0  0  0  0  0  0  0  0
  -24.0770  -10.8750   21.0910 C   0  0  0  0  0  0  0  0  0  0  0  0
  -24.4400   -9.9430   22.0880 C   0  0  0  0  0  3  0  0  0  0  0  0
  -23.7290   -8.7330   22.2310 C   0  0  0  0  0  3  0  0  0  0  0  0
  -22.6400   -8.4460   21.3730 C   0  0  0  0  0  0  0  0  0  0  0  0
  -22.2960   -9.3670   20.3680 C   0  0  0  0  0  3  0  0  0  0  0  0
  -23.0090  -10.5680   20.2260 C   0  0  0  0  0  3  0  0  0  0  0  0
  -21.9070   -7.2860   21.4170 O   0  0  0  0  0  0  0  0  0  0  0  0
  -21.7510   -6.5790   22.5820 C   0  0  0  0  0  0  0  0  0  0  0  0
  -21.1770   -7.1570   23.7340 C   0  0  0  0  0  3  0  0  0  0  0  0
  -20.9700   -6.3730   24.8870 C   0  0  0  0  0  3  0  0  0  0  0  0
  -21.3330   -5.0130   24.8890 C   0  0  0  0  0  0  0  0  0  0  0  0
  -21.9010   -4.4340   23.7400 C   0  0  0  0  0  3  0  0  0  0  0  0
  -22.1080   -5.2150   22.5900 C   0  0  0  0  0  0  0  0  0  0  0  0
  -22.6360   -4.6460   21.4800 F   0  0  0  0  0  0  0  0  0  0  0  0
  -21.1290   -4.2570   25.9950 F   0  0  0  0  0  0  0  0  0  0  0  0
  -22.8700  -13.9400   21.0080 C   0  0  0  0  0  0  0  0  0  0  0  0
  -22.0860  -13.2540   21.8280 N   0  0  0  0  0  0  0  0  0  0  0  0
  -22.4560  -14.9370   20.4140 O   0  0  0  0  0  0  0  0  0  0  0  0
  -22.4390  -12.4490   22.3260 H   0  0  0  0  0  0  0  0  0  0  0  0
  -21.1250  -13.5320   21.9620 H   0  0  0  0  0  0  0  0  0  0  0  0
  -25.5300  -15.6450   20.3850 N   0  0  0  0  0  0  0  0  0  0  0  0
  -24.7340  -16.2720   20.3550 H   0  0  0  0  0  0  0  0  0  0  0  0
  -26.3880  -16.0740   20.0630 H   0  0  0  0  0  0  0  0  0  0  0  0
  -24.5830  -24.0650   17.5640 C   0  0  0  0  0  2  0  0  0  0  0  0
  -24.5250  -23.2670   18.8950 C   0  0  0  0  0  2  0  0  0  0  0  0
  -25.1480  -23.8740   20.0210 O   0  0  0  0  0  0  0  0  0  0  0  0
  -26.5540  -23.6960   20.1370 C   0  0  0  0  0  2  0  0  0  0  0  0
  -27.0600  -24.5090   21.3410 C   0  0  0  0  0  2  0  0  0  0  0  0
  -28.2910  -25.4130   21.0930 C   0  0  0  0  0  2  0  0  0  0  0  0
  -28.1570  -26.5600   20.2490 O   0  0  0  0  0  0  0  0  0  0  0  0
  -24.4450  -31.8130   23.3880 C   0  0  0  0  0  0  0  0  0  0  0  0
  -27.0090  -27.3060   20.3470 C   0  0  0  0  0  0  0  0  0  0  0  0
  -23.2270  -30.4420   21.7360 C   0  0  0  0  0  3  0  0  0  0  0  0
  -24.6520  -28.8590   20.3430 C   0  0  0  0  0  0  0  0  0  0  0  0
  -25.7630  -30.7170   21.5850 C   0  0  0  0  0  2  0  0  0  0  0  0
  -25.8150  -29.3420   20.9590 C   0  0  0  0  0  0  0  0  0  0  0  0
  -26.9940  -28.5660   20.9790 C   0  0  0  0  0  3  0  0  0  0  0  0
  -25.8470  -26.8680   19.6870 C   0  0  0  0  0  3  0  0  0  0  0  0
  -24.6550  -27.6060   19.7090 C   0  0  0  0  0  3  0  0  0  0  0  0
  -23.4360  -29.7500   20.3650 C   0  0  0  0  0  2  0  0  0  0  0  0
  -24.4950  -31.0050   22.2930 N   0  0  0  0  0  0  0  0  0  0  0  0
  -23.3630  -32.1270   23.8990 O   0  0  0  0  0  0  0  0  0  0  0  0
  -22.5240  -29.4450   22.6870 C   0  0  0  0  0  0  0  0  0  0  0  0
  -21.2040  -29.2830   22.5050 N   0  0  0  0  0  0  0  0  0  0  0  0
  -23.1640  -28.8280   23.5420 O   0  0  0  0  0  0  0  0  0  0  0  0
  -20.7570  -29.8530   21.8020 H   0  0  0  0  0  0  0  0  0  0  0  0
  -17.7980  -28.1420   22.9030 C   0  0  0  0  0  0  0  0  0  0  0  0
  -20.3460  -28.3680   23.2530 C   0  0  0  0  0  3  0  0  0  0  0  0
  -20.4440  -26.9250   22.7070 C   0  0  0  0  0  2  0  0  0  0  0  0
  -19.3670  -26.5980   21.6650 C   0  0  0  0  0  2  0  0  0  0  0  0
  -17.9730  -26.7730   22.2670 C   0  0  0  0  0  2  0  0  0  0  0  0
  -18.9120  -28.8970   23.3540 C   0  0  0  0  0  0  0  0  0  0  0  0
  -18.6920  -30.1750   23.9130 C   0  0  0  0  0  3  0  0  0  0  0  0
  -17.3890  -30.7000   24.0140 C   0  0  0  0  0  3  0  0  0  0  0  0
  -16.2890  -29.9440   23.5670 C   0  0  0  0  0  3  0  0  0  0  0  0
  -16.4940  -28.6640   23.0210 C   0  0  0  0  0  3  0  0  0  0  0  0
  -25.7410  -32.3950   24.0320 C   0  0  0  0  0  3  0  0  0  0  0  0
  -25.5000  -33.8200   24.2850 N   0  0  0  0  0  0  0  0  0  0  0  0
  -25.9160  -34.8130   23.4880 C   0  0  0  0  0  0  0  0  0  0  0  0
  -26.6050  -34.6240   22.4830 O   0  0  0  0  0  0  0  0  0  0  0  0
  -24.8820  -34.0460   25.0490 H   0  0  0  0  0  0  0  0  0  0  0  0
  -24.2850  -36.6710   23.0110 C   0  0  0  0  0  1  0  0  0  0  0  0
  -25.4860  -36.2440   23.8690 C   0  0  0  0  0  3  0  0  0  0  0  0
  -27.6400  -37.0590   24.7140 C   0  0  0  0  0  1  0  0  0  0  0  0
  -26.5720  -37.2390   23.7370 N   0  0  0  0  0  0  0  0  0  0  0  0
  -26.2100  -38.1830   23.8260 H   0  0  0  0  0  0  0  0  0  0  0  0
  -26.1750  -31.6520   25.3510 C   0  0  1  0  0  0  0  0  0  0  0  0
  -25.0370  -31.5110   26.3880 C   0  0  0  0  0  1  0  0  0  0  0  0
  -26.7100  -30.2370   25.0230 C   0  0  0  0  0  1  0  0  0  0  0  0
  -27.3400  -32.4200   26.0200 C   0  0  0  0  0  1  0  0  0  0  0  0
  1  2  1  0
  1 50  1  0
  3  2  1  0
  3  4  1  0
  5  4  1  0
  5  6  1  0
  6  8  1  0
  6  7  1  0
  9  6  1  0
  9 10  1  0
 11 10  1  0
 11 20  1  0
 12 20  1  0
 13 18  1  0
 14 15  1  0
 14 13  1  0
 16 15  1  0
 16 25  1  0
 16 17  1  0
 18 12  1  0
 18 17  1  0
 19 12  2  0
 20 21  1  0
 22 23  2  0
 23 24  1  0
 23 42  1  0
 24 27  1  0
 25 22  1  0
 25 26  1  0
 26 24  2  0
 27 28  1  0
 28 29  2  0
 30 33  1  0
 30 29  1  0
 31 30  2  0
 32 31  1  0
 32 27  2  0
 33 34  1  0
 34 39  2  0
 34 35  1  0
 35 36  2  0
 36 37  1  0
 37 41  1  0
 38 37  2  0
 39 38  1  0
 40 39  1  0
 42 43  1  0
 43 46  1  0
 43 45  1  0
 44 42  2  0
 47 22  1  0
 48 47  1  0
 49 47  1  0
 50 51  1  0
 51 52  1  0
 52 53  1  0
 53 54  1  0
 55 54  1  0
 56 58  1  0
 56 55  1  0
 57 68  2  0
 58 63  1  0
 59 67  1  0
 59 69  1  0
 60 66  1  0
 60 62  1  0
 61 67  1  0
 62 63  2  0
 62 61  1  0
 64 65  1  0
 64 58  2  0
 65 60  2  0
 66 59  1  0
 67 57  1  0
 69 71  2  0
 70 69  1  0
 72 70  1  0
 73 82  2  0
 73 78  1  0
 74 70  1  0
 74 78  1  0
 75 74  1  0
 76 77  1  0
 76 75  1  0
 77 73  1  0
 78 79  2  0
 79 80  1  0
 81 80  2  0
 82 81  1  0
 83 57  1  0
 83 84  1  0
 83 93  1  0
 84 87  1  0
 85 89  1  0
 85 84  1  0
 86 85  2  0
 89 88  1  0
 91 92  1  0
 91 89  1  0
 91 90  1  0
 93 96  1  1
 93 94  1  0
 95 93  1  0
M  ISO  4  12 100  20 100  55 101  56 101
M  END
>  <TORSDO>  (70) 
F 30

>  <SCORE>  (70) 
-9.875

>  <name>  (70) 
70

>  <ligand_id>  (70) 
70

>  <original_smiles>  (70) 
[H]c1c([H])c([H])c2c(c1[H])C([H])([H])C([H])([H])C([H])([H])C2([H])N([H])C(=O)C1([H])N(C(=O)C([H])(N([H])C(=O)C([H])(N([H])C([H])([H])[H])C([H])([H])[H])C(C([H])([H])[H])(C([H])([H])[H])C([H])([H])[H])C([H])([H])c2c([H])c(OC([H])([H])C([H])([H])C([H])([H])OC([H])([H])C([H])([H])C([H])([H])OC([H])([H])C([H])([H])C([H])([H])[N+]([H])([H])C([H])([H])C([H])([H])C([H])([H])N([H])C(=O)N3C([H])([H])C([H])([H])C([H])([H])C([H])(n4nc(-c5c([H])c([H])c(Oc6c([H])c([H])c(F)c([H])c6F)c([H])c5[H])c(C(=O)N([H])[H])c4N([H])[H])C3([H])[H])c([H])c([H])c2C1([H])[H]

>  <smiles>  (70) 
[H]c1c([H])c([H])c2c(c1[H])C([H])([H])C([H])([H])C([H])([H])C2([H])N([H])C(=O)C1([H])N(C(=O)C([H])(N([H])C(=O)C([H])(N([H])C([H])([H])[H])C([H])([H])[H])C(C([H])([H])[H])(C([H])([H])[H])C([H])([H])[H])C([H])([H])c2c([H])c(OC([H])([H])C([H])([H])C([H])([H])OC([H])([H])C([H])([H])C([H])([H])OC([H])([H])C([H])([H])C([H])([H])[N+]([H])([H])C([H])([H])C([H])([H])C([H])([H])N([H])C(=O)N3C([H])([H])C([H])([H])C([H])([H])C([H])(n4nc(-c5c([H])c([H])c(Oc6c([H])c([H])c(F)c([H])c6F)c([H])c5[H])c(C(=O)N([H])[H])c4N([H])[H])C3([H])[H])c([H])c([H])c2C1([H])[H]

$$$$
71:0:0
     RDKit          3D

 94101  0  0  1  0  0  0  0  0999 V2000
  -25.8380  -21.8210   19.5330 C   0  0  0  0  0  2  0  0  0  0  0  0
  -26.1660  -20.3710   19.9330 C   0  0  0  0  0  2  0  0  0  0  0  0
  -28.2050  -18.9870   20.1610 C   0  0  0  0  0  0  0  0  0  0  0  0
  -27.5170  -19.9620   19.5510 N   0  0  0  0  0  0  0  0  0  0  0  0
  -27.7950  -18.4280   21.1820 O   0  0  0  0  0  0  0  0  0  0  0  0
  -27.8970  -20.3230   18.6870 H   0  0  0  0  0  0  0  0  0  0  0  0
  -29.4430  -18.6800   19.4700 C   0  0  0  0  0  2  0  0  0  0  0  0
  -30.4560  -18.1080   20.1610 C   0  0  0  0  0  2  0  0  0  0  0  0
  -31.7570  -17.3000   20.1260 C   0  0  0  0  0  2  0  0  0  0  0  0
  -32.5220  -15.2670   18.9220 C   0  0  0  0  0  0  0  0  0  0  0  0
  -32.1340  -12.8670   18.5530 C   0  0  0  0  0  2  0  0  0  0  0  0
  -31.0400  -12.7030   17.4770 C   0  0  0  0  0  2  0  0  0  0  0  0
  -29.6350  -12.7340   18.1140 C   0  0  0  0  0  2  0  0  0  0  0  0
  -29.4430  -13.9340   19.0790 C   0  0  0  0  0  3  0  0  0  0  0  0
  -30.6330  -14.0390   20.0570 C   0  0  0  0  0  2  0  0  0  0  0  0
  -31.8670  -14.1260   19.2620 N   0  0  0  0  0  0  0  0  0  0  0  0
  -33.5670  -15.2850   18.2690 O   0  0  0  0  0  0  0  0  0  0  0  0
  -31.7860  -16.3830   18.9810 N   0  0  0  0  0  0  0  0  0  0  0  0
  -31.9050  -16.9020   18.1240 H   0  0  0  0  0  0  0  0  0  0  0  0
  -27.4280  -14.8650   20.3810 C   0  0  0  0  0  0  0  0  0  0  0  0
  -26.2850  -14.2710   20.8440 C   0  0  0  0  0  0  0  0  0  0  0  0
  -26.3890  -12.8900   20.4930 C   0  0  0  0  0  0  0  0  0  0  0  0
  -28.1690  -13.8550   19.7890 N   0  0  0  0  0  0  0  0  0  0  0  0
  -27.5540  -12.6500   19.9080 N   0  0  0  0  0  0  0  0  0  0  0  0
  -25.4210  -11.7940   20.6280 C   0  0  0  0  0  0  0  0  0  0  0  0
  -25.6980  -10.6600   21.4230 C   0  0  0  0  0  3  0  0  0  0  0  0
  -24.7450   -9.6270   21.5510 C   0  0  0  0  0  3  0  0  0  0  0  0
  -23.5020   -9.7220   20.8830 C   0  0  0  0  0  0  0  0  0  0  0  0
  -23.2410  -10.8420   20.0760 C   0  0  0  0  0  3  0  0  0  0  0  0
  -24.1910  -11.8670   19.9450 C   0  0  0  0  0  3  0  0  0  0  0  0
  -22.5260   -8.7540   20.9290 O   0  0  0  0  0  0  0  0  0  0  0  0
  -22.2930   -8.0210   22.0650 C   0  0  0  0  0  0  0  0  0  0  0  0
  -21.9600   -8.6350   23.2920 C   0  0  0  0  0  3  0  0  0  0  0  0
  -21.6590   -7.8410   24.4170 C   0  0  0  0  0  3  0  0  0  0  0  0
  -21.6790   -6.4370   24.3150 C   0  0  0  0  0  0  0  0  0  0  0  0
  -22.0040   -5.8240   23.0920 C   0  0  0  0  0  3  0  0  0  0  0  0
  -22.3080   -6.6150   21.9700 C   0  0  0  0  0  0  0  0  0  0  0  0
  -22.6000   -6.0190   20.7890 F   0  0  0  0  0  0  0  0  0  0  0  0
  -21.3830   -5.6750   25.3930 F   0  0  0  0  0  0  0  0  0  0  0  0
  -25.1180  -14.9580   21.4920 C   0  0  0  0  0  0  0  0  0  0  0  0
  -24.4370  -14.2760   22.4080 N   0  0  0  0  0  0  0  0  0  0  0  0
  -24.8310  -16.1250   21.2250 O   0  0  0  0  0  0  0  0  0  0  0  0
  -24.6840  -13.3260   22.6400 H   0  0  0  0  0  0  0  0  0  0  0  0
  -23.6560  -14.7100   22.8780 H   0  0  0  0  0  0  0  0  0  0  0  0
  -27.8920  -16.1780   20.3960 N   0  0  0  0  0  0  0  0  0  0  0  0
  -27.3500  -16.9440   20.7820 H   0  0  0  0  0  0  0  0  0  0  0  0
  -28.7770  -16.4730   20.0030 H   0  0  0  0  0  0  0  0  0  0  0  0
  -26.4380  -22.9100   20.4490 C   0  0  0  0  0  2  0  0  0  0  0  0
  -27.7790  -23.3690   20.0220 N   0  0  0  0  0  4  0  0  0  0  0  0
  -27.7700  -23.4820   19.0200 H   0  0  0  0  0  0  0  0  0  0  0  0
  -28.4650  -22.6620   20.2380 H   0  0  0  0  0  0  0  0  0  0  0  0
  -28.2030  -24.6560   20.6310 C   0  0  0  0  0  2  0  0  0  0  0  0
  -28.8810  -25.5940   19.6030 C   0  0  0  0  0  2  0  0  0  0  0  0
  -28.7730  -26.9690   19.9870 O   0  0  0  0  0  0  0  0  0  0  0  0
  -24.5090  -31.7010   23.1120 C   0  0  0  0  0  0  0  0  0  0  0  0
  -27.5320  -27.5740   19.9520 C   0  0  0  0  0  0  0  0  0  0  0  0
  -23.4380  -30.2620   21.4110 C   0  0  0  0  0  3  0  0  0  0  0  0
  -25.0240  -28.8830   19.9710 C   0  0  0  0  0  0  0  0  0  0  0  0
  -25.9310  -30.8180   21.2680 C   0  0  0  0  0  2  0  0  0  0  0  0
  -26.1280  -29.4780   20.5910 C   0  0  0  0  0  0  0  0  0  0  0  0
  -27.3840  -28.8320   20.5770 C   0  0  0  0  0  3  0  0  0  0  0  0
  -26.4000  -26.9870   19.3320 C   0  0  0  0  0  3  0  0  0  0  0  0
  -25.1530  -27.6360   19.3440 C   0  0  0  0  0  3  0  0  0  0  0  0
  -23.7190  -29.6440   20.0160 C   0  0  0  0  0  2  0  0  0  0  0  0
  -24.6430  -30.9410   21.9890 N   0  0  0  0  0  0  0  0  0  0  0  0
  -23.4020  -31.8740   23.6400 O   0  0  0  0  0  0  0  0  0  0  0  0
  -22.8520  -29.1650   22.3290 C   0  0  0  0  0  0  0  0  0  0  0  0
  -21.5450  -28.8980   22.1820 N   0  0  0  0  0  0  0  0  0  0  0  0
  -23.5720  -28.5570   23.1280 O   0  0  0  0  0  0  0  0  0  0  0  0
  -21.0230  -29.4460   21.5130 H   0  0  0  0  0  0  0  0  0  0  0  0
  -18.2540  -27.4710   22.6120 C   0  0  0  0  0  0  0  0  0  0  0  0
  -20.7880  -27.8810   22.9130 C   0  0  0  0  0  3  0  0  0  0  0  0
  -20.9840  -26.4810   22.2870 C   0  0  0  0  0  2  0  0  0  0  0  0
  -19.9100  -26.1260   21.2540 C   0  0  0  0  0  2  0  0  0  0  0  0
  -18.5190  -26.1600   21.8930 C   0  0  0  0  0  2  0  0  0  0  0  0
  -19.3200  -28.2860   23.0780 C   0  0  0  0  0  0  0  0  0  0  0  0
  -19.0190  -29.5120   23.7100 C   0  0  0  0  0  3  0  0  0  0  0  0
  -17.6840  -29.9240   23.8810 C   0  0  0  0  0  3  0  0  0  0  0  0
  -16.6320  -29.1060   23.4340 C   0  0  0  0  0  3  0  0  0  0  0  0
  -16.9180  -27.8810   22.8060 C   0  0  0  0  0  3  0  0  0  0  0  0
  -25.7350  -32.4080   23.7710 C   0  0  0  0  0  3  0  0  0  0  0  0
  -25.3530  -33.8030   24.0310 N   0  0  0  0  0  0  0  0  0  0  0  0
  -25.6850  -34.8390   23.2500 C   0  0  0  0  0  0  0  0  0  0  0  0
  -26.4160  -34.7280   22.2610 O   0  0  0  0  0  0  0  0  0  0  0  0
  -24.7080  -33.9610   24.7900 H   0  0  0  0  0  0  0  0  0  0  0  0
  -23.9080  -36.5410   22.7290 C   0  0  0  0  0  1  0  0  0  0  0  0
  -25.1160  -36.2210   23.6250 C   0  0  0  0  0  3  0  0  0  0  0  0
  -27.1590  -37.2260   24.5420 C   0  0  0  0  0  1  0  0  0  0  0  0
  -26.1090  -37.3110   23.5300 N   0  0  0  0  0  0  0  0  0  0  0  0
  -25.6590  -38.2190   23.6150 H   0  0  0  0  0  0  0  0  0  0  0  0
  -26.2200  -31.7050   25.0970 C   0  0  1  0  0  0  0  0  0  0  0  0
  -25.0850  -31.4530   26.1180 C   0  0  0  0  0  1  0  0  0  0  0  0
  -26.8820  -30.3430   24.7820 C   0  0  0  0  0  1  0  0  0  0  0  0
  -27.3000  -32.5720   25.7860 C   0  0  0  0  0  1  0  0  0  0  0  0
  1  2  1  0
  1 48  1  0
  3  5  2  0
  4  2  1  0
  4  3  1  0
  6  4  1  0
  7  8  1  0
  7  3  1  0
  9  8  1  0
 10 18  1  0
 10 16  1  0
 11 16  1  0
 12 13  1  0
 12 11  1  0
 14 13  1  0
 14 23  1  0
 14 15  1  0
 16 15  1  0
 17 10  2  0
 18  9  1  0
 19 18  1  0
 20 45  1  0
 20 21  2  0
 21 40  1  0
 22 25  1  0
 22 21  1  0
 23 24  1  0
 23 20  1  0
 24 22  2  0
 25 26  1  0
 26 27  2  0
 28 31  1  0
 28 27  1  0
 29 28  2  0
 30 29  1  0
 30 25  2  0
 31 32  1  0
 32 33  1  0
 33 34  2  0
 35 34  1  0
 35 39  1  0
 36 35  2  0
 37 32  2  0
 37 36  1  0
 38 37  1  0
 40 41  1  0
 41 43  1  0
 41 44  1  0
 42 40  2  0
 45 46  1  0
 47 45  1  0
 49 51  1  0
 49 48  1  0
 49 52  1  0
 50 49  1  0
 53 54  1  0
 53 52  1  0
 55 66  2  0
 56 54  1  0
 56 61  1  0
 57 65  1  0
 57 67  1  0
 58 64  1  0
 58 60  1  0
 59 65  1  0
 60 59  1  0
 61 60  2  0
 62 63  1  0
 62 56  2  0
 63 58  2  0
 64 57  1  0
 65 55  1  0
 67 69  2  0
 68 67  1  0
 70 68  1  0
 71 80  2  0
 71 76  1  0
 72 68  1  0
 72 76  1  0
 73 72  1  0
 74 75  1  0
 74 73  1  0
 75 71  1  0
 76 77  2  0
 77 78  1  0
 79 78  2  0
 80 79  1  0
 81 55  1  0
 81 82  1  0
 81 91  1  0
 82 85  1  0
 83 87  1  0
 83 82  1  0
 84 83  2  0
 87 86  1  0
 89 90  1  0
 89 87  1  0
 89 88  1  0
 91 94  1  1
 91 92  1  0
 93 91  1  0
M  ISO  4  10 100  18 100  53 101  54 101
M  END
>  <TORSDO>  (71) 
F 24

>  <SCORE>  (71) 
-6.784

>  <name>  (71) 
71

>  <ligand_id>  (71) 
71

>  <original_smiles>  (71) 
[H]C(C(=O)N([H])C([H])([H])C([H])([H])C([H])([H])[N+]([H])([H])C([H])([H])C([H])([H])Oc1c([H])c([H])c2c(c1[H])C([H])([H])N(C(=O)C([H])(N([H])C(=O)C([H])(N([H])C([H])([H])[H])C([H])([H])[H])C(C([H])([H])[H])(C([H])([H])[H])C([H])([H])[H])C([H])(C(=O)N([H])C1([H])c3c([H])c([H])c([H])c([H])c3C([H])([H])C([H])([H])C1([H])[H])C2([H])[H])=C([H])C([H])([H])N([H])C(=O)N1C([H])([H])C([H])([H])C([H])([H])C([H])(n2nc(-c3c([H])c([H])c(Oc4c([H])c([H])c(F)c([H])c4F)c([H])c3[H])c(C(=O)N([H])[H])c2N([H])[H])C1([H])[H]

>  <smiles>  (71) 
[H]C(C(=O)N([H])C([H])([H])C([H])([H])C([H])([H])[N+]([H])([H])C([H])([H])C([H])([H])Oc1c([H])c([H])c2c(c1[H])C([H])([H])N(C(=O)C([H])(N([H])C(=O)C([H])(N([H])C([H])([H])[H])C([H])([H])[H])C(C([H])([H])[H])(C([H])([H])[H])C([H])([H])[H])C([H])(C(=O)N([H])C1([H])c3c([H])c([H])c([H])c([H])c3C([H])([H])C([H])([H])C1([H])[H])C2([H])[H])=C([H])C([H])([H])N([H])C(=O)N1C([H])([H])C([H])([H])C([H])([H])C([H])(n2nc(-c3c([H])c([H])c(Oc4c([H])c([H])c(F)c([H])c4F)c([H])c3[H])c(C(=O)N([H])[H])c2N([H])[H])C1([H])[H]

$$$$
72:0:0
     RDKit          3D

105110  0  0  1  0  0  0  0  0999 V2000
  -21.6310  -29.9250   23.5960 C   0  0  0  0  0  2  0  0  0  0  0  0
  -21.8530  -29.5810   25.1200 C   0  0  0  0  0  0  0  0  0  0  0  0
  -21.5170  -30.4290   26.0960 N   0  0  0  0  0  0  0  0  0  0  0  0
  -22.4010  -28.5050   25.4250 O   0  0  0  0  0  0  0  0  0  0  0  0
  -20.9960  -31.2620   25.8670 H   0  0  0  0  0  0  0  0  0  0  0  0
  -21.8230  -30.1880   27.5120 C   0  0  0  0  0  2  0  0  0  0  0  0
  -19.9890  -27.1530   28.8350 C   0  0  0  0  0  3  0  0  0  0  0  0
  -21.0760  -27.8290   28.2160 C   0  0  0  0  0  3  0  0  0  0  0  0
  -18.9610  -27.9990   29.1590 C   0  0  0  0  0  3  0  0  0  0  0  0
  -20.8870  -29.1870   28.1230 C   0  0  0  0  0  0  0  0  0  0  0  0
  -19.3420  -29.6610   28.7830 S   0  0  0  0  0  0  0  0  0  0  0  0
  -23.3960  -29.6130   23.5830 N   0  0  0  0  0  4  0  0  0  0  0  0
  -23.7790  -30.4910   23.9120 H   0  0  0  0  0  0  0  0  0  0  0  0
  -23.3450  -29.0480   24.4390 H   0  0  0  0  0  0  0  0  0  0  0  0
  -24.6310  -28.7400   22.7120 C   0  0  0  0  0  2  0  0  0  0  0  0
  -25.8340  -29.1070   21.3280 C   0  0  0  0  0  2  0  0  0  0  0  0
  -26.1900  -28.8740   19.7000 O   0  0  0  0  0  0  0  0  0  0  0  0
  -24.1490  -32.2900   23.1700 C   0  0  0  0  0  0  0  0  0  0  0  0
  -26.1150  -29.8770   18.7380 C   0  0  0  0  0  3  0  0  0  0  0  0
  -22.6860  -31.5560   21.1240 C   0  0  0  0  0  3  0  0  0  0  0  0
  -23.9760  -31.5440   18.9020 C   0  0  0  0  0  0  0  0  0  0  0  0
  -25.0580  -32.5670   20.9110 C   0  0  0  0  0  2  0  0  0  0  0  0
  -25.1510  -31.7930   19.6270 C   0  0  0  0  0  0  0  0  0  0  0  0
  -26.3310  -31.1130   19.3190 C   0  0  0  0  0  2  0  0  0  0  0  0
  -25.1130  -29.7270   17.7440 C   0  0  0  0  0  3  0  0  0  0  0  0
  -23.9910  -30.5800   17.8520 C   0  0  0  0  0  3  0  0  0  0  0  0
  -22.7000  -32.0030   19.6220 C   0  0  0  0  0  2  0  0  0  0  0  0
  -23.9810  -32.0810   21.8100 N   0  0  0  0  0  0  0  0  0  0  0  0
  -23.2060  -32.1260   23.9470 O   0  0  0  0  0  0  0  0  0  0  0  0
  -22.6420  -30.0010   20.8250 C   0  0  0  0  0  0  0  0  0  0  0  0
  -22.0430  -28.7950   21.0910 N   0  0  0  0  0  0  0  0  0  0  0  0
  -23.5450  -29.4250   20.4090 O   0  0  0  0  0  0  0  0  0  0  0  0
  -22.6190  -28.1910   20.5200 H   0  0  0  0  0  0  0  0  0  0  0  0
  -17.7840  -27.9800   21.4990 C   0  0  0  0  0  3  0  0  0  0  0  0
  -21.0410  -27.8280   21.8020 C   0  0  0  0  0  3  0  0  0  0  0  0
  -21.0370  -28.1660   19.7530 C   0  0  0  0  0  3  0  0  0  0  0  0
  -19.4050  -28.3410   19.0110 C   0  0  0  0  0  3  0  0  0  0  0  0
  -17.9170  -28.0930   19.8670 C   0  0  0  0  0  3  0  0  0  0  0  0
  -18.9960  -27.8510   22.5150 C   0  0  0  0  0  3  0  0  0  0  0  0
  -18.4210  -28.6610   23.6060 C   0  0  0  0  0  2  0  0  0  0  0  0
  -17.2370  -29.4660   23.7390 C   0  0  0  0  0  2  0  0  0  0  0  0
  -16.1850  -29.3020   22.8580 C   0  0  0  0  0  2  0  0  0  0  0  0
  -16.4580  -28.4740   21.7730 C   0  0  0  0  0  2  0  0  0  0  0  0
  -25.5100  -32.6830   23.8680 C   0  0  0  0  0  3  0  0  0  0  0  0
  -25.1820  -33.7050   24.8710 N   0  0  0  0  0  0  0  0  0  0  0  0
  -25.3800  -35.0170   24.7070 C   0  0  0  0  0  0  0  0  0  0  0  0
  -25.8800  -35.4910   23.6820 O   0  0  0  0  0  0  0  0  0  0  0  0
  -24.7120  -33.3870   25.7080 H   0  0  0  0  0  0  0  0  0  0  0  0
  -23.5670  -36.5320   25.5410 C   0  0  0  0  0  1  0  0  0  0  0  0
  -24.9510  -35.9470   25.8570 C   0  0  0  0  0  3  0  0  0  0  0  0
  -27.1830  -36.5790   26.6570 C   0  0  0  0  0  1  0  0  0  0  0  0
  -25.9110  -37.0420   26.1080 N   0  0  0  0  0  0  0  0  0  0  0  0
  -25.5230  -37.7280   26.7490 H   0  0  0  0  0  0  0  0  0  0  0  0
  -26.3040  -31.5130   24.6020 C   0  0  1  0  0  0  0  0  0  0  0  0
  -25.4560  -30.6590   25.5790 C   0  0  0  0  0  1  0  0  0  0  0  0
  -27.0330  -30.5940   23.6210 C   0  0  0  0  0  1  0  0  0  0  0  0
  -27.4650  -32.1070   25.4290 C   0  0  0  0  0  1  0  0  0  0  0  0
  -20.0240  -29.3770   22.2210 C   0  0  0  0  0  2  0  0  0  0  0  0
  -20.6310  -26.8930   20.5520 C   0  0  0  0  0  2  0  0  0  0  0  0
  -21.9340  -26.7640   18.9750 C   0  0  0  0  0  1  0  0  0  0  0  0
  -22.2530  -26.9070   17.0120 C   0  0  0  0  0  1  0  0  0  0  0  0
  -23.5390  -26.8200   15.7900 N   0  0  0  0  0  4  0  0  0  0  0  0
  -24.0340  -25.9950   16.0810 H   0  0  0  0  0  0  0  0  0  0  0  0
  -24.1590  -27.5490   16.0890 H   0  0  0  0  0  0  0  0  0  0  0  0
  -23.8390  -26.7820   14.0400 C   0  0  0  0  0  1  0  0  0  0  0  0
  -25.2620  -26.9960   12.6540 C   0  0  0  0  0 15  0  0  0  0  0  0
  -25.6820  -26.7320   10.7180 C   0  0  0  0  0  1  0  0  0  0  0  0
  -27.5370  -27.1640    7.9610 C   0  0  0  0  0  0  0  0  0  0  0  0
  -27.5850  -26.6570    5.3080 C   0  0  0  0  0  2  0  0  0  0  0  0
  -26.2070  -26.7820    4.5780 C   0  0  0  0  0  2  0  0  0  0  0  0
  -25.2960  -25.5870    4.9020 C   0  0  0  0  0  2  0  0  0  0  0  0
  -25.4560  -25.1880    6.3840 C   0  0  0  0  0  3  0  0  0  0  0  0
  -26.8990  -24.9880    6.8170 C   0  0  0  0  0  2  0  0  0  0  0  0
  -27.3890  -26.3240    6.8020 N   0  0  0  0  0  0  0  0  0  0  0  0
  -28.3310  -28.0660    7.5620 O   0  0  0  0  0  0  0  0  0  0  0  0
  -26.9270  -27.1180    9.4400 N   0  0  0  0  0  0  0  0  0  0  0  0
  -27.5010  -27.8130    9.9030 H   0  0  0  0  0  0  0  0  0  0  0  0
  -24.0440  -23.8600    7.9690 C   0  0  0  0  0  0  0  0  0  0  0  0
  -23.5320  -22.6050    7.9040 C   0  0  0  0  0  0  0  0  0  0  0  0
  -23.9700  -22.0670    6.6530 C   0  0  0  0  0  0  0  0  0  0  0  0
  -24.7330  -24.0290    6.7900 N   0  0  0  0  0  0  0  0  0  0  0  0
  -24.7610  -22.9200    6.0230 N   0  0  0  0  0  0  0  0  0  0  0  0
  -23.6050  -20.8310    5.9730 C   0  0  0  0  0  0  0  0  0  0  0  0
  -24.5830  -19.9370    5.4900 C   0  0  0  0  0  3  0  0  0  0  0  0
  -24.1940  -18.7440    4.8470 C   0  0  0  0  0  3  0  0  0  0  0  0
  -22.8200  -18.4400    4.6930 C   0  0  0  0  0  0  0  0  0  0  0  0
  -21.8530  -19.3490    5.1560 C   0  0  0  0  0  3  0  0  0  0  0  0
  -22.2410  -20.5380    5.7870 C   0  0  0  0  0  3  0  0  0  0  0  0
  -22.3500  -17.3100    4.0700 O   0  0  0  0  0  0  0  0  0  0  0  0
  -23.0870  -16.1560    4.0280 C   0  0  0  0  0  0  0  0  0  0  0  0
  -23.5650  -15.5290    5.2000 C   0  0  0  0  0  3  0  0  0  0  0  0
  -24.2590  -14.3070    5.1110 C   0  0  0  0  0  3  0  0  0  0  0  0
  -24.4660  -13.7040    3.8560 C   0  0  0  0  0  0  0  0  0  0  0  0
  -23.9890  -14.3260    2.6880 C   0  0  0  0  0  3  0  0  0  0  0  0
  -23.2970  -15.5460    2.7740 C   0  0  0  0  0  0  0  0  0  0  0  0
  -22.8210  -16.1310    1.6490 F   0  0  0  0  0  0  0  0  0  0  0  0
  -25.1230  -12.5250    3.7700 F   0  0  0  0  0  0  0  0  0  0  0  0
  -22.5890  -21.9940    8.8920 C   0  0  0  0  0  0  0  0  0  0  0  0
  -22.6020  -20.6740    9.0130 N   0  0  0  0  0  0  0  0  0  0  0  0
  -21.8680  -22.6950    9.6000 O   0  0  0  0  0  0  0  0  0  0  0  0
  -23.2040  -20.0990    8.4400 H   0  0  0  0  0  0  0  0  0  0  0  0
  -22.0010  -20.2250    9.6900 H   0  0  0  0  0  0  0  0  0  0  0  0
  -23.9520  -24.8820    8.9010 N   0  0  0  0  0  0  0  0  0  0  0  0
  -23.3420  -24.8100    9.7040 H   0  0  0  0  0  0  0  0  0  0  0  0
  -24.2530  -25.8270    8.7040 H   0  0  0  0  0  0  0  0  0  0  0  0
  1  2  1  0
  2  4  2  0
  2  3  1  0
  3  6  1  0
  5  3  1  0
  6 10  1  0
  7  9  2  0
  8  7  1  0
 10  8  2  0
 10 11  1  0
 11  9  1  0
 12  1  1  0
 12 13  1  0
 12 14  1  0
 15 12  1  0
 16 15  1  0
 17 16  1  0
 18 29  2  0
 19 24  1  0
 19 17  1  0
 20 30  1  0
 20 28  1  0
 21 27  1  0
 21 23  2  0
 22 28  1  0
 23 22  1  0
 24 23  1  0
 25 26  2  0
 25 19  1  0
 26 21  1  0
 27 20  1  0
 28 18  1  0
 30 31  1  0
 32 30  2  0
 33 31  1  0
 34 38  1  0
 34 43  1  0
 34 39  1  0
 35 31  1  0
 35 58  1  0
 36 60  1  0
 36 59  1  0
 37 36  1  0
 37 38  2  0
 39 58  1  0
 39 40  1  0
 40 41  1  0
 42 41  1  0
 43 42  1  0
 44 18  1  0
 44 54  1  0
 44 45  1  0
 45 48  1  0
 46 45  1  0
 46 50  1  0
 47 46  2  0
 50 49  1  0
 50 52  1  0
 52 51  1  0
 52 53  1  0
 54 57  1  1
 54 55  1  0
 56 54  1  0
 59 35  1  0
 62 63  1  0
 62 64  1  0
 62 61  1  0
 65 62  1  0
 68 76  1  0
 69 74  1  0
 70 71  1  0
 70 69  1  0
 72 71  1  0
 72 81  1  0
 72 73  1  0
 74 73  1  0
 74 68  1  0
 75 68  2  0
 76 77  1  0
 76 67  1  0
 78103  1  0
 79 78  2  0
 79 98  1  0
 80 79  1  0
 81 78  1  0
 82 80  2  0
 82 81  1  0
 83 80  1  0
 84 83  2  0
 85 84  1  0
 86 85  2  0
 86 87  1  0
 87 88  2  0
 88 83  1  0
 89 86  1  0
 90 89  1  0
 90 91  1  0
 92 91  2  0
 93 92  1  0
 94 95  1  0
 94 93  2  0
 95 90  2  0
 96 95  1  0
 97 93  1  0
 98 99  1  0
 98100  2  0
 99102  1  0
101 99  1  0
103104  1  0
105103  1  0
M  ISO  4  16 101  17 101  68 100  76 100
M  END
>  <TORSDO>  (72) 
F 30

>  <SCORE>  (72) 
74.392

>  <name>  (72) 
72

>  <ligand_id>  (72) 
72

>  <original_smiles>  (72) 
[H]c1sc(C([H])([H])N([H])C(=O)C([H])(C([H])([H])C([H])([H])C([H])([H])C([H])([H])[N+]([H])([H])C([H])([H])C([H])([H])C([H])([H])N([H])C(=O)N2C([H])([H])C([H])([H])C([H])([H])C([H])(n3nc(-c4c([H])c([H])c(Oc5c([H])c([H])c(F)c([H])c5F)c([H])c4[H])c(C(=O)N([H])[H])c3N([H])[H])C2([H])[H])[N+]([H])([H])C([H])([H])C([H])([H])Oc2c([H])c([H])c3c(c2[H])C([H])([H])N(C(=O)C([H])(N([H])C(=O)C([H])(N([H])C([H])([H])[H])C([H])([H])[H])C(C([H])([H])[H])(C([H])([H])[H])C([H])([H])[H])C([H])(C(=O)N([H])C2([H])c4c([H])c([H])c([H])c([H])c4C([H])([H])C([H])([H])C2([H])[H])C3([H])[H])c([H])c1[H]

>  <smiles>  (72) 
[H]c1sc(C([H])([H])N([H])C(=O)C([H])(C([H])([H])C([H])([H])C([H])([H])C([H])([H])[N+]([H])([H])C([H])([H])C([H])([H])C([H])([H])N([H])C(=O)N2C([H])([H])C([H])([H])C([H])([H])C([H])(n3nc(-c4c([H])c([H])c(Oc5c([H])c([H])c(F)c([H])c5F)c([H])c4[H])c(C(=O)N([H])[H])c3N([H])[H])C2([H])[H])[N+]([H])([H])C([H])([H])C([H])([H])Oc2c([H])c([H])c3c(c2[H])C([H])([H])N(C(=O)C([H])(N([H])C(=O)C([H])(N([H])C([H])([H])[H])C([H])([H])[H])C(C([H])([H])[H])(C([H])([H])[H])C([H])([H])[H])C([H])(C(=O)N([H])C2([H])c4c([H])c([H])c([H])c([H])c4C([H])([H])C([H])([H])C2([H])[H])C3([H])[H])c([H])c1[H]

$$$$
73:0:0
     RDKit          3D

 91 98  0  0  1  0  0  0  0  0999 V2000
  -29.8620  -21.8040   18.3570 C   0  0  0  0  0  2  0  0  0  0  0  0
  -29.6900  -19.6320   19.5310 C   0  0  0  0  0  0  0  0  0  0  0  0
  -30.3280  -20.7850   19.3000 N   0  0  0  0  0  0  0  0  0  0  0  0
  -28.5940  -19.3740   19.0240 O   0  0  0  0  0  0  0  0  0  0  0  0
  -31.2170  -20.9370   19.7540 H   0  0  0  0  0  0  0  0  0  0  0  0
  -30.4460  -18.7410   20.3960 C   0  0  0  0  0  3  0  0  0  0  0  0
  -29.8870  -17.6060   20.8580 C   0  0  0  0  0  3  0  0  0  0  0  0
  -30.5870  -16.5900   21.7450 C   0  0  0  0  0  2  0  0  0  0  0  0
  -30.6990  -14.3890   20.5470 C   0  0  0  0  0  0  0  0  0  0  0  0
  -30.3430  -12.3140   19.2580 C   0  0  0  0  0  2  0  0  0  0  0  0
  -29.3840  -12.5820   18.0820 C   0  0  0  0  0  2  0  0  0  0  0  0
  -27.9130  -12.4430   18.5230 C   0  0  0  0  0  2  0  0  0  0  0  0
  -27.6050  -13.2350   19.8220 C   0  0  0  0  0  3  0  0  0  0  0  0
  -28.6670  -12.9340   20.9030 C   0  0  0  0  0  2  0  0  0  0  0  0
  -29.9990  -13.2420   20.3450 N   0  0  0  0  0  0  0  0  0  0  0  0
  -31.7410  -14.6680   19.9450 O   0  0  0  0  0  0  0  0  0  0  0  0
  -30.1520  -15.2320   21.4330 N   0  0  0  0  0  0  0  0  0  0  0  0
  -29.3130  -14.9070   21.8930 H   0  0  0  0  0  0  0  0  0  0  0  0
  -25.2080  -13.8430   20.5480 C   0  0  0  0  0  0  0  0  0  0  0  0
  -24.1410  -13.0690   20.9220 C   0  0  0  0  0  0  0  0  0  0  0  0
  -24.6020  -11.7180   20.8820 C   0  0  0  0  0  0  0  0  0  0  0  0
  -26.2510  -12.9610   20.3070 N   0  0  0  0  0  0  0  0  0  0  0  0
  -25.8890  -11.6770   20.5610 N   0  0  0  0  0  0  0  0  0  0  0  0
  -23.8760  -10.4570   21.0780 C   0  0  0  0  0  0  0  0  0  0  0  0
  -24.3250   -9.4770   21.9910 C   0  0  0  0  0  3  0  0  0  0  0  0
  -23.5980   -8.2810   22.1740 C   0  0  0  0  0  3  0  0  0  0  0  0
  -22.4070   -8.0560   21.4420 C   0  0  0  0  0  0  0  0  0  0  0  0
  -21.9790   -9.0230   20.5150 C   0  0  0  0  0  3  0  0  0  0  0  0
  -22.7060  -10.2100   20.3320 C   0  0  0  0  0  3  0  0  0  0  0  0
  -21.6520   -6.9120   21.5330 O   0  0  0  0  0  0  0  0  0  0  0  0
  -21.6390   -6.1480   22.6720 C   0  0  0  0  0  0  0  0  0  0  0  0
  -21.2640   -6.6830   23.9220 C   0  0  0  0  0  3  0  0  0  0  0  0
  -21.1950   -5.8460   25.0540 C   0  0  0  0  0  3  0  0  0  0  0  0
  -21.4930   -4.4740   24.9350 C   0  0  0  0  0  0  0  0  0  0  0  0
  -21.8610   -3.9400   23.6890 C   0  0  0  0  0  3  0  0  0  0  0  0
  -21.9310   -4.7740   22.5590 C   0  0  0  0  0  0  0  0  0  0  0  0
  -22.2660   -4.2480   21.3570 F   0  0  0  0  0  0  0  0  0  0  0  0
  -21.4210   -3.6690   26.0210 F   0  0  0  0  0  0  0  0  0  0  0  0
  -22.7470  -13.5450   21.2130 C   0  0  0  0  0  0  0  0  0  0  0  0
  -22.0340  -12.8440   22.0870 N   0  0  0  0  0  0  0  0  0  0  0  0
  -22.2980  -14.5700   20.6990 O   0  0  0  0  0  0  0  0  0  0  0  0
  -22.4130  -12.0150   22.5200 H   0  0  0  0  0  0  0  0  0  0  0  0
  -21.1010  -13.1400   22.3320 H   0  0  0  0  0  0  0  0  0  0  0  0
  -25.3690  -15.2140   20.3740 N   0  0  0  0  0  0  0  0  0  0  0  0
  -24.6000  -15.8640   20.4860 H   0  0  0  0  0  0  0  0  0  0  0  0
  -26.2200  -15.6620   20.0540 H   0  0  0  0  0  0  0  0  0  0  0  0
  -30.5670  -23.1640   18.5340 C   0  0  0  0  0  2  0  0  0  0  0  0
  -29.6110  -24.1540   18.9090 O   0  0  0  0  0  0  0  0  0  0  0  0
  -30.1190  -25.4870   18.8750 C   0  0  0  0  0  2  0  0  0  0  0  0
  -28.9550  -26.4920   18.8100 C   0  0  0  0  0  2  0  0  0  0  0  0
  -28.4500  -26.7740   20.1150 O   0  0  0  0  0  0  0  0  0  0  0  0
  -24.6210  -31.8850   23.2550 C   0  0  0  0  0  0  0  0  0  0  0  0
  -27.2710  -27.4800   20.1390 C   0  0  0  0  0  0  0  0  0  0  0  0
  -23.4080  -30.4790   21.6190 C   0  0  0  0  0  3  0  0  0  0  0  0
  -24.8590  -28.9450   20.1860 C   0  0  0  0  0  0  0  0  0  0  0  0
  -25.9280  -30.8480   21.4090 C   0  0  0  0  0  2  0  0  0  0  0  0
  -26.0160  -29.4780   20.7710 C   0  0  0  0  0  0  0  0  0  0  0  0
  -27.2220  -28.7450   20.7570 C   0  0  0  0  0  3  0  0  0  0  0  0
  -26.0960  -26.9430   19.5700 C   0  0  0  0  0  3  0  0  0  0  0  0
  -24.8920  -27.6720   19.5890 C   0  0  0  0  0  3  0  0  0  0  0  0
  -23.6130  -29.7990   20.2370 C   0  0  0  0  0  2  0  0  0  0  0  0
  -24.6700  -31.0860   22.1520 N   0  0  0  0  0  0  0  0  0  0  0  0
  -23.5410  -32.1550   23.8010 O   0  0  0  0  0  0  0  0  0  0  0  0
  -22.7660  -29.4550   22.5810 C   0  0  0  0  0  0  0  0  0  0  0  0
  -21.4420  -29.2700   22.4580 N   0  0  0  0  0  0  0  0  0  0  0  0
  -23.4540  -28.8320   23.3940 O   0  0  0  0  0  0  0  0  0  0  0  0
  -20.9500  -29.8230   21.7700 H   0  0  0  0  0  0  0  0  0  0  0  0
  -18.0720  -28.0730   22.9630 C   0  0  0  0  0  0  0  0  0  0  0  0
  -20.6290  -28.3340   23.2320 C   0  0  0  0  0  3  0  0  0  0  0  0
  -20.7340  -26.9030   22.6550 C   0  0  0  0  0  2  0  0  0  0  0  0
  -19.6300  -26.5780   21.6440 C   0  0  0  0  0  2  0  0  0  0  0  0
  -18.2470  -26.7230   22.2890 C   0  0  0  0  0  2  0  0  0  0  0  0
  -19.1890  -28.8370   23.3900 C   0  0  0  0  0  0  0  0  0  0  0  0
  -18.9710  -30.1010   23.9810 C   0  0  0  0  0  3  0  0  0  0  0  0
  -17.6660  -30.6010   24.1460 C   0  0  0  0  0  3  0  0  0  0  0  0
  -16.5620  -29.8340   23.7360 C   0  0  0  0  0  3  0  0  0  0  0  0
  -16.7660  -28.5720   23.1500 C   0  0  0  0  0  3  0  0  0  0  0  0
  -25.9100  -32.5150   23.8670 C   0  0  0  0  0  3  0  0  0  0  0  0
  -25.6070  -33.9130   24.1970 N   0  0  0  0  0  0  0  0  0  0  0  0
  -25.9390  -34.9630   23.4330 C   0  0  0  0  0  0  0  0  0  0  0  0
  -26.6070  -34.8550   22.4020 O   0  0  0  0  0  0  0  0  0  0  0  0
  -25.0110  -34.0700   24.9970 H   0  0  0  0  0  0  0  0  0  0  0  0
  -24.2110  -36.7530   23.0760 C   0  0  0  0  0  1  0  0  0  0  0  0
  -25.4520  -36.3530   23.8880 C   0  0  0  0  0  3  0  0  0  0  0  0
  -27.5910  -37.2320   24.7130 C   0  0  0  0  0  1  0  0  0  0  0  0
  -26.4850  -37.4050   23.7720 N   0  0  0  0  0  0  0  0  0  0  0  0
  -26.0810  -38.3240   23.9260 H   0  0  0  0  0  0  0  0  0  0  0  0
  -26.4360  -31.7420   25.1380 C   0  0  1  0  0  0  0  0  0  0  0  0
  -25.3500  -31.5050   26.2130 C   0  0  0  0  0  1  0  0  0  0  0  0
  -27.0170  -30.3650   24.7400 C   0  0  0  0  0  1  0  0  0  0  0  0
  -27.5930  -32.5350   25.7920 C   0  0  0  0  0  1  0  0  0  0  0  0
  1 47  1  0
  1  3  1  0
  2  6  1  0
  3  2  1  0
  3  5  1  0
  4  2  2  0
  6  7  2  0
  7  8  1  0
  9 17  1  0
 10 15  1  0
 11 12  1  0
 11 10  1  0
 13 12  1  0
 13 22  1  0
 13 14  1  0
 15  9  1  0
 15 14  1  0
 16  9  2  0
 17  8  1  0
 17 18  1  0
 19 20  2  0
 20 39  1  0
 21 20  1  0
 21 24  1  0
 22 19  1  0
 22 23  1  0
 23 21  2  0
 24 25  1  0
 25 26  2  0
 27 30  1  0
 27 26  1  0
 28 27  2  0
 29 28  1  0
 29 24  2  0
 30 31  1  0
 31 32  1  0
 32 33  2  0
 34 33  1  0
 34 38  1  0
 35 34  2  0
 36 31  2  0
 36 35  1  0
 37 36  1  0
 39 40  1  0
 40 43  1  0
 40 42  1  0
 41 39  2  0
 44 45  1  0
 44 19  1  0
 46 44  1  0
 47 48  1  0
 49 48  1  0
 50 49  1  0
 50 51  1  0
 51 53  1  0
 52 63  2  0
 53 58  1  0
 54 62  1  0
 54 64  1  0
 55 61  1  0
 55 57  1  0
 56 62  1  0
 57 56  1  0
 58 57  2  0
 59 60  1  0
 59 53  2  0
 60 55  2  0
 61 54  1  0
 62 52  1  0
 64 66  2  0
 65 64  1  0
 67 65  1  0
 68 77  2  0
 68 73  1  0
 69 65  1  0
 69 73  1  0
 70 69  1  0
 71 72  1  0
 71 70  1  0
 72 68  1  0
 73 74  2  0
 74 75  1  0
 76 75  2  0
 77 76  1  0
 78 52  1  0
 78 79  1  0
 78 88  1  0
 79 82  1  0
 80 84  1  0
 80 79  1  0
 81 80  2  0
 84 83  1  0
 86 84  1  0
 86 87  1  0
 86 85  1  0
 88 91  1  1
 88 89  1  0
 90 88  1  0
M  ISO  4   9 100  17 100  50 101  51 101
M  END
>  <TORSDO>  (73) 
F 23

>  <SCORE>  (73) 
-12.740

>  <name>  (73) 
73

>  <ligand_id>  (73) 
73

>  <original_smiles>  (73) 
[H]C(C(=O)N([H])C([H])([H])C([H])([H])OC([H])([H])C([H])([H])Oc1c([H])c([H])c2c(c1[H])C([H])([H])N(C(=O)C([H])(N([H])C(=O)C([H])(N([H])C([H])([H])[H])C([H])([H])[H])C(C([H])([H])[H])(C([H])([H])[H])C([H])([H])[H])C([H])(C(=O)N([H])C1([H])c3c([H])c([H])c([H])c([H])c3C([H])([H])C([H])([H])C1([H])[H])C2([H])[H])=C([H])C([H])([H])N([H])C(=O)N1C([H])([H])C([H])([H])C([H])([H])C([H])(n2nc(-c3c([H])c([H])c(Oc4c([H])c([H])c(F)c([H])c4F)c([H])c3[H])c(C(=O)N([H])[H])c2N([H])[H])C1([H])[H]

>  <smiles>  (73) 
[H]C(C(=O)N([H])C([H])([H])C([H])([H])OC([H])([H])C([H])([H])Oc1c([H])c([H])c2c(c1[H])C([H])([H])N(C(=O)C([H])(N([H])C(=O)C([H])(N([H])C([H])([H])[H])C([H])([H])[H])C(C([H])([H])[H])(C([H])([H])[H])C([H])([H])[H])C([H])(C(=O)N([H])C1([H])c3c([H])c([H])c([H])c([H])c3C([H])([H])C([H])([H])C1([H])[H])C2([H])[H])=C([H])C([H])([H])N([H])C(=O)N1C([H])([H])C([H])([H])C([H])([H])C([H])(n2nc(-c3c([H])c([H])c(Oc4c([H])c([H])c(F)c([H])c4F)c([H])c3[H])c(C(=O)N([H])[H])c2N([H])[H])C1([H])[H]

$$$$
74:0:0
     RDKit          3D

100107  0  0  1  0  0  0  0  0999 V2000
  -34.3220  -21.4120   21.3890 C   0  0  0  0  0  2  0  0  0  0  0  0
  -35.1170  -20.2350   20.7830 C   0  0  0  0  0  2  0  0  0  0  0  0
  -35.5280  -20.4480   19.3210 C   0  0  0  0  0  2  0  0  0  0  0  0
  -34.3380  -20.3450   18.5710 O   0  0  0  0  0  0  0  0  0  0  0  0
  -34.4660  -20.6380   17.2010 C   0  0  0  0  0  2  0  0  0  0  0  0
  -33.0480  -20.9870   16.7390 C   0  0  0  0  0  2  0  0  0  0  0  0
  -32.0760  -19.7870   16.7130 C   0  0  0  0  0  2  0  0  0  0  0  0
  -31.5410  -19.2630   18.0740 C   0  0  0  0  0  2  0  0  0  0  0  0
  -30.3670  -18.3800   17.8500 N   0  0  0  0  0  4  0  0  0  0  0  0
  -30.6390  -17.6020   17.2690 H   0  0  0  0  0  0  0  0  0  0  0  0
  -29.6920  -18.9060   17.3160 H   0  0  0  0  0  0  0  0  0  0  0  0
  -29.6550  -17.8580   19.0470 C   0  0  0  0  0  2  0  0  0  0  0  0
  -30.5280  -16.8900   19.8940 C   0  0  0  0  0  2  0  0  0  0  0  0
  -30.7800  -14.4990   20.4430 C   0  0  0  0  0  0  0  0  0  0  0  0
  -30.4210  -12.3350   19.3750 C   0  0  0  0  0  2  0  0  0  0  0  0
  -29.5150  -12.5640   18.1480 C   0  0  0  0  0  2  0  0  0  0  0  0
  -28.0350  -12.4420   18.5610 C   0  0  0  0  0  2  0  0  0  0  0  0
  -27.6810  -13.2970   19.8080 C   0  0  0  0  0  3  0  0  0  0  0  0
  -28.7270  -13.1140   20.9360 C   0  0  0  0  0  2  0  0  0  0  0  0
  -30.0640  -13.3500   20.3730 N   0  0  0  0  0  0  0  0  0  0  0  0
  -31.9620  -14.5900   20.1030 O   0  0  0  0  0  0  0  0  0  0  0  0
  -30.0440  -15.6220   20.4830 N   0  0  0  0  0  0  0  0  0  0  0  0
  -29.0780  -15.5400   20.7650 H   0  0  0  0  0  0  0  0  0  0  0  0
  -25.2700  -13.9150   20.4730 C   0  0  0  0  0  0  0  0  0  0  0  0
  -24.1950  -13.1440   20.8390 C   0  0  0  0  0  0  0  0  0  0  0  0
  -24.6560  -11.7940   20.8270 C   0  0  0  0  0  0  0  0  0  0  0  0
  -26.3190  -13.0300   20.2710 N   0  0  0  0  0  0  0  0  0  0  0  0
  -25.9510  -11.7510   20.5430 N   0  0  0  0  0  0  0  0  0  0  0  0
  -23.9290  -10.5340   21.0250 C   0  0  0  0  0  0  0  0  0  0  0  0
  -24.3580   -9.5770   21.9690 C   0  0  0  0  0  3  0  0  0  0  0  0
  -23.6330   -8.3810   22.1510 C   0  0  0  0  0  3  0  0  0  0  0  0
  -22.4670   -8.1330   21.3870 C   0  0  0  0  0  0  0  0  0  0  0  0
  -22.0610   -9.0790   20.4300 C   0  0  0  0  0  3  0  0  0  0  0  0
  -22.7860  -10.2680   20.2450 C   0  0  0  0  0  3  0  0  0  0  0  0
  -21.7150   -6.9870   21.4740 O   0  0  0  0  0  0  0  0  0  0  0  0
  -21.6570   -6.2510   22.6300 C   0  0  0  0  0  0  0  0  0  0  0  0
  -21.2230   -6.8120   23.8520 C   0  0  0  0  0  3  0  0  0  0  0  0
  -21.1130   -6.0020   24.9980 C   0  0  0  0  0  3  0  0  0  0  0  0
  -21.4290   -4.6320   24.9280 C   0  0  0  0  0  0  0  0  0  0  0  0
  -21.8530   -4.0710   23.7110 C   0  0  0  0  0  3  0  0  0  0  0  0
  -21.9640   -4.8770   22.5650 C   0  0  0  0  0  0  0  0  0  0  0  0
  -22.3560   -4.3250   21.3910 F   0  0  0  0  0  0  0  0  0  0  0  0
  -21.3150   -3.8520   26.0290 F   0  0  0  0  0  0  0  0  0  0  0  0
  -22.7950  -13.6260   21.0860 C   0  0  0  0  0  0  0  0  0  0  0  0
  -22.0540  -12.9360   21.9480 N   0  0  0  0  0  0  0  0  0  0  0  0
  -22.3660  -14.6420   20.5450 O   0  0  0  0  0  0  0  0  0  0  0  0
  -22.4190  -12.1160   22.4080 H   0  0  0  0  0  0  0  0  0  0  0  0
  -21.1120  -13.2410   22.1460 H   0  0  0  0  0  0  0  0  0  0  0  0
  -25.4350  -15.2840   20.2770 N   0  0  0  0  0  0  0  0  0  0  0  0
  -24.6630  -15.9360   20.3580 H   0  0  0  0  0  0  0  0  0  0  0  0
  -26.2780  -15.7210   19.9260 H   0  0  0  0  0  0  0  0  0  0  0  0
  -32.8630  -21.4950   20.8980 C   0  0  0  0  0  2  0  0  0  0  0  0
  -32.0820  -22.6720   21.4880 C   0  0  0  0  0  2  0  0  0  0  0  0
  -30.5970  -22.6110   21.1000 C   0  0  0  0  0  2  0  0  0  0  0  0
  -29.8550  -23.7640   21.6350 N   0  0  0  0  0  4  0  0  0  0  0  0
  -29.1680  -23.4230   22.2920 H   0  0  0  0  0  0  0  0  0  0  0  0
  -30.4910  -24.3630   22.1340 H   0  0  0  0  0  0  0  0  0  0  0  0
  -29.1920  -24.5460   20.5760 C   0  0  0  0  0  2  0  0  0  0  0  0
  -28.5440  -25.8230   21.0980 C   0  0  0  0  0  2  0  0  0  0  0  0
  -28.2300  -26.5270   19.9130 O   0  0  0  0  0  0  0  0  0  0  0  0
  -24.5240  -31.6590   23.1090 C   0  0  0  0  0  0  0  0  0  0  0  0
  -27.0760  -27.2490   19.9850 C   0  0  0  0  0  0  0  0  0  0  0  0
  -23.2840  -30.3090   21.4430 C   0  0  0  0  0  3  0  0  0  0  0  0
  -24.7060  -28.7550   20.0100 C   0  0  0  0  0  0  0  0  0  0  0  0
  -25.8100  -30.6290   21.2470 C   0  0  0  0  0  2  0  0  0  0  0  0
  -25.8680  -29.2590   20.6100 C   0  0  0  0  0  0  0  0  0  0  0  0
  -27.0600  -28.5100   20.6010 C   0  0  0  0  0  3  0  0  0  0  0  0
  -25.9070  -26.7360   19.3900 C   0  0  0  0  0  3  0  0  0  0  0  0
  -24.7170  -27.4850   19.3990 C   0  0  0  0  0  3  0  0  0  0  0  0
  -23.4820  -29.6380   20.0550 C   0  0  0  0  0  2  0  0  0  0  0  0
  -24.5590  -30.8780   21.9950 N   0  0  0  0  0  0  0  0  0  0  0  0
  -23.4500  -31.9540   23.6520 O   0  0  0  0  0  0  0  0  0  0  0  0
  -22.6140  -29.2890   22.3870 C   0  0  0  0  0  0  0  0  0  0  0  0
  -21.2810  -29.1650   22.2800 N   0  0  0  0  0  0  0  0  0  0  0  0
  -23.2840  -28.6150   23.1750 O   0  0  0  0  0  0  0  0  0  0  0  0
  -20.8060  -29.7570   21.6130 H   0  0  0  0  0  0  0  0  0  0  0  0
  -17.8660  -28.1330   22.8170 C   0  0  0  0  0  0  0  0  0  0  0  0
  -20.4400  -28.2460   23.0400 C   0  0  0  0  0  3  0  0  0  0  0  0
  -20.4550  -26.8320   22.4140 C   0  0  0  0  0  2  0  0  0  0  0  0
  -19.3150  -26.6000   21.4190 C   0  0  0  0  0  2  0  0  0  0  0  0
  -17.9570  -26.7970   22.0990 C   0  0  0  0  0  2  0  0  0  0  0  0
  -19.0320  -28.8190   23.2490 C   0  0  0  0  0  0  0  0  0  0  0  0
  -18.8960  -30.0730   23.8820 C   0  0  0  0  0  3  0  0  0  0  0  0
  -17.6240  -30.6370   24.0930 C   0  0  0  0  0  3  0  0  0  0  0  0
  -16.4720  -29.9450   23.6850 C   0  0  0  0  0  3  0  0  0  0  0  0
  -16.5940  -28.6960   23.0490 C   0  0  0  0  0  3  0  0  0  0  0  0
  -25.8250  -32.2500   23.7360 C   0  0  0  0  0  3  0  0  0  0  0  0
  -25.5480  -33.6490   24.0880 N   0  0  0  0  0  0  0  0  0  0  0  0
  -25.9080  -34.7040   23.3450 C   0  0  0  0  0  0  0  0  0  0  0  0
  -26.5840  -34.5990   22.3180 O   0  0  0  0  0  0  0  0  0  0  0  0
  -24.9610  -33.8070   24.8930 H   0  0  0  0  0  0  0  0  0  0  0  0
  -24.2300  -36.5380   23.0010 C   0  0  0  0  0  1  0  0  0  0  0  0
  -25.4510  -36.0950   23.8190 C   0  0  0  0  0  3  0  0  0  0  0  0
  -27.6000  -36.9120   24.6840 C   0  0  0  0  0  1  0  0  0  0  0  0
  -26.5120  -37.1220   23.7340 N   0  0  0  0  0  0  0  0  0  0  0  0
  -26.1290  -38.0500   23.8920 H   0  0  0  0  0  0  0  0  0  0  0  0
  -26.3250  -31.4450   24.9960 C   0  0  1  0  0  0  0  0  0  0  0  0
  -25.2270  -31.2170   26.0640 C   0  0  0  0  0  1  0  0  0  0  0  0
  -26.8730  -30.0610   24.5760 C   0  0  0  0  0  1  0  0  0  0  0  0
  -27.4970  -32.1960   25.6690 C   0  0  0  0  0  1  0  0  0  0  0  0
  2  1  1  0
  3  2  1  0
  4  3  1  0
  5  4  1  0
  6  5  1  0
  7  6  1  0
  7  8  1  0
  9  8  1  0
  9 12  1  0
 10  9  1  0
 11  9  1  0
 12 13  1  0
 13 22  1  0
 14 22  1  0
 15 20  1  0
 16 17  1  0
 16 15  1  0
 18 17  1  0
 18 27  1  0
 18 19  1  0
 20 14  1  0
 20 19  1  0
 21 14  2  0
 22 23  1  0
 24 25  2  0
 25 44  1  0
 26 25  1  0
 26 29  1  0
 27 24  1  0
 27 28  1  0
 28 26  2  0
 29 30  1  0
 30 31  2  0
 32 35  1  0
 32 31  1  0
 33 32  2  0
 34 33  1  0
 34 29  2  0
 35 36  1  0
 36 37  1  0
 37 38  2  0
 39 38  1  0
 39 43  1  0
 40 39  2  0
 41 36  2  0
 41 40  1  0
 42 41  1  0
 44 45  1  0
 45 48  1  0
 45 47  1  0
 46 44  2  0
 49 50  1  0
 49 24  1  0
 51 49  1  0
 52  1  1  0
 52 53  1  0
 54 53  1  0
 54 55  1  0
 55 57  1  0
 55 56  1  0
 58 59  1  0
 58 55  1  0
 60 62  1  0
 60 59  1  0
 61 72  2  0
 62 67  1  0
 63 71  1  0
 63 73  1  0
 64 70  1  0
 64 66  1  0
 65 71  1  0
 66 65  1  0
 67 66  2  0
 68 69  1  0
 68 62  2  0
 69 64  2  0
 70 63  1  0
 71 61  1  0
 73 75  2  0
 74 73  1  0
 76 74  1  0
 77 86  2  0
 77 82  1  0
 78 74  1  0
 78 82  1  0
 79 78  1  0
 80 81  1  0
 80 79  1  0
 81 77  1  0
 82 83  2  0
 83 84  1  0
 85 84  2  0
 86 85  1  0
 87 61  1  0
 87 88  1  0
 87 97  1  0
 88 91  1  0
 89 93  1  0
 89 88  1  0
 90 89  2  0
 93 92  1  0
 95 93  1  0
 95 96  1  0
 95 94  1  0
 97100  1  1
 97 98  1  0
 99 97  1  0
M  ISO  4  14 100  22 100  59 101  60 101
M  END
>  <TORSDO>  (74) 
F 32

>  <SCORE>  (74) 
-9.796

>  <name>  (74) 
74

>  <ligand_id>  (74) 
74

>  <original_smiles>  (74) 
[H]c1c([H])c([H])c2c(c1[H])C([H])([H])C([H])([H])C([H])([H])C2([H])N([H])C(=O)C1([H])N(C(=O)C([H])(N([H])C(=O)C([H])(N([H])C([H])([H])[H])C([H])([H])[H])C(C([H])([H])[H])(C([H])([H])[H])C([H])([H])[H])C([H])([H])c2c([H])c(OC([H])([H])C([H])([H])[N+]([H])([H])C([H])([H])C([H])([H])C([H])([H])C([H])([H])C([H])([H])C([H])([H])OC([H])([H])C([H])([H])C([H])([H])C([H])([H])[N+]([H])([H])C([H])([H])C([H])([H])N([H])C(=O)N3C([H])([H])C([H])([H])C([H])([H])C([H])(n4nc(-c5c([H])c([H])c(Oc6c([H])c([H])c(F)c([H])c6F)c([H])c5[H])c(C(=O)N([H])[H])c4N([H])[H])C3([H])[H])c([H])c([H])c2C1([H])[H]

>  <smiles>  (74) 
[H]c1c([H])c([H])c2c(c1[H])C([H])([H])C([H])([H])C([H])([H])C2([H])N([H])C(=O)C1([H])N(C(=O)C([H])(N([H])C(=O)C([H])(N([H])C([H])([H])[H])C([H])([H])[H])C(C([H])([H])[H])(C([H])([H])[H])C([H])([H])[H])C([H])([H])c2c([H])c(OC([H])([H])C([H])([H])[N+]([H])([H])C([H])([H])C([H])([H])C([H])([H])C([H])([H])C([H])([H])C([H])([H])OC([H])([H])C([H])([H])C([H])([H])C([H])([H])[N+]([H])([H])C([H])([H])C([H])([H])N([H])C(=O)N3C([H])([H])C([H])([H])C([H])([H])C([H])(n4nc(-c5c([H])c([H])c(Oc6c([H])c([H])c(F)c([H])c6F)c([H])c5[H])c(C(=O)N([H])[H])c4N([H])[H])C3([H])[H])c([H])c([H])c2C1([H])[H]

$$$$
75:0:0
     RDKit          3D

102109  0  0  1  0  0  0  0  0999 V2000
  -24.6210  -23.1320   22.5550 C   0  0  0  0  0  0  0  0  0  0  0  0
  -23.6120  -23.4600   21.7250 N   0  0  0  0  0  0  0  0  0  0  0  0
  -24.4350  -23.0330   23.7690 O   0  0  0  0  0  0  0  0  0  0  0  0
  -22.7030  -23.4050   22.1680 H   0  0  0  0  0  0  0  0  0  0  0  0
  -25.8510  -22.7820   21.8740 C   0  0  0  0  0  3  0  0  0  0  0  0
  -27.0090  -23.4500   22.0030 C   0  0  0  0  0  3  0  0  0  0  0  0
  -28.2060  -23.1240   21.1270 C   0  0  0  0  0  2  0  0  0  0  0  0
  -28.2760  -24.1940   20.0250 C   0  0  0  0  0  2  0  0  0  0  0  0
  -29.3700  -24.0170   19.0430 N   0  0  0  0  0  4  0  0  0  0  0  0
  -30.2330  -23.9920   19.5630 H   0  0  0  0  0  0  0  0  0  0  0  0
  -29.2680  -23.1220   18.5830 H   0  0  0  0  0  0  0  0  0  0  0  0
  -29.4850  -25.0920   18.0110 C   0  0  0  0  0  2  0  0  0  0  0  0
  -28.1560  -25.5060   17.3240 C   0  0  0  0  0  2  0  0  0  0  0  0
  -28.1250  -26.9340   17.1370 O   0  0  0  0  0  0  0  0  0  0  0  0
  -25.4580  -30.1110   22.8960 C   0  0  0  0  0  0  0  0  0  0  0  0
  -27.0350  -27.5820   17.6810 C   0  0  0  0  0  0  0  0  0  0  0  0
  -23.8230  -29.5570   21.1250 C   0  0  0  0  0  3  0  0  0  0  0  0
  -24.8140  -28.8630   18.8800 C   0  0  0  0  0  0  0  0  0  0  0  0
  -26.2640  -30.0480   20.5390 C   0  0  0  0  0  2  0  0  0  0  0  0
  -26.1080  -29.1090   19.3590 C   0  0  0  0  0  0  0  0  0  0  0  0
  -27.2210  -28.4850   18.7530 C   0  0  0  0  0  3  0  0  0  0  0  0
  -25.7260  -27.3590   17.1960 C   0  0  0  0  0  3  0  0  0  0  0  0
  -24.6180  -27.9930   17.7920 C   0  0  0  0  0  3  0  0  0  0  0  0
  -23.6770  -29.5770   19.5800 C   0  0  0  0  0  2  0  0  0  0  0  0
  -25.2140  -29.8950   21.5730 N   0  0  0  0  0  0  0  0  0  0  0  0
  -24.5430  -30.0790   23.7320 O   0  0  0  0  0  0  0  0  0  0  0  0
  -23.3230  -28.1920   21.6500 C   0  0  0  0  0  0  0  0  0  0  0  0
  -22.0410  -27.8880   21.3880 N   0  0  0  0  0  0  0  0  0  0  0  0
  -24.0830  -27.4270   22.2490 O   0  0  0  0  0  0  0  0  0  0  0  0
  -21.4870  -28.5650   20.8830 H   0  0  0  0  0  0  0  0  0  0  0  0
  -19.0480  -25.9400   20.8360 C   0  0  0  0  0  0  0  0  0  0  0  0
  -21.3610  -26.6460   21.7520 C   0  0  0  0  0  3  0  0  0  0  0  0
  -21.9300  -25.4500   20.9560 C   0  0  0  0  0  2  0  0  0  0  0  0
  -21.1530  -25.1610   19.6670 C   0  0  0  0  0  2  0  0  0  0  0  0
  -19.6830  -24.8590   19.9790 C   0  0  0  0  0  2  0  0  0  0  0  0
  -19.8370  -26.7910   21.6560 C   0  0  0  0  0  0  0  0  0  0  0  0
  -19.2000  -27.8060   22.4040 C   0  0  0  0  0  3  0  0  0  0  0  0
  -17.8040  -27.9760   22.3440 C   0  0  0  0  0  3  0  0  0  0  0  0
  -17.0260  -27.1210   21.5440 C   0  0  0  0  0  3  0  0  0  0  0  0
  -17.6470  -26.1040   20.7970 C   0  0  0  0  0  3  0  0  0  0  0  0
  -26.8910  -30.4360   23.4200 C   0  0  0  0  0  3  0  0  0  0  0  0
  -26.8340  -31.7470   24.0810 N   0  0  0  0  0  0  0  0  0  0  0  0
  -27.3450  -32.8770   23.5750 C   0  0  0  0  0  0  0  0  0  0  0  0
  -27.9870  -32.9090   22.5210 O   0  0  0  0  0  0  0  0  0  0  0  0
  -26.2780  -31.8050   24.9210 H   0  0  0  0  0  0  0  0  0  0  0  0
  -26.0160  -35.0120   23.6600 C   0  0  0  0  0  1  0  0  0  0  0  0
  -27.1030  -34.1810   24.3600 C   0  0  0  0  0  3  0  0  0  0  0  0
  -29.3100  -34.3880   25.4170 C   0  0  0  0  0  1  0  0  0  0  0  0
  -28.3240  -35.0000   24.5320 N   0  0  0  0  0  0  0  0  0  0  0  0
  -28.0920  -35.9200   24.8990 H   0  0  0  0  0  0  0  0  0  0  0  0
  -27.4540  -29.3380   24.4060 C   0  0  1  0  0  0  0  0  0  0  0  0
  -26.4940  -28.9970   25.5700 C   0  0  0  0  0  1  0  0  0  0  0  0
  -27.7540  -28.0270   23.6410 C   0  0  0  0  0  1  0  0  0  0  0  0
  -28.7930  -29.8180   25.0160 C   0  0  0  0  0  1  0  0  0  0  0  0
  -23.6190  -24.3810   20.5660 C   0  0  0  0  0  2  0  0  0  0  0  0
  -24.5720  -24.0720   19.3800 C   0  0  0  0  0  2  0  0  0  0  0  0
  -24.5640  -22.6020   18.9040 C   0  0  0  0  0  2  0  0  0  0  0  0
  -25.8110  -22.2040   18.0810 C   0  0  0  0  0  2  0  0  0  0  0  0
  -26.3570  -20.8930   18.5090 N   0  0  0  0  0  4  0  0  0  0  0  0
  -26.0730  -20.1780   17.8570 H   0  0  0  0  0  0  0  0  0  0  0  0
  -25.9230  -20.6760   19.3900 H   0  0  0  0  0  0  0  0  0  0  0  0
  -27.8310  -20.8700   18.6900 C   0  0  0  0  0  2  0  0  0  0  0  0
  -28.3230  -19.6530   19.5020 C   0  0  0  0  0  2  0  0  0  0  0  0
  -29.6410  -19.8890   20.2740 C   0  0  0  0  0  2  0  0  0  0  0  0
  -30.9810  -17.8230   20.5850 C   0  0  0  0  0  0  0  0  0  0  0  0
  -31.4030  -15.4670   19.9840 C   0  0  0  0  0  2  0  0  0  0  0  0
  -30.6690  -15.1490   18.6650 C   0  0  0  0  0  2  0  0  0  0  0  0
  -29.2010  -14.7560   18.9300 C   0  0  0  0  0  2  0  0  0  0  0  0
  -28.4620  -15.7460   19.8660 C   0  0  0  0  0  3  0  0  0  0  0  0
  -29.3270  -16.0040   21.1230 C   0  0  0  0  0  2  0  0  0  0  0  0
  -30.6440  -16.5130   20.6890 N   0  0  0  0  0  0  0  0  0  0  0  0
  -32.0280  -18.2320   20.0770 O   0  0  0  0  0  0  0  0  0  0  0  0
  -30.0040  -18.6510   20.9570 N   0  0  0  0  0  0  0  0  0  0  0  0
  -29.2680  -18.2070   21.4860 H   0  0  0  0  0  0  0  0  0  0  0  0
  -25.9320  -15.9600   20.3300 C   0  0  0  0  0  0  0  0  0  0  0  0
  -24.9670  -15.0260   20.5790 C   0  0  0  0  0  0  0  0  0  0  0  0
  -25.6390  -13.7640   20.5950 C   0  0  0  0  0  0  0  0  0  0  0  0
  -27.1260  -15.2620   20.2060 N   0  0  0  0  0  0  0  0  0  0  0  0
  -26.9430  -13.9360   20.4230 N   0  0  0  0  0  0  0  0  0  0  0  0
  -25.1070  -12.4020   20.7090 C   0  0  0  0  0  0  0  0  0  0  0  0
  -25.3970  -11.5840   21.8250 C   0  0  0  0  0  3  0  0  0  0  0  0
  -24.8560  -10.2800   21.9180 C   0  0  0  0  0  3  0  0  0  0  0  0
  -24.0140   -9.7850   20.8970 C   0  0  0  0  0  0  0  0  0  0  0  0
  -23.7510  -10.5950   19.7760 C   0  0  0  0  0  3  0  0  0  0  0  0
  -24.2920  -11.8860   19.6820 C   0  0  0  0  0  3  0  0  0  0  0  0
  -23.4670   -8.5240   20.8930 O   0  0  0  0  0  0  0  0  0  0  0  0
  -22.8820   -7.9910   22.0140 C   0  0  0  0  0  0  0  0  0  0  0  0
  -21.7520   -8.5860   22.6160 C   0  0  0  0  0  3  0  0  0  0  0  0
  -21.1370   -7.9700   23.7240 C   0  0  0  0  0  3  0  0  0  0  0  0
  -21.6440   -6.7570   24.2270 C   0  0  0  0  0  0  0  0  0  0  0  0
  -22.7650   -6.1590   23.6250 C   0  0  0  0  0  3  0  0  0  0  0  0
  -23.3820   -6.7730   22.5190 C   0  0  0  0  0  0  0  0  0  0  0  0
  -24.4500   -6.1830   21.9340 F   0  0  0  0  0  0  0  0  0  0  0  0
  -21.0440   -6.1600   25.2840 F   0  0  0  0  0  0  0  0  0  0  0  0
  -23.4880  -15.2680   20.6870 C   0  0  0  0  0  0  0  0  0  0  0  0
  -22.7730  -14.4310   21.4300 N   0  0  0  0  0  0  0  0  0  0  0  0
  -22.9630  -16.2440   20.1460 O   0  0  0  0  0  0  0  0  0  0  0  0
  -23.2000  -13.6440   21.9010 H   0  0  0  0  0  0  0  0  0  0  0  0
  -21.7810  -14.5930   21.5380 H   0  0  0  0  0  0  0  0  0  0  0  0
  -25.8950  -17.3410   20.1610 N   0  0  0  0  0  0  0  0  0  0  0  0
  -25.0030  -17.8220   20.1050 H   0  0  0  0  0  0  0  0  0  0  0  0
  -26.6550  -17.8050   19.6890 H   0  0  0  0  0  0  0  0  0  0  0  0
  1  3  2  0
  2  4  1  0
  2  1  1  0
  5  6  2  0
  5  1  1  0
  7  6  1  0
  8  7  1  0
  9 10  1  0
  9  8  1  0
 11  9  1  0
 12  9  1  0
 13 12  1  0
 14 13  1  0
 14 16  1  0
 15 26  2  0
 16 21  1  0
 17 25  1  0
 17 27  1  0
 18 20  1  0
 18 24  1  0
 19 25  1  0
 20 19  1  0
 21 20  2  0
 22 16  2  0
 22 23  1  0
 23 18  2  0
 24 17  1  0
 25 15  1  0
 27 29  2  0
 28 27  1  0
 30 28  1  0
 31 36  1  0
 32 28  1  0
 33 32  1  0
 34 35  1  0
 34 33  1  0
 35 31  1  0
 36 32  1  0
 36 37  2  0
 38 37  1  0
 39 38  2  0
 40 31  2  0
 40 39  1  0
 41 15  1  0
 41 42  1  0
 41 51  1  0
 42 45  1  0
 43 42  1  0
 43 47  1  0
 44 43  2  0
 47 46  1  0
 47 49  1  0
 49 50  1  0
 49 48  1  0
 51 54  1  1
 51 52  1  0
 53 51  1  0
 55  2  1  0
 56 55  1  0
 57 56  1  0
 58 59  1  0
 58 57  1  0
 59 62  1  0
 59 61  1  0
 60 59  1  0
 62 63  1  0
 63 64  1  0
 64 73  1  0
 65 71  1  0
 65 73  1  0
 66 71  1  0
 67 68  1  0
 67 66  1  0
 69 68  1  0
 69 78  1  0
 69 70  1  0
 71 70  1  0
 72 65  2  0
 73 74  1  0
 75 76  2  0
 76 77  1  0
 76 95  1  0
 77 80  1  0
 78 75  1  0
 78 79  1  0
 79 77  2  0
 80 81  1  0
 81 82  2  0
 83 82  1  0
 84 83  2  0
 85 84  1  0
 85 80  2  0
 86 83  1  0
 86 87  1  0
 87 92  2  0
 87 88  1  0
 88 89  2  0
 89 90  1  0
 90 94  1  0
 91 90  2  0
 92 91  1  0
 93 92  1  0
 95 96  1  0
 96 99  1  0
 96 98  1  0
 97 95  2  0
100 75  1  0
101100  1  0
102100  1  0
M  ISO  4  13 101  14 101  65 100  73 100
M  END
>  <TORSDO>  (75) 
F 30

>  <SCORE>  (75) 
-2.388

>  <name>  (75) 
75

>  <ligand_id>  (75) 
75

>  <original_smiles>  (75) 
[H]C(C(=O)N([H])C([H])([H])C([H])([H])C([H])([H])C([H])([H])[N+]([H])([H])C([H])([H])C([H])([H])C([H])([H])N([H])C(=O)N1C([H])([H])C([H])([H])C([H])([H])C([H])(n2nc(-c3c([H])c([H])c(Oc4c([H])c([H])c(F)c([H])c4F)c([H])c3[H])c(C(=O)N([H])[H])c2N([H])[H])C1([H])[H])=C([H])C([H])([H])C([H])([H])[N+]([H])([H])C([H])([H])C([H])([H])Oc1c([H])c([H])c2c(c1[H])C([H])([H])N(C(=O)C([H])(N([H])C(=O)C([H])(N([H])C([H])([H])[H])C([H])([H])[H])C(C([H])([H])[H])(C([H])([H])[H])C([H])([H])[H])C([H])(C(=O)N([H])C1([H])c3c([H])c([H])c([H])c([H])c3C([H])([H])C([H])([H])C1([H])[H])C2([H])[H]

>  <smiles>  (75) 
[H]C(C(=O)N([H])C([H])([H])C([H])([H])C([H])([H])C([H])([H])[N+]([H])([H])C([H])([H])C([H])([H])C([H])([H])N([H])C(=O)N1C([H])([H])C([H])([H])C([H])([H])C([H])(n2nc(-c3c([H])c([H])c(Oc4c([H])c([H])c(F)c([H])c4F)c([H])c3[H])c(C(=O)N([H])[H])c2N([H])[H])C1([H])[H])=C([H])C([H])([H])C([H])([H])[N+]([H])([H])C([H])([H])C([H])([H])Oc1c([H])c([H])c2c(c1[H])C([H])([H])N(C(=O)C([H])(N([H])C(=O)C([H])(N([H])C([H])([H])[H])C([H])([H])[H])C(C([H])([H])[H])(C([H])([H])[H])C([H])([H])[H])C([H])(C(=O)N([H])C1([H])c3c([H])c([H])c([H])c([H])c3C([H])([H])C([H])([H])C1([H])[H])C2([H])[H]

$$$$
76:0:0
     RDKit          3D

 98105  0  0  1  0  0  0  0  0999 V2000
  -30.1010  -21.3100   23.5390 C   0  0  0  0  0  2  0  0  0  0  0  0
  -29.6200  -22.4790   22.6540 C   0  0  0  0  0  2  0  0  0  0  0  0
  -28.1900  -22.9470   22.9860 C   0  0  0  0  0  2  0  0  0  0  0  0
  -27.6020  -23.7410   21.8870 N   0  0  0  0  0  4  0  0  0  0  0  0
  -26.6040  -23.7730   22.0310 H   0  0  0  0  0  0  0  0  0  0  0  0
  -27.7470  -23.2460   21.0210 H   0  0  0  0  0  0  0  0  0  0  0  0
  -28.0810  -25.1380   21.7650 C   0  0  0  0  0  2  0  0  0  0  0  0
  -28.4190  -25.5060   20.3030 C   0  0  0  0  0  2  0  0  0  0  0  0
  -28.4480  -26.9250   20.1300 O   0  0  0  0  0  0  0  0  0  0  0  0
  -24.5840  -31.9820   23.2590 C   0  0  0  0  0  0  0  0  0  0  0  0
  -27.2450  -27.5950   20.1380 C   0  0  0  0  0  0  0  0  0  0  0  0
  -23.3750  -30.5680   21.6280 C   0  0  0  0  0  3  0  0  0  0  0  0
  -24.8260  -29.0540   20.1860 C   0  0  0  0  0  0  0  0  0  0  0  0
  -25.8910  -30.9630   21.4000 C   0  0  0  0  0  2  0  0  0  0  0  0
  -25.9820  -29.5960   20.7600 C   0  0  0  0  0  0  0  0  0  0  0  0
  -27.1940  -28.8730   20.7310 C   0  0  0  0  0  3  0  0  0  0  0  0
  -26.0690  -27.0610   19.5580 C   0  0  0  0  0  3  0  0  0  0  0  0
  -24.8640  -27.7860   19.5820 C   0  0  0  0  0  3  0  0  0  0  0  0
  -23.5730  -29.8960   20.2440 C   0  0  0  0  0  2  0  0  0  0  0  0
  -24.6360  -31.1850   22.1540 N   0  0  0  0  0  0  0  0  0  0  0  0
  -23.5050  -32.2400   23.8110 O   0  0  0  0  0  0  0  0  0  0  0  0
  -22.7490  -29.5380   22.5930 C   0  0  0  0  0  0  0  0  0  0  0  0
  -21.4280  -29.3310   22.4680 N   0  0  0  0  0  0  0  0  0  0  0  0
  -23.4470  -28.9250   23.4060 O   0  0  0  0  0  0  0  0  0  0  0  0
  -20.9270  -29.8810   21.7830 H   0  0  0  0  0  0  0  0  0  0  0  0
  -18.0800  -28.0700   22.9520 C   0  0  0  0  0  0  0  0  0  0  0  0
  -20.6290  -28.3810   23.2390 C   0  0  0  0  0  3  0  0  0  0  0  0
  -20.7660  -26.9500   22.6720 C   0  0  0  0  0  2  0  0  0  0  0  0
  -19.6770  -26.5970   21.6540 C   0  0  0  0  0  2  0  0  0  0  0  0
  -18.2880  -26.7190   22.2890 C   0  0  0  0  0  2  0  0  0  0  0  0
  -19.1800  -28.8570   23.3840 C   0  0  0  0  0  0  0  0  0  0  0  0
  -18.9320  -30.1210   23.9610 C   0  0  0  0  0  3  0  0  0  0  0  0
  -17.6170  -30.5960   24.1190 C   0  0  0  0  0  3  0  0  0  0  0  0
  -16.5300  -29.8070   23.7040 C   0  0  0  0  0  3  0  0  0  0  0  0
  -16.7630  -28.5460   23.1250 C   0  0  0  0  0  3  0  0  0  0  0  0
  -25.8700  -32.6240   23.8680 C   0  0  0  0  0  3  0  0  0  0  0  0
  -25.5560  -34.0220   24.1880 N   0  0  0  0  0  0  0  0  0  0  0  0
  -25.8830  -35.0700   23.4210 C   0  0  0  0  0  0  0  0  0  0  0  0
  -26.5530  -34.9630   22.3900 O   0  0  0  0  0  0  0  0  0  0  0  0
  -24.9590  -34.1830   24.9870 H   0  0  0  0  0  0  0  0  0  0  0  0
  -24.1420  -36.8480   23.0550 C   0  0  0  0  0  1  0  0  0  0  0  0
  -25.3870  -36.4580   23.8670 C   0  0  0  0  0  3  0  0  0  0  0  0
  -27.5190  -37.3590   24.6890 C   0  0  0  0  0  1  0  0  0  0  0  0
  -26.4140  -37.5160   23.7460 N   0  0  0  0  0  0  0  0  0  0  0  0
  -26.0020  -38.4340   23.8900 H   0  0  0  0  0  0  0  0  0  0  0  0
  -26.4020  -31.8630   25.1430 C   0  0  1  0  0  0  0  0  0  0  0  0
  -25.3220  -31.6280   26.2240 C   0  0  0  0  0  1  0  0  0  0  0  0
  -26.9880  -30.4870   24.7490 C   0  0  0  0  0  1  0  0  0  0  0  0
  -27.5530  -32.6680   25.7900 C   0  0  0  0  0  1  0  0  0  0  0  0
  -31.4820  -20.7640   23.1330 C   0  0  0  0  0  2  0  0  0  0  0  0
  -32.0380  -19.3180   21.1060 C   0  0  0  0  0  0  0  0  0  0  0  0
  -32.6710  -18.3530   21.7920 N   0  0  0  0  0  4  0  0  0  0  0  0
  -31.4950  -20.3920   21.7080 N   0  0  0  0  0  0  0  0  0  0  0  0
  -33.1570  -17.6020   21.3190 H   0  0  0  0  0  0  0  0  0  0  0  0
  -32.7910  -18.3850   22.7940 H   0  0  0  0  0  0  0  0  0  0  0  0
  -31.1300  -21.1120   21.1000 H   0  0  0  0  0  0  0  0  0  0  0  0
  -31.8960  -19.2160   19.6150 C   0  0  0  0  0  2  0  0  0  0  0  0
  -30.4440  -18.8510   19.2530 C   0  0  0  0  0  2  0  0  0  0  0  0
  -30.1550  -17.3580   19.3910 C   0  0  0  0  0  0  0  0  0  0  0  0
  -30.1040  -16.6650   18.3690 O   0  0  0  0  0  0  0  0  0  0  0  0
  -29.9220  -16.7960   20.7960 C   0  0  0  0  0  3  0  0  0  0  0  0
  -30.0730  -15.6210   21.3010 N   0  0  0  0  0  0  0  0  0  0  0  0
  -30.7230  -14.6520   20.5530 C   0  0  0  0  0  0  0  0  0  0  0  0
  -30.4260  -12.5180   19.3480 C   0  0  0  0  0  2  0  0  0  0  0  0
  -29.5020  -12.7150   18.1320 C   0  0  0  0  0  2  0  0  0  0  0  0
  -28.0240  -12.5510   18.5420 C   0  0  0  0  0  2  0  0  0  0  0  0
  -27.6560  -13.3930   19.7930 C   0  0  0  0  0  3  0  0  0  0  0  0
  -28.6950  -13.1910   20.9180 C   0  0  0  0  0  2  0  0  0  0  0  0
  -30.0290  -13.4970   20.3700 N   0  0  0  0  0  0  0  0  0  0  0  0
  -31.8140  -14.8410   20.0070 O   0  0  0  0  0  0  0  0  0  0  0  0
  -25.2320  -13.9670   20.4490 C   0  0  0  0  0  0  0  0  0  0  0  0
  -24.1720  -13.1800   20.8100 C   0  0  0  0  0  0  0  0  0  0  0  0
  -24.6580  -11.8370   20.8060 C   0  0  0  0  0  0  0  0  0  0  0  0
  -26.2980  -13.1030   20.2510 N   0  0  0  0  0  0  0  0  0  0  0  0
  -25.9540  -11.8180   20.5220 N   0  0  0  0  0  0  0  0  0  0  0  0
  -23.9510  -10.5630   21.0030 C   0  0  0  0  0  0  0  0  0  0  0  0
  -24.3950   -9.6140   21.9520 C   0  0  0  0  0  3  0  0  0  0  0  0
  -23.6910   -8.4060   22.1380 C   0  0  0  0  0  3  0  0  0  0  0  0
  -22.5290   -8.1360   21.3770 C   0  0  0  0  0  0  0  0  0  0  0  0
  -22.1040   -9.0740   20.4190 C   0  0  0  0  0  3  0  0  0  0  0  0
  -22.8090  -10.2760   20.2310 C   0  0  0  0  0  3  0  0  0  0  0  0
  -21.7960   -6.9790   21.4710 O   0  0  0  0  0  0  0  0  0  0  0  0
  -21.7620   -6.2400   22.6270 C   0  0  0  0  0  0  0  0  0  0  0  0
  -21.3400   -6.7970   23.8540 C   0  0  0  0  0  3  0  0  0  0  0  0
  -21.2550   -5.9840   25.0030 C   0  0  0  0  0  3  0  0  0  0  0  0
  -21.5780   -4.6160   24.9250 C   0  0  0  0  0  0  0  0  0  0  0  0
  -21.9920   -4.0590   23.7020 C   0  0  0  0  0  3  0  0  0  0  0  0
  -22.0820   -4.8700   22.5560 C   0  0  0  0  0  0  0  0  0  0  0  0
  -22.4610   -4.3230   21.3760 F   0  0  0  0  0  0  0  0  0  0  0  0
  -21.4900   -3.8340   26.0260 F   0  0  0  0  0  0  0  0  0  0  0  0
  -22.7610  -13.6330   21.0530 C   0  0  0  0  0  0  0  0  0  0  0  0
  -22.0350  -12.9370   21.9220 N   0  0  0  0  0  0  0  0  0  0  0  0
  -22.3100  -14.6380   20.5080 O   0  0  0  0  0  0  0  0  0  0  0  0
  -22.4130  -12.1230   22.3840 H   0  0  0  0  0  0  0  0  0  0  0  0
  -21.0880  -13.2230   22.1290 H   0  0  0  0  0  0  0  0  0  0  0  0
  -25.3760  -15.3370   20.2560 N   0  0  0  0  0  0  0  0  0  0  0  0
  -24.6020  -15.9860   20.3560 H   0  0  0  0  0  0  0  0  0  0  0  0
  -26.2360  -15.7850   19.9650 H   0  0  0  0  0  0  0  0  0  0  0  0
  2  3  1  0
  2  1  1  0
  4  5  1  0
  4  3  1  0
  6  4  1  0
  7  4  1  0
  8  7  1  0
  9 11  1  0
  9  8  1  0
 10 21  2  0
 11 16  1  0
 12 20  1  0
 12 22  1  0
 13 19  1  0
 13 15  1  0
 14 20  1  0
 15 14  1  0
 16 15  2  0
 17 18  1  0
 17 11  2  0
 18 13  2  0
 19 12  1  0
 20 10  1  0
 22 24  2  0
 23 22  1  0
 25 23  1  0
 26 35  2  0
 26 31  1  0
 27 23  1  0
 27 31  1  0
 28 27  1  0
 29 30  1  0
 29 28  1  0
 30 26  1  0
 31 32  2  0
 32 33  1  0
 34 33  2  0
 35 34  1  0
 36 10  1  0
 36 37  1  0
 36 46  1  0
 37 40  1  0
 38 42  1  0
 38 37  1  0
 39 38  2  0
 42 41  1  0
 44 42  1  0
 44 45  1  0
 44 43  1  0
 46 49  1  1
 46 47  1  0
 48 46  1  0
 50  1  1  0
 51 53  1  0
 51 52  2  0
 52 55  1  0
 53 50  1  0
 54 52  1  0
 56 53  1  0
 57 51  1  0
 58 59  1  0
 58 57  1  0
 59 61  1  0
 60 59  2  0
 61 62  2  0
 63 62  1  0
 64 69  1  0
 65 66  1  0
 65 64  1  0
 67 66  1  0
 67 74  1  0
 67 68  1  0
 69 63  1  0
 69 68  1  0
 70 63  2  0
 71 72  2  0
 72 91  1  0
 73 72  1  0
 73 76  1  0
 74 71  1  0
 74 75  1  0
 75 73  2  0
 76 77  1  0
 77 78  2  0
 79 82  1  0
 79 78  1  0
 80 79  2  0
 81 80  1  0
 81 76  2  0
 82 83  1  0
 83 84  1  0
 84 85  2  0
 86 85  1  0
 86 90  1  0
 87 86  2  0
 88 83  2  0
 88 87  1  0
 89 88  1  0
 91 92  1  0
 92 95  1  0
 92 94  1  0
 93 91  2  0
 96 97  1  0
 96 71  1  0
 98 96  1  0
M  ISO  4   8 101   9 101  62 100  63 100
M  END
>  <TORSDO>  (76) 
F 27

>  <SCORE>  (76) 
-10.827

>  <name>  (76) 
76

>  <ligand_id>  (76) 
76

>  <original_smiles>  (76) 
[H]C(=NC(=O)N1C([H])([H])C([H])([H])C([H])([H])C([H])(n2nc(-c3c([H])c([H])c(Oc4c([H])c([H])c(F)c([H])c4F)c([H])c3[H])c(C(=O)N([H])[H])c2N([H])[H])C1([H])[H])C(=O)C([H])([H])C([H])([H])C(N([H])[H])=[N+]([H])C([H])([H])C([H])([H])C([H])([H])C([H])([H])[N+]([H])([H])C([H])([H])C([H])([H])Oc1c([H])c([H])c2c(c1[H])C([H])([H])N(C(=O)C([H])(N([H])C(=O)C([H])(N([H])C([H])([H])[H])C([H])([H])[H])C(C([H])([H])[H])(C([H])([H])[H])C([H])([H])[H])C([H])(C(=O)N([H])C1([H])c3c([H])c([H])c([H])c([H])c3C([H])([H])C([H])([H])C1([H])[H])C2([H])[H]

>  <smiles>  (76) 
[H]C(=NC(=O)N1C([H])([H])C([H])([H])C([H])([H])C([H])(n2nc(-c3c([H])c([H])c(Oc4c([H])c([H])c(F)c([H])c4F)c([H])c3[H])c(C(=O)N([H])[H])c2N([H])[H])C1([H])[H])C(=O)C([H])([H])C([H])([H])C(N([H])[H])=[N+]([H])C([H])([H])C([H])([H])C([H])([H])C([H])([H])[N+]([H])([H])C([H])([H])C([H])([H])Oc1c([H])c([H])c2c(c1[H])C([H])([H])N(C(=O)C([H])(N([H])C(=O)C([H])(N([H])C([H])([H])[H])C([H])([H])[H])C(C([H])([H])[H])(C([H])([H])[H])C([H])([H])[H])C([H])(C(=O)N([H])C1([H])c3c([H])c([H])c([H])c([H])c3C([H])([H])C([H])([H])C1([H])[H])C2([H])[H]

$$$$
77:0:0
     RDKit          3D

102111  0  0  1  0  0  0  0  0999 V2000
  -33.3200  -20.3240   22.4200 C   0  0  0  0  0  2  0  0  0  0  0  0
  -31.9250  -19.9580   22.1590 N   0  0  0  0  0  0  0  0  0  0  0  0
  -31.2280  -20.4520   22.7120 H   0  0  0  0  0  0  0  0  0  0  0  0
  -27.8700  -18.3700   19.5060 C   0  0  0  0  0  3  0  0  0  0  0  0
  -28.2910  -19.6200   19.9880 C   0  0  0  0  0  3  0  0  0  0  0  0
  -28.6490  -17.2270   19.7530 C   0  0  0  0  0  3  0  0  0  0  0  0
  -29.4930  -19.7250   20.7100 C   0  0  0  0  0  3  0  0  0  0  0  0
  -31.8510  -16.2740   21.4470 C   0  0  0  0  0  3  0  0  0  0  0  0
  -32.2820  -17.5250   21.9190 C   0  0  0  0  0  3  0  0  0  0  0  0
  -29.8610  -17.3140   20.4850 C   0  0  0  0  0  0  0  0  0  0  0  0
  -30.2950  -18.5820   20.9680 C   0  0  0  0  0  0  0  0  0  0  0  0
  -30.6420  -16.1560   20.7300 C   0  0  0  0  0  0  0  0  0  0  0  0
  -31.5170  -18.6930   21.6910 C   0  0  0  0  0  0  0  0  0  0  0  0
  -30.4280  -14.1210   19.2750 C   0  0  0  0  0  0  0  0  0  0  0  0
  -29.9010  -11.9640   18.1850 C   0  0  0  0  0  2  0  0  0  0  0  0
  -28.7350  -12.0890   17.1870 C   0  0  0  0  0  2  0  0  0  0  0  0
  -27.3760  -11.9500   17.9000 C   0  0  0  0  0  2  0  0  0  0  0  0
  -27.2690  -12.8540   19.1550 C   0  0  0  0  0  3  0  0  0  0  0  0
  -28.5110  -12.6750   20.0520 C   0  0  0  0  0  2  0  0  0  0  0  0
  -29.7150  -12.9640   19.2450 N   0  0  0  0  0  0  0  0  0  0  0  0
  -31.2830  -14.4150   18.4310 O   0  0  0  0  0  0  0  0  0  0  0  0
  -30.1350  -14.8910   20.3310 N   0  0  0  0  0  0  0  0  0  0  0  0
  -29.3750  -14.5360   20.8880 H   0  0  0  0  0  0  0  0  0  0  0  0
  -25.0970  -13.5040   20.3820 C   0  0  0  0  0  0  0  0  0  0  0  0
  -24.0970  -12.7470   20.9300 C   0  0  0  0  0  0  0  0  0  0  0  0
  -24.4810  -11.3850   20.7340 C   0  0  0  0  0  0  0  0  0  0  0  0
  -26.0310  -12.6030   19.8910 N   0  0  0  0  0  0  0  0  0  0  0  0
  -25.6730  -11.3200   20.1560 N   0  0  0  0  0  0  0  0  0  0  0  0
  -23.7560  -10.1370   21.0120 C   0  0  0  0  0  0  0  0  0  0  0  0
  -24.3140   -9.1260   21.8260 C   0  0  0  0  0  3  0  0  0  0  0  0
  -23.5920   -7.9430   22.0920 C   0  0  0  0  0  3  0  0  0  0  0  0
  -22.2990   -7.7630   21.5450 C   0  0  0  0  0  0  0  0  0  0  0  0
  -21.7590   -8.7620   20.7180 C   0  0  0  0  0  3  0  0  0  0  0  0
  -22.4810   -9.9370   20.4490 C   0  0  0  0  0  3  0  0  0  0  0  0
  -21.5350   -6.6360   21.7290 O   0  0  0  0  0  0  0  0  0  0  0  0
  -21.5570   -5.9360   22.9080 C   0  0  0  0  0  0  0  0  0  0  0  0
  -21.2460   -6.5450   24.1440 C   0  0  0  0  0  3  0  0  0  0  0  0
  -21.2100   -5.7720   25.3210 C   0  0  0  0  0  3  0  0  0  0  0  0
  -21.4780   -4.3910   25.2660 C   0  0  0  0  0  0  0  0  0  0  0  0
  -21.7830   -3.7820   24.0370 C   0  0  0  0  0  3  0  0  0  0  0  0
  -21.8190   -4.5520   22.8600 C   0  0  0  0  0  0  0  0  0  0  0  0
  -22.0920   -3.9540   21.6750 F   0  0  0  0  0  0  0  0  0  0  0  0
  -21.4370   -3.6460   26.3960 F   0  0  0  0  0  0  0  0  0  0  0  0
  -22.8100  -13.2510   21.5170 C   0  0  0  0  0  0  0  0  0  0  0  0
  -22.2660  -12.5430   22.5010 N   0  0  0  0  0  0  0  0  0  0  0  0
  -22.3050  -14.3070   21.1390 O   0  0  0  0  0  0  0  0  0  0  0  0
  -22.6920  -11.6880   22.8260 H   0  0  0  0  0  0  0  0  0  0  0  0
  -21.4110  -12.8610   22.9350 H   0  0  0  0  0  0  0  0  0  0  0  0
  -25.2820  -14.8760   20.2410 N   0  0  0  0  0  0  0  0  0  0  0  0
  -24.5800  -15.5470   20.5350 H   0  0  0  0  0  0  0  0  0  0  0  0
  -26.0550  -15.3020   19.7470 H   0  0  0  0  0  0  0  0  0  0  0  0
  -33.7680  -21.4370   21.4640 C   0  0  0  0  0  2  0  0  0  0  0  0
  -32.7220  -21.6400   20.4470 N   0  0  0  0  0  4  0  0  0  0  0  0
  -31.8820  -21.2780   20.8760 H   0  0  0  0  0  0  0  0  0  0  0  0
  -32.9250  -21.0620   19.6500 H   0  0  0  0  0  0  0  0  0  0  0  0
  -32.5090  -23.0360   20.0210 C   0  0  0  0  0  2  0  0  0  0  0  0
  -31.1190  -23.2030   19.3780 C   0  0  0  0  0  2  0  0  0  0  0  0
  -30.7400  -24.6100   19.2790 N   0  0  0  0  0  0  0  0  0  0  0  0
  -31.4050  -25.1010   18.6870 H   0  0  0  0  0  0  0  0  0  0  0  0
  -29.4110  -24.7100   18.6850 C   0  0  0  0  0  2  0  0  0  0  0  0
  -28.8710  -26.1480   18.7270 C   0  0  0  0  0  2  0  0  0  0  0  0
  -27.6070  -26.1030   18.0810 O   0  0  0  0  0  0  0  0  0  0  0  0
  -25.1010  -30.7200   22.9360 C   0  0  0  0  0  0  0  0  0  0  0  0
  -26.6400  -26.9840   18.5000 C   0  0  0  0  0  0  0  0  0  0  0  0
  -23.5300  -30.0430   21.1490 C   0  0  0  0  0  3  0  0  0  0  0  0
  -24.5590  -28.7570   19.2020 C   0  0  0  0  0  0  0  0  0  0  0  0
  -26.0520  -30.0480   20.7380 C   0  0  0  0  0  2  0  0  0  0  0  0
  -25.8340  -28.9110   19.7650 C   0  0  0  0  0  0  0  0  0  0  0  0
  -26.8780  -28.0250   19.4270 C   0  0  0  0  0  3  0  0  0  0  0  0
  -25.3580  -26.8470   17.9330 C   0  0  0  0  0  3  0  0  0  0  0  0
  -24.3120  -27.7190   18.2870 C   0  0  0  0  0  3  0  0  0  0  0  0
  -23.5010  -29.7490   19.6250 C   0  0  0  0  0  2  0  0  0  0  0  0
  -24.9190  -30.2630   21.6660 N   0  0  0  0  0  0  0  0  0  0  0  0
  -24.1360  -31.0020   23.6590 O   0  0  0  0  0  0  0  0  0  0  0  0
  -22.7780  -28.9090   21.8810 C   0  0  0  0  0  0  0  0  0  0  0  0
  -21.4370  -28.9690   21.8580 N   0  0  0  0  0  0  0  0  0  0  0  0
  -23.3960  -27.9910   22.4280 O   0  0  0  0  0  0  0  0  0  0  0  0
  -21.0070  -29.7570   21.3950 H   0  0  0  0  0  0  0  0  0  0  0  0
  -17.9480  -28.2060   22.3830 C   0  0  0  0  0  0  0  0  0  0  0  0
  -20.5230  -27.9950   22.4490 C   0  0  0  0  0  3  0  0  0  0  0  0
  -20.3450  -26.7680   21.5240 C   0  0  0  0  0  2  0  0  0  0  0  0
  -19.1460  -26.8950   20.5800 C   0  0  0  0  0  2  0  0  0  0  0  0
  -17.8500  -27.0710   21.3780 C   0  0  0  0  0  2  0  0  0  0  0  0
  -19.2040  -28.6500   22.8750 C   0  0  0  0  0  0  0  0  0  0  0  0
  -19.2410  -29.7320   23.7810 C   0  0  0  0  0  3  0  0  0  0  0  0
  -18.0540  -30.3630   24.1990 C   0  0  0  0  0  3  0  0  0  0  0  0
  -16.8130  -29.9080   23.7220 C   0  0  0  0  0  3  0  0  0  0  0  0
  -16.7620  -28.8310   22.8190 C   0  0  0  0  0  3  0  0  0  0  0  0
  -26.5280  -30.9360   23.5310 C   0  0  0  0  0  3  0  0  0  0  0  0
  -27.0670  -29.6880   24.3310 C   0  0  1  0  0  0  0  0  0  0  0  0
  -26.0810  -29.1680   25.4030 C   0  0  0  0  0  1  0  0  0  0  0  0
  -27.3860  -28.5180   23.3710 C   0  0  0  0  0  1  0  0  0  0  0  0
  -28.3940  -30.0520   25.0390 C   0  0  0  0  0  1  0  0  0  0  0  0
  -26.4700  -32.1240   24.3920 N   0  0  0  0  0  0  0  0  0  0  0  0
  -27.0080  -33.3110   24.0840 C   0  0  0  0  0  0  0  0  0  0  0  0
  -27.6720  -33.5020   23.0620 O   0  0  0  0  0  0  0  0  0  0  0  0
  -25.8910  -32.0570   25.2160 H   0  0  0  0  0  0  0  0  0  0  0  0
  -25.7000  -35.4200   24.4960 C   0  0  0  0  0  1  0  0  0  0  0  0
  -26.7690  -34.4740   25.0650 C   0  0  0  0  0  3  0  0  0  0  0  0
  -28.9590  -34.4860   26.1780 C   0  0  0  0  0  1  0  0  0  0  0  0
  -27.9950  -35.2400   25.3810 N   0  0  0  0  0  0  0  0  0  0  0  0
  -27.7650  -36.0920   25.8840 H   0  0  0  0  0  0  0  0  0  0  0  0
  2  1  1  0
  2  3  1  0
  4  6  2  0
  4  5  1  0
  5  7  2  0
  6 10  1  0
  7 11  1  0
  8  9  1  0
 10 12  1  0
 10 11  2  0
 11 13  1  0
 12  8  2  0
 13  9  2  0
 13  2  1  0
 14 22  1  0
 15 20  1  0
 16 17  1  0
 16 15  1  0
 18 17  1  0
 18 27  1  0
 18 19  1  0
 20 14  1  0
 20 19  1  0
 21 14  2  0
 22 12  1  0
 22 23  1  0
 24 25  2  0
 25 44  1  0
 26 25  1  0
 26 29  1  0
 27 28  1  0
 27 24  1  0
 28 26  2  0
 29 30  1  0
 30 31  2  0
 32 35  1  0
 32 31  1  0
 33 32  2  0
 34 33  1  0
 34 29  2  0
 35 36  1  0
 36 37  1  0
 37 38  2  0
 39 38  1  0
 39 43  1  0
 40 39  2  0
 41 36  2  0
 41 40  1  0
 42 41  1  0
 44 45  1  0
 45 47  1  0
 45 48  1  0
 46 44  2  0
 49 24  1  0
 49 50  1  0
 51 49  1  0
 52  1  1  0
 53 54  1  0
 53 52  1  0
 55 53  1  0
 56 53  1  0
 57 56  1  0
 58 57  1  0
 59 58  1  0
 60 61  1  0
 60 58  1  0
 62 64  1  0
 62 61  1  0
 63 74  2  0
 64 69  1  0
 65 73  1  0
 65 75  1  0
 66 72  1  0
 66 68  1  0
 67 73  1  0
 68 67  1  0
 69 68  2  0
 70 71  1  0
 70 64  2  0
 71 66  2  0
 72 65  1  0
 73 63  1  0
 75 77  2  0
 76 75  1  0
 78 76  1  0
 79 88  2  0
 79 84  1  0
 80 76  1  0
 80 84  1  0
 81 80  1  0
 82 83  1  0
 82 81  1  0
 83 79  1  0
 84 85  2  0
 85 86  1  0
 87 86  2  0
 88 87  1  0
 89 63  1  0
 89 90  1  0
 89 94  1  0
 90 93  1  1
 90 91  1  0
 92 90  1  0
 94 97  1  0
 95 94  1  0
 95 99  1  0
 96 95  2  0
 99 98  1  0
 99101  1  0
101102  1  0
101100  1  0
M  ISO  4  14 100  22 100  61 101  62 101
M  END
>  <TORSDO>  (77) 
F 25

>  <SCORE>  (77) 
-8.097

>  <name>  (77) 
77

>  <ligand_id>  (77) 
77

>  <original_smiles>  (77) 
[H]c1c([H])c([H])c2c(c1[H])C([H])([H])C([H])([H])C([H])([H])C2([H])N([H])C(=O)C1([H])N(C(=O)C([H])(N([H])C(=O)C([H])(N([H])C([H])([H])[H])C([H])([H])[H])C(C([H])([H])[H])(C([H])([H])[H])C([H])([H])[H])C([H])([H])c2c([H])c(OC([H])([H])C([H])([H])N([H])C([H])([H])C([H])([H])[N+]([H])([H])C([H])([H])C([H])([H])N([H])c3c([H])c([H])c(N([H])C(=O)N4C([H])([H])C([H])([H])C([H])([H])C([H])(n5nc(-c6c([H])c([H])c(Oc7c([H])c([H])c(F)c([H])c7F)c([H])c6[H])c(C(=O)N([H])[H])c5N([H])[H])C4([H])[H])c4c([H])c([H])c([H])c([H])c34)c([H])c([H])c2C1([H])[H]

>  <smiles>  (77) 
[H]c1c([H])c([H])c2c(c1[H])C([H])([H])C([H])([H])C([H])([H])C2([H])N([H])C(=O)C1([H])N(C(=O)C([H])(N([H])C(=O)C([H])(N([H])C([H])([H])[H])C([H])([H])[H])C(C([H])([H])[H])(C([H])([H])[H])C([H])([H])[H])C([H])([H])c2c([H])c(OC([H])([H])C([H])([H])N([H])C([H])([H])C([H])([H])[N+]([H])([H])C([H])([H])C([H])([H])N([H])c3c([H])c([H])c(N([H])C(=O)N4C([H])([H])C([H])([H])C([H])([H])C([H])(n5nc(-c6c([H])c([H])c(Oc7c([H])c([H])c(F)c([H])c7F)c([H])c6[H])c(C(=O)N([H])[H])c5N([H])[H])C4([H])[H])c4c([H])c([H])c([H])c([H])c34)c([H])c([H])c2C1([H])[H]

$$$$
78:0:0
     RDKit          3D

 99106  0  0  1  0  0  0  0  0999 V2000
  -31.0290  -21.5980   23.0780 C   0  0  0  0  0  2  0  0  0  0  0  0
  -32.2710  -21.8220   23.8540 N   0  0  0  0  0  4  0  0  0  0  0  0
  -32.0460  -21.8530   24.8360 H   0  0  0  0  0  0  0  0  0  0  0  0
  -32.6610  -22.7110   23.5890 H   0  0  0  0  0  0  0  0  0  0  0  0
  -34.2940  -20.7450   24.8400 C   0  0  0  0  0  1  0  0  0  0  0  0
  -33.3200  -20.7970   23.6480 C   0  0  0  0  0  3  0  0  0  0  0  0
  -32.6990  -19.4140   23.4010 C   0  0  0  0  0  0  0  0  0  0  0  0
  -32.8060  -18.9160   22.1660 N   0  0  0  0  0  0  0  0  0  0  0  0
  -32.1100  -18.8270   24.3110 O   0  0  0  0  0  0  0  0  0  0  0  0
  -33.3380  -19.4480   21.4890 H   0  0  0  0  0  0  0  0  0  0  0  0
  -32.1890  -17.6870   21.6850 C   0  0  0  0  0  2  0  0  0  0  0  0
  -32.0690  -17.6910   20.1460 C   0  0  0  0  0  2  0  0  0  0  0  0
  -32.9720  -16.1360   18.4280 C   0  0  0  0  0  0  0  0  0  0  0  0
  -32.7730  -13.7770   17.7490 C   0  0  0  0  0  2  0  0  0  0  0  0
  -31.6630  -13.5210   16.7140 C   0  0  0  0  0  2  0  0  0  0  0  0
  -30.3050  -13.3060   17.4030 C   0  0  0  0  0  2  0  0  0  0  0  0
  -29.9890  -14.4150   18.4380 C   0  0  0  0  0  3  0  0  0  0  0  0
  -31.1880  -14.6230   19.3870 C   0  0  0  0  0  2  0  0  0  0  0  0
  -32.3920  -14.9200   18.5940 N   0  0  0  0  0  0  0  0  0  0  0  0
  -33.6970  -16.4140   17.4710 O   0  0  0  0  0  0  0  0  0  0  0  0
  -33.1060  -16.8600   19.5450 N   0  0  0  0  0  0  0  0  0  0  0  0
  -33.9940  -17.3390   19.5450 H   0  0  0  0  0  0  0  0  0  0  0  0
  -27.6490  -14.9160   19.3960 C   0  0  0  0  0  0  0  0  0  0  0  0
  -26.7600  -14.1390   20.0890 C   0  0  0  0  0  0  0  0  0  0  0  0
  -27.3930  -12.8690   20.2540 C   0  0  0  0  0  0  0  0  0  0  0  0
  -28.7630  -14.1180   19.1770 N   0  0  0  0  0  0  0  0  0  0  0  0
  -28.6170  -12.8950   19.7440 N   0  0  0  0  0  0  0  0  0  0  0  0
  -26.8800  -11.6130   20.8130 C   0  0  0  0  0  0  0  0  0  0  0  0
  -26.9590  -11.3350   22.1960 C   0  0  0  0  0  3  0  0  0  0  0  0
  -26.4450  -10.1260   22.7130 C   0  0  0  0  0  3  0  0  0  0  0  0
  -25.8430   -9.1840   21.8470 C   0  0  0  0  0  0  0  0  0  0  0  0
  -25.7890   -9.4540   20.4680 C   0  0  0  0  0  3  0  0  0  0  0  0
  -26.3050  -10.6550   19.9540 C   0  0  0  0  0  3  0  0  0  0  0  0
  -25.3390   -7.9730   22.2570 O   0  0  0  0  0  0  0  0  0  0  0  0
  -24.1080   -7.8690   22.8530 C   0  0  0  0  0  0  0  0  0  0  0  0
  -22.9480   -8.4200   22.2680 C   0  0  0  0  0  3  0  0  0  0  0  0
  -21.6920   -8.2300   22.8790 C   0  0  0  0  0  3  0  0  0  0  0  0
  -21.5940   -7.4840   24.0680 C   0  0  0  0  0  0  0  0  0  0  0  0
  -22.7470   -6.9290   24.6500 C   0  0  0  0  0  3  0  0  0  0  0  0
  -24.0000   -7.1190   24.0420 C   0  0  0  0  0  0  0  0  0  0  0  0
  -25.1050   -6.5640   24.5950 F   0  0  0  0  0  0  0  0  0  0  0  0
  -20.3860   -7.2960   24.6530 F   0  0  0  0  0  0  0  0  0  0  0  0
  -25.3630  -14.5150   20.4910 C   0  0  0  0  0  0  0  0  0  0  0  0
  -24.9150  -14.0580   21.6550 N   0  0  0  0  0  0  0  0  0  0  0  0
  -24.6740  -15.2580   19.7920 O   0  0  0  0  0  0  0  0  0  0  0  0
  -25.4850  -13.4620   22.2360 H   0  0  0  0  0  0  0  0  0  0  0  0
  -23.9860  -14.3040   21.9690 H   0  0  0  0  0  0  0  0  0  0  0  0
  -27.5980  -16.2230   18.9160 N   0  0  0  0  0  0  0  0  0  0  0  0
  -26.7760  -16.8070   19.0190 H   0  0  0  0  0  0  0  0  0  0  0  0
  -28.3270  -16.6570   18.3650 H   0  0  0  0  0  0  0  0  0  0  0  0
  -30.3700  -22.9060   22.6130 C   0  0  0  0  0  2  0  0  0  0  0  0
  -29.7800  -22.7650   21.1970 C   0  0  0  0  0  2  0  0  0  0  0  0
  -28.9330  -23.9760   20.7780 C   0  0  0  0  0  2  0  0  0  0  0  0
  -28.7860  -24.0680   19.3110 N   0  0  0  0  0  4  0  0  0  0  0  0
  -28.2670  -23.2640   18.9900 H   0  0  0  0  0  0  0  0  0  0  0  0
  -29.7000  -24.0250   18.8870 H   0  0  0  0  0  0  0  0  0  0  0  0
  -28.1070  -25.3070   18.8690 C   0  0  0  0  0  2  0  0  0  0  0  0
  -28.0600  -25.4490   17.3360 C   0  0  0  0  0  2  0  0  0  0  0  0
  -27.7040  -26.7810   16.9710 O   0  0  0  0  0  0  0  0  0  0  0  0
  -25.8100  -29.9110   23.0430 C   0  0  0  0  0  0  0  0  0  0  0  0
  -26.6870  -27.4170   17.6490 C   0  0  0  0  0  0  0  0  0  0  0  0
  -23.9780  -29.5390   21.4220 C   0  0  0  0  0  3  0  0  0  0  0  0
  -24.6960  -28.8150   19.0860 C   0  0  0  0  0  0  0  0  0  0  0  0
  -26.3840  -29.8390   20.6180 C   0  0  0  0  0  2  0  0  0  0  0  0
  -26.0430  -28.9400   19.4510 C   0  0  0  0  0  0  0  0  0  0  0  0
  -27.0380  -28.2460   18.7340 C   0  0  0  0  0  3  0  0  0  0  0  0
  -25.3220  -27.2980   17.2910 C   0  0  0  0  0  3  0  0  0  0  0  0
  -24.3300  -27.9920   18.0060 C   0  0  0  0  0  3  0  0  0  0  0  0
  -23.6910  -29.6010   19.8970 C   0  0  0  0  0  2  0  0  0  0  0  0
  -25.4270  -29.7440   21.7440 N   0  0  0  0  0  0  0  0  0  0  0  0
  -24.9750  -29.9380   23.9580 O   0  0  0  0  0  0  0  0  0  0  0  0
  -23.4090  -28.2130   21.9760 C   0  0  0  0  0  0  0  0  0  0  0  0
  -22.0860  -28.0280   21.8370 N   0  0  0  0  0  0  0  0  0  0  0  0
  -24.1510  -27.3710   22.4880 O   0  0  0  0  0  0  0  0  0  0  0  0
  -21.5440  -28.7710   21.4160 H   0  0  0  0  0  0  0  0  0  0  0  0
  -18.8530  -26.4310   21.6690 C   0  0  0  0  0  0  0  0  0  0  0  0
  -21.3370  -26.8410   22.2490 C   0  0  0  0  0  3  0  0  0  0  0  0
  -21.6470  -25.6410   21.3240 C   0  0  0  0  0  2  0  0  0  0  0  0
  -20.6610  -25.5090   20.1600 C   0  0  0  0  0  2  0  0  0  0  0  0
  -19.2310  -25.3420   20.6810 C   0  0  0  0  0  2  0  0  0  0  0  0
  -19.8420  -27.1460   22.3940 C   0  0  0  0  0  0  0  0  0  0  0  0
  -19.4380  -28.1730   23.2760 C   0  0  0  0  0  3  0  0  0  0  0  0
  -18.0770  -28.4870   23.4390 C   0  0  0  0  0  3  0  0  0  0  0  0
  -17.0980  -27.7650   22.7330 C   0  0  0  0  0  3  0  0  0  0  0  0
  -17.4880  -26.7380   21.8540 C   0  0  0  0  0  3  0  0  0  0  0  0
  -27.3080  -30.0990   23.4370 C   0  0  0  0  0  3  0  0  0  0  0  0
  -27.3750  -31.1960   24.4110 N   0  0  0  0  0  0  0  0  0  0  0  0
  -27.8370  -32.4250   24.1420 C   0  0  0  0  0  0  0  0  0  0  0  0
  -28.3230  -32.7330   23.0500 O   0  0  0  0  0  0  0  0  0  0  0  0
  -26.9450  -31.0320   25.3090 H   0  0  0  0  0  0  0  0  0  0  0  0
  -26.5980  -34.4560   24.9550 C   0  0  0  0  0  1  0  0  0  0  0  0
  -27.7450  -33.4800   25.2620 C   0  0  0  0  0  3  0  0  0  0  0  0
  -30.0720  -33.4240   26.0380 C   0  0  0  0  0  1  0  0  0  0  0  0
  -29.0000  -34.2340   25.4650 N   0  0  0  0  0  0  0  0  0  0  0  0
  -28.8490  -35.0330   26.0740 H   0  0  0  0  0  0  0  0  0  0  0  0
  -27.9660  -28.7890   24.0230 C   0  0  1  0  0  0  0  0  0  0  0  0
  -27.1370  -28.1290   25.1490 C   0  0  0  0  0  1  0  0  0  0  0  0
  -28.1690  -27.7410   22.9050 C   0  0  0  0  0  1  0  0  0  0  0  0
  -29.3680  -29.1130   24.5870 C   0  0  0  0  0  1  0  0  0  0  0  0
  1  2  1  0
  2  3  1  0
  4  2  1  0
  6  2  1  0
  6  5  1  0
  7  6  1  0
  7  9  2  0
  8  7  1  0
 10  8  1  0
 11  8  1  0
 12 11  1  0
 13 19  1  0
 13 21  1  0
 14 19  1  0
 15 16  1  0
 15 14  1  0
 17 16  1  0
 17 26  1  0
 17 18  1  0
 19 18  1  0
 20 13  2  0
 21 12  1  0
 22 21  1  0
 23 24  2  0
 24 25  1  0
 24 43  1  0
 25 28  1  0
 26 23  1  0
 26 27  1  0
 27 25  2  0
 28 29  1  0
 29 30  2  0
 31 34  1  0
 31 30  1  0
 32 31  2  0
 33 32  1  0
 33 28  2  0
 34 35  1  0
 35 40  1  0
 36 35  2  0
 36 37  1  0
 37 38  2  0
 38 39  1  0
 38 42  1  0
 40 41  1  0
 40 39  2  0
 43 44  1  0
 44 47  1  0
 44 46  1  0
 45 43  2  0
 48 49  1  0
 48 23  1  0
 50 48  1  0
 51  1  1  0
 52 51  1  0
 53 52  1  0
 54 53  1  0
 55 54  1  0
 56 54  1  0
 57 54  1  0
 58 57  1  0
 59 58  1  0
 59 61  1  0
 60 71  2  0
 61 66  1  0
 62 70  1  0
 62 72  1  0
 63 65  1  0
 63 69  1  0
 64 70  1  0
 65 64  1  0
 66 65  2  0
 67 61  2  0
 67 68  1  0
 68 63  2  0
 69 62  1  0
 70 60  1  0
 72 74  2  0
 73 72  1  0
 75 73  1  0
 76 85  2  0
 76 81  1  0
 77 73  1  0
 77 81  1  0
 78 77  1  0
 79 80  1  0
 79 78  1  0
 80 76  1  0
 81 82  2  0
 82 83  1  0
 84 83  2  0
 85 84  1  0
 86 60  1  0
 86 96  1  0
 86 87  1  0
 87 90  1  0
 88 87  1  0
 88 92  1  0
 89 88  2  0
 92 91  1  0
 92 94  1  0
 94 93  1  0
 94 95  1  0
 96 99  1  1
 96 97  1  0
 98 96  1  0
M  ISO  4  13 100  21 100  58 101  59 101
M  END
>  <TORSDO>  (78) 
F 27

>  <SCORE>  (78) 
4.349

>  <name>  (78) 
78

>  <ligand_id>  (78) 
78

>  <original_smiles>  (78) 
[H]c1c([H])c([H])c2c(c1[H])C([H])([H])C([H])([H])C([H])([H])C2([H])N([H])C(=O)C1([H])N(C(=O)C([H])(N([H])C(=O)C([H])(N([H])C([H])([H])[H])C([H])([H])[H])C(C([H])([H])[H])(C([H])([H])[H])C([H])([H])[H])C([H])([H])c2c([H])c(OC([H])([H])C([H])([H])[N+]([H])([H])C([H])([H])C([H])([H])C([H])([H])C([H])([H])[N+]([H])([H])C([H])(C(=O)N([H])C([H])([H])C([H])([H])N([H])C(=O)N3C([H])([H])C([H])([H])C([H])([H])C([H])(n4nc(-c5c([H])c([H])c(Oc6c([H])c([H])c(F)c([H])c6F)c([H])c5[H])c(C(=O)N([H])[H])c4N([H])[H])C3([H])[H])C([H])([H])[H])c([H])c([H])c2C1([H])[H]

>  <smiles>  (78) 
[H]c1c([H])c([H])c2c(c1[H])C([H])([H])C([H])([H])C([H])([H])C2([H])N([H])C(=O)C1([H])N(C(=O)C([H])(N([H])C(=O)C([H])(N([H])C([H])([H])[H])C([H])([H])[H])C(C([H])([H])[H])(C([H])([H])[H])C([H])([H])[H])C([H])([H])c2c([H])c(OC([H])([H])C([H])([H])[N+]([H])([H])C([H])([H])C([H])([H])C([H])([H])C([H])([H])[N+]([H])([H])C([H])(C(=O)N([H])C([H])([H])C([H])([H])N([H])C(=O)N3C([H])([H])C([H])([H])C([H])([H])C([H])(n4nc(-c5c([H])c([H])c(Oc6c([H])c([H])c(F)c([H])c6F)c([H])c5[H])c(C(=O)N([H])[H])c4N([H])[H])C3([H])[H])C([H])([H])[H])c([H])c([H])c2C1([H])[H]

$$$$
79:0:0
     RDKit          3D

 97104  0  0  1  0  0  0  0  0999 V2000
  -26.4930  -20.7730   19.8640 N   0  0  0  0  0  4  0  0  0  0  0  0
  -27.2460  -21.0890   20.4570 H   0  0  0  0  0  0  0  0  0  0  0  0
  -25.9110  -20.1640   20.4180 H   0  0  0  0  0  0  0  0  0  0  0  0
  -25.6670  -21.9360   19.4590 C   0  0  0  0  0  2  0  0  0  0  0  0
  -26.5170  -23.0730   18.8770 C   0  0  0  0  0  2  0  0  0  0  0  0
  -27.1570  -23.7250   19.9640 O   0  0  0  0  0  0  0  0  0  0  0  0
  -28.2950  -24.4800   19.5730 C   0  0  0  0  0  2  0  0  0  0  0  0
  -28.6050  -25.5330   20.6520 C   0  0  0  0  0  2  0  0  0  0  0  0
  -28.5890  -26.8640   20.1450 O   0  0  0  0  0  0  0  0  0  0  0  0
  -24.7020  -31.8410   23.3890 C   0  0  0  0  0  0  0  0  0  0  0  0
  -27.3900  -27.5360   20.1870 C   0  0  0  0  0  0  0  0  0  0  0  0
  -23.5190  -30.5170   21.6660 C   0  0  0  0  0  3  0  0  0  0  0  0
  -24.9900  -29.0240   20.2170 C   0  0  0  0  0  0  0  0  0  0  0  0
  -26.0460  -30.8760   21.5260 C   0  0  0  0  0  2  0  0  0  0  0  0
  -26.1380  -29.5310   20.8370 C   0  0  0  0  0  0  0  0  0  0  0  0
  -27.3420  -28.7990   20.8100 C   0  0  0  0  0  3  0  0  0  0  0  0
  -26.2210  -27.0230   19.5810 C   0  0  0  0  0  3  0  0  0  0  0  0
  -25.0250  -27.7650   19.5890 C   0  0  0  0  0  3  0  0  0  0  0  0
  -23.7500  -29.8860   20.2670 C   0  0  0  0  0  2  0  0  0  0  0  0
  -24.7730  -31.0900   22.2530 N   0  0  0  0  0  0  0  0  0  0  0  0
  -23.6120  -32.0950   23.9200 O   0  0  0  0  0  0  0  0  0  0  0  0
  -22.8440  -29.4630   22.5710 C   0  0  0  0  0  0  0  0  0  0  0  0
  -21.5260  -29.2810   22.3910 N   0  0  0  0  0  0  0  0  0  0  0  0
  -23.5040  -28.8130   23.3860 O   0  0  0  0  0  0  0  0  0  0  0  0
  -21.0580  -29.8570   21.7050 H   0  0  0  0  0  0  0  0  0  0  0  0
  -18.1480  -28.0420   22.7150 C   0  0  0  0  0  0  0  0  0  0  0  0
  -20.6890  -28.3130   23.0990 C   0  0  0  0  0  3  0  0  0  0  0  0
  -20.8300  -26.9010   22.4860 C   0  0  0  0  0  2  0  0  0  0  0  0
  -19.7750  -26.6000   21.4170 C   0  0  0  0  0  2  0  0  0  0  0  0
  -18.3670  -26.7140   22.0100 C   0  0  0  0  0  2  0  0  0  0  0  0
  -19.2400  -28.8000   23.2130 C   0  0  0  0  0  0  0  0  0  0  0  0
  -18.9850  -30.0460   23.8280 C   0  0  0  0  0  3  0  0  0  0  0  0
  -17.6690  -30.5310   23.9520 C   0  0  0  0  0  3  0  0  0  0  0  0
  -16.5910  -29.7670   23.4730 C   0  0  0  0  0  3  0  0  0  0  0  0
  -16.8310  -28.5240   22.8620 C   0  0  0  0  0  3  0  0  0  0  0  0
  -25.9810  -32.4330   24.0610 C   0  0  0  0  0  3  0  0  0  0  0  0
  -26.4690  -31.6030   25.3110 C   0  0  1  0  0  0  0  0  0  0  0  0
  -25.3550  -31.3200   26.3450 C   0  0  0  0  0  1  0  0  0  0  0  0
  -27.0550  -30.2430   24.8660 C   0  0  0  0  0  1  0  0  0  0  0  0
  -27.6070  -32.3620   26.0330 C   0  0  0  0  0  1  0  0  0  0  0  0
  -25.6770  -33.8190   24.4420 N   0  0  0  0  0  0  0  0  0  0  0  0
  -26.0310  -34.8970   23.7300 C   0  0  0  0  0  0  0  0  0  0  0  0
  -26.7210  -34.8290   22.7080 O   0  0  0  0  0  0  0  0  0  0  0  0
  -25.0660  -33.9460   25.2360 H   0  0  0  0  0  0  0  0  0  0  0  0
  -24.3190  -36.7120   23.4150 C   0  0  0  0  0  1  0  0  0  0  0  0
  -25.5440  -36.2700   24.2320 C   0  0  0  0  0  3  0  0  0  0  0  0
  -27.6690  -37.1080   25.1320 C   0  0  0  0  0  1  0  0  0  0  0  0
  -26.5850  -37.3190   24.1760 N   0  0  0  0  0  0  0  0  0  0  0  0
  -26.1820  -38.2360   24.3500 H   0  0  0  0  0  0  0  0  0  0  0  0
  -27.0350  -19.9850   18.7340 C   0  0  0  0  0  2  0  0  0  0  0  0
  -27.2950  -18.5180   19.1110 C   0  0  0  0  0  2  0  0  0  0  0  0
  -29.4800  -17.3440   18.9450 C   0  0  0  0  0  0  0  0  0  0  0  0
  -28.6800  -18.2570   19.5130 N   0  0  0  0  0  0  0  0  0  0  0  0
  -29.1210  -16.6980   17.9590 O   0  0  0  0  0  0  0  0  0  0  0  0
  -29.0360  -18.7280   20.3340 H   0  0  0  0  0  0  0  0  0  0  0  0
  -30.8730  -17.0620   19.5500 C   0  0  0  0  0  3  0  0  0  0  0  0
  -31.4570  -14.6590   19.6990 C   0  0  0  0  0  0  0  0  0  0  0  0
  -31.1740  -12.2970   19.0660 C   0  0  0  0  0  2  0  0  0  0  0  0
  -30.2140  -12.2170   17.8620 C   0  0  0  0  0  2  0  0  0  0  0  0
  -28.7530  -12.1350   18.3460 C   0  0  0  0  0  2  0  0  0  0  0  0
  -28.4130  -13.2430   19.3800 C   0  0  0  0  0  3  0  0  0  0  0  0
  -29.4860  -13.3050   20.4950 C   0  0  0  0  0  2  0  0  0  0  0  0
  -30.8050  -13.4790   19.8590 N   0  0  0  0  0  0  0  0  0  0  0  0
  -32.5200  -14.7710   19.0820 O   0  0  0  0  0  0  0  0  0  0  0  0
  -30.7910  -15.7260   20.1470 N   0  0  0  0  0  0  0  0  0  0  0  0
  -29.9340  -15.5230   20.6360 H   0  0  0  0  0  0  0  0  0  0  0  0
  -26.1040  -14.0170   20.2220 C   0  0  0  0  0  0  0  0  0  0  0  0
  -25.0030  -13.3180   20.6420 C   0  0  0  0  0  0  0  0  0  0  0  0
  -25.3620  -11.9370   20.5670 C   0  0  0  0  0  0  0  0  0  0  0  0
  -27.0700  -13.0650   19.9280 N   0  0  0  0  0  0  0  0  0  0  0  0
  -26.6270  -11.8070   20.1880 N   0  0  0  0  0  0  0  0  0  0  0  0
  -24.5580  -10.7280   20.7860 C   0  0  0  0  0  0  0  0  0  0  0  0
  -24.9230   -9.7660   21.7520 C   0  0  0  0  0  3  0  0  0  0  0  0
  -24.1280   -8.6180   21.9560 C   0  0  0  0  0  3  0  0  0  0  0  0
  -22.9510   -8.4260   21.1920 C   0  0  0  0  0  0  0  0  0  0  0  0
  -22.6030   -9.3770   20.2160 C   0  0  0  0  0  3  0  0  0  0  0  0
  -23.4000  -10.5170   20.0120 C   0  0  0  0  0  3  0  0  0  0  0  0
  -22.1310   -7.3280   21.3000 O   0  0  0  0  0  0  0  0  0  0  0  0
  -21.9520   -6.6790   22.4930 C   0  0  0  0  0  0  0  0  0  0  0  0
  -21.4520   -7.3430   23.6350 C   0  0  0  0  0  3  0  0  0  0  0  0
  -21.2170   -6.6220   24.8220 C   0  0  0  0  0  3  0  0  0  0  0  0
  -21.4710   -5.2380   24.8680 C   0  0  0  0  0  0  0  0  0  0  0  0
  -21.9650   -4.5740   23.7310 C   0  0  0  0  0  3  0  0  0  0  0  0
  -22.2010   -5.2920   22.5470 C   0  0  0  0  0  0  0  0  0  0  0  0
  -22.6550   -4.6430   21.4470 F   0  0  0  0  0  0  0  0  0  0  0  0
  -21.2400   -4.5440   26.0070 F   0  0  0  0  0  0  0  0  0  0  0  0
  -23.6620  -13.8890   21.0040 C   0  0  0  0  0  0  0  0  0  0  0  0
  -22.9450  -13.2460   21.9190 N   0  0  0  0  0  0  0  0  0  0  0  0
  -23.2610  -14.9410   20.5080 O   0  0  0  0  0  0  0  0  0  0  0  0
  -23.2840  -12.3950   22.3460 H   0  0  0  0  0  0  0  0  0  0  0  0
  -22.0450  -13.6090   22.1960 H   0  0  0  0  0  0  0  0  0  0  0  0
  -26.3630  -15.3740   20.0520 N   0  0  0  0  0  0  0  0  0  0  0  0
  -25.6370  -16.0730   20.1660 H   0  0  0  0  0  0  0  0  0  0  0  0
  -27.2370  -15.7530   19.7160 H   0  0  0  0  0  0  0  0  0  0  0  0
  -30.7590  -17.9380   22.0260 C   0  0  0  0  0  1  0  0  0  0  0  0
  -32.8940  -18.0850   20.6920 C   0  0  0  0  0  1  0  0  0  0  0  0
  -31.3580  -18.0990   20.6090 C   0  0  0  0  0  3  0  0  0  0  0  0
  1  3  1  0
  1  2  1  0
  4  1  1  0
  5  4  1  0
  5  6  1  0
  7  6  1  0
  7  8  1  0
  9 11  1  0
  9  8  1  0
 10 21  2  0
 11 16  1  0
 12 20  1  0
 12 22  1  0
 13 19  1  0
 13 15  1  0
 14 20  1  0
 15 14  1  0
 16 15  2  0
 17 18  1  0
 17 11  2  0
 18 13  2  0
 19 12  1  0
 20 10  1  0
 22 24  2  0
 23 22  1  0
 25 23  1  0
 26 35  2  0
 26 31  1  0
 27 23  1  0
 27 31  1  0
 28 27  1  0
 29 30  1  0
 29 28  1  0
 30 26  1  0
 31 32  2  0
 32 33  1  0
 34 33  2  0
 35 34  1  0
 36 10  1  0
 36 41  1  0
 36 37  1  0
 37 40  1  1
 37 38  1  0
 39 37  1  0
 41 44  1  0
 42 46  1  0
 42 41  1  0
 43 42  2  0
 46 45  1  0
 48 46  1  0
 48 49  1  0
 48 47  1  0
 50 51  1  0
 50  1  1  0
 51 53  1  0
 52 53  1  0
 53 55  1  0
 54 52  2  0
 56 52  1  0
 56 65  1  0
 56 97  1  0
 57 63  1  0
 57 65  1  0
 58 63  1  0
 59 60  1  0
 59 58  1  0
 61 60  1  0
 61 70  1  0
 61 62  1  0
 63 62  1  0
 64 57  2  0
 65 66  1  0
 67 68  2  0
 68 87  1  0
 69 68  1  0
 69 72  1  0
 70 71  1  0
 70 67  1  0
 71 69  2  0
 72 73  1  0
 73 74  2  0
 75 78  1  0
 75 74  1  0
 76 75  2  0
 77 76  1  0
 77 72  2  0
 78 79  1  0
 79 84  2  0
 79 80  1  0
 80 81  2  0
 81 82  1  0
 82 86  1  0
 83 82  2  0
 84 83  1  0
 85 84  1  0
 87 88  1  0
 88 91  1  0
 88 90  1  0
 89 87  2  0
 92 93  1  0
 92 67  1  0
 94 92  1  0
 97 96  1  0
 97 95  1  0
M  ISO  4   8 101   9 101  57 100  65 100
M  END
>  <TORSDO>  (79) 
F 26

>  <SCORE>  (79) 
-9.904

>  <name>  (79) 
79

>  <ligand_id>  (79) 
79

>  <original_smiles>  (79) 
[H]c1c([H])c([H])c2c(c1[H])C([H])([H])C([H])([H])C([H])([H])C2([H])N([H])C(=O)C1([H])N(C(=O)C([H])(N([H])C(=O)C([H])(N([H])C([H])([H])[H])C([H])([H])[H])C(C([H])([H])[H])(C([H])([H])[H])C([H])([H])[H])C([H])([H])c2c([H])c(OC([H])([H])C([H])([H])OC([H])([H])C([H])([H])[N+]([H])([H])C([H])([H])C([H])([H])N([H])C(=O)C([H])(N([H])C(=O)N3C([H])([H])C([H])([H])C([H])([H])C([H])(n4nc(-c5c([H])c([H])c(Oc6c([H])c([H])c(F)c([H])c6F)c([H])c5[H])c(C(=O)N([H])[H])c4N([H])[H])C3([H])[H])C([H])(C([H])([H])[H])C([H])([H])[H])c([H])c([H])c2C1([H])[H]

>  <smiles>  (79) 
[H]c1c([H])c([H])c2c(c1[H])C([H])([H])C([H])([H])C([H])([H])C2([H])N([H])C(=O)C1([H])N(C(=O)C([H])(N([H])C(=O)C([H])(N([H])C([H])([H])[H])C([H])([H])[H])C(C([H])([H])[H])(C([H])([H])[H])C([H])([H])[H])C([H])([H])c2c([H])c(OC([H])([H])C([H])([H])OC([H])([H])C([H])([H])[N+]([H])([H])C([H])([H])C([H])([H])N([H])C(=O)C([H])(N([H])C(=O)N3C([H])([H])C([H])([H])C([H])([H])C([H])(n4nc(-c5c([H])c([H])c(Oc6c([H])c([H])c(F)c([H])c6F)c([H])c5[H])c(C(=O)N([H])[H])c4N([H])[H])C3([H])[H])C([H])(C([H])([H])[H])C([H])([H])[H])c([H])c([H])c2C1([H])[H]

$$$$
80:0:0
     RDKit          3D

 96103  0  0  1  0  0  0  0  0999 V2000
  -33.2210  -24.6500   20.0530 C   0  0  0  0  0  2  0  0  0  0  0  0
  -33.4900  -23.6510   18.9060 C   0  0  0  0  0  2  0  0  0  0  0  0
  -32.4290  -21.5430   19.6390 C   0  0  0  0  0  0  0  0  0  0  0  0
  -33.5210  -22.2730   19.3870 N   0  0  0  0  0  0  0  0  0  0  0  0
  -31.2900  -21.9900   19.4730 O   0  0  0  0  0  0  0  0  0  0  0  0
  -34.4260  -21.8450   19.5370 H   0  0  0  0  0  0  0  0  0  0  0  0
  -31.7850  -19.3950   20.5680 C   0  0  0  0  0  3  0  0  0  0  0  0
  -32.7540  -20.2170   20.1290 C   0  0  0  0  0  3  0  0  0  0  0  0
  -32.0560  -18.0680   21.0770 C   0  0  0  0  0  3  0  0  0  0  0  0
  -31.0970  -17.2690   21.5730 C   0  0  0  0  0  3  0  0  0  0  0  0
  -31.3530  -15.8800   22.1200 C   0  0  0  0  0  2  0  0  0  0  0  0
  -30.7370  -14.3010   20.2940 C   0  0  0  0  0  0  0  0  0  0  0  0
  -30.2350  -12.3300   18.8980 C   0  0  0  0  0  2  0  0  0  0  0  0
  -29.2290  -12.6330   17.7750 C   0  0  0  0  0  2  0  0  0  0  0  0
  -27.7870  -12.4710   18.2830 C   0  0  0  0  0  2  0  0  0  0  0  0
  -27.5380  -13.2510   19.6010 C   0  0  0  0  0  3  0  0  0  0  0  0
  -28.6390  -12.9470   20.6400 C   0  0  0  0  0  2  0  0  0  0  0  0
  -29.9550  -13.2240   20.0320 N   0  0  0  0  0  0  0  0  0  0  0  0
  -31.6730  -14.6570   19.5710 O   0  0  0  0  0  0  0  0  0  0  0  0
  -30.5090  -14.8770   21.4800 N   0  0  0  0  0  0  0  0  0  0  0  0
  -29.7450  -14.4990   22.0210 H   0  0  0  0  0  0  0  0  0  0  0  0
  -25.1740  -13.8700   20.4170 C   0  0  0  0  0  0  0  0  0  0  0  0
  -24.1170  -13.1000   20.8280 C   0  0  0  0  0  0  0  0  0  0  0  0
  -24.5680  -11.7470   20.7630 C   0  0  0  0  0  0  0  0  0  0  0  0
  -26.2020  -12.9850   20.1340 N   0  0  0  0  0  0  0  0  0  0  0  0
  -25.8420  -11.7030   20.3940 N   0  0  0  0  0  0  0  0  0  0  0  0
  -23.8450  -10.4860   20.9720 C   0  0  0  0  0  0  0  0  0  0  0  0
  -24.2940   -9.5200   21.9000 C   0  0  0  0  0  3  0  0  0  0  0  0
  -23.5720   -8.3230   22.0950 C   0  0  0  0  0  3  0  0  0  0  0  0
  -22.3850   -8.0840   21.3630 C   0  0  0  0  0  0  0  0  0  0  0  0
  -21.9550   -9.0370   20.4240 C   0  0  0  0  0  3  0  0  0  0  0  0
  -22.6780  -10.2240   20.2270 C   0  0  0  0  0  3  0  0  0  0  0  0
  -21.6320   -6.9390   21.4680 O   0  0  0  0  0  0  0  0  0  0  0  0
  -21.5860   -6.2110   22.6290 C   0  0  0  0  0  0  0  0  0  0  0  0
  -21.1780   -6.7860   23.8530 C   0  0  0  0  0  3  0  0  0  0  0  0
  -21.0810   -5.9850   25.0090 C   0  0  0  0  0  3  0  0  0  0  0  0
  -21.3820   -4.6110   24.9410 C   0  0  0  0  0  0  0  0  0  0  0  0
  -21.7820   -4.0360   23.7220 C   0  0  0  0  0  3  0  0  0  0  0  0
  -21.8820   -4.8340   22.5690 C   0  0  0  0  0  0  0  0  0  0  0  0
  -22.2490   -4.2720   21.3920 F   0  0  0  0  0  0  0  0  0  0  0  0
  -21.2810   -3.8390   26.0490 F   0  0  0  0  0  0  0  0  0  0  0  0
  -22.7370  -13.5820   21.1710 C   0  0  0  0  0  0  0  0  0  0  0  0
  -22.0420  -12.8740   22.0550 N   0  0  0  0  0  0  0  0  0  0  0  0
  -22.2840  -14.6200   20.6900 O   0  0  0  0  0  0  0  0  0  0  0  0
  -22.4200  -12.0320   22.4640 H   0  0  0  0  0  0  0  0  0  0  0  0
  -21.1180  -13.1780   22.3260 H   0  0  0  0  0  0  0  0  0  0  0  0
  -25.3420  -15.2420   20.2460 N   0  0  0  0  0  0  0  0  0  0  0  0
  -24.5950  -15.9100   20.3980 H   0  0  0  0  0  0  0  0  0  0  0  0
  -26.1940  -15.6710   19.9080 H   0  0  0  0  0  0  0  0  0  0  0  0
  -32.5490  -25.9500   19.5780 C   0  0  0  0  0  2  0  0  0  0  0  0
  -31.0930  -25.7680   19.3830 N   0  0  0  0  0  4  0  0  0  0  0  0
  -30.6640  -25.5960   20.2800 H   0  0  0  0  0  0  0  0  0  0  0  0
  -30.9300  -24.9530   18.8130 H   0  0  0  0  0  0  0  0  0  0  0  0
  -30.4140  -26.9250   18.7630 C   0  0  0  0  0  2  0  0  0  0  0  0
  -28.8960  -26.7220   18.7140 C   0  0  0  0  0  2  0  0  0  0  0  0
  -28.3940  -26.8190   20.0470 O   0  0  0  0  0  0  0  0  0  0  0  0
  -24.5690  -31.8920   23.2470 C   0  0  0  0  0  0  0  0  0  0  0  0
  -27.2030  -27.4910   20.1290 C   0  0  0  0  0  0  0  0  0  0  0  0
  -23.3500  -30.4850   21.6140 C   0  0  0  0  0  3  0  0  0  0  0  0
  -24.7940  -28.9480   20.1840 C   0  0  0  0  0  0  0  0  0  0  0  0
  -25.8690  -30.8550   21.3950 C   0  0  0  0  0  2  0  0  0  0  0  0
  -25.9520  -29.4830   20.7650 C   0  0  0  0  0  0  0  0  0  0  0  0
  -27.1570  -28.7530   20.7520 C   0  0  0  0  0  3  0  0  0  0  0  0
  -26.0310  -26.9470   19.5620 C   0  0  0  0  0  3  0  0  0  0  0  0
  -24.8240  -27.6720   19.5900 C   0  0  0  0  0  3  0  0  0  0  0  0
  -23.5490  -29.8020   20.2340 C   0  0  0  0  0  2  0  0  0  0  0  0
  -24.6140  -31.0920   22.1440 N   0  0  0  0  0  0  0  0  0  0  0  0
  -23.4920  -32.1620   23.7970 O   0  0  0  0  0  0  0  0  0  0  0  0
  -22.7110  -29.4620   22.5800 C   0  0  0  0  0  0  0  0  0  0  0  0
  -21.3880  -29.2740   22.4590 N   0  0  0  0  0  0  0  0  0  0  0  0
  -23.4030  -28.8410   23.3910 O   0  0  0  0  0  0  0  0  0  0  0  0
  -20.8920  -29.8260   21.7740 H   0  0  0  0  0  0  0  0  0  0  0  0
  -18.0220  -28.0660   22.9690 C   0  0  0  0  0  0  0  0  0  0  0  0
  -20.5780  -28.3340   23.2360 C   0  0  0  0  0  3  0  0  0  0  0  0
  -20.6860  -26.9030   22.6640 C   0  0  0  0  0  2  0  0  0  0  0  0
  -19.5840  -26.5720   21.6540 C   0  0  0  0  0  2  0  0  0  0  0  0
  -18.2030  -26.7140   22.2990 C   0  0  0  0  0  2  0  0  0  0  0  0
  -19.1380  -28.8350   23.3940 C   0  0  0  0  0  0  0  0  0  0  0  0
  -18.9160  -30.1010   23.9770 C   0  0  0  0  0  3  0  0  0  0  0  0
  -17.6100  -30.5980   24.1420 C   0  0  0  0  0  3  0  0  0  0  0  0
  -16.5080  -29.8270   23.7360 C   0  0  0  0  0  3  0  0  0  0  0  0
  -16.7150  -28.5630   23.1540 C   0  0  0  0  0  3  0  0  0  0  0  0
  -25.8620  -32.5220   23.8540 C   0  0  0  0  0  3  0  0  0  0  0  0
  -26.3930  -31.7520   25.1250 C   0  0  1  0  0  0  0  0  0  0  0  0
  -25.3110  -31.5110   26.2020 C   0  0  0  0  0  1  0  0  0  0  0  0
  -26.9750  -30.3750   24.7250 C   0  0  0  0  0  1  0  0  0  0  0  0
  -27.5480  -32.5470   25.7780 C   0  0  0  0  0  1  0  0  0  0  0  0
  -25.5590  -33.9210   24.1810 N   0  0  0  0  0  0  0  0  0  0  0  0
  -25.8910  -34.9690   23.4150 C   0  0  0  0  0  0  0  0  0  0  0  0
  -26.5580  -34.8610   22.3820 O   0  0  0  0  0  0  0  0  0  0  0  0
  -24.9700  -34.0810   24.9850 H   0  0  0  0  0  0  0  0  0  0  0  0
  -24.1670  -36.7620   23.0530 C   0  0  0  0  0  1  0  0  0  0  0  0
  -25.4060  -36.3590   23.8670 C   0  0  0  0  0  3  0  0  0  0  0  0
  -27.5430  -37.2390   24.6960 C   0  0  0  0  0  1  0  0  0  0  0  0
  -26.4410  -37.4100   23.7530 N   0  0  0  0  0  0  0  0  0  0  0  0
  -26.0380  -38.3310   23.9020 H   0  0  0  0  0  0  0  0  0  0  0  0
  2  4  1  0
  2  1  1  0
  3  8  1  0
  4  6  1  0
  4  3  1  0
  5  3  2  0
  7  9  1  0
  8  7  2  0
  9 10  2  0
 10 11  1  0
 12 20  1  0
 13 18  1  0
 14 15  1  0
 14 13  1  0
 16 15  1  0
 16 25  1  0
 16 17  1  0
 18 12  1  0
 18 17  1  0
 19 12  2  0
 20 21  1  0
 20 11  1  0
 22 23  2  0
 23 42  1  0
 24 23  1  0
 24 27  1  0
 25 26  1  0
 25 22  1  0
 26 24  2  0
 27 28  1  0
 28 29  2  0
 30 33  1  0
 30 29  1  0
 31 30  2  0
 32 31  1  0
 32 27  2  0
 33 34  1  0
 34 35  1  0
 35 36  2  0
 37 36  1  0
 37 41  1  0
 38 37  2  0
 39 34  2  0
 39 38  1  0
 40 39  1  0
 42 43  1  0
 43 46  1  0
 43 45  1  0
 44 42  2  0
 47 48  1  0
 47 22  1  0
 49 47  1  0
 50  1  1  0
 51 50  1  0
 51 52  1  0
 53 51  1  0
 54 51  1  0
 55 54  1  0
 55 56  1  0
 56 58  1  0
 57 68  2  0
 58 63  1  0
 59 67  1  0
 59 69  1  0
 60 66  1  0
 60 62  1  0
 61 67  1  0
 62 61  1  0
 63 62  2  0
 64 65  1  0
 64 58  2  0
 65 60  2  0
 66 59  1  0
 67 57  1  0
 69 71  2  0
 70 69  1  0
 72 70  1  0
 73 82  2  0
 73 78  1  0
 74 70  1  0
 74 78  1  0
 75 74  1  0
 76 77  1  0
 76 75  1  0
 77 73  1  0
 78 79  2  0
 79 80  1  0
 81 80  2  0
 82 81  1  0
 83 57  1  0
 83 88  1  0
 83 84  1  0
 84 87  1  1
 84 85  1  0
 86 84  1  0
 88 91  1  0
 89 93  1  0
 89 88  1  0
 90 89  2  0
 93 92  1  0
 95 93  1  0
 95 96  1  0
 95 94  1  0
M  ISO  4  12 100  20 100  55 101  56 101
M  END
>  <TORSDO>  (80) 
F 25

>  <SCORE>  (80) 
-11.536

>  <name>  (80) 
80

>  <ligand_id>  (80) 
80

>  <original_smiles>  (80) 
[H]C(C(=O)N([H])C([H])([H])C([H])([H])C([H])([H])[N+]([H])([H])C([H])([H])C([H])([H])Oc1c([H])c([H])c2c(c1[H])C([H])([H])N(C(=O)C([H])(N([H])C(=O)C([H])(N([H])C([H])([H])[H])C([H])([H])[H])C(C([H])([H])[H])(C([H])([H])[H])C([H])([H])[H])C([H])(C(=O)N([H])C1([H])c3c([H])c([H])c([H])c([H])c3C([H])([H])C([H])([H])C1([H])[H])C2([H])[H])=C([H])C([H])=C([H])C([H])([H])N([H])C(=O)N1C([H])([H])C([H])([H])C([H])([H])C([H])(n2nc(-c3c([H])c([H])c(Oc4c([H])c([H])c(F)c([H])c4F)c([H])c3[H])c(C(=O)N([H])[H])c2N([H])[H])C1([H])[H]

>  <smiles>  (80) 
[H]C(C(=O)N([H])C([H])([H])C([H])([H])C([H])([H])[N+]([H])([H])C([H])([H])C([H])([H])Oc1c([H])c([H])c2c(c1[H])C([H])([H])N(C(=O)C([H])(N([H])C(=O)C([H])(N([H])C([H])([H])[H])C([H])([H])[H])C(C([H])([H])[H])(C([H])([H])[H])C([H])([H])[H])C([H])(C(=O)N([H])C1([H])c3c([H])c([H])c([H])c([H])c3C([H])([H])C([H])([H])C1([H])[H])C2([H])[H])=C([H])C([H])=C([H])C([H])([H])N([H])C(=O)N1C([H])([H])C([H])([H])C([H])([H])C([H])(n2nc(-c3c([H])c([H])c(Oc4c([H])c([H])c(F)c([H])c4F)c([H])c3[H])c(C(=O)N([H])[H])c2N([H])[H])C1([H])[H]

$$$$
82:0:0
     RDKit          3D

100105  0  0  1  0  0  0  0  0999 V2000
  -23.7860  -27.3420   24.5960 C   0  0  0  0  0  2  0  0  0  0  0  0
  -21.4800  -29.3910   23.2870 C   0  0  0  0  0  0  0  0  0  0  0  0
  -22.4890  -28.6800   24.3060 N   0  0  0  0  0  0  0  0  0  0  0  0
  -20.9410  -30.4260   23.7190 O   0  0  0  0  0  0  0  0  0  0  0  0
  -22.4000  -29.2210   25.1540 H   0  0  0  0  0  0  0  0  0  0  0  0
  -20.9660  -28.9100   21.6450 C   0  0  0  0  0  3  0  0  0  0  0  0
  -21.5240  -28.1420   20.3940 C   0  0  0  0  0  3  0  0  0  0  0  0
  -23.0560  -27.2050   19.7360 C   0  0  0  0  0  2  0  0  0  0  0  0
  -24.8540  -27.4430   19.6630 O   0  0  0  0  0  0  0  0  0  0  0  0
  -24.9150  -31.5690   23.2230 C   0  0  0  0  0  0  0  0  0  0  0  0
  -25.8100  -28.0780   18.8000 C   0  0  0  0  0  3  0  0  0  0  0  0
  -23.7200  -29.9750   21.7460 C   0  0  0  0  0  3  0  0  0  0  0  0
  -24.1860  -29.9700   19.3250 C   0  0  0  0  0  3  0  0  0  0  0  0
  -25.6880  -31.1810   20.8840 C   0  0  0  0  0  2  0  0  0  0  0  0
  -25.4790  -30.1670   19.7840 C   0  0  0  0  0  3  0  0  0  0  0  0
  -26.4300  -29.2360   19.3650 C   0  0  0  0  0  2  0  0  0  0  0  0
  -24.9720  -28.2930   17.7520 C   0  0  0  0  0  2  0  0  0  0  0  0
  -23.9600  -29.1890   18.1520 C   0  0  0  0  0  2  0  0  0  0  0  0
  -23.1750  -30.4000   20.3190 C   0  0  0  0  0  2  0  0  0  0  0  0
  -24.8180  -30.9040   22.0430 N   0  0  0  0  0  0  0  0  0  0  0  0
  -24.0590  -31.5480   24.1130 O   0  0  0  0  0  0  0  0  0  0  0  0
  -24.1650  -28.3470   22.1240 C   0  0  0  0  0  0  0  0  0  0  0  0
  -23.4260  -26.9830   22.0330 N   0  0  0  0  0  0  0  0  0  0  0  0
  -25.1390  -28.2960   22.8260 O   0  0  0  0  0  0  0  0  0  0  0  0
  -24.1580  -26.3460   22.3270 H   0  0  0  0  0  0  0  0  0  0  0  0
  -19.3090  -25.3780   21.9140 C   0  0  0  0  0  0  0  0  0  0  0  0
  -21.9480  -26.0930   22.3740 C   0  0  0  0  0  3  0  0  0  0  0  0
  -22.2420  -24.8110   21.7060 C   0  0  0  0  0  2  0  0  0  0  0  0
  -21.2450  -24.4920   20.6310 C   0  0  0  0  0  2  0  0  0  0  0  0
  -19.9080  -24.1720   21.2610 C   0  0  0  0  0  2  0  0  0  0  0  0
  -20.1960  -26.3290   22.5130 C   0  0  0  0  0  0  0  0  0  0  0  0
  -19.3640  -27.2620   23.2910 C   0  0  0  0  0  3  0  0  0  0  0  0
  -17.9580  -27.4040   23.2420 C   0  0  0  0  0  3  0  0  0  0  0  0
  -17.1820  -26.4740   22.5600 C   0  0  0  0  0  3  0  0  0  0  0  0
  -17.8880  -25.4260   21.9580 C   0  0  0  0  0  3  0  0  0  0  0  0
  -26.1910  -32.3970   23.4940 C   0  0  0  0  0  3  0  0  0  0  0  0
  -27.1670  -31.6480   24.4640 C   0  0  1  0  0  0  0  0  0  0  0  0
  -26.4980  -31.2470   25.8120 C   0  0  0  0  0  1  0  0  0  0  0  0
  -27.7900  -30.3840   23.8120 C   0  0  0  0  0  1  0  0  0  0  0  0
  -28.3680  -32.5800   24.7410 C   0  0  0  0  0  1  0  0  0  0  0  0
  -25.7790  -33.6940   24.0480 N   0  0  0  0  0  0  0  0  0  0  0  0
  -25.8630  -34.8580   23.3880 C   0  0  0  0  0  0  0  0  0  0  0  0
  -26.3540  -34.9580   22.2580 O   0  0  0  0  0  0  0  0  0  0  0  0
  -25.3300  -33.6810   24.9530 H   0  0  0  0  0  0  0  0  0  0  0  0
  -23.9690  -36.5180   23.4610 C   0  0  0  0  0  1  0  0  0  0  0  0
  -25.3190  -36.1200   24.0840 C   0  0  0  0  0  3  0  0  0  0  0  0
  -27.4630  -37.0380   24.8600 C   0  0  0  0  0  1  0  0  0  0  0  0
  -26.2640  -37.2640   24.0530 N   0  0  0  0  0  0  0  0  0  0  0  0
  -25.8130  -38.1080   24.3970 H   0  0  0  0  0  0  0  0  0  0  0  0
  -26.3760  -25.5880   22.8820 C   0  0  0  0  0  2  0  0  0  0  0  0
  -25.2450  -26.2080   23.8630 C   0  0  0  0  0  1  0  0  0  0  0  0
  -27.4270  -24.2590   22.3560 C   0  0  0  0  0  3  0  0  0  0  0  0
  -26.6380  -23.2530   21.8860 N   0  0  0  0  0  0  0  0  0  0  0  0
  -28.9650  -23.7140   22.1230 N   0  0  0  0  0  0  0  0  0  0  0  0
  -27.1060  -22.3770   21.7000 H   0  0  0  0  0  0  0  0  0  0  0  0
  -29.5920  -24.4410   22.4350 H   0  0  0  0  0  0  0  0  0  0  0  0
  -24.0750  -23.3400   22.3420 C   0  0  0  0  0  1  0  0  0  0  0  0
  -25.2570  -23.3460   21.3370 C   0  0  0  0  0  2  0  0  0  0  0  0
  -30.0420  -22.2720   21.4920 C   0  0  0  0  0  1  0  0  0  0  0  0
  -31.9660  -21.4670   21.3550 C   0  0  0  0  0  1  0  0  0  0  0  0
  -34.4610  -19.2330   20.6490 C   0  0  0  0  0  0  0  0  0  0  0  0
  -36.5310  -17.8430   19.4000 C   0  0  0  0  0  2  0  0  0  0  0  0
  -37.2360  -18.4170   18.1090 C   0  0  0  0  0  2  0  0  0  0  0  0
  -36.3470  -18.2950   16.8680 C   0  0  0  0  0  2  0  0  0  0  0  0
  -34.8850  -18.5570   17.2710 C   0  0  0  0  0  3  0  0  0  0  0  0
  -34.3820  -17.7530   18.4770 C   0  0  0  0  0  2  0  0  0  0  0  0
  -35.0520  -18.3180   19.6330 N   0  0  0  0  0  0  0  0  0  0  0  0
  -35.3970  -19.2900   21.4960 O   0  0  0  0  0  0  0  0  0  0  0  0
  -33.0380  -20.0570   20.6640 N   0  0  0  0  0  0  0  0  0  0  0  0
  -32.5110  -19.6730   19.8820 H   0  0  0  0  0  0  0  0  0  0  0  0
  -32.6710  -18.9430   16.1690 C   0  0  0  0  0  0  0  0  0  0  0  0
  -32.1610  -18.5750   14.9620 C   0  0  0  0  0  0  0  0  0  0  0  0
  -33.1810  -17.8090   14.3160 C   0  0  0  0  0  0  0  0  0  0  0  0
  -33.9480  -18.4280   16.1970 N   0  0  0  0  0  0  0  0  0  0  0  0
  -34.2370  -17.6760   15.1100 N   0  0  0  0  0  0  0  0  0  0  0  0
  -33.2340  -17.2500   12.9650 C   0  0  0  0  0  0  0  0  0  0  0  0
  -33.6620  -15.9270   12.7250 C   0  0  0  0  0  3  0  0  0  0  0  0
  -33.6770  -15.4120   11.4110 C   0  0  0  0  0  3  0  0  0  0  0  0
  -33.2670  -16.2240   10.3240 C   0  0  0  0  0  0  0  0  0  0  0  0
  -32.8650  -17.5490   10.5720 C   0  0  0  0  0  3  0  0  0  0  0  0
  -32.8550  -18.0600   11.8790 C   0  0  0  0  0  3  0  0  0  0  0  0
  -33.2740  -15.8200    9.0110 O   0  0  0  0  0  0  0  0  0  0  0  0
  -33.3460  -14.4940    8.6690 C   0  0  0  0  0  0  0  0  0  0  0  0
  -32.3450  -13.5720    9.0430 C   0  0  0  0  0  3  0  0  0  0  0  0
  -32.4240  -12.2340    8.6100 C   0  0  0  0  0  3  0  0  0  0  0  0
  -33.4940  -11.8200    7.7930 C   0  0  0  0  0  0  0  0  0  0  0  0
  -34.4890  -12.7380    7.4150 C   0  0  0  0  0  3  0  0  0  0  0  0
  -34.4110  -14.0740    7.8480 C   0  0  0  0  0  0  0  0  0  0  0  0
  -35.3610  -14.9610    7.4630 F   0  0  0  0  0  0  0  0  0  0  0  0
  -33.5650  -10.5350    7.3690 F   0  0  0  0  0  0  0  0  0  0  0  0
  -30.8330  -18.9980   14.4110 C   0  0  0  0  0  0  0  0  0  0  0  0
  -30.1890  -18.1290   13.6440 N   0  0  0  0  0  0  0  0  0  0  0  0
  -30.3400  -20.0840   14.7060 O   0  0  0  0  0  0  0  0  0  0  0  0
  -30.5860  -17.2270   13.4220 H   0  0  0  0  0  0  0  0  0  0  0  0
  -29.2780  -18.3650   13.2750 H   0  0  0  0  0  0  0  0  0  0  0  0
  -32.1730  -19.6810   17.2440 N   0  0  0  0  0  0  0  0  0  0  0  0
  -31.2480  -20.0970   17.2290 H   0  0  0  0  0  0  0  0  0  0  0  0
  -32.6970  -19.8990   18.0790 H   0  0  0  0  0  0  0  0  0  0  0  0
  -23.1960  -28.0780   27.0840 C   0  0  0  0  0  1  0  0  0  0  0  0
  -24.2730  -27.9510   25.9350 C   0  0  0  0  0  2  0  0  0  0  0  0
  1100  1  0
  2  4  2  0
  2  3  1  0
  3  1  1  0
  3  5  1  0
  6  2  1  0
  7  6  2  0
  8  7  1  0
  9  8  1  0
 10 21  2  0
 11 16  1  0
 11  9  1  0
 12 20  1  0
 12 22  1  0
 13 18  1  0
 13 15  1  0
 13 19  1  0
 14 20  1  0
 15 16  1  0
 15 14  1  0
 17 18  1  0
 17 11  1  0
 19 12  1  0
 20 10  1  0
 22 24  2  0
 23 22  1  0
 23 25  1  0
 26 35  2  0
 26 31  1  0
 27 23  1  0
 27 31  1  0
 28 27  1  0
 29 30  1  0
 29 28  1  0
 30 26  1  0
 31 32  2  0
 33 32  1  0
 34 33  2  0
 35 34  1  0
 36 10  1  0
 36 41  1  0
 36 37  1  0
 37 40  1  1
 37 38  1  0
 39 37  1  0
 41 44  1  0
 42 41  1  0
 42 46  1  0
 43 42  2  0
 46 45  1  0
 48 46  1  0
 48 49  1  0
 48 47  1  0
 50 51  1  0
 52 50  1  0
 53 52  1  0
 54 52  1  0
 54 56  1  0
 55 53  1  0
 58 53  1  0
 58 57  1  0
 59 54  1  0
 61 69  1  0
 61 68  2  0
 62 67  1  0
 63 62  1  0
 64 65  1  0
 64 63  1  0
 65 74  1  0
 65 66  1  0
 66 67  1  0
 67 61  1  0
 69 60  1  0
 70 69  1  0
 71 74  1  0
 71 96  1  0
 72 71  2  0
 73 72  1  0
 73 75  2  0
 75 74  1  0
 76 73  1  0
 77 76  1  0
 78 77  2  0
 79 80  2  0
 79 78  1  0
 80 81  1  0
 81 76  2  0
 82 79  1  0
 83 82  1  0
 83 84  1  0
 85 84  2  0
 86 85  1  0
 87 86  2  0
 87 88  1  0
 88 83  2  0
 89 88  1  0
 90 86  1  0
 91 93  2  0
 91 72  1  0
 92 91  1  0
 94 92  1  0
 95 92  1  0
 96 98  1  0
 97 96  1  0
100 99  1  0
M  ISO  4   8 101   9 101  61 100  69 100
M  END
>  <TORSDO>  (81) 
F 25

>  <SCORE>  (81) 
-7.207

>  <name>  (81) 
82

>  <ligand_id>  (81) 
82

>  <original_smiles>  (81) 
[H]C(C(=O)N([H])C([H])(C([H])=C([H])C(N([H])C([H])([H])C([H])([H])[H])=[N+]([H])C([H])([H])C([H])([H])N([H])C(=O)N1C([H])([H])C([H])([H])C([H])([H])C([H])(n2nc(-c3c([H])c([H])c(Oc4c([H])c([H])c(F)c([H])c4F)c([H])c3[H])c(C(=O)N([H])[H])c2N([H])[H])C1([H])[H])C([H])([H])C([H])([H])[H])=C([H])C([H])([H])Oc1c([H])c([H])c2c(c1[H])C([H])([H])N(C(=O)C([H])(N([H])C(=O)C([H])(N([H])C([H])([H])[H])C([H])([H])[H])C(C([H])([H])[H])(C([H])([H])[H])C([H])([H])[H])C([H])(C(=O)N([H])C1([H])c3c([H])c([H])c([H])c([H])c3C([H])([H])C([H])([H])C1([H])[H])C2([H])[H]

>  <smiles>  (81) 
[H]C(C(=O)N([H])C([H])(C([H])=C([H])C(N([H])C([H])([H])C([H])([H])[H])=[N+]([H])C([H])([H])C([H])([H])N([H])C(=O)N1C([H])([H])C([H])([H])C([H])([H])C([H])(n2nc(-c3c([H])c([H])c(Oc4c([H])c([H])c(F)c([H])c4F)c([H])c3[H])c(C(=O)N([H])[H])c2N([H])[H])C1([H])[H])C([H])([H])C([H])([H])[H])=C([H])C([H])([H])Oc1c([H])c([H])c2c(c1[H])C([H])([H])N(C(=O)C([H])(N([H])C(=O)C([H])(N([H])C([H])([H])[H])C([H])([H])[H])C(C([H])([H])[H])(C([H])([H])[H])C([H])([H])[H])C([H])(C(=O)N([H])C1([H])c3c([H])c([H])c([H])c([H])c3C([H])([H])C([H])([H])C1([H])[H])C2([H])[H]

$$$$
83:0:0
     RDKit          3D

 92 99  0  0  1  0  0  0  0  0999 V2000
  -26.5340  -22.8760   20.7920 C   0  0  0  0  0  0  0  0  0  0  0  0
  -27.2000  -22.5520   19.8040 O   0  0  0  0  0  0  0  0  0  0  0  0
  -26.9730  -23.8840   21.7720 C   0  0  0  0  0  3  0  0  0  0  0  0
  -27.7920  -24.9220   21.5020 C   0  0  0  0  0  3  0  0  0  0  0  0
  -28.3770  -25.3500   20.1620 C   0  0  0  0  0  2  0  0  0  0  0  0
  -28.4300  -26.7740   20.0700 O   0  0  0  0  0  0  0  0  0  0  0  0
  -24.6110  -31.8710   23.2130 C   0  0  0  0  0  0  0  0  0  0  0  0
  -27.2400  -27.4690   20.0750 C   0  0  0  0  0  0  0  0  0  0  0  0
  -23.3990  -30.4970   21.5530 C   0  0  0  0  0  3  0  0  0  0  0  0
  -24.8460  -28.9730   20.1120 C   0  0  0  0  0  0  0  0  0  0  0  0
  -25.9300  -30.8450   21.3690 C   0  0  0  0  0  2  0  0  0  0  0  0
  -26.0060  -29.4880   20.7030 C   0  0  0  0  0  0  0  0  0  0  0  0
  -27.2070  -28.7470   20.6730 C   0  0  0  0  0  3  0  0  0  0  0  0
  -26.0590  -26.9590   19.4860 C   0  0  0  0  0  3  0  0  0  0  0  0
  -24.8690  -27.7080   19.4980 C   0  0  0  0  0  3  0  0  0  0  0  0
  -23.6050  -29.8350   20.1650 C   0  0  0  0  0  2  0  0  0  0  0  0
  -24.6640  -31.0840   22.1020 N   0  0  0  0  0  0  0  0  0  0  0  0
  -23.5320  -32.1480   23.7530 O   0  0  0  0  0  0  0  0  0  0  0  0
  -22.7400  -29.4660   22.4980 C   0  0  0  0  0  0  0  0  0  0  0  0
  -21.4140  -29.3000   22.3680 N   0  0  0  0  0  0  0  0  0  0  0  0
  -23.4170  -28.8210   23.3030 O   0  0  0  0  0  0  0  0  0  0  0  0
  -20.9330  -29.8600   21.6790 H   0  0  0  0  0  0  0  0  0  0  0  0
  -18.0270  -28.1400   22.8500 C   0  0  0  0  0  0  0  0  0  0  0  0
  -20.5860  -28.3690   23.1320 C   0  0  0  0  0  3  0  0  0  0  0  0
  -20.6750  -26.9380   22.5540 C   0  0  0  0  0  2  0  0  0  0  0  0
  -19.5750  -26.6250   21.5360 C   0  0  0  0  0  2  0  0  0  0  0  0
  -18.1920  -26.7890   22.1740 C   0  0  0  0  0  2  0  0  0  0  0  0
  -19.1530  -28.8870   23.2870 C   0  0  0  0  0  0  0  0  0  0  0  0
  -18.9450  -30.1510   23.8820 C   0  0  0  0  0  3  0  0  0  0  0  0
  -17.6460  -30.6630   24.0510 C   0  0  0  0  0  3  0  0  0  0  0  0
  -16.5350  -29.9110   23.6340 C   0  0  0  0  0  3  0  0  0  0  0  0
  -16.7260  -28.6510   23.0370 C   0  0  0  0  0  3  0  0  0  0  0  0
  -25.9040  -32.4830   23.8410 C   0  0  0  0  0  3  0  0  0  0  0  0
  -26.4490  -31.6610   25.0730 C   0  0  1  0  0  0  0  0  0  0  0  0
  -25.3740  -31.3720   26.1450 C   0  0  0  0  0  1  0  0  0  0  0  0
  -27.0330  -30.3040   24.6150 C   0  0  0  0  0  1  0  0  0  0  0  0
  -27.6080  -32.4340   25.7460 C   0  0  0  0  0  1  0  0  0  0  0  0
  -25.5900  -33.8630   24.2330 N   0  0  0  0  0  0  0  0  0  0  0  0
  -25.9040  -34.9480   23.5130 C   0  0  0  0  0  0  0  0  0  0  0  0
  -26.5610  -34.8940   22.4690 O   0  0  0  0  0  0  0  0  0  0  0  0
  -25.0020  -33.9810   25.0450 H   0  0  0  0  0  0  0  0  0  0  0  0
  -24.1490  -36.7310   23.2640 C   0  0  0  0  0  1  0  0  0  0  0  0
  -25.4120  -36.3120   24.0330 C   0  0  0  0  0  3  0  0  0  0  0  0
  -27.5590  -37.1810   24.8470 C   0  0  0  0  0  1  0  0  0  0  0  0
  -26.4310  -37.3790   23.9390 N   0  0  0  0  0  0  0  0  0  0  0  0
  -26.0210  -38.2870   24.1370 H   0  0  0  0  0  0  0  0  0  0  0  0
  -25.2090  -22.1520   21.0690 C   0  0  0  0  0  2  0  0  0  0  0  0
  -25.4270  -20.8500   21.6160 O   0  0  0  0  0  0  0  0  0  0  0  0
  -25.8540  -20.8280   22.9770 C   0  0  0  0  0  2  0  0  0  0  0  0
  -26.0980  -19.3740   23.3870 C   0  0  0  0  0  2  0  0  0  0  0  0
  -27.2930  -18.9470   22.7460 O   0  0  0  0  0  0  0  0  0  0  0  0
  -27.5040  -17.5500   22.8380 C   0  0  0  0  0  2  0  0  0  0  0  0
  -28.8360  -17.1890   22.1550 C   0  0  0  0  0  2  0  0  0  0  0  0
  -29.0070  -15.6680   22.1060 C   0  0  0  0  0  2  0  0  0  0  0  0
  -30.7240  -14.3990   20.6930 C   0  0  0  0  0  0  0  0  0  0  0  0
  -30.4290  -12.3150   19.3970 C   0  0  0  0  0  2  0  0  0  0  0  0
  -29.4890  -12.5350   18.1960 C   0  0  0  0  0  2  0  0  0  0  0  0
  -28.0090  -12.3770   18.6030 C   0  0  0  0  0  2  0  0  0  0  0  0
  -27.6660  -13.1780   19.8840 C   0  0  0  0  0  3  0  0  0  0  0  0
  -28.7060  -12.8560   20.9830 C   0  0  0  0  0  2  0  0  0  0  0  0
  -30.0320  -13.2430   20.4720 N   0  0  0  0  0  0  0  0  0  0  0  0
  -31.7750  -14.6570   20.1020 O   0  0  0  0  0  0  0  0  0  0  0  0
  -30.3450  -15.2130   21.7000 N   0  0  0  0  0  0  0  0  0  0  0  0
  -31.0840  -15.8380   21.9870 H   0  0  0  0  0  0  0  0  0  0  0  0
  -25.2630  -13.8100   20.5650 C   0  0  0  0  0  0  0  0  0  0  0  0
  -24.1850  -13.0410   20.9170 C   0  0  0  0  0  0  0  0  0  0  0  0
  -24.6360  -11.6870   20.8740 C   0  0  0  0  0  0  0  0  0  0  0  0
  -26.3030  -12.9190   20.3380 N   0  0  0  0  0  0  0  0  0  0  0  0
  -25.9270  -11.6380   20.5760 N   0  0  0  0  0  0  0  0  0  0  0  0
  -23.9020  -10.4270   21.0430 C   0  0  0  0  0  0  0  0  0  0  0  0
  -24.3580   -9.4190   21.9200 C   0  0  0  0  0  3  0  0  0  0  0  0
  -23.6270   -8.2220   22.0760 C   0  0  0  0  0  3  0  0  0  0  0  0
  -22.4260   -8.0270   21.3540 C   0  0  0  0  0  0  0  0  0  0  0  0
  -21.9880   -9.0240   20.4650 C   0  0  0  0  0  3  0  0  0  0  0  0
  -22.7200  -10.2120   20.3080 C   0  0  0  0  0  3  0  0  0  0  0  0
  -21.6610   -6.8870   21.4240 O   0  0  0  0  0  0  0  0  0  0  0  0
  -21.6830   -6.0740   22.5290 C   0  0  0  0  0  0  0  0  0  0  0  0
  -21.4000   -6.5650   23.8220 C   0  0  0  0  0  3  0  0  0  0  0  0
  -21.3660   -5.6810   24.9180 C   0  0  0  0  0  3  0  0  0  0  0  0
  -21.6040   -4.3070   24.7230 C   0  0  0  0  0  0  0  0  0  0  0  0
  -21.8810   -3.8160   23.4360 C   0  0  0  0  0  3  0  0  0  0  0  0
  -21.9180   -4.6970   22.3410 C   0  0  0  0  0  0  0  0  0  0  0  0
  -22.1650   -4.2160   21.0990 F   0  0  0  0  0  0  0  0  0  0  0  0
  -21.5630   -3.4550   25.7740 F   0  0  0  0  0  0  0  0  0  0  0  0
  -22.7890  -13.5250   21.1830 C   0  0  0  0  0  0  0  0  0  0  0  0
  -22.0520  -12.8250   22.0400 N   0  0  0  0  0  0  0  0  0  0  0  0
  -22.3590  -14.5570   20.6700 O   0  0  0  0  0  0  0  0  0  0  0  0
  -22.4100  -11.9890   22.4750 H   0  0  0  0  0  0  0  0  0  0  0  0
  -21.1160  -13.1310   22.2650 H   0  0  0  0  0  0  0  0  0  0  0  0
  -25.4390  -15.1790   20.4010 N   0  0  0  0  0  0  0  0  0  0  0  0
  -24.6680  -15.8330   20.4770 H   0  0  0  0  0  0  0  0  0  0  0  0
  -26.2820  -15.6030   20.0330 H   0  0  0  0  0  0  0  0  0  0  0  0
  1 47  1  0
  1  3  1  0
  2  1  2  0
  4  3  2  0
  5  4  1  0
  6  8  1  0
  6  5  1  0
  7 18  2  0
  8 13  1  0
  9 17  1  0
  9 19  1  0
 10 16  1  0
 10 12  1  0
 11 17  1  0
 12 11  1  0
 13 12  2  0
 14 15  1  0
 14  8  2  0
 15 10  2  0
 16  9  1  0
 17  7  1  0
 19 21  2  0
 20 19  1  0
 22 20  1  0
 23 32  2  0
 23 28  1  0
 24 20  1  0
 24 28  1  0
 25 24  1  0
 26 27  1  0
 26 25  1  0
 27 23  1  0
 28 29  2  0
 29 30  1  0
 31 30  2  0
 32 31  1  0
 33  7  1  0
 33 38  1  0
 33 34  1  0
 34 37  1  1
 34 35  1  0
 36 34  1  0
 38 41  1  0
 39 43  1  0
 39 38  1  0
 40 39  2  0
 43 42  1  0
 45 43  1  0
 45 46  1  0
 45 44  1  0
 47 48  1  0
 48 49  1  0
 49 50  1  0
 51 52  1  0
 51 50  1  0
 53 52  1  0
 54 53  1  0
 55 63  1  0
 56 61  1  0
 57 58  1  0
 57 56  1  0
 59 58  1  0
 59 68  1  0
 59 60  1  0
 61 55  1  0
 61 60  1  0
 62 55  2  0
 63 64  1  0
 63 54  1  0
 65 66  2  0
 66 85  1  0
 67 66  1  0
 67 70  1  0
 68 65  1  0
 68 69  1  0
 69 67  2  0
 70 71  1  0
 71 72  2  0
 73 76  1  0
 73 72  1  0
 74 73  2  0
 75 74  1  0
 75 70  2  0
 76 77  1  0
 77 78  1  0
 78 79  2  0
 80 79  1  0
 80 84  1  0
 81 80  2  0
 82 77  2  0
 82 81  1  0
 83 82  1  0
 85 86  1  0
 86 89  1  0
 86 88  1  0
 87 85  2  0
 90 91  1  0
 90 65  1  0
 92 90  1  0
M  ISO  4   5 101   6 101  55 100  63 100
M  END
>  <TORSDO>  (82) 
F 26

>  <SCORE>  (82) 
29.290

>  <name>  (82) 
83

>  <ligand_id>  (82) 
83

>  <original_smiles>  (82) 
[H]C(C(=O)C([H])([H])OC([H])([H])C([H])([H])OC([H])([H])C([H])([H])C([H])([H])N([H])C(=O)N1C([H])([H])C([H])([H])C([H])([H])C([H])(n2nc(-c3c([H])c([H])c(Oc4c([H])c([H])c(F)c([H])c4F)c([H])c3[H])c(C(=O)N([H])[H])c2N([H])[H])C1([H])[H])=C([H])C([H])([H])Oc1c([H])c([H])c2c(c1[H])C([H])([H])N(C(=O)C([H])(N([H])C(=O)C([H])(N([H])C([H])([H])[H])C([H])([H])[H])C(C([H])([H])[H])(C([H])([H])[H])C([H])([H])[H])C([H])(C(=O)N([H])C1([H])c3c([H])c([H])c([H])c([H])c3C([H])([H])C([H])([H])C1([H])[H])C2([H])[H]

>  <smiles>  (82) 
[H]C(C(=O)C([H])([H])OC([H])([H])C([H])([H])OC([H])([H])C([H])([H])C([H])([H])N([H])C(=O)N1C([H])([H])C([H])([H])C([H])([H])C([H])(n2nc(-c3c([H])c([H])c(Oc4c([H])c([H])c(F)c([H])c4F)c([H])c3[H])c(C(=O)N([H])[H])c2N([H])[H])C1([H])[H])=C([H])C([H])([H])Oc1c([H])c([H])c2c(c1[H])C([H])([H])N(C(=O)C([H])(N([H])C(=O)C([H])(N([H])C([H])([H])[H])C([H])([H])[H])C(C([H])([H])[H])(C([H])([H])[H])C([H])([H])[H])C([H])(C(=O)N([H])C1([H])c3c([H])c([H])c([H])c([H])c3C([H])([H])C([H])([H])C1([H])[H])C2([H])[H]

$$$$
84:0:0
     RDKit          3D

 93100  0  0  1  0  0  0  0  0999 V2000
  -30.2060  -22.3790   21.2350 C   0  0  0  0  0  2  0  0  0  0  0  0
  -29.5150  -23.1860   20.2200 N   0  0  0  0  0  4  0  0  0  0  0  0
  -29.9730  -23.0180   19.3380 H   0  0  0  0  0  0  0  0  0  0  0  0
  -28.5620  -22.8700   20.1310 H   0  0  0  0  0  0  0  0  0  0  0  0
  -29.5620  -24.6380   20.4590 C   0  0  0  0  0  2  0  0  0  0  0  0
  -28.2850  -25.3140   19.9540 C   0  0  0  0  0  2  0  0  0  0  0  0
  -28.3670  -26.7220   20.1660 O   0  0  0  0  0  0  0  0  0  0  0  0
  -24.5940  -31.8920   23.2320 C   0  0  0  0  0  0  0  0  0  0  0  0
  -27.1850  -27.4280   20.1360 C   0  0  0  0  0  0  0  0  0  0  0  0
  -23.3750  -30.4940   21.6010 C   0  0  0  0  0  3  0  0  0  0  0  0
  -24.8010  -28.9490   20.1550 C   0  0  0  0  0  0  0  0  0  0  0  0
  -25.8980  -30.8320   21.3840 C   0  0  0  0  0  2  0  0  0  0  0  0
  -25.9640  -29.4640   20.7400 C   0  0  0  0  0  0  0  0  0  0  0  0
  -27.1560  -28.7100   20.7250 C   0  0  0  0  0  3  0  0  0  0  0  0
  -25.9990  -26.9220   19.5480 C   0  0  0  0  0  3  0  0  0  0  0  0
  -24.8130  -27.6780   19.5550 C   0  0  0  0  0  3  0  0  0  0  0  0
  -23.5650  -29.8200   20.2140 C   0  0  0  0  0  2  0  0  0  0  0  0
  -24.6460  -31.0870   22.1320 N   0  0  0  0  0  0  0  0  0  0  0  0
  -23.5150  -32.1680   23.7710 O   0  0  0  0  0  0  0  0  0  0  0  0
  -22.7250  -29.4750   22.5630 C   0  0  0  0  0  0  0  0  0  0  0  0
  -21.3980  -29.2950   22.4380 N   0  0  0  0  0  0  0  0  0  0  0  0
  -23.4080  -28.8440   23.3730 O   0  0  0  0  0  0  0  0  0  0  0  0
  -20.9090  -29.8650   21.7600 H   0  0  0  0  0  0  0  0  0  0  0  0
  -18.0290  -28.0980   22.9450 C   0  0  0  0  0  0  0  0  0  0  0  0
  -20.5840  -28.3580   23.2110 C   0  0  0  0  0  3  0  0  0  0  0  0
  -20.6860  -26.9240   22.6420 C   0  0  0  0  0  2  0  0  0  0  0  0
  -19.5830  -26.5960   21.6300 C   0  0  0  0  0  2  0  0  0  0  0  0
  -18.2030  -26.7470   22.2770 C   0  0  0  0  0  2  0  0  0  0  0  0
  -19.1480  -28.8610   23.3710 C   0  0  0  0  0  0  0  0  0  0  0  0
  -18.9310  -30.1280   23.9570 C   0  0  0  0  0  3  0  0  0  0  0  0
  -17.6250  -30.6280   24.1220 C   0  0  0  0  0  3  0  0  0  0  0  0
  -16.5210  -29.8630   23.7100 C   0  0  0  0  0  3  0  0  0  0  0  0
  -16.7240  -28.6000   23.1270 C   0  0  0  0  0  3  0  0  0  0  0  0
  -25.8870  -32.5190   23.8440 C   0  0  0  0  0  3  0  0  0  0  0  0
  -25.5820  -33.9140   24.1790 N   0  0  0  0  0  0  0  0  0  0  0  0
  -25.9010  -34.9710   23.4200 C   0  0  0  0  0  0  0  0  0  0  0  0
  -26.5580  -34.8730   22.3800 O   0  0  0  0  0  0  0  0  0  0  0  0
  -25.0020  -34.0660   24.9870 H   0  0  0  0  0  0  0  0  0  0  0  0
  -24.1670  -36.7650   23.0900 C   0  0  0  0  0  1  0  0  0  0  0  0
  -25.4180  -36.3570   23.8870 C   0  0  0  0  0  3  0  0  0  0  0  0
  -27.5610  -37.2430   24.6940 C   0  0  0  0  0  1  0  0  0  0  0  0
  -26.4480  -37.4120   23.7640 N   0  0  0  0  0  0  0  0  0  0  0  0
  -26.0460  -38.3340   23.9160 H   0  0  0  0  0  0  0  0  0  0  0  0
  -26.4120  -31.7480   25.1140 C   0  0  1  0  0  0  0  0  0  0  0  0
  -25.3290  -31.5080   26.1920 C   0  0  0  0  0  1  0  0  0  0  0  0
  -26.9930  -30.3760   24.7070 C   0  0  0  0  0  1  0  0  0  0  0  0
  -27.5680  -32.5400   25.7670 C   0  0  0  0  0  1  0  0  0  0  0  0
  -30.2510  -20.9130   20.7890 C   0  0  0  0  0  2  0  0  0  0  0  0
  -32.0810  -19.4050   19.9780 C   0  0  0  0  0  0  0  0  0  0  0  0
  -31.6370  -20.5570   20.5010 N   0  0  0  0  0  0  0  0  0  0  0  0
  -33.2740  -19.2170   19.7510 O   0  0  0  0  0  0  0  0  0  0  0  0
  -32.3100  -21.3010   20.6530 H   0  0  0  0  0  0  0  0  0  0  0  0
  -31.0320  -18.4410   19.7520 C   0  0  0  0  0  3  0  0  0  0  0  0
  -30.7840  -17.5370   20.7160 C   0  0  0  0  0  3  0  0  0  0  0  0
  -29.6000  -16.6120   20.7340 C   0  0  0  0  0  2  0  0  0  0  0  0
  -30.6460  -14.3770   20.5210 C   0  0  0  0  0  0  0  0  0  0  0  0
  -30.3870  -12.2810   19.2890 C   0  0  0  0  0  2  0  0  0  0  0  0
  -29.4460  -12.5570   18.1000 C   0  0  0  0  0  2  0  0  0  0  0  0
  -27.9630  -12.4530   18.5110 C   0  0  0  0  0  2  0  0  0  0  0  0
  -27.6320  -13.2370   19.8090 C   0  0  0  0  0  3  0  0  0  0  0  0
  -28.6660  -12.8850   20.9040 C   0  0  0  0  0  2  0  0  0  0  0  0
  -30.0130  -13.1880   20.3740 N   0  0  0  0  0  0  0  0  0  0  0  0
  -31.7170  -14.6720   19.9810 O   0  0  0  0  0  0  0  0  0  0  0  0
  -29.8970  -15.2640   21.1790 N   0  0  0  0  0  0  0  0  0  0  0  0
  -29.1410  -14.8180   21.6780 H   0  0  0  0  0  0  0  0  0  0  0  0
  -25.2140  -13.8820   20.4420 C   0  0  0  0  0  0  0  0  0  0  0  0
  -24.1310  -13.1220   20.8070 C   0  0  0  0  0  0  0  0  0  0  0  0
  -24.5830  -11.7690   20.8100 C   0  0  0  0  0  0  0  0  0  0  0  0
  -26.2600  -12.9860   20.2580 N   0  0  0  0  0  0  0  0  0  0  0  0
  -25.8770  -11.7120   20.5250 N   0  0  0  0  0  0  0  0  0  0  0  0
  -23.8490  -10.5130   21.0140 C   0  0  0  0  0  0  0  0  0  0  0  0
  -24.2730   -9.5490   21.9540 C   0  0  0  0  0  3  0  0  0  0  0  0
  -23.5360   -8.3580   22.1420 C   0  0  0  0  0  3  0  0  0  0  0  0
  -22.3640   -8.1210   21.3820 C   0  0  0  0  0  0  0  0  0  0  0  0
  -21.9620   -9.0720   20.4290 C   0  0  0  0  0  3  0  0  0  0  0  0
  -22.7010  -10.2530   20.2420 C   0  0  0  0  0  3  0  0  0  0  0  0
  -21.6050   -6.9780   21.4740 O   0  0  0  0  0  0  0  0  0  0  0  0
  -21.5590   -6.2370   22.6270 C   0  0  0  0  0  0  0  0  0  0  0  0
  -21.1530   -6.8000   23.8570 C   0  0  0  0  0  3  0  0  0  0  0  0
  -21.0510   -5.9880   25.0030 C   0  0  0  0  0  3  0  0  0  0  0  0
  -21.3430   -4.6130   24.9230 C   0  0  0  0  0  0  0  0  0  0  0  0
  -21.7470   -4.0500   23.6990 C   0  0  0  0  0  3  0  0  0  0  0  0
  -21.8480   -4.8590   22.5530 C   0  0  0  0  0  0  0  0  0  0  0  0
  -22.2130   -4.3090   21.3710 F   0  0  0  0  0  0  0  0  0  0  0  0
  -21.2380   -3.8290   26.0220 F   0  0  0  0  0  0  0  0  0  0  0  0
  -22.7360  -13.6110   21.0470 C   0  0  0  0  0  0  0  0  0  0  0  0
  -21.9860  -12.9340   21.9140 N   0  0  0  0  0  0  0  0  0  0  0  0
  -22.3080  -14.6260   20.5030 O   0  0  0  0  0  0  0  0  0  0  0  0
  -22.3410  -12.1120   22.3760 H   0  0  0  0  0  0  0  0  0  0  0  0
  -21.0480  -13.2480   22.1180 H   0  0  0  0  0  0  0  0  0  0  0  0
  -25.3910  -15.2460   20.2490 N   0  0  0  0  0  0  0  0  0  0  0  0
  -24.6260  -15.9090   20.3280 H   0  0  0  0  0  0  0  0  0  0  0  0
  -26.2490  -15.6690   19.9160 H   0  0  0  0  0  0  0  0  0  0  0  0
  2  5  1  0
  2  1  1  0
  3  2  1  0
  4  2  1  0
  6  7  1  0
  6  5  1  0
  8 19  2  0
  9  7  1  0
  9 14  1  0
 10 18  1  0
 10 20  1  0
 11 17  1  0
 11 13  1  0
 12 18  1  0
 13 12  1  0
 14 13  2  0
 15 16  1  0
 15  9  2  0
 16 11  2  0
 17 10  1  0
 18  8  1  0
 20 22  2  0
 21 20  1  0
 23 21  1  0
 24 33  2  0
 24 29  1  0
 25 21  1  0
 25 29  1  0
 26 25  1  0
 27 28  1  0
 27 26  1  0
 28 24  1  0
 29 30  2  0
 30 31  1  0
 32 31  2  0
 33 32  1  0
 34  8  1  0
 34 35  1  0
 34 44  1  0
 35 38  1  0
 36 40  1  0
 36 35  1  0
 37 36  2  0
 40 39  1  0
 42 40  1  0
 42 43  1  0
 42 41  1  0
 44 47  1  1
 44 45  1  0
 46 44  1  0
 48  1  1  0
 49 50  1  0
 50 52  1  0
 50 48  1  0
 51 49  2  0
 53 49  1  0
 53 54  2  0
 54 55  1  0
 55 64  1  0
 56 64  1  0
 57 62  1  0
 58 59  1  0
 58 57  1  0
 60 59  1  0
 60 69  1  0
 60 61  1  0
 62 56  1  0
 62 61  1  0
 63 56  2  0
 64 65  1  0
 66 67  2  0
 67 68  1  0
 67 86  1  0
 68 71  1  0
 69 66  1  0
 69 70  1  0
 70 68  2  0
 71 72  1  0
 72 73  2  0
 74 77  1  0
 74 73  1  0
 75 74  2  0
 76 75  1  0
 76 71  2  0
 77 78  1  0
 78 79  1  0
 79 80  2  0
 81 80  1  0
 81 85  1  0
 82 81  2  0
 83 78  2  0
 83 82  1  0
 84 83  1  0
 86 87  1  0
 87 90  1  0
 87 89  1  0
 88 86  2  0
 91 92  1  0
 91 66  1  0
 93 91  1  0
M  ISO  4   6 101   7 101  56 100  64 100
M  END
>  <TORSDO>  (83) 
F 23

>  <SCORE>  (83) 
-12.747

>  <name>  (83) 
84

>  <ligand_id>  (83) 
84

>  <original_smiles>  (83) 
[H]C(C(=O)N([H])C([H])([H])C([H])([H])[N+]([H])([H])C([H])([H])C([H])([H])Oc1c([H])c([H])c2c(c1[H])C([H])([H])N(C(=O)C([H])(N([H])C(=O)C([H])(N([H])C([H])([H])[H])C([H])([H])[H])C(C([H])([H])[H])(C([H])([H])[H])C([H])([H])[H])C([H])(C(=O)N([H])C1([H])c3c([H])c([H])c([H])c([H])c3C([H])([H])C([H])([H])C1([H])[H])C2([H])[H])=C([H])C([H])([H])N([H])C(=O)N1C([H])([H])C([H])([H])C([H])([H])C([H])(n2nc(-c3c([H])c([H])c(Oc4c([H])c([H])c(F)c([H])c4F)c([H])c3[H])c(C(=O)N([H])[H])c2N([H])[H])C1([H])[H]

>  <smiles>  (83) 
[H]C(C(=O)N([H])C([H])([H])C([H])([H])[N+]([H])([H])C([H])([H])C([H])([H])Oc1c([H])c([H])c2c(c1[H])C([H])([H])N(C(=O)C([H])(N([H])C(=O)C([H])(N([H])C([H])([H])[H])C([H])([H])[H])C(C([H])([H])[H])(C([H])([H])[H])C([H])([H])[H])C([H])(C(=O)N([H])C1([H])c3c([H])c([H])c([H])c([H])c3C([H])([H])C([H])([H])C1([H])[H])C2([H])[H])=C([H])C([H])([H])N([H])C(=O)N1C([H])([H])C([H])([H])C([H])([H])C([H])(n2nc(-c3c([H])c([H])c(Oc4c([H])c([H])c(F)c([H])c4F)c([H])c3[H])c(C(=O)N([H])[H])c2N([H])[H])C1([H])[H]

$$$$
85:0:0
     RDKit          3D

 99106  0  0  1  0  0  0  0  0999 V2000
  -30.1060  -18.7340   19.7140 O   0  0  0  0  0  0  0  0  0  0  0  0
  -29.2600  -19.2480   18.6770 C   0  0  0  0  0  2  0  0  0  0  0  0
  -30.0230  -19.1330   17.3440 C   0  0  0  0  0  2  0  0  0  0  0  0
  -29.3220  -18.2850   16.3170 N   0  0  0  0  0  4  0  0  0  0  0  0
  -29.3900  -17.3270   16.6190 H   0  0  0  0  0  0  0  0  0  0  0  0
  -28.3390  -18.5250   16.2980 H   0  0  0  0  0  0  0  0  0  0  0  0
  -29.8180  -18.3070   14.9050 C   0  0  0  0  0  2  0  0  0  0  0  0
  -30.5830  -19.6110   14.6530 C   0  0  0  0  0  2  0  0  0  0  0  0
  -31.1770  -20.0280   13.2890 C   0  0  0  0  0  2  0  0  0  0  0  0
  -32.4480  -21.0250   13.4190 C   0  0  0  0  0  2  0  0  0  0  0  0
  -33.4120  -19.9110   14.2050 C   0  0  0  0  0  2  0  0  0  0  0  0
  -33.4180  -19.2030   15.7400 C   0  0  0  0  0  2  0  0  0  0  0  0
  -34.7560  -19.4030   18.1310 C   0  0  0  0  0  0  0  0  0  0  0  0
  -37.2040  -18.8590   18.3410 C   0  0  0  0  0  2  0  0  0  0  0  0
  -38.1760  -20.0270   17.9500 C   0  0  0  0  0  2  0  0  0  0  0  0
  -38.0750  -20.5510   16.5020 C   0  0  0  0  0  2  0  0  0  0  0  0
  -36.6050  -20.5300   16.1140 C   0  0  0  0  0  3  0  0  0  0  0  0
  -36.2380  -19.0500   16.2830 C   0  0  0  0  0  2  0  0  0  0  0  0
  -35.9220  -18.9640   17.6520 N   0  0  0  0  0  0  0  0  0  0  0  0
  -34.6450  -19.6160   19.3580 O   0  0  0  0  0  0  0  0  0  0  0  0
  -33.8340  -19.7410   17.1410 N   0  0  0  0  0  0  0  0  0  0  0  0
  -33.1020  -20.3070   17.5510 H   0  0  0  0  0  0  0  0  0  0  0  0
  -36.0420  -22.4300   13.9320 C   0  0  0  0  0  0  0  0  0  0  0  0
  -36.1500  -22.0980   12.2450 C   0  0  0  0  0  0  0  0  0  0  0  0
  -36.6810  -20.3810   11.9840 C   0  0  0  0  0  0  0  0  0  0  0  0
  -36.4460  -20.8680   14.8330 N   0  0  0  0  0  0  0  0  0  0  0  0
  -36.8550  -19.5880   13.5650 N   0  0  0  0  0  0  0  0  0  0  0  0
  -37.4550  -19.8450   10.9350 C   0  0  0  0  0  0  0  0  0  0  0  0
  -37.1430  -18.5450   10.5430 C   0  0  0  0  0  3  0  0  0  0  0  0
  -37.8230  -17.9860    9.4610 C   0  0  0  0  0  3  0  0  0  0  0  0
  -38.8170  -18.7390    8.7960 C   0  0  0  0  0  0  0  0  0  0  0  0
  -39.1890  -20.0090    9.2670 C   0  0  0  0  0  3  0  0  0  0  0  0
  -38.5130  -20.5690   10.3530 C   0  0  0  0  0  3  0  0  0  0  0  0
  -39.4630  -18.2650    7.6920 O   0  0  0  0  0  0  0  0  0  0  0  0
  -38.8220  -17.3980    6.8510 C   0  0  0  0  0  0  0  0  0  0  0  0
  -37.6170  -17.7420    6.2010 C   0  0  0  0  0  3  0  0  0  0  0  0
  -37.0260  -16.8390    5.2980 C   0  0  0  0  0  3  0  0  0  0  0  0
  -37.6440  -15.6010    5.0420 C   0  0  0  0  0  0  0  0  0  0  0  0
  -38.8380  -15.2520    5.7010 C   0  0  0  0  0  3  0  0  0  0  0  0
  -39.4230  -16.1470    6.6100 C   0  0  0  0  0  0  0  0  0  0  0  0
  -40.5720  -15.8220    7.2470 F   0  0  0  0  0  0  0  0  0  0  0  0
  -37.0920  -14.7380    4.1600 F   0  0  0  0  0  0  0  0  0  0  0  0
  -36.0260  -23.0650   11.1580 C   0  0  0  0  0  0  0  0  0  0  0  0
  -35.6520  -22.5670    9.9880 N   0  0  0  0  0  0  0  0  0  0  0  0
  -36.2020  -24.2540   11.3710 O   0  0  0  0  0  0  0  0  0  0  0  0
  -35.4320  -21.5900    9.8450 H   0  0  0  0  0  0  0  0  0  0  0  0
  -35.5230  -23.2050    9.2150 H   0  0  0  0  0  0  0  0  0  0  0  0
  -35.8740  -23.5860   14.6520 N   0  0  0  0  0  0  0  0  0  0  0  0
  -35.6360  -24.4710   14.2300 H   0  0  0  0  0  0  0  0  0  0  0  0
  -36.0810  -23.6650   15.6400 H   0  0  0  0  0  0  0  0  0  0  0  0
  -30.7320  -19.6900   20.5750 C   0  0  0  0  0  2  0  0  0  0  0  0
  -29.7660  -20.2460   21.6420 C   0  0  0  0  0  2  0  0  0  0  0  0
  -29.8430  -21.7830   21.9000 C   0  0  0  0  0  2  0  0  0  0  0  0
  -28.4650  -22.3330   21.9930 N   0  0  0  0  0  4  0  0  0  0  0  0
  -28.0300  -21.9860   22.8350 H   0  0  0  0  0  0  0  0  0  0  0  0
  -27.9810  -21.9170   21.2160 H   0  0  0  0  0  0  0  0  0  0  0  0
  -28.2510  -23.8070   21.9030 C   0  0  0  0  0  2  0  0  0  0  0  0
  -26.9960  -24.1350   21.0370 C   0  0  0  0  0  2  0  0  0  0  0  0
  -26.1230  -25.1160   21.6290 O   0  0  0  0  0  0  0  0  0  0  0  0
  -19.2460  -26.2280   19.9320 C   0  0  0  0  0  0  0  0  0  0  0  0
  -25.2150  -25.8120   20.8400 C   0  0  0  0  0  0  0  0  0  0  0  0
  -20.9050  -27.4330   18.5500 C   0  0  0  0  0  3  0  0  0  0  0  0
  -23.3170  -27.3520   19.3850 C   0  0  0  0  0  0  0  0  0  0  0  0
  -21.4640  -26.7480   20.9530 C   0  0  0  0  0  2  0  0  0  0  0  0
  -22.9180  -26.6530   20.5300 C   0  0  0  0  0  0  0  0  0  0  0  0
  -23.8640  -25.8920   21.2590 C   0  0  0  0  0  3  0  0  0  0  0  0
  -25.5900  -26.5190   19.6720 C   0  0  0  0  0  3  0  0  0  0  0  0
  -24.6530  -27.2870   18.9510 C   0  0  0  0  0  3  0  0  0  0  0  0
  -22.2640  -28.1740   18.6760 C   0  0  0  0  0  2  0  0  0  0  0  0
  -20.4980  -26.7570   19.8240 N   0  0  0  0  0  0  0  0  0  0  0  0
  -18.4240  -26.3320   19.0110 O   0  0  0  0  0  0  0  0  0  0  0  0
  -20.9790  -26.4720   17.3410 C   0  0  0  0  0  0  0  0  0  0  0  0
  -21.0980  -27.0390   16.1290 N   0  0  0  0  0  0  0  0  0  0  0  0
  -20.9590  -25.2500   17.5060 O   0  0  0  0  0  0  0  0  0  0  0  0
  -21.1000  -28.0480   16.0780 H   0  0  0  0  0  0  0  0  0  0  0  0
  -21.6380  -27.4860   12.5810 C   0  0  0  0  0  0  0  0  0  0  0  0
  -21.2330  -26.3290   14.8580 C   0  0  0  0  0  3  0  0  0  0  0  0
  -22.6550  -25.7420   14.6970 C   0  0  0  0  0  2  0  0  0  0  0  0
  -23.6100  -26.6730   13.9430 C   0  0  0  0  0  2  0  0  0  0  0  0
  -23.0700  -26.9780   12.5430 C   0  0  0  0  0  2  0  0  0  0  0  0
  -20.7810  -27.1940   13.6750 C   0  0  0  0  0  0  0  0  0  0  0  0
  -19.4700  -27.7180   13.6760 C   0  0  0  0  0  3  0  0  0  0  0  0
  -19.0120  -28.5160   12.6110 C   0  0  0  0  0  3  0  0  0  0  0  0
  -19.8610  -28.7880   11.5230 C   0  0  0  0  0  3  0  0  0  0  0  0
  -21.1680  -28.2710   11.5080 C   0  0  0  0  0  3  0  0  0  0  0  0
  -18.7790  -25.4880   21.2260 C   0  0  0  0  0  3  0  0  0  0  0  0
  -17.6110  -26.2070   21.7500 N   0  0  0  0  0  0  0  0  0  0  0  0
  -17.6080  -26.9430   22.8690 C   0  0  0  0  0  0  0  0  0  0  0  0
  -18.5860  -27.0300   23.6160 O   0  0  0  0  0  0  0  0  0  0  0  0
  -16.7910  -26.2270   21.1600 H   0  0  0  0  0  0  0  0  0  0  0  0
  -16.5370  -29.2140   23.0330 C   0  0  0  0  0  1  0  0  0  0  0  0
  -16.3130  -27.7040   23.2160 C   0  0  0  0  0  3  0  0  0  0  0  0
  -15.2750  -26.0890   24.7480 C   0  0  0  0  0  1  0  0  0  0  0  0
  -15.8130  -27.4370   24.5830 N   0  0  0  0  0  0  0  0  0  0  0  0
  -15.0820  -28.0990   24.8300 H   0  0  0  0  0  0  0  0  0  0  0  0
  -18.4330  -23.9680   20.9810 C   0  0  1  0  0  0  0  0  0  0  0  0
  -17.4670  -23.7310   19.7970 C   0  0  0  0  0  1  0  0  0  0  0  0
  -19.7180  -23.1500   20.7130 C   0  0  0  0  0  1  0  0  0  0  0  0
  -17.7850  -23.3670   22.2520 C   0  0  0  0  0  1  0  0  0  0  0  0
  1 51  1  0
  2  1  1  0
  3  2  1  0
  4  5  1  0
  4  3  1  0
  6  4  1  0
  7  4  1  0
  8  7  1  0
  9 10  1  0
  9  8  1  0
 10 11  1  0
 11 12  1  0
 12 21  1  0
 13 20  2  0
 15 14  1  0
 16 15  1  0
 17 26  1  0
 17 18  1  0
 17 16  1  0
 18 19  1  0
 19 13  1  0
 19 14  1  0
 21 22  1  0
 21 13  1  0
 23 48  1  0
 23 26  1  0
 24 23  2  0
 25 24  1  0
 25 27  2  0
 27 26  1  0
 28 25  1  0
 29 28  1  0
 30 29  2  0
 31 32  2  0
 31 30  1  0
 32 33  1  0
 33 28  2  0
 34 31  1  0
 35 34  1  0
 36 35  2  0
 37 36  1  0
 38 37  2  0
 38 39  1  0
 39 40  2  0
 40 35  1  0
 40 41  1  0
 42 38  1  0
 43 45  2  0
 43 24  1  0
 44 43  1  0
 46 44  1  0
 47 44  1  0
 48 50  1  0
 49 48  1  0
 51 52  1  0
 52 53  1  0
 53 54  1  0
 54 55  1  0
 56 54  1  0
 57 54  1  0
 58 59  1  0
 58 57  1  0
 61 66  1  0
 61 59  1  0
 62 72  1  0
 62 69  1  0
 62 70  1  0
 63 65  1  0
 65 64  1  0
 65 66  2  0
 67 61  2  0
 68 63  2  0
 68 67  1  0
 69 63  1  0
 70 60  1  0
 70 64  1  0
 71 60  2  0
 72 74  2  0
 73 72  1  0
 75 73  1  0
 76 81  1  0
 77 73  1  0
 78 77  1  0
 79 78  1  0
 80 76  1  0
 80 79  1  0
 81 82  2  0
 81 77  1  0
 83 82  1  0
 84 83  2  0
 85 84  1  0
 85 76  2  0
 86 60  1  0
 86 87  1  0
 87 88  1  0
 88 92  1  0
 88 89  2  0
 90 87  1  0
 92 91  1  0
 92 94  1  0
 94 93  1  0
 94 95  1  0
 96 86  1  0
 96 99  1  1
 97 96  1  0
 98 96  1  0
M  ISO  4  13 100  21 100  58 101  59 101
M  END
>  <TORSDO>  (84) 
F 31

>  <SCORE>  (84) 
-4.189

>  <name>  (84) 
85

>  <ligand_id>  (84) 
85

>  <original_smiles>  (84) 
[H]c1c([H])c([H])c2c(c1[H])C([H])([H])C([H])([H])C([H])([H])C2([H])N([H])C(=O)C1([H])N(C(=O)C([H])(N([H])C(=O)C([H])(N([H])C([H])([H])[H])C([H])([H])[H])C(C([H])([H])[H])(C([H])([H])[H])C([H])([H])[H])C([H])([H])c2c([H])c(OC([H])([H])C([H])([H])[N+]([H])([H])C([H])([H])C([H])([H])C([H])([H])OC([H])([H])C([H])([H])[N+]([H])([H])C([H])([H])C([H])([H])C([H])([H])C([H])([H])C([H])([H])C([H])([H])N([H])C(=O)N3C([H])([H])C([H])([H])C([H])([H])C([H])(n4nc(-c5c([H])c([H])c(Oc6c([H])c([H])c(F)c([H])c6F)c([H])c5[H])c(C(=O)N([H])[H])c4N([H])[H])C3([H])[H])c([H])c([H])c2C1([H])[H]

>  <smiles>  (84) 
[H]c1c([H])c([H])c2c(c1[H])C([H])([H])C([H])([H])C([H])([H])C2([H])N([H])C(=O)C1([H])N(C(=O)C([H])(N([H])C(=O)C([H])(N([H])C([H])([H])[H])C([H])([H])[H])C(C([H])([H])[H])(C([H])([H])[H])C([H])([H])[H])C([H])([H])c2c([H])c(OC([H])([H])C([H])([H])[N+]([H])([H])C([H])([H])C([H])([H])C([H])([H])OC([H])([H])C([H])([H])[N+]([H])([H])C([H])([H])C([H])([H])C([H])([H])C([H])([H])C([H])([H])C([H])([H])N([H])C(=O)N3C([H])([H])C([H])([H])C([H])([H])C([H])(n4nc(-c5c([H])c([H])c(Oc6c([H])c([H])c(F)c([H])c6F)c([H])c5[H])c(C(=O)N([H])[H])c4N([H])[H])C3([H])[H])c([H])c([H])c2C1([H])[H]

$$$$
86:0:0
     RDKit          3D

103110  0  0  1  0  0  0  0  0999 V2000
  -24.9300  -23.8700   16.4510 N   0  0  0  0  0  4  0  0  0  0  0  0
  -24.5890  -23.4130   15.6170 H   0  0  0  0  0  0  0  0  0  0  0  0
  -25.8370  -23.4830   16.6530 H   0  0  0  0  0  0  0  0  0  0  0  0
  -25.0420  -25.3270   16.1910 C   0  0  0  0  0  2  0  0  0  0  0  0
  -26.2860  -25.7220   15.3570 C   0  0  0  0  0  2  0  0  0  0  0  0
  -27.6600  -25.5700   16.0550 C   0  0  0  0  0  2  0  0  0  0  0  0
  -27.9520  -26.6150   17.0690 N   0  0  0  0  0  4  0  0  0  0  0  0
  -27.2030  -26.6660   17.7420 H   0  0  0  0  0  0  0  0  0  0  0  0
  -28.0100  -27.5140   16.6120 H   0  0  0  0  0  0  0  0  0  0  0  0
  -29.2070  -26.3770   17.8270 C   0  0  0  0  0  2  0  0  0  0  0  0
  -29.3000  -27.2360   19.1050 C   0  0  0  0  0  2  0  0  0  0  0  0
  -28.3560  -26.7620   20.0680 O   0  0  0  0  0  0  0  0  0  0  0  0
  -24.6390  -31.9210   23.2880 C   0  0  0  0  0  0  0  0  0  0  0  0
  -27.2050  -27.4990   20.1450 C   0  0  0  0  0  0  0  0  0  0  0  0
  -23.3980  -30.5440   21.6490 C   0  0  0  0  0  3  0  0  0  0  0  0
  -24.8190  -28.9920   20.2090 C   0  0  0  0  0  0  0  0  0  0  0  0
  -25.9240  -30.8810   21.4270 C   0  0  0  0  0  2  0  0  0  0  0  0
  -25.9870  -29.5160   20.7780 C   0  0  0  0  0  0  0  0  0  0  0  0
  -27.1880  -28.7780   20.7400 C   0  0  0  0  0  3  0  0  0  0  0  0
  -26.0130  -26.9570   19.6260 C   0  0  0  0  0  3  0  0  0  0  0  0
  -24.8220  -27.7070   19.6360 C   0  0  0  0  0  3  0  0  0  0  0  0
  -23.5840  -29.8630   20.2680 C   0  0  0  0  0  2  0  0  0  0  0  0
  -24.6720  -31.1290   22.1800 N   0  0  0  0  0  0  0  0  0  0  0  0
  -23.5650  -32.2090   23.8370 O   0  0  0  0  0  0  0  0  0  0  0  0
  -22.7430  -29.5280   22.6110 C   0  0  0  0  0  0  0  0  0  0  0  0
  -21.4180  -29.3490   22.4800 N   0  0  0  0  0  0  0  0  0  0  0  0
  -23.4230  -28.9020   23.4280 O   0  0  0  0  0  0  0  0  0  0  0  0
  -20.9310  -29.9050   21.7890 H   0  0  0  0  0  0  0  0  0  0  0  0
  -18.0430  -28.1500   22.9480 C   0  0  0  0  0  0  0  0  0  0  0  0
  -20.5950  -28.4160   23.2500 C   0  0  0  0  0  3  0  0  0  0  0  0
  -20.7090  -26.9800   22.6860 C   0  0  0  0  0  2  0  0  0  0  0  0
  -19.6200  -26.6450   21.6620 C   0  0  0  0  0  2  0  0  0  0  0  0
  -18.2290  -26.7950   22.2880 C   0  0  0  0  0  2  0  0  0  0  0  0
  -19.1540  -28.9180   23.3850 C   0  0  0  0  0  0  0  0  0  0  0  0
  -18.9240  -30.1890   23.9580 C   0  0  0  0  0  3  0  0  0  0  0  0
  -17.6170  -30.6890   24.0980 C   0  0  0  0  0  3  0  0  0  0  0  0
  -16.5190  -29.9160   23.6790 C   0  0  0  0  0  3  0  0  0  0  0  0
  -16.7330  -28.6480   23.1100 C   0  0  0  0  0  3  0  0  0  0  0  0
  -25.9400  -32.5270   23.9020 C   0  0  0  0  0  3  0  0  0  0  0  0
  -25.6600  -33.9290   24.2310 N   0  0  0  0  0  0  0  0  0  0  0  0
  -26.0040  -34.9730   23.4650 C   0  0  0  0  0  0  0  0  0  0  0  0
  -26.6640  -34.8540   22.4290 O   0  0  0  0  0  0  0  0  0  0  0  0
  -25.0770  -34.0980   25.0380 H   0  0  0  0  0  0  0  0  0  0  0  0
  -24.3010  -36.7870   23.1180 C   0  0  0  0  0  1  0  0  0  0  0  0
  -25.5430  -36.3700   23.9200 C   0  0  0  0  0  3  0  0  0  0  0  0
  -27.7010  -37.2190   24.7250 C   0  0  0  0  0  1  0  0  0  0  0  0
  -26.5910  -37.4040   23.7930 N   0  0  0  0  0  0  0  0  0  0  0  0
  -26.2030  -38.3310   23.9410 H   0  0  0  0  0  0  0  0  0  0  0  0
  -26.4560  -31.7450   25.1730 C   0  0  1  0  0  0  0  0  0  0  0  0
  -25.3680  -31.5240   26.2490 C   0  0  0  0  0  1  0  0  0  0  0  0
  -27.0140  -30.3590   24.7760 C   0  0  0  0  0  1  0  0  0  0  0  0
  -27.6270  -32.5200   25.8230 C   0  0  0  0  0  1  0  0  0  0  0  0
  -24.0490  -23.5130   17.5880 C   0  0  0  0  0  2  0  0  0  0  0  0
  -24.2940  -22.0710   18.0730 C   0  0  0  0  0  2  0  0  0  0  0  0
  -25.7350  -21.8340   18.5610 C   0  0  0  0  0  2  0  0  0  0  0  0
  -26.0100  -20.3780   18.9630 C   0  0  0  0  0  2  0  0  0  0  0  0
  -27.4400  -20.2510   19.2000 N   0  0  0  0  0  0  0  0  0  0  0  0
  -27.7210  -20.8920   19.9400 H   0  0  0  0  0  0  0  0  0  0  0  0
  -27.8080  -18.8910   19.5690 C   0  0  0  0  0  2  0  0  0  0  0  0
  -29.3430  -18.8030   19.6950 C   0  0  0  0  0  2  0  0  0  0  0  0
  -29.7800  -17.5850   20.4040 N   0  0  0  0  0  4  0  0  0  0  0  0
  -29.3770  -17.5900   21.3270 H   0  0  0  0  0  0  0  0  0  0  0  0
  -29.4320  -16.7790   19.9130 H   0  0  0  0  0  0  0  0  0  0  0  0
  -31.2490  -17.4630   20.5320 C   0  0  0  0  0  2  0  0  0  0  0  0
  -31.6620  -16.2500   21.3870 C   0  0  0  0  0  2  0  0  0  0  0  0
  -31.3430  -14.1690   20.0510 C   0  0  0  0  0  0  0  0  0  0  0  0
  -30.8800  -11.9980   18.9750 C   0  0  0  0  0  2  0  0  0  0  0  0
  -29.9150  -12.1430   17.7840 C   0  0  0  0  0  2  0  0  0  0  0  0
  -28.4480  -12.1030   18.2530 C   0  0  0  0  0  2  0  0  0  0  0  0
  -28.1790  -13.0670   19.4370 C   0  0  0  0  0  3  0  0  0  0  0  0
  -29.2370  -12.8770   20.5450 C   0  0  0  0  0  2  0  0  0  0  0  0
  -30.5770  -13.0560   19.9490 N   0  0  0  0  0  0  0  0  0  0  0  0
  -32.3380  -14.3860   19.3530 O   0  0  0  0  0  0  0  0  0  0  0  0
  -30.9600  -15.0250   21.0070 N   0  0  0  0  0  0  0  0  0  0  0  0
  -30.1790  -14.7350   21.5790 H   0  0  0  0  0  0  0  0  0  0  0  0
  -25.8540  -13.8710   20.2070 C   0  0  0  0  0  0  0  0  0  0  0  0
  -24.7430  -13.1880   20.6240 C   0  0  0  0  0  0  0  0  0  0  0  0
  -25.0970  -11.8040   20.5940 C   0  0  0  0  0  0  0  0  0  0  0  0
  -26.8210  -12.9090   19.9560 N   0  0  0  0  0  0  0  0  0  0  0  0
  -26.3690  -11.6620   20.2430 N   0  0  0  0  0  0  0  0  0  0  0  0
  -24.2830  -10.6040   20.8230 C   0  0  0  0  0  0  0  0  0  0  0  0
  -24.6540   -9.6330   21.7780 C   0  0  0  0  0  3  0  0  0  0  0  0
  -23.8450   -8.4950   21.9910 C   0  0  0  0  0  3  0  0  0  0  0  0
  -22.6520   -8.3220   21.2510 C   0  0  0  0  0  0  0  0  0  0  0  0
  -22.3020   -9.2810   20.2850 C   0  0  0  0  0  3  0  0  0  0  0  0
  -23.1090  -10.4100   20.0690 C   0  0  0  0  0  3  0  0  0  0  0  0
  -21.8190   -7.2370   21.3730 O   0  0  0  0  0  0  0  0  0  0  0  0
  -21.7070   -6.5460   22.5510 C   0  0  0  0  0  0  0  0  0  0  0  0
  -21.3170   -7.1790   23.7520 C   0  0  0  0  0  3  0  0  0  0  0  0
  -21.1460   -6.4180   24.9270 C   0  0  0  0  0  3  0  0  0  0  0  0
  -21.3540   -5.0260   24.9000 C   0  0  0  0  0  0  0  0  0  0  0  0
  -21.7370   -4.3930   23.7040 C   0  0  0  0  0  3  0  0  0  0  0  0
  -21.9090   -5.1510   22.5330 C   0  0  0  0  0  0  0  0  0  0  0  0
  -22.2590   -4.5330   21.3790 F   0  0  0  0  0  0  0  0  0  0  0  0
  -21.1820   -4.2930   26.0260 F   0  0  0  0  0  0  0  0  0  0  0  0
  -23.3970  -13.7740   20.9370 C   0  0  0  0  0  0  0  0  0  0  0  0
  -22.6490  -13.1470   21.8380 N   0  0  0  0  0  0  0  0  0  0  0  0
  -23.0210  -14.8230   20.4150 O   0  0  0  0  0  0  0  0  0  0  0  0
  -22.9690  -12.2980   22.2790 H   0  0  0  0  0  0  0  0  0  0  0  0
  -21.7450  -13.5220   22.0890 H   0  0  0  0  0  0  0  0  0  0  0  0
  -26.1170  -15.2230   20.0000 N   0  0  0  0  0  0  0  0  0  0  0  0
  -25.3790  -15.9140   20.0720 H   0  0  0  0  0  0  0  0  0  0  0  0
  -26.9300  -15.5580   19.5040 H   0  0  0  0  0  0  0  0  0  0  0  0
  1  3  1  0
  1 53  1  0
  2  1  1  0
  4  1  1  0
  5  6  1  0
  5  4  1  0
  6  7  1  0
  7  8  1  0
  7 10  1  0
  9  7  1  0
 10 11  1  0
 11 12  1  0
 12 14  1  0
 13 24  2  0
 14 19  1  0
 15 23  1  0
 15 25  1  0
 16 22  1  0
 16 18  1  0
 17 23  1  0
 18 17  1  0
 19 18  2  0
 20 21  1  0
 20 14  2  0
 21 16  2  0
 22 15  1  0
 23 13  1  0
 25 27  2  0
 26 25  1  0
 28 26  1  0
 29 38  2  0
 29 34  1  0
 30 26  1  0
 30 34  1  0
 31 30  1  0
 32 33  1  0
 32 31  1  0
 33 29  1  0
 34 35  2  0
 35 36  1  0
 37 36  2  0
 38 37  1  0
 39 13  1  0
 39 40  1  0
 39 49  1  0
 40 43  1  0
 41 45  1  0
 41 40  1  0
 42 41  2  0
 45 44  1  0
 47 45  1  0
 47 48  1  0
 47 46  1  0
 49 52  1  1
 49 50  1  0
 51 49  1  0
 53 54  1  0
 54 55  1  0
 55 56  1  0
 56 57  1  0
 57 59  1  0
 57 58  1  0
 59 60  1  0
 60 61  1  0
 61 64  1  0
 61 62  1  0
 63 61  1  0
 64 65  1  0
 66 74  1  0
 67 72  1  0
 68 69  1  0
 68 67  1  0
 70 69  1  0
 70 79  1  0
 70 71  1  0
 72 66  1  0
 72 71  1  0
 73 66  2  0
 74 65  1  0
 74 75  1  0
 76 77  2  0
 77 96  1  0
 78 77  1  0
 78 81  1  0
 79 76  1  0
 79 80  1  0
 80 78  2  0
 81 82  1  0
 82 83  2  0
 84 87  1  0
 84 83  1  0
 85 84  2  0
 86 85  1  0
 86 81  2  0
 87 88  1  0
 88 89  1  0
 89 90  2  0
 91 90  1  0
 91 95  1  0
 92 91  2  0
 93 88  2  0
 93 92  1  0
 94 93  1  0
 96 97  1  0
 97100  1  0
 97 99  1  0
 98 96  2  0
101102  1  0
101 76  1  0
103101  1  0
M  ISO  4  11 101  12 101  66 100  74 100
M  END
>  <TORSDO>  (85) 
F 32

>  <SCORE>  (85) 
-9.853

>  <name>  (85) 
86

>  <ligand_id>  (85) 
86

>  <original_smiles>  (85) 
[H]c1c([H])c([H])c2c(c1[H])C([H])([H])C([H])([H])C([H])([H])C2([H])N([H])C(=O)C1([H])N(C(=O)C([H])(N([H])C(=O)C([H])(N([H])C([H])([H])[H])C([H])([H])[H])C(C([H])([H])[H])(C([H])([H])[H])C([H])([H])[H])C([H])([H])c2c([H])c(OC([H])([H])C([H])([H])[N+]([H])([H])C([H])([H])C([H])([H])C([H])([H])[N+]([H])([H])C([H])([H])C([H])([H])C([H])([H])C([H])([H])N([H])C([H])([H])C([H])([H])[N+]([H])([H])C([H])([H])C([H])([H])N([H])C(=O)N3C([H])([H])C([H])([H])C([H])([H])C([H])(n4nc(-c5c([H])c([H])c(Oc6c([H])c([H])c(F)c([H])c6F)c([H])c5[H])c(C(=O)N([H])[H])c4N([H])[H])C3([H])[H])c([H])c([H])c2C1([H])[H]

>  <smiles>  (85) 
[H]c1c([H])c([H])c2c(c1[H])C([H])([H])C([H])([H])C([H])([H])C2([H])N([H])C(=O)C1([H])N(C(=O)C([H])(N([H])C(=O)C([H])(N([H])C([H])([H])[H])C([H])([H])[H])C(C([H])([H])[H])(C([H])([H])[H])C([H])([H])[H])C([H])([H])c2c([H])c(OC([H])([H])C([H])([H])[N+]([H])([H])C([H])([H])C([H])([H])C([H])([H])[N+]([H])([H])C([H])([H])C([H])([H])C([H])([H])C([H])([H])N([H])C([H])([H])C([H])([H])[N+]([H])([H])C([H])([H])C([H])([H])N([H])C(=O)N3C([H])([H])C([H])([H])C([H])([H])C([H])(n4nc(-c5c([H])c([H])c(Oc6c([H])c([H])c(F)c([H])c6F)c([H])c5[H])c(C(=O)N([H])[H])c4N([H])[H])C3([H])[H])c([H])c([H])c2C1([H])[H]

$$$$
87:0:0
     RDKit          3D

 96103  0  0  1  0  0  0  0  0999 V2000
  -26.4220  -21.2430   20.1950 C   0  0  0  0  0  2  0  0  0  0  0  0
  -26.6040  -22.6670   20.5740 N   0  0  0  0  0  4  0  0  0  0  0  0
  -25.6950  -23.0420   20.8030 H   0  0  0  0  0  0  0  0  0  0  0  0
  -27.1710  -22.7300   21.4050 H   0  0  0  0  0  0  0  0  0  0  0  0
  -27.2180  -23.5060   19.5200 C   0  0  0  0  0  2  0  0  0  0  0  0
  -27.5540  -24.9280   20.0140 C   0  0  0  0  0  2  0  0  0  0  0  0
  -28.6550  -25.6050   19.1710 C   0  0  0  0  0  2  0  0  0  0  0  0
  -28.6930  -27.1410   19.2950 C   0  0  0  0  0  2  0  0  0  0  0  0
  -27.8890  -27.7140   18.2730 O   0  0  0  0  0  0  0  0  0  0  0  0
  -24.2500  -31.6370   23.0080 C   0  0  0  0  0  0  0  0  0  0  0  0
  -26.7040  -28.2730   18.6750 C   0  0  0  0  0  0  0  0  0  0  0  0
  -22.9080  -30.4720   21.2880 C   0  0  0  0  0  3  0  0  0  0  0  0
  -24.2310  -29.4330   19.3680 C   0  0  0  0  0  0  0  0  0  0  0  0
  -25.3280  -31.1490   20.8170 C   0  0  0  0  0  2  0  0  0  0  0  0
  -25.4200  -29.9530   19.8960 C   0  0  0  0  0  0  0  0  0  0  0  0
  -26.6630  -29.3740   19.5570 C   0  0  0  0  0  3  0  0  0  0  0  0
  -25.5060  -27.7660   18.1390 C   0  0  0  0  0  3  0  0  0  0  0  0
  -24.2670  -28.3310   18.4930 C   0  0  0  0  0  3  0  0  0  0  0  0
  -22.9430  -30.1130   19.7770 C   0  0  0  0  0  2  0  0  0  0  0  0
  -24.1880  -31.0910   21.7610 N   0  0  0  0  0  0  0  0  0  0  0  0
  -23.2560  -31.6680   23.7440 O   0  0  0  0  0  0  0  0  0  0  0  0
  -22.5110  -29.2070   22.0800 C   0  0  0  0  0  0  0  0  0  0  0  0
  -21.2410  -28.7930   21.9500 N   0  0  0  0  0  0  0  0  0  0  0  0
  -23.3400  -28.6070   22.7700 O   0  0  0  0  0  0  0  0  0  0  0  0
  -20.6230  -29.3470   21.3720 H   0  0  0  0  0  0  0  0  0  0  0  0
  -18.2460  -26.7850   22.1200 C   0  0  0  0  0  0  0  0  0  0  0  0
  -20.6530  -27.6060   22.5700 C   0  0  0  0  0  3  0  0  0  0  0  0
  -21.1160  -26.3140   21.8590 C   0  0  0  0  0  2  0  0  0  0  0  0
  -20.1580  -25.8560   20.7530 C   0  0  0  0  0  2  0  0  0  0  0  0
  -18.7630  -25.5980   21.3250 C   0  0  0  0  0  2  0  0  0  0  0  0
  -19.1320  -27.7360   22.6910 C   0  0  0  0  0  0  0  0  0  0  0  0
  -18.5940  -28.8370   23.3920 C   0  0  0  0  0  3  0  0  0  0  0  0
  -17.2010  -28.9930   23.5270 C   0  0  0  0  0  3  0  0  0  0  0  0
  -16.3300  -28.0390   22.9750 C   0  0  0  0  0  3  0  0  0  0  0  0
  -16.8520  -26.9360   22.2770 C   0  0  0  0  0  3  0  0  0  0  0  0
  -25.5680  -32.2690   23.5580 C   0  0  0  0  0  3  0  0  0  0  0  0
  -25.2470  -33.6230   24.0300 N   0  0  0  0  0  0  0  0  0  0  0  0
  -25.5370  -34.7490   23.3640 C   0  0  0  0  0  0  0  0  0  0  0  0
  -26.1750  -34.7570   22.3080 O   0  0  0  0  0  0  0  0  0  0  0  0
  -24.6770  -33.6860   24.8610 H   0  0  0  0  0  0  0  0  0  0  0  0
  -23.7830  -36.5420   23.2060 C   0  0  0  0  0  1  0  0  0  0  0  0
  -25.0350  -36.0760   23.9650 C   0  0  0  0  0  3  0  0  0  0  0  0
  -27.1690  -36.8920   24.8610 C   0  0  0  0  0  1  0  0  0  0  0  0
  -26.0530  -37.1480   23.9550 N   0  0  0  0  0  0  0  0  0  0  0  0
  -25.6390  -38.0410   24.2050 H   0  0  0  0  0  0  0  0  0  0  0  0
  -26.2340  -31.4180   24.7090 C   0  0  1  0  0  0  0  0  0  0  0  0
  -25.2580  -31.0470   25.8510 C   0  0  0  0  0  1  0  0  0  0  0  0
  -26.8230  -30.1030   24.1440 C   0  0  0  0  0  1  0  0  0  0  0  0
  -27.4180  -32.2040   25.3230 C   0  0  0  0  0  1  0  0  0  0  0  0
  -27.3000  -20.2790   21.0260 C   0  0  0  0  0  2  0  0  0  0  0  0
  -28.8150  -20.3110   20.7030 C   0  0  0  0  0  2  0  0  0  0  0  0
  -29.2010  -19.4570   19.5530 N   0  0  0  0  0  4  0  0  0  0  0  0
  -28.7770  -18.5480   19.6650 H   0  0  0  0  0  0  0  0  0  0  0  0
  -28.8590  -19.8490   18.6910 H   0  0  0  0  0  0  0  0  0  0  0  0
  -30.6620  -19.2440   19.4130 C   0  0  0  0  0  2  0  0  0  0  0  0
  -31.0290  -18.3680   18.1930 C   0  0  0  0  0  2  0  0  0  0  0  0
  -31.0610  -16.8600   18.5100 C   0  0  0  0  0  2  0  0  0  0  0  0
  -32.4650  -16.2210   18.6570 C   0  0  0  0  0  2  0  0  0  0  0  0
  -33.1440  -14.2420   20.1340 C   0  0  0  0  0  0  0  0  0  0  0  0
  -33.0930  -12.2460   21.6050 C   0  0  0  0  0  2  0  0  0  0  0  0
  -32.5550  -10.9860   20.8950 C   0  0  0  0  0  2  0  0  0  0  0  0
  -31.0120  -10.9500   20.8780 C   0  0  0  0  0  2  0  0  0  0  0  0
  -30.3910  -12.2960   20.4200 C   0  0  0  0  0  3  0  0  0  0  0  0
  -31.0200  -13.4500   21.2240 C   0  0  0  0  0  2  0  0  0  0  0  0
  -32.4830  -13.4350   21.0030 N   0  0  0  0  0  0  0  0  0  0  0  0
  -34.3000  -14.0470   19.7410 O   0  0  0  0  0  0  0  0  0  0  0  0
  -32.4000  -15.2970   19.7830 N   0  0  0  0  0  0  0  0  0  0  0  0
  -31.5440  -15.3460   20.3150 H   0  0  0  0  0  0  0  0  0  0  0  0
  -28.0210  -13.3020   20.2720 C   0  0  0  0  0  0  0  0  0  0  0  0
  -26.7840  -12.7540   20.4970 C   0  0  0  0  0  0  0  0  0  0  0  0
  -27.0180  -11.4060   20.9030 C   0  0  0  0  0  0  0  0  0  0  0  0
  -28.9330  -12.2920   20.5460 N   0  0  0  0  0  0  0  0  0  0  0  0
  -28.3170  -11.1630   20.9790 N   0  0  0  0  0  0  0  0  0  0  0  0
  -26.0770  -10.3100   21.1690 C   0  0  0  0  0  0  0  0  0  0  0  0
  -25.9150   -9.7790   22.4660 C   0  0  0  0  0  3  0  0  0  0  0  0
  -24.9930   -8.7370   22.7030 C   0  0  0  0  0  3  0  0  0  0  0  0
  -24.2270   -8.2160   21.6350 C   0  0  0  0  0  0  0  0  0  0  0  0
  -24.4110   -8.7300   20.3380 C   0  0  0  0  0  3  0  0  0  0  0  0
  -25.3330   -9.7640   20.1060 C   0  0  0  0  0  3  0  0  0  0  0  0
  -23.3270   -7.1860   21.7640 O   0  0  0  0  0  0  0  0  0  0  0  0
  -22.5140   -7.0730   22.8620 C   0  0  0  0  0  0  0  0  0  0  0  0
  -21.5870   -8.0780   23.2130 C   0  0  0  0  0  3  0  0  0  0  0  0
  -20.7240   -7.8900   24.3110 C   0  0  0  0  0  3  0  0  0  0  0  0
  -20.7750   -6.6950   25.0540 C   0  0  0  0  0  0  0  0  0  0  0  0
  -21.6930   -5.6930   24.7030 C   0  0  0  0  0  3  0  0  0  0  0  0
  -22.5570   -5.8780   23.6080 C   0  0  0  0  0  0  0  0  0  0  0  0
  -23.4220   -4.8960   23.2640 F   0  0  0  0  0  0  0  0  0  0  0  0
  -19.9410   -6.5110   26.1060 F   0  0  0  0  0  0  0  0  0  0  0  0
  -25.4580  -13.4120   20.2460 C   0  0  0  0  0  0  0  0  0  0  0  0
  -24.4400  -13.0500   21.0190 N   0  0  0  0  0  0  0  0  0  0  0  0
  -25.3310  -14.2820   19.3840 O   0  0  0  0  0  0  0  0  0  0  0  0
  -24.5500  -12.3460   21.7340 H   0  0  0  0  0  0  0  0  0  0  0  0
  -23.5370  -13.4820   20.8900 H   0  0  0  0  0  0  0  0  0  0  0  0
  -28.4390  -14.5600   19.8440 N   0  0  0  0  0  0  0  0  0  0  0  0
  -27.7770  -15.2650   19.5320 H   0  0  0  0  0  0  0  0  0  0  0  0
  -29.4020  -14.7900   19.6270 H   0  0  0  0  0  0  0  0  0  0  0  0
  1  2  1  0
  1 50  1  0
  2  3  1  0
  2  4  1  0
  5  6  1  0
  5  2  1  0
  7  8  1  0
  7  6  1  0
  9 11  1  0
  9  8  1  0
 10 21  2  0
 11 16  1  0
 12 20  1  0
 12 22  1  0
 13 19  1  0
 13 15  1  0
 14 20  1  0
 15 14  1  0
 16 15  2  0
 17 18  1  0
 17 11  2  0
 18 13  2  0
 19 12  1  0
 20 10  1  0
 22 24  2  0
 23 22  1  0
 25 23  1  0
 26 35  2  0
 26 31  1  0
 27 23  1  0
 27 31  1  0
 28 27  1  0
 29 30  1  0
 29 28  1  0
 30 26  1  0
 31 32  2  0
 32 33  1  0
 34 33  2  0
 35 34  1  0
 36 10  1  0
 36 37  1  0
 36 46  1  0
 37 40  1  0
 38 42  1  0
 38 37  1  0
 39 38  2  0
 42 41  1  0
 44 42  1  0
 44 45  1  0
 44 43  1  0
 46 49  1  1
 46 47  1  0
 48 46  1  0
 51 50  1  0
 52 53  1  0
 52 51  1  0
 54 52  1  0
 55 52  1  0
 56 57  1  0
 56 55  1  0
 57 58  1  0
 58 67  1  0
 59 65  1  0
 61 60  1  0
 62 61  1  0
 63 72  1  0
 63 62  1  0
 63 64  1  0
 65 64  1  0
 65 60  1  0
 66 59  2  0
 67 59  1  0
 67 68  1  0
 69 70  2  0
 69 72  1  0
 70 71  1  0
 71 73  2  0
 71 74  1  0
 72 73  1  0
 74 75  1  0
 75 76  2  0
 77 80  1  0
 77 76  1  0
 78 77  2  0
 79 78  1  0
 79 74  2  0
 80 81  1  0
 81 82  2  0
 81 86  1  0
 82 83  1  0
 83 84  2  0
 84 88  1  0
 85 84  1  0
 86 85  2  0
 87 86  1  0
 89 70  1  0
 89 90  1  0
 90 92  1  0
 91 89  2  0
 93 90  1  0
 94 69  1  0
 95 94  1  0
 96 94  1  0
M  ISO  4   8 101   9 101  59 100  67 100
M  END
>  <TORSDO>  (86) 
F 28

>  <SCORE>  (86) 
-4.867

>  <name>  (86) 
87

>  <ligand_id>  (86) 
87

>  <original_smiles>  (86) 
[H]c1c([H])c([H])c2c(c1[H])C([H])([H])C([H])([H])C([H])([H])C2([H])N([H])C(=O)C1([H])N(C(=O)C([H])(N([H])C(=O)C([H])(N([H])C([H])([H])[H])C([H])([H])[H])C(C([H])([H])[H])(C([H])([H])[H])C([H])([H])[H])C([H])([H])c2c([H])c(OC([H])([H])C([H])([H])C([H])([H])C([H])([H])[N+]([H])([H])C([H])([H])C([H])([H])C([H])([H])[N+]([H])([H])C([H])([H])C([H])([H])C([H])([H])C([H])([H])N([H])C(=O)N3C([H])([H])C([H])([H])C([H])([H])C([H])(n4nc(-c5c([H])c([H])c(Oc6c([H])c([H])c(F)c([H])c6F)c([H])c5[H])c(C(=O)N([H])[H])c4N([H])[H])C3([H])[H])c([H])c([H])c2C1([H])[H]

>  <smiles>  (86) 
[H]c1c([H])c([H])c2c(c1[H])C([H])([H])C([H])([H])C([H])([H])C2([H])N([H])C(=O)C1([H])N(C(=O)C([H])(N([H])C(=O)C([H])(N([H])C([H])([H])[H])C([H])([H])[H])C(C([H])([H])[H])(C([H])([H])[H])C([H])([H])[H])C([H])([H])c2c([H])c(OC([H])([H])C([H])([H])C([H])([H])C([H])([H])[N+]([H])([H])C([H])([H])C([H])([H])C([H])([H])[N+]([H])([H])C([H])([H])C([H])([H])C([H])([H])C([H])([H])N([H])C(=O)N3C([H])([H])C([H])([H])C([H])([H])C([H])(n4nc(-c5c([H])c([H])c(Oc6c([H])c([H])c(F)c([H])c6F)c([H])c5[H])c(C(=O)N([H])[H])c4N([H])[H])C3([H])[H])c([H])c([H])c2C1([H])[H]

$$$$
88:0:0
     RDKit          3D

 98101  0  0  1  0  0  0  0  0999 V2000
  -20.8560  -23.3140   21.0840 N   0  0  0  0  0  4  0  0  0  0  0  0
  -19.9030  -23.7140   21.1580 H   0  0  0  0  0  0  0  0  0  0  0  0
  -20.9550  -22.3890   21.4580 H   0  0  0  0  0  0  0  0  0  0  0  0
  -21.5340  -23.0360   19.7560 C   0  0  0  0  0  2  0  0  0  0  0  0
  -21.0020  -23.7980   18.3440 C   0  0  0  0  0  2  0  0  0  0  0  0
  -21.7260  -24.1870   17.0010 N   0  0  0  0  0  0  0  0  0  0  0  0
  -21.9830  -23.3610   16.5420 H   0  0  0  0  0  0  0  0  0  0  0  0
  -22.5630  -25.3950   16.4450 C   0  0  0  0  0  2  0  0  0  0  0  0
  -24.2240  -25.5970   15.8060 C   0  0  0  0  0  2  0  0  0  0  0  0
  -25.5520  -26.3610   16.3440 O   0  0  0  0  0  0  0  0  0  0  0  0
  -25.5710  -29.6730   22.8680 C   0  0  0  0  0  0  0  0  0  0  0  0
  -25.4130  -27.4590   17.1160 C   0  0  0  0  0  0  0  0  0  0  0  0
  -23.7130  -29.7750   21.3110 C   0  0  0  0  0  3  0  0  0  0  0  0
  -24.2010  -29.2640   18.8450 C   0  0  0  0  0  0  0  0  0  0  0  0
  -26.1250  -29.5320   20.4070 C   0  0  0  0  0  2  0  0  0  0  0  0
  -25.5090  -28.8970   19.1630 C   0  0  0  0  0  0  0  0  0  0  0  0
  -26.1350  -27.9240   18.2870 C   0  0  0  0  0  3  0  0  0  0  0  0
  -24.2390  -28.1910   16.7440 C   0  0  0  0  0  3  0  0  0  0  0  0
  -23.5700  -28.9790   17.6870 C   0  0  0  0  0  3  0  0  0  0  0  0
  -23.4390  -30.1540   19.8550 C   0  0  0  0  0  2  0  0  0  0  0  0
  -25.1890  -29.6570   21.5760 N   0  0  0  0  0  0  0  0  0  0  0  0
  -24.7600  -29.7680   23.8010 O   0  0  0  0  0  0  0  0  0  0  0  0
  -22.9880  -28.4840   21.6470 C   0  0  0  0  0  0  0  0  0  0  0  0
  -21.6400  -28.5870   21.7770 N   0  0  0  0  0  0  0  0  0  0  0  0
  -23.5780  -27.3980   21.8150 O   0  0  0  0  0  0  0  0  0  0  0  0
  -21.1600  -29.4650   21.7670 H   0  0  0  0  0  0  0  0  0  0  0  0
  -18.2900  -27.9330   21.3360 C   0  0  0  0  0  0  0  0  0  0  0  0
  -20.7250  -27.5960   22.2670 C   0  0  0  0  0  3  0  0  0  0  0  0
  -20.7810  -26.8030   21.2060 C   0  0  0  0  0  2  0  0  0  0  0  0
  -19.7500  -26.9610   19.7900 C   0  0  0  0  0  2  0  0  0  0  0  0
  -18.5210  -27.4950   19.8910 C   0  0  0  0  0  2  0  0  0  0  0  0
  -19.3090  -28.1080   22.3030 C   0  0  0  0  0  0  0  0  0  0  0  0
  -19.1260  -28.9000   23.4200 C   0  0  0  0  0  3  0  0  0  0  0  0
  -17.9070  -29.5000   23.5710 C   0  0  0  0  0  3  0  0  0  0  0  0
  -16.8570  -29.2460   22.6950 C   0  0  0  0  0  3  0  0  0  0  0  0
  -17.0240  -28.4600   21.5810 C   0  0  0  0  0  3  0  0  0  0  0  0
  -27.0770  -29.5060   23.2490 C   0  0  0  0  0  3  0  0  0  0  0  0
  -27.3740  -30.5300   24.2500 N   0  0  0  0  0  0  0  0  0  0  0  0
  -28.0540  -31.6610   24.0110 C   0  0  0  0  0  0  0  0  0  0  0  0
  -28.5750  -31.9110   22.9150 O   0  0  0  0  0  0  0  0  0  0  0  0
  -26.9530  -30.4050   25.1650 H   0  0  0  0  0  0  0  0  0  0  0  0
  -27.2480  -33.8550   24.9230 C   0  0  0  0  0  1  0  0  0  0  0  0
  -28.1910  -32.6630   25.1580 C   0  0  0  0  0  3  0  0  0  0  0  0
  -30.4880  -32.1330   25.8630 C   0  0  0  0  0  1  0  0  0  0  0  0
  -29.5770  -33.1620   25.3530 N   0  0  0  0  0  0  0  0  0  0  0  0
  -29.5880  -33.9500   26.0070 H   0  0  0  0  0  0  0  0  0  0  0  0
  -27.4320  -28.0610   23.7950 C   0  0  1  0  0  0  0  0  0  0  0  0
  -26.5030  -27.5940   24.9360 C   0  0  0  0  0  1  0  0  0  0  0  0
  -27.3450  -27.0110   22.6660 C   0  0  0  0  0  1  0  0  0  0  0  0
  -28.8910  -28.0510   24.3110 C   0  0  0  0  0  1  0  0  0  0  0  0
  -21.5660  -23.6770   22.3630 C   0  0  0  0  0  2  0  0  0  0  0  0
  -22.1320  -24.8750   21.5730 C   0  0  0  0  0  1  0  0  0  0  0  0
  -23.6490  -24.8290   20.2890 C   0  0  0  0  0  1  0  0  0  0  0  0
  -25.2330  -24.7350   20.0550 N   0  0  0  0  0  4  0  0  0  0  0  0
  -25.5750  -24.9570   19.3180 H   0  0  0  0  0  0  0  0  0  0  0  0
  -25.4760  -25.6450   20.2070 H   0  0  0  0  0  0  0  0  0  0  0  0
  -26.3560  -23.6480   20.5240 C   0  0  0  0  0  1  0  0  0  0  0  0
  -27.6190  -21.9820   20.1390 C   0  0  0  0  0 15  0  0  0  0  0  0
  -27.9610  -19.9490   20.2110 C   0  0  0  0  0 15  0  0  0  0  0  0
  -29.3760  -18.4320   20.0960 C   0  0  0  0  0  1  0  0  0  0  0  0
  -30.8380  -15.3010   20.3040 C   0  0  0  0  0  0  0  0  0  0  0  0
  -31.3340  -12.5920   19.9730 C   0  0  0  0  0  2  0  0  0  0  0  0
  -30.5890  -11.7240   18.8910 C   0  0  0  0  0  2  0  0  0  0  0  0
  -29.1390  -11.4090   19.2970 C   0  0  0  0  0  2  0  0  0  0  0  0
  -28.5650  -12.6410   20.0230 C   0  0  0  0  0  3  0  0  0  0  0  0
  -29.4670  -13.2460   21.1210 C   0  0  0  0  0  2  0  0  0  0  0  0
  -30.5310  -13.8410   20.3780 N   0  0  0  0  0  0  0  0  0  0  0  0
  -32.1160  -15.2640   20.1320 O   0  0  0  0  0  0  0  0  0  0  0  0
  -29.8340  -16.6060   20.1200 N   0  0  0  0  0  0  0  0  0  0  0  0
  -29.6870  -16.4850   19.1120 H   0  0  0  0  0  0  0  0  0  0  0  0
  -26.3380  -13.4650   20.8540 C   0  0  0  0  0  0  0  0  0  0  0  0
  -25.1990  -12.8370   21.2060 C   0  0  0  0  0  0  0  0  0  0  0  0
  -25.4620  -11.4360   21.0810 C   0  0  0  0  0  0  0  0  0  0  0  0
  -27.2200  -12.4630   20.5110 N   0  0  0  0  0  0  0  0  0  0  0  0
  -26.7200  -11.2270   20.7410 N   0  0  0  0  0  0  0  0  0  0  0  0
  -24.5520  -10.3000   21.2160 C   0  0  0  0  0  0  0  0  0  0  0  0
  -24.8090   -9.2540   22.1300 C   0  0  0  0  0  3  0  0  0  0  0  0
  -23.9120   -8.1740   22.2550 C   0  0  0  0  0  3  0  0  0  0  0  0
  -22.7310   -8.1370   21.4720 C   0  0  0  0  0  0  0  0  0  0  0  0
  -22.4870   -9.1720   20.5440 C   0  0  0  0  0  3  0  0  0  0  0  0
  -23.3870  -10.2420   20.4190 C   0  0  0  0  0  3  0  0  0  0  0  0
  -21.8080   -7.1220   21.5090 O   0  0  0  0  0  0  0  0  0  0  0  0
  -21.5370   -6.4400   22.6580 C   0  0  0  0  0  0  0  0  0  0  0  0
  -21.0970   -7.0980   23.8270 C   0  0  0  0  0  3  0  0  0  0  0  0
  -20.7640   -6.3480   24.9730 C   0  0  0  0  0  3  0  0  0  0  0  0
  -20.8620   -4.9460   24.9520 C   0  0  0  0  0  0  0  0  0  0  0  0
  -21.3040   -4.2900   23.7920 C   0  0  0  0  0  3  0  0  0  0  0  0
  -21.6390   -5.0350   22.6440 C   0  0  0  0  0  0  0  0  0  0  0  0
  -22.0400   -4.3950   21.5200 F   0  0  0  0  0  0  0  0  0  0  0  0
  -20.5360   -4.2210   26.0510 F   0  0  0  0  0  0  0  0  0  0  0  0
  -23.8920  -13.5070   21.5240 C   0  0  0  0  0  0  0  0  0  0  0  0
  -23.0990  -12.9190   22.4040 N   0  0  0  0  0  0  0  0  0  0  0  0
  -23.6090  -14.6100   21.0260 O   0  0  0  0  0  0  0  0  0  0  0  0
  -23.3550  -12.0420   22.8300 H   0  0  0  0  0  0  0  0  0  0  0  0
  -22.2370  -13.3530   22.6730 H   0  0  0  0  0  0  0  0  0  0  0  0
  -26.7310  -14.8100   20.7790 N   0  0  0  0  0  0  0  0  0  0  0  0
  -26.0840  -15.5720   20.9790 H   0  0  0  0  0  0  0  0  0  0  0  0
  -27.6580  -15.1290   20.5030 H   0  0  0  0  0  0  0  0  0  0  0  0
  1  2  1  0
  1  3  1  0
  1 51  1  0
  4  1  1  0
  5  4  1  0
  6  5  1  0
  7  6  1  0
  8  6  1  0
  9 10  1  0
  9  8  1  0
 10 12  1  0
 11 22  2  0
 12 17  1  0
 13 21  1  0
 13 23  1  0
 14 16  1  0
 14 20  1  0
 15 21  1  0
 16 15  1  0
 17 16  2  0
 18 12  2  0
 18 19  1  0
 19 14  2  0
 20 13  1  0
 21 11  1  0
 23 24  1  0
 23 25  2  0
 26 24  1  0
 27 36  2  0
 27 32  1  0
 28 24  1  0
 28 32  1  0
 29 28  1  0
 30 31  1  0
 30 29  1  0
 31 27  1  0
 32 33  2  0
 33 34  1  0
 35 34  2  0
 36 35  1  0
 37 11  1  0
 37 47  1  0
 37 38  1  0
 38 41  1  0
 39 38  1  0
 39 43  1  0
 40 39  2  0
 43 42  1  0
 43 45  1  0
 45 44  1  0
 45 46  1  0
 47 50  1  1
 47 48  1  0
 49 47  1  0
 52 51  1  0
 54 56  1  0
 54 53  1  0
 54 57  1  0
 55 54  1  0
 60 69  1  0
 61 67  1  0
 62 67  1  0
 63 64  1  0
 63 62  1  0
 65 64  1  0
 65 74  1  0
 65 66  1  0
 67 66  1  0
 68 61  2  0
 69 61  1  0
 70 69  1  0
 71 72  2  0
 72 91  1  0
 73 72  1  0
 73 76  1  0
 74 75  1  0
 74 71  1  0
 75 73  2  0
 76 77  1  0
 77 78  2  0
 79 82  1  0
 79 78  1  0
 80 79  2  0
 81 80  1  0
 81 76  2  0
 82 83  1  0
 83 84  1  0
 84 85  2  0
 86 85  1  0
 86 90  1  0
 87 86  2  0
 88 83  2  0
 88 87  1  0
 89 88  1  0
 91 92  1  0
 92 95  1  0
 92 94  1  0
 93 91  2  0
 96 71  1  0
 96 97  1  0
 98 96  1  0
M  ISO  4   9 101  10 101  61 100  69 100
M  END
>  <TORSDO>  (87) 
F 29

>  <SCORE>  (87) 
-7.722

>  <name>  (87) 
88

>  <ligand_id>  (87) 
88

>  <original_smiles>  (87) 
[H]c1c([H])c([H])c2c(c1[H])C([H])([H])C([H])([H])C([H])([H])C2([H])N([H])C(=O)C1([H])N(C(=O)C([H])(N([H])C(=O)C([H])(N([H])C([H])([H])[H])C([H])([H])[H])C(C([H])([H])[H])(C([H])([H])[H])C([H])([H])[H])C([H])([H])c2c([H])c(OC([H])([H])C([H])([H])N([H])C([H])([H])C([H])([H])[N+]([H])([H])C([H])([H])C([H])([H])C([H])([H])[N+]([H])([H])C([H])([H])C([H])([H])C([H])([H])C([H])([H])N([H])C(=O)N3C([H])([H])C([H])([H])C([H])([H])C([H])(n4nc(-c5c([H])c([H])c(Oc6c([H])c([H])c(F)c([H])c6F)c([H])c5[H])c(C(=O)N([H])[H])c4N([H])[H])C3([H])[H])c([H])c([H])c2C1([H])[H]

>  <smiles>  (87) 
[H]c1c([H])c([H])c2c(c1[H])C([H])([H])C([H])([H])C([H])([H])C2([H])N([H])C(=O)C1([H])N(C(=O)C([H])(N([H])C(=O)C([H])(N([H])C([H])([H])[H])C([H])([H])[H])C(C([H])([H])[H])(C([H])([H])[H])C([H])([H])[H])C([H])([H])c2c([H])c(OC([H])([H])C([H])([H])N([H])C([H])([H])C([H])([H])[N+]([H])([H])C([H])([H])C([H])([H])C([H])([H])[N+]([H])([H])C([H])([H])C([H])([H])C([H])([H])C([H])([H])N([H])C(=O)N3C([H])([H])C([H])([H])C([H])([H])C([H])(n4nc(-c5c([H])c([H])c(Oc6c([H])c([H])c(F)c([H])c6F)c([H])c5[H])c(C(=O)N([H])[H])c4N([H])[H])C3([H])[H])c([H])c([H])c2C1([H])[H]

$$$$
89:0:0
     RDKit          3D

 93100  0  0  1  0  0  0  0  0999 V2000
  -29.8650  -22.3430   21.0850 C   0  0  0  0  0  2  0  0  0  0  0  0
  -29.2110  -23.4370   21.8400 N   0  0  0  0  0  4  0  0  0  0  0  0
  -29.5780  -23.3830   22.7770 H   0  0  0  0  0  0  0  0  0  0  0  0
  -28.2210  -23.2630   21.9120 H   0  0  0  0  0  0  0  0  0  0  0  0
  -29.4450  -24.8220   21.3600 C   0  0  0  0  0  2  0  0  0  0  0  0
  -28.4240  -25.2800   20.2990 C   0  0  0  0  0  2  0  0  0  0  0  0
  -28.4850  -26.7110   20.1910 O   0  0  0  0  0  0  0  0  0  0  0  0
  -24.5960  -31.8250   23.2320 C   0  0  0  0  0  0  0  0  0  0  0  0
  -27.2910  -27.4000   20.1820 C   0  0  0  0  0  0  0  0  0  0  0  0
  -23.4050  -30.4100   21.5910 C   0  0  0  0  0  3  0  0  0  0  0  0
  -24.8770  -28.8730   20.1840 C   0  0  0  0  0  0  0  0  0  0  0  0
  -25.9270  -30.7870   21.4040 C   0  0  0  0  0  2  0  0  0  0  0  0
  -26.0270  -29.4150   20.7730 C   0  0  0  0  0  0  0  0  0  0  0  0
  -27.2370  -28.6850   20.7670 C   0  0  0  0  0  3  0  0  0  0  0  0
  -26.1240  -26.8770   19.5780 C   0  0  0  0  0  3  0  0  0  0  0  0
  -24.9190  -27.6030   19.5870 C   0  0  0  0  0  3  0  0  0  0  0  0
  -23.6260  -29.7220   20.2180 C   0  0  0  0  0  2  0  0  0  0  0  0
  -24.6610  -31.0220   22.1340 N   0  0  0  0  0  0  0  0  0  0  0  0
  -23.5110  -32.0940   23.7680 O   0  0  0  0  0  0  0  0  0  0  0  0
  -22.7580  -29.3900   22.5540 C   0  0  0  0  0  0  0  0  0  0  0  0
  -21.4440  -29.1620   22.3920 N   0  0  0  0  0  0  0  0  0  0  0  0
  -23.4350  -28.8010   23.4030 O   0  0  0  0  0  0  0  0  0  0  0  0
  -20.9570  -29.6910   21.6810 H   0  0  0  0  0  0  0  0  0  0  0  0
  -18.1030  -27.8430   22.7820 C   0  0  0  0  0  0  0  0  0  0  0  0
  -20.6340  -28.2170   23.1580 C   0  0  0  0  0  3  0  0  0  0  0  0
  -20.8190  -26.7730   22.6380 C   0  0  0  0  0  2  0  0  0  0  0  0
  -19.7800  -26.3700   21.5880 C   0  0  0  0  0  2  0  0  0  0  0  0
  -18.3640  -26.4800   22.1630 C   0  0  0  0  0  2  0  0  0  0  0  0
  -19.1690  -28.6650   23.2340 C   0  0  0  0  0  0  0  0  0  0  0  0
  -18.8750  -29.9380   23.7690 C   0  0  0  0  0  3  0  0  0  0  0  0
  -17.5450  -30.3910   23.8560 C   0  0  0  0  0  3  0  0  0  0  0  0
  -16.4920  -29.5680   23.4190 C   0  0  0  0  0  3  0  0  0  0  0  0
  -16.7720  -28.2960   22.8880 C   0  0  0  0  0  3  0  0  0  0  0  0
  -25.8750  -32.4680   23.8540 C   0  0  0  0  0  3  0  0  0  0  0  0
  -25.5610  -33.8670   24.1730 N   0  0  0  0  0  0  0  0  0  0  0  0
  -25.9130  -34.9160   23.4180 C   0  0  0  0  0  0  0  0  0  0  0  0
  -26.6100  -34.8080   22.4060 O   0  0  0  0  0  0  0  0  0  0  0  0
  -24.9430  -34.0230   24.9570 H   0  0  0  0  0  0  0  0  0  0  0  0
  -24.2050  -36.7110   22.9940 C   0  0  0  0  0  1  0  0  0  0  0  0
  -25.4110  -36.3050   23.8560 C   0  0  0  0  0  3  0  0  0  0  0  0
  -27.5140  -37.1810   24.7700 C   0  0  0  0  0  1  0  0  0  0  0  0
  -26.4500  -37.3550   23.7840 N   0  0  0  0  0  0  0  0  0  0  0  0
  -26.0410  -38.2770   23.9160 H   0  0  0  0  0  0  0  0  0  0  0  0
  -26.3930  -31.7060   25.1370 C   0  0  1  0  0  0  0  0  0  0  0  0
  -25.2940  -31.4580   26.1960 C   0  0  0  0  0  1  0  0  0  0  0  0
  -26.9950  -30.3350   24.7510 C   0  0  0  0  0  1  0  0  0  0  0  0
  -27.5280  -32.5160   25.8040 C   0  0  0  0  0  1  0  0  0  0  0  0
  -29.6580  -20.9880   21.8010 C   0  0  0  0  0  2  0  0  0  0  0  0
  -30.5180  -18.6600   21.7210 C   0  0  0  0  0  0  0  0  0  0  0  0
  -30.3660  -19.8760   21.1660 N   0  0  0  0  0  0  0  0  0  0  0  0
  -29.9460  -18.3570   22.7690 O   0  0  0  0  0  0  0  0  0  0  0  0
  -30.8440  -20.0420   20.2900 H   0  0  0  0  0  0  0  0  0  0  0  0
  -32.2890  -18.2660   20.0890 C   0  0  0  0  0  2  0  0  0  0  0  0
  -31.3960  -17.7570   20.9660 C   0  0  0  0  0  0  0  0  0  0  0  0
  -31.2690  -16.2480   21.1980 C   0  0  0  0  0  2  0  0  0  0  0  0
  -32.1870  -14.3420   19.9130 C   0  0  0  0  0  0  0  0  0  0  0  0
  -31.6030  -12.1850   18.9120 C   0  0  0  0  0  2  0  0  0  0  0  0
  -30.6580  -12.4690   17.7260 C   0  0  0  0  0  2  0  0  0  0  0  0
  -29.1910  -12.5370   18.2030 C   0  0  0  0  0  2  0  0  0  0  0  0
  -28.9970  -13.4520   19.4430 C   0  0  0  0  0  3  0  0  0  0  0  0
  -30.0580  -13.1470   20.5240 C   0  0  0  0  0  2  0  0  0  0  0  0
  -31.3840  -13.2510   19.8970 N   0  0  0  0  0  0  0  0  0  0  0  0
  -33.3340  -14.3530   19.4670 O   0  0  0  0  0  0  0  0  0  0  0  0
  -31.5340  -15.5050   19.9680 N   0  0  0  0  0  0  0  0  0  0  0  0
  -31.8860  -16.1300   19.2580 H   0  0  0  0  0  0  0  0  0  0  0  0
  -26.7300  -14.3650   20.2520 C   0  0  0  0  0  0  0  0  0  0  0  0
  -25.5780  -13.7370   20.6490 C   0  0  0  0  0  0  0  0  0  0  0  0
  -25.8500  -12.3360   20.5760 C   0  0  0  0  0  0  0  0  0  0  0  0
  -27.6370  -13.3550   19.9710 N   0  0  0  0  0  0  0  0  0  0  0  0
  -27.1100  -12.1280   20.2180 N   0  0  0  0  0  0  0  0  0  0  0  0
  -24.9660  -11.1800   20.7690 C   0  0  0  0  0  0  0  0  0  0  0  0
  -25.2490  -10.1870   21.7330 C   0  0  0  0  0  3  0  0  0  0  0  0
  -24.3760   -9.0920   21.9120 C   0  0  0  0  0  3  0  0  0  0  0  0
  -23.2030   -8.9840   21.1290 C   0  0  0  0  0  0  0  0  0  0  0  0
  -22.9350   -9.9650   20.1560 C   0  0  0  0  0  3  0  0  0  0  0  0
  -23.8090  -11.0510   19.9750 C   0  0  0  0  0  3  0  0  0  0  0  0
  -22.3090   -7.9440   21.2190 O   0  0  0  0  0  0  0  0  0  0  0  0
  -22.0760   -7.2960   22.4050 C   0  0  0  0  0  0  0  0  0  0  0  0
  -21.6370   -7.9840   23.5590 C   0  0  0  0  0  3  0  0  0  0  0  0
  -21.3440   -7.2670   24.7370 C   0  0  0  0  0  3  0  0  0  0  0  0
  -21.4780   -5.8660   24.7610 C   0  0  0  0  0  0  0  0  0  0  0  0
  -21.9100   -5.1800   23.6130 C   0  0  0  0  0  3  0  0  0  0  0  0
  -22.2060   -5.8940   22.4380 C   0  0  0  0  0  0  0  0  0  0  0  0
  -22.6010   -5.2240   21.3280 F   0  0  0  0  0  0  0  0  0  0  0  0
  -21.1890   -5.1770   25.8900 F   0  0  0  0  0  0  0  0  0  0  0  0
  -24.2690  -14.3940   20.9820 C   0  0  0  0  0  0  0  0  0  0  0  0
  -23.5000  -13.8030   21.8900 N   0  0  0  0  0  0  0  0  0  0  0  0
  -23.9430  -15.4650   20.4750 O   0  0  0  0  0  0  0  0  0  0  0  0
  -23.7790  -12.9390   22.3330 H   0  0  0  0  0  0  0  0  0  0  0  0
  -22.6210  -14.2260   22.1530 H   0  0  0  0  0  0  0  0  0  0  0  0
  -27.0700  -15.7040   20.0860 N   0  0  0  0  0  0  0  0  0  0  0  0
  -26.3820  -16.4460   20.1660 H   0  0  0  0  0  0  0  0  0  0  0  0
  -27.9790  -16.0330   19.7800 H   0  0  0  0  0  0  0  0  0  0  0  0
  1 48  1  0
  1  2  1  0
  2  4  1  0
  2  3  1  0
  5  2  1  0
  6  5  1  0
  7  6  1  0
  8 19  2  0
  9  7  1  0
  9 14  1  0
 10 18  1  0
 10 20  1  0
 11 17  1  0
 11 13  1  0
 12 18  1  0
 13 12  1  0
 14 13  2  0
 15 16  1  0
 15  9  2  0
 16 11  2  0
 17 10  1  0
 18  8  1  0
 20 22  2  0
 21 20  1  0
 23 21  1  0
 24 33  2  0
 24 29  1  0
 25 21  1  0
 25 29  1  0
 26 25  1  0
 27 28  1  0
 27 26  1  0
 28 24  1  0
 29 30  2  0
 30 31  1  0
 32 31  2  0
 33 32  1  0
 34  8  1  0
 34 35  1  0
 34 44  1  0
 35 38  1  0
 36 40  1  0
 36 35  1  0
 37 36  2  0
 40 39  1  0
 42 40  1  0
 42 43  1  0
 42 41  1  0
 44 47  1  1
 44 45  1  0
 46 44  1  0
 49 51  2  0
 50 49  1  0
 50 48  1  0
 52 50  1  0
 53 54  2  0
 54 55  1  0
 54 49  1  0
 56 64  1  0
 57 62  1  0
 58 59  1  0
 58 57  1  0
 60 59  1  0
 60 69  1  0
 60 61  1  0
 62 56  1  0
 62 61  1  0
 63 56  2  0
 64 55  1  0
 65 64  1  0
 66 67  2  0
 67 86  1  0
 68 67  1  0
 68 71  1  0
 69 70  1  0
 69 66  1  0
 70 68  2  0
 71 72  1  0
 72 73  2  0
 74 77  1  0
 74 73  1  0
 75 74  2  0
 76 75  1  0
 76 71  2  0
 77 78  1  0
 78 83  2  0
 78 79  1  0
 79 80  2  0
 80 81  1  0
 81 85  1  0
 82 81  2  0
 83 82  1  0
 84 83  1  0
 86 87  1  0
 87 90  1  0
 87 89  1  0
 88 86  2  0
 91 92  1  0
 91 66  1  0
 93 91  1  0
M  ISO  4   6 101   7 101  56 100  64 100
M  END
>  <TORSDO>  (88) 
F 23

>  <SCORE>  (88) 
-10.626

>  <name>  (88) 
89

>  <ligand_id>  (88) 
89

>  <original_smiles>  (88) 
[H]C([H])=C(C(=O)N([H])C([H])([H])C([H])([H])[N+]([H])([H])C([H])([H])C([H])([H])Oc1c([H])c([H])c2c(c1[H])C([H])([H])N(C(=O)C([H])(N([H])C(=O)C([H])(N([H])C([H])([H])[H])C([H])([H])[H])C(C([H])([H])[H])(C([H])([H])[H])C([H])([H])[H])C([H])(C(=O)N([H])C1([H])c3c([H])c([H])c([H])c([H])c3C([H])([H])C([H])([H])C1([H])[H])C2([H])[H])C([H])([H])N([H])C(=O)N1C([H])([H])C([H])([H])C([H])([H])C([H])(n2nc(-c3c([H])c([H])c(Oc4c([H])c([H])c(F)c([H])c4F)c([H])c3[H])c(C(=O)N([H])[H])c2N([H])[H])C1([H])[H]

>  <smiles>  (88) 
[H]C([H])=C(C(=O)N([H])C([H])([H])C([H])([H])[N+]([H])([H])C([H])([H])C([H])([H])Oc1c([H])c([H])c2c(c1[H])C([H])([H])N(C(=O)C([H])(N([H])C(=O)C([H])(N([H])C([H])([H])[H])C([H])([H])[H])C(C([H])([H])[H])(C([H])([H])[H])C([H])([H])[H])C([H])(C(=O)N([H])C1([H])c3c([H])c([H])c([H])c([H])c3C([H])([H])C([H])([H])C1([H])[H])C2([H])[H])C([H])([H])N([H])C(=O)N1C([H])([H])C([H])([H])C([H])([H])C([H])(n2nc(-c3c([H])c([H])c(Oc4c([H])c([H])c(F)c([H])c4F)c([H])c3[H])c(C(=O)N([H])[H])c2N([H])[H])C1([H])[H]

$$$$
90:0:0
     RDKit          3D

 97104  0  0  1  0  0  0  0  0999 V2000
  -23.3590  -29.3450   24.4270 C   0  0  0  0  0  2  0  0  0  0  0  0
  -22.4150  -30.6540   23.2980 C   0  0  0  0  0  2  0  0  0  0  0  0
  -22.7400  -31.5750   21.8100 N   0  0  0  0  0  4  0  0  0  0  0  0
  -22.8420  -32.4940   22.2180 H   0  0  0  0  0  0  0  0  0  0  0  0
  -21.8520  -31.6440   21.3340 H   0  0  0  0  0  0  0  0  0  0  0  0
  -23.9520  -31.6760   20.5310 C   0  0  0  0  0  2  0  0  0  0  0  0
  -24.8920  -30.5860   19.2980 C   0  0  0  0  0  2  0  0  0  0  0  0
  -26.3140  -29.4010   18.8940 C   0  0  0  0  0  2  0  0  0  0  0  0
  -26.7930  -27.8000   18.4790 O   0  0  0  0  0  0  0  0  0  0  0  0
  -25.5380  -30.2680   23.2600 C   0  0  0  0  0  0  0  0  0  0  0  0
  -26.8480  -26.5620   19.1380 C   0  0  0  0  0  3  0  0  0  0  0  0
  -23.5820  -28.9290   21.4470 C   0  0  0  0  0  3  0  0  0  0  0  0
  -24.6300  -27.4420   20.0220 C   0  0  0  0  0  0  0  0  0  0  0  0
  -26.1570  -28.8280   21.6020 C   0  0  0  0  0  2  0  0  0  0  0  0
  -25.8330  -27.6520   20.7710 C   0  0  0  0  0  0  0  0  0  0  0  0
  -26.9570  -26.9210   20.4430 C   0  0  0  0  0  2  0  0  0  0  0  0
  -25.7150  -25.7950   18.7760 C   0  0  0  0  0  2  0  0  0  0  0  0
  -24.5060  -26.3870   19.1250 C   0  0  0  0  0  2  0  0  0  0  0  0
  -23.5440  -28.3580   20.0610 C   0  0  0  0  0  2  0  0  0  0  0  0
  -25.0320  -29.3520   22.2250 N   0  0  0  0  0  0  0  0  0  0  0  0
  -24.8860  -30.9790   24.0250 O   0  0  0  0  0  0  0  0  0  0  0  0
  -22.5830  -27.9530   22.0240 C   0  0  0  0  0  0  0  0  0  0  0  0
  -21.2640  -28.1820   22.0700 N   0  0  0  0  0  0  0  0  0  0  0  0
  -23.0560  -26.9610   22.4590 O   0  0  0  0  0  0  0  0  0  0  0  0
  -20.8480  -28.9360   21.5430 H   0  0  0  0  0  0  0  0  0  0  0  0
  -17.9020  -27.4330   22.6360 C   0  0  0  0  0  0  0  0  0  0  0  0
  -20.4180  -27.5450   23.0730 C   0  0  0  0  0  3  0  0  0  0  0  0
  -20.4130  -26.0320   22.8040 C   0  0  0  0  0  2  0  0  0  0  0  0
  -19.4890  -25.7090   21.6450 C   0  0  0  0  0  2  0  0  0  0  0  0
  -18.0560  -26.0340   22.0640 C   0  0  0  0  0  2  0  0  0  0  0  0
  -19.0120  -28.1600   23.1310 C   0  0  0  0  0  0  0  0  0  0  0  0
  -18.7770  -29.4400   23.6950 C   0  0  0  0  0  3  0  0  0  0  0  0
  -17.4980  -30.0230   23.6780 C   0  0  0  0  0  3  0  0  0  0  0  0
  -16.4100  -29.2940   23.1750 C   0  0  0  0  0  3  0  0  0  0  0  0
  -16.6110  -27.9940   22.6820 C   0  0  0  0  0  3  0  0  0  0  0  0
  -26.9750  -30.6530   23.6930 C   0  0  0  0  0  3  0  0  0  0  0  0
  -26.9480  -32.0080   24.3690 N   0  0  0  0  0  0  0  0  0  0  0  0
  -27.1250  -33.2140   23.8250 C   0  0  0  0  0  0  0  0  0  0  0  0
  -27.5470  -33.3430   22.6790 O   0  0  0  0  0  0  0  0  0  0  0  0
  -26.5640  -31.9920   25.3030 H   0  0  0  0  0  0  0  0  0  0  0  0
  -25.5880  -35.2150   24.1660 C   0  0  0  0  0  1  0  0  0  0  0  0
  -26.8260  -34.4660   24.6900 C   0  0  0  0  0  3  0  0  0  0  0  0
  -29.1120  -34.8680   25.4870 C   0  0  0  0  0  1  0  0  0  0  0  0
  -27.9660  -35.4050   24.7580 N   0  0  0  0  0  0  0  0  0  0  0  0
  -27.6880  -36.2750   25.2030 H   0  0  0  0  0  0  0  0  0  0  0  0
  -27.4720  -29.6220   24.7820 C   0  0  1  0  0  0  0  0  0  0  0  0
  -26.5590  -29.3650   26.0240 C   0  0  0  0  0  1  0  0  0  0  0  0
  -27.7930  -28.2430   24.1800 C   0  0  0  0  0  1  0  0  0  0  0  0
  -28.8050  -30.1550   25.3350 C   0  0  0  0  0  1  0  0  0  0  0  0
  -24.1740  -27.6300   24.6850 C   0  0  0  0  0  2  0  0  0  0  0  0
  -25.5650  -26.7940   24.1340 N   0  0  0  0  0  4  0  0  0  0  0  0
  -25.7780  -27.3710   23.3260 H   0  0  0  0  0  0  0  0  0  0  0  0
  -26.2900  -26.9560   24.8110 H   0  0  0  0  0  0  0  0  0  0  0  0
  -25.8060  -25.2200   23.5500 C   0  0  0  0  0  2  0  0  0  0  0  0
  -27.2900  -24.3140   22.9290 C   0  0  0  0  0  3  0  0  0  0  0  0
  -27.6060  -22.8620   21.8280 C   0  0  0  0  0  3  0  0  0  0  0  0
  -29.0380  -21.7890   21.3640 C   0  0  0  0  0  2  0  0  0  0  0  0
  -29.4880  -20.6370   19.9890 C   0  0  0  0  0  3  0  0  0  0  0  0
  -30.7630  -19.3340   19.6960 C   0  0  0  0  0  3  0  0  0  0  0  0
  -32.1510  -17.2840   17.9230 C   0  0  0  0  0  0  0  0  0  0  0  0
  -33.7960  -16.1770   16.1760 C   0  0  0  0  0  2  0  0  0  0  0  0
  -35.0280  -17.0510   15.7950 C   0  0  0  0  0  2  0  0  0  0  0  0
  -34.6520  -18.1190   14.7530 C   0  0  0  0  0  2  0  0  0  0  0  0
  -33.3010  -18.7830   15.1080 C   0  0  0  0  0  3  0  0  0  0  0  0
  -32.1960  -17.7590   15.4070 C   0  0  0  0  0  2  0  0  0  0  0  0
  -32.6270  -17.0510   16.6030 N   0  0  0  0  0  0  0  0  0  0  0  0
  -32.5510  -16.3970   18.7050 O   0  0  0  0  0  0  0  0  0  0  0  0
  -31.3690  -18.5110   18.3330 N   0  0  0  0  0  0  0  0  0  0  0  0
  -31.1740  -19.0490   17.5000 H   0  0  0  0  0  0  0  0  0  0  0  0
  -32.5220  -21.0600   14.3030 C   0  0  0  0  0  0  0  0  0  0  0  0
  -32.2060  -21.5380   13.0640 C   0  0  0  0  0  0  0  0  0  0  0  0
  -32.3540  -20.4370   12.1640 C   0  0  0  0  0  0  0  0  0  0  0  0
  -32.8540  -19.7330   14.1140 N   0  0  0  0  0  0  0  0  0  0  0  0
  -32.6850  -19.3380   12.8280 N   0  0  0  0  0  0  0  0  0  0  0  0
  -32.2620  -20.3840   10.7020 C   0  0  0  0  0  0  0  0  0  0  0  0
  -31.4000  -19.4780   10.0470 C   0  0  0  0  0  3  0  0  0  0  0  0
  -31.3170  -19.4630    8.6390 C   0  0  0  0  0  3  0  0  0  0  0  0
  -32.0990  -20.3600    7.8730 C   0  0  0  0  0  0  0  0  0  0  0  0
  -32.9740  -21.2420    8.5300 C   0  0  0  0  0  3  0  0  0  0  0  0
  -33.0590  -21.2530    9.9310 C   0  0  0  0  0  3  0  0  0  0  0  0
  -32.1030  -20.4000    6.5000 O   0  0  0  0  0  0  0  0  0  0  0  0
  -31.0000  -20.0430    5.7660 C   0  0  0  0  0  0  0  0  0  0  0  0
  -29.7510  -20.6790    5.9420 C   0  0  0  0  0  3  0  0  0  0  0  0
  -28.6620  -20.3300    5.1190 C   0  0  0  0  0  3  0  0  0  0  0  0
  -28.8210  -19.3560    4.1150 C   0  0  0  0  0  0  0  0  0  0  0  0
  -30.0650  -18.7260    3.9360 C   0  0  0  0  0  3  0  0  0  0  0  0
  -31.1520  -19.0720    4.7570 C   0  0  0  0  0  0  0  0  0  0  0  0
  -32.3550  -18.4770    4.5660 F   0  0  0  0  0  0  0  0  0  0  0  0
  -27.7780  -19.0260    3.3200 F   0  0  0  0  0  0  0  0  0  0  0  0
  -31.8840  -22.9610   12.7210 C   0  0  0  0  0  0  0  0  0  0  0  0
  -31.0580  -23.1730   11.7030 N   0  0  0  0  0  0  0  0  0  0  0  0
  -32.3250  -23.8930   13.3910 O   0  0  0  0  0  0  0  0  0  0  0  0
  -30.6800  -22.4060   11.1670 H   0  0  0  0  0  0  0  0  0  0  0  0
  -30.7990  -24.1180   11.4540 H   0  0  0  0  0  0  0  0  0  0  0  0
  -32.5790  -21.6430   15.5680 N   0  0  0  0  0  0  0  0  0  0  0  0
  -32.4180  -22.6350   15.7050 H   0  0  0  0  0  0  0  0  0  0  0  0
  -32.9420  -21.1850   16.3940 H   0  0  0  0  0  0  0  0  0  0  0  0
  1 50  1  0
  2  1  1  0
  3  4  1  0
  3  2  1  0
  5  3  1  0
  6  3  1  0
  7  6  1  0
  8  7  1  0
  9  8  1  0
 10 21  2  0
 11  9  1  0
 11 16  1  0
 12 22  1  0
 12 20  1  0
 13 19  1  0
 13 15  2  0
 14 20  1  0
 15 14  1  0
 16 15  1  0
 17 18  1  0
 17 11  1  0
 18 13  1  0
 19 12  1  0
 20 10  1  0
 22 23  1  0
 22 24  2  0
 25 23  1  0
 26 35  2  0
 26 31  1  0
 27 23  1  0
 27 31  1  0
 28 27  1  0
 29 30  1  0
 29 28  1  0
 30 26  1  0
 31 32  2  0
 33 32  1  0
 34 33  2  0
 35 34  1  0
 36 10  1  0
 36 37  1  0
 36 46  1  0
 37 40  1  0
 38 37  1  0
 38 42  1  0
 39 38  2  0
 42 41  1  0
 42 44  1  0
 44 45  1  0
 44 43  1  0
 46 49  1  1
 46 47  1  0
 48 46  1  0
 51 50  1  0
 51 53  1  0
 52 51  1  0
 54 51  1  0
 55 54  1  0
 56 55  2  0
 57 56  1  0
 58 57  1  0
 59 58  2  0
 60 68  1  0
 60 67  2  0
 61 66  1  0
 62 61  1  0
 63 64  1  0
 63 62  1  0
 64 73  1  0
 64 65  1  0
 65 66  1  0
 66 60  1  0
 68 59  1  0
 69 68  1  0
 70 95  1  0
 71 70  2  0
 72 74  2  0
 72 71  1  0
 73 70  1  0
 74 73  1  0
 75 72  1  0
 76 75  1  0
 77 76  2  0
 78 79  2  0
 78 77  1  0
 79 80  1  0
 80 75  2  0
 81 78  1  0
 82 83  1  0
 82 81  1  0
 84 83  2  0
 85 84  1  0
 86 85  2  0
 86 87  1  0
 87 82  2  0
 88 87  1  0
 89 85  1  0
 90 71  1  0
 90 92  2  0
 91 90  1  0
 93 91  1  0
 94 91  1  0
 95 96  1  0
 95 97  1  0
M  ISO  4   8 101   9 101  60 100  68 100
M  END
>  <TORSDO>  (89) 
F 29

>  <SCORE>  (89) 
-3.650

>  <name>  (89) 
90

>  <ligand_id>  (89) 
90

>  <original_smiles>  (89) 
[H]c1c([H])c([H])c2c(c1[H])C([H])([H])C([H])([H])C([H])([H])C2([H])N([H])C(=O)C1([H])N(C(=O)C([H])(N([H])C(=O)C([H])(N([H])C([H])([H])[H])C([H])([H])[H])C(C([H])([H])[H])(C([H])([H])[H])C([H])([H])[H])C([H])([H])c2c([H])c(OC([H])([H])C([H])([H])C([H])([H])[N+]([H])([H])C([H])([H])C([H])([H])C([H])([H])[N+]([H])([H])C([H])([H])C([H])([H])C([H])([H])C([H])([H])C([H])([H])C([H])([H])N([H])C(=O)N3C([H])([H])C([H])([H])C([H])([H])C([H])(n4nc(-c5c([H])c([H])c(Oc6c([H])c([H])c(F)c([H])c6F)c([H])c5[H])c(C(=O)N([H])[H])c4N([H])[H])C3([H])[H])c([H])c([H])c2C1([H])[H]

>  <smiles>  (89) 
[H]c1c([H])c([H])c2c(c1[H])C([H])([H])C([H])([H])C([H])([H])C2([H])N([H])C(=O)C1([H])N(C(=O)C([H])(N([H])C(=O)C([H])(N([H])C([H])([H])[H])C([H])([H])[H])C(C([H])([H])[H])(C([H])([H])[H])C([H])([H])[H])C([H])([H])c2c([H])c(OC([H])([H])C([H])([H])C([H])([H])[N+]([H])([H])C([H])([H])C([H])([H])C([H])([H])[N+]([H])([H])C([H])([H])C([H])([H])C([H])([H])C([H])([H])C([H])([H])C([H])([H])N([H])C(=O)N3C([H])([H])C([H])([H])C([H])([H])C([H])(n4nc(-c5c([H])c([H])c(Oc6c([H])c([H])c(F)c([H])c6F)c([H])c5[H])c(C(=O)N([H])[H])c4N([H])[H])C3([H])[H])c([H])c([H])c2C1([H])[H]

$$$$
91:0:0
     RDKit          3D

 98105  0  0  1  0  0  0  0  0999 V2000
  -33.2490  -25.8080   21.2780 C   0  0  0  0  0  2  0  0  0  0  0  0
  -33.3410  -27.1560   20.5350 C   0  0  0  0  0  2  0  0  0  0  0  0
  -32.7400  -28.3470   21.3180 C   0  0  0  0  0  2  0  0  0  0  0  0
  -31.3920  -28.7250   20.8420 N   0  0  0  0  0  4  0  0  0  0  0  0
  -31.4600  -28.9290   19.8570 H   0  0  0  0  0  0  0  0  0  0  0  0
  -31.1350  -29.5900   21.2930 H   0  0  0  0  0  0  0  0  0  0  0  0
  -30.3010  -27.7400   21.0670 C   0  0  0  0  0  2  0  0  0  0  0  0
  -29.4840  -27.5130   19.7810 C   0  0  0  0  0  2  0  0  0  0  0  0
  -28.2720  -26.7910   20.0190 O   0  0  0  0  0  0  0  0  0  0  0  0
  -24.4970  -31.9320   23.2290 C   0  0  0  0  0  0  0  0  0  0  0  0
  -27.1130  -27.5280   20.1130 C   0  0  0  0  0  0  0  0  0  0  0  0
  -23.2600  -30.5350   21.5970 C   0  0  0  0  0  3  0  0  0  0  0  0
  -24.6920  -28.9900   20.1640 C   0  0  0  0  0  0  0  0  0  0  0  0
  -25.7760  -30.9020   21.3640 C   0  0  0  0  0  2  0  0  0  0  0  0
  -25.8510  -29.5300   20.7320 C   0  0  0  0  0  0  0  0  0  0  0  0
  -27.0570  -28.8090   20.7110 C   0  0  0  0  0  3  0  0  0  0  0  0
  -25.9300  -26.9790   19.5720 C   0  0  0  0  0  3  0  0  0  0  0  0
  -24.7230  -27.7070   19.5840 C   0  0  0  0  0  3  0  0  0  0  0  0
  -23.4500  -29.8480   20.2170 C   0  0  0  0  0  2  0  0  0  0  0  0
  -24.5300  -31.1360   22.1230 N   0  0  0  0  0  0  0  0  0  0  0  0
  -23.4250  -32.2060   23.7850 O   0  0  0  0  0  0  0  0  0  0  0  0
  -22.6190  -29.5180   22.5670 C   0  0  0  0  0  0  0  0  0  0  0  0
  -21.2960  -29.3280   22.4410 N   0  0  0  0  0  0  0  0  0  0  0  0
  -23.3060  -28.9030   23.3870 O   0  0  0  0  0  0  0  0  0  0  0  0
  -20.8020  -29.8790   21.7530 H   0  0  0  0  0  0  0  0  0  0  0  0
  -17.9280  -28.1270   22.9470 C   0  0  0  0  0  0  0  0  0  0  0  0
  -20.4860  -28.3920   23.2180 C   0  0  0  0  0  3  0  0  0  0  0  0
  -20.5900  -26.9570   22.6490 C   0  0  0  0  0  2  0  0  0  0  0  0
  -19.4890  -26.6280   21.6360 C   0  0  0  0  0  2  0  0  0  0  0  0
  -18.1070  -26.7740   22.2800 C   0  0  0  0  0  2  0  0  0  0  0  0
  -19.0450  -28.8930   23.3730 C   0  0  0  0  0  0  0  0  0  0  0  0
  -18.8230  -30.1610   23.9530 C   0  0  0  0  0  3  0  0  0  0  0  0
  -17.5170  -30.6600   24.1150 C   0  0  0  0  0  3  0  0  0  0  0  0
  -16.4160  -29.8910   23.7050 C   0  0  0  0  0  3  0  0  0  0  0  0
  -16.6210  -28.6280   23.1250 C   0  0  0  0  0  3  0  0  0  0  0  0
  -25.7970  -32.5510   23.8350 C   0  0  0  0  0  3  0  0  0  0  0  0
  -25.5080  -33.9520   24.1600 N   0  0  0  0  0  0  0  0  0  0  0  0
  -25.8700  -34.9970   23.4030 C   0  0  0  0  0  0  0  0  0  0  0  0
  -26.5530  -34.8790   22.3820 O   0  0  0  0  0  0  0  0  0  0  0  0
  -24.9120  -34.1200   24.9580 H   0  0  0  0  0  0  0  0  0  0  0  0
  -24.2010  -36.8300   22.9900 C   0  0  0  0  0  1  0  0  0  0  0  0
  -25.3970  -36.3930   23.8500 C   0  0  0  0  0  3  0  0  0  0  0  0
  -27.5150  -37.2200   24.7740 C   0  0  0  0  0  1  0  0  0  0  0  0
  -26.4590  -37.4210   23.7860 N   0  0  0  0  0  0  0  0  0  0  0  0
  -26.0680  -38.3510   23.9250 H   0  0  0  0  0  0  0  0  0  0  0  0
  -26.3220  -31.7750   25.1060 C   0  0  1  0  0  0  0  0  0  0  0  0
  -25.2380  -31.5430   26.1840 C   0  0  0  0  0  1  0  0  0  0  0  0
  -26.8930  -30.3950   24.7030 C   0  0  0  0  0  1  0  0  0  0  0  0
  -27.4830  -32.5610   25.7580 C   0  0  0  0  0  1  0  0  0  0  0  0
  -32.6330  -24.6780   20.4380 C   0  0  0  0  0  2  0  0  0  0  0  0
  -32.5750  -23.3790   21.2470 C   0  0  0  0  0  2  0  0  0  0  0  0
  -31.9260  -22.3170   20.4930 N   0  0  0  0  0  0  0  0  0  0  0  0
  -32.4510  -22.1440   19.6360 H   0  0  0  0  0  0  0  0  0  0  0  0
  -31.9340  -21.1130   21.3170 C   0  0  0  0  0  2  0  0  0  0  0  0
  -31.2330  -19.9320   20.6230 C   0  0  0  0  0  2  0  0  0  0  0  0
  -31.1870  -18.7680   21.5260 N   0  0  0  0  0  4  0  0  0  0  0  0
  -32.1190  -18.6010   21.8660 H   0  0  0  0  0  0  0  0  0  0  0  0
  -30.6080  -19.0000   22.3180 H   0  0  0  0  0  0  0  0  0  0  0  0
  -30.6790  -17.5260   20.9150 C   0  0  0  0  0  2  0  0  0  0  0  0
  -30.9360  -16.3090   21.8250 C   0  0  0  0  0  2  0  0  0  0  0  0
  -30.7180  -14.3900   20.2410 C   0  0  0  0  0  0  0  0  0  0  0  0
  -30.3250  -12.3540   18.9070 C   0  0  0  0  0  2  0  0  0  0  0  0
  -29.3250  -12.6070   17.7630 C   0  0  0  0  0  2  0  0  0  0  0  0
  -27.8770  -12.4260   18.2540 C   0  0  0  0  0  2  0  0  0  0  0  0
  -27.5900  -13.2220   19.5540 C   0  0  0  0  0  3  0  0  0  0  0  0
  -28.6860  -12.9480   20.6090 C   0  0  0  0  0  2  0  0  0  0  0  0
  -30.0000  -13.2640   20.0140 N   0  0  0  0  0  0  0  0  0  0  0  0
  -31.6870  -14.7410   19.5600 O   0  0  0  0  0  0  0  0  0  0  0  0
  -30.3230  -15.0900   21.3080 N   0  0  0  0  0  0  0  0  0  0  0  0
  -29.5410  -14.7100   21.8210 H   0  0  0  0  0  0  0  0  0  0  0  0
  -25.1960  -13.7860   20.3250 C   0  0  0  0  0  0  0  0  0  0  0  0
  -24.1640  -12.9930   20.7520 C   0  0  0  0  0  0  0  0  0  0  0  0
  -24.6630  -11.6550   20.7410 C   0  0  0  0  0  0  0  0  0  0  0  0
  -26.2590  -12.9280   20.0820 N   0  0  0  0  0  0  0  0  0  0  0  0
  -25.9410  -11.6440   20.3870 N   0  0  0  0  0  0  0  0  0  0  0  0
  -23.9800  -10.3780   20.9850 C   0  0  0  0  0  0  0  0  0  0  0  0
  -24.4020   -9.5010   22.0070 C   0  0  0  0  0  3  0  0  0  0  0  0
  -23.7210   -8.2870   22.2350 C   0  0  0  0  0  3  0  0  0  0  0  0
  -22.6020   -7.9390   21.4400 C   0  0  0  0  0  0  0  0  0  0  0  0
  -22.2010   -8.8060   20.4080 C   0  0  0  0  0  3  0  0  0  0  0  0
  -22.8840  -10.0110   20.1800 C   0  0  0  0  0  3  0  0  0  0  0  0
  -21.8930   -6.7700   21.5730 O   0  0  0  0  0  0  0  0  0  0  0  0
  -21.7450   -6.1520   22.7890 C   0  0  0  0  0  0  0  0  0  0  0  0
  -21.1460   -6.8050   23.8890 C   0  0  0  0  0  3  0  0  0  0  0  0
  -20.9500   -6.1090   25.0990 C   0  0  0  0  0  3  0  0  0  0  0  0
  -21.3430   -4.7610   25.2080 C   0  0  0  0  0  0  0  0  0  0  0  0
  -21.9340   -4.1080   24.1130 C   0  0  0  0  0  3  0  0  0  0  0  0
  -22.1320   -4.8020   22.9060 C   0  0  0  0  0  0  0  0  0  0  0  0
  -22.6820   -4.1620   21.8460 F   0  0  0  0  0  0  0  0  0  0  0  0
  -21.1470   -4.0900   26.3670 F   0  0  0  0  0  0  0  0  0  0  0  0
  -22.7620  -13.4370   21.0590 C   0  0  0  0  0  0  0  0  0  0  0  0
  -22.0760  -12.7330   21.9530 N   0  0  0  0  0  0  0  0  0  0  0  0
  -22.2810  -14.4440   20.5400 O   0  0  0  0  0  0  0  0  0  0  0  0
  -22.4770  -11.9200   22.3990 H   0  0  0  0  0  0  0  0  0  0  0  0
  -21.1370  -13.0120   22.1970 H   0  0  0  0  0  0  0  0  0  0  0  0
  -25.3120  -15.1550   20.1090 N   0  0  0  0  0  0  0  0  0  0  0  0
  -24.5280  -15.7870   20.2140 H   0  0  0  0  0  0  0  0  0  0  0  0
  -26.1390  -15.6100   19.7400 H   0  0  0  0  0  0  0  0  0  0  0  0
  2  1  1  0
  2  3  1  0
  4  7  1  0
  4  6  1  0
  4  3  1  0
  5  4  1  0
  8  9  1  0
  8  7  1  0
  9 11  1  0
 10 21  2  0
 11 16  1  0
 12 20  1  0
 12 22  1  0
 13 19  1  0
 13 15  1  0
 14 20  1  0
 15 14  1  0
 16 15  2  0
 17 18  1  0
 17 11  2  0
 18 13  2  0
 19 12  1  0
 20 10  1  0
 22 24  2  0
 23 22  1  0
 25 23  1  0
 26 35  2  0
 26 31  1  0
 27 23  1  0
 27 31  1  0
 28 27  1  0
 29 30  1  0
 29 28  1  0
 30 26  1  0
 31 32  2  0
 32 33  1  0
 34 33  2  0
 35 34  1  0
 36 10  1  0
 36 37  1  0
 36 46  1  0
 37 40  1  0
 38 42  1  0
 38 37  1  0
 39 38  2  0
 42 41  1  0
 44 42  1  0
 44 45  1  0
 44 43  1  0
 46 49  1  1
 46 47  1  0
 48 46  1  0
 50 51  1  0
 50  1  1  0
 52 51  1  0
 52 54  1  0
 53 52  1  0
 55 54  1  0
 55 56  1  0
 56 57  1  0
 56 58  1  0
 59 56  1  0
 59 60  1  0
 61 69  1  0
 62 67  1  0
 63 64  1  0
 63 62  1  0
 65 64  1  0
 65 74  1  0
 65 66  1  0
 67 61  1  0
 67 66  1  0
 68 61  2  0
 69 70  1  0
 69 60  1  0
 71 72  2  0
 72 91  1  0
 73 72  1  0
 73 76  1  0
 74 71  1  0
 74 75  1  0
 75 73  2  0
 76 77  1  0
 77 78  2  0
 79 82  1  0
 79 78  1  0
 80 79  2  0
 81 80  1  0
 81 76  2  0
 82 83  1  0
 83 88  2  0
 83 84  1  0
 84 85  2  0
 85 86  1  0
 86 90  1  0
 87 86  2  0
 88 87  1  0
 89 88  1  0
 91 92  1  0
 92 95  1  0
 92 94  1  0
 93 91  2  0
 96 97  1  0
 96 71  1  0
 98 96  1  0
M  ISO  4   8 101   9 101  61 100  69 100
M  END
>  <TORSDO>  (90) 
F 29

>  <SCORE>  (90) 
-9.417

>  <name>  (90) 
91

>  <ligand_id>  (90) 
91

>  <original_smiles>  (90) 
[H]c1c([H])c([H])c2c(c1[H])C([H])([H])C([H])([H])C([H])([H])C2([H])N([H])C(=O)C1([H])N(C(=O)C([H])(N([H])C(=O)C([H])(N([H])C([H])([H])[H])C([H])([H])[H])C(C([H])([H])[H])(C([H])([H])[H])C([H])([H])[H])C([H])([H])c2c([H])c(OC([H])([H])C([H])([H])[N+]([H])([H])C([H])([H])C([H])([H])C([H])([H])C([H])([H])C([H])([H])N([H])C([H])([H])C([H])([H])[N+]([H])([H])C([H])([H])C([H])([H])N([H])C(=O)N3C([H])([H])C([H])([H])C([H])([H])C([H])(n4nc(-c5c([H])c([H])c(Oc6c([H])c([H])c(F)c([H])c6F)c([H])c5[H])c(C(=O)N([H])[H])c4N([H])[H])C3([H])[H])c([H])c([H])c2C1([H])[H]

>  <smiles>  (90) 
[H]c1c([H])c([H])c2c(c1[H])C([H])([H])C([H])([H])C([H])([H])C2([H])N([H])C(=O)C1([H])N(C(=O)C([H])(N([H])C(=O)C([H])(N([H])C([H])([H])[H])C([H])([H])[H])C(C([H])([H])[H])(C([H])([H])[H])C([H])([H])[H])C([H])([H])c2c([H])c(OC([H])([H])C([H])([H])[N+]([H])([H])C([H])([H])C([H])([H])C([H])([H])C([H])([H])C([H])([H])N([H])C([H])([H])C([H])([H])[N+]([H])([H])C([H])([H])C([H])([H])N([H])C(=O)N3C([H])([H])C([H])([H])C([H])([H])C([H])(n4nc(-c5c([H])c([H])c(Oc6c([H])c([H])c(F)c([H])c6F)c([H])c5[H])c(C(=O)N([H])[H])c4N([H])[H])C3([H])[H])c([H])c([H])c2C1([H])[H]

$$$$
92:0:0
     RDKit          3D

101108  0  0  1  0  0  0  0  0999 V2000
  -29.4660  -19.5540   18.6800 C   0  0  0  0  0  3  0  0  0  0  0  0
  -30.3110  -18.6750   19.5100 N   0  0  0  0  0  4  0  0  0  0  0  0
  -31.2640  -18.7840   19.2060 H   0  0  0  0  0  0  0  0  0  0  0  0
  -30.2520  -19.0460   20.4440 H   0  0  0  0  0  0  0  0  0  0  0  0
  -29.9660  -17.2430   19.6100 C   0  0  0  0  0  2  0  0  0  0  0  0
  -30.3280  -16.7240   21.0270 C   0  0  0  0  0  2  0  0  0  0  0  0
  -30.7050  -14.3500   20.4850 C   0  0  0  0  0  0  0  0  0  0  0  0
  -30.3580  -12.2840   19.2230 C   0  0  0  0  0  2  0  0  0  0  0  0
  -29.3930  -12.5710   18.0560 C   0  0  0  0  0  2  0  0  0  0  0  0
  -27.9220  -12.4360   18.5030 C   0  0  0  0  0  2  0  0  0  0  0  0
  -27.6200  -13.2160   19.8110 C   0  0  0  0  0  3  0  0  0  0  0  0
  -28.6870  -12.9040   20.8890 C   0  0  0  0  0  2  0  0  0  0  0  0
  -30.0150  -13.1970   20.3210 N   0  0  0  0  0  0  0  0  0  0  0  0
  -31.7710  -14.6010   19.9140 O   0  0  0  0  0  0  0  0  0  0  0  0
  -30.0590  -15.2950   21.1750 N   0  0  0  0  0  0  0  0  0  0  0  0
  -29.2450  -15.0150   21.7050 H   0  0  0  0  0  0  0  0  0  0  0  0
  -25.2240  -13.8380   20.5310 C   0  0  0  0  0  0  0  0  0  0  0  0
  -24.1590  -13.0710   20.9120 C   0  0  0  0  0  0  0  0  0  0  0  0
  -24.6130  -11.7150   20.8670 C   0  0  0  0  0  0  0  0  0  0  0  0
  -26.2670  -12.9540   20.2930 N   0  0  0  0  0  0  0  0  0  0  0  0
  -25.8980  -11.6710   20.5450 N   0  0  0  0  0  0  0  0  0  0  0  0
  -23.8830  -10.4570   21.0650 C   0  0  0  0  0  0  0  0  0  0  0  0
  -24.3300   -9.4760   21.9800 C   0  0  0  0  0  3  0  0  0  0  0  0
  -23.6000   -8.2830   22.1650 C   0  0  0  0  0  3  0  0  0  0  0  0
  -22.4090   -8.0570   21.4330 C   0  0  0  0  0  0  0  0  0  0  0  0
  -21.9790   -9.0270   20.5100 C   0  0  0  0  0  3  0  0  0  0  0  0
  -22.7090  -10.2130   20.3240 C   0  0  0  0  0  3  0  0  0  0  0  0
  -21.6510   -6.9150   21.5260 O   0  0  0  0  0  0  0  0  0  0  0  0
  -21.6330   -6.1540   22.6670 C   0  0  0  0  0  0  0  0  0  0  0  0
  -21.2560   -6.6930   23.9160 C   0  0  0  0  0  3  0  0  0  0  0  0
  -21.1800   -5.8600   25.0490 C   0  0  0  0  0  3  0  0  0  0  0  0
  -21.4780   -4.4880   24.9360 C   0  0  0  0  0  0  0  0  0  0  0  0
  -21.8530   -3.9490   23.6940 C   0  0  0  0  0  3  0  0  0  0  0  0
  -21.9280   -4.7780   22.5600 C   0  0  0  0  0  0  0  0  0  0  0  0
  -22.2660   -4.2510   21.3600 F   0  0  0  0  0  0  0  0  0  0  0  0
  -21.4030   -3.6860   26.0240 F   0  0  0  0  0  0  0  0  0  0  0  0
  -22.7680  -13.5500   21.2080 C   0  0  0  0  0  0  0  0  0  0  0  0
  -22.0530  -12.8550   22.0850 N   0  0  0  0  0  0  0  0  0  0  0  0
  -22.3260  -14.5790   20.6970 O   0  0  0  0  0  0  0  0  0  0  0  0
  -22.4320  -12.0220   22.5090 H   0  0  0  0  0  0  0  0  0  0  0  0
  -21.1230  -13.1610   22.3330 H   0  0  0  0  0  0  0  0  0  0  0  0
  -25.3960  -15.2090   20.3530 N   0  0  0  0  0  0  0  0  0  0  0  0
  -24.6330  -15.8670   20.4700 H   0  0  0  0  0  0  0  0  0  0  0  0
  -26.2480  -15.6440   20.0240 H   0  0  0  0  0  0  0  0  0  0  0  0
  -30.3770  -21.9760   18.6220 C   0  0  0  0  0  3  0  0  0  0  0  0
  -29.7030  -20.9680   19.2030 C   0  0  0  0  0  3  0  0  0  0  0  0
  -30.6190  -23.3140   19.2980 C   0  0  0  0  0  2  0  0  0  0  0  0
  -29.8720  -24.4280   18.6750 N   0  0  0  0  0  4  0  0  0  0  0  0
  -28.8900  -24.3050   18.8710 H   0  0  0  0  0  0  0  0  0  0  0  0
  -29.9890  -24.3880   17.6730 H   0  0  0  0  0  0  0  0  0  0  0  0
  -30.3270  -25.7550   19.1640 C   0  0  0  0  0  2  0  0  0  0  0  0
  -29.2530  -26.8500   19.0810 C   0  0  0  0  0  2  0  0  0  0  0  0
  -28.4260  -26.7140   20.2260 O   0  0  0  0  0  0  0  0  0  0  0  0
  -24.6070  -31.8970   23.2400 C   0  0  0  0  0  0  0  0  0  0  0  0
  -27.2830  -27.4640   20.2000 C   0  0  0  0  0  0  0  0  0  0  0  0
  -23.4140  -30.4740   21.6020 C   0  0  0  0  0  3  0  0  0  0  0  0
  -24.8830  -28.9360   20.1950 C   0  0  0  0  0  0  0  0  0  0  0  0
  -25.9340  -30.8530   21.4090 C   0  0  0  0  0  2  0  0  0  0  0  0
  -26.0330  -29.4760   20.7870 C   0  0  0  0  0  0  0  0  0  0  0  0
  -27.2370  -28.7400   20.8000 C   0  0  0  0  0  3  0  0  0  0  0  0
  -26.1210  -26.9270   19.6140 C   0  0  0  0  0  3  0  0  0  0  0  0
  -24.9170  -27.6560   19.6130 C   0  0  0  0  0  3  0  0  0  0  0  0
  -23.6330  -29.7840   20.2280 C   0  0  0  0  0  2  0  0  0  0  0  0
  -24.6700  -31.0890   22.1420 N   0  0  0  0  0  0  0  0  0  0  0  0
  -23.5240  -32.1660   23.7740 O   0  0  0  0  0  0  0  0  0  0  0  0
  -22.7670  -29.4570   22.5680 C   0  0  0  0  0  0  0  0  0  0  0  0
  -21.4420  -29.2730   22.4420 N   0  0  0  0  0  0  0  0  0  0  0  0
  -23.4510  -28.8370   23.3870 O   0  0  0  0  0  0  0  0  0  0  0  0
  -20.9510  -29.8260   21.7540 H   0  0  0  0  0  0  0  0  0  0  0  0
  -18.0690  -28.0870   22.9450 C   0  0  0  0  0  0  0  0  0  0  0  0
  -20.6270  -28.3380   23.2160 C   0  0  0  0  0  3  0  0  0  0  0  0
  -20.7250  -26.9050   22.6420 C   0  0  0  0  0  2  0  0  0  0  0  0
  -19.6220  -26.5840   21.6290 C   0  0  0  0  0  2  0  0  0  0  0  0
  -18.2420  -26.7360   22.2730 C   0  0  0  0  0  2  0  0  0  0  0  0
  -19.1890  -28.8470   23.3730 C   0  0  0  0  0  0  0  0  0  0  0  0
  -18.9750  -30.1130   23.9580 C   0  0  0  0  0  3  0  0  0  0  0  0
  -17.6720  -30.6190   24.1210 C   0  0  0  0  0  3  0  0  0  0  0  0
  -16.5640  -29.8560   23.7090 C   0  0  0  0  0  3  0  0  0  0  0  0
  -16.7650  -28.5910   23.1260 C   0  0  0  0  0  3  0  0  0  0  0  0
  -25.8910  -32.5360   23.8580 C   0  0  0  0  0  3  0  0  0  0  0  0
  -25.5760  -33.9360   24.1730 N   0  0  0  0  0  0  0  0  0  0  0  0
  -25.9150  -34.9810   23.4050 C   0  0  0  0  0  0  0  0  0  0  0  0
  -26.5920  -34.8690   22.3810 O   0  0  0  0  0  0  0  0  0  0  0  0
  -24.9730  -34.0990   24.9660 H   0  0  0  0  0  0  0  0  0  0  0  0
  -24.1850  -36.7650   23.0140 C   0  0  0  0  0  1  0  0  0  0  0  0
  -25.4180  -36.3740   23.8430 C   0  0  0  0  0  3  0  0  0  0  0  0
  -27.5440  -37.2670   24.6850 C   0  0  0  0  0  1  0  0  0  0  0  0
  -26.4490  -37.4270   23.7320 N   0  0  0  0  0  0  0  0  0  0  0  0
  -26.0410  -38.3460   23.8720 H   0  0  0  0  0  0  0  0  0  0  0  0
  -26.4090  -31.7770   25.1400 C   0  0  1  0  0  0  0  0  0  0  0  0
  -25.3170  -31.5440   26.2100 C   0  0  0  0  0  1  0  0  0  0  0  0
  -26.9950  -30.3990   24.7540 C   0  0  0  0  0  1  0  0  0  0  0  0
  -27.5560  -32.5800   25.7950 C   0  0  0  0  0  1  0  0  0  0  0  0
  -29.6810  -19.3510   17.1590 C   0  0  0  0  0  2  0  0  0  0  0  0
  -31.0940  -19.2200   16.7590 N   0  0  0  0  0  0  0  0  0  0  0  0
  -31.4450  -18.3010   17.0240 H   0  0  0  0  0  0  0  0  0  0  0  0
  -31.2750  -20.8390   14.9060 C   0  0  0  0  0  1  0  0  0  0  0  0
  -31.2650  -19.3530   15.3040 C   0  0  0  0  0  3  0  0  0  0  0  0
  -32.5140  -18.5940   14.7990 C   0  0  0  0  0  2  0  0  0  0  0  0
  -33.5420  -17.7510   12.8180 C   0  0  0  0  0  1  0  0  0  0  0  0
  -32.4650  -18.4930   13.3780 O   0  0  0  0  0  0  0  0  0  0  0  0
  1 94  1  0
  1 46  1  0
  1  2  1  0
  2  5  1  0
  2  4  1  0
  3  2  1  0
  5  6  1  0
  6 15  1  0
  7 15  1  0
  8 13  1  0
  9 10  1  0
  9  8  1  0
 11 10  1  0
 11 20  1  0
 11 12  1  0
 13  7  1  0
 13 12  1  0
 14  7  2  0
 15 16  1  0
 17 18  2  0
 18 37  1  0
 19 18  1  0
 19 22  1  0
 20 17  1  0
 20 21  1  0
 21 19  2  0
 22 23  1  0
 23 24  2  0
 25 28  1  0
 25 24  1  0
 26 25  2  0
 27 26  1  0
 27 22  2  0
 28 29  1  0
 29 30  1  0
 30 31  2  0
 32 31  1  0
 32 36  1  0
 33 32  2  0
 34 29  2  0
 34 33  1  0
 35 34  1  0
 37 38  1  0
 38 41  1  0
 38 40  1  0
 39 37  2  0
 42 43  1  0
 42 17  1  0
 44 42  1  0
 45 46  2  0
 45 47  1  0
 48 49  1  0
 48 51  1  0
 48 47  1  0
 50 48  1  0
 52 51  1  0
 52 53  1  0
 54 65  2  0
 55 53  1  0
 55 60  1  0
 56 64  1  0
 56 66  1  0
 57 63  1  0
 57 59  1  0
 58 64  1  0
 59 60  2  0
 59 58  1  0
 61 55  2  0
 62 61  1  0
 62 57  2  0
 63 56  1  0
 64 54  1  0
 66 68  2  0
 67 66  1  0
 69 67  1  0
 70 79  2  0
 70 75  1  0
 71 67  1  0
 71 75  1  0
 72 71  1  0
 73 74  1  0
 73 72  1  0
 74 70  1  0
 75 76  2  0
 76 77  1  0
 78 77  2  0
 79 78  1  0
 80 54  1  0
 80 81  1  0
 80 90  1  0
 81 84  1  0
 82 86  1  0
 82 81  1  0
 83 82  2  0
 86 85  1  0
 88 86  1  0
 88 89  1  0
 88 87  1  0
 90 93  1  1
 90 91  1  0
 92 90  1  0
 95 96  1  0
 95 94  1  0
 98 97  1  0
 98 95  1  0
 99 98  1  0
100101  1  0
101 99  1  0
M  ISO  4   7 100  15 100  52 101  53 101
M  END
>  <TORSDO>  (91) 
F 29

>  <SCORE>  (91) 
-11.169

>  <name>  (91) 
92

>  <ligand_id>  (91) 
92

>  <original_smiles>  (91) 
[H]C(=C([H])C([H])(C([H])([H])N([H])C([H])(C([H])([H])[H])C([H])([H])OC([H])([H])[H])[N+]([H])([H])C([H])([H])C([H])([H])N([H])C(=O)N1C([H])([H])C([H])([H])C([H])([H])C([H])(n2nc(-c3c([H])c([H])c(Oc4c([H])c([H])c(F)c([H])c4F)c([H])c3[H])c(C(=O)N([H])[H])c2N([H])[H])C1([H])[H])C([H])([H])[N+]([H])([H])C([H])([H])C([H])([H])Oc1c([H])c([H])c2c(c1[H])C([H])([H])N(C(=O)C([H])(N([H])C(=O)C([H])(N([H])C([H])([H])[H])C([H])([H])[H])C(C([H])([H])[H])(C([H])([H])[H])C([H])([H])[H])C([H])(C(=O)N([H])C1([H])c3c([H])c([H])c([H])c([H])c3C([H])([H])C([H])([H])C1([H])[H])C2([H])[H]

>  <smiles>  (91) 
[H]C(=C([H])C([H])(C([H])([H])N([H])C([H])(C([H])([H])[H])C([H])([H])OC([H])([H])[H])[N+]([H])([H])C([H])([H])C([H])([H])N([H])C(=O)N1C([H])([H])C([H])([H])C([H])([H])C([H])(n2nc(-c3c([H])c([H])c(Oc4c([H])c([H])c(F)c([H])c4F)c([H])c3[H])c(C(=O)N([H])[H])c2N([H])[H])C1([H])[H])C([H])([H])[N+]([H])([H])C([H])([H])C([H])([H])Oc1c([H])c([H])c2c(c1[H])C([H])([H])N(C(=O)C([H])(N([H])C(=O)C([H])(N([H])C([H])([H])[H])C([H])([H])[H])C(C([H])([H])[H])(C([H])([H])[H])C([H])([H])[H])C([H])(C(=O)N([H])C1([H])c3c([H])c([H])c([H])c([H])c3C([H])([H])C([H])([H])C1([H])[H])C2([H])[H]

$$$$
93:0:0
     RDKit          3D

 89 96  0  0  1  0  0  0  0  0999 V2000
  -31.0740  -23.1770   21.6990 C   0  0  0  0  0  2  0  0  0  0  0  0
  -30.9480  -21.7330   22.2090 C   0  0  0  0  0  2  0  0  0  0  0  0
  -30.1470  -19.6850   21.4590 C   0  0  0  0  0  3  0  0  0  0  0  0
  -30.3860  -20.8950   21.1660 N   0  0  0  0  0  0  0  0  0  0  0  0
  -29.4880  -18.7510   20.4700 C   0  0  0  0  0  2  0  0  0  0  0  0
  -29.4470  -17.2770   20.9070 C   0  0  0  0  0  2  0  0  0  0  0  0
  -30.7900  -16.5350   20.7720 C   0  0  0  0  0  2  0  0  0  0  0  0
  -31.0840  -14.1610   20.1000 C   0  0  0  0  0  0  0  0  0  0  0  0
  -30.6510  -11.9850   19.0280 C   0  0  0  0  0  2  0  0  0  0  0  0
  -29.6750  -12.1730   17.8500 C   0  0  0  0  0  2  0  0  0  0  0  0
  -28.2120  -12.1210   18.3310 C   0  0  0  0  0  2  0  0  0  0  0  0
  -27.9540  -13.0410   19.5540 C   0  0  0  0  0  3  0  0  0  0  0  0
  -29.0280  -12.8050   20.6400 C   0  0  0  0  0  2  0  0  0  0  0  0
  -30.3590  -13.0150   20.0330 N   0  0  0  0  0  0  0  0  0  0  0  0
  -32.1070  -14.3670   19.4410 O   0  0  0  0  0  0  0  0  0  0  0  0
  -30.5520  -15.1010   20.8890 N   0  0  0  0  0  0  0  0  0  0  0  0
  -29.7600  -14.8130   21.4410 H   0  0  0  0  0  0  0  0  0  0  0  0
  -25.6320  -13.8130   20.3650 C   0  0  0  0  0  0  0  0  0  0  0  0
  -24.5270  -13.1150   20.7740 C   0  0  0  0  0  0  0  0  0  0  0  0
  -24.8890  -11.7340   20.7090 C   0  0  0  0  0  0  0  0  0  0  0  0
  -26.6010  -12.8630   20.0810 N   0  0  0  0  0  0  0  0  0  0  0  0
  -26.1570  -11.6070   20.3400 N   0  0  0  0  0  0  0  0  0  0  0  0
  -24.0830  -10.5240   20.9220 C   0  0  0  0  0  0  0  0  0  0  0  0
  -24.4820   -9.5270   21.8380 C   0  0  0  0  0  3  0  0  0  0  0  0
  -23.6840   -8.3790   22.0380 C   0  0  0  0  0  3  0  0  0  0  0  0
  -22.4730   -8.2220   21.3220 C   0  0  0  0  0  0  0  0  0  0  0  0
  -22.0930   -9.2090   20.3940 C   0  0  0  0  0  3  0  0  0  0  0  0
  -22.8900  -10.3480   20.1930 C   0  0  0  0  0  3  0  0  0  0  0  0
  -21.6480   -7.1290   21.4310 O   0  0  0  0  0  0  0  0  0  0  0  0
  -21.5750   -6.3960   22.5880 C   0  0  0  0  0  0  0  0  0  0  0  0
  -21.2180   -6.9850   23.8210 C   0  0  0  0  0  3  0  0  0  0  0  0
  -21.0850   -6.1830   24.9730 C   0  0  0  0  0  3  0  0  0  0  0  0
  -21.2980   -4.7940   24.8920 C   0  0  0  0  0  0  0  0  0  0  0  0
  -21.6490   -4.2050   23.6640 C   0  0  0  0  0  3  0  0  0  0  0  0
  -21.7840   -5.0050   22.5160 C   0  0  0  0  0  0  0  0  0  0  0  0
  -22.1000   -4.4290   21.3310 F   0  0  0  0  0  0  0  0  0  0  0  0
  -21.1630   -4.0220   25.9950 F   0  0  0  0  0  0  0  0  0  0  0  0
  -23.1810  -13.6870   21.1160 C   0  0  0  0  0  0  0  0  0  0  0  0
  -22.4520  -13.0400   22.0190 N   0  0  0  0  0  0  0  0  0  0  0  0
  -22.7890  -14.7410   20.6180 O   0  0  0  0  0  0  0  0  0  0  0  0
  -22.7830  -12.1880   22.4430 H   0  0  0  0  0  0  0  0  0  0  0  0
  -21.5500  -13.4080   22.2890 H   0  0  0  0  0  0  0  0  0  0  0  0
  -25.8850  -15.1700   20.1930 N   0  0  0  0  0  0  0  0  0  0  0  0
  -25.1770  -15.8800   20.3480 H   0  0  0  0  0  0  0  0  0  0  0  0
  -26.7480  -15.5470   19.8190 H   0  0  0  0  0  0  0  0  0  0  0  0
  -29.7840  -23.6880   21.3830 O   0  0  0  0  0  0  0  0  0  0  0  0
  -29.8340  -24.9740   20.7810 C   0  0  0  0  0  2  0  0  0  0  0  0
  -28.4080  -25.4480   20.4710 C   0  0  0  0  0  2  0  0  0  0  0  0
  -28.4590  -26.8060   20.0510 O   0  0  0  0  0  0  0  0  0  0  0  0
  -24.5690  -31.8210   23.2080 C   0  0  0  0  0  0  0  0  0  0  0  0
  -27.2590  -27.4720   20.0730 C   0  0  0  0  0  0  0  0  0  0  0  0
  -23.3700  -30.4190   21.5560 C   0  0  0  0  0  3  0  0  0  0  0  0
  -24.8350  -28.9110   20.1150 C   0  0  0  0  0  0  0  0  0  0  0  0
  -25.8860  -30.8220   21.3450 C   0  0  0  0  0  2  0  0  0  0  0  0
  -25.9860  -29.4600   20.6950 C   0  0  0  0  0  0  0  0  0  0  0  0
  -27.2030  -28.7490   20.6660 C   0  0  0  0  0  3  0  0  0  0  0  0
  -26.0930  -26.9220   19.4970 C   0  0  0  0  0  3  0  0  0  0  0  0
  -24.8810  -27.6400   19.5150 C   0  0  0  0  0  3  0  0  0  0  0  0
  -23.5810  -29.7500   20.1710 C   0  0  0  0  0  2  0  0  0  0  0  0
  -24.6270  -31.0350   22.0960 N   0  0  0  0  0  0  0  0  0  0  0  0
  -23.4880  -32.0740   23.7580 O   0  0  0  0  0  0  0  0  0  0  0  0
  -22.7370  -29.3810   22.5120 C   0  0  0  0  0  0  0  0  0  0  0  0
  -21.4140  -29.1870   22.3900 N   0  0  0  0  0  0  0  0  0  0  0  0
  -23.4330  -28.7560   23.3170 O   0  0  0  0  0  0  0  0  0  0  0  0
  -20.9140  -29.7450   21.7120 H   0  0  0  0  0  0  0  0  0  0  0  0
  -18.0580  -27.9540   22.8850 C   0  0  0  0  0  0  0  0  0  0  0  0
  -20.6120  -28.2350   23.1540 C   0  0  0  0  0  3  0  0  0  0  0  0
  -20.7280  -26.8100   22.5660 C   0  0  0  0  0  2  0  0  0  0  0  0
  -19.6280  -26.4850   21.5510 C   0  0  0  0  0  2  0  0  0  0  0  0
  -18.2470  -26.6110   22.2000 C   0  0  0  0  0  2  0  0  0  0  0  0
  -19.1690  -28.7230   23.3200 C   0  0  0  0  0  0  0  0  0  0  0  0
  -18.9390  -29.9790   23.9200 C   0  0  0  0  0  3  0  0  0  0  0  0
  -17.6300  -30.4670   24.0910 C   0  0  0  0  0  3  0  0  0  0  0  0
  -16.5320  -29.6950   23.6740 C   0  0  0  0  0  3  0  0  0  0  0  0
  -16.7470  -28.4390   23.0770 C   0  0  0  0  0  3  0  0  0  0  0  0
  -25.8520  -32.4590   23.8270 C   0  0  0  0  0  3  0  0  0  0  0  0
  -25.5320  -33.8510   24.1690 N   0  0  0  0  0  0  0  0  0  0  0  0
  -25.8630  -34.9130   23.4210 C   0  0  0  0  0  0  0  0  0  0  0  0
  -26.5400  -34.8230   22.3940 O   0  0  0  0  0  0  0  0  0  0  0  0
  -24.9340  -33.9960   24.9700 H   0  0  0  0  0  0  0  0  0  0  0  0
  -24.1290  -36.6950   23.0650 C   0  0  0  0  0  1  0  0  0  0  0  0
  -25.3630  -36.2920   23.8880 C   0  0  0  0  0  3  0  0  0  0  0  0
  -27.4800  -37.1780   24.7570 C   0  0  0  0  0  1  0  0  0  0  0  0
  -26.3910  -37.3520   23.8000 N   0  0  0  0  0  0  0  0  0  0  0  0
  -25.9780  -38.2670   23.9540 H   0  0  0  0  0  0  0  0  0  0  0  0
  -26.3880  -31.6820   25.0920 C   0  0  1  0  0  0  0  0  0  0  0  0
  -25.3060  -31.4210   26.1650 C   0  0  0  0  0  1  0  0  0  0  0  0
  -26.9820  -30.3170   24.6770 C   0  0  0  0  0  1  0  0  0  0  0  0
  -27.5320  -32.4840   25.7550 C   0  0  0  0  0  1  0  0  0  0  0  0
  1  2  1  0
  4  3  2  0
  4  2  1  0
  5  6  1  0
  5  3  1  0
  7 16  1  0
  7  6  1  0
  8 16  1  0
  9 14  1  0
 10 11  1  0
 10  9  1  0
 12 11  1  0
 12 21  1  0
 12 13  1  0
 14  8  1  0
 14 13  1  0
 15  8  2  0
 16 17  1  0
 18 19  2  0
 19 38  1  0
 20 19  1  0
 20 23  1  0
 21 22  1  0
 21 18  1  0
 22 20  2  0
 23 24  1  0
 24 25  2  0
 26 29  1  0
 26 25  1  0
 27 26  2  0
 28 27  1  0
 28 23  2  0
 29 30  1  0
 30 31  1  0
 31 32  2  0
 33 32  1  0
 33 37  1  0
 34 33  2  0
 35 30  2  0
 35 34  1  0
 36 35  1  0
 38 39  1  0
 39 42  1  0
 39 41  1  0
 40 38  2  0
 43 44  1  0
 43 18  1  0
 45 43  1  0
 46  1  1  0
 47 46  1  0
 48 47  1  0
 49 51  1  0
 49 48  1  0
 50 61  2  0
 51 56  1  0
 52 60  1  0
 52 62  1  0
 53 59  1  0
 53 55  1  0
 54 60  1  0
 55 54  1  0
 56 55  2  0
 57 58  1  0
 57 51  2  0
 58 53  2  0
 59 52  1  0
 60 50  1  0
 62 64  2  0
 63 62  1  0
 65 63  1  0
 66 75  2  0
 66 71  1  0
 67 63  1  0
 67 71  1  0
 68 67  1  0
 69 70  1  0
 69 68  1  0
 70 66  1  0
 71 72  2  0
 72 73  1  0
 74 73  2  0
 75 74  1  0
 76 50  1  0
 76 77  1  0
 76 86  1  0
 77 80  1  0
 78 82  1  0
 78 77  1  0
 79 78  2  0
 82 81  1  0
 84 82  1  0
 84 85  1  0
 84 83  1  0
 86 89  1  1
 86 87  1  0
 88 86  1  0
M  ISO  4   8 100  16 100  48 101  49 101
M  END
>  <TORSDO>  (92) 
F 24

>  <SCORE>  (92) 
-12.045

>  <name>  (92) 
93

>  <ligand_id>  (92) 
93

>  <original_smiles>  (92) 
[H]C(=NC([H])([H])C([H])([H])OC([H])([H])C([H])([H])Oc1c([H])c([H])c2c(c1[H])C([H])([H])N(C(=O)C([H])(N([H])C(=O)C([H])(N([H])C([H])([H])[H])C([H])([H])[H])C(C([H])([H])[H])(C([H])([H])[H])C([H])([H])[H])C([H])(C(=O)N([H])C1([H])c3c([H])c([H])c([H])c([H])c3C([H])([H])C([H])([H])C1([H])[H])C2([H])[H])C([H])([H])C([H])([H])C([H])([H])N([H])C(=O)N1C([H])([H])C([H])([H])C([H])([H])C([H])(n2nc(-c3c([H])c([H])c(Oc4c([H])c([H])c(F)c([H])c4F)c([H])c3[H])c(C(=O)N([H])[H])c2N([H])[H])C1([H])[H]

>  <smiles>  (92) 
[H]C(=NC([H])([H])C([H])([H])OC([H])([H])C([H])([H])Oc1c([H])c([H])c2c(c1[H])C([H])([H])N(C(=O)C([H])(N([H])C(=O)C([H])(N([H])C([H])([H])[H])C([H])([H])[H])C(C([H])([H])[H])(C([H])([H])[H])C([H])([H])[H])C([H])(C(=O)N([H])C1([H])c3c([H])c([H])c([H])c([H])c3C([H])([H])C([H])([H])C1([H])[H])C2([H])[H])C([H])([H])C([H])([H])C([H])([H])N([H])C(=O)N1C([H])([H])C([H])([H])C([H])([H])C([H])(n2nc(-c3c([H])c([H])c(Oc4c([H])c([H])c(F)c([H])c4F)c([H])c3[H])c(C(=O)N([H])[H])c2N([H])[H])C1([H])[H]

$$$$
94:0:0
     RDKit          3D

 97104  0  0  1  0  0  0  0  0999 V2000
  -29.5950  -20.7510   20.6820 N   0  0  0  0  0  4  0  0  0  0  0  0
  -29.3410  -20.7200   19.7070 H   0  0  0  0  0  0  0  0  0  0  0  0
  -30.1020  -21.6020   20.8580 H   0  0  0  0  0  0  0  0  0  0  0  0
  -30.4440  -19.5930   21.0220 C   0  0  0  0  0  2  0  0  0  0  0  0
  -31.7970  -19.5380   20.2770 C   0  0  0  0  0  2  0  0  0  0  0  0
  -32.3250  -18.1050   20.4100 C   0  0  0  0  0  2  0  0  0  0  0  0
  -33.7500  -17.7650   19.9330 C   0  0  0  0  0  2  0  0  0  0  0  0
  -34.1400  -16.3810   20.3210 N   0  0  0  0  0  4  0  0  0  0  0  0
  -34.1550  -16.2950   21.3250 H   0  0  0  0  0  0  0  0  0  0  0  0
  -35.0870  -16.2320   20.0090 H   0  0  0  0  0  0  0  0  0  0  0  0
  -33.2960  -15.2970   19.7600 C   0  0  0  0  0  2  0  0  0  0  0  0
  -32.1900  -14.8450   20.7650 C   0  0  0  0  0  2  0  0  0  0  0  0
  -30.7760  -13.5230   19.1310 C   0  0  0  0  0  0  0  0  0  0  0  0
  -30.0630  -11.3970   18.1600 C   0  0  0  0  0  2  0  0  0  0  0  0
  -28.8700  -11.4290   17.1990 C   0  0  0  0  0  2  0  0  0  0  0  0
  -27.5500  -11.3320   17.9750 C   0  0  0  0  0  2  0  0  0  0  0  0
  -27.4560  -12.3830   19.1090 C   0  0  0  0  0  3  0  0  0  0  0  0
  -28.7300  -12.3710   19.9940 C   0  0  0  0  0  2  0  0  0  0  0  0
  -29.9350  -12.4700   19.1480 N   0  0  0  0  0  0  0  0  0  0  0  0
  -31.2730  -13.9970   18.1080 O   0  0  0  0  0  0  0  0  0  0  0  0
  -31.2820  -13.7730   20.3460 N   0  0  0  0  0  0  0  0  0  0  0  0
  -30.9410  -13.1700   21.0790 H   0  0  0  0  0  0  0  0  0  0  0  0
  -25.3630  -13.1200   20.4300 C   0  0  0  0  0  0  0  0  0  0  0  0
  -24.3360  -12.4090   20.9890 C   0  0  0  0  0  0  0  0  0  0  0  0
  -24.6340  -11.0310   20.7480 C   0  0  0  0  0  0  0  0  0  0  0  0
  -26.2350  -12.1830   19.8940 N   0  0  0  0  0  0  0  0  0  0  0  0
  -25.8070  -10.9170   20.1380 N   0  0  0  0  0  0  0  0  0  0  0  0
  -23.8440   -9.8200   21.0160 C   0  0  0  0  0  0  0  0  0  0  0  0
  -24.3000   -8.8260   21.9080 C   0  0  0  0  0  3  0  0  0  0  0  0
  -23.5160   -7.6790   22.1660 C   0  0  0  0  0  3  0  0  0  0  0  0
  -22.2600   -7.5220   21.5350 C   0  0  0  0  0  0  0  0  0  0  0  0
  -21.8200   -8.5040   20.6310 C   0  0  0  0  0  3  0  0  0  0  0  0
  -22.6050   -9.6400   20.3710 C   0  0  0  0  0  3  0  0  0  0  0  0
  -21.4460   -6.4290   21.7020 O   0  0  0  0  0  0  0  0  0  0  0  0
  -21.3810   -5.7560   22.8970 C   0  0  0  0  0  0  0  0  0  0  0  0
  -20.9890   -6.3960   24.0920 C   0  0  0  0  0  3  0  0  0  0  0  0
  -20.8690   -5.6530   25.2820 C   0  0  0  0  0  3  0  0  0  0  0  0
  -21.1310   -4.2690   25.2790 C   0  0  0  0  0  0  0  0  0  0  0  0
  -21.5190   -3.6290   24.0880 C   0  0  0  0  0  3  0  0  0  0  0  0
  -21.6390   -4.3700   22.8990 C   0  0  0  0  0  0  0  0  0  0  0  0
  -21.9900   -3.7460   21.7500 F   0  0  0  0  0  0  0  0  0  0  0  0
  -21.0090   -3.5520   26.4190 F   0  0  0  0  0  0  0  0  0  0  0  0
  -23.0990  -12.9690   21.6330 C   0  0  0  0  0  0  0  0  0  0  0  0
  -22.5420  -12.2640   22.6110 N   0  0  0  0  0  0  0  0  0  0  0  0
  -22.6480  -14.0670   21.3040 O   0  0  0  0  0  0  0  0  0  0  0  0
  -22.9160  -11.3670   22.8890 H   0  0  0  0  0  0  0  0  0  0  0  0
  -21.7230  -12.6190   23.0850 H   0  0  0  0  0  0  0  0  0  0  0  0
  -25.6250  -14.4820   20.3120 N   0  0  0  0  0  0  0  0  0  0  0  0
  -24.9900  -15.1960   20.6490 H   0  0  0  0  0  0  0  0  0  0  0  0
  -26.4260  -14.8630   19.8230 H   0  0  0  0  0  0  0  0  0  0  0  0
  -28.3690  -20.8280   21.5020 C   0  0  0  0  0  2  0  0  0  0  0  0
  -27.5750  -22.1100   21.2140 C   0  0  0  0  0  2  0  0  0  0  0  0
  -28.4300  -23.2860   21.3880 N   0  0  0  0  0  0  0  0  0  0  0  0
  -29.1500  -23.2880   20.6700 H   0  0  0  0  0  0  0  0  0  0  0  0
  -27.6590  -24.4930   21.1260 C   0  0  0  0  0  2  0  0  0  0  0  0
  -28.5260  -25.7520   21.3430 C   0  0  0  0  0  2  0  0  0  0  0  0
  -28.4060  -26.6760   20.2650 O   0  0  0  0  0  0  0  0  0  0  0  0
  -24.5710  -31.8890   23.2060 C   0  0  0  0  0  0  0  0  0  0  0  0
  -27.2380  -27.3900   20.2650 C   0  0  0  0  0  0  0  0  0  0  0  0
  -23.3790  -30.4400   21.5950 C   0  0  0  0  0  3  0  0  0  0  0  0
  -24.8430  -28.8670   20.2260 C   0  0  0  0  0  0  0  0  0  0  0  0
  -25.9020  -30.8000   21.4090 C   0  0  0  0  0  2  0  0  0  0  0  0
  -25.9920  -29.4120   20.8120 C   0  0  0  0  0  0  0  0  0  0  0  0
  -27.1960  -28.6800   20.8320 C   0  0  0  0  0  3  0  0  0  0  0  0
  -26.0790  -26.8530   19.6710 C   0  0  0  0  0  3  0  0  0  0  0  0
  -24.8770  -27.5820   19.6580 C   0  0  0  0  0  3  0  0  0  0  0  0
  -23.6000  -29.7270   20.2350 C   0  0  0  0  0  2  0  0  0  0  0  0
  -24.6340  -31.0600   22.1270 N   0  0  0  0  0  0  0  0  0  0  0  0
  -23.4860  -32.1750   23.7290 O   0  0  0  0  0  0  0  0  0  0  0  0
  -22.7240  -29.4410   22.5750 C   0  0  0  0  0  0  0  0  0  0  0  0
  -21.4060  -29.2370   22.4240 N   0  0  0  0  0  0  0  0  0  0  0  0
  -23.3980  -28.8560   23.4280 O   0  0  0  0  0  0  0  0  0  0  0  0
  -20.9240  -29.7620   21.7060 H   0  0  0  0  0  0  0  0  0  0  0  0
  -18.0380  -28.0080   22.8790 C   0  0  0  0  0  0  0  0  0  0  0  0
  -20.5830  -28.3180   23.2100 C   0  0  0  0  0  3  0  0  0  0  0  0
  -20.7230  -26.8670   22.6940 C   0  0  0  0  0  2  0  0  0  0  0  0
  -19.6530  -26.4870   21.6650 C   0  0  0  0  0  2  0  0  0  0  0  0
  -18.2530  -26.6350   22.2660 C   0  0  0  0  0  2  0  0  0  0  0  0
  -19.1330  -28.8050   23.3080 C   0  0  0  0  0  0  0  0  0  0  0  0
  -18.8800  -30.0890   23.8370 C   0  0  0  0  0  3  0  0  0  0  0  0
  -17.5630  -30.5760   23.9480 C   0  0  0  0  0  3  0  0  0  0  0  0
  -16.4820  -29.7770   23.5350 C   0  0  0  0  0  3  0  0  0  0  0  0
  -16.7200  -28.4960   23.0070 C   0  0  0  0  0  3  0  0  0  0  0  0
  -25.8530  -32.5340   23.8190 C   0  0  0  0  0  3  0  0  0  0  0  0
  -25.5270  -33.9260   24.1570 N   0  0  0  0  0  0  0  0  0  0  0  0
  -25.8400  -34.9850   23.3980 C   0  0  0  0  0  0  0  0  0  0  0  0
  -26.5070  -34.8960   22.3630 O   0  0  0  0  0  0  0  0  0  0  0  0
  -24.9340  -34.0710   24.9600 H   0  0  0  0  0  0  0  0  0  0  0  0
  -24.0830  -36.7500   23.0490 C   0  0  0  0  0  1  0  0  0  0  0  0
  -25.3320  -36.3650   23.8590 C   0  0  0  0  0  3  0  0  0  0  0  0
  -27.4570  -37.2720   24.6880 C   0  0  0  0  0  1  0  0  0  0  0  0
  -26.3470  -37.4350   23.7510 N   0  0  0  0  0  0  0  0  0  0  0  0
  -25.9280  -38.3480   23.9120 H   0  0  0  0  0  0  0  0  0  0  0  0
  -26.3950  -31.7630   25.0850 C   0  0  1  0  0  0  0  0  0  0  0  0
  -25.3160  -31.4930   26.1570 C   0  0  0  0  0  1  0  0  0  0  0  0
  -27.0030  -30.4020   24.6750 C   0  0  0  0  0  1  0  0  0  0  0  0
  -27.5350  -32.5760   25.7440 C   0  0  0  0  0  1  0  0  0  0  0  0
  1  3  1  0
  1  4  1  0
  1 51  1  0
  2  1  1  0
  5  6  1  0
  5  4  1  0
  7  8  1  0
  7  6  1  0
  8  9  1  0
 10  8  1  0
 11  8  1  0
 11 12  1  0
 13 19  1  0
 13 21  1  0
 14 19  1  0
 15 16  1  0
 15 14  1  0
 17 16  1  0
 17 26  1  0
 17 18  1  0
 19 18  1  0
 20 13  2  0
 21 12  1  0
 21 22  1  0
 23 24  2  0
 24 43  1  0
 25 24  1  0
 25 28  1  0
 26 27  1  0
 26 23  1  0
 27 25  2  0
 28 29  1  0
 29 30  2  0
 31 34  1  0
 31 30  1  0
 32 31  2  0
 33 32  1  0
 33 28  2  0
 34 35  1  0
 35 40  2  0
 35 36  1  0
 36 37  2  0
 38 37  1  0
 38 42  1  0
 39 38  2  0
 40 39  1  0
 41 40  1  0
 43 44  1  0
 44 46  1  0
 44 47  1  0
 45 43  2  0
 48 23  1  0
 48 49  1  0
 50 48  1  0
 52 53  1  0
 52 51  1  0
 54 53  1  0
 55 56  1  0
 55 53  1  0
 57 56  1  0
 58 69  2  0
 59 57  1  0
 59 64  1  0
 60 68  1  0
 60 70  1  0
 61 67  1  0
 61 63  1  0
 62 68  1  0
 63 64  2  0
 63 62  1  0
 65 59  2  0
 66 65  1  0
 66 61  2  0
 67 60  1  0
 68 58  1  0
 70 72  2  0
 71 70  1  0
 73 71  1  0
 74 83  2  0
 74 79  1  0
 75 71  1  0
 75 79  1  0
 76 75  1  0
 77 78  1  0
 77 76  1  0
 78 74  1  0
 79 80  2  0
 80 81  1  0
 82 81  2  0
 83 82  1  0
 84 58  1  0
 84 85  1  0
 84 94  1  0
 85 88  1  0
 86 90  1  0
 86 85  1  0
 87 86  2  0
 90 89  1  0
 92 90  1  0
 92 93  1  0
 92 91  1  0
 94 97  1  1
 94 95  1  0
 96 94  1  0
M  ISO  4  13 100  21 100  56 101  57 101
M  END
>  <TORSDO>  (93) 
F 28

>  <SCORE>  (93) 
-7.550

>  <name>  (93) 
94

>  <ligand_id>  (93) 
94

>  <original_smiles>  (93) 
[H]c1c([H])c([H])c2c(c1[H])C([H])([H])C([H])([H])C([H])([H])C2([H])N([H])C(=O)C1([H])N(C(=O)C([H])(N([H])C(=O)C([H])(N([H])C([H])([H])[H])C([H])([H])[H])C(C([H])([H])[H])(C([H])([H])[H])C([H])([H])[H])C([H])([H])c2c([H])c(OC([H])([H])C([H])([H])N([H])C([H])([H])C([H])([H])[N+]([H])([H])C([H])([H])C([H])([H])C([H])([H])C([H])([H])[N+]([H])([H])C([H])([H])C([H])([H])N([H])C(=O)N3C([H])([H])C([H])([H])C([H])([H])C([H])(n4nc(-c5c([H])c([H])c(Oc6c([H])c([H])c(F)c([H])c6F)c([H])c5[H])c(C(=O)N([H])[H])c4N([H])[H])C3([H])[H])c([H])c([H])c2C1([H])[H]

>  <smiles>  (93) 
[H]c1c([H])c([H])c2c(c1[H])C([H])([H])C([H])([H])C([H])([H])C2([H])N([H])C(=O)C1([H])N(C(=O)C([H])(N([H])C(=O)C([H])(N([H])C([H])([H])[H])C([H])([H])[H])C(C([H])([H])[H])(C([H])([H])[H])C([H])([H])[H])C([H])([H])c2c([H])c(OC([H])([H])C([H])([H])N([H])C([H])([H])C([H])([H])[N+]([H])([H])C([H])([H])C([H])([H])C([H])([H])C([H])([H])[N+]([H])([H])C([H])([H])C([H])([H])N([H])C(=O)N3C([H])([H])C([H])([H])C([H])([H])C([H])(n4nc(-c5c([H])c([H])c(Oc6c([H])c([H])c(F)c([H])c6F)c([H])c5[H])c(C(=O)N([H])[H])c4N([H])[H])C3([H])[H])c([H])c([H])c2C1([H])[H]

$$$$
95:0:0
     RDKit          3D

103112  0  0  1  0  0  0  0  0999 V2000
  -27.8560  -17.2420   20.6470 C   0  0  0  0  0  2  0  0  0  0  0  0
  -27.2380  -12.1270   20.9750 C   0  0  2  0  0  0  0  0  0  0  0  0
  -25.9330  -14.0930   20.4030 C   0  0  0  0  0  2  0  0  0  0  0  0
  -27.1680  -14.0950   22.3860 C   0  0  0  0  0  2  0  0  0  0  0  0
  -26.3370  -15.5130   20.0370 C   0  0  0  0  0  2  0  0  0  0  0  0
  -27.6550  -15.5280   22.1750 C   0  0  0  0  0  2  0  0  0  0  0  0
  -27.0790  -13.4750   21.0690 N   0  0  0  0  0  0  0  0  0  0  0  0
  -26.8840  -16.2840   21.1680 N   0  0  0  0  0  0  0  0  0  0  0  0
  -26.2520  -11.5810   21.5310 O   0  0  0  0  0  1  0  0  0  0  0  0
  -30.5820   -9.4860   20.0150 C   0  0  0  0  0  2  0  0  0  0  0  0
  -29.7450  -10.5590   19.5140 C   0  0  0  0  0  2  0  0  0  0  0  0
  -30.6260   -8.7710   21.4050 C   0  0  0  0  0  2  0  0  0  0  0  0
  -31.3480   -8.7370   22.6310 C   0  0  0  0  0  2  0  0  0  0  0  0
  -32.7900   -9.0730   23.3120 C   0  0  0  0  0  2  0  0  0  0  0  0
  -34.0850  -11.3540   23.9970 C   0  0  0  0  0  0  0  0  0  0  0  0
  -34.8710  -10.7180   22.0940 C   0  0  0  0  0  2  0  0  0  0  0  0
  -34.5570  -10.4410   20.6730 C   0  0  0  0  0  2  0  0  0  0  0  0
  -33.1250  -10.6690   20.3830 C   0  0  0  0  0  2  0  0  0  0  0  0
  -32.5100  -11.9530   21.0310 C   0  0  0  0  0  3  0  0  0  0  0  0
  -32.5820  -12.0160   22.4630 C   0  0  0  0  0  2  0  0  0  0  0  0
  -33.8960  -11.5620   22.7870 N   0  0  0  0  0  0  0  0  0  0  0  0
  -35.0590  -11.9270   24.5240 O   0  0  0  0  0  0  0  0  0  0  0  0
  -33.3010  -10.2180   24.3010 N   0  0  0  0  0  0  0  0  0  0  0  0
  -33.4580   -9.8960   25.2450 H   0  0  0  0  0  0  0  0  0  0  0  0
  -30.5470  -12.4760   19.1070 C   0  0  0  0  0  3  0  0  0  0  0  0
  -28.9270  -11.9710   18.9700 C   0  0  2  0  0  0  0  0  0  0  0  0
  -28.3070  -11.2660   20.5540 C   0  0  1  0  0  0  0  0  0  0  0  0
  -31.1550  -12.1910   20.8020 N   0  0  0  0  0  2  0  0  0  0  0  0
  -29.6820  -11.4360   21.8260 N   0  0  0  0  0  1  0  0  0  0  0  0
  -27.3520  -10.2810   20.6330 C   0  0  1  0  0  0  0  0  0  0  0  0
  -27.0570   -9.8120   21.8990 C   0  0  0  0  0  3  0  0  0  0  0  0
  -26.0130   -8.9100   22.0100 C   0  0  0  0  0  3  0  0  0  0  0  0
  -25.3080   -8.4990   20.8500 C   0  0  0  0  0  0  0  0  0  0  0  0
  -25.7140   -8.9010   19.5710 C   0  0  0  0  0  3  0  0  0  0  0  0
  -26.7700   -9.7950   19.4500 C   0  0  0  0  0  2  0  0  0  0  0  0
  -24.2250   -7.6830   20.9150 O   0  0  0  0  0  0  0  0  0  0  0  0
  -23.5350   -7.5910   22.0890 C   0  0  0  0  0  0  0  0  0  0  0  0
  -23.0270   -8.7290   22.7530 C   0  0  0  0  0  3  0  0  0  0  0  0
  -22.2790   -8.5680   23.9330 C   0  0  0  0  0  3  0  0  0  0  0  0
  -22.0340   -7.2740   24.4360 C   0  0  0  0  0  0  0  0  0  0  0  0
  -22.5550   -6.1470   23.7770 C   0  0  0  0  0  3  0  0  0  0  0  0
  -23.3100   -6.3060   22.6050 C   0  0  0  0  0  0  0  0  0  0  0  0
  -23.8140   -5.2260   21.9610 F   0  0  0  0  0  0  0  0  0  0  0  0
  -21.2900   -7.1140   25.5530 F   0  0  0  0  0  0  0  0  0  0  0  0
  -28.0110  -12.5810   17.9880 C   0  0  0  0  0  0  0  0  0  0  0  0
  -26.7460  -12.6810   18.3710 N   0  0  0  0  0  0  0  0  0  0  0  0
  -28.4450  -13.1040   16.9710 O   0  0  0  0  0  0  0  0  0  0  0  0
  -26.4320  -12.3080   19.2510 H   0  0  0  0  0  0  0  0  0  0  0  0
  -26.0700  -13.1450   17.7810 H   0  0  0  0  0  0  0  0  0  0  0  0
  -31.3520  -13.2530   18.3130 N   0  0  0  0  0  0  0  0  0  0  0  0
  -31.1120  -13.4760   17.3530 H   0  0  0  0  0  0  0  0  0  0  0  0
  -32.3140  -13.4610   18.5390 H   0  0  0  0  0  0  0  0  0  0  0  0
  -27.2540  -18.4850   19.9930 C   0  0  0  0  0  2  0  0  0  0  0  0
  -28.3500  -19.4050   19.6730 N   0  0  0  0  0  4  0  0  0  0  0  0
  -28.8790  -19.0420   18.8960 H   0  0  0  0  0  0  0  0  0  0  0  0
  -28.9610  -19.4490   20.4720 H   0  0  0  0  0  0  0  0  0  0  0  0
  -27.9150  -20.7660   19.3590 C   0  0  0  0  0  2  0  0  0  0  0  0
  -29.1130  -21.7220   19.3970 C   0  0  0  0  0  2  0  0  0  0  0  0
  -28.7940  -22.8060   20.3080 N   0  0  0  0  0  0  0  0  0  0  0  0
  -28.8890  -22.5080   21.2760 H   0  0  0  0  0  0  0  0  0  0  0  0
  -29.6450  -23.9500   20.0580 C   0  0  0  0  0  2  0  0  0  0  0  0
  -29.2230  -25.0870   20.9980 C   0  0  0  0  0  2  0  0  0  0  0  0
  -29.0730  -26.2340   20.1900 O   0  0  0  0  0  0  0  0  0  0  0  0
  -25.1920  -31.1120   23.6160 C   0  0  0  0  0  0  0  0  0  0  0  0
  -27.8860  -26.9090   20.2940 C   0  0  0  0  0  0  0  0  0  0  0  0
  -24.0700  -29.9900   21.7140 C   0  0  0  0  0  3  0  0  0  0  0  0
  -25.5640  -28.5040   20.2760 C   0  0  0  0  0  0  0  0  0  0  0  0
  -26.6150  -30.1920   21.7980 C   0  0  0  0  0  2  0  0  0  0  0  0
  -26.6800  -28.8940   21.0260 C   0  0  0  0  0  0  0  0  0  0  0  0
  -27.8410  -28.1000   21.0400 C   0  0  0  0  0  3  0  0  0  0  0  0
  -26.7530  -26.5000   19.5610 C   0  0  0  0  0  3  0  0  0  0  0  0
  -25.5880  -27.2970   19.5500 C   0  0  0  0  0  3  0  0  0  0  0  0
  -24.3760  -29.4400   20.2930 C   0  0  0  0  0  2  0  0  0  0  0  0
  -25.3040  -30.4390   22.4370 N   0  0  0  0  0  0  0  0  0  0  0  0
  -24.0820  -31.4040   24.0830 O   0  0  0  0  0  0  0  0  0  0  0  0
  -23.2620  -28.9240   22.4860 C   0  0  0  0  0  0  0  0  0  0  0  0
  -21.9430  -28.8850   22.2440 N   0  0  0  0  0  0  0  0  0  0  0  0
  -23.8240  -28.1410   23.2570 O   0  0  0  0  0  0  0  0  0  0  0  0
  -21.5590  -29.5670   21.6040 H   0  0  0  0  0  0  0  0  0  0  0  0
  -18.4410  -28.0150   22.4040 C   0  0  0  0  0  0  0  0  0  0  0  0
  -20.9900  -27.9390   22.8230 C   0  0  0  0  0  3  0  0  0  0  0  0
  -20.9770  -26.6090   22.0350 C   0  0  0  0  0  2  0  0  0  0  0  0
  -19.9100  -26.5680   20.9370 C   0  0  0  0  0  2  0  0  0  0  0  0
  -18.5150  -26.7700   21.5370 C   0  0  0  0  0  2  0  0  0  0  0  0
  -19.6050  -28.5730   22.9950 C   0  0  0  0  0  0  0  0  0  0  0  0
  -19.4860  -29.7510   23.7630 C   0  0  0  0  0  3  0  0  0  0  0  0
  -18.2340  -30.3670   23.9470 C   0  0  0  0  0  3  0  0  0  0  0  0
  -17.0820  -29.8010   23.3730 C   0  0  0  0  0  3  0  0  0  0  0  0
  -17.1860  -28.6260   22.6080 C   0  0  0  0  0  3  0  0  0  0  0  0
  -26.4500  -31.5690   24.4220 C   0  0  0  0  0  3  0  0  0  0  0  0
  -26.2120  -32.9480   24.8680 N   0  0  0  0  0  0  0  0  0  0  0  0
  -26.7130  -34.0370   24.2690 C   0  0  0  0  0  0  0  0  0  0  0  0
  -27.4930  -33.9780   23.3140 O   0  0  0  0  0  0  0  0  0  0  0  0
  -25.5400  -33.0750   25.6090 H   0  0  0  0  0  0  0  0  0  0  0  0
  -25.1800  -35.9980   23.9180 C   0  0  0  0  0  1  0  0  0  0  0  0
  -26.2800  -35.4090   24.8160 C   0  0  0  0  0  3  0  0  0  0  0  0
  -28.3560  -36.0180   25.9760 C   0  0  0  0  0  1  0  0  0  0  0  0
  -27.3940  -36.3750   24.9360 N   0  0  0  0  0  0  0  0  0  0  0  0
  -27.0420  -37.3070   25.1380 H   0  0  0  0  0  0  0  0  0  0  0  0
  -26.7790  -30.6330   25.6490 C   0  0  1  0  0  0  0  0  0  0  0  0
  -25.5700  -30.3830   26.5810 C   0  0  0  0  0  1  0  0  0  0  0  0
  -27.2940  -29.2570   25.1640 C   0  0  0  0  0  1  0  0  0  0  0  0
  -27.9150  -31.2560   26.4950 C   0  0  0  0  0  1  0  0  0  0  0  0
  1  8  1  0
  2  7  1  0
  2  9  1  1
  5  3  1  0
  5  8  1  0
  6  4  1  0
  7  3  1  0
  7  4  1  0
  8  6  1  0
 10 12  1  0
 11 10  1  0
 12 13  1  0
 13 14  1  0
 14 23  1  0
 15 23  1  0
 15 22  2  0
 16 21  1  0
 17 16  1  0
 18 17  1  0
 19 18  1  0
 19 20  1  0
 20 21  1  0
 21 15  1  0
 23 24  1  0
 25 50  1  0
 25 28  1  0
 26 45  1  6
 26 25  1  0
 26 11  1  0
 26 27  1  0
 27 30  1  0
 27  2  1  0
 27 29  1  1
 28 19  1  0
 30 35  1  6
 30  2  1  0
 30 31  1  0
 31 32  2  0
 33 36  1  0
 33 32  1  0
 34 33  2  0
 35 34  1  0
 36 37  1  0
 37 42  2  0
 37 38  1  0
 38 39  2  0
 39 40  1  0
 40 44  1  0
 41 40  2  0
 42 41  1  0
 43 42  1  0
 45 46  1  0
 46 48  1  0
 47 45  2  0
 49 46  1  0
 50 52  1  0
 51 50  1  0
 53  1  1  0
 54 53  1  0
 54 56  1  0
 55 54  1  0
 57 58  1  0
 57 54  1  0
 58 59  1  0
 59 60  1  0
 61 59  1  0
 61 62  1  0
 63 65  1  0
 63 62  1  0
 64 75  2  0
 65 70  1  0
 66 74  1  0
 66 76  1  0
 67 73  1  0
 67 69  1  0
 68 74  1  0
 69 70  2  0
 69 68  1  0
 71 65  2  0
 72 71  1  0
 72 67  2  0
 73 66  1  0
 74 64  1  0
 76 78  2  0
 77 76  1  0
 79 77  1  0
 80 89  2  0
 80 85  1  0
 81 77  1  0
 81 85  1  0
 82 81  1  0
 83 84  1  0
 83 82  1  0
 84 80  1  0
 85 86  2  0
 86 87  1  0
 88 87  2  0
 89 88  1  0
 90 64  1  0
 90 91  1  0
 90100  1  0
 91 94  1  0
 92 96  1  0
 92 91  1  0
 93 92  2  0
 96 95  1  0
 96 98  1  0
 98 99  1  0
 98 97  1  0
100103  1  1
100101  1  0
102100  1  0
M  ISO  4  15 100  23 100  62 101  63 101
M  END
>  <TORSDO>  (94) 
F 27

>  <SCORE>  (94) 
-0.588

>  <name>  (94) 
95

>  <ligand_id>  (94) 
95

>  <original_smiles>  (94) 
[H]C(C(=O)N1C([H])([H])C([H])([H])N(C([H])([H])C([H])([H])[N+]([H])([H])C([H])([H])C([H])([H])N([H])C([H])([H])C([H])([H])Oc2c([H])c([H])c3c(c2[H])C([H])([H])N(C(=O)C([H])(N([H])C(=O)C([H])(N([H])C([H])([H])[H])C([H])([H])[H])C(C([H])([H])[H])(C([H])([H])[H])C([H])([H])[H])C([H])(C(=O)N([H])C2([H])c4c([H])c([H])c([H])c([H])c4C([H])([H])C([H])([H])C2([H])[H])C3([H])[H])C([H])([H])C1([H])[H])=C([H])C([H])=C([H])C([H])([H])N([H])C(=O)N1C([H])([H])C([H])([H])C([H])([H])C([H])(n2nc(-c3c([H])c([H])c(Oc4c([H])c([H])c(F)c([H])c4F)c([H])c3[H])c(C(=O)N([H])[H])c2N([H])[H])C1([H])[H]

>  <smiles>  (94) 
[H]C(C(=O)N1C([H])([H])C([H])([H])N(C([H])([H])C([H])([H])[N+]([H])([H])C([H])([H])C([H])([H])N([H])C([H])([H])C([H])([H])Oc2c([H])c([H])c3c(c2[H])C([H])([H])N(C(=O)C([H])(N([H])C(=O)C([H])(N([H])C([H])([H])[H])C([H])([H])[H])C(C([H])([H])[H])(C([H])([H])[H])C([H])([H])[H])C([H])(C(=O)N([H])C2([H])c4c([H])c([H])c([H])c([H])c4C([H])([H])C([H])([H])C2([H])[H])C3([H])[H])C([H])([H])C1([H])[H])=C([H])C([H])=C([H])C([H])([H])N([H])C(=O)N1C([H])([H])C([H])([H])C([H])([H])C([H])(n2nc(-c3c([H])c([H])c(Oc4c([H])c([H])c(F)c([H])c4F)c([H])c3[H])c(C(=O)N([H])[H])c2N([H])[H])C1([H])[H]

$$$$
96:0:0
     RDKit          3D

 94101  0  0  1  0  0  0  0  0999 V2000
  -29.5330  -21.5450   19.6810 C   0  0  0  0  0  0  0  0  0  0  0  0
  -29.6580  -21.2900   18.3720 N   0  0  0  0  0  0  0  0  0  0  0  0
  -30.4880  -21.5350   20.4620 O   0  0  0  0  0  0  0  0  0  0  0  0
  -28.8150  -21.3170   17.8130 H   0  0  0  0  0  0  0  0  0  0  0  0
  -28.1330  -21.8790   20.2030 C   0  0  0  0  0  2  0  0  0  0  0  0
  -27.0070  -21.3700   19.2720 C   0  0  0  0  0  2  0  0  0  0  0  0
  -26.9360  -22.1000   17.9820 N   0  0  0  0  0  4  0  0  0  0  0  0
  -27.0550  -21.4260   17.2390 H   0  0  0  0  0  0  0  0  0  0  0  0
  -27.6960  -22.7580   17.9280 H   0  0  0  0  0  0  0  0  0  0  0  0
  -25.6550  -22.8040   17.7570 C   0  0  0  0  0  2  0  0  0  0  0  0
  -25.8570  -24.2670   17.3280 C   0  0  0  0  0  2  0  0  0  0  0  0
  -27.7300  -25.9100   17.3370 C   0  0  0  0  0  0  0  0  0  0  0  0
  -29.7170  -27.3420   17.6270 C   0  0  0  0  0  2  0  0  0  0  0  0
  -30.4090  -27.6350   16.2840 C   0  0  0  0  0  2  0  0  0  0  0  0
  -31.4150  -26.5200   15.9360 C   0  0  0  0  0  2  0  0  0  0  0  0
  -30.7880  -25.1070   16.0500 C   0  0  0  0  0  3  0  0  0  0  0  0
  -30.0550  -24.9400   17.3980 C   0  0  0  0  0  2  0  0  0  0  0  0
  -29.0660  -26.0270   17.5400 N   0  0  0  0  0  0  0  0  0  0  0  0
  -26.9720  -26.8730   17.1890 O   0  0  0  0  0  0  0  0  0  0  0  0
  -27.2650  -24.6550   17.3840 N   0  0  0  0  0  0  0  0  0  0  0  0
  -27.9450  -23.9460   17.6180 H   0  0  0  0  0  0  0  0  0  0  0  0
  -31.8580  -23.0770   14.8780 C   0  0  0  0  0  0  0  0  0  0  0  0
  -33.0300  -22.4020   15.1040 C   0  0  0  0  0  0  0  0  0  0  0  0
  -33.6370  -23.0340   16.2310 C   0  0  0  0  0  0  0  0  0  0  0  0
  -31.7920  -24.0610   15.8530 N   0  0  0  0  0  0  0  0  0  0  0  0
  -32.8510  -23.9950   16.6990 N   0  0  0  0  0  0  0  0  0  0  0  0
  -34.9480  -22.8190   16.8570 C   0  0  0  0  0  0  0  0  0  0  0  0
  -35.0640  -22.2910   18.1620 C   0  0  0  0  0  3  0  0  0  0  0  0
  -36.3370  -22.0780   18.7350 C   0  0  0  0  0  3  0  0  0  0  0  0
  -37.5080  -22.3910   18.0030 C   0  0  0  0  0  0  0  0  0  0  0  0
  -37.3840  -22.9350   16.7120 C   0  0  0  0  0  3  0  0  0  0  0  0
  -36.1170  -23.1500   16.1430 C   0  0  0  0  0  3  0  0  0  0  0  0
  -38.7850  -22.2430   18.4880 O   0  0  0  0  0  0  0  0  0  0  0  0
  -39.1640  -21.1250   19.1870 C   0  0  0  0  0  0  0  0  0  0  0  0
  -39.1290  -19.8380   18.6080 C   0  0  0  0  0  3  0  0  0  0  0  0
  -39.5960  -18.7270   19.3370 C   0  0  0  0  0  3  0  0  0  0  0  0
  -40.1030  -18.8990   20.6390 C   0  0  0  0  0  0  0  0  0  0  0  0
  -40.1420  -20.1810   21.2140 C   0  0  0  0  0  3  0  0  0  0  0  0
  -39.6780  -21.2920   20.4880 C   0  0  0  0  0  0  0  0  0  0  0  0
  -39.7410  -22.5270   21.0400 F   0  0  0  0  0  0  0  0  0  0  0  0
  -40.5580  -17.8310   21.3370 F   0  0  0  0  0  0  0  0  0  0  0  0
  -33.6020  -21.2980   14.2630 C   0  0  0  0  0  0  0  0  0  0  0  0
  -34.3500  -20.3870   14.8750 N   0  0  0  0  0  0  0  0  0  0  0  0
  -33.3490  -21.2100   13.0630 O   0  0  0  0  0  0  0  0  0  0  0  0
  -34.5520  -20.4480   15.8620 H   0  0  0  0  0  0  0  0  0  0  0  0
  -34.7330  -19.6190   14.3420 H   0  0  0  0  0  0  0  0  0  0  0  0
  -30.8570  -22.9490   13.9200 N   0  0  0  0  0  0  0  0  0  0  0  0
  -30.9520  -22.3180   13.1330 H   0  0  0  0  0  0  0  0  0  0  0  0
  -30.1240  -23.6340   13.7870 H   0  0  0  0  0  0  0  0  0  0  0  0
  -30.9110  -21.0830   17.6500 C   0  0  0  0  0  2  0  0  0  0  0  0
  -31.4020  -19.6250   17.7140 C   0  0  0  0  0  2  0  0  0  0  0  0
  -32.3350  -19.2810   16.5490 C   0  0  0  0  0  2  0  0  0  0  0  0
  -32.6530  -17.7750   16.4760 C   0  0  0  0  0  2  0  0  0  0  0  0
  -33.0410  -17.3850   15.1590 O   0  0  0  0  0  0  0  0  0  0  0  0
  -32.7170  -20.2160    8.6760 C   0  0  0  0  0  0  0  0  0  0  0  0
  -32.2110  -17.7240   14.1130 C   0  0  0  0  0  0  0  0  0  0  0  0
  -30.5350  -19.8370    9.7800 C   0  0  0  0  0  3  0  0  0  0  0  0
  -30.6010  -18.4290   11.9020 C   0  0  0  0  0  0  0  0  0  0  0  0
  -32.5550  -18.3740   10.3430 C   0  0  0  0  0  2  0  0  0  0  0  0
  -31.9730  -18.2110   11.7300 C   0  0  0  0  0  0  0  0  0  0  0  0
  -32.7790  -17.8490   12.8290 C   0  0  0  0  0  3  0  0  0  0  0  0
  -30.8220  -17.9490   14.2740 C   0  0  0  0  0  3  0  0  0  0  0  0
  -30.0200  -18.3030   13.1740 C   0  0  0  0  0  3  0  0  0  0  0  0
  -29.8060  -18.7970   10.6710 C   0  0  0  0  0  2  0  0  0  0  0  0
  -31.9860  -19.5130    9.5860 N   0  0  0  0  0  0  0  0  0  0  0  0
  -32.1930  -21.0910    7.9720 O   0  0  0  0  0  0  0  0  0  0  0  0
  -30.2960  -21.2430   10.3720 C   0  0  0  0  0  0  0  0  0  0  0  0
  -29.1800  -21.8740    9.9750 N   0  0  0  0  0  0  0  0  0  0  0  0
  -31.0840  -21.7300   11.1870 O   0  0  0  0  0  0  0  0  0  0  0  0
  -28.5870  -21.4070    9.3040 H   0  0  0  0  0  0  0  0  0  0  0  0
  -26.7340  -24.4660    9.3860 C   0  0  0  0  0  0  0  0  0  0  0  0
  -28.7290  -23.1900   10.4230 C   0  0  0  0  0  3  0  0  0  0  0  0
  -27.8630  -23.0750   11.6990 C   0  0  0  0  0  2  0  0  0  0  0  0
  -26.3630  -22.9810   11.4020 C   0  0  0  0  0  2  0  0  0  0  0  0
  -25.8900  -24.2120   10.6230 C   0  0  0  0  0  2  0  0  0  0  0  0
  -28.0620  -23.9720    9.2870 C   0  0  0  0  0  0  0  0  0  0  0  0
  -28.7920  -24.2070    8.1010 C   0  0  0  0  0  3  0  0  0  0  0  0
  -28.2180  -24.9210    7.0320 C   0  0  0  0  0  3  0  0  0  0  0  0
  -26.9100  -25.4220    7.1430 C   0  0  0  0  0  3  0  0  0  0  0  0
  -26.1720  -25.1970    8.3190 C   0  0  0  0  0  3  0  0  0  0  0  0
  -34.2370  -19.9410    8.4580 C   0  0  0  0  0  3  0  0  0  0  0  0
  -35.1620  -21.1190    8.9560 C   0  0  1  0  0  0  0  0  0  0  0  0
  -34.7580  -22.5020    8.3990 C   0  0  0  0  0  1  0  0  0  0  0  0
  -35.1470  -21.2070   10.5000 C   0  0  0  0  0  1  0  0  0  0  0  0
  -36.6290  -20.8420    8.5450 C   0  0  0  0  0  1  0  0  0  0  0  0
  -34.4410  -19.6870    7.0270 N   0  0  0  0  0  0  0  0  0  0  0  0
  -34.5430  -18.4690    6.4770 C   0  0  0  0  0  0  0  0  0  0  0  0
  -34.5480  -17.4310    7.1460 O   0  0  0  0  0  0  0  0  0  0  0  0
  -34.3920  -20.4860    6.4120 H   0  0  0  0  0  0  0  0  0  0  0  0
  -33.2870  -18.0340    4.3460 C   0  0  0  0  0  1  0  0  0  0  0  0
  -34.6560  -18.3910    4.9440 C   0  0  0  0  0  3  0  0  0  0  0  0
  -37.0420  -17.8450    4.7630 C   0  0  0  0  0  1  0  0  0  0  0  0
  -35.6730  -17.4230    4.4780 N   0  0  0  0  0  0  0  0  0  0  0  0
  -35.5910  -17.2690    3.4770 H   0  0  0  0  0  0  0  0  0  0  0  0
  1  5  1  0
  1  3  2  0
  2  1  1  0
  4  2  1  0
  6  5  1  0
  7  6  1  0
  8  7  1  0
  9  7  1  0
 10  7  1  0
 11 20  1  0
 11 10  1  0
 12 20  1  0
 12 18  1  0
 14 13  1  0
 15 16  1  0
 15 14  1  0
 16 25  1  0
 16 17  1  0
 17 18  1  0
 18 13  1  0
 19 12  2  0
 20 21  1  0
 22 23  2  0
 22 25  1  0
 23 24  1  0
 24 26  2  0
 24 27  1  0
 25 26  1  0
 27 28  1  0
 28 29  2  0
 30 33  1  0
 30 29  1  0
 31 30  2  0
 32 31  1  0
 32 27  2  0
 33 34  1  0
 34 39  1  0
 35 34  2  0
 35 36  1  0
 36 37  2  0
 37 38  1  0
 37 41  1  0
 39 40  1  0
 39 38  2  0
 42 43  1  0
 42 23  1  0
 43 45  1  0
 44 42  2  0
 46 43  1  0
 47 22  1  0
 48 47  1  0
 49 47  1  0
 50 51  1  0
 50  2  1  0
 52 51  1  0
 53 52  1  0
 54 53  1  0
 55 65  1  0
 56 62  1  0
 56 54  1  0
 57 67  1  0
 57 64  1  0
 58 63  1  0
 59 60  1  0
 60 58  2  0
 60 61  1  0
 61 56  2  0
 63 62  2  0
 64 58  1  0
 65 57  1  0
 65 59  1  0
 66 55  2  0
 67 69  2  0
 68 67  1  0
 70 68  1  0
 71 75  1  0
 72 68  1  0
 72 73  1  0
 74 73  1  0
 75 74  1  0
 76 71  1  0
 76 72  1  0
 77 76  2  0
 78 79  2  0
 78 77  1  0
 79 80  1  0
 80 71  2  0
 81 55  1  0
 81 82  1  0
 82 84  1  1
 83 82  1  0
 85 82  1  0
 86 81  1  0
 87 86  1  0
 87 88  2  0
 89 86  1  0
 91 90  1  0
 91 87  1  0
 93 92  1  0
 93 91  1  0
 94 93  1  0
M  ISO  4  12 100  20 100  53 101  54 101
M  END
>  <TORSDO>  (95) 
F 25

>  <SCORE>  (95) 
-0.958

>  <name>  (95) 
96

>  <ligand_id>  (95) 
96

>  <original_smiles>  (95) 
[H]c1c([H])c([H])c2c(c1[H])C([H])([H])C([H])([H])C([H])([H])C2([H])N([H])C(=O)C1([H])N(C(=O)C([H])(N([H])C(=O)C([H])(N([H])C([H])([H])[H])C([H])([H])[H])C(C([H])([H])[H])(C([H])([H])[H])C([H])([H])[H])C([H])([H])c2c([H])c(OC([H])([H])C([H])([H])C([H])([H])C([H])([H])N([H])C(=O)C([H])([H])C([H])([H])[N+]([H])([H])C([H])([H])C([H])([H])N([H])C(=O)N3C([H])([H])C([H])([H])C([H])([H])C([H])(n4nc(-c5c([H])c([H])c(Oc6c([H])c([H])c(F)c([H])c6F)c([H])c5[H])c(C(=O)N([H])[H])c4N([H])[H])C3([H])[H])c([H])c([H])c2C1([H])[H]

>  <smiles>  (95) 
[H]c1c([H])c([H])c2c(c1[H])C([H])([H])C([H])([H])C([H])([H])C2([H])N([H])C(=O)C1([H])N(C(=O)C([H])(N([H])C(=O)C([H])(N([H])C([H])([H])[H])C([H])([H])[H])C(C([H])([H])[H])(C([H])([H])[H])C([H])([H])[H])C([H])([H])c2c([H])c(OC([H])([H])C([H])([H])C([H])([H])C([H])([H])N([H])C(=O)C([H])([H])C([H])([H])[N+]([H])([H])C([H])([H])C([H])([H])N([H])C(=O)N3C([H])([H])C([H])([H])C([H])([H])C([H])(n4nc(-c5c([H])c([H])c(Oc6c([H])c([H])c(F)c([H])c6F)c([H])c5[H])c(C(=O)N([H])[H])c4N([H])[H])C3([H])[H])c([H])c([H])c2C1([H])[H]

$$$$
97:0:0
     RDKit          3D

 90 97  0  0  1  0  0  0  0  0999 V2000
  -28.7340  -21.8750   20.1860 C   0  0  0  0  0  0  0  0  0  0  0  0
  -29.0090  -23.1550   19.9050 N   0  0  0  0  0  0  0  0  0  0  0  0
  -27.6940  -21.5380   20.7560 O   0  0  0  0  0  0  0  0  0  0  0  0
  -29.8810  -23.3430   19.4280 H   0  0  0  0  0  0  0  0  0  0  0  0
  -30.0600  -19.7280   20.1430 C   0  0  0  0  0  3  0  0  0  0  0  0
  -29.7910  -20.9850   19.7090 C   0  0  0  0  0  3  0  0  0  0  0  0
  -29.3740  -18.9670   21.1890 C   0  0  0  0  0  3  0  0  0  0  0  0
  -29.6480  -17.6990   21.5740 C   0  0  0  0  0  3  0  0  0  0  0  0
  -30.7110  -16.7500   21.0290 C   0  0  0  0  0  2  0  0  0  0  0  0
  -30.8010  -14.4190   20.1530 C   0  0  0  0  0  0  0  0  0  0  0  0
  -30.4080  -12.3080   18.9470 C   0  0  0  0  0  2  0  0  0  0  0  0
  -29.4130  -12.5590   17.7960 C   0  0  0  0  0  2  0  0  0  0  0  0
  -27.9600  -12.4170   18.2890 C   0  0  0  0  0  2  0  0  0  0  0  0
  -27.6890  -13.2410   19.5770 C   0  0  0  0  0  3  0  0  0  0  0  0
  -28.7870  -12.9710   20.6310 C   0  0  0  0  0  2  0  0  0  0  0  0
  -30.0950  -13.2630   20.0170 N   0  0  0  0  0  0  0  0  0  0  0  0
  -31.8720  -14.6280   19.5780 O   0  0  0  0  0  0  0  0  0  0  0  0
  -30.2050  -15.3800   20.8760 N   0  0  0  0  0  0  0  0  0  0  0  0
  -29.3350  -15.1460   21.3310 H   0  0  0  0  0  0  0  0  0  0  0  0
  -25.3200  -13.8650   20.3750 C   0  0  0  0  0  0  0  0  0  0  0  0
  -24.2660  -13.1000   20.7940 C   0  0  0  0  0  0  0  0  0  0  0  0
  -24.7210  -11.7450   20.7560 C   0  0  0  0  0  0  0  0  0  0  0  0
  -26.3520  -12.9780   20.1090 N   0  0  0  0  0  0  0  0  0  0  0  0
  -25.9970  -11.6990   20.3930 N   0  0  0  0  0  0  0  0  0  0  0  0
  -24.0000  -10.4870   20.9840 C   0  0  0  0  0  0  0  0  0  0  0  0
  -24.4570   -9.5280   21.9170 C   0  0  0  0  0  3  0  0  0  0  0  0
  -23.7330   -8.3350   22.1280 C   0  0  0  0  0  3  0  0  0  0  0  0
  -22.5390   -8.0910   21.4060 C   0  0  0  0  0  0  0  0  0  0  0  0
  -22.1060   -9.0360   20.4590 C   0  0  0  0  0  3  0  0  0  0  0  0
  -22.8320  -10.2200   20.2440 C   0  0  0  0  0  3  0  0  0  0  0  0
  -21.7830   -6.9500   21.5300 O   0  0  0  0  0  0  0  0  0  0  0  0
  -21.7450   -6.2360   22.7020 C   0  0  0  0  0  0  0  0  0  0  0  0
  -21.3320   -6.8210   23.9180 C   0  0  0  0  0  3  0  0  0  0  0  0
  -21.2360   -6.0320   25.0820 C   0  0  0  0  0  3  0  0  0  0  0  0
  -21.5440   -4.6600   25.0320 C   0  0  0  0  0  0  0  0  0  0  0  0
  -21.9540   -4.0750   23.8210 C   0  0  0  0  0  3  0  0  0  0  0  0
  -22.0500   -4.8600   22.6580 C   0  0  0  0  0  0  0  0  0  0  0  0
  -22.4210   -4.2850   21.4900 F   0  0  0  0  0  0  0  0  0  0  0  0
  -21.4480   -3.9020   26.1490 F   0  0  0  0  0  0  0  0  0  0  0  0
  -22.8830  -13.5830   21.1250 C   0  0  0  0  0  0  0  0  0  0  0  0
  -22.1920  -12.8980   22.0280 N   0  0  0  0  0  0  0  0  0  0  0  0
  -22.4270  -14.6060   20.6150 O   0  0  0  0  0  0  0  0  0  0  0  0
  -22.5730  -12.0710   22.4630 H   0  0  0  0  0  0  0  0  0  0  0  0
  -21.2680  -13.2080   22.2920 H   0  0  0  0  0  0  0  0  0  0  0  0
  -25.4830  -15.2340   20.1760 N   0  0  0  0  0  0  0  0  0  0  0  0
  -24.7230  -15.8980   20.2820 H   0  0  0  0  0  0  0  0  0  0  0  0
  -26.3180  -15.6570   19.7930 H   0  0  0  0  0  0  0  0  0  0  0  0
  -28.2220  -24.3300   20.2950 C   0  0  0  0  0  2  0  0  0  0  0  0
  -28.5820  -25.5650   19.4340 C   0  0  0  0  0  2  0  0  0  0  0  0
  -28.4200  -26.7980   20.1400 O   0  0  0  0  0  0  0  0  0  0  0  0
  -24.5850  -31.8910   23.2710 C   0  0  0  0  0  0  0  0  0  0  0  0
  -27.2120  -27.4630   20.1520 C   0  0  0  0  0  0  0  0  0  0  0  0
  -23.3640  -30.4970   21.6330 C   0  0  0  0  0  3  0  0  0  0  0  0
  -24.8060  -28.9570   20.1990 C   0  0  0  0  0  0  0  0  0  0  0  0
  -25.8890  -30.8510   21.4230 C   0  0  0  0  0  2  0  0  0  0  0  0
  -25.9670  -29.4810   20.7790 C   0  0  0  0  0  0  0  0  0  0  0  0
  -27.1670  -28.7390   20.7590 C   0  0  0  0  0  3  0  0  0  0  0  0
  -26.0260  -26.9410   19.5830 C   0  0  0  0  0  3  0  0  0  0  0  0
  -24.8290  -27.6830   19.6060 C   0  0  0  0  0  3  0  0  0  0  0  0
  -23.5650  -29.8210   20.2500 C   0  0  0  0  0  2  0  0  0  0  0  0
  -24.6300  -31.0960   22.1660 N   0  0  0  0  0  0  0  0  0  0  0  0
  -23.5090  -32.1610   23.8230 O   0  0  0  0  0  0  0  0  0  0  0  0
  -22.7220  -29.4720   22.5940 C   0  0  0  0  0  0  0  0  0  0  0  0
  -21.3980  -29.2850   22.4650 N   0  0  0  0  0  0  0  0  0  0  0  0
  -23.4080  -28.8470   23.4060 O   0  0  0  0  0  0  0  0  0  0  0  0
  -20.9060  -29.8400   21.7800 H   0  0  0  0  0  0  0  0  0  0  0  0
  -18.0280  -28.0760   22.9480 C   0  0  0  0  0  0  0  0  0  0  0  0
  -20.5840  -28.3460   23.2350 C   0  0  0  0  0  3  0  0  0  0  0  0
  -20.6980  -26.9130   22.6660 C   0  0  0  0  0  2  0  0  0  0  0  0
  -19.6030  -26.5810   21.6480 C   0  0  0  0  0  2  0  0  0  0  0  0
  -18.2150  -26.7240   22.2820 C   0  0  0  0  0  2  0  0  0  0  0  0
  -19.1420  -28.8450   23.3810 C   0  0  0  0  0  0  0  0  0  0  0  0
  -18.9130  -30.1130   23.9590 C   0  0  0  0  0  3  0  0  0  0  0  0
  -17.6060  -30.6100   24.1120 C   0  0  0  0  0  3  0  0  0  0  0  0
  -16.5070  -29.8370   23.6990 C   0  0  0  0  0  3  0  0  0  0  0  0
  -16.7190  -28.5730   23.1200 C   0  0  0  0  0  3  0  0  0  0  0  0
  -25.8790  -32.5170   23.8810 C   0  0  0  0  0  3  0  0  0  0  0  0
  -25.5810  -33.9160   24.2100 N   0  0  0  0  0  0  0  0  0  0  0  0
  -25.9180  -34.9660   23.4480 C   0  0  0  0  0  0  0  0  0  0  0  0
  -26.5860  -34.8580   22.4170 O   0  0  0  0  0  0  0  0  0  0  0  0
  -24.9920  -34.0760   25.0140 H   0  0  0  0  0  0  0  0  0  0  0  0
  -24.1980  -36.7650   23.0890 C   0  0  0  0  0  1  0  0  0  0  0  0
  -25.4350  -36.3550   23.9040 C   0  0  0  0  0  3  0  0  0  0  0  0
  -27.5690  -37.2280   24.7430 C   0  0  0  0  0  1  0  0  0  0  0  0
  -26.4700  -37.4040   23.7970 N   0  0  0  0  0  0  0  0  0  0  0  0
  -26.0660  -38.3240   23.9510 H   0  0  0  0  0  0  0  0  0  0  0  0
  -26.4020  -31.7450   25.1540 C   0  0  1  0  0  0  0  0  0  0  0  0
  -25.3180  -31.5100   26.2310 C   0  0  0  0  0  1  0  0  0  0  0  0
  -26.9770  -30.3660   24.7550 C   0  0  0  0  0  1  0  0  0  0  0  0
  -27.5590  -32.5360   25.8100 C   0  0  0  0  0  1  0  0  0  0  0  0
  1  3  2  0
  2  1  1  0
  2 48  1  0
  4  2  1  0
  5  7  1  0
  6  5  2  0
  6  1  1  0
  7  8  2  0
  9  8  1  0
 10 18  1  0
 11 16  1  0
 12 13  1  0
 12 11  1  0
 14 13  1  0
 14 23  1  0
 14 15  1  0
 16 10  1  0
 16 15  1  0
 17 10  2  0
 18  9  1  0
 18 19  1  0
 20 21  2  0
 21 40  1  0
 22 21  1  0
 22 25  1  0
 23 20  1  0
 23 24  1  0
 24 22  2  0
 25 26  1  0
 26 27  2  0
 28 31  1  0
 28 27  1  0
 29 28  2  0
 30 29  1  0
 30 25  2  0
 31 32  1  0
 32 33  1  0
 33 34  2  0
 35 34  1  0
 35 39  1  0
 36 35  2  0
 37 32  2  0
 37 36  1  0
 38 37  1  0
 40 41  1  0
 41 44  1  0
 41 43  1  0
 42 40  2  0
 45 46  1  0
 45 20  1  0
 47 45  1  0
 49 50  1  0
 49 48  1  0
 50 52  1  0
 51 62  2  0
 52 57  1  0
 53 61  1  0
 53 63  1  0
 54 60  1  0
 54 56  1  0
 55 61  1  0
 56 55  1  0
 57 56  2  0
 58 59  1  0
 58 52  2  0
 59 54  2  0
 60 53  1  0
 61 51  1  0
 63 65  2  0
 64 63  1  0
 66 64  1  0
 67 76  2  0
 67 72  1  0
 68 64  1  0
 68 72  1  0
 69 68  1  0
 70 71  1  0
 70 69  1  0
 71 67  1  0
 72 73  2  0
 73 74  1  0
 75 74  2  0
 76 75  1  0
 77 51  1  0
 77 78  1  0
 77 87  1  0
 78 81  1  0
 79 83  1  0
 79 78  1  0
 80 79  2  0
 83 82  1  0
 85 83  1  0
 85 86  1  0
 85 84  1  0
 87 90  1  1
 87 88  1  0
 89 87  1  0
M  ISO  4  10 100  18 100  49 101  50 101
M  END
>  <TORSDO>  (96) 
F 21

>  <SCORE>  (96) 
-12.763

>  <name>  (96) 
97

>  <ligand_id>  (96) 
97

>  <original_smiles>  (96) 
[H]C(C(=O)N([H])C([H])([H])C([H])([H])Oc1c([H])c([H])c2c(c1[H])C([H])([H])N(C(=O)C([H])(N([H])C(=O)C([H])(N([H])C([H])([H])[H])C([H])([H])[H])C(C([H])([H])[H])(C([H])([H])[H])C([H])([H])[H])C([H])(C(=O)N([H])C1([H])c3c([H])c([H])c([H])c([H])c3C([H])([H])C([H])([H])C1([H])[H])C2([H])[H])=C([H])C([H])=C([H])C([H])([H])N([H])C(=O)N1C([H])([H])C([H])([H])C([H])([H])C([H])(n2nc(-c3c([H])c([H])c(Oc4c([H])c([H])c(F)c([H])c4F)c([H])c3[H])c(C(=O)N([H])[H])c2N([H])[H])C1([H])[H]

>  <smiles>  (96) 
[H]C(C(=O)N([H])C([H])([H])C([H])([H])Oc1c([H])c([H])c2c(c1[H])C([H])([H])N(C(=O)C([H])(N([H])C(=O)C([H])(N([H])C([H])([H])[H])C([H])([H])[H])C(C([H])([H])[H])(C([H])([H])[H])C([H])([H])[H])C([H])(C(=O)N([H])C1([H])c3c([H])c([H])c([H])c([H])c3C([H])([H])C([H])([H])C1([H])[H])C2([H])[H])=C([H])C([H])=C([H])C([H])([H])N([H])C(=O)N1C([H])([H])C([H])([H])C([H])([H])C([H])(n2nc(-c3c([H])c([H])c(Oc4c([H])c([H])c(F)c([H])c4F)c([H])c3[H])c(C(=O)N([H])[H])c2N([H])[H])C1([H])[H]

$$$$
98:0:0
     RDKit          3D

 93100  0  0  1  0  0  0  0  0999 V2000
  -28.9890  -22.2270   23.2630 C   0  0  0  0  0  2  0  0  0  0  0  0
  -29.9500  -21.5650   22.3650 N   0  0  0  0  0  4  0  0  0  0  0  0
  -29.8170  -21.9970   21.4640 H   0  0  0  0  0  0  0  0  0  0  0  0
  -30.8840  -21.7800   22.6710 H   0  0  0  0  0  0  0  0  0  0  0  0
  -29.7640  -20.1020   22.2780 C   0  0  0  0  0  2  0  0  0  0  0  0
  -30.7180  -19.4440   21.2670 C   0  0  0  0  0  2  0  0  0  0  0  0
  -30.5550  -17.9150   21.2220 C   0  0  0  0  0  2  0  0  0  0  0  0
  -31.6820  -17.2330   20.4320 C   0  0  0  0  0  2  0  0  0  0  0  0
  -31.9950  -15.8050   20.9100 C   0  0  0  0  0  2  0  0  0  0  0  0
  -30.8880  -14.1610   19.4270 C   0  0  0  0  0  0  0  0  0  0  0  0
  -30.4090  -11.9080   18.5740 C   0  0  0  0  0  2  0  0  0  0  0  0
  -29.3120  -11.8690   17.5010 C   0  0  0  0  0  2  0  0  0  0  0  0
  -27.9290  -11.7410   18.1620 C   0  0  0  0  0  2  0  0  0  0  0  0
  -27.7040  -12.8040   19.2680 C   0  0  0  0  0  3  0  0  0  0  0  0
  -28.8980  -12.8590   20.2510 C   0  0  0  0  0  2  0  0  0  0  0  0
  -30.1470  -13.0300   19.4850 N   0  0  0  0  0  0  0  0  0  0  0  0
  -31.6400  -14.4380   18.4880 O   0  0  0  0  0  0  0  0  0  0  0  0
  -30.9490  -14.8380   20.5780 N   0  0  0  0  0  0  0  0  0  0  0  0
  -30.3650  -14.5010   21.3290 H   0  0  0  0  0  0  0  0  0  0  0  0
  -25.5130  -13.4950   20.4380 C   0  0  0  0  0  0  0  0  0  0  0  0
  -24.4740  -12.7580   20.9400 C   0  0  0  0  0  0  0  0  0  0  0  0
  -24.8220  -11.3890   20.7330 C   0  0  0  0  0  0  0  0  0  0  0  0
  -26.4380  -12.5750   19.9660 N   0  0  0  0  0  0  0  0  0  0  0  0
  -26.0320  -11.2990   20.1960 N   0  0  0  0  0  0  0  0  0  0  0  0
  -24.0510  -10.1610   20.9670 C   0  0  0  0  0  0  0  0  0  0  0  0
  -24.4840   -9.1800   21.8880 C   0  0  0  0  0  3  0  0  0  0  0  0
  -23.7180   -8.0150   22.1080 C   0  0  0  0  0  3  0  0  0  0  0  0
  -22.5030   -7.8230   21.4090 C   0  0  0  0  0  0  0  0  0  0  0  0
  -22.0870   -8.7900   20.4780 C   0  0  0  0  0  3  0  0  0  0  0  0
  -22.8530   -9.9460   20.2560 C   0  0  0  0  0  3  0  0  0  0  0  0
  -21.7060   -6.7110   21.5410 O   0  0  0  0  0  0  0  0  0  0  0  0
  -21.5820   -6.0510   22.7360 C   0  0  0  0  0  0  0  0  0  0  0  0
  -21.0830   -6.6920   23.8930 C   0  0  0  0  0  3  0  0  0  0  0  0
  -20.9060   -5.9580   25.0830 C   0  0  0  0  0  3  0  0  0  0  0  0
  -21.2150   -4.5860   25.1170 C   0  0  0  0  0  0  0  0  0  0  0  0
  -21.7070   -3.9450   23.9660 C   0  0  0  0  0  3  0  0  0  0  0  0
  -21.8850   -4.6760   22.7780 C   0  0  0  0  0  0  0  0  0  0  0  0
  -22.3380   -4.0490   21.6660 F   0  0  0  0  0  0  0  0  0  0  0  0
  -21.0380   -3.8800   26.2590 F   0  0  0  0  0  0  0  0  0  0  0  0
  -23.1840  -13.2930   21.4950 C   0  0  0  0  0  0  0  0  0  0  0  0
  -22.5810  -12.5820   22.4420 N   0  0  0  0  0  0  0  0  0  0  0  0
  -22.7260  -14.3740   21.1250 O   0  0  0  0  0  0  0  0  0  0  0  0
  -22.9650  -11.7040   22.7610 H   0  0  0  0  0  0  0  0  0  0  0  0
  -21.7230  -12.9180   22.8540 H   0  0  0  0  0  0  0  0  0  0  0  0
  -25.7410  -14.8620   20.3270 N   0  0  0  0  0  0  0  0  0  0  0  0
  -25.0600  -15.5520   20.6220 H   0  0  0  0  0  0  0  0  0  0  0  0
  -26.5560  -15.2740   19.8900 H   0  0  0  0  0  0  0  0  0  0  0  0
  -28.9330  -23.7300   22.9680 C   0  0  0  0  0  2  0  0  0  0  0  0
  -28.7510  -23.9490   21.5350 N   0  0  0  0  0  0  0  0  0  0  0  0
  -27.8420  -23.5890   21.2470 H   0  0  0  0  0  0  0  0  0  0  0  0
  -28.7710  -25.3860   21.2790 C   0  0  0  0  0  2  0  0  0  0  0  0
  -28.8940  -25.6870   19.7770 C   0  0  0  0  0  2  0  0  0  0  0  0
  -28.8270  -27.0990   19.5750 O   0  0  0  0  0  0  0  0  0  0  0  0
  -24.7740  -31.7510   23.1050 C   0  0  0  0  0  0  0  0  0  0  0  0
  -27.5950  -27.7040   19.6700 C   0  0  0  0  0  0  0  0  0  0  0  0
  -23.6110  -30.3960   21.3960 C   0  0  0  0  0  3  0  0  0  0  0  0
  -25.1130  -29.0450   19.8460 C   0  0  0  0  0  0  0  0  0  0  0  0
  -26.1060  -30.9160   21.1730 C   0  0  0  0  0  2  0  0  0  0  0  0
  -26.2530  -29.6000   20.4410 C   0  0  0  0  0  0  0  0  0  0  0  0
  -27.4950  -28.9370   20.3500 C   0  0  0  0  0  3  0  0  0  0  0  0
  -26.4350  -27.1550   19.0750 C   0  0  0  0  0  3  0  0  0  0  0  0
  -25.1980  -27.8180   19.1650 C   0  0  0  0  0  3  0  0  0  0  0  0
  -23.8250  -29.8250   19.9700 C   0  0  0  0  0  2  0  0  0  0  0  0
  -24.8500  -31.0320   21.9500 N   0  0  0  0  0  0  0  0  0  0  0  0
  -23.6910  -31.9230   23.6840 O   0  0  0  0  0  0  0  0  0  0  0  0
  -23.0410  -29.2770   22.2950 C   0  0  0  0  0  0  0  0  0  0  0  0
  -21.7390  -28.9870   22.1370 N   0  0  0  0  0  0  0  0  0  0  0  0
  -23.7670  -28.6680   23.0850 O   0  0  0  0  0  0  0  0  0  0  0  0
  -21.2110  -29.5350   21.4710 H   0  0  0  0  0  0  0  0  0  0  0  0
  -18.4750  -27.4900   22.5110 C   0  0  0  0  0  0  0  0  0  0  0  0
  -20.9950  -27.9500   22.8490 C   0  0  0  0  0  3  0  0  0  0  0  0
  -21.2330  -26.5630   22.2080 C   0  0  0  0  0  2  0  0  0  0  0  0
  -20.1800  -26.1960   21.1580 C   0  0  0  0  0  2  0  0  0  0  0  0
  -18.7790  -26.1930   21.7790 C   0  0  0  0  0  2  0  0  0  0  0  0
  -19.5170  -28.3220   22.9980 C   0  0  0  0  0  0  0  0  0  0  0  0
  -19.1830  -29.5330   23.6420 C   0  0  0  0  0  3  0  0  0  0  0  0
  -17.8400  -29.9150   23.8030 C   0  0  0  0  0  3  0  0  0  0  0  0
  -16.8100  -29.0810   23.3340 C   0  0  0  0  0  3  0  0  0  0  0  0
  -17.1280  -27.8690   22.6940 C   0  0  0  0  0  3  0  0  0  0  0  0
  -26.0380  -32.4100   23.7410 C   0  0  0  0  0  3  0  0  0  0  0  0
  -26.5720  -31.6350   25.0070 C   0  0  1  0  0  0  0  0  0  0  0  0
  -25.4760  -31.3260   26.0540 C   0  0  0  0  0  1  0  0  0  0  0  0
  -27.2190  -30.2930   24.5900 C   0  0  0  0  0  1  0  0  0  0  0  0
  -27.6750  -32.4650   25.7050 C   0  0  0  0  0  1  0  0  0  0  0  0
  -25.6860  -33.7930   24.0880 N   0  0  0  0  0  0  0  0  0  0  0  0
  -26.0160  -34.8660   23.3570 C   0  0  0  0  0  0  0  0  0  0  0  0
  -26.7170  -34.7990   22.3420 O   0  0  0  0  0  0  0  0  0  0  0  0
  -25.0630  -33.9190   24.8720 H   0  0  0  0  0  0  0  0  0  0  0  0
  -24.2660  -36.6310   22.9680 C   0  0  0  0  0  1  0  0  0  0  0  0
  -25.4800  -36.2330   23.8230 C   0  0  0  0  0  3  0  0  0  0  0  0
  -27.5530  -37.1420   24.7710 C   0  0  0  0  0  1  0  0  0  0  0  0
  -26.4950  -37.3090   23.7790 N   0  0  0  0  0  0  0  0  0  0  0  0
  -26.0640  -38.2180   23.9290 H   0  0  0  0  0  0  0  0  0  0  0  0
  2  4  1  0
  2  1  1  0
  3  2  1  0
  5  2  1  0
  6  5  1  0
  7  6  1  0
  8  9  1  0
  8  7  1  0
 10 16  1  0
 10 18  1  0
 11 16  1  0
 12 13  1  0
 12 11  1  0
 14 13  1  0
 14 23  1  0
 14 15  1  0
 16 15  1  0
 17 10  2  0
 18  9  1  0
 18 19  1  0
 20 21  2  0
 21 40  1  0
 22 21  1  0
 22 25  1  0
 23 24  1  0
 23 20  1  0
 24 22  2  0
 25 26  1  0
 26 27  2  0
 28 31  1  0
 28 27  1  0
 29 28  2  0
 30 29  1  0
 30 25  2  0
 31 32  1  0
 32 37  2  0
 32 33  1  0
 33 34  2  0
 34 35  1  0
 35 39  1  0
 36 35  2  0
 37 36  1  0
 38 37  1  0
 40 41  1  0
 41 43  1  0
 41 44  1  0
 42 40  2  0
 45 20  1  0
 45 46  1  0
 47 45  1  0
 48  1  1  0
 49 48  1  0
 50 49  1  0
 51 49  1  0
 52 51  1  0
 53 55  1  0
 53 52  1  0
 54 65  2  0
 55 60  1  0
 56 64  1  0
 56 66  1  0
 57 63  1  0
 57 59  1  0
 58 64  1  0
 59 58  1  0
 60 59  2  0
 61 62  1  0
 61 55  2  0
 62 57  2  0
 63 56  1  0
 64 54  1  0
 66 68  2  0
 67 66  1  0
 69 67  1  0
 70 79  2  0
 70 75  1  0
 71 67  1  0
 71 75  1  0
 72 71  1  0
 73 74  1  0
 73 72  1  0
 74 70  1  0
 75 76  2  0
 76 77  1  0
 78 77  2  0
 79 78  1  0
 80 54  1  0
 80 85  1  0
 80 81  1  0
 81 84  1  1
 81 82  1  0
 83 81  1  0
 85 88  1  0
 86 90  1  0
 86 85  1  0
 87 86  2  0
 90 89  1  0
 92 90  1  0
 92 93  1  0
 92 91  1  0
M  ISO  4  10 100  18 100  52 101  53 101
M  END
>  <TORSDO>  (97) 
F 26

>  <SCORE>  (97) 
-8.869

>  <name>  (97) 
98

>  <ligand_id>  (97) 
98

>  <original_smiles>  (97) 
[H]c1c([H])c([H])c2c(c1[H])C([H])([H])C([H])([H])C([H])([H])C2([H])N([H])C(=O)C1([H])N(C(=O)C([H])(N([H])C(=O)C([H])(N([H])C([H])([H])[H])C([H])([H])[H])C(C([H])([H])[H])(C([H])([H])[H])C([H])([H])[H])C([H])([H])c2c([H])c(OC([H])([H])C([H])([H])N([H])C([H])([H])C([H])([H])[N+]([H])([H])C([H])([H])C([H])([H])C([H])([H])C([H])([H])C([H])([H])N([H])C(=O)N3C([H])([H])C([H])([H])C([H])([H])C([H])(n4nc(-c5c([H])c([H])c(Oc6c([H])c([H])c(F)c([H])c6F)c([H])c5[H])c(C(=O)N([H])[H])c4N([H])[H])C3([H])[H])c([H])c([H])c2C1([H])[H]

>  <smiles>  (97) 
[H]c1c([H])c([H])c2c(c1[H])C([H])([H])C([H])([H])C([H])([H])C2([H])N([H])C(=O)C1([H])N(C(=O)C([H])(N([H])C(=O)C([H])(N([H])C([H])([H])[H])C([H])([H])[H])C(C([H])([H])[H])(C([H])([H])[H])C([H])([H])[H])C([H])([H])c2c([H])c(OC([H])([H])C([H])([H])N([H])C([H])([H])C([H])([H])[N+]([H])([H])C([H])([H])C([H])([H])C([H])([H])C([H])([H])C([H])([H])N([H])C(=O)N3C([H])([H])C([H])([H])C([H])([H])C([H])(n4nc(-c5c([H])c([H])c(Oc6c([H])c([H])c(F)c([H])c6F)c([H])c5[H])c(C(=O)N([H])[H])c4N([H])[H])C3([H])[H])c([H])c([H])c2C1([H])[H]

$$$$
