0:0:0
     RDKit          3D

 94101  0  0  1  0  0  0  0  0999 V2000
  -29.6420  -20.9360   21.3980 C   0  0  0  0  0  2  0  0  0  0  0  0
  -30.6720  -19.9460   21.1280 N   0  0  0  0  0  0  0  0  0  0  0  0
  -31.5750  -20.4220   21.0650 H   0  0  0  0  0  0  0  0  0  0  0  0
  -30.7350  -18.9250   22.1710 C   0  0  0  0  0  2  0  0  0  0  0  0
  -31.8620  -17.9180   21.9090 C   0  0  0  0  0  2  0  0  0  0  0  0
  -31.8940  -16.8860   22.9590 N   0  0  0  0  0  4  0  0  0  0  0  0
  -32.0680  -17.3110   23.8560 H   0  0  0  0  0  0  0  0  0  0  0  0
  -30.9930  -16.4390   22.9960 H   0  0  0  0  0  0  0  0  0  0  0  0
  -32.8850  -15.8220   22.7330 C   0  0  0  0  0  2  0  0  0  0  0  0
  -32.2320  -14.4410   22.8820 C   0  0  0  0  0  2  0  0  0  0  0  0
  -30.8940  -14.1770   20.8090 C   0  0  0  0  0  0  0  0  0  0  0  0
  -30.3960  -12.2840   19.3380 C   0  0  0  0  0  2  0  0  0  0  0  0
  -29.4510  -12.5440   18.1610 C   0  0  0  0  0  2  0  0  0  0  0  0
  -27.9900  -12.3770   18.6060 C   0  0  0  0  0  2  0  0  0  0  0  0
  -27.6620  -13.2040   19.8750 C   0  0  0  0  0  3  0  0  0  0  0  0
  -28.7060  -12.9650   20.9880 C   0  0  0  0  0  2  0  0  0  0  0  0
  -30.0550  -13.1890   20.4400 N   0  0  0  0  0  0  0  0  0  0  0  0
  -31.7480  -14.6780   20.0730 O   0  0  0  0  0  0  0  0  0  0  0  0
  -30.9730  -14.2790   22.1430 N   0  0  0  0  0  0  0  0  0  0  0  0
  -30.2410  -13.7850   22.6350 H   0  0  0  0  0  0  0  0  0  0  0  0
  -25.2580  -13.8170   20.5690 C   0  0  0  0  0  0  0  0  0  0  0  0
  -24.1830  -13.0440   20.9180 C   0  0  0  0  0  0  0  0  0  0  0  0
  -24.6370  -11.6910   20.8720 C   0  0  0  0  0  0  0  0  0  0  0  0
  -26.3030  -12.9340   20.3400 N   0  0  0  0  0  0  0  0  0  0  0  0
  -25.9300  -11.6490   20.5780 N   0  0  0  0  0  0  0  0  0  0  0  0
  -23.9040  -10.4290   21.0390 C   0  0  0  0  0  0  0  0  0  0  0  0
  -24.3590   -9.4210   21.9180 C   0  0  0  0  0  3  0  0  0  0  0  0
  -23.6280   -8.2240   22.0750 C   0  0  0  0  0  3  0  0  0  0  0  0
  -22.4260   -8.0270   21.3540 C   0  0  0  0  0  0  0  0  0  0  0  0
  -21.9890   -9.0250   20.4640 C   0  0  0  0  0  3  0  0  0  0  0  0
  -22.7210  -10.2130   20.3050 C   0  0  0  0  0  3  0  0  0  0  0  0
  -21.6630   -6.8870   21.4240 O   0  0  0  0  0  0  0  0  0  0  0  0
  -21.6850   -6.0730   22.5280 C   0  0  0  0  0  0  0  0  0  0  0  0
  -21.4020   -6.5640   23.8220 C   0  0  0  0  0  3  0  0  0  0  0  0
  -21.3650   -5.6800   24.9180 C   0  0  0  0  0  3  0  0  0  0  0  0
  -21.6040   -4.3050   24.7230 C   0  0  0  0  0  0  0  0  0  0  0  0
  -21.8810   -3.8150   23.4350 C   0  0  0  0  0  3  0  0  0  0  0  0
  -21.9190   -4.6960   22.3410 C   0  0  0  0  0  0  0  0  0  0  0  0
  -22.1660   -4.2140   21.0980 F   0  0  0  0  0  0  0  0  0  0  0  0
  -21.5620   -3.4540   25.7740 F   0  0  0  0  0  0  0  0  0  0  0  0
  -22.7850  -13.5240   21.1850 C   0  0  0  0  0  0  0  0  0  0  0  0
  -22.0490  -12.8230   22.0400 N   0  0  0  0  0  0  0  0  0  0  0  0
  -22.3540  -14.5560   20.6720 O   0  0  0  0  0  0  0  0  0  0  0  0
  -22.4090  -11.9870   22.4770 H   0  0  0  0  0  0  0  0  0  0  0  0
  -21.1110  -13.1270   22.2610 H   0  0  0  0  0  0  0  0  0  0  0  0
  -25.4330  -15.1890   20.4080 N   0  0  0  0  0  0  0  0  0  0  0  0
  -24.6710  -15.8520   20.5120 H   0  0  0  0  0  0  0  0  0  0  0  0
  -26.2970  -15.6230   20.1070 H   0  0  0  0  0  0  0  0  0  0  0  0
  -29.7340  -22.1070   20.4180 C   0  0  0  0  0  2  0  0  0  0  0  0
  -28.9470  -23.2150   20.9310 N   0  0  0  0  0  0  0  0  0  0  0  0
  -29.2550  -23.4240   21.8820 H   0  0  0  0  0  0  0  0  0  0  0  0
  -29.0370  -24.4320   20.1290 C   0  0  0  0  0  2  0  0  0  0  0  0
  -28.3460  -25.5850   20.8610 C   0  0  0  0  0  2  0  0  0  0  0  0
  -28.3980  -26.7620   20.0660 O   0  0  0  0  0  0  0  0  0  0  0  0
  -24.6100  -31.8710   23.2130 C   0  0  0  0  0  0  0  0  0  0  0  0
  -27.2350  -27.4820   20.0830 C   0  0  0  0  0  0  0  0  0  0  0  0
  -23.3960  -30.4940   21.5530 C   0  0  0  0  0  3  0  0  0  0  0  0
  -24.8430  -28.9650   20.1160 C   0  0  0  0  0  0  0  0  0  0  0  0
  -25.9200  -30.8500   21.3590 C   0  0  0  0  0  2  0  0  0  0  0  0
  -26.0000  -29.4880   20.7070 C   0  0  0  0  0  0  0  0  0  0  0  0
  -27.2030  -28.7530   20.6880 C   0  0  0  0  0  3  0  0  0  0  0  0
  -26.0660  -26.9590   19.4930 C   0  0  0  0  0  3  0  0  0  0  0  0
  -24.8670  -27.6960   19.5090 C   0  0  0  0  0  3  0  0  0  0  0  0
  -23.6010  -29.8240   20.1680 C   0  0  0  0  0  2  0  0  0  0  0  0
  -24.6600  -31.0850   22.1010 N   0  0  0  0  0  0  0  0  0  0  0  0
  -23.5310  -32.1440   23.7560 O   0  0  0  0  0  0  0  0  0  0  0  0
  -22.7380  -29.4670   22.5010 C   0  0  0  0  0  0  0  0  0  0  0  0
  -21.4120  -29.3020   22.3750 N   0  0  0  0  0  0  0  0  0  0  0  0
  -23.4170  -28.8220   23.3040 O   0  0  0  0  0  0  0  0  0  0  0  0
  -20.9270  -29.8730   21.6960 H   0  0  0  0  0  0  0  0  0  0  0  0
  -18.0270  -28.1370   22.8500 C   0  0  0  0  0  0  0  0  0  0  0  0
  -20.5850  -28.3650   23.1340 C   0  0  0  0  0  3  0  0  0  0  0  0
  -20.6770  -26.9390   22.5420 C   0  0  0  0  0  2  0  0  0  0  0  0
  -19.5750  -26.6390   21.5210 C   0  0  0  0  0  2  0  0  0  0  0  0
  -18.1920  -26.7920   22.1620 C   0  0  0  0  0  2  0  0  0  0  0  0
  -19.1510  -28.8820   23.2920 C   0  0  0  0  0  0  0  0  0  0  0  0
  -18.9440  -30.1440   23.8920 C   0  0  0  0  0  3  0  0  0  0  0  0
  -17.6440  -30.6580   24.0560 C   0  0  0  0  0  3  0  0  0  0  0  0
  -16.5340  -29.9080   23.6320 C   0  0  0  0  0  3  0  0  0  0  0  0
  -16.7250  -28.6500   23.0340 C   0  0  0  0  0  3  0  0  0  0  0  0
  -25.9020  -32.4840   23.8410 C   0  0  0  0  0  3  0  0  0  0  0  0
  -26.4470  -31.6600   25.0720 C   0  0  1  0  0  0  0  0  0  0  0  0
  -25.3750  -31.3680   26.1480 C   0  0  0  0  0  1  0  0  0  0  0  0
  -27.0280  -30.3050   24.6050 C   0  0  0  0  0  1  0  0  0  0  0  0
  -27.6070  -32.4290   25.7470 C   0  0  0  0  0  1  0  0  0  0  0  0
  -25.5890  -33.8640   24.2350 N   0  0  0  0  0  0  0  0  0  0  0  0
  -25.9030  -34.9490   23.5140 C   0  0  0  0  0  0  0  0  0  0  0  0
  -26.5580  -34.8930   22.4690 O   0  0  0  0  0  0  0  0  0  0  0  0
  -25.0050  -33.9800   25.0510 H   0  0  0  0  0  0  0  0  0  0  0  0
  -24.1490  -36.7320   23.2640 C   0  0  0  0  0  1  0  0  0  0  0  0
  -25.4100  -36.3120   24.0340 C   0  0  0  0  0  3  0  0  0  0  0  0
  -27.5580  -37.1810   24.8460 C   0  0  0  0  0  1  0  0  0  0  0  0
  -26.4290  -37.3800   23.9400 N   0  0  0  0  0  0  0  0  0  0  0  0
  -26.0190  -38.2880   24.1420 H   0  0  0  0  0  0  0  0  0  0  0  0
  2  1  1  0
  2  4  1  0
  3  2  1  0
  5  4  1  0
  5  6  1  0
  6  8  1  0
  6  7  1  0
  9 10  1  0
  9  6  1  0
 11 19  1  0
 12 17  1  0
 13 14  1  0
 13 12  1  0
 15 14  1  0
 15 24  1  0
 15 16  1  0
 17 11  1  0
 17 16  1  0
 18 11  2  0
 19 20  1  0
 19 10  1  0
 21 22  2  0
 22 41  1  0
 23 22  1  0
 23 26  1  0
 24 21  1  0
 24 25  1  0
 25 23  2  0
 26 27  1  0
 27 28  2  0
 29 32  1  0
 29 28  1  0
 30 29  2  0
 31 30  1  0
 31 26  2  0
 32 33  1  0
 33 34  1  0
 34 35  2  0
 36 35  1  0
 36 40  1  0
 37 36  2  0
 38 33  2  0
 38 37  1  0
 39 38  1  0
 41 42  1  0
 42 45  1  0
 42 44  1  0
 43 41  2  0
 46 47  1  0
 46 21  1  0
 48 46  1  0
 49 50  1  0
 49  1  1  0
 50 51  1  0
 52 53  1  0
 52 50  1  0
 54 56  1  0
 54 53  1  0
 55 66  2  0
 56 61  1  0
 57 65  1  0
 57 67  1  0
 58 64  1  0
 58 60  1  0
 59 65  1  0
 60 59  1  0
 61 60  2  0
 62 63  1  0
 62 56  2  0
 63 58  2  0
 64 57  1  0
 65 55  1  0
 67 69  2  0
 68 67  1  0
 70 68  1  0
 71 80  2  0
 71 76  1  0
 72 68  1  0
 72 76  1  0
 73 72  1  0
 74 75  1  0
 74 73  1  0
 75 71  1  0
 76 77  2  0
 77 78  1  0
 79 78  2  0
 80 79  1  0
 81 55  1  0
 81 86  1  0
 81 82  1  0
 82 85  1  1
 82 83  1  0
 84 82  1  0
 86 89  1  0
 87 91  1  0
 87 86  1  0
 88 87  2  0
 91 90  1  0
 93 91  1  0
 93 94  1  0
 93 92  1  0
M  ISO  4  11 100  19 100  53 101  54 101
M  END
>  <TORSDO>  (1) 
F 26

>  <SCORE>  (1) 
-2.703

>  <name>  (1) 
0

>  <ligand_id>  (1) 
0

>  <original_smiles>  (1) 
[H]c1c([H])c([H])c2c(c1[H])C([H])([H])C([H])([H])C([H])([H])C2([H])N([H])C(=O)C1([H])N(C(=O)C([H])(N([H])C(=O)C([H])(N([H])C([H])([H])[H])C([H])([H])[H])C(C([H])([H])[H])(C([H])([H])[H])C([H])([H])[H])C([H])([H])c2c([H])c(OC([H])([H])C([H])([H])N([H])C([H])([H])C([H])([H])N([H])C([H])([H])C([H])([H])[N+]([H])([H])C([H])([H])C([H])([H])N([H])C(=O)N3C([H])([H])C([H])([H])C([H])([H])C([H])(n4nc(-c5c([H])c([H])c(Oc6c([H])c([H])c(F)c([H])c6F)c([H])c5[H])c(C(=O)N([H])[H])c4N([H])[H])C3([H])[H])c([H])c([H])c2C1([H])[H]

>  <smiles>  (1) 
[H]c1c([H])c([H])c2c(c1[H])C([H])([H])C([H])([H])C([H])([H])C2([H])N([H])C(=O)C1([H])N(C(=O)C([H])(N([H])C(=O)C([H])(N([H])C([H])([H])[H])C([H])([H])[H])C(C([H])([H])[H])(C([H])([H])[H])C([H])([H])[H])C([H])([H])c2c([H])c(OC([H])([H])C([H])([H])N([H])C([H])([H])C([H])([H])N([H])C([H])([H])C([H])([H])[N+]([H])([H])C([H])([H])C([H])([H])N([H])C(=O)N3C([H])([H])C([H])([H])C([H])([H])C([H])(n4nc(-c5c([H])c([H])c(Oc6c([H])c([H])c(F)c([H])c6F)c([H])c5[H])c(C(=O)N([H])[H])c4N([H])[H])C3([H])[H])c([H])c([H])c2C1([H])[H]

$$$$
1:0:0
     RDKit          3D

 98105  0  0  1  0  0  0  0  0999 V2000
  -24.3580  -24.2020   22.2430 C   0  0  0  0  0  2  0  0  0  0  0  0
  -25.5420  -24.8780   22.6520 O   0  0  0  0  0  0  0  0  0  0  0  0
  -25.3900  -25.6170   23.8580 C   0  0  0  0  0  2  0  0  0  0  0  0
  -26.6140  -26.5290   24.0060 C   0  0  0  0  0  2  0  0  0  0  0  0
  -27.8870  -25.7820   23.8270 N   0  0  0  0  0  4  0  0  0  0  0  0
  -28.3260  -25.6750   24.7300 H   0  0  0  0  0  0  0  0  0  0  0  0
  -27.6590  -24.8520   23.5040 H   0  0  0  0  0  0  0  0  0  0  0  0
  -28.8960  -26.3880   22.9180 C   0  0  0  0  0  2  0  0  0  0  0  0
  -28.8460  -25.8870   21.4580 C   0  0  0  0  0  2  0  0  0  0  0  0
  -28.7590  -27.0100   20.5840 O   0  0  0  0  0  0  0  0  0  0  0  0
  -24.7180  -32.0840   23.5070 C   0  0  0  0  0  0  0  0  0  0  0  0
  -27.5610  -27.6740   20.5740 C   0  0  0  0  0  0  0  0  0  0  0  0
  -23.6060  -30.6490   21.8300 C   0  0  0  0  0  3  0  0  0  0  0  0
  -25.1370  -29.1090   20.4930 C   0  0  0  0  0  0  0  0  0  0  0  0
  -26.1310  -31.0380   21.7380 C   0  0  0  0  0  2  0  0  0  0  0  0
  -26.2580  -29.6630   21.1230 C   0  0  0  0  0  0  0  0  0  0  0  0
  -27.4750  -28.9540   21.1590 C   0  0  0  0  0  3  0  0  0  0  0  0
  -26.4260  -27.1220   19.9430 C   0  0  0  0  0  3  0  0  0  0  0  0
  -25.2140  -27.8340   19.9030 C   0  0  0  0  0  3  0  0  0  0  0  0
  -23.8850  -29.9550   20.4700 C   0  0  0  0  0  2  0  0  0  0  0  0
  -24.8350  -31.2720   22.4190 N   0  0  0  0  0  0  0  0  0  0  0  0
  -23.6130  -32.3520   23.9920 O   0  0  0  0  0  0  0  0  0  0  0  0
  -22.9240  -29.6280   22.7710 C   0  0  0  0  0  0  0  0  0  0  0  0
  -21.6330  -29.3560   22.5240 N   0  0  0  0  0  0  0  0  0  0  0  0
  -23.5620  -29.0800   23.6740 O   0  0  0  0  0  0  0  0  0  0  0  0
  -21.1720  -29.8760   21.7910 H   0  0  0  0  0  0  0  0  0  0  0  0
  -18.2850  -28.0290   22.7700 C   0  0  0  0  0  0  0  0  0  0  0  0
  -20.8000  -28.3900   23.2400 C   0  0  0  0  0  3  0  0  0  0  0  0
  -21.0030  -26.9570   22.6940 C   0  0  0  0  0  2  0  0  0  0  0  0
  -19.9960  -26.5850   21.5990 C   0  0  0  0  0  2  0  0  0  0  0  0
  -18.5700  -26.6740   22.1450 C   0  0  0  0  0  2  0  0  0  0  0  0
  -19.3360  -28.8430   23.2700 C   0  0  0  0  0  0  0  0  0  0  0  0
  -19.0240  -30.1140   23.8020 C   0  0  0  0  0  3  0  0  0  0  0  0
  -17.6930  -30.5690   23.8460 C   0  0  0  0  0  3  0  0  0  0  0  0
  -16.6540  -29.7480   23.3710 C   0  0  0  0  0  3  0  0  0  0  0  0
  -16.9510  -28.4810   22.8390 C   0  0  0  0  0  3  0  0  0  0  0  0
  -25.9700  -32.7300   24.1780 C   0  0  0  0  0  3  0  0  0  0  0  0
  -25.6430  -34.1350   24.4630 N   0  0  0  0  0  0  0  0  0  0  0  0
  -25.9840  -35.1670   23.6830 C   0  0  0  0  0  0  0  0  0  0  0  0
  -26.6780  -35.0400   22.6690 O   0  0  0  0  0  0  0  0  0  0  0  0
  -25.0350  -34.3050   25.2510 H   0  0  0  0  0  0  0  0  0  0  0  0
  -24.2150  -36.9050   23.2710 C   0  0  0  0  0  1  0  0  0  0  0  0
  -25.4710  -36.5620   24.0870 C   0  0  0  0  0  3  0  0  0  0  0  0
  -27.5880  -37.5320   24.8660 C   0  0  0  0  0  1  0  0  0  0  0  0
  -26.4800  -37.6290   23.9200 N   0  0  0  0  0  0  0  0  0  0  0  0
  -26.0540  -38.5450   24.0240 H   0  0  0  0  0  0  0  0  0  0  0  0
  -26.4220  -31.9850   25.4930 C   0  0  1  0  0  0  0  0  0  0  0  0
  -25.2540  -31.6170   26.4350 C   0  0  0  0  0  1  0  0  0  0  0  0
  -27.1770  -30.6810   25.1440 C   0  0  0  0  0  1  0  0  0  0  0  0
  -27.4110  -32.8700   26.2850 C   0  0  0  0  0  1  0  0  0  0  0  0
  -24.4750  -23.9040   20.7410 C   0  0  0  0  0  2  0  0  0  0  0  0
  -25.7440  -24.5160   20.1300 C   0  0  0  0  0  2  0  0  0  0  0  0
  -26.1260  -23.9180   18.7660 C   0  0  0  0  0  2  0  0  0  0  0  0
  -27.6130  -24.1480   18.4550 C   0  0  0  0  0  2  0  0  0  0  0  0
  -28.0510  -23.4140   17.2560 N   0  0  0  0  0  4  0  0  0  0  0  0
  -27.6910  -23.8890   16.4420 H   0  0  0  0  0  0  0  0  0  0  0  0
  -27.6500  -22.4900   17.2760 H   0  0  0  0  0  0  0  0  0  0  0  0
  -29.5180  -23.2900   17.1350 C   0  0  0  0  0  2  0  0  0  0  0  0
  -30.0170  -22.0630   17.9050 C   0  0  0  0  0  2  0  0  0  0  0  0
  -31.5180  -21.7730   17.7480 C   0  0  0  0  0  2  0  0  0  0  0  0
  -32.9580  -20.2730   19.0710 C   0  0  0  0  0  0  0  0  0  0  0  0
  -33.7190  -18.2570   20.2580 C   0  0  0  0  0  2  0  0  0  0  0  0
  -33.5590  -17.0010   19.3860 C   0  0  0  0  0  2  0  0  0  0  0  0
  -32.1460  -16.4080   19.5280 C   0  0  0  0  0  2  0  0  0  0  0  0
  -31.0350  -17.4720   19.3340 C   0  0  0  0  0  3  0  0  0  0  0  0
  -31.3230  -18.7270   20.1920 C   0  0  0  0  0  2  0  0  0  0  0  0
  -32.6850  -19.2290   19.8870 N   0  0  0  0  0  0  0  0  0  0  0  0
  -34.0340  -20.4430   18.4880 O   0  0  0  0  0  0  0  0  0  0  0  0
  -31.9650  -21.1590   18.9880 N   0  0  0  0  0  0  0  0  0  0  0  0
  -31.2580  -21.0710   19.7050 H   0  0  0  0  0  0  0  0  0  0  0  0
  -28.4820  -17.5570   19.7000 C   0  0  0  0  0  0  0  0  0  0  0  0
  -27.5560  -16.5740   19.9210 C   0  0  0  0  0  0  0  0  0  0  0  0
  -28.2840  -15.3450   19.9510 C   0  0  0  0  0  0  0  0  0  0  0  0
  -29.7100  -16.9160   19.6160 N   0  0  0  0  0  0  0  0  0  0  0  0
  -29.5850  -15.5790   19.8160 N   0  0  0  0  0  0  0  0  0  0  0  0
  -27.8170  -13.9570   20.0410 C   0  0  0  0  0  0  0  0  0  0  0  0
  -27.8200  -13.2520   21.2650 C   0  0  0  0  0  3  0  0  0  0  0  0
  -27.3460  -11.9230   21.3280 C   0  0  0  0  0  3  0  0  0  0  0  0
  -26.8600  -11.2860   20.1620 C   0  0  0  0  0  0  0  0  0  0  0  0
  -26.8810  -11.9820   18.9420 C   0  0  0  0  0  3  0  0  0  0  0  0
  -27.3590  -13.3030   18.8790 C   0  0  0  0  0  3  0  0  0  0  0  0
  -26.4020   -9.9910   20.1250 O   0  0  0  0  0  0  0  0  0  0  0  0
  -25.3830   -9.5630   20.9380 C   0  0  0  0  0  0  0  0  0  0  0  0
  -24.0800  -10.1020   20.8500 C   0  0  0  0  0  3  0  0  0  0  0  0
  -23.0480   -9.5850   21.6570 C   0  0  0  0  0  3  0  0  0  0  0  0
  -23.3130   -8.5230   22.5440 C   0  0  0  0  0  0  0  0  0  0  0  0
  -24.6080   -7.9820   22.6310 C   0  0  0  0  0  3  0  0  0  0  0  0
  -25.6380   -8.4990   21.8260 C   0  0  0  0  0  0  0  0  0  0  0  0
  -26.8810   -7.9600   21.8980 F   0  0  0  0  0  0  0  0  0  0  0  0
  -22.3200   -8.0190   23.3130 F   0  0  0  0  0  0  0  0  0  0  0  0
  -26.0680  -16.7480   20.0010 C   0  0  0  0  0  0  0  0  0  0  0  0
  -25.3890  -15.9030   20.7720 N   0  0  0  0  0  0  0  0  0  0  0  0
  -25.4990  -17.6690   19.4180 O   0  0  0  0  0  0  0  0  0  0  0  0
  -25.8560  -15.1610   21.2770 H   0  0  0  0  0  0  0  0  0  0  0  0
  -24.3880  -16.0020   20.8610 H   0  0  0  0  0  0  0  0  0  0  0  0
  -28.3780  -18.9380   19.5480 N   0  0  0  0  0  0  0  0  0  0  0  0
  -27.4610  -19.3380   19.3800 H   0  0  0  0  0  0  0  0  0  0  0  0
  -29.1290  -19.4910   19.1590 H   0  0  0  0  0  0  0  0  0  0  0  0
  1  2  1  0
  2  3  1  0
  3  4  1  0
  5  4  1  0
  5  6  1  0
  7  5  1  0
  8  5  1  0
  9  8  1  0
 10  9  1  0
 11 22  2  0
 12 10  1  0
 12 17  1  0
 13 21  1  0
 13 23  1  0
 14 16  1  0
 15 21  1  0
 16 17  2  0
 16 15  1  0
 18 12  2  0
 19 18  1  0
 19 14  2  0
 20 14  1  0
 20 13  1  0
 21 11  1  0
 23 25  2  0
 24 23  1  0
 26 24  1  0
 27 36  2  0
 27 32  1  0
 28 24  1  0
 28 32  1  0
 29 28  1  0
 30 31  1  0
 30 29  1  0
 31 27  1  0
 32 33  2  0
 33 34  1  0
 35 34  2  0
 36 35  1  0
 37 11  1  0
 37 38  1  0
 37 47  1  0
 38 41  1  0
 39 43  1  0
 39 38  1  0
 40 39  2  0
 43 42  1  0
 45 46  1  0
 45 43  1  0
 45 44  1  0
 47 50  1  1
 47 48  1  0
 49 47  1  0
 51  1  1  0
 52 51  1  0
 53 52  1  0
 54 53  1  0
 55 57  1  0
 55 54  1  0
 56 55  1  0
 58 55  1  0
 58 59  1  0
 60 59  1  0
 60 69  1  0
 61 67  1  0
 63 64  1  0
 63 62  1  0
 65 64  1  0
 65 74  1  0
 65 66  1  0
 67 66  1  0
 67 62  1  0
 68 61  2  0
 69 61  1  0
 69 70  1  0
 71 72  2  0
 72 73  1  0
 72 91  1  0
 73 76  1  0
 74 71  1  0
 74 75  1  0
 75 73  2  0
 76 77  1  0
 77 78  2  0
 79 78  1  0
 80 79  2  0
 81 80  1  0
 81 76  2  0
 82 79  1  0
 82 83  1  0
 83 88  1  0
 84 83  2  0
 84 85  1  0
 85 86  2  0
 86 87  1  0
 86 90  1  0
 88 89  1  0
 88 87  2  0
 91 92  1  0
 92 95  1  0
 92 94  1  0
 93 91  2  0
 96 71  1  0
 97 96  1  0
 98 96  1  0
M  ISO  4   9 101  10 101  61 100  69 100
M  END
>  <TORSDO>  (2) 
F 30

>  <SCORE>  (2) 
-8.211

>  <name>  (2) 
1

>  <ligand_id>  (2) 
1

>  <original_smiles>  (2) 
[H]c1c([H])c([H])c2c(c1[H])C([H])([H])C([H])([H])C([H])([H])C2([H])N([H])C(=O)C1([H])N(C(=O)C([H])(N([H])C(=O)C([H])(N([H])C([H])([H])[H])C([H])([H])[H])C(C([H])([H])[H])(C([H])([H])[H])C([H])([H])[H])C([H])([H])c2c([H])c(OC([H])([H])C([H])([H])[N+]([H])([H])C([H])([H])C([H])([H])OC([H])([H])C([H])([H])C([H])([H])C([H])([H])C([H])([H])[N+]([H])([H])C([H])([H])C([H])([H])C([H])([H])N([H])C(=O)N3C([H])([H])C([H])([H])C([H])([H])C([H])(n4nc(-c5c([H])c([H])c(Oc6c([H])c([H])c(F)c([H])c6F)c([H])c5[H])c(C(=O)N([H])[H])c4N([H])[H])C3([H])[H])c([H])c([H])c2C1([H])[H]

>  <smiles>  (2) 
[H]c1c([H])c([H])c2c(c1[H])C([H])([H])C([H])([H])C([H])([H])C2([H])N([H])C(=O)C1([H])N(C(=O)C([H])(N([H])C(=O)C([H])(N([H])C([H])([H])[H])C([H])([H])[H])C(C([H])([H])[H])(C([H])([H])[H])C([H])([H])[H])C([H])([H])c2c([H])c(OC([H])([H])C([H])([H])[N+]([H])([H])C([H])([H])C([H])([H])OC([H])([H])C([H])([H])C([H])([H])C([H])([H])C([H])([H])[N+]([H])([H])C([H])([H])C([H])([H])C([H])([H])N([H])C(=O)N3C([H])([H])C([H])([H])C([H])([H])C([H])(n4nc(-c5c([H])c([H])c(Oc6c([H])c([H])c(F)c([H])c6F)c([H])c5[H])c(C(=O)N([H])[H])c4N([H])[H])C3([H])[H])c([H])c([H])c2C1([H])[H]

$$$$
2:0:0
     RDKit          3D

 92 99  0  0  1  0  0  0  0  0999 V2000
  -28.8270  -22.3520   20.4810 C   0  0  0  0  0  2  0  0  0  0  0  0
  -29.5500  -19.9620   20.3690 C   0  0  0  0  0  0  0  0  0  0  0  0
  -29.0500  -21.0720   19.8110 N   0  0  0  0  0  0  0  0  0  0  0  0
  -29.8340  -19.9050   21.5660 O   0  0  0  0  0  0  0  0  0  0  0  0
  -28.8620  -21.0470   18.8180 H   0  0  0  0  0  0  0  0  0  0  0  0
  -29.7580  -18.9290   19.3620 C   0  0  0  0  0  3  0  0  0  0  0  0
  -30.1680  -17.6510   19.5610 C   0  0  0  0  0  0  0  0  0  0  0  0
  -30.4260  -16.7960   18.3240 C   0  0  0  0  0  1  0  0  0  0  0  0
  -30.4450  -16.9830   20.9230 C   0  0  0  0  0  2  0  0  0  0  0  0
  -30.8150  -14.5120   20.6890 C   0  0  0  0  0  0  0  0  0  0  0  0
  -30.5600  -12.3340   19.5850 C   0  0  0  0  0  2  0  0  0  0  0  0
  -29.6690  -12.5110   18.3380 C   0  0  0  0  0  2  0  0  0  0  0  0
  -28.1800  -12.3750   18.7130 C   0  0  0  0  0  2  0  0  0  0  0  0
  -27.7870  -13.2600   19.9260 C   0  0  0  0  0  3  0  0  0  0  0  0
  -28.7900  -13.0660   21.0860 C   0  0  0  0  0  2  0  0  0  0  0  0
  -30.1410  -13.3390   20.5700 N   0  0  0  0  0  0  0  0  0  0  0  0
  -31.9850  -14.6660   20.3350 O   0  0  0  0  0  0  0  0  0  0  0  0
  -30.0500  -15.5690   21.0030 N   0  0  0  0  0  0  0  0  0  0  0  0
  -29.0890  -15.3750   21.2440 H   0  0  0  0  0  0  0  0  0  0  0  0
  -25.3610  -13.8990   20.5100 C   0  0  0  0  0  0  0  0  0  0  0  0
  -24.2750  -13.1390   20.8540 C   0  0  0  0  0  0  0  0  0  0  0  0
  -24.7300  -11.7860   20.8750 C   0  0  0  0  0  0  0  0  0  0  0  0
  -26.4120  -13.0060   20.3500 N   0  0  0  0  0  0  0  0  0  0  0  0
  -26.0330  -11.7330   20.6290 N   0  0  0  0  0  0  0  0  0  0  0  0
  -23.9880  -10.5310   21.0560 C   0  0  0  0  0  0  0  0  0  0  0  0
  -24.3890   -9.5730   22.0130 C   0  0  0  0  0  3  0  0  0  0  0  0
  -23.6530   -8.3800   22.1820 C   0  0  0  0  0  3  0  0  0  0  0  0
  -22.5030   -8.1370   21.3940 C   0  0  0  0  0  0  0  0  0  0  0  0
  -22.1200   -9.0840   20.4280 C   0  0  0  0  0  3  0  0  0  0  0  0
  -22.8560  -10.2690   20.2570 C   0  0  0  0  0  3  0  0  0  0  0  0
  -21.7410   -6.9970   21.4710 O   0  0  0  0  0  0  0  0  0  0  0  0
  -21.6660   -6.2570   22.6250 C   0  0  0  0  0  0  0  0  0  0  0  0
  -21.2320   -6.8230   23.8450 C   0  0  0  0  0  3  0  0  0  0  0  0
  -21.1010   -6.0120   24.9890 C   0  0  0  0  0  3  0  0  0  0  0  0
  -21.3980   -4.6370   24.9160 C   0  0  0  0  0  0  0  0  0  0  0  0
  -21.8270   -4.0710   23.7030 C   0  0  0  0  0  3  0  0  0  0  0  0
  -21.9590   -4.8800   22.5600 C   0  0  0  0  0  0  0  0  0  0  0  0
  -22.3510   -4.3270   21.3860 F   0  0  0  0  0  0  0  0  0  0  0  0
  -21.2660   -3.8550   26.0130 F   0  0  0  0  0  0  0  0  0  0  0  0
  -22.8680  -13.6280   21.0480 C   0  0  0  0  0  0  0  0  0  0  0  0
  -22.0960  -12.9570   21.8980 N   0  0  0  0  0  0  0  0  0  0  0  0
  -22.4560  -14.6380   20.4800 O   0  0  0  0  0  0  0  0  0  0  0  0
  -22.4360  -12.1470   22.3910 H   0  0  0  0  0  0  0  0  0  0  0  0
  -21.1490  -13.2660   22.0600 H   0  0  0  0  0  0  0  0  0  0  0  0
  -25.5380  -15.2610   20.2970 N   0  0  0  0  0  0  0  0  0  0  0  0
  -24.7470  -15.8960   20.2720 H   0  0  0  0  0  0  0  0  0  0  0  0
  -26.3830  -15.6690   19.9150 H   0  0  0  0  0  0  0  0  0  0  0  0
  -30.1450  -23.1340   20.6650 C   0  0  0  0  0  2  0  0  0  0  0  0
  -29.9720  -24.5380   20.5320 O   0  0  0  0  0  0  0  0  0  0  0  0
  -29.2520  -25.1610   21.5910 C   0  0  0  0  0  2  0  0  0  0  0  0
  -29.1050  -26.6570   21.2730 C   0  0  0  0  0  2  0  0  0  0  0  0
  -28.3120  -26.7610   20.0930 O   0  0  0  0  0  0  0  0  0  0  0  0
  -24.5520  -31.9480   23.2340 C   0  0  0  0  0  0  0  0  0  0  0  0
  -27.1670  -27.5150   20.1650 C   0  0  0  0  0  0  0  0  0  0  0  0
  -23.3260  -30.5450   21.6030 C   0  0  0  0  0  3  0  0  0  0  0  0
  -24.7670  -28.9960   20.1790 C   0  0  0  0  0  0  0  0  0  0  0  0
  -25.8440  -30.9070   21.3820 C   0  0  0  0  0  2  0  0  0  0  0  0
  -25.9250  -29.5310   20.7610 C   0  0  0  0  0  0  0  0  0  0  0  0
  -27.1280  -28.7980   20.7590 C   0  0  0  0  0  3  0  0  0  0  0  0
  -26.0010  -26.9920   19.5730 C   0  0  0  0  0  3  0  0  0  0  0  0
  -24.7980  -27.7230   19.5840 C   0  0  0  0  0  3  0  0  0  0  0  0
  -23.5220  -29.8530   20.2260 C   0  0  0  0  0  2  0  0  0  0  0  0
  -24.5930  -31.1480   22.1320 N   0  0  0  0  0  0  0  0  0  0  0  0
  -23.4770  -32.2260   23.7830 O   0  0  0  0  0  0  0  0  0  0  0  0
  -22.6770  -29.5330   22.5710 C   0  0  0  0  0  0  0  0  0  0  0  0
  -21.3510  -29.3610   22.4540 N   0  0  0  0  0  0  0  0  0  0  0  0
  -23.3640  -28.9030   23.3800 O   0  0  0  0  0  0  0  0  0  0  0  0
  -20.8610  -29.9200   21.7710 H   0  0  0  0  0  0  0  0  0  0  0  0
  -17.9720  -28.2020   22.9700 C   0  0  0  0  0  0  0  0  0  0  0  0
  -20.5330  -28.4320   23.2300 C   0  0  0  0  0  3  0  0  0  0  0  0
  -20.6180  -26.9990   22.6530 C   0  0  0  0  0  2  0  0  0  0  0  0
  -19.5070  -26.6880   21.6460 C   0  0  0  0  0  2  0  0  0  0  0  0
  -18.1310  -26.8500   22.2960 C   0  0  0  0  0  2  0  0  0  0  0  0
  -19.1010  -28.9510   23.3940 C   0  0  0  0  0  0  0  0  0  0  0  0
  -18.8990  -30.2200   23.9810 C   0  0  0  0  0  3  0  0  0  0  0  0
  -17.6010  -30.7370   24.1520 C   0  0  0  0  0  3  0  0  0  0  0  0
  -16.4870  -29.9820   23.7460 C   0  0  0  0  0  3  0  0  0  0  0  0
  -16.6730  -28.7180   23.1600 C   0  0  0  0  0  3  0  0  0  0  0  0
  -25.8470  -32.5700   23.8440 C   0  0  0  0  0  3  0  0  0  0  0  0
  -25.5480  -33.9690   24.1780 N   0  0  0  0  0  0  0  0  0  0  0  0
  -25.8880  -35.0200   23.4200 C   0  0  0  0  0  0  0  0  0  0  0  0
  -26.5580  -34.9130   22.3890 O   0  0  0  0  0  0  0  0  0  0  0  0
  -24.9560  -34.1260   24.9810 H   0  0  0  0  0  0  0  0  0  0  0  0
  -24.1780  -36.8270   23.0570 C   0  0  0  0  0  1  0  0  0  0  0  0
  -25.4070  -36.4090   23.8790 C   0  0  0  0  0  3  0  0  0  0  0  0
  -27.5450  -37.2720   24.7260 C   0  0  0  0  0  1  0  0  0  0  0  0
  -26.4490  -37.4540   23.7790 N   0  0  0  0  0  0  0  0  0  0  0  0
  -26.0490  -38.3770   23.9290 H   0  0  0  0  0  0  0  0  0  0  0  0
  -26.3760  -31.7930   25.1120 C   0  0  1  0  0  0  0  0  0  0  0  0
  -25.2960  -31.5570   26.1930 C   0  0  0  0  0  1  0  0  0  0  0  0
  -26.9490  -30.4160   24.7050 C   0  0  0  0  0  1  0  0  0  0  0  0
  -27.5360  -32.5810   25.7640 C   0  0  0  0  0  1  0  0  0  0  0  0
  1 48  1  0
  2  4  2  0
  3  2  1  0
  3  1  1  0
  5  3  1  0
  6  7  2  0
  6  2  1  0
  7  9  1  0
  8  7  1  0
  9 18  1  0
 10 18  1  0
 11 16  1  0
 12 13  1  0
 12 11  1  0
 14 13  1  0
 14 23  1  0
 14 15  1  0
 16 10  1  0
 16 15  1  0
 17 10  2  0
 18 19  1  0
 20 21  2  0
 21 22  1  0
 21 40  1  0
 22 25  1  0
 23 20  1  0
 23 24  1  0
 24 22  2  0
 25 26  1  0
 26 27  2  0
 28 31  1  0
 28 27  1  0
 29 28  2  0
 30 29  1  0
 30 25  2  0
 31 32  1  0
 32 33  1  0
 33 34  2  0
 35 34  1  0
 35 39  1  0
 36 35  2  0
 37 32  2  0
 37 36  1  0
 38 37  1  0
 40 41  1  0
 41 44  1  0
 41 43  1  0
 42 40  2  0
 45 20  1  0
 46 45  1  0
 47 45  1  0
 49 48  1  0
 49 50  1  0
 51 50  1  0
 52 54  1  0
 52 51  1  0
 53 64  2  0
 54 59  1  0
 55 63  1  0
 55 65  1  0
 56 62  1  0
 56 58  1  0
 57 63  1  0
 58 57  1  0
 59 58  2  0
 60 61  1  0
 60 54  2  0
 61 56  2  0
 62 55  1  0
 63 53  1  0
 65 67  2  0
 66 65  1  0
 68 66  1  0
 69 78  2  0
 69 74  1  0
 70 66  1  0
 70 74  1  0
 71 70  1  0
 72 73  1  0
 72 71  1  0
 73 69  1  0
 74 75  2  0
 75 76  1  0
 77 76  2  0
 78 77  1  0
 79 53  1  0
 79 80  1  0
 79 89  1  0
 80 83  1  0
 81 85  1  0
 81 80  1  0
 82 81  2  0
 85 84  1  0
 87 85  1  0
 87 88  1  0
 87 86  1  0
 89 92  1  1
 89 90  1  0
 91 89  1  0
M  ISO  4  10 100  18 100  51 101  52 101
M  END
>  <TORSDO>  (3) 
F 23

>  <SCORE>  (3) 
-12.514

>  <name>  (3) 
2

>  <ligand_id>  (3) 
2

>  <original_smiles>  (3) 
[H]C(C(=O)N([H])C([H])([H])C([H])([H])OC([H])([H])C([H])([H])Oc1c([H])c([H])c2c(c1[H])C([H])([H])N(C(=O)C([H])(N([H])C(=O)C([H])(N([H])C([H])([H])[H])C([H])([H])[H])C(C([H])([H])[H])(C([H])([H])[H])C([H])([H])[H])C([H])(C(=O)N([H])C1([H])c3c([H])c([H])c([H])c([H])c3C([H])([H])C([H])([H])C1([H])[H])C2([H])[H])=C(C([H])([H])[H])C([H])([H])N([H])C(=O)N1C([H])([H])C([H])([H])C([H])([H])C([H])(n2nc(-c3c([H])c([H])c(Oc4c([H])c([H])c(F)c([H])c4F)c([H])c3[H])c(C(=O)N([H])[H])c2N([H])[H])C1([H])[H]

>  <smiles>  (3) 
[H]C(C(=O)N([H])C([H])([H])C([H])([H])OC([H])([H])C([H])([H])Oc1c([H])c([H])c2c(c1[H])C([H])([H])N(C(=O)C([H])(N([H])C(=O)C([H])(N([H])C([H])([H])[H])C([H])([H])[H])C(C([H])([H])[H])(C([H])([H])[H])C([H])([H])[H])C([H])(C(=O)N([H])C1([H])c3c([H])c([H])c([H])c([H])c3C([H])([H])C([H])([H])C1([H])[H])C2([H])[H])=C(C([H])([H])[H])C([H])([H])N([H])C(=O)N1C([H])([H])C([H])([H])C([H])([H])C([H])(n2nc(-c3c([H])c([H])c(Oc4c([H])c([H])c(F)c([H])c4F)c([H])c3[H])c(C(=O)N([H])[H])c2N([H])[H])C1([H])[H]

$$$$
3:0:0
     RDKit          3D

105112  0  0  1  0  0  0  0  0999 V2000
  -26.5110  -25.4410   16.3640 C   0  0  0  0  0  2  0  0  0  0  0  0
  -25.9720  -24.0660   16.2790 N   0  0  0  0  0  4  0  0  0  0  0  0
  -26.4990  -23.5590   15.5860 H   0  0  0  0  0  0  0  0  0  0  0  0
  -25.0140  -24.1090   15.9680 H   0  0  0  0  0  0  0  0  0  0  0  0
  -26.0420  -23.3330   17.5650 C   0  0  0  0  0  2  0  0  0  0  0  0
  -25.4720  -21.9020   17.4720 C   0  0  0  0  0  2  0  0  0  0  0  0
  -25.7690  -21.0220   18.7090 C   0  0  0  0  0  2  0  0  0  0  0  0
  -27.1750  -20.5560   18.7710 N   0  0  0  0  0  4  0  0  0  0  0  0
  -27.4210  -20.1500   17.8810 H   0  0  0  0  0  0  0  0  0  0  0  0
  -27.7870  -21.3370   18.9370 H   0  0  0  0  0  0  0  0  0  0  0  0
  -27.4390  -19.5480   19.8210 C   0  0  0  0  0  2  0  0  0  0  0  0
  -28.9290  -19.1600   19.8620 C   0  0  0  0  0  2  0  0  0  0  0  0
  -29.2350  -17.9910   20.8130 C   0  0  0  0  0  2  0  0  0  0  0  0
  -30.7450  -17.6970   20.8860 C   0  0  0  0  0  2  0  0  0  0  0  0
  -31.1170  -16.4860   21.7650 C   0  0  0  0  0  2  0  0  0  0  0  0
  -30.9870  -14.4630   20.3040 C   0  0  0  0  0  0  0  0  0  0  0  0
  -30.5490  -12.4600   18.9330 C   0  0  0  0  0  2  0  0  0  0  0  0
  -29.5750  -12.7770   17.7820 C   0  0  0  0  0  2  0  0  0  0  0  0
  -28.1120  -12.6540   18.2490 C   0  0  0  0  0  2  0  0  0  0  0  0
  -27.8420  -13.4210   19.5720 C   0  0  0  0  0  3  0  0  0  0  0  0
  -28.9120  -13.0680   20.6260 C   0  0  0  0  0  2  0  0  0  0  0  0
  -30.2410  -13.3570   20.0540 N   0  0  0  0  0  0  0  0  0  0  0  0
  -32.0140  -14.7480   19.6800 O   0  0  0  0  0  0  0  0  0  0  0  0
  -30.5250  -15.2390   21.2910 N   0  0  0  0  0  0  0  0  0  0  0  0
  -29.6870  -14.9190   21.7560 H   0  0  0  0  0  0  0  0  0  0  0  0
  -25.4540  -14.0570   20.3010 C   0  0  0  0  0  0  0  0  0  0  0  0
  -24.3860  -13.2970   20.6960 C   0  0  0  0  0  0  0  0  0  0  0  0
  -24.8380  -11.9420   20.6760 C   0  0  0  0  0  0  0  0  0  0  0  0
  -26.4910  -13.1660   20.0690 N   0  0  0  0  0  0  0  0  0  0  0  0
  -26.1230  -11.8900   20.3490 N   0  0  0  0  0  0  0  0  0  0  0  0
  -24.1070  -10.6870   20.8940 C   0  0  0  0  0  0  0  0  0  0  0  0
  -24.5330   -9.7420   21.8530 C   0  0  0  0  0  3  0  0  0  0  0  0
  -23.8040   -8.5500   22.0560 C   0  0  0  0  0  3  0  0  0  0  0  0
  -22.6350   -8.2960   21.3010 C   0  0  0  0  0  0  0  0  0  0  0  0
  -22.2290   -9.2300   20.3310 C   0  0  0  0  0  3  0  0  0  0  0  0
  -22.9590  -10.4130   20.1260 C   0  0  0  0  0  3  0  0  0  0  0  0
  -21.8780   -7.1540   21.4120 O   0  0  0  0  0  0  0  0  0  0  0  0
  -21.8010   -6.4540   22.5890 C   0  0  0  0  0  0  0  0  0  0  0  0
  -21.3460   -7.0520   23.7850 C   0  0  0  0  0  3  0  0  0  0  0  0
  -21.2170   -6.2770   24.9550 C   0  0  0  0  0  3  0  0  0  0  0  0
  -21.5320   -4.9050   24.9300 C   0  0  0  0  0  0  0  0  0  0  0  0
  -21.9800   -4.3060   23.7390 C   0  0  0  0  0  3  0  0  0  0  0  0
  -22.1110   -5.0790   22.5720 C   0  0  0  0  0  0  0  0  0  0  0  0
  -22.5230   -4.4930   21.4210 F   0  0  0  0  0  0  0  0  0  0  0  0
  -21.4010   -4.1580   26.0500 F   0  0  0  0  0  0  0  0  0  0  0  0
  -22.9960  -13.7880   20.9850 C   0  0  0  0  0  0  0  0  0  0  0  0
  -22.2790  -13.1090   21.8750 N   0  0  0  0  0  0  0  0  0  0  0  0
  -22.5540  -14.8060   20.4560 O   0  0  0  0  0  0  0  0  0  0  0  0
  -22.6480  -12.2850   22.3250 H   0  0  0  0  0  0  0  0  0  0  0  0
  -21.3470  -13.4200   22.1090 H   0  0  0  0  0  0  0  0  0  0  0  0
  -25.6280  -15.4230   20.1030 N   0  0  0  0  0  0  0  0  0  0  0  0
  -24.8730  -16.0910   20.2220 H   0  0  0  0  0  0  0  0  0  0  0  0
  -26.4870  -15.8470   19.7790 H   0  0  0  0  0  0  0  0  0  0  0  0
  -26.7600  -26.0750   14.9840 C   0  0  0  0  0  2  0  0  0  0  0  0
  -27.3740  -27.4840   15.0810 C   0  0  0  0  0  2  0  0  0  0  0  0
  -29.7030  -27.7020   15.0400 C   0  0  0  0  0  3  0  0  0  0  0  0
  -28.6730  -27.4290   15.7390 N   0  0  0  0  0  0  0  0  0  0  0  0
  -31.1130  -27.6760   15.6020 C   0  0  0  0  0  2  0  0  0  0  0  0
  -31.2410  -28.2860   17.0140 C   0  0  0  0  0  2  0  0  0  0  0  0
  -30.5320  -27.4910   18.0430 N   0  0  0  0  0  4  0  0  0  0  0  0
  -31.0150  -26.6150   18.1740 H   0  0  0  0  0  0  0  0  0  0  0  0
  -29.6160  -27.2800   17.6600 H   0  0  0  0  0  0  0  0  0  0  0  0
  -30.3690  -28.1760   19.3450 C   0  0  0  0  0  2  0  0  0  0  0  0
  -29.7270  -27.2540   20.3990 C   0  0  0  0  0  2  0  0  0  0  0  0
  -28.4810  -26.7220   19.9450 O   0  0  0  0  0  0  0  0  0  0  0  0
  -24.6170  -31.8490   23.1180 C   0  0  0  0  0  0  0  0  0  0  0  0
  -27.3320  -27.4770   20.0360 C   0  0  0  0  0  0  0  0  0  0  0  0
  -23.4200  -30.4310   21.4760 C   0  0  0  0  0  3  0  0  0  0  0  0
  -24.8930  -28.9080   20.0550 C   0  0  0  0  0  0  0  0  0  0  0  0
  -25.9320  -30.8340   21.2680 C   0  0  0  0  0  2  0  0  0  0  0  0
  -26.0360  -29.4620   20.6410 C   0  0  0  0  0  0  0  0  0  0  0  0
  -27.2530  -28.7530   20.6420 C   0  0  0  0  0  3  0  0  0  0  0  0
  -26.1660  -26.9240   19.4670 C   0  0  0  0  0  3  0  0  0  0  0  0
  -24.9480  -27.6320   19.4700 C   0  0  0  0  0  3  0  0  0  0  0  0
  -23.6340  -29.7440   20.0990 C   0  0  0  0  0  2  0  0  0  0  0  0
  -24.6750  -31.0520   22.0140 N   0  0  0  0  0  0  0  0  0  0  0  0
  -23.5360  -32.1100   23.6620 O   0  0  0  0  0  0  0  0  0  0  0  0
  -22.7850  -29.4050   22.4410 C   0  0  0  0  0  0  0  0  0  0  0  0
  -21.4580  -29.2300   22.3360 N   0  0  0  0  0  0  0  0  0  0  0  0
  -23.4820  -28.7680   23.2370 O   0  0  0  0  0  0  0  0  0  0  0  0
  -20.9580  -29.7960   21.6650 H   0  0  0  0  0  0  0  0  0  0  0  0
  -18.0830  -28.0770   22.9010 C   0  0  0  0  0  0  0  0  0  0  0  0
  -20.6510  -28.2910   23.1120 C   0  0  0  0  0  3  0  0  0  0  0  0
  -20.7170  -26.8690   22.5080 C   0  0  0  0  0  2  0  0  0  0  0  0
  -19.5850  -26.5810   21.5170 C   0  0  0  0  0  2  0  0  0  0  0  0
  -18.2220  -26.7370   22.1980 C   0  0  0  0  0  2  0  0  0  0  0  0
  -19.2240  -28.8140   23.3160 C   0  0  0  0  0  0  0  0  0  0  0  0
  -19.0420  -30.0710   23.9310 C   0  0  0  0  0  3  0  0  0  0  0  0
  -17.7490  -30.5910   24.1360 C   0  0  0  0  0  3  0  0  0  0  0  0
  -16.6230  -29.8490   23.7400 C   0  0  0  0  0  3  0  0  0  0  0  0
  -16.7910  -28.5950   23.1280 C   0  0  0  0  0  3  0  0  0  0  0  0
  -25.9020  -32.4900   23.7330 C   0  0  0  0  0  3  0  0  0  0  0  0
  -25.5660  -33.8650   24.1230 N   0  0  0  0  0  0  0  0  0  0  0  0
  -25.8490  -34.9520   23.3920 C   0  0  0  0  0  0  0  0  0  0  0  0
  -26.4910  -34.9050   22.3390 O   0  0  0  0  0  0  0  0  0  0  0  0
  -24.9950  -33.9750   24.9480 H   0  0  0  0  0  0  0  0  0  0  0  0
  -24.0540  -36.6950   23.1520 C   0  0  0  0  0  1  0  0  0  0  0  0
  -25.3330  -36.3070   23.9110 C   0  0  0  0  0  3  0  0  0  0  0  0
  -27.4670  -37.2300   24.7010 C   0  0  0  0  0  1  0  0  0  0  0  0
  -26.3270  -37.3970   23.8030 N   0  0  0  0  0  0  0  0  0  0  0  0
  -25.8970  -38.2970   24.0010 H   0  0  0  0  0  0  0  0  0  0  0  0
  -26.4750  -31.6820   24.9610 C   0  0  1  0  0  0  0  0  0  0  0  0
  -25.4140  -31.3570   26.0380 C   0  0  0  0  0  1  0  0  0  0  0  0
  -27.0980  -30.3480   24.4910 C   0  0  0  0  0  1  0  0  0  0  0  0
  -27.6090  -32.4890   25.6360 C   0  0  0  0  0  1  0  0  0  0  0  0
  2  1  1  0
  2  5  1  0
  3  2  1  0
  4  2  1  0
  6  5  1  0
  6  7  1  0
  7  8  1  0
  8 10  1  0
  8 11  1  0
  9  8  1  0
 11 12  1  0
 12 13  1  0
 13 14  1  0
 14 15  1  0
 16 24  1  0
 17 22  1  0
 18 19  1  0
 18 17  1  0
 20 19  1  0
 20 29  1  0
 20 21  1  0
 22 16  1  0
 22 21  1  0
 23 16  2  0
 24 25  1  0
 24 15  1  0
 26 27  2  0
 27 46  1  0
 28 27  1  0
 28 31  1  0
 29 26  1  0
 29 30  1  0
 30 28  2  0
 31 32  1  0
 32 33  2  0
 34 37  1  0
 34 33  1  0
 35 34  2  0
 36 35  1  0
 36 31  2  0
 37 38  1  0
 38 39  1  0
 39 40  2  0
 41 40  1  0
 41 45  1  0
 42 41  2  0
 43 38  2  0
 43 42  1  0
 44 43  1  0
 46 47  1  0
 47 50  1  0
 47 49  1  0
 48 46  2  0
 51 52  1  0
 51 26  1  0
 53 51  1  0
 54 55  1  0
 54  1  1  0
 55 57  1  0
 56 58  1  0
 56 57  2  0
 58 59  1  0
 59 60  1  0
 60 61  1  0
 60 63  1  0
 62 60  1  0
 63 64  1  0
 65 67  1  0
 65 64  1  0
 66 77  2  0
 67 72  1  0
 68 76  1  0
 68 78  1  0
 69 75  1  0
 69 71  1  0
 70 76  1  0
 71 72  2  0
 71 70  1  0
 73 74  1  0
 73 67  2  0
 74 69  2  0
 75 68  1  0
 76 66  1  0
 78 80  2  0
 79 78  1  0
 81 79  1  0
 82 91  2  0
 82 87  1  0
 83 79  1  0
 83 87  1  0
 84 83  1  0
 85 86  1  0
 85 84  1  0
 86 82  1  0
 87 88  2  0
 88 89  1  0
 90 89  2  0
 91 90  1  0
 92 66  1  0
 92 93  1  0
 92102  1  0
 93 96  1  0
 94 98  1  0
 94 93  1  0
 95 94  2  0
 98 97  1  0
100 98  1  0
100101  1  0
100 99  1  0
102105  1  1
102103  1  0
104102  1  0
M  ISO  4  16 100  24 100  64 101  65 101
M  END
>  <TORSDO>  (4) 
F 34

>  <SCORE>  (4) 
-9.356

>  <name>  (4) 
3

>  <ligand_id>  (4) 
3

>  <original_smiles>  (4) 
[H]C(=NC([H])([H])C([H])([H])C([H])([H])[N+]([H])([H])C([H])([H])C([H])([H])C([H])([H])[N+]([H])([H])C([H])([H])C([H])([H])C([H])([H])C([H])([H])C([H])([H])N([H])C(=O)N1C([H])([H])C([H])([H])C([H])([H])C([H])(n2nc(-c3c([H])c([H])c(Oc4c([H])c([H])c(F)c([H])c4F)c([H])c3[H])c(C(=O)N([H])[H])c2N([H])[H])C1([H])[H])C([H])([H])C([H])([H])[N+]([H])([H])C([H])([H])C([H])([H])Oc1c([H])c([H])c2c(c1[H])C([H])([H])N(C(=O)C([H])(N([H])C(=O)C([H])(N([H])C([H])([H])[H])C([H])([H])[H])C(C([H])([H])[H])(C([H])([H])[H])C([H])([H])[H])C([H])(C(=O)N([H])C1([H])c3c([H])c([H])c([H])c([H])c3C([H])([H])C([H])([H])C1([H])[H])C2([H])[H]

>  <smiles>  (4) 
[H]C(=NC([H])([H])C([H])([H])C([H])([H])[N+]([H])([H])C([H])([H])C([H])([H])C([H])([H])[N+]([H])([H])C([H])([H])C([H])([H])C([H])([H])C([H])([H])C([H])([H])N([H])C(=O)N1C([H])([H])C([H])([H])C([H])([H])C([H])(n2nc(-c3c([H])c([H])c(Oc4c([H])c([H])c(F)c([H])c4F)c([H])c3[H])c(C(=O)N([H])[H])c2N([H])[H])C1([H])[H])C([H])([H])C([H])([H])[N+]([H])([H])C([H])([H])C([H])([H])Oc1c([H])c([H])c2c(c1[H])C([H])([H])N(C(=O)C([H])(N([H])C(=O)C([H])(N([H])C([H])([H])[H])C([H])([H])[H])C(C([H])([H])[H])(C([H])([H])[H])C([H])([H])[H])C([H])(C(=O)N([H])C1([H])c3c([H])c([H])c([H])c([H])c3C([H])([H])C([H])([H])C1([H])[H])C2([H])[H]

$$$$
4:0:0
     RDKit          3D

100107  0  0  1  0  0  0  0  0999 V2000
  -35.6710  -24.3980   21.2800 C   0  0  0  0  0  2  0  0  0  0  0  0
  -35.6630  -23.2300   20.3810 N   0  0  0  0  0  4  0  0  0  0  0  0
  -35.6480  -23.6330   19.4540 H   0  0  0  0  0  0  0  0  0  0  0  0
  -36.5210  -22.7170   20.4970 H   0  0  0  0  0  0  0  0  0  0  0  0
  -34.4870  -22.3460   20.5270 C   0  0  0  0  0  2  0  0  0  0  0  0
  -34.4980  -21.1840   19.5140 C   0  0  0  0  0  2  0  0  0  0  0  0
  -33.1520  -20.4370   19.4140 C   0  0  0  0  0  2  0  0  0  0  0  0
  -32.9140  -19.4580   20.5020 N   0  0  0  0  0  4  0  0  0  0  0  0
  -33.5920  -18.7180   20.4110 H   0  0  0  0  0  0  0  0  0  0  0  0
  -33.0400  -19.8830   21.4060 H   0  0  0  0  0  0  0  0  0  0  0  0
  -31.5600  -18.8630   20.4470 C   0  0  0  0  0  2  0  0  0  0  0  0
  -31.4480  -17.5310   21.2140 C   0  0  0  0  0  2  0  0  0  0  0  0
  -30.1040  -16.8320   20.9040 C   0  0  0  0  0  2  0  0  0  0  0  0
  -30.6740  -14.4620   20.4670 C   0  0  0  0  0  0  0  0  0  0  0  0
  -30.3520  -12.3480   19.2580 C   0  0  0  0  0  2  0  0  0  0  0  0
  -29.4220  -12.6060   18.0550 C   0  0  0  0  0  2  0  0  0  0  0  0
  -27.9440  -12.4770   18.4700 C   0  0  0  0  0  2  0  0  0  0  0  0
  -27.6100  -13.2920   19.7480 C   0  0  0  0  0  3  0  0  0  0  0  0
  -28.6500  -13.0140   20.8600 C   0  0  0  0  0  2  0  0  0  0  0  0
  -29.9930  -13.2980   20.3210 N   0  0  0  0  0  0  0  0  0  0  0  0
  -31.7280  -14.7080   19.8710 O   0  0  0  0  0  0  0  0  0  0  0  0
  -30.0510  -15.3980   21.1970 N   0  0  0  0  0  0  0  0  0  0  0  0
  -29.2410  -15.0760   21.7070 H   0  0  0  0  0  0  0  0  0  0  0  0
  -25.1940  -13.9100   20.4030 C   0  0  0  0  0  0  0  0  0  0  0  0
  -24.1230  -13.1420   20.7750 C   0  0  0  0  0  0  0  0  0  0  0  0
  -24.5880  -11.7920   20.7760 C   0  0  0  0  0  0  0  0  0  0  0  0
  -26.2460  -13.0280   20.2060 N   0  0  0  0  0  0  0  0  0  0  0  0
  -25.8820  -11.7490   20.4840 N   0  0  0  0  0  0  0  0  0  0  0  0
  -23.8650  -10.5320   20.9850 C   0  0  0  0  0  0  0  0  0  0  0  0
  -24.3030   -9.5740   21.9270 C   0  0  0  0  0  3  0  0  0  0  0  0
  -23.5800   -8.3780   22.1220 C   0  0  0  0  0  3  0  0  0  0  0  0
  -22.4040   -8.1290   21.3750 C   0  0  0  0  0  0  0  0  0  0  0  0
  -21.9850   -9.0740   20.4230 C   0  0  0  0  0  3  0  0  0  0  0  0
  -22.7080  -10.2620   20.2250 C   0  0  0  0  0  3  0  0  0  0  0  0
  -21.6530   -6.9830   21.4780 O   0  0  0  0  0  0  0  0  0  0  0  0
  -21.6290   -6.2390   22.6300 C   0  0  0  0  0  0  0  0  0  0  0  0
  -21.2460   -6.7980   23.8700 C   0  0  0  0  0  3  0  0  0  0  0  0
  -21.1670   -5.9820   25.0150 C   0  0  0  0  0  3  0  0  0  0  0  0
  -21.4620   -4.6080   24.9240 C   0  0  0  0  0  0  0  0  0  0  0  0
  -21.8390   -4.0500   23.6900 C   0  0  0  0  0  3  0  0  0  0  0  0
  -21.9190   -4.8630   22.5460 C   0  0  0  0  0  0  0  0  0  0  0  0
  -22.2620   -4.3150   21.3560 F   0  0  0  0  0  0  0  0  0  0  0  0
  -21.3800   -3.8220   26.0230 F   0  0  0  0  0  0  0  0  0  0  0  0
  -22.7210  -13.6220   21.0240 C   0  0  0  0  0  0  0  0  0  0  0  0
  -21.9860  -12.9420   21.8960 N   0  0  0  0  0  0  0  0  0  0  0  0
  -22.2840  -14.6340   20.4780 O   0  0  0  0  0  0  0  0  0  0  0  0
  -22.3500  -12.1240   22.3620 H   0  0  0  0  0  0  0  0  0  0  0  0
  -21.0440  -13.2450   22.1040 H   0  0  0  0  0  0  0  0  0  0  0  0
  -25.3600  -15.2760   20.1990 N   0  0  0  0  0  0  0  0  0  0  0  0
  -24.5940  -15.9360   20.2790 H   0  0  0  0  0  0  0  0  0  0  0  0
  -26.2200  -15.7040   19.8800 H   0  0  0  0  0  0  0  0  0  0  0  0
  -35.8500  -25.6710   20.4340 C   0  0  0  0  0  2  0  0  0  0  0  0
  -35.3050  -26.8680   18.4210 C   0  0  0  0  0  1  0  0  0  0  0  0
  -34.8790  -25.8040   19.3350 N   0  0  0  0  0  0  0  0  0  0  0  0
  -33.5110  -26.0480   19.8270 C   0  0  0  0  0  2  0  0  0  0  0  0
  -32.4080  -25.9670   18.7570 C   0  0  0  0  0  2  0  0  0  0  0  0
  -31.1340  -25.9080   19.3890 O   0  0  0  0  0  0  0  0  0  0  0  0
  -30.0710  -26.0490   18.4530 C   0  0  0  0  0  2  0  0  0  0  0  0
  -28.7060  -25.8020   19.1120 C   0  0  0  0  0  2  0  0  0  0  0  0
  -28.4650  -26.8030   20.1040 O   0  0  0  0  0  0  0  0  0  0  0  0
  -24.6100  -31.8820   23.2390 C   0  0  0  0  0  0  0  0  0  0  0  0
  -27.2510  -27.4530   20.1330 C   0  0  0  0  0  0  0  0  0  0  0  0
  -23.3920  -30.4700   21.6120 C   0  0  0  0  0  3  0  0  0  0  0  0
  -24.8350  -28.9240   20.1900 C   0  0  0  0  0  0  0  0  0  0  0  0
  -25.9140  -30.8330   21.3940 C   0  0  0  0  0  2  0  0  0  0  0  0
  -25.9950  -29.4590   20.7640 C   0  0  0  0  0  0  0  0  0  0  0  0
  -27.2000  -28.7250   20.7420 C   0  0  0  0  0  3  0  0  0  0  0  0
  -26.0590  -26.9080   19.5940 C   0  0  0  0  0  3  0  0  0  0  0  0
  -24.8600  -27.6430   19.6130 C   0  0  0  0  0  3  0  0  0  0  0  0
  -23.5900  -29.7800   20.2370 C   0  0  0  0  0  2  0  0  0  0  0  0
  -24.6580  -31.0770   22.1400 N   0  0  0  0  0  0  0  0  0  0  0  0
  -23.5320  -32.1560   23.7840 O   0  0  0  0  0  0  0  0  0  0  0  0
  -22.7490  -29.4540   22.5820 C   0  0  0  0  0  0  0  0  0  0  0  0
  -21.4240  -29.2700   22.4620 N   0  0  0  0  0  0  0  0  0  0  0  0
  -23.4370  -28.8330   23.3960 O   0  0  0  0  0  0  0  0  0  0  0  0
  -20.9310  -29.8220   21.7740 H   0  0  0  0  0  0  0  0  0  0  0  0
  -18.0530  -28.0800   22.9760 C   0  0  0  0  0  0  0  0  0  0  0  0
  -20.6110  -28.3370   23.2390 C   0  0  0  0  0  3  0  0  0  0  0  0
  -20.7120  -26.9030   22.6690 C   0  0  0  0  0  2  0  0  0  0  0  0
  -19.6060  -26.5750   21.6600 C   0  0  0  0  0  2  0  0  0  0  0  0
  -18.2260  -26.7260   22.3080 C   0  0  0  0  0  2  0  0  0  0  0  0
  -19.1730  -28.8430   23.3980 C   0  0  0  0  0  0  0  0  0  0  0  0
  -18.9580  -30.1120   23.9800 C   0  0  0  0  0  3  0  0  0  0  0  0
  -17.6550  -30.6160   24.1450 C   0  0  0  0  0  3  0  0  0  0  0  0
  -16.5490  -29.8490   23.7410 C   0  0  0  0  0  3  0  0  0  0  0  0
  -16.7490  -28.5840   23.1620 C   0  0  0  0  0  3  0  0  0  0  0  0
  -25.9010  -32.5140   23.8470 C   0  0  0  0  0  3  0  0  0  0  0  0
  -25.5920  -33.9090   24.1850 N   0  0  0  0  0  0  0  0  0  0  0  0
  -25.9190  -34.9640   23.4260 C   0  0  0  0  0  0  0  0  0  0  0  0
  -26.5840  -34.8660   22.3910 O   0  0  0  0  0  0  0  0  0  0  0  0
  -25.0020  -34.0610   24.9890 H   0  0  0  0  0  0  0  0  0  0  0  0
  -24.1860  -36.7550   23.0810 C   0  0  0  0  0  1  0  0  0  0  0  0
  -25.4290  -36.3500   23.8900 C   0  0  0  0  0  3  0  0  0  0  0  0
  -27.5660  -37.2300   24.7180 C   0  0  0  0  0  1  0  0  0  0  0  0
  -26.4600  -37.4050   23.7810 N   0  0  0  0  0  0  0  0  0  0  0  0
  -26.0530  -38.3230   23.9360 H   0  0  0  0  0  0  0  0  0  0  0  0
  -26.4380  -31.7380   25.1130 C   0  0  1  0  0  0  0  0  0  0  0  0
  -25.3590  -31.4900   26.1930 C   0  0  0  0  0  1  0  0  0  0  0  0
  -27.0210  -30.3660   24.7030 C   0  0  0  0  0  1  0  0  0  0  0  0
  -27.5930  -32.5330   25.7640 C   0  0  0  0  0  1  0  0  0  0  0  0
  2  4  1  0
  2  5  1  0
  2  1  1  0
  3  2  1  0
  6  5  1  0
  7  6  1  0
  7  8  1  0
  8 10  1  0
  9  8  1  0
 11  8  1  0
 11 12  1  0
 13 22  1  0
 13 12  1  0
 14 22  1  0
 15 20  1  0
 16 17  1  0
 16 15  1  0
 18 17  1  0
 18 27  1  0
 18 19  1  0
 20 14  1  0
 20 19  1  0
 21 14  2  0
 22 23  1  0
 24 25  2  0
 25 26  1  0
 25 44  1  0
 26 29  1  0
 27 24  1  0
 27 28  1  0
 28 26  2  0
 29 30  1  0
 30 31  2  0
 32 35  1  0
 32 31  1  0
 33 32  2  0
 34 33  1  0
 34 29  2  0
 35 36  1  0
 36 37  1  0
 37 38  2  0
 39 38  1  0
 39 43  1  0
 40 39  2  0
 41 36  2  0
 41 40  1  0
 42 41  1  0
 44 45  1  0
 45 48  1  0
 45 47  1  0
 46 44  2  0
 49 50  1  0
 49 24  1  0
 51 49  1  0
 52  1  1  0
 53 54  1  0
 54 55  1  0
 54 52  1  0
 56 57  1  0
 56 55  1  0
 58 59  1  0
 58 57  1  0
 59 60  1  0
 60 62  1  0
 61 72  2  0
 62 67  1  0
 63 71  1  0
 63 73  1  0
 64 70  1  0
 64 66  1  0
 65 71  1  0
 66 65  1  0
 67 66  2  0
 68 69  1  0
 68 62  2  0
 69 64  2  0
 70 63  1  0
 71 61  1  0
 73 75  2  0
 74 73  1  0
 76 74  1  0
 77 86  2  0
 77 82  1  0
 78 74  1  0
 78 82  1  0
 79 78  1  0
 80 81  1  0
 80 79  1  0
 81 77  1  0
 82 83  2  0
 83 84  1  0
 85 84  2  0
 86 85  1  0
 87 61  1  0
 87 88  1  0
 87 97  1  0
 88 91  1  0
 89 93  1  0
 89 88  1  0
 90 89  2  0
 93 92  1  0
 95 93  1  0
 95 96  1  0
 95 94  1  0
 97100  1  1
 97 98  1  0
 99 97  1  0
M  ISO  4  14 100  22 100  59 101  60 101
M  END
>  <TORSDO>  (5) 
F 31

>  <SCORE>  (5) 
-10.319

>  <name>  (5) 
4

>  <ligand_id>  (5) 
4

>  <original_smiles>  (5) 
[H]c1c([H])c([H])c2c(c1[H])C([H])([H])C([H])([H])C([H])([H])C2([H])N([H])C(=O)C1([H])N(C(=O)C([H])(N([H])C(=O)C([H])(N([H])C([H])([H])[H])C([H])([H])[H])C(C([H])([H])[H])(C([H])([H])[H])C([H])([H])[H])C([H])([H])c2c([H])c(OC([H])([H])C([H])([H])OC([H])([H])C([H])([H])N(C([H])([H])[H])C([H])([H])C([H])([H])[N+]([H])([H])C([H])([H])C([H])([H])C([H])([H])[N+]([H])([H])C([H])([H])C([H])([H])C([H])([H])N([H])C(=O)N3C([H])([H])C([H])([H])C([H])([H])C([H])(n4nc(-c5c([H])c([H])c(Oc6c([H])c([H])c(F)c([H])c6F)c([H])c5[H])c(C(=O)N([H])[H])c4N([H])[H])C3([H])[H])c([H])c([H])c2C1([H])[H]

>  <smiles>  (5) 
[H]c1c([H])c([H])c2c(c1[H])C([H])([H])C([H])([H])C([H])([H])C2([H])N([H])C(=O)C1([H])N(C(=O)C([H])(N([H])C(=O)C([H])(N([H])C([H])([H])[H])C([H])([H])[H])C(C([H])([H])[H])(C([H])([H])[H])C([H])([H])[H])C([H])([H])c2c([H])c(OC([H])([H])C([H])([H])OC([H])([H])C([H])([H])N(C([H])([H])[H])C([H])([H])C([H])([H])[N+]([H])([H])C([H])([H])C([H])([H])C([H])([H])[N+]([H])([H])C([H])([H])C([H])([H])C([H])([H])N([H])C(=O)N3C([H])([H])C([H])([H])C([H])([H])C([H])(n4nc(-c5c([H])c([H])c(Oc6c([H])c([H])c(F)c([H])c6F)c([H])c5[H])c(C(=O)N([H])[H])c4N([H])[H])C3([H])[H])c([H])c([H])c2C1([H])[H]

$$$$
5:0:0
     RDKit          3D

 95102  0  0  1  0  0  0  0  0999 V2000
  -23.6560  -20.5380   22.9470 C   0  0  0  0  0  2  0  0  0  0  0  0
  -24.3560  -21.8350   23.3610 C   0  0  0  0  0  2  0  0  0  0  0  0
  -25.3020  -22.1540   22.3510 O   0  0  0  0  0  0  0  0  0  0  0  0
  -25.9060  -23.4180   22.5510 C   0  0  0  0  0  2  0  0  0  0  0  0
  -26.8240  -23.7170   21.3620 C   0  0  0  0  0  2  0  0  0  0  0  0
  -27.4740  -25.1010   21.4930 C   0  0  0  0  0  2  0  0  0  0  0  0
  -28.0500  -25.6440   20.1660 C   0  0  0  0  0  2  0  0  0  0  0  0
  -28.1940  -27.0660   20.2090 O   0  0  0  0  0  0  0  0  0  0  0  0
  -24.5010  -32.1650   23.4580 C   0  0  0  0  0  0  0  0  0  0  0  0
  -27.0400  -27.8190   20.1810 C   0  0  0  0  0  0  0  0  0  0  0  0
  -23.2730  -30.9010   21.7230 C   0  0  0  0  0  3  0  0  0  0  0  0
  -24.6940  -29.3920   20.2450 C   0  0  0  0  0  0  0  0  0  0  0  0
  -25.8120  -31.1780   21.5880 C   0  0  0  0  0  2  0  0  0  0  0  0
  -25.8590  -29.8450   20.8760 C   0  0  0  0  0  0  0  0  0  0  0  0
  -27.0340  -29.0650   20.8440 C   0  0  0  0  0  3  0  0  0  0  0  0
  -25.8540  -27.3800   19.5430 C   0  0  0  0  0  3  0  0  0  0  0  0
  -24.6840  -28.1550   19.5820 C   0  0  0  0  0  3  0  0  0  0  0  0
  -23.4820  -30.2890   20.3140 C   0  0  0  0  0  2  0  0  0  0  0  0
  -24.5460  -31.4230   22.3170 N   0  0  0  0  0  0  0  0  0  0  0  0
  -23.4210  -32.4530   23.9930 O   0  0  0  0  0  0  0  0  0  0  0  0
  -22.5660  -29.8560   22.6140 C   0  0  0  0  0  0  0  0  0  0  0  0
  -21.2350  -29.7540   22.4730 N   0  0  0  0  0  0  0  0  0  0  0  0
  -23.2120  -29.1430   23.3880 O   0  0  0  0  0  0  0  0  0  0  0  0
  -20.7790  -30.3760   21.8200 H   0  0  0  0  0  0  0  0  0  0  0  0
  -17.7900  -28.7890   22.9620 C   0  0  0  0  0  0  0  0  0  0  0  0
  -20.3650  -28.8180   23.1830 C   0  0  0  0  0  3  0  0  0  0  0  0
  -20.3410  -27.4410   22.4790 C   0  0  0  0  0  2  0  0  0  0  0  0
  -19.1950  -27.3000   21.4720 C   0  0  0  0  0  2  0  0  0  0  0  0
  -17.8440  -27.4960   22.1650 C   0  0  0  0  0  2  0  0  0  0  0  0
  -18.9760  -29.4180   23.4250 C   0  0  0  0  0  0  0  0  0  0  0  0
  -18.8740  -30.6360   24.1310 C   0  0  0  0  0  3  0  0  0  0  0  0
  -17.6190  -31.2240   24.3750 C   0  0  0  0  0  3  0  0  0  0  0  0
  -16.4470  -30.5900   23.9270 C   0  0  0  0  0  3  0  0  0  0  0  0
  -16.5340  -29.3720   23.2270 C   0  0  0  0  0  3  0  0  0  0  0  0
  -25.7990  -32.7080   24.1330 C   0  0  0  0  0  3  0  0  0  0  0  0
  -26.2920  -31.8200   25.3390 C   0  0  1  0  0  0  0  0  0  0  0  0
  -25.1840  -31.5050   26.3710 C   0  0  0  0  0  1  0  0  0  0  0  0
  -26.8620  -30.4740   24.8300 C   0  0  0  0  0  1  0  0  0  0  0  0
  -27.4460  -32.5350   26.0800 C   0  0  0  0  0  1  0  0  0  0  0  0
  -25.5260  -34.0820   24.5750 N   0  0  0  0  0  0  0  0  0  0  0  0
  -25.9020  -35.1820   23.9080 C   0  0  0  0  0  0  0  0  0  0  0  0
  -26.5890  -35.1440   22.8840 O   0  0  0  0  0  0  0  0  0  0  0  0
  -24.9210  -34.1870   25.3750 H   0  0  0  0  0  0  0  0  0  0  0  0
  -24.2320  -37.0460   23.6670 C   0  0  0  0  0  1  0  0  0  0  0  0
  -25.4420  -36.5410   24.4690 C   0  0  0  0  0  3  0  0  0  0  0  0
  -27.5740  -37.2940   25.4240 C   0  0  0  0  0  1  0  0  0  0  0  0
  -26.5050  -37.5680   24.4670 N   0  0  0  0  0  0  0  0  0  0  0  0
  -26.1200  -38.4850   24.6750 H   0  0  0  0  0  0  0  0  0  0  0  0
  -24.4160  -19.3100   23.4730 C   0  0  0  0  0  2  0  0  0  0  0  0
  -24.0250  -17.9970   22.7830 C   0  0  0  0  0  2  0  0  0  0  0  0
  -24.8790  -16.8250   23.2940 C   0  0  0  0  0  2  0  0  0  0  0  0
  -25.0470  -15.7800   22.2640 N   0  0  0  0  0  4  0  0  0  0  0  0
  -24.6230  -16.0860   21.4040 H   0  0  0  0  0  0  0  0  0  0  0  0
  -24.5390  -14.9640   22.5700 H   0  0  0  0  0  0  0  0  0  0  0  0
  -26.4460  -15.3810   21.9960 C   0  0  0  0  0  2  0  0  0  0  0  0
  -27.0660  -16.1840   20.8340 C   0  0  0  0  0  2  0  0  0  0  0  0
  -28.6040  -16.1200   20.8180 C   0  0  0  0  0  2  0  0  0  0  0  0
  -29.8720  -14.4940   19.4030 C   0  0  0  0  0  0  0  0  0  0  0  0
  -30.0630  -12.0360   19.3780 C   0  0  0  0  0  2  0  0  0  0  0  0
  -29.2640  -11.4380   18.2040 C   0  0  0  0  0  2  0  0  0  0  0  0
  -27.7910  -11.2090   18.5970 C   0  0  0  0  0  2  0  0  0  0  0  0
  -27.1540  -12.4550   19.2680 C   0  0  0  0  0  3  0  0  0  0  0  0
  -28.0780  -12.9740   20.3870 C   0  0  0  0  0  2  0  0  0  0  0  0
  -29.3980  -13.2800   19.8030 N   0  0  0  0  0  0  0  0  0  0  0  0
  -30.9150  -14.6280   18.7620 O   0  0  0  0  0  0  0  0  0  0  0  0
  -29.0780  -15.5610   19.5530 N   0  0  0  0  0  0  0  0  0  0  0  0
  -29.3360  -16.2860   18.8990 H   0  0  0  0  0  0  0  0  0  0  0  0
  -24.7040  -13.0000   19.8640 C   0  0  0  0  0  0  0  0  0  0  0  0
  -23.6850  -12.2200   20.3390 C   0  0  0  0  0  0  0  0  0  0  0  0
  -24.2350  -10.9110   20.5100 C   0  0  0  0  0  0  0  0  0  0  0  0
  -25.8100  -12.1660   19.7690 N   0  0  0  0  0  0  0  0  0  0  0  0
  -25.5280  -10.9150   20.2140 N   0  0  0  0  0  0  0  0  0  0  0  0
  -23.5940   -9.6440   20.8850 C   0  0  0  0  0  0  0  0  0  0  0  0
  -24.0890   -8.8500   21.9440 C   0  0  0  0  0  3  0  0  0  0  0  0
  -23.4430   -7.6460   22.2970 C   0  0  0  0  0  3  0  0  0  0  0  0
  -22.2910   -7.2270   21.5930 C   0  0  0  0  0  0  0  0  0  0  0  0
  -21.8170   -8.0070   20.5240 C   0  0  0  0  0  3  0  0  0  0  0  0
  -22.4640   -9.2030   20.1700 C   0  0  0  0  0  3  0  0  0  0  0  0
  -21.6140   -6.0570   21.8470 O   0  0  0  0  0  0  0  0  0  0  0  0
  -21.6490   -5.4620   23.0840 C   0  0  0  0  0  0  0  0  0  0  0  0
  -21.1630   -6.1130   24.2380 C   0  0  0  0  0  3  0  0  0  0  0  0
  -21.1530   -5.4380   25.4760 C   0  0  0  0  0  3  0  0  0  0  0  0
  -21.6190   -4.1130   25.5600 C   0  0  0  0  0  0  0  0  0  0  0  0
  -22.0980   -3.4610   24.4100 C   0  0  0  0  0  3  0  0  0  0  0  0
  -22.1110   -4.1340   23.1750 C   0  0  0  0  0  0  0  0  0  0  0  0
  -22.5560   -3.4930   22.0680 F   0  0  0  0  0  0  0  0  0  0  0  0
  -21.6000   -3.4630   26.7470 F   0  0  0  0  0  0  0  0  0  0  0  0
  -22.2550  -12.6330   20.5360 C   0  0  0  0  0  0  0  0  0  0  0  0
  -21.5720  -12.0380   21.5080 N   0  0  0  0  0  0  0  0  0  0  0  0
  -21.7490  -13.5250   19.8550 O   0  0  0  0  0  0  0  0  0  0  0  0
  -21.9910  -11.3200   22.0800 H   0  0  0  0  0  0  0  0  0  0  0  0
  -20.6130  -12.3030   21.6850 H   0  0  0  0  0  0  0  0  0  0  0  0
  -24.7800  -14.3390   19.4930 N   0  0  0  0  0  0  0  0  0  0  0  0
  -23.9610  -14.9350   19.4670 H   0  0  0  0  0  0  0  0  0  0  0  0
  -25.5920  -14.7610   19.0580 H   0  0  0  0  0  0  0  0  0  0  0  0
  1  2  1  0
  1 49  1  0
  3  4  1  0
  3  2  1  0
  5  6  1  0
  5  4  1  0
  7  8  1  0
  7  6  1  0
  9 20  2  0
 10  8  1  0
 10 15  1  0
 11 19  1  0
 11 21  1  0
 12 18  1  0
 12 14  1  0
 13 19  1  0
 14 13  1  0
 15 14  2  0
 16 17  1  0
 16 10  2  0
 17 12  2  0
 18 11  1  0
 19  9  1  0
 21 23  2  0
 22 21  1  0
 24 22  1  0
 25 34  2  0
 25 30  1  0
 26 22  1  0
 26 30  1  0
 27 26  1  0
 28 29  1  0
 28 27  1  0
 29 25  1  0
 30 31  2  0
 31 32  1  0
 33 32  2  0
 34 33  1  0
 35  9  1  0
 35 40  1  0
 35 36  1  0
 36 39  1  1
 36 37  1  0
 38 36  1  0
 40 43  1  0
 41 45  1  0
 41 40  1  0
 42 41  2  0
 45 44  1  0
 47 45  1  0
 47 48  1  0
 47 46  1  0
 50 51  1  0
 50 49  1  0
 52 54  1  0
 52 51  1  0
 53 52  1  0
 55 52  1  0
 56 55  1  0
 57 56  1  0
 58 66  1  0
 58 64  1  0
 59 64  1  0
 60 61  1  0
 60 59  1  0
 62 61  1  0
 62 71  1  0
 62 63  1  0
 64 63  1  0
 65 58  2  0
 66 57  1  0
 67 66  1  0
 68 69  2  0
 69 70  1  0
 69 88  1  0
 70 73  1  0
 71 68  1  0
 71 72  1  0
 72 70  2  0
 73 74  1  0
 74 75  2  0
 76 79  1  0
 76 75  1  0
 77 76  2  0
 78 77  1  0
 78 73  2  0
 79 80  1  0
 80 85  2  0
 80 81  1  0
 81 82  2  0
 82 83  1  0
 83 87  1  0
 84 83  2  0
 85 84  1  0
 86 85  1  0
 88 89  1  0
 89 92  1  0
 89 91  1  0
 90 88  2  0
 93 68  1  0
 94 93  1  0
 95 93  1  0
M  ISO  4   7 101   8 101  58 100  66 100
M  END
>  <TORSDO>  (6) 
F 29

>  <SCORE>  (6) 
32.720

>  <name>  (6) 
5

>  <ligand_id>  (6) 
5

>  <original_smiles>  (6) 
[H]c1c([H])c([H])c2c(c1[H])C([H])([H])C([H])([H])C([H])([H])C2([H])N([H])C(=O)C1([H])N(C(=O)C([H])(N([H])C(=O)C([H])(N([H])C([H])([H])[H])C([H])([H])[H])C(C([H])([H])[H])(C([H])([H])[H])C([H])([H])[H])C([H])([H])c2c([H])c(OC([H])([H])C([H])([H])C([H])([H])C([H])([H])OC([H])([H])C([H])([H])C([H])([H])C([H])([H])C([H])([H])[N+]([H])([H])C([H])([H])C([H])([H])C([H])([H])N([H])C(=O)N3C([H])([H])C([H])([H])C([H])([H])C([H])(n4nc(-c5c([H])c([H])c(Oc6c([H])c([H])c(F)c([H])c6F)c([H])c5[H])c(C(=O)N([H])[H])c4N([H])[H])C3([H])[H])c([H])c([H])c2C1([H])[H]

>  <smiles>  (6) 
[H]c1c([H])c([H])c2c(c1[H])C([H])([H])C([H])([H])C([H])([H])C2([H])N([H])C(=O)C1([H])N(C(=O)C([H])(N([H])C(=O)C([H])(N([H])C([H])([H])[H])C([H])([H])[H])C(C([H])([H])[H])(C([H])([H])[H])C([H])([H])[H])C([H])([H])c2c([H])c(OC([H])([H])C([H])([H])C([H])([H])C([H])([H])OC([H])([H])C([H])([H])C([H])([H])C([H])([H])C([H])([H])[N+]([H])([H])C([H])([H])C([H])([H])C([H])([H])N([H])C(=O)N3C([H])([H])C([H])([H])C([H])([H])C([H])(n4nc(-c5c([H])c([H])c(Oc6c([H])c([H])c(F)c([H])c6F)c([H])c5[H])c(C(=O)N([H])[H])c4N([H])[H])C3([H])[H])c([H])c([H])c2C1([H])[H]

$$$$
6:0:0
     RDKit          3D

 95102  0  0  1  0  0  0  0  0999 V2000
  -30.2910  -22.8460   24.2970 C   0  0  0  0  0  2  0  0  0  0  0  0
  -30.7230  -24.2180   24.5730 N   0  0  0  0  0  0  0  0  0  0  0  0
  -30.0680  -24.7900   25.1050 H   0  0  0  0  0  0  0  0  0  0  0  0
  -31.0910  -24.8860   23.3320 C   0  0  0  0  0  2  0  0  0  0  0  0
  -29.9150  -25.4920   22.5490 C   0  0  0  0  0  2  0  0  0  0  0  0
  -30.3930  -26.0020   21.1680 C   0  0  0  0  0  2  0  0  0  0  0  0
  -29.5790  -27.2100   20.6900 C   0  0  0  0  0  2  0  0  0  0  0  0
  -28.3970  -26.7420   20.0590 O   0  0  0  0  0  0  0  0  0  0  0  0
  -24.6020  -31.8820   23.2190 C   0  0  0  0  0  0  0  0  0  0  0  0
  -27.2710  -27.5290   20.1150 C   0  0  0  0  0  0  0  0  0  0  0  0
  -23.3890  -30.4810   21.5780 C   0  0  0  0  0  3  0  0  0  0  0  0
  -24.8440  -28.9620   20.1370 C   0  0  0  0  0  0  0  0  0  0  0  0
  -25.8810  -30.9080   21.3090 C   0  0  0  0  0  2  0  0  0  0  0  0
  -25.9920  -29.5210   20.7110 C   0  0  0  0  0  0  0  0  0  0  0  0
  -27.2070  -28.8160   20.7070 C   0  0  0  0  0  3  0  0  0  0  0  0
  -26.1090  -26.9810   19.5430 C   0  0  0  0  0  3  0  0  0  0  0  0
  -24.8910  -27.6860   19.5440 C   0  0  0  0  0  3  0  0  0  0  0  0
  -23.5890  -29.7980   20.1980 C   0  0  0  0  0  2  0  0  0  0  0  0
  -24.6500  -31.0930   22.1080 N   0  0  0  0  0  0  0  0  0  0  0  0
  -23.5260  -32.1540   23.7710 O   0  0  0  0  0  0  0  0  0  0  0  0
  -22.7360  -29.4590   22.5310 C   0  0  0  0  0  0  0  0  0  0  0  0
  -21.4130  -29.2860   22.3950 N   0  0  0  0  0  0  0  0  0  0  0  0
  -23.4150  -28.8210   23.3370 O   0  0  0  0  0  0  0  0  0  0  0  0
  -20.9270  -29.8500   21.7120 H   0  0  0  0  0  0  0  0  0  0  0  0
  -18.0220  -28.1340   22.8520 C   0  0  0  0  0  0  0  0  0  0  0  0
  -20.5830  -28.3520   23.1480 C   0  0  0  0  0  3  0  0  0  0  0  0
  -20.6680  -26.9300   22.5510 C   0  0  0  0  0  2  0  0  0  0  0  0
  -19.5700  -26.6430   21.5220 C   0  0  0  0  0  2  0  0  0  0  0  0
  -18.1840  -26.7940   22.1530 C   0  0  0  0  0  2  0  0  0  0  0  0
  -19.1490  -28.8770   23.2980 C   0  0  0  0  0  0  0  0  0  0  0  0
  -18.9450  -30.1380   23.9000 C   0  0  0  0  0  3  0  0  0  0  0  0
  -17.6460  -30.6530   24.0680 C   0  0  0  0  0  3  0  0  0  0  0  0
  -16.5350  -29.9070   23.6390 C   0  0  0  0  0  3  0  0  0  0  0  0
  -16.7230  -28.6520   23.0370 C   0  0  0  0  0  3  0  0  0  0  0  0
  -25.8910  -32.4960   23.8430 C   0  0  0  0  0  3  0  0  0  0  0  0
  -26.4430  -31.6530   25.0520 C   0  0  1  0  0  0  0  0  0  0  0  0
  -25.3750  -31.3380   26.1270 C   0  0  0  0  0  1  0  0  0  0  0  0
  -27.0160  -30.3130   24.5360 C   0  0  0  0  0  1  0  0  0  0  0  0
  -27.6130  -32.4090   25.7230 C   0  0  0  0  0  1  0  0  0  0  0  0
  -25.5900  -33.8740   24.2430 N   0  0  0  0  0  0  0  0  0  0  0  0
  -25.9080  -34.9560   23.5190 C   0  0  0  0  0  0  0  0  0  0  0  0
  -26.5610  -34.8970   22.4730 O   0  0  0  0  0  0  0  0  0  0  0  0
  -25.0030  -33.9970   25.0560 H   0  0  0  0  0  0  0  0  0  0  0  0
  -24.1490  -36.7260   23.2630 C   0  0  0  0  0  1  0  0  0  0  0  0
  -25.4130  -36.3180   24.0370 C   0  0  0  0  0  3  0  0  0  0  0  0
  -27.5620  -37.1800   24.8490 C   0  0  0  0  0  1  0  0  0  0  0  0
  -26.4310  -37.3870   23.9460 N   0  0  0  0  0  0  0  0  0  0  0  0
  -26.0230  -38.2950   24.1500 H   0  0  0  0  0  0  0  0  0  0  0  0
  -29.9550  -22.0760   25.5920 C   0  0  0  0  0  2  0  0  0  0  0  0
  -30.7730  -20.8550   25.7310 N   0  0  0  0  0  4  0  0  0  0  0  0
  -31.6380  -20.9990   25.2330 H   0  0  0  0  0  0  0  0  0  0  0  0
  -31.0110  -20.7630   26.7040 H   0  0  0  0  0  0  0  0  0  0  0  0
  -30.0930  -19.6140   25.2840 C   0  0  0  0  0  2  0  0  0  0  0  0
  -31.0900  -18.4540   25.1030 C   0  0  0  0  0  2  0  0  0  0  0  0
  -30.5780  -17.2450   24.2730 C   0  0  0  0  0  2  0  0  0  0  0  0
  -31.7460  -16.6000   23.4960 C   0  0  0  0  0  2  0  0  0  0  0  0
  -31.6420  -15.1210   23.0630 C   0  0  0  0  0  2  0  0  0  0  0  0
  -30.8140  -14.3280   20.8440 C   0  0  0  0  0  0  0  0  0  0  0  0
  -30.4220  -12.3510   19.4120 C   0  0  0  0  0  2  0  0  0  0  0  0
  -29.4830  -12.5540   18.2110 C   0  0  0  0  0  2  0  0  0  0  0  0
  -28.0150  -12.3740   18.6260 C   0  0  0  0  0  2  0  0  0  0  0  0
  -27.6580  -13.2090   19.8810 C   0  0  0  0  0  3  0  0  0  0  0  0
  -28.6850  -12.9890   21.0110 C   0  0  0  0  0  2  0  0  0  0  0  0
  -30.0340  -13.2750   20.4890 N   0  0  0  0  0  0  0  0  0  0  0  0
  -31.7870  -14.6970   20.1760 O   0  0  0  0  0  0  0  0  0  0  0  0
  -30.5880  -14.7830   22.0950 N   0  0  0  0  0  0  0  0  0  0  0  0
  -29.7100  -14.4910   22.5010 H   0  0  0  0  0  0  0  0  0  0  0  0
  -25.2520  -13.8150   20.5670 C   0  0  0  0  0  0  0  0  0  0  0  0
  -24.1810  -13.0470   20.9150 C   0  0  0  0  0  0  0  0  0  0  0  0
  -24.6340  -11.6910   20.8710 C   0  0  0  0  0  0  0  0  0  0  0  0
  -26.2980  -12.9350   20.3360 N   0  0  0  0  0  0  0  0  0  0  0  0
  -25.9270  -11.6500   20.5750 N   0  0  0  0  0  0  0  0  0  0  0  0
  -23.9030  -10.4300   21.0380 C   0  0  0  0  0  0  0  0  0  0  0  0
  -24.3590   -9.4220   21.9180 C   0  0  0  0  0  3  0  0  0  0  0  0
  -23.6280   -8.2260   22.0760 C   0  0  0  0  0  3  0  0  0  0  0  0
  -22.4260   -8.0270   21.3550 C   0  0  0  0  0  0  0  0  0  0  0  0
  -21.9910   -9.0230   20.4630 C   0  0  0  0  0  3  0  0  0  0  0  0
  -22.7210  -10.2110   20.3020 C   0  0  0  0  0  3  0  0  0  0  0  0
  -21.6620   -6.8870   21.4240 O   0  0  0  0  0  0  0  0  0  0  0  0
  -21.6850   -6.0730   22.5280 C   0  0  0  0  0  0  0  0  0  0  0  0
  -21.4010   -6.5640   23.8210 C   0  0  0  0  0  3  0  0  0  0  0  0
  -21.3660   -5.6790   24.9180 C   0  0  0  0  0  3  0  0  0  0  0  0
  -21.6030   -4.3050   24.7230 C   0  0  0  0  0  0  0  0  0  0  0  0
  -21.8820   -3.8140   23.4350 C   0  0  0  0  0  3  0  0  0  0  0  0
  -21.9190   -4.6970   22.3400 C   0  0  0  0  0  0  0  0  0  0  0  0
  -22.1660   -4.2150   21.0980 F   0  0  0  0  0  0  0  0  0  0  0  0
  -21.5630   -3.4530   25.7740 F   0  0  0  0  0  0  0  0  0  0  0  0
  -22.7800  -13.5210   21.1820 C   0  0  0  0  0  0  0  0  0  0  0  0
  -22.0440  -12.8180   22.0300 N   0  0  0  0  0  0  0  0  0  0  0  0
  -22.3510  -14.5580   20.6700 O   0  0  0  0  0  0  0  0  0  0  0  0
  -22.4000  -11.9760   22.4610 H   0  0  0  0  0  0  0  0  0  0  0  0
  -21.1040  -13.1170   22.2490 H   0  0  0  0  0  0  0  0  0  0  0  0
  -25.4290  -15.1910   20.4070 N   0  0  0  0  0  0  0  0  0  0  0  0
  -24.6710  -15.8550   20.5140 H   0  0  0  0  0  0  0  0  0  0  0  0
  -26.2970  -15.6220   20.1160 H   0  0  0  0  0  0  0  0  0  0  0  0
  1  2  1  0
  1 49  1  0
  2  3  1  0
  4  2  1  0
  5  4  1  0
  6  5  1  0
  7  6  1  0
  8 10  1  0
  8  7  1  0
  9 20  2  0
 10 15  1  0
 11 19  1  0
 11 21  1  0
 12 18  1  0
 12 14  1  0
 13 19  1  0
 14 13  1  0
 15 14  2  0
 16 17  1  0
 16 10  2  0
 17 12  2  0
 18 11  1  0
 19  9  1  0
 21 23  2  0
 22 21  1  0
 24 22  1  0
 25 34  2  0
 25 30  1  0
 26 22  1  0
 26 30  1  0
 27 26  1  0
 28 29  1  0
 28 27  1  0
 29 25  1  0
 30 31  2  0
 31 32  1  0
 33 32  2  0
 34 33  1  0
 35  9  1  0
 35 40  1  0
 35 36  1  0
 36 39  1  1
 36 37  1  0
 38 36  1  0
 40 43  1  0
 41 45  1  0
 41 40  1  0
 42 41  2  0
 45 44  1  0
 47 45  1  0
 47 48  1  0
 47 46  1  0
 49 50  1  0
 50 52  1  0
 51 50  1  0
 53 50  1  0
 54 53  1  0
 55 54  1  0
 56 55  1  0
 57 56  1  0
 58 66  1  0
 59 64  1  0
 60 61  1  0
 60 59  1  0
 62 61  1  0
 62 71  1  0
 62 63  1  0
 64 58  1  0
 64 63  1  0
 65 58  2  0
 66 67  1  0
 66 57  1  0
 68 69  2  0
 69 88  1  0
 70 69  1  0
 70 73  1  0
 71 68  1  0
 71 72  1  0
 72 70  2  0
 73 74  1  0
 74 75  2  0
 76 79  1  0
 76 75  1  0
 77 76  2  0
 78 77  1  0
 78 73  2  0
 79 80  1  0
 80 81  1  0
 81 82  2  0
 83 82  1  0
 83 87  1  0
 84 83  2  0
 85 80  2  0
 85 84  1  0
 86 85  1  0
 88 89  1  0
 89 92  1  0
 89 91  1  0
 90 88  2  0
 93 94  1  0
 93 68  1  0
 95 93  1  0
M  ISO  4   7 101   8 101  58 100  66 100
M  END
>  <TORSDO>  (7) 
F 28

>  <SCORE>  (7) 
3.204

>  <name>  (7) 
6

>  <ligand_id>  (7) 
6

>  <original_smiles>  (7) 
[H]c1c([H])c([H])c2c(c1[H])C([H])([H])C([H])([H])C([H])([H])C2([H])N([H])C(=O)C1([H])N(C(=O)C([H])(N([H])C(=O)C([H])(N([H])C([H])([H])[H])C([H])([H])[H])C(C([H])([H])[H])(C([H])([H])[H])C([H])([H])[H])C([H])([H])c2c([H])c(OC([H])([H])C([H])([H])C([H])([H])C([H])([H])N([H])C([H])([H])C([H])([H])[N+]([H])([H])C([H])([H])C([H])([H])C([H])([H])C([H])([H])C([H])([H])N([H])C(=O)N3C([H])([H])C([H])([H])C([H])([H])C([H])(n4nc(-c5c([H])c([H])c(Oc6c([H])c([H])c(F)c([H])c6F)c([H])c5[H])c(C(=O)N([H])[H])c4N([H])[H])C3([H])[H])c([H])c([H])c2C1([H])[H]

>  <smiles>  (7) 
[H]c1c([H])c([H])c2c(c1[H])C([H])([H])C([H])([H])C([H])([H])C2([H])N([H])C(=O)C1([H])N(C(=O)C([H])(N([H])C(=O)C([H])(N([H])C([H])([H])[H])C([H])([H])[H])C(C([H])([H])[H])(C([H])([H])[H])C([H])([H])[H])C([H])([H])c2c([H])c(OC([H])([H])C([H])([H])C([H])([H])C([H])([H])N([H])C([H])([H])C([H])([H])[N+]([H])([H])C([H])([H])C([H])([H])C([H])([H])C([H])([H])C([H])([H])N([H])C(=O)N3C([H])([H])C([H])([H])C([H])([H])C([H])(n4nc(-c5c([H])c([H])c(Oc6c([H])c([H])c(F)c([H])c6F)c([H])c5[H])c(C(=O)N([H])[H])c4N([H])[H])C3([H])[H])c([H])c([H])c2C1([H])[H]

$$$$
7:0:0
     RDKit          3D

 98105  0  0  1  0  0  0  0  0999 V2000
  -33.6660  -23.8000   18.3320 C   0  0  0  0  0  2  0  0  0  0  0  0
  -33.4710  -25.6960   19.6540 C   0  0  0  0  0  3  0  0  0  0  0  0
  -32.8860  -24.9260   18.8240 N   0  0  0  0  0  0  0  0  0  0  0  0
  -32.8380  -26.9300   20.2690 C   0  0  0  0  0  2  0  0  0  0  0  0
  -31.3650  -26.9520   20.1300 N   0  0  0  0  0  4  0  0  0  0  0  0
  -31.1480  -26.6960   19.1790 H   0  0  0  0  0  0  0  0  0  0  0  0
  -31.0670  -27.9030   20.2710 H   0  0  0  0  0  0  0  0  0  0  0  0
  -30.6090  -26.0670   21.0490 C   0  0  0  0  0  2  0  0  0  0  0  0
  -29.2240  -26.6420   21.3570 C   0  0  0  0  0  2  0  0  0  0  0  0
  -28.4560  -26.7030   20.1540 O   0  0  0  0  0  0  0  0  0  0  0  0
  -24.6270  -31.8810   23.2280 C   0  0  0  0  0  0  0  0  0  0  0  0
  -27.2960  -27.4420   20.2080 C   0  0  0  0  0  0  0  0  0  0  0  0
  -23.4190  -30.4530   21.6050 C   0  0  0  0  0  3  0  0  0  0  0  0
  -24.8750  -28.8980   20.2040 C   0  0  0  0  0  0  0  0  0  0  0  0
  -25.9340  -30.8330   21.3880 C   0  0  0  0  0  2  0  0  0  0  0  0
  -26.0250  -29.4520   20.7790 C   0  0  0  0  0  0  0  0  0  0  0  0
  -27.2370  -28.7340   20.7790 C   0  0  0  0  0  3  0  0  0  0  0  0
  -26.1360  -26.8990   19.6210 C   0  0  0  0  0  3  0  0  0  0  0  0
  -24.9230  -27.6170   19.6240 C   0  0  0  0  0  3  0  0  0  0  0  0
  -23.6250  -29.7460   20.2370 C   0  0  0  0  0  2  0  0  0  0  0  0
  -24.6790  -31.0690   22.1340 N   0  0  0  0  0  0  0  0  0  0  0  0
  -23.5470  -32.1570   23.7670 O   0  0  0  0  0  0  0  0  0  0  0  0
  -22.7730  -29.4460   22.5810 C   0  0  0  0  0  0  0  0  0  0  0  0
  -21.4490  -29.2580   22.4560 N   0  0  0  0  0  0  0  0  0  0  0  0
  -23.4590  -28.8340   23.4050 O   0  0  0  0  0  0  0  0  0  0  0  0
  -20.9570  -29.8050   21.7630 H   0  0  0  0  0  0  0  0  0  0  0  0
  -18.0750  -28.0800   22.9750 C   0  0  0  0  0  0  0  0  0  0  0  0
  -20.6340  -28.3290   23.2370 C   0  0  0  0  0  3  0  0  0  0  0  0
  -20.7290  -26.8940   22.6730 C   0  0  0  0  0  2  0  0  0  0  0  0
  -19.6230  -26.5660   21.6650 C   0  0  0  0  0  2  0  0  0  0  0  0
  -18.2440  -26.7240   22.3120 C   0  0  0  0  0  2  0  0  0  0  0  0
  -19.1980  -28.8420   23.3940 C   0  0  0  0  0  0  0  0  0  0  0  0
  -18.9880  -30.1120   23.9710 C   0  0  0  0  0  3  0  0  0  0  0  0
  -17.6870  -30.6220   24.1350 C   0  0  0  0  0  3  0  0  0  0  0  0
  -16.5780  -29.8570   23.7320 C   0  0  0  0  0  3  0  0  0  0  0  0
  -16.7720  -28.5890   23.1560 C   0  0  0  0  0  3  0  0  0  0  0  0
  -25.9140  -32.5210   23.8370 C   0  0  0  0  0  3  0  0  0  0  0  0
  -25.6020  -33.9190   24.1620 N   0  0  0  0  0  0  0  0  0  0  0  0
  -25.9340  -34.9680   23.3990 C   0  0  0  0  0  0  0  0  0  0  0  0
  -26.6040  -34.8600   22.3690 O   0  0  0  0  0  0  0  0  0  0  0  0
  -25.0030  -34.0740   24.9600 H   0  0  0  0  0  0  0  0  0  0  0  0
  -24.2030  -36.7540   23.0270 C   0  0  0  0  0  1  0  0  0  0  0  0
  -25.4410  -36.3560   23.8480 C   0  0  0  0  0  3  0  0  0  0  0  0
  -27.5720  -37.2440   24.6850 C   0  0  0  0  0  1  0  0  0  0  0  0
  -26.4730  -37.4100   23.7370 N   0  0  0  0  0  0  0  0  0  0  0  0
  -26.0660  -38.3310   23.8810 H   0  0  0  0  0  0  0  0  0  0  0  0
  -26.4480  -31.7530   25.1080 C   0  0  1  0  0  0  0  0  0  0  0  0
  -25.3650  -31.5030   26.1830 C   0  0  0  0  0  1  0  0  0  0  0  0
  -27.0410  -30.3820   24.7060 C   0  0  0  0  0  1  0  0  0  0  0  0
  -27.5970  -32.5550   25.7620 C   0  0  0  0  0  1  0  0  0  0  0  0
  -33.6810  -22.6340   19.3410 C   0  0  0  0  0  2  0  0  0  0  0  0
  -32.3550  -22.0380   19.4760 N   0  0  0  0  0  0  0  0  0  0  0  0
  -32.0970  -21.6610   18.5670 H   0  0  0  0  0  0  0  0  0  0  0  0
  -32.3990  -20.9670   20.4680 C   0  0  0  0  0  2  0  0  0  0  0  0
  -31.2450  -19.9650   20.2720 C   0  0  0  0  0  2  0  0  0  0  0  0
  -31.3430  -18.8520   21.2410 N   0  0  0  0  0  4  0  0  0  0  0  0
  -32.3160  -18.6210   21.3480 H   0  0  0  0  0  0  0  0  0  0  0  0
  -31.0010  -19.1710   22.1320 H   0  0  0  0  0  0  0  0  0  0  0  0
  -30.6270  -17.6230   20.8410 C   0  0  0  0  0  2  0  0  0  0  0  0
  -30.8270  -16.4830   21.8660 C   0  0  0  0  0  2  0  0  0  0  0  0
  -30.6780  -14.4160   20.4950 C   0  0  0  0  0  0  0  0  0  0  0  0
  -30.2860  -12.3750   19.1720 C   0  0  0  0  0  2  0  0  0  0  0  0
  -29.3200  -12.6450   18.0020 C   0  0  0  0  0  2  0  0  0  0  0  0
  -27.8570  -12.4960   18.4610 C   0  0  0  0  0  2  0  0  0  0  0  0
  -27.5550  -13.2900   19.7590 C   0  0  0  0  0  3  0  0  0  0  0  0
  -28.6220  -12.9970   20.8370 C   0  0  0  0  0  2  0  0  0  0  0  0
  -29.9510  -13.2940   20.2680 N   0  0  0  0  0  0  0  0  0  0  0  0
  -31.7090  -14.6980   19.8780 O   0  0  0  0  0  0  0  0  0  0  0  0
  -30.2000  -15.2330   21.4420 N   0  0  0  0  0  0  0  0  0  0  0  0
  -29.3550  -14.9450   21.9130 H   0  0  0  0  0  0  0  0  0  0  0  0
  -25.1620  -13.8950   20.4940 C   0  0  0  0  0  0  0  0  0  0  0  0
  -24.1000  -13.1190   20.8740 C   0  0  0  0  0  0  0  0  0  0  0  0
  -24.5640  -11.7680   20.8380 C   0  0  0  0  0  0  0  0  0  0  0  0
  -26.2060  -13.0160   20.2500 N   0  0  0  0  0  0  0  0  0  0  0  0
  -25.8500  -11.7330   20.5130 N   0  0  0  0  0  0  0  0  0  0  0  0
  -23.8450  -10.5030   21.0330 C   0  0  0  0  0  0  0  0  0  0  0  0
  -24.2990   -9.5290   21.9500 C   0  0  0  0  0  3  0  0  0  0  0  0
  -23.5800   -8.3290   22.1340 C   0  0  0  0  0  3  0  0  0  0  0  0
  -22.3940   -8.0920   21.3990 C   0  0  0  0  0  0  0  0  0  0  0  0
  -21.9580   -9.0550   20.4730 C   0  0  0  0  0  3  0  0  0  0  0  0
  -22.6770  -10.2470   20.2860 C   0  0  0  0  0  3  0  0  0  0  0  0
  -21.6440   -6.9440   21.4950 O   0  0  0  0  0  0  0  0  0  0  0  0
  -21.6330   -6.1840   22.6350 C   0  0  0  0  0  0  0  0  0  0  0  0
  -21.2470   -6.7180   23.8850 C   0  0  0  0  0  3  0  0  0  0  0  0
  -21.1830   -5.8820   25.0180 C   0  0  0  0  0  3  0  0  0  0  0  0
  -21.4950   -4.5150   24.9050 C   0  0  0  0  0  0  0  0  0  0  0  0
  -21.8750   -3.9790   23.6610 C   0  0  0  0  0  3  0  0  0  0  0  0
  -21.9400   -4.8110   22.5290 C   0  0  0  0  0  0  0  0  0  0  0  0
  -22.2850   -4.2860   21.3290 F   0  0  0  0  0  0  0  0  0  0  0  0
  -21.4270   -3.7100   25.9910 F   0  0  0  0  0  0  0  0  0  0  0  0
  -22.7040  -13.5910   21.1650 C   0  0  0  0  0  0  0  0  0  0  0  0
  -21.9870  -12.8890   22.0360 N   0  0  0  0  0  0  0  0  0  0  0  0
  -22.2560  -14.6160   20.6520 O   0  0  0  0  0  0  0  0  0  0  0  0
  -22.3610  -12.0600   22.4720 H   0  0  0  0  0  0  0  0  0  0  0  0
  -21.0500  -13.1870   22.2700 H   0  0  0  0  0  0  0  0  0  0  0  0
  -25.3230  -15.2660   20.3170 N   0  0  0  0  0  0  0  0  0  0  0  0
  -24.5600  -15.9240   20.4360 H   0  0  0  0  0  0  0  0  0  0  0  0
  -26.1740  -15.7020   19.9840 H   0  0  0  0  0  0  0  0  0  0  0  0
  1  3  1  0
  1 51  1  0
  2  4  1  0
  3  2  2  0
  5  4  1  0
  5  7  1  0
  5  8  1  0
  6  5  1  0
  8  9  1  0
 10 12  1  0
 10  9  1  0
 11 22  2  0
 12 17  1  0
 13 21  1  0
 13 23  1  0
 14 20  1  0
 14 16  1  0
 15 21  1  0
 16 15  1  0
 17 16  2  0
 18 19  1  0
 18 12  2  0
 19 14  2  0
 20 13  1  0
 21 11  1  0
 23 25  2  0
 24 23  1  0
 26 24  1  0
 27 36  2  0
 27 32  1  0
 28 24  1  0
 28 32  1  0
 29 28  1  0
 30 31  1  0
 30 29  1  0
 31 27  1  0
 32 33  2  0
 33 34  1  0
 35 34  2  0
 36 35  1  0
 37 11  1  0
 37 38  1  0
 37 47  1  0
 38 41  1  0
 39 43  1  0
 39 38  1  0
 40 39  2  0
 43 42  1  0
 45 43  1  0
 45 46  1  0
 45 44  1  0
 47 50  1  1
 47 48  1  0
 49 47  1  0
 51 52  1  0
 52 54  1  0
 53 52  1  0
 55 54  1  0
 55 56  1  0
 56 57  1  0
 56 58  1  0
 59 56  1  0
 59 60  1  0
 61 69  1  0
 62 67  1  0
 63 64  1  0
 63 62  1  0
 65 64  1  0
 65 74  1  0
 65 66  1  0
 67 61  1  0
 67 66  1  0
 68 61  2  0
 69 60  1  0
 69 70  1  0
 71 72  2  0
 72 91  1  0
 73 72  1  0
 73 76  1  0
 74 71  1  0
 74 75  1  0
 75 73  2  0
 76 77  1  0
 77 78  2  0
 79 82  1  0
 79 78  1  0
 80 79  2  0
 81 80  1  0
 81 76  2  0
 82 83  1  0
 83 84  1  0
 84 85  2  0
 86 85  1  0
 86 90  1  0
 87 86  2  0
 88 83  2  0
 88 87  1  0
 89 88  1  0
 91 92  1  0
 92 95  1  0
 92 94  1  0
 93 91  2  0
 96 97  1  0
 96 71  1  0
 98 96  1  0
M  ISO  4   9 101  10 101  61 100  69 100
M  END
>  <TORSDO>  (8) 
F 28

>  <SCORE>  (8) 
-11.375

>  <name>  (8) 
7

>  <ligand_id>  (8) 
7

>  <original_smiles>  (8) 
[H]C(=NC([H])([H])C([H])([H])N([H])C([H])([H])C([H])([H])[N+]([H])([H])C([H])([H])C([H])([H])N([H])C(=O)N1C([H])([H])C([H])([H])C([H])([H])C([H])(n2nc(-c3c([H])c([H])c(Oc4c([H])c([H])c(F)c([H])c4F)c([H])c3[H])c(C(=O)N([H])[H])c2N([H])[H])C1([H])[H])C([H])([H])[N+]([H])([H])C([H])([H])C([H])([H])Oc1c([H])c([H])c2c(c1[H])C([H])([H])N(C(=O)C([H])(N([H])C(=O)C([H])(N([H])C([H])([H])[H])C([H])([H])[H])C(C([H])([H])[H])(C([H])([H])[H])C([H])([H])[H])C([H])(C(=O)N([H])C1([H])c3c([H])c([H])c([H])c([H])c3C([H])([H])C([H])([H])C1([H])[H])C2([H])[H]

>  <smiles>  (8) 
[H]C(=NC([H])([H])C([H])([H])N([H])C([H])([H])C([H])([H])[N+]([H])([H])C([H])([H])C([H])([H])N([H])C(=O)N1C([H])([H])C([H])([H])C([H])([H])C([H])(n2nc(-c3c([H])c([H])c(Oc4c([H])c([H])c(F)c([H])c4F)c([H])c3[H])c(C(=O)N([H])[H])c2N([H])[H])C1([H])[H])C([H])([H])[N+]([H])([H])C([H])([H])C([H])([H])Oc1c([H])c([H])c2c(c1[H])C([H])([H])N(C(=O)C([H])(N([H])C(=O)C([H])(N([H])C([H])([H])[H])C([H])([H])[H])C(C([H])([H])[H])(C([H])([H])[H])C([H])([H])[H])C([H])(C(=O)N([H])C1([H])c3c([H])c([H])c([H])c([H])c3C([H])([H])C([H])([H])C1([H])[H])C2([H])[H]

$$$$
8:0:0
     RDKit          3D

 95102  0  0  1  0  0  0  0  0999 V2000
  -26.1590  -21.6810   17.5250 C   0  0  0  0  0  2  0  0  0  0  0  0
  -27.5560  -21.8960   17.3460 O   0  0  0  0  0  0  0  0  0  0  0  0
  -27.8830  -23.1220   16.7140 C   0  0  0  0  0  2  0  0  0  0  0  0
  -29.3850  -23.3740   16.9620 C   0  0  0  0  0  2  0  0  0  0  0  0
  -29.7010  -24.8030   17.4420 C   0  0  0  0  0  2  0  0  0  0  0  0
  -29.1890  -25.1080   18.8650 C   0  0  0  0  0  2  0  0  0  0  0  0
  -29.0260  -26.6120   19.1240 C   0  0  0  0  0  2  0  0  0  0  0  0
  -28.4380  -26.8250   20.4070 O   0  0  0  0  0  0  0  0  0  0  0  0
  -24.5650  -31.9970   23.3780 C   0  0  0  0  0  0  0  0  0  0  0  0
  -27.2560  -27.5210   20.4040 C   0  0  0  0  0  0  0  0  0  0  0  0
  -23.3750  -30.5720   21.7410 C   0  0  0  0  0  3  0  0  0  0  0  0
  -24.8490  -28.9960   20.3730 C   0  0  0  0  0  0  0  0  0  0  0  0
  -25.8980  -30.9220   21.5680 C   0  0  0  0  0  2  0  0  0  0  0  0
  -25.9930  -29.5320   20.9780 C   0  0  0  0  0  0  0  0  0  0  0  0
  -27.1960  -28.7950   21.0040 C   0  0  0  0  0  3  0  0  0  0  0  0
  -26.0960  -26.9800   19.8060 C   0  0  0  0  0  3  0  0  0  0  0  0
  -24.8910  -27.7140   19.7900 C   0  0  0  0  0  3  0  0  0  0  0  0
  -23.6030  -29.8570   20.3810 C   0  0  0  0  0  2  0  0  0  0  0  0
  -24.6310  -31.1800   22.2900 N   0  0  0  0  0  0  0  0  0  0  0  0
  -23.4770  -32.2860   23.8950 O   0  0  0  0  0  0  0  0  0  0  0  0
  -22.7010  -29.5760   22.7090 C   0  0  0  0  0  0  0  0  0  0  0  0
  -21.3770  -29.4010   22.5610 N   0  0  0  0  0  0  0  0  0  0  0  0
  -23.3660  -28.9560   23.5430 O   0  0  0  0  0  0  0  0  0  0  0  0
  -20.8980  -29.9620   21.8700 H   0  0  0  0  0  0  0  0  0  0  0  0
  -17.9890  -28.2330   23.0070 C   0  0  0  0  0  0  0  0  0  0  0  0
  -20.5400  -28.4760   23.3290 C   0  0  0  0  0  3  0  0  0  0  0  0
  -20.6430  -27.0330   22.7800 C   0  0  0  0  0  2  0  0  0  0  0  0
  -19.5630  -26.7030   21.7450 C   0  0  0  0  0  2  0  0  0  0  0  0
  -18.1700  -26.8700   22.3590 C   0  0  0  0  0  2  0  0  0  0  0  0
  -19.1020  -28.9940   23.4490 C   0  0  0  0  0  0  0  0  0  0  0  0
  -18.8830  -30.2710   24.0090 C   0  0  0  0  0  3  0  0  0  0  0  0
  -17.5800  -30.7880   24.1290 C   0  0  0  0  0  3  0  0  0  0  0  0
  -16.4790  -30.0260   23.7030 C   0  0  0  0  0  3  0  0  0  0  0  0
  -16.6840  -28.7500   23.1500 C   0  0  0  0  0  3  0  0  0  0  0  0
  -25.8470  -32.6240   24.0120 C   0  0  0  0  0  3  0  0  0  0  0  0
  -26.3270  -31.8780   25.3170 C   0  0  1  0  0  0  0  0  0  0  0  0
  -25.2050  -31.6810   26.3650 C   0  0  0  0  0  1  0  0  0  0  0  0
  -26.8990  -30.4840   24.9660 C   0  0  0  0  0  1  0  0  0  0  0  0
  -27.4780  -32.6700   25.9870 C   0  0  0  0  0  1  0  0  0  0  0  0
  -25.5570  -34.0360   24.2920 N   0  0  0  0  0  0  0  0  0  0  0  0
  -25.9260  -35.0570   23.5070 C   0  0  0  0  0  0  0  0  0  0  0  0
  -26.6170  -34.9090   22.4960 O   0  0  0  0  0  0  0  0  0  0  0  0
  -24.9490  -34.2280   25.0750 H   0  0  0  0  0  0  0  0  0  0  0  0
  -24.2320  -36.8590   23.0530 C   0  0  0  0  0  1  0  0  0  0  0  0
  -25.4470  -36.4660   23.9070 C   0  0  0  0  0  3  0  0  0  0  0  0
  -27.5780  -37.3440   24.7530 C   0  0  0  0  0  1  0  0  0  0  0  0
  -26.4960  -37.5000   23.7830 N   0  0  0  0  0  0  0  0  0  0  0  0
  -26.1040  -38.4310   23.8930 H   0  0  0  0  0  0  0  0  0  0  0  0
  -26.0620  -20.3130   18.2040 C   0  0  0  0  0  2  0  0  0  0  0  0
  -27.0410  -20.2450   19.3140 N   0  0  0  0  0  4  0  0  0  0  0  0
  -27.8590  -20.7280   18.9660 H   0  0  0  0  0  0  0  0  0  0  0  0
  -26.7030  -20.7560   20.1160 H   0  0  0  0  0  0  0  0  0  0  0  0
  -27.4430  -18.8860   19.7190 C   0  0  0  0  0  2  0  0  0  0  0  0
  -28.8240  -18.8880   20.3950 C   0  0  0  0  0  2  0  0  0  0  0  0
  -29.2720  -17.4800   20.8100 C   0  0  0  0  0  2  0  0  0  0  0  0
  -30.7760  -17.3990   21.1240 C   0  0  0  0  0  2  0  0  0  0  0  0
  -31.1810  -16.1140   21.8740 C   0  0  0  0  0  2  0  0  0  0  0  0
  -30.9090  -14.1880   20.2910 C   0  0  0  0  0  0  0  0  0  0  0  0
  -30.4430  -12.1490   18.9730 C   0  0  0  0  0  2  0  0  0  0  0  0
  -29.4710  -12.4190   17.8100 C   0  0  0  0  0  2  0  0  0  0  0  0
  -28.0090  -12.3080   18.2830 C   0  0  0  0  0  2  0  0  0  0  0  0
  -27.7400  -13.1340   19.5690 C   0  0  0  0  0  3  0  0  0  0  0  0
  -28.8090  -12.8270   20.6400 C   0  0  0  0  0  2  0  0  0  0  0  0
  -30.1410  -13.0910   20.0610 N   0  0  0  0  0  0  0  0  0  0  0  0
  -31.9030  -14.4800   19.6220 O   0  0  0  0  0  0  0  0  0  0  0  0
  -30.5320  -14.9130   21.3530 N   0  0  0  0  0  0  0  0  0  0  0  0
  -29.7230  -14.5750   21.8540 H   0  0  0  0  0  0  0  0  0  0  0  0
  -25.3760  -13.8150   20.3340 C   0  0  0  0  0  0  0  0  0  0  0  0
  -24.2940  -13.0740   20.7310 C   0  0  0  0  0  0  0  0  0  0  0  0
  -24.7140  -11.7100   20.6870 C   0  0  0  0  0  0  0  0  0  0  0  0
  -26.3880  -12.9030   20.0790 N   0  0  0  0  0  0  0  0  0  0  0  0
  -25.9930  -11.6320   20.3440 N   0  0  0  0  0  0  0  0  0  0  0  0
  -23.9570  -10.4690   20.8990 C   0  0  0  0  0  0  0  0  0  0  0  0
  -24.3720   -9.5030   21.8410 C   0  0  0  0  0  3  0  0  0  0  0  0
  -23.6190   -8.3240   22.0370 C   0  0  0  0  0  3  0  0  0  0  0  0
  -22.4380   -8.1050   21.2900 C   0  0  0  0  0  0  0  0  0  0  0  0
  -22.0410   -9.0600   20.3370 C   0  0  0  0  0  3  0  0  0  0  0  0
  -22.7940  -10.2290   20.1400 C   0  0  0  0  0  3  0  0  0  0  0  0
  -21.6580   -6.9790   21.3950 O   0  0  0  0  0  0  0  0  0  0  0  0
  -21.5840   -6.2610   22.5610 C   0  0  0  0  0  0  0  0  0  0  0  0
  -21.1700   -6.8500   23.7750 C   0  0  0  0  0  3  0  0  0  0  0  0
  -21.0410   -6.0600   24.9330 C   0  0  0  0  0  3  0  0  0  0  0  0
  -21.3160   -4.6810   24.8800 C   0  0  0  0  0  0  0  0  0  0  0  0
  -21.7240   -4.0900   23.6720 C   0  0  0  0  0  3  0  0  0  0  0  0
  -21.8540   -4.8780   22.5150 C   0  0  0  0  0  0  0  0  0  0  0  0
  -22.2270   -4.3000   21.3470 F   0  0  0  0  0  0  0  0  0  0  0  0
  -21.1840   -3.9200   25.9920 F   0  0  0  0  0  0  0  0  0  0  0  0
  -22.9200  -13.5910   21.0440 C   0  0  0  0  0  0  0  0  0  0  0  0
  -22.1930  -12.9150   21.9280 N   0  0  0  0  0  0  0  0  0  0  0  0
  -22.4970  -14.6280   20.5340 O   0  0  0  0  0  0  0  0  0  0  0  0
  -22.5480  -12.0760   22.3620 H   0  0  0  0  0  0  0  0  0  0  0  0
  -21.2700  -13.2420   22.1750 H   0  0  0  0  0  0  0  0  0  0  0  0
  -25.5790  -15.1790   20.1530 N   0  0  0  0  0  0  0  0  0  0  0  0
  -24.8380  -15.8610   20.2820 H   0  0  0  0  0  0  0  0  0  0  0  0
  -26.4400  -15.5810   19.8080 H   0  0  0  0  0  0  0  0  0  0  0  0
  1 49  1  0
  2  1  1  0
  3  4  1  0
  3  2  1  0
  4  5  1  0
  5  6  1  0
  6  7  1  0
  7  8  1  0
  9 20  2  0
 10  8  1  0
 10 15  1  0
 11 19  1  0
 11 21  1  0
 12 18  1  0
 12 14  1  0
 13 19  1  0
 14 15  2  0
 14 13  1  0
 16 10  2  0
 17 16  1  0
 17 12  2  0
 18 11  1  0
 19  9  1  0
 21 23  2  0
 22 21  1  0
 24 22  1  0
 25 34  2  0
 25 30  1  0
 26 22  1  0
 26 30  1  0
 27 26  1  0
 28 29  1  0
 28 27  1  0
 29 25  1  0
 30 31  2  0
 31 32  1  0
 33 32  2  0
 34 33  1  0
 35  9  1  0
 35 40  1  0
 35 36  1  0
 36 39  1  1
 36 37  1  0
 38 36  1  0
 40 43  1  0
 41 45  1  0
 41 40  1  0
 42 41  2  0
 45 44  1  0
 47 48  1  0
 47 45  1  0
 47 46  1  0
 49 50  1  0
 50 53  1  0
 50 52  1  0
 51 50  1  0
 53 54  1  0
 54 55  1  0
 55 56  1  0
 56 57  1  0
 58 66  1  0
 59 64  1  0
 60 61  1  0
 60 59  1  0
 62 61  1  0
 62 71  1  0
 62 63  1  0
 64 58  1  0
 64 63  1  0
 65 58  2  0
 66 67  1  0
 66 57  1  0
 68 69  2  0
 69 88  1  0
 70 69  1  0
 70 73  1  0
 71 68  1  0
 71 72  1  0
 72 70  2  0
 73 74  1  0
 74 75  2  0
 76 79  1  0
 76 75  1  0
 77 76  2  0
 78 77  1  0
 78 73  2  0
 79 80  1  0
 80 81  1  0
 81 82  2  0
 83 82  1  0
 83 87  1  0
 84 83  2  0
 85 80  2  0
 85 84  1  0
 86 85  1  0
 88 89  1  0
 89 92  1  0
 89 91  1  0
 90 88  2  0
 93 94  1  0
 93 68  1  0
 95 93  1  0
M  ISO  4   7 101   8 101  58 100  66 100
M  END
>  <TORSDO>  (9) 
F 29

>  <SCORE>  (9) 
-10.413

>  <name>  (9) 
8

>  <ligand_id>  (9) 
8

>  <original_smiles>  (9) 
[H]c1c([H])c([H])c2c(c1[H])C([H])([H])C([H])([H])C([H])([H])C2([H])N([H])C(=O)C1([H])N(C(=O)C([H])(N([H])C(=O)C([H])(N([H])C([H])([H])[H])C([H])([H])[H])C(C([H])([H])[H])(C([H])([H])[H])C([H])([H])[H])C([H])([H])c2c([H])c(OC([H])([H])C([H])([H])C([H])([H])C([H])([H])C([H])([H])OC([H])([H])C([H])([H])[N+]([H])([H])C([H])([H])C([H])([H])C([H])([H])C([H])([H])C([H])([H])N([H])C(=O)N3C([H])([H])C([H])([H])C([H])([H])C([H])(n4nc(-c5c([H])c([H])c(Oc6c([H])c([H])c(F)c([H])c6F)c([H])c5[H])c(C(=O)N([H])[H])c4N([H])[H])C3([H])[H])c([H])c([H])c2C1([H])[H]

>  <smiles>  (9) 
[H]c1c([H])c([H])c2c(c1[H])C([H])([H])C([H])([H])C([H])([H])C2([H])N([H])C(=O)C1([H])N(C(=O)C([H])(N([H])C(=O)C([H])(N([H])C([H])([H])[H])C([H])([H])[H])C(C([H])([H])[H])(C([H])([H])[H])C([H])([H])[H])C([H])([H])c2c([H])c(OC([H])([H])C([H])([H])C([H])([H])C([H])([H])C([H])([H])OC([H])([H])C([H])([H])[N+]([H])([H])C([H])([H])C([H])([H])C([H])([H])C([H])([H])C([H])([H])N([H])C(=O)N3C([H])([H])C([H])([H])C([H])([H])C([H])(n4nc(-c5c([H])c([H])c(Oc6c([H])c([H])c(F)c([H])c6F)c([H])c5[H])c(C(=O)N([H])[H])c4N([H])[H])C3([H])[H])c([H])c([H])c2C1([H])[H]

$$$$
9:0:0
     RDKit          3D

 95102  0  0  1  0  0  0  0  0999 V2000
  -28.1990  -22.9180   22.8950 C   0  0  0  0  0  2  0  0  0  0  0  0
  -29.0680  -24.0940   22.8700 N   0  0  0  0  0  0  0  0  0  0  0  0
  -29.9820  -23.7980   23.2080 H   0  0  0  0  0  0  0  0  0  0  0  0
  -29.2190  -24.6030   21.5110 C   0  0  0  0  0  2  0  0  0  0  0  0
  -30.2480  -25.7500   21.4500 C   0  0  0  0  0  2  0  0  0  0  0  0
  -31.3470  -25.4480   20.5030 N   0  0  0  0  0  4  0  0  0  0  0  0
  -32.0950  -26.0920   20.6960 H   0  0  0  0  0  0  0  0  0  0  0  0
  -31.0290  -25.6290   19.5630 H   0  0  0  0  0  0  0  0  0  0  0  0
  -31.8970  -24.0770   20.5920 C   0  0  0  0  0  2  0  0  0  0  0  0
  -33.1080  -23.9060   19.6520 C   0  0  0  0  0  2  0  0  0  0  0  0
  -34.1730  -21.9530   18.4980 C   0  0  0  0  0  0  0  0  0  0  0  0
  -34.4790  -19.9680   17.0720 C   0  0  0  0  0  2  0  0  0  0  0  0
  -33.3390  -19.9200   16.0330 C   0  0  0  0  0  2  0  0  0  0  0  0
  -32.1060  -19.1970   16.6120 C   0  0  0  0  0  2  0  0  0  0  0  0
  -31.7090  -19.7280   18.0140 C   0  0  0  0  0  3  0  0  0  0  0  0
  -32.9430  -19.8000   18.9410 C   0  0  0  0  0  2  0  0  0  0  0  0
  -33.9620  -20.6310   18.2710 N   0  0  0  0  0  0  0  0  0  0  0  0
  -35.0190  -22.6340   17.9060 O   0  0  0  0  0  0  0  0  0  0  0  0
  -33.2850  -22.4930   19.3360 N   0  0  0  0  0  0  0  0  0  0  0  0
  -32.6120  -21.8440   19.7160 H   0  0  0  0  0  0  0  0  0  0  0  0
  -29.3850  -19.3450   19.0460 C   0  0  0  0  0  0  0  0  0  0  0  0
  -28.7320  -18.1990   19.4250 C   0  0  0  0  0  0  0  0  0  0  0  0
  -29.6440  -17.1290   19.1850 C   0  0  0  0  0  0  0  0  0  0  0  0
  -30.6320  -18.9370   18.5980 N   0  0  0  0  0  0  0  0  0  0  0  0
  -30.8030  -17.5980   18.7400 N   0  0  0  0  0  0  0  0  0  0  0  0
  -29.4720  -15.6750   19.3030 C   0  0  0  0  0  0  0  0  0  0  0  0
  -30.1750  -14.9270   20.2730 C   0  0  0  0  0  3  0  0  0  0  0  0
  -29.9750  -13.5340   20.3870 C   0  0  0  0  0  3  0  0  0  0  0  0
  -29.0700  -12.8730   19.5200 C   0  0  0  0  0  0  0  0  0  0  0  0
  -28.3880  -13.6200   18.5440 C   0  0  0  0  0  3  0  0  0  0  0  0
  -28.5900  -15.0060   18.4310 C   0  0  0  0  0  3  0  0  0  0  0  0
  -28.8380  -11.5200   19.5340 O   0  0  0  0  0  0  0  0  0  0  0  0
  -28.6450  -10.8380   20.7070 C   0  0  0  0  0  0  0  0  0  0  0  0
  -27.5840  -11.1520   21.5860 C   0  0  0  0  0  3  0  0  0  0  0  0
  -27.3800  -10.3780   22.7460 C   0  0  0  0  0  3  0  0  0  0  0  0
  -28.2260   -9.2870   23.0210 C   0  0  0  0  0  0  0  0  0  0  0  0
  -29.2790   -8.9730   22.1460 C   0  0  0  0  0  3  0  0  0  0  0  0
  -29.4870   -9.7450   20.9900 C   0  0  0  0  0  0  0  0  0  0  0  0
  -30.4880   -9.4250   20.1350 F   0  0  0  0  0  0  0  0  0  0  0  0
  -28.0280   -8.5360   24.1320 F   0  0  0  0  0  0  0  0  0  0  0  0
  -27.3140  -18.0900   19.9000 C   0  0  0  0  0  0  0  0  0  0  0  0
  -27.0260  -17.1110   20.7540 N   0  0  0  0  0  0  0  0  0  0  0  0
  -26.4600  -18.9040   19.5610 O   0  0  0  0  0  0  0  0  0  0  0  0
  -27.7340  -16.4530   21.0450 H   0  0  0  0  0  0  0  0  0  0  0  0
  -26.0870  -17.0200   21.1190 H   0  0  0  0  0  0  0  0  0  0  0  0
  -29.0150  -20.6850   19.0310 N   0  0  0  0  0  0  0  0  0  0  0  0
  -28.1140  -20.9930   19.3850 H   0  0  0  0  0  0  0  0  0  0  0  0
  -29.6190  -21.4480   18.7430 H   0  0  0  0  0  0  0  0  0  0  0  0
  -26.8470  -23.0810   22.1580 C   0  0  0  0  0  2  0  0  0  0  0  0
  -26.7220  -22.3740   20.7860 C   0  0  0  0  0  2  0  0  0  0  0  0
  -27.7900  -22.7100   19.9010 O   0  0  0  0  0  0  0  0  0  0  0  0
  -27.4960  -23.7430   18.9580 C   0  0  0  0  0  2  0  0  0  0  0  0
  -27.9370  -25.1270   19.4660 C   0  0  0  0  0  2  0  0  0  0  0  0
  -28.0330  -26.1910   18.3530 C   0  0  0  0  0  2  0  0  0  0  0  0
  -27.9960  -27.4940   18.9260 O   0  0  0  0  0  0  0  0  0  0  0  0
  -24.4460  -31.7300   23.3690 C   0  0  0  0  0  0  0  0  0  0  0  0
  -26.7750  -28.0690   19.2110 C   0  0  0  0  0  0  0  0  0  0  0  0
  -23.0700  -30.5860   21.6630 C   0  0  0  0  0  3  0  0  0  0  0  0
  -24.3590  -29.3930   19.8240 C   0  0  0  0  0  0  0  0  0  0  0  0
  -25.5370  -31.1010   21.2230 C   0  0  0  0  0  2  0  0  0  0  0  0
  -25.5670  -29.8730   20.3420 C   0  0  0  0  0  0  0  0  0  0  0  0
  -26.7760  -29.2180   20.0280 C   0  0  0  0  0  3  0  0  0  0  0  0
  -25.5400  -27.5810   18.7210 C   0  0  0  0  0  3  0  0  0  0  0  0
  -24.3360  -28.2450   19.0170 C   0  0  0  0  0  3  0  0  0  0  0  0
  -23.1100  -30.1600   20.1720 C   0  0  0  0  0  2  0  0  0  0  0  0
  -24.3730  -31.1500   22.1410 N   0  0  0  0  0  0  0  0  0  0  0  0
  -23.4350  -31.8540   24.0770 O   0  0  0  0  0  0  0  0  0  0  0  0
  -22.5730  -29.3850   22.5030 C   0  0  0  0  0  0  0  0  0  0  0  0
  -21.3000  -29.0010   22.3050 N   0  0  0  0  0  0  0  0  0  0  0  0
  -23.3320  -28.8030   23.2820 O   0  0  0  0  0  0  0  0  0  0  0  0
  -20.7480  -29.5200   21.6380 H   0  0  0  0  0  0  0  0  0  0  0  0
  -18.2480  -27.0550   22.3640 C   0  0  0  0  0  0  0  0  0  0  0  0
  -20.6330  -27.8690   22.9530 C   0  0  0  0  0  3  0  0  0  0  0  0
  -21.1280  -26.5270   22.3700 C   0  0  0  0  0  2  0  0  0  0  0  0
  -20.2530  -26.0060   21.2240 C   0  0  0  0  0  2  0  0  0  0  0  0
  -18.8090  -25.8090   21.6940 C   0  0  0  0  0  2  0  0  0  0  0  0
  -19.1070  -28.0280   22.9410 C   0  0  0  0  0  0  0  0  0  0  0  0
  -18.5420  -29.1820   23.5250 C   0  0  0  0  0  3  0  0  0  0  0  0
  -17.1490  -29.3760   23.5300 C   0  0  0  0  0  3  0  0  0  0  0  0
  -16.3020  -28.4040   22.9690 C   0  0  0  0  0  3  0  0  0  0  0  0
  -16.8520  -27.2430   22.3970 C   0  0  0  0  0  3  0  0  0  0  0  0
  -25.7850  -32.3000   23.9280 C   0  0  0  0  0  3  0  0  0  0  0  0
  -26.3690  -31.4600   25.1300 C   0  0  1  0  0  0  0  0  0  0  0  0
  -25.3430  -31.1930   26.2560 C   0  0  0  0  0  1  0  0  0  0  0  0
  -26.9020  -30.0920   24.6400 C   0  0  0  0  0  1  0  0  0  0  0  0
  -27.5750  -32.2050   25.7490 C   0  0  0  0  0  1  0  0  0  0  0  0
  -25.5400  -33.6910   24.3330 N   0  0  0  0  0  0  0  0  0  0  0  0
  -25.8930  -34.7650   23.6130 C   0  0  0  0  0  0  0  0  0  0  0  0
  -26.5310  -34.6840   22.5600 O   0  0  0  0  0  0  0  0  0  0  0  0
  -24.9740  -33.8270   25.1570 H   0  0  0  0  0  0  0  0  0  0  0  0
  -24.2390  -36.6420   23.3710 C   0  0  0  0  0  1  0  0  0  0  0  0
  -25.4690  -36.1460   24.1470 C   0  0  0  0  0  3  0  0  0  0  0  0
  -27.6460  -36.9020   24.9950 C   0  0  0  0  0  1  0  0  0  0  0  0
  -26.5460  -37.1570   24.0710 N   0  0  0  0  0  0  0  0  0  0  0  0
  -26.1810  -38.0870   24.2590 H   0  0  0  0  0  0  0  0  0  0  0  0
  2  1  1  0
  2  3  1  0
  4  2  1  0
  5  4  1  0
  6  9  1  0
  6  7  1  0
  6  5  1  0
  8  6  1  0
 10  9  1  0
 11 19  1  0
 12 17  1  0
 13 14  1  0
 13 12  1  0
 15 14  1  0
 15 24  1  0
 15 16  1  0
 17 11  1  0
 17 16  1  0
 18 11  2  0
 19 10  1  0
 19 20  1  0
 21 22  2  0
 22 41  1  0
 23 26  1  0
 23 22  1  0
 24 25  1  0
 24 21  1  0
 25 23  2  0
 26 27  1  0
 27 28  2  0
 29 32  1  0
 29 28  1  0
 30 29  2  0
 31 30  1  0
 31 26  2  0
 32 33  1  0
 33 38  2  0
 33 34  1  0
 34 35  2  0
 35 36  1  0
 36 40  1  0
 37 36  2  0
 38 37  1  0
 39 38  1  0
 41 42  1  0
 42 44  1  0
 42 45  1  0
 43 41  2  0
 46 21  1  0
 46 47  1  0
 48 46  1  0
 49  1  1  0
 50 49  1  0
 51 50  1  0
 52 53  1  0
 52 51  1  0
 54 55  1  0
 54 53  1  0
 55 57  1  0
 56 67  2  0
 57 62  1  0
 58 66  1  0
 58 68  1  0
 59 65  1  0
 59 61  1  0
 60 66  1  0
 61 60  1  0
 62 61  2  0
 63 64  1  0
 63 57  2  0
 64 59  2  0
 65 58  1  0
 66 56  1  0
 68 70  2  0
 69 68  1  0
 71 69  1  0
 72 81  2  0
 72 77  1  0
 73 69  1  0
 74 73  1  0
 75 76  1  0
 75 74  1  0
 76 72  1  0
 77 73  1  0
 77 78  2  0
 78 79  1  0
 80 79  2  0
 81 80  1  0
 82 56  1  0
 82 87  1  0
 82 83  1  0
 83 86  1  1
 83 84  1  0
 85 83  1  0
 87 90  1  0
 88 92  1  0
 88 87  1  0
 89 88  2  0
 92 91  1  0
 94 92  1  0
 94 95  1  0
 94 93  1  0
M  ISO  4  11 100  19 100  54 101  55 101
M  END
>  <TORSDO>  (10) 
F 28

>  <SCORE>  (10) 
-4.378

>  <name>  (10) 
9

>  <ligand_id>  (10) 
9

>  <original_smiles>  (10) 
[H]c1c([H])c([H])c2c(c1[H])C([H])([H])C([H])([H])C([H])([H])C2([H])N([H])C(=O)C1([H])N(C(=O)C([H])(N([H])C(=O)C([H])(N([H])C([H])([H])[H])C([H])([H])[H])C(C([H])([H])[H])(C([H])([H])[H])C([H])([H])[H])C([H])([H])c2c([H])c(OC([H])([H])C([H])([H])C([H])([H])OC([H])([H])C([H])([H])C([H])([H])N([H])C([H])([H])C([H])([H])[N+]([H])([H])C([H])([H])C([H])([H])N([H])C(=O)N3C([H])([H])C([H])([H])C([H])([H])C([H])(n4nc(-c5c([H])c([H])c(Oc6c([H])c([H])c(F)c([H])c6F)c([H])c5[H])c(C(=O)N([H])[H])c4N([H])[H])C3([H])[H])c([H])c([H])c2C1([H])[H]

>  <smiles>  (10) 
[H]c1c([H])c([H])c2c(c1[H])C([H])([H])C([H])([H])C([H])([H])C2([H])N([H])C(=O)C1([H])N(C(=O)C([H])(N([H])C(=O)C([H])(N([H])C([H])([H])[H])C([H])([H])[H])C(C([H])([H])[H])(C([H])([H])[H])C([H])([H])[H])C([H])([H])c2c([H])c(OC([H])([H])C([H])([H])C([H])([H])OC([H])([H])C([H])([H])C([H])([H])N([H])C([H])([H])C([H])([H])[N+]([H])([H])C([H])([H])C([H])([H])N([H])C(=O)N3C([H])([H])C([H])([H])C([H])([H])C([H])(n4nc(-c5c([H])c([H])c(Oc6c([H])c([H])c(F)c([H])c6F)c([H])c5[H])c(C(=O)N([H])[H])c4N([H])[H])C3([H])[H])c([H])c([H])c2C1([H])[H]

$$$$
10:0:0
     RDKit          3D

 95100  0  0  1  0  0  0  0  0999 V2000
  -23.3370  -24.3180   22.0940 C   0  0  0  0  0  3  0  0  0  0  0  0
  -21.9220  -23.5550   21.8460 C   0  0  0  0  0  3  0  0  0  0  0  0
  -20.5310  -24.2640   21.6680 N   0  0  0  0  0  4  0  0  0  0  0  0
  -19.8880  -23.5140   21.4500 H   0  0  0  0  0  0  0  0  0  0  0  0
  -20.2770  -24.5400   22.6070 H   0  0  0  0  0  0  0  0  0  0  0  0
  -20.0380  -25.4920   20.7510 C   0  0  0  0  0  3  0  0  0  0  0  0
  -22.0290  -27.4090   19.2690 C   0  0  0  0  0 15  0  0  0  0  0  0
  -24.0670  -27.3660   19.4760 O   0  0  0  0  0  1  0  0  0  0  0  0
  -24.5010  -31.4610   22.8040 C   0  0  0  0  0  0  0  0  0  0  0  0
  -25.5210  -27.6640   19.0400 C   0  0  0  0  0  3  0  0  0  0  0  0
  -23.4070  -30.6970   20.7890 C   0  0  0  0  0  3  0  0  0  0  0  0
  -24.8160  -29.9890   18.7470 C   0  0  0  0  0  3  0  0  0  0  0  0
  -25.9190  -30.9250   20.7970 C   0  0  0  0  0  2  0  0  0  0  0  0
  -25.8350  -29.8800   19.7000 C   0  0  0  0  0  3  0  0  0  0  0  0
  -26.3750  -28.5870   19.7730 C   0  0  0  0  0  2  0  0  0  0  0  0
  -25.6110  -27.9480   17.6980 C   0  0  0  0  0  2  0  0  0  0  0  0
  -24.8140  -29.0940   17.6320 C   0  0  0  0  0  2  0  0  0  0  0  0
  -23.5920  -30.7040   19.2220 C   0  0  0  0  0  2  0  0  0  0  0  0
  -24.6290  -31.0970   21.5000 N   0  0  0  0  0  0  0  0  0  0  0  0
  -23.3880  -31.5420   23.3510 O   0  0  0  0  0  0  0  0  0  0  0  0
  -22.9940  -29.3720   21.4550 C   0  0  0  0  0  0  0  0  0  0  0  0
  -21.7660  -29.2700   21.8400 N   0  0  0  0  0  0  0  0  0  0  0  0
  -23.7450  -28.4230   21.6540 O   0  0  0  0  0  0  0  0  0  0  0  0
  -21.1440  -30.0700   21.8020 H   0  0  0  0  0  0  0  0  0  0  0  0
  -18.3990  -28.6550   21.8180 C   0  0  0  0  0  0  0  0  0  0  0  0
  -21.1910  -27.9800   22.1030 C   0  0  0  0  0  2  0  0  0  0  0  0
  -21.4350  -26.3140   20.8360 C   0  0  0  0  0  1  0  0  0  0  0  0
  -19.4860  -26.4540   19.5550 C   0  0  0  0  0  2  0  0  0  0  0  0
  -18.3080  -27.8590   20.2450 C   0  0  0  0  0  2  0  0  0  0  0  0
  -19.7040  -28.7730   22.5400 C   0  0  0  0  0  0  0  0  0  0  0  0
  -19.6980  -29.4960   23.7920 C   0  0  0  0  0  3  0  0  0  0  0  0
  -18.5420  -29.9870   24.4480 C   0  0  0  0  0  3  0  0  0  0  0  0
  -17.2880  -29.6870   23.9010 C   0  0  0  0  0  3  0  0  0  0  0  0
  -17.2300  -29.0260   22.6320 C   0  0  0  0  0  3  0  0  0  0  0  0
  -25.7420  -31.8150   23.6470 C   0  0  0  0  0  3  0  0  0  0  0  0
  -25.4530  -33.1260   24.2330 N   0  0  0  0  0  0  0  0  0  0  0  0
  -25.9030  -34.2820   23.7360 C   0  0  0  0  0  0  0  0  0  0  0  0
  -26.6960  -34.3370   22.7920 O   0  0  0  0  0  0  0  0  0  0  0  0
  -24.7670  -33.1560   24.9720 H   0  0  0  0  0  0  0  0  0  0  0  0
  -24.3540  -36.2510   23.5060 C   0  0  0  0  0  1  0  0  0  0  0  0
  -25.4060  -35.5770   24.4010 C   0  0  0  0  0  3  0  0  0  0  0  0
  -27.4100  -36.0560   25.7340 C   0  0  0  0  0  1  0  0  0  0  0  0
  -26.4950  -36.5320   24.6990 N   0  0  0  0  0  0  0  0  0  0  0  0
  -26.1190  -37.4280   24.9960 H   0  0  0  0  0  0  0  0  0  0  0  0
  -26.0580  -30.7530   24.7670 C   0  0  1  0  0  0  0  0  0  0  0  0
  -24.8440  -30.3760   25.6480 C   0  0  0  0  0  1  0  0  0  0  0  0
  -26.6100  -29.4470   24.1520 C   0  0  0  0  0  1  0  0  0  0  0  0
  -27.1670  -31.3130   25.6830 C   0  0  0  0  0  1  0  0  0  0  0  0
  -24.6220  -23.5980   21.8520 O   0  0  0  0  0  0  0  0  0  0  0  0
  -25.6580  -24.1840   20.9580 C   0  0  0  0  0  2  0  0  0  0  0  0
  -27.2320  -24.1060   21.3480 C   0  0  0  0  0  3  0  0  0  0  0  0
  -28.3850  -24.0870   20.2030 C   0  0  0  0  0  3  0  0  0  0  0  0
  -29.8690  -24.2310   20.6040 N   0  0  0  0  0  4  0  0  0  0  0  0
  -29.9300  -24.0210   21.5850 H   0  0  0  0  0  0  0  0  0  0  0  0
  -30.1230  -25.2000   20.4980 H   0  0  0  0  0  0  0  0  0  0  0  0
  -30.9450  -23.3740   19.9110 C   0  0  0  0  0  2  0  0  0  0  0  0
  -32.4300  -23.2390   20.5720 C   0  0  0  0  0  2  0  0  0  0  0  0
  -34.3290  -21.2750   20.8340 C   0  0  0  0  0  0  0  0  0  0  0  0
  -35.2660  -18.9520   20.5660 C   0  0  0  0  0  2  0  0  0  0  0  0
  -34.8730  -18.4230   19.1630 C   0  0  0  0  0  2  0  0  0  0  0  0
  -33.4180  -17.8970   19.1170 C   0  0  0  0  0  2  0  0  0  0  0  0
  -32.4280  -18.8730   19.8000 C   0  0  0  0  0  3  0  0  0  0  0  0
  -32.9550  -19.2340   21.2020 C   0  0  0  0  0  2  0  0  0  0  0  0
  -34.2340  -19.9190   20.9930 N   0  0  0  0  0  0  0  0  0  0  0  0
  -35.4380  -21.8310   20.7790 O   0  0  0  0  0  0  0  0  0  0  0  0
  -33.0870  -21.8650   20.6110 N   0  0  0  0  0  0  0  0  0  0  0  0
  -32.3880  -21.1370   20.6240 H   0  0  0  0  0  0  0  0  0  0  0  0
  -29.8690  -19.0450   19.8870 C   0  0  0  0  0  0  0  0  0  0  0  0
  -28.8950  -18.0870   19.9160 C   0  0  0  0  0  0  0  0  0  0  0  0
  -29.5780  -16.8340   19.9030 C   0  0  0  0  0  0  0  0  0  0  0  0
  -31.0720  -18.3560   19.8690 N   0  0  0  0  0  0  0  0  0  0  0  0
  -30.8900  -17.0180   19.9380 N   0  0  0  0  0  0  0  0  0  0  0  0
  -29.0660  -15.4660   19.7920 C   0  0  0  0  0  0  0  0  0  0  0  0
  -29.2810  -14.5130   20.8100 C   0  0  0  0  0  3  0  0  0  0  0  0
  -28.7670  -13.2050   20.6840 C   0  0  0  0  0  3  0  0  0  0  0  0
  -28.0270  -12.8440   19.5330 C   0  0  0  0  0  0  0  0  0  0  0  0
  -27.8400  -13.7890   18.5110 C   0  0  0  0  0  3  0  0  0  0  0  0
  -28.3560  -15.0890   18.6350 C   0  0  0  0  0  3  0  0  0  0  0  0
  -27.5080  -11.5920   19.3140 O   0  0  0  0  0  0  0  0  0  0  0  0
  -27.0090  -10.8330   20.3410 C   0  0  0  0  0  0  0  0  0  0  0  0
  -25.9440  -11.2820   21.1510 C   0  0  0  0  0  3  0  0  0  0  0  0
  -25.4190  -10.4420   22.1530 C   0  0  0  0  0  3  0  0  0  0  0  0
  -25.9470   -9.1510   22.3370 C   0  0  0  0  0  0  0  0  0  0  0  0
  -27.0030   -8.6990   21.5270 C   0  0  0  0  0  3  0  0  0  0  0  0
  -27.5320   -9.5380   20.5310 C   0  0  0  0  0  0  0  0  0  0  0  0
  -28.5370   -9.0910   19.7400 F   0  0  0  0  0  0  0  0  0  0  0  0
  -25.4340   -8.3400   23.2930 F   0  0  0  0  0  0  0  0  0  0  0  0
  -27.4130  -18.3190   19.8440 C   0  0  0  0  0  0  0  0  0  0  0  0
  -26.6270  -17.4250   20.4310 N   0  0  0  0  0  0  0  0  0  0  0  0
  -26.9510  -19.3220   19.3030 O   0  0  0  0  0  0  0  0  0  0  0  0
  -27.0130  -16.6170   20.8940 H   0  0  0  0  0  0  0  0  0  0  0  0
  -25.6240  -17.5570   20.4290 H   0  0  0  0  0  0  0  0  0  0  0  0
  -29.8370  -20.4340   19.8370 N   0  0  0  0  0  0  0  0  0  0  0  0
  -28.9490  -20.8630   19.5990 H   0  0  0  0  0  0  0  0  0  0  0  0
  -30.6100  -20.8990   19.3790 H   0  0  0  0  0  0  0  0  0  0  0  0
  2  1  2  0
  3  2  1  0
  3  5  1  0
  4  3  1  0
  6 27  1  0
  6  3  1  0
  9 20  2  0
 10  8  1  0
 10 15  1  0
 11 21  1  0
 11 19  1  0
 12 17  1  0
 12 18  1  0
 12 14  1  0
 13 19  1  0
 14 15  1  0
 14 13  1  0
 16 10  1  0
 17 16  1  0
 18 11  1  0
 19  9  1  0
 21 23  2  0
 21 22  1  0
 22 26  1  0
 24 22  1  0
 25 30  2  0
 25 34  1  0
 26 30  1  0
 28 29  1  0
 28  6  1  0
 29 25  1  0
 30 31  1  0
 31 32  2  0
 33 32  1  0
 34 33  2  0
 35  9  1  0
 35 36  1  0
 35 45  1  0
 36 39  1  0
 37 36  1  0
 37 41  1  0
 38 37  2  0
 41 40  1  0
 41 43  1  0
 43 44  1  0
 43 42  1  0
 45 46  1  1
 45 48  1  0
 47 45  1  0
 49  1  1  0
 50 51  1  0
 50 49  1  0
 52 53  1  0
 52 51  2  0
 53 54  1  0
 55 53  1  0
 56 57  1  0
 56 53  1  0
 57 66  1  0
 58 64  1  0
 59 64  1  0
 60 59  1  0
 61 60  1  0
 62 61  1  0
 62 71  1  0
 62 63  1  0
 64 63  1  0
 65 58  2  0
 66 67  1  0
 66 58  1  0
 68 69  2  0
 70 69  1  0
 70 72  2  0
 71 68  1  0
 71 72  1  0
 73 70  1  0
 73 74  1  0
 75 74  2  0
 76 75  1  0
 77 78  1  0
 77 76  2  0
 78 73  2  0
 79 76  1  0
 79 80  1  0
 80 85  2  0
 80 81  1  0
 81 82  2  0
 82 83  1  0
 83 87  1  0
 84 83  2  0
 85 84  1  0
 86 85  1  0
 88 69  1  0
 88 89  1  0
 89 91  1  0
 90 88  2  0
 92 89  1  0
 93 68  1  0
 94 93  1  0
 95 93  1  0
M  ISO  4   7 101   8 101  58 100  66 100
M  END
>  <TORSDO>  (11) 
F 27

>  <SCORE>  (11) 
-4.700

>  <name>  (11) 
10

>  <ligand_id>  (11) 
10

>  <original_smiles>  (11) 
[H]c1c([H])c([H])c2c(c1[H])C([H])([H])C([H])([H])C([H])([H])C2([H])N([H])C(=O)C1([H])N(C(=O)C([H])(N([H])C(=O)C([H])(N([H])C([H])([H])[H])C([H])([H])[H])C(C([H])([H])[H])(C([H])([H])[H])C([H])([H])[H])C([H])([H])c2c([H])c(OC([H])([H])C([H])([H])[N+]([H])([H])C([H])([H])C([H])([H])OC([H])([H])C([H])([H])C([H])([H])[N+]([H])([H])C([H])([H])C([H])([H])N([H])C(=O)N3C([H])([H])C([H])([H])C([H])([H])C([H])(n4nc(-c5c([H])c([H])c(Oc6c([H])c([H])c(F)c([H])c6F)c([H])c5[H])c(C(=O)N([H])[H])c4N([H])[H])C3([H])[H])c([H])c([H])c2C1([H])[H]

>  <smiles>  (11) 
[H]c1c([H])c([H])c2c(c1[H])C([H])([H])C([H])([H])C([H])([H])C2([H])N([H])C(=O)C1([H])N(C(=O)C([H])(N([H])C(=O)C([H])(N([H])C([H])([H])[H])C([H])([H])[H])C(C([H])([H])[H])(C([H])([H])[H])C([H])([H])[H])C([H])([H])c2c([H])c(OC([H])([H])C([H])([H])[N+]([H])([H])C([H])([H])C([H])([H])OC([H])([H])C([H])([H])C([H])([H])[N+]([H])([H])C([H])([H])C([H])([H])N([H])C(=O)N3C([H])([H])C([H])([H])C([H])([H])C([H])(n4nc(-c5c([H])c([H])c(Oc6c([H])c([H])c(F)c([H])c6F)c([H])c5[H])c(C(=O)N([H])[H])c4N([H])[H])C3([H])[H])c([H])c([H])c2C1([H])[H]

$$$$
11:0:0
     RDKit          3D

107114  0  0  1  0  0  0  0  0999 V2000
  -25.3640  -16.6450   18.1680 C   0  0  0  0  0  2  0  0  0  0  0  0
  -26.8350  -17.0840   18.2820 C   0  0  0  0  0  2  0  0  0  0  0  0
  -26.9790  -18.2800   19.0330 O   0  0  0  0  0  0  0  0  0  0  0  0
  -28.3310  -18.7480   19.0530 C   0  0  0  0  0  2  0  0  0  0  0  0
  -28.5840  -19.5580   20.3380 C   0  0  0  0  0  2  0  0  0  0  0  0
  -29.6100  -20.6030   20.1150 N   0  0  0  0  0  4  0  0  0  0  0  0
  -29.1590  -21.4190   19.7220 H   0  0  0  0  0  0  0  0  0  0  0  0
  -30.2740  -20.2710   19.4310 H   0  0  0  0  0  0  0  0  0  0  0  0
  -30.3430  -21.0280   21.3270 C   0  0  0  0  0  2  0  0  0  0  0  0
  -31.1020  -22.3430   21.0940 C   0  0  0  0  0  2  0  0  0  0  0  0
  -30.1320  -23.3230   20.7380 O   0  0  0  0  0  0  0  0  0  0  0  0
  -30.5700  -24.6690   20.9170 C   0  0  0  0  0  2  0  0  0  0  0  0
  -29.3980  -25.5940   20.5610 C   0  0  0  0  0  2  0  0  0  0  0  0
  -29.4720  -26.8460   21.2480 O   0  0  0  0  0  0  0  0  0  0  0  0
  -25.5610  -31.4850   24.9840 C   0  0  0  0  0  0  0  0  0  0  0  0
  -28.3260  -27.6160   21.2840 C   0  0  0  0  0  0  0  0  0  0  0  0
  -24.4910  -30.5640   22.9540 C   0  0  0  0  0  3  0  0  0  0  0  0
  -26.0190  -29.2580   21.3930 C   0  0  0  0  0  0  0  0  0  0  0  0
  -27.0370  -30.7590   23.1110 C   0  0  0  0  0  2  0  0  0  0  0  0
  -27.1250  -29.5510   22.2000 C   0  0  0  0  0  0  0  0  0  0  0  0
  -28.2780  -28.7340   22.1500 C   0  0  0  0  0  3  0  0  0  0  0  0
  -27.1910  -27.3360   20.4830 C   0  0  0  0  0  3  0  0  0  0  0  0
  -26.0450  -28.1460   20.5360 C   0  0  0  0  0  3  0  0  0  0  0  0
  -24.8280  -30.1800   21.4890 C   0  0  0  0  0  2  0  0  0  0  0  0
  -25.7070  -30.9360   23.7430 N   0  0  0  0  0  0  0  0  0  0  0  0
  -24.4370  -31.7170   25.4500 O   0  0  0  0  0  0  0  0  0  0  0  0
  -23.6790  -29.4100   23.5890 C   0  0  0  0  0  0  0  0  0  0  0  0
  -22.4110  -29.2750   23.1700 N   0  0  0  0  0  0  0  0  0  0  0  0
  -24.1960  -28.6500   24.4110 O   0  0  0  0  0  0  0  0  0  0  0  0
  -22.0590  -29.9430   22.5010 H   0  0  0  0  0  0  0  0  0  0  0  0
  -19.0700  -27.9910   22.6750 C   0  0  0  0  0  0  0  0  0  0  0  0
  -21.4690  -28.2420   23.6030 C   0  0  0  0  0  3  0  0  0  0  0  0
  -21.7670  -26.8920   22.9110 C   0  0  0  0  0  2  0  0  0  0  0  0
  -20.9610  -26.6810   21.6240 C   0  0  0  0  0  2  0  0  0  0  0  0
  -19.4600  -26.7350   21.9170 C   0  0  0  0  0  2  0  0  0  0  0  0
  -20.0170  -28.7070   23.4540 C   0  0  0  0  0  0  0  0  0  0  0  0
  -19.6110  -29.8900   24.1110 C   0  0  0  0  0  3  0  0  0  0  0  0
  -18.2870  -30.3550   24.0030 C   0  0  0  0  0  3  0  0  0  0  0  0
  -17.3490  -29.6350   23.2430 C   0  0  0  0  0  3  0  0  0  0  0  0
  -17.7390  -28.4540   22.5850 C   0  0  0  0  0  3  0  0  0  0  0  0
  -26.7920  -31.8690   25.8600 C   0  0  0  0  0  3  0  0  0  0  0  0
  -26.9920  -30.9160   27.1030 C   0  0  1  0  0  0  0  0  0  0  0  0
  -25.7150  -30.7200   27.9510 C   0  0  0  0  0  1  0  0  0  0  0  0
  -27.4700  -29.5190   26.6420 C   0  0  0  0  0  1  0  0  0  0  0  0
  -28.0920  -31.4860   28.0280 C   0  0  0  0  0  1  0  0  0  0  0  0
  -26.6080  -33.2610   26.2950 N   0  0  0  0  0  0  0  0  0  0  0  0
  -27.2270  -34.3140   25.7480 C   0  0  0  0  0  0  0  0  0  0  0  0
  -28.0780  -34.2070   24.8610 O   0  0  0  0  0  0  0  0  0  0  0  0
  -25.8870  -33.4280   26.9800 H   0  0  0  0  0  0  0  0  0  0  0  0
  -25.8780  -36.3840   25.2740 C   0  0  0  0  0  1  0  0  0  0  0  0
  -26.8380  -35.7130   26.2670 C   0  0  0  0  0  3  0  0  0  0  0  0
  -28.8350  -36.1590   27.6250 C   0  0  0  0  0  1  0  0  0  0  0  0
  -28.0000  -36.5950   26.5080 N   0  0  0  0  0  0  0  0  0  0  0  0
  -27.6970  -37.5470   26.6900 H   0  0  0  0  0  0  0  0  0  0  0  0
  -25.2130  -15.1660   17.7380 C   0  0  0  0  0  2  0  0  0  0  0  0
  -26.0190  -14.1830   18.6120 C   0  0  0  0  0  2  0  0  0  0  0  0
  -26.4360  -12.8640   17.9360 C   0  0  0  0  0  2  0  0  0  0  0  0
  -26.6360  -11.8060   18.9570 N   0  0  0  0  0  4  0  0  0  0  0  0
  -25.7470  -11.3710   19.1330 H   0  0  0  0  0  0  0  0  0  0  0  0
  -26.9200  -12.2680   19.8060 H   0  0  0  0  0  0  0  0  0  0  0  0
  -27.6270  -10.7380   18.6720 C   0  0  0  0  0  2  0  0  0  0  0  0
  -27.6070   -9.6800   19.8050 C   0  0  0  0  0  2  0  0  0  0  0  0
  -28.8000   -8.6960   19.8020 C   0  0  0  0  0  2  0  0  0  0  0  0
  -29.1250   -8.0650   21.1970 C   0  0  0  0  0  2  0  0  0  0  0  0
  -30.4600   -7.5270   21.2590 O   0  0  0  0  0  0  0  0  0  0  0  0
  -31.1840   -7.6870   22.5030 C   0  0  0  0  0  2  0  0  0  0  0  0
  -32.2700   -8.7820   22.3420 C   0  0  0  0  0  2  0  0  0  0  0  0
  -33.0950   -9.3350   23.5510 C   0  0  0  0  0  2  0  0  0  0  0  0
  -33.3010  -10.8940   23.6960 C   0  0  0  0  0  2  0  0  0  0  0  0
  -33.7700  -12.4290   21.6680 C   0  0  0  0  0  0  0  0  0  0  0  0
  -32.8900  -11.0130   20.0240 C   0  0  0  0  0  2  0  0  0  0  0  0
  -31.8140  -11.0460   18.9740 C   0  0  0  0  0  2  0  0  0  0  0  0
  -30.4240  -11.1380   19.5840 C   0  0  0  0  0  2  0  0  0  0  0  0
  -30.2720  -12.3450   20.5320 C   0  0  0  0  0  3  0  0  0  0  0  0
  -31.3100  -12.2670   21.6470 C   0  0  0  0  0  2  0  0  0  0  0  0
  -32.6570  -11.9440   21.1350 N   0  0  0  0  0  0  0  0  0  0  0  0
  -34.6380  -13.0180   21.0090 O   0  0  0  0  0  0  0  0  0  0  0  0
  -34.1340  -11.6030   22.6820 N   0  0  0  0  0  0  0  0  0  0  0  0
  -35.1320  -11.5910   22.8620 H   0  0  0  0  0  0  0  0  0  0  0  0
  -28.2300  -13.5430   21.5280 C   0  0  0  0  0  0  0  0  0  0  0  0
  -26.9600  -13.1180   21.7950 C   0  0  0  0  0  0  0  0  0  0  0  0
  -26.9500  -11.7100   21.5460 C   0  0  0  0  0  0  0  0  0  0  0  0
  -28.9210  -12.4330   21.0810 N   0  0  0  0  0  0  0  0  0  0  0  0
  -28.1600  -11.3120   21.1690 N   0  0  0  0  0  0  0  0  0  0  0  0
  -25.8430  -10.7500   21.5660 C   0  0  0  0  0  0  0  0  0  0  0  0
  -25.8980   -9.5670   22.3280 C   0  0  0  0  0  3  0  0  0  0  0  0
  -24.8090   -8.6670   22.3390 C   0  0  0  0  0  3  0  0  0  0  0  0
  -23.6460   -8.9490   21.5870 C   0  0  0  0  0  0  0  0  0  0  0  0
  -23.6030  -10.1210   20.8110 C   0  0  0  0  0  3  0  0  0  0  0  0
  -24.6940  -11.0120   20.7990 C   0  0  0  0  0  3  0  0  0  0  0  0
  -22.5540   -8.1090   21.5190 O   0  0  0  0  0  0  0  0  0  0  0  0
  -22.1030   -7.4250   22.6150 C   0  0  0  0  0  0  0  0  0  0  0  0
  -21.7300   -8.0840   23.8100 C   0  0  0  0  0  3  0  0  0  0  0  0
  -21.2080   -7.3520   24.8890 C   0  0  0  0  0  3  0  0  0  0  0  0
  -21.0400   -5.9580   24.7770 C   0  0  0  0  0  0  0  0  0  0  0  0
  -21.4040   -5.2960   23.5900 C   0  0  0  0  0  3  0  0  0  0  0  0
  -21.9260   -6.0290   22.5110 C   0  0  0  0  0  0  0  0  0  0  0  0
  -22.2610   -5.3880   21.3640 F   0  0  0  0  0  0  0  0  0  0  0  0
  -20.5300   -5.2550   25.8180 F   0  0  0  0  0  0  0  0  0  0  0  0
  -25.7870  -13.9810   22.1660 C   0  0  0  0  0  0  0  0  0  0  0  0
  -24.8460  -13.4650   22.9420 N   0  0  0  0  0  0  0  0  0  0  0  0
  -25.7190  -15.1560   21.8030 O   0  0  0  0  0  0  0  0  0  0  0  0
  -24.8760  -12.5000   23.2440 H   0  0  0  0  0  0  0  0  0  0  0  0
  -24.0520  -14.0470   23.1760 H   0  0  0  0  0  0  0  0  0  0  0  0
  -28.8450  -14.7910   21.5710 N   0  0  0  0  0  0  0  0  0  0  0  0
  -28.3440  -15.6410   21.7950 H   0  0  0  0  0  0  0  0  0  0  0  0
  -29.8400  -14.9420   21.4780 H   0  0  0  0  0  0  0  0  0  0  0  0
  1  2  1  0
  2  3  1  0
  3  4  1  0
  4  5  1  0
  6  5  1  0
  6  9  1  0
  7  6  1  0
  8  6  1  0
 10  9  1  0
 11 12  1  0
 11 10  1  0
 13 12  1  0
 13 14  1  0
 14 16  1  0
 15 26  2  0
 16 21  1  0
 17 27  1  0
 17 25  1  0
 18 24  1  0
 18 20  1  0
 19 25  1  0
 20 19  1  0
 21 20  2  0
 22 23  1  0
 22 16  2  0
 23 18  2  0
 24 17  1  0
 25 15  1  0
 27 29  2  0
 28 27  1  0
 30 28  1  0
 31 36  1  0
 32 28  1  0
 33 32  1  0
 34 35  1  0
 34 33  1  0
 35 31  1  0
 36 32  1  0
 36 37  2  0
 38 37  1  0
 39 38  2  0
 40 31  2  0
 40 39  1  0
 41 15  1  0
 41 46  1  0
 41 42  1  0
 42 43  1  1
 42 45  1  0
 44 42  1  0
 46 49  1  0
 47 51  1  0
 47 46  1  0
 48 47  2  0
 51 50  1  0
 51 53  1  0
 53 54  1  0
 53 52  1  0
 55  1  1  0
 55 56  1  0
 57 56  1  0
 57 58  1  0
 58 59  1  0
 58 60  1  0
 61 58  1  0
 61 62  1  0
 63 62  1  0
 63 64  1  0
 64 65  1  0
 65 66  1  0
 67 66  1  0
 67 68  1  0
 68 69  1  0
 70 78  1  0
 71 76  1  0
 72 73  1  0
 72 71  1  0
 74 73  1  0
 74 83  1  0
 74 75  1  0
 76 75  1  0
 76 70  1  0
 77 70  2  0
 78 79  1  0
 78 69  1  0
 80105  1  0
 80 81  2  0
 81100  1  0
 82 85  1  0
 82 81  1  0
 83 84  1  0
 83 80  1  0
 84 82  2  0
 85 86  1  0
 86 87  2  0
 88 87  1  0
 89 88  2  0
 90 89  1  0
 90 85  2  0
 91 88  1  0
 91 92  1  0
 92 93  1  0
 93 94  2  0
 95 94  1  0
 95 99  1  0
 96 95  2  0
 97 92  2  0
 97 96  1  0
 98 97  1  0
100101  1  0
101104  1  0
101103  1  0
102100  2  0
105106  1  0
107105  1  0
M  ISO  4  13 101  14 101  70 100  78 100
M  END
>  <TORSDO>  (12) 
F 39

>  <SCORE>  (12) 
5.603

>  <name>  (12) 
11

>  <ligand_id>  (12) 
11

>  <original_smiles>  (12) 
[H]c1c([H])c([H])c2c(c1[H])C([H])([H])C([H])([H])C([H])([H])C2([H])N([H])C(=O)C1([H])N(C(=O)C([H])(N([H])C(=O)C([H])(N([H])C([H])([H])[H])C([H])([H])[H])C(C([H])([H])[H])(C([H])([H])[H])C([H])([H])[H])C([H])([H])c2c([H])c(OC([H])([H])C([H])([H])OC([H])([H])C([H])([H])[N+]([H])([H])C([H])([H])C([H])([H])OC([H])([H])C([H])([H])C([H])([H])C([H])([H])C([H])([H])[N+]([H])([H])C([H])([H])C([H])([H])C([H])([H])C([H])([H])OC([H])([H])C([H])([H])C([H])([H])C([H])([H])N([H])C(=O)N3C([H])([H])C([H])([H])C([H])([H])C([H])(n4nc(-c5c([H])c([H])c(Oc6c([H])c([H])c(F)c([H])c6F)c([H])c5[H])c(C(=O)N([H])[H])c4N([H])[H])C3([H])[H])c([H])c([H])c2C1([H])[H]

>  <smiles>  (12) 
[H]c1c([H])c([H])c2c(c1[H])C([H])([H])C([H])([H])C([H])([H])C2([H])N([H])C(=O)C1([H])N(C(=O)C([H])(N([H])C(=O)C([H])(N([H])C([H])([H])[H])C([H])([H])[H])C(C([H])([H])[H])(C([H])([H])[H])C([H])([H])[H])C([H])([H])c2c([H])c(OC([H])([H])C([H])([H])OC([H])([H])C([H])([H])[N+]([H])([H])C([H])([H])C([H])([H])OC([H])([H])C([H])([H])C([H])([H])C([H])([H])C([H])([H])[N+]([H])([H])C([H])([H])C([H])([H])C([H])([H])C([H])([H])OC([H])([H])C([H])([H])C([H])([H])C([H])([H])N([H])C(=O)N3C([H])([H])C([H])([H])C([H])([H])C([H])(n4nc(-c5c([H])c([H])c(Oc6c([H])c([H])c(F)c([H])c6F)c([H])c5[H])c(C(=O)N([H])[H])c4N([H])[H])C3([H])[H])c([H])c([H])c2C1([H])[H]

$$$$
12:0:0
     RDKit          3D

101108  0  0  1  0  0  0  0  0999 V2000
  -29.4450  -21.3160   20.4000 N   0  0  0  0  0  4  0  0  0  0  0  0
  -29.1480  -21.6840   21.2870 H   0  0  0  0  0  0  0  0  0  0  0  0
  -29.2990  -22.0510   19.7180 H   0  0  0  0  0  0  0  0  0  0  0  0
  -30.8690  -20.9310   20.4160 C   0  0  0  0  0  2  0  0  0  0  0  0
  -31.2020  -19.9120   21.5370 C   0  0  0  0  0  2  0  0  0  0  0  0
  -32.0490  -18.7490   21.1940 N   0  0  0  0  0  0  0  0  0  0  0  0
  -34.1860  -20.0410   21.1800 C   0  0  0  0  0  1  0  0  0  0  0  0
  -33.2530  -19.0940   20.3960 C   0  0  0  0  0  3  0  0  0  0  0  0
  -34.0950  -17.8910   19.8910 C   0  0  0  0  0  2  0  0  0  0  0  0
  -35.0830  -18.3210   18.9700 O   0  0  0  0  0  0  0  0  0  0  0  0
  -34.6320  -18.7330   18.2410 H   0  0  0  0  0  0  0  0  0  0  0  0
  -31.2660  -17.5980   20.7120 C   0  0  0  0  0  2  0  0  0  0  0  0
  -31.5010  -16.3270   21.5610 C   0  0  0  0  0  2  0  0  0  0  0  0
  -31.1140  -14.3400   20.0930 C   0  0  0  0  0  0  0  0  0  0  0  0
  -30.6410  -12.1890   18.9710 C   0  0  0  0  0  2  0  0  0  0  0  0
  -29.6890  -12.3700   17.7760 C   0  0  0  0  0  2  0  0  0  0  0  0
  -28.2200  -12.3120   18.2360 C   0  0  0  0  0  2  0  0  0  0  0  0
  -27.9410  -13.2230   19.4580 C   0  0  0  0  0  3  0  0  0  0  0  0
  -29.0060  -13.0310   20.5600 C   0  0  0  0  0  2  0  0  0  0  0  0
  -30.3410  -13.2320   19.9620 N   0  0  0  0  0  0  0  0  0  0  0  0
  -32.1140  -14.5570   19.4010 O   0  0  0  0  0  0  0  0  0  0  0  0
  -30.7530  -15.1690   21.0800 N   0  0  0  0  0  0  0  0  0  0  0  0
  -29.9240  -14.9140   21.5940 H   0  0  0  0  0  0  0  0  0  0  0  0
  -25.6010  -13.9570   20.2420 C   0  0  0  0  0  0  0  0  0  0  0  0
  -24.5070  -13.2420   20.6520 C   0  0  0  0  0  0  0  0  0  0  0  0
  -24.8970  -11.8690   20.6120 C   0  0  0  0  0  0  0  0  0  0  0  0
  -26.5890  -13.0220   19.9760 N   0  0  0  0  0  0  0  0  0  0  0  0
  -26.1700  -11.7590   20.2530 N   0  0  0  0  0  0  0  0  0  0  0  0
  -24.1100  -10.6490   20.8350 C   0  0  0  0  0  0  0  0  0  0  0  0
  -24.5090   -9.6710   21.7730 C   0  0  0  0  0  3  0  0  0  0  0  0
  -23.7240   -8.5170   21.9790 C   0  0  0  0  0  3  0  0  0  0  0  0
  -22.5250   -8.3320   21.2490 C   0  0  0  0  0  0  0  0  0  0  0  0
  -22.1450   -9.2970   20.2990 C   0  0  0  0  0  3  0  0  0  0  0  0
  -22.9310  -10.4430   20.0900 C   0  0  0  0  0  3  0  0  0  0  0  0
  -21.7150   -7.2280   21.3650 O   0  0  0  0  0  0  0  0  0  0  0  0
  -21.6330   -6.5150   22.5360 C   0  0  0  0  0  0  0  0  0  0  0  0
  -21.2580   -7.1240   23.7540 C   0  0  0  0  0  3  0  0  0  0  0  0
  -21.1190   -6.3410   24.9180 C   0  0  0  0  0  3  0  0  0  0  0  0
  -21.3460   -4.9530   24.8650 C   0  0  0  0  0  0  0  0  0  0  0  0
  -21.7150   -4.3450   23.6530 C   0  0  0  0  0  3  0  0  0  0  0  0
  -21.8570   -5.1240   22.4910 C   0  0  0  0  0  0  0  0  0  0  0  0
  -22.1950   -4.5310   21.3210 F   0  0  0  0  0  0  0  0  0  0  0  0
  -21.2050   -4.2010   25.9810 F   0  0  0  0  0  0  0  0  0  0  0  0
  -23.1500  -13.7970   20.9700 C   0  0  0  0  0  0  0  0  0  0  0  0
  -22.4220  -13.1490   21.8740 N   0  0  0  0  0  0  0  0  0  0  0  0
  -22.7450  -14.8370   20.4530 O   0  0  0  0  0  0  0  0  0  0  0  0
  -22.7630  -12.3060   22.3100 H   0  0  0  0  0  0  0  0  0  0  0  0
  -21.5110  -13.5010   22.1310 H   0  0  0  0  0  0  0  0  0  0  0  0
  -25.8230  -15.3190   20.0560 N   0  0  0  0  0  0  0  0  0  0  0  0
  -25.0880  -16.0000   20.2070 H   0  0  0  0  0  0  0  0  0  0  0  0
  -26.6700  -15.7270   19.6790 H   0  0  0  0  0  0  0  0  0  0  0  0
  -28.4920  -20.2960   19.9430 C   0  0  0  0  0  2  0  0  0  0  0  0
  -27.2720  -21.0290   19.3810 C   0  0  0  0  0  2  0  0  0  0  0  0
  -27.7090  -22.0770   18.4420 N   0  0  0  0  0  0  0  0  0  0  0  0
  -28.1320  -21.6380   17.6210 H   0  0  0  0  0  0  0  0  0  0  0  0
  -26.6110  -22.9170   17.9600 C   0  0  0  0  0  2  0  0  0  0  0  0
  -27.1150  -23.9830   16.9670 C   0  0  0  0  0  2  0  0  0  0  0  0
  -27.4540  -25.2030   17.6140 O   0  0  0  0  0  0  0  0  0  0  0  0
  -28.6410  -25.1590   18.4010 C   0  0  0  0  0  2  0  0  0  0  0  0
  -28.3260  -25.4400   19.8780 C   0  0  0  0  0  2  0  0  0  0  0  0
  -28.2690  -26.8410   20.1210 O   0  0  0  0  0  0  0  0  0  0  0  0
  -24.4900  -31.9320   23.2280 C   0  0  0  0  0  0  0  0  0  0  0  0
  -27.0650  -27.5040   20.1070 C   0  0  0  0  0  0  0  0  0  0  0  0
  -23.2490  -30.5490   21.5940 C   0  0  0  0  0  3  0  0  0  0  0  0
  -24.6690  -29.0010   20.1510 C   0  0  0  0  0  0  0  0  0  0  0  0
  -25.7650  -30.9020   21.3510 C   0  0  0  0  0  2  0  0  0  0  0  0
  -25.8350  -29.5270   20.7200 C   0  0  0  0  0  0  0  0  0  0  0  0
  -27.0330  -28.7850   20.6960 C   0  0  0  0  0  3  0  0  0  0  0  0
  -25.8780  -26.9800   19.5400 C   0  0  0  0  0  3  0  0  0  0  0  0
  -24.6860  -27.7270   19.5580 C   0  0  0  0  0  3  0  0  0  0  0  0
  -23.4310  -29.8630   20.2130 C   0  0  0  0  0  2  0  0  0  0  0  0
  -24.5220  -31.1400   22.1190 N   0  0  0  0  0  0  0  0  0  0  0  0
  -23.4200  -32.2140   23.7840 O   0  0  0  0  0  0  0  0  0  0  0  0
  -22.6000  -29.5320   22.5600 C   0  0  0  0  0  0  0  0  0  0  0  0
  -21.2820  -29.3240   22.4100 N   0  0  0  0  0  0  0  0  0  0  0  0
  -23.2800  -28.9340   23.3970 O   0  0  0  0  0  0  0  0  0  0  0  0
  -20.7970  -29.8630   21.7080 H   0  0  0  0  0  0  0  0  0  0  0  0
  -17.9360  -28.0270   22.8050 C   0  0  0  0  0  0  0  0  0  0  0  0
  -20.4670  -28.3840   23.1780 C   0  0  0  0  0  3  0  0  0  0  0  0
  -20.6440  -26.9400   22.6560 C   0  0  0  0  0  2  0  0  0  0  0  0
  -19.5990  -26.5460   21.6050 C   0  0  0  0  0  2  0  0  0  0  0  0
  -18.1870  -26.6620   22.1860 C   0  0  0  0  0  2  0  0  0  0  0  0
  -19.0080  -28.8420   23.2570 C   0  0  0  0  0  0  0  0  0  0  0  0
  -18.7210  -30.1160   23.7930 C   0  0  0  0  0  3  0  0  0  0  0  0
  -17.3960  -30.5780   23.8830 C   0  0  0  0  0  3  0  0  0  0  0  0
  -16.3370  -29.7640   23.4460 C   0  0  0  0  0  3  0  0  0  0  0  0
  -16.6070  -28.4900   22.9130 C   0  0  0  0  0  3  0  0  0  0  0  0
  -25.7920  -32.5450   23.8360 C   0  0  0  0  0  3  0  0  0  0  0  0
  -25.5030  -33.9440   24.1760 N   0  0  0  0  0  0  0  0  0  0  0  0
  -25.8420  -34.9940   23.4140 C   0  0  0  0  0  0  0  0  0  0  0  0
  -26.4990  -34.8860   22.3760 O   0  0  0  0  0  0  0  0  0  0  0  0
  -24.9120  -34.1020   24.9800 H   0  0  0  0  0  0  0  0  0  0  0  0
  -24.1210  -36.8000   23.0960 C   0  0  0  0  0  1  0  0  0  0  0  0
  -25.3770  -36.3870   23.8800 C   0  0  0  0  0  3  0  0  0  0  0  0
  -27.5410  -37.2480   24.6570 C   0  0  0  0  0  1  0  0  0  0  0  0
  -26.4160  -37.4310   23.7430 N   0  0  0  0  0  0  0  0  0  0  0  0
  -26.0230  -38.3530   23.9040 H   0  0  0  0  0  0  0  0  0  0  0  0
  -26.3200  -31.7590   25.0990 C   0  0  1  0  0  0  0  0  0  0  0  0
  -25.2370  -31.5170   26.1760 C   0  0  0  0  0  1  0  0  0  0  0  0
  -26.8870  -30.3800   24.6810 C   0  0  0  0  0  1  0  0  0  0  0  0
  -27.4870  -32.5350   25.7520 C   0  0  0  0  0  1  0  0  0  0  0  0
  1  4  1  0
  1  2  1  0
  3  1  1  0
  4  5  1  0
  6  5  1  0
  8  7  1  0
  8  6  1  0
  9  8  1  0
 10  9  1  0
 11 10  1  0
 12  6  1  0
 12 13  1  0
 14 22  1  0
 15 20  1  0
 16 17  1  0
 16 15  1  0
 18 17  1  0
 18 27  1  0
 18 19  1  0
 20 14  1  0
 20 19  1  0
 21 14  2  0
 22 13  1  0
 22 23  1  0
 24 25  2  0
 25 44  1  0
 26 25  1  0
 26 29  1  0
 27 24  1  0
 27 28  1  0
 28 26  2  0
 29 30  1  0
 30 31  2  0
 32 35  1  0
 32 31  1  0
 33 32  2  0
 34 33  1  0
 34 29  2  0
 35 36  1  0
 36 37  1  0
 37 38  2  0
 39 38  1  0
 39 43  1  0
 40 39  2  0
 41 36  2  0
 41 40  1  0
 42 41  1  0
 44 45  1  0
 45 48  1  0
 45 47  1  0
 46 44  2  0
 49 50  1  0
 49 24  1  0
 51 49  1  0
 52  1  1  0
 53 52  1  0
 54 53  1  0
 55 54  1  0
 56 54  1  0
 57 58  1  0
 57 56  1  0
 58 59  1  0
 59 60  1  0
 60 61  1  0
 62 73  2  0
 63 61  1  0
 63 68  1  0
 64 72  1  0
 64 74  1  0
 65 71  1  0
 65 67  1  0
 66 72  1  0
 67 66  1  0
 68 67  2  0
 69 70  1  0
 69 63  2  0
 70 65  2  0
 71 64  1  0
 72 62  1  0
 74 76  2  0
 75 74  1  0
 77 75  1  0
 78 87  2  0
 78 83  1  0
 79 75  1  0
 79 83  1  0
 80 79  1  0
 81 82  1  0
 81 80  1  0
 82 78  1  0
 83 84  2  0
 84 85  1  0
 86 85  2  0
 87 86  1  0
 88 62  1  0
 88 89  1  0
 88 98  1  0
 89 92  1  0
 90 94  1  0
 90 89  1  0
 91 90  2  0
 94 93  1  0
 96 94  1  0
 96 97  1  0
 96 95  1  0
 98101  1  1
 98 99  1  0
100 98  1  0
M  ISO  4  14 100  22 100  60 101  61 101
M  END
>  <TORSDO>  (13) 
F 32

>  <SCORE>  (13) 
-10.085

>  <name>  (13) 
12

>  <ligand_id>  (13) 
12

>  <original_smiles>  (13) 
[H]OC([H])([H])C([H])(N(C([H])([H])C([H])([H])N([H])C(=O)N1C([H])([H])C([H])([H])C([H])([H])C([H])(n2nc(-c3c([H])c([H])c(Oc4c([H])c([H])c(F)c([H])c4F)c([H])c3[H])c(C(=O)N([H])[H])c2N([H])[H])C1([H])[H])C([H])([H])C([H])([H])[N+]([H])([H])C([H])([H])C([H])([H])N([H])C([H])([H])C([H])([H])OC([H])([H])C([H])([H])Oc1c([H])c([H])c2c(c1[H])C([H])([H])N(C(=O)C([H])(N([H])C(=O)C([H])(N([H])C([H])([H])[H])C([H])([H])[H])C(C([H])([H])[H])(C([H])([H])[H])C([H])([H])[H])C([H])(C(=O)N([H])C1([H])c3c([H])c([H])c([H])c([H])c3C([H])([H])C([H])([H])C1([H])[H])C2([H])[H])C([H])([H])[H]

>  <smiles>  (13) 
[H]OC([H])([H])C([H])(N(C([H])([H])C([H])([H])N([H])C(=O)N1C([H])([H])C([H])([H])C([H])([H])C([H])(n2nc(-c3c([H])c([H])c(Oc4c([H])c([H])c(F)c([H])c4F)c([H])c3[H])c(C(=O)N([H])[H])c2N([H])[H])C1([H])[H])C([H])([H])C([H])([H])[N+]([H])([H])C([H])([H])C([H])([H])N([H])C([H])([H])C([H])([H])OC([H])([H])C([H])([H])Oc1c([H])c([H])c2c(c1[H])C([H])([H])N(C(=O)C([H])(N([H])C(=O)C([H])(N([H])C([H])([H])[H])C([H])([H])[H])C(C([H])([H])[H])(C([H])([H])[H])C([H])([H])[H])C([H])(C(=O)N([H])C1([H])c3c([H])c([H])c([H])c([H])c3C([H])([H])C([H])([H])C1([H])[H])C2([H])[H])C([H])([H])[H]

$$$$
13:0:0
     RDKit          3D

 96103  0  0  1  0  0  0  0  0999 V2000
  -29.1640  -25.8610   15.5710 C   0  0  0  0  0  0  0  0  0  0  0  0
  -28.5750  -25.7060   14.3800 N   0  0  0  0  0  4  0  0  0  0  0  0
  -28.8100  -26.8900   16.3680 N   0  0  0  0  0  0  0  0  0  0  0  0
  -28.8080  -24.9070   13.8060 H   0  0  0  0  0  0  0  0  0  0  0  0
  -27.9050  -26.3590   14.0030 H   0  0  0  0  0  0  0  0  0  0  0  0
  -28.1180  -27.5450   16.0370 H   0  0  0  0  0  0  0  0  0  0  0  0
  -29.7730  -23.7630   16.5580 C   0  0  0  0  0  3  0  0  0  0  0  0
  -30.1260  -24.9170   15.9740 C   0  0  0  0  0  3  0  0  0  0  0  0
  -30.7210  -22.7690   17.0200 C   0  0  0  0  0  3  0  0  0  0  0  0
  -30.3730  -21.8320   17.9180 C   0  0  0  0  0  3  0  0  0  0  0  0
  -31.2920  -20.7750   18.4910 C   0  0  0  0  0  2  0  0  0  0  0  0
  -30.5650  -19.5720   18.7080 O   0  0  0  0  0  0  0  0  0  0  0  0
  -30.9940  -18.8670   19.8650 C   0  0  0  0  0  2  0  0  0  0  0  0
  -30.2410  -17.5320   19.9480 C   0  0  0  0  0  2  0  0  0  0  0  0
  -30.5460  -16.7500   21.2440 C   0  0  0  0  0  2  0  0  0  0  0  0
  -30.7020  -14.3810   20.5450 C   0  0  0  0  0  0  0  0  0  0  0  0
  -30.3500  -12.2610   19.3580 C   0  0  0  0  0  2  0  0  0  0  0  0
  -29.4280  -12.5180   18.1510 C   0  0  0  0  0  2  0  0  0  0  0  0
  -27.9500  -12.3900   18.5710 C   0  0  0  0  0  2  0  0  0  0  0  0
  -27.6150  -13.2190   19.8390 C   0  0  0  0  0  3  0  0  0  0  0  0
  -28.6560  -12.9650   20.9530 C   0  0  0  0  0  2  0  0  0  0  0  0
  -29.9960  -13.2330   20.4000 N   0  0  0  0  0  0  0  0  0  0  0  0
  -31.8070  -14.5700   20.0290 O   0  0  0  0  0  0  0  0  0  0  0  0
  -30.0640  -15.3710   21.1770 N   0  0  0  0  0  0  0  0  0  0  0  0
  -29.1510  -15.1610   21.5560 H   0  0  0  0  0  0  0  0  0  0  0  0
  -25.2120  -13.8500   20.5200 C   0  0  0  0  0  0  0  0  0  0  0  0
  -24.1350  -13.0870   20.8860 C   0  0  0  0  0  0  0  0  0  0  0  0
  -24.5890  -11.7320   20.8690 C   0  0  0  0  0  0  0  0  0  0  0  0
  -26.2540  -12.9600   20.3060 N   0  0  0  0  0  0  0  0  0  0  0  0
  -25.8810  -11.6830   20.5740 N   0  0  0  0  0  0  0  0  0  0  0  0
  -23.8550  -10.4760   21.0620 C   0  0  0  0  0  0  0  0  0  0  0  0
  -24.2900   -9.5040   21.9900 C   0  0  0  0  0  3  0  0  0  0  0  0
  -23.5590   -8.3100   22.1740 C   0  0  0  0  0  3  0  0  0  0  0  0
  -22.3780   -8.0800   21.4290 C   0  0  0  0  0  0  0  0  0  0  0  0
  -21.9610   -9.0410   20.4910 C   0  0  0  0  0  3  0  0  0  0  0  0
  -22.6930  -10.2250   20.3050 C   0  0  0  0  0  3  0  0  0  0  0  0
  -21.6150   -6.9400   21.5220 O   0  0  0  0  0  0  0  0  0  0  0  0
  -21.5900   -6.1820   22.6650 C   0  0  0  0  0  0  0  0  0  0  0  0
  -21.2200   -6.7290   23.9140 C   0  0  0  0  0  3  0  0  0  0  0  0
  -21.1370   -5.8970   25.0480 C   0  0  0  0  0  3  0  0  0  0  0  0
  -21.4160   -4.5220   24.9370 C   0  0  0  0  0  0  0  0  0  0  0  0
  -21.7820   -3.9760   23.6940 C   0  0  0  0  0  3  0  0  0  0  0  0
  -21.8650   -4.8040   22.5610 C   0  0  0  0  0  0  0  0  0  0  0  0
  -22.1930   -4.2680   21.3620 F   0  0  0  0  0  0  0  0  0  0  0  0
  -21.3310   -3.7220   26.0250 F   0  0  0  0  0  0  0  0  0  0  0  0
  -22.7380  -13.5720   21.1390 C   0  0  0  0  0  0  0  0  0  0  0  0
  -21.9990  -12.8870   22.0060 N   0  0  0  0  0  0  0  0  0  0  0  0
  -22.3070  -14.5920   20.6020 O   0  0  0  0  0  0  0  0  0  0  0  0
  -22.3590  -12.0620   22.4620 H   0  0  0  0  0  0  0  0  0  0  0  0
  -21.0580  -13.1900   22.2150 H   0  0  0  0  0  0  0  0  0  0  0  0
  -25.3890  -15.2180   20.3320 N   0  0  0  0  0  0  0  0  0  0  0  0
  -24.6360  -15.8880   20.4520 H   0  0  0  0  0  0  0  0  0  0  0  0
  -26.2440  -15.6450   19.9990 H   0  0  0  0  0  0  0  0  0  0  0  0
  -29.3190  -27.1770   17.7220 C   0  0  0  0  0  2  0  0  0  0  0  0
  -28.8090  -26.1740   18.7830 C   0  0  0  0  0  2  0  0  0  0  0  0
  -28.4600  -26.8150   20.0150 O   0  0  0  0  0  0  0  0  0  0  0  0
  -24.6200  -31.8840   23.2100 C   0  0  0  0  0  0  0  0  0  0  0  0
  -27.2580  -27.4840   20.0640 C   0  0  0  0  0  0  0  0  0  0  0  0
  -23.4000  -30.4770   21.5810 C   0  0  0  0  0  3  0  0  0  0  0  0
  -24.8420  -28.9460   20.1440 C   0  0  0  0  0  0  0  0  0  0  0  0
  -25.9210  -30.8440   21.3630 C   0  0  0  0  0  2  0  0  0  0  0  0
  -26.0020  -29.4760   20.7220 C   0  0  0  0  0  0  0  0  0  0  0  0
  -27.2060  -28.7430   20.6970 C   0  0  0  0  0  3  0  0  0  0  0  0
  -26.0700  -26.9430   19.5160 C   0  0  0  0  0  3  0  0  0  0  0  0
  -24.8670  -27.6720   19.5520 C   0  0  0  0  0  3  0  0  0  0  0  0
  -23.5960  -29.7990   20.1990 C   0  0  0  0  0  2  0  0  0  0  0  0
  -24.6650  -31.0840   22.1080 N   0  0  0  0  0  0  0  0  0  0  0  0
  -23.5450  -32.1540   23.7610 O   0  0  0  0  0  0  0  0  0  0  0  0
  -22.7620  -29.4540   22.5470 C   0  0  0  0  0  0  0  0  0  0  0  0
  -21.4380  -29.2730   22.4330 N   0  0  0  0  0  0  0  0  0  0  0  0
  -23.4550  -28.8290   23.3540 O   0  0  0  0  0  0  0  0  0  0  0  0
  -20.9440  -29.8290   21.7480 H   0  0  0  0  0  0  0  0  0  0  0  0
  -18.0660  -28.0790   22.9500 C   0  0  0  0  0  0  0  0  0  0  0  0
  -20.6250  -28.3360   23.2070 C   0  0  0  0  0  3  0  0  0  0  0  0
  -20.7270  -26.9050   22.6280 C   0  0  0  0  0  2  0  0  0  0  0  0
  -19.6180  -26.5830   21.6230 C   0  0  0  0  0  2  0  0  0  0  0  0
  -18.2400  -26.7280   22.2750 C   0  0  0  0  0  2  0  0  0  0  0  0
  -19.1880  -28.8410   23.3710 C   0  0  0  0  0  0  0  0  0  0  0  0
  -18.9740  -30.1070   23.9600 C   0  0  0  0  0  3  0  0  0  0  0  0
  -17.6700  -30.6100   24.1310 C   0  0  0  0  0  3  0  0  0  0  0  0
  -16.5630  -29.8430   23.7280 C   0  0  0  0  0  3  0  0  0  0  0  0
  -16.7620  -28.5800   23.1430 C   0  0  0  0  0  3  0  0  0  0  0  0
  -25.9130  -32.5170   23.8120 C   0  0  0  0  0  3  0  0  0  0  0  0
  -26.4600  -31.7360   25.0690 C   0  0  1  0  0  0  0  0  0  0  0  0
  -25.3890  -31.4780   26.1540 C   0  0  0  0  0  1  0  0  0  0  0  0
  -27.0450  -30.3680   24.6490 C   0  0  0  0  0  1  0  0  0  0  0  0
  -27.6140  -32.5340   25.7200 C   0  0  0  0  0  1  0  0  0  0  0  0
  -25.6010  -33.9100   24.1600 N   0  0  0  0  0  0  0  0  0  0  0  0
  -25.9170  -34.9720   23.4070 C   0  0  0  0  0  0  0  0  0  0  0  0
  -26.5770  -34.8840   22.3680 O   0  0  0  0  0  0  0  0  0  0  0  0
  -25.0180  -34.0530   24.9720 H   0  0  0  0  0  0  0  0  0  0  0  0
  -24.1740  -36.7540   23.0910 C   0  0  0  0  0  1  0  0  0  0  0  0
  -25.4260  -36.3520   23.8850 C   0  0  0  0  0  3  0  0  0  0  0  0
  -27.5640  -37.2360   24.7030 C   0  0  0  0  0  1  0  0  0  0  0  0
  -26.4510  -37.4120   23.7740 N   0  0  0  0  0  0  0  0  0  0  0  0
  -26.0410  -38.3270   23.9430 H   0  0  0  0  0  0  0  0  0  0  0  0
  1  8  1  0
  1  3  1  0
  2  1  2  0
  3 54  1  0
  4  2  1  0
  5  2  1  0
  6  3  1  0
  7  9  1  0
  8  7  2  0
  9 10  2  0
 10 11  1  0
 11 12  1  0
 12 13  1  0
 13 14  1  0
 14 15  1  0
 16 24  1  0
 17 22  1  0
 18 19  1  0
 18 17  1  0
 20 19  1  0
 20 29  1  0
 20 21  1  0
 22 16  1  0
 22 21  1  0
 23 16  2  0
 24 15  1  0
 24 25  1  0
 26 27  2  0
 27 46  1  0
 28 27  1  0
 28 31  1  0
 29 26  1  0
 29 30  1  0
 30 28  2  0
 31 32  1  0
 32 33  2  0
 34 37  1  0
 34 33  1  0
 35 34  2  0
 36 35  1  0
 36 31  2  0
 37 38  1  0
 38 39  1  0
 39 40  2  0
 41 40  1  0
 41 45  1  0
 42 41  2  0
 43 38  2  0
 43 42  1  0
 44 43  1  0
 46 47  1  0
 47 50  1  0
 47 49  1  0
 48 46  2  0
 51 52  1  0
 51 26  1  0
 53 51  1  0
 54 55  1  0
 55 56  1  0
 56 58  1  0
 57 68  2  0
 58 63  1  0
 59 67  1  0
 59 69  1  0
 60 66  1  0
 60 62  1  0
 61 67  1  0
 62 61  1  0
 63 62  2  0
 64 65  1  0
 64 58  2  0
 65 60  2  0
 66 59  1  0
 67 57  1  0
 69 71  2  0
 70 69  1  0
 72 70  1  0
 73 82  2  0
 73 78  1  0
 74 70  1  0
 74 78  1  0
 75 74  1  0
 76 77  1  0
 76 75  1  0
 77 73  1  0
 78 79  2  0
 79 80  1  0
 81 80  2  0
 82 81  1  0
 83 57  1  0
 83 88  1  0
 83 84  1  0
 84 87  1  1
 84 85  1  0
 86 84  1  0
 88 91  1  0
 89 93  1  0
 89 88  1  0
 90 89  2  0
 93 92  1  0
 95 93  1  0
 95 96  1  0
 95 94  1  0
M  ISO  4  16 100  24 100  55 101  56 101
M  END
>  <TORSDO>  (14) 
F 25

>  <SCORE>  (14) 
-12.028

>  <name>  (14) 
13

>  <ligand_id>  (14) 
13

>  <original_smiles>  (14) 
[H]C(=C([H])C(N([H])[H])=[N+]([H])C([H])([H])C([H])([H])Oc1c([H])c([H])c2c(c1[H])C([H])([H])N(C(=O)C([H])(N([H])C(=O)C([H])(N([H])C([H])([H])[H])C([H])([H])[H])C(C([H])([H])[H])(C([H])([H])[H])C([H])([H])[H])C([H])(C(=O)N([H])C1([H])c3c([H])c([H])c([H])c([H])c3C([H])([H])C([H])([H])C1([H])[H])C2([H])[H])C([H])=C([H])C([H])([H])OC([H])([H])C([H])([H])C([H])([H])N([H])C(=O)N1C([H])([H])C([H])([H])C([H])([H])C([H])(n2nc(-c3c([H])c([H])c(Oc4c([H])c([H])c(F)c([H])c4F)c([H])c3[H])c(C(=O)N([H])[H])c2N([H])[H])C1([H])[H]

>  <smiles>  (14) 
[H]C(=C([H])C(N([H])[H])=[N+]([H])C([H])([H])C([H])([H])Oc1c([H])c([H])c2c(c1[H])C([H])([H])N(C(=O)C([H])(N([H])C(=O)C([H])(N([H])C([H])([H])[H])C([H])([H])[H])C(C([H])([H])[H])(C([H])([H])[H])C([H])([H])[H])C([H])(C(=O)N([H])C1([H])c3c([H])c([H])c([H])c([H])c3C([H])([H])C([H])([H])C1([H])[H])C2([H])[H])C([H])=C([H])C([H])([H])OC([H])([H])C([H])([H])C([H])([H])N([H])C(=O)N1C([H])([H])C([H])([H])C([H])([H])C([H])(n2nc(-c3c([H])c([H])c(Oc4c([H])c([H])c(F)c([H])c4F)c([H])c3[H])c(C(=O)N([H])[H])c2N([H])[H])C1([H])[H]

$$$$
14:0:0
     RDKit          3D

 98105  0  0  1  0  0  0  0  0999 V2000
  -28.9200  -22.8980   14.5580 C   0  0  0  0  0  2  0  0  0  0  0  0
  -30.0560  -22.6680   13.7310 O   0  0  0  0  0  0  0  0  0  0  0  0
  -30.5840  -21.3450   13.7660 C   0  0  0  0  0  2  0  0  0  0  0  0
  -31.7470  -21.1990   14.7630 C   0  0  0  0  0  2  0  0  0  0  0  0
  -31.3560  -20.3990   15.8760 O   0  0  0  0  0  0  0  0  0  0  0  0
  -32.4380  -20.1200   16.7630 C   0  0  0  0  0  2  0  0  0  0  0  0
  -32.2240  -18.7310   17.3830 C   0  0  0  0  0  2  0  0  0  0  0  0
  -31.3160  -18.7320   18.5600 N   0  0  0  0  0  4  0  0  0  0  0  0
  -31.7960  -19.1620   19.3360 H   0  0  0  0  0  0  0  0  0  0  0  0
  -30.4980  -19.2890   18.3570 H   0  0  0  0  0  0  0  0  0  0  0  0
  -30.8840  -17.3740   18.9610 C   0  0  0  0  0  2  0  0  0  0  0  0
  -30.6620  -17.2180   20.4910 C   0  0  0  0  0  2  0  0  0  0  0  0
  -31.0370  -14.7680   20.6800 C   0  0  0  0  0  0  0  0  0  0  0  0
  -30.7680  -12.5860   19.6120 C   0  0  0  0  0  2  0  0  0  0  0  0
  -29.9060  -12.7930   18.3500 C   0  0  0  0  0  2  0  0  0  0  0  0
  -28.4060  -12.6840   18.6930 C   0  0  0  0  0  2  0  0  0  0  0  0
  -28.0040  -13.5520   19.9150 C   0  0  0  0  0  3  0  0  0  0  0  0
  -28.9930  -13.3580   21.0890 C   0  0  0  0  0  2  0  0  0  0  0  0
  -30.3530  -13.6020   20.5870 N   0  0  0  0  0  0  0  0  0  0  0  0
  -32.2160  -14.8980   20.3540 O   0  0  0  0  0  0  0  0  0  0  0  0
  -30.2670  -15.8510   20.8610 N   0  0  0  0  0  0  0  0  0  0  0  0
  -29.3010  -15.6900   21.1010 H   0  0  0  0  0  0  0  0  0  0  0  0
  -25.5740  -14.1950   20.4750 C   0  0  0  0  0  0  0  0  0  0  0  0
  -24.4790  -13.4380   20.8010 C   0  0  0  0  0  0  0  0  0  0  0  0
  -24.9310  -12.0830   20.8270 C   0  0  0  0  0  0  0  0  0  0  0  0
  -26.6220  -13.3010   20.3230 N   0  0  0  0  0  0  0  0  0  0  0  0
  -26.2360  -12.0280   20.5920 N   0  0  0  0  0  0  0  0  0  0  0  0
  -24.1840  -10.8300   21.0040 C   0  0  0  0  0  0  0  0  0  0  0  0
  -24.5460   -9.8920   21.9940 C   0  0  0  0  0  3  0  0  0  0  0  0
  -23.8030   -8.7030   22.1590 C   0  0  0  0  0  3  0  0  0  0  0  0
  -22.6830   -8.4450   21.3330 C   0  0  0  0  0  0  0  0  0  0  0  0
  -22.3400   -9.3740   20.3340 C   0  0  0  0  0  3  0  0  0  0  0  0
  -23.0840  -10.5530   20.1670 C   0  0  0  0  0  3  0  0  0  0  0  0
  -21.9190   -7.3050   21.4010 O   0  0  0  0  0  0  0  0  0  0  0  0
  -21.7650   -6.6100   22.5740 C   0  0  0  0  0  0  0  0  0  0  0  0
  -21.2150   -7.2100   23.7280 C   0  0  0  0  0  3  0  0  0  0  0  0
  -21.0090   -6.4400   24.8910 C   0  0  0  0  0  3  0  0  0  0  0  0
  -21.3440   -5.0730   24.9000 C   0  0  0  0  0  0  0  0  0  0  0  0
  -21.8890   -4.4740   23.7500 C   0  0  0  0  0  3  0  0  0  0  0  0
  -22.0950   -5.2400   22.5900 C   0  0  0  0  0  0  0  0  0  0  0  0
  -22.5980   -4.6530   21.4770 F   0  0  0  0  0  0  0  0  0  0  0  0
  -21.1400   -4.3310   26.0140 F   0  0  0  0  0  0  0  0  0  0  0  0
  -23.0730  -13.9320   20.9840 C   0  0  0  0  0  0  0  0  0  0  0  0
  -22.2930  -13.2600   21.8250 N   0  0  0  0  0  0  0  0  0  0  0  0
  -22.6730  -14.9470   20.4180 O   0  0  0  0  0  0  0  0  0  0  0  0
  -22.6280  -12.4390   22.3070 H   0  0  0  0  0  0  0  0  0  0  0  0
  -21.3470  -13.5730   21.9880 H   0  0  0  0  0  0  0  0  0  0  0  0
  -25.7580  -15.5590   20.2730 N   0  0  0  0  0  0  0  0  0  0  0  0
  -24.9880  -16.2180   20.3080 H   0  0  0  0  0  0  0  0  0  0  0  0
  -26.6240  -15.9860   19.9680 H   0  0  0  0  0  0  0  0  0  0  0  0
  -29.3170  -23.2120   16.0090 C   0  0  0  0  0  2  0  0  0  0  0  0
  -28.0890  -23.4970   16.8920 C   0  0  0  0  0  2  0  0  0  0  0  0
  -28.4440  -23.7590   18.3040 N   0  0  0  0  0  4  0  0  0  0  0  0
  -29.1030  -23.0650   18.6210 H   0  0  0  0  0  0  0  0  0  0  0  0
  -27.6000  -23.6260   18.8410 H   0  0  0  0  0  0  0  0  0  0  0  0
  -28.9460  -25.1270   18.5820 C   0  0  0  0  0  2  0  0  0  0  0  0
  -28.9080  -25.4480   20.0890 C   0  0  0  0  0  2  0  0  0  0  0  0
  -28.8640  -26.8530   20.3280 O   0  0  0  0  0  0  0  0  0  0  0  0
  -24.7450  -31.7870   23.3310 C   0  0  0  0  0  0  0  0  0  0  0  0
  -27.6360  -27.4820   20.2980 C   0  0  0  0  0  0  0  0  0  0  0  0
  -23.6340  -30.3490   21.6520 C   0  0  0  0  0  3  0  0  0  0  0  0
  -25.1780  -28.8820   20.2620 C   0  0  0  0  0  0  0  0  0  0  0  0
  -26.1470  -30.8110   21.5210 C   0  0  0  0  0  2  0  0  0  0  0  0
  -26.2990  -29.4510   20.8760 C   0  0  0  0  0  0  0  0  0  0  0  0
  -27.5280  -28.7600   20.8900 C   0  0  0  0  0  3  0  0  0  0  0  0
  -26.4850  -26.9160   19.6950 C   0  0  0  0  0  3  0  0  0  0  0  0
  -25.2650  -27.6120   19.6700 C   0  0  0  0  0  3  0  0  0  0  0  0
  -23.9000  -29.6860   20.2760 C   0  0  0  0  0  2  0  0  0  0  0  0
  -24.8580  -30.9980   22.2260 N   0  0  0  0  0  0  0  0  0  0  0  0
  -23.6410  -32.0150   23.8440 O   0  0  0  0  0  0  0  0  0  0  0  0
  -23.0000  -29.2970   22.5880 C   0  0  0  0  0  0  0  0  0  0  0  0
  -21.6950  -29.0380   22.3980 N   0  0  0  0  0  0  0  0  0  0  0  0
  -23.6780  -28.7150   23.4390 O   0  0  0  0  0  0  0  0  0  0  0  0
  -21.2050  -29.5620   21.6870 H   0  0  0  0  0  0  0  0  0  0  0  0
  -18.3820  -27.6350   22.7160 C   0  0  0  0  0  0  0  0  0  0  0  0
  -20.8970  -28.0600   23.1370 C   0  0  0  0  0  3  0  0  0  0  0  0
  -21.1260  -26.6310   22.5930 C   0  0  0  0  0  2  0  0  0  0  0  0
  -20.1110  -26.2240   21.5200 C   0  0  0  0  0  2  0  0  0  0  0  0
  -18.6860  -26.2890   22.0770 C   0  0  0  0  0  2  0  0  0  0  0  0
  -19.4230  -28.4740   23.1970 C   0  0  0  0  0  0  0  0  0  0  0  0
  -19.0900  -29.7290   23.7480 C   0  0  0  0  0  3  0  0  0  0  0  0
  -17.7490  -30.1500   23.8240 C   0  0  0  0  0  3  0  0  0  0  0  0
  -16.7220  -29.3100   23.3620 C   0  0  0  0  0  3  0  0  0  0  0  0
  -17.0390  -28.0540   22.8140 C   0  0  0  0  0  3  0  0  0  0  0  0
  -25.9920  -32.4590   23.9880 C   0  0  0  0  0  3  0  0  0  0  0  0
  -25.6450  -33.8590   24.2630 N   0  0  0  0  0  0  0  0  0  0  0  0
  -25.9920  -34.8950   23.4880 C   0  0  0  0  0  0  0  0  0  0  0  0
  -26.7130  -34.7760   22.4920 O   0  0  0  0  0  0  0  0  0  0  0  0
  -25.0120  -34.0310   25.0310 H   0  0  0  0  0  0  0  0  0  0  0  0
  -24.2540  -36.6440   22.9940 C   0  0  0  0  0  1  0  0  0  0  0  0
  -25.4560  -36.2850   23.8810 C   0  0  0  0  0  3  0  0  0  0  0  0
  -27.5210  -37.2330   24.8080 C   0  0  0  0  0  1  0  0  0  0  0  0
  -26.4740  -37.3540   23.7970 N   0  0  0  0  0  0  0  0  0  0  0  0
  -26.0440  -38.2690   23.8950 H   0  0  0  0  0  0  0  0  0  0  0  0
  -26.4740  -31.7330   25.3030 C   0  0  1  0  0  0  0  0  0  0  0  0
  -25.3450  -31.4960   26.3310 C   0  0  0  0  0  1  0  0  0  0  0  0
  -27.1010  -30.3590   24.9690 C   0  0  0  0  0  1  0  0  0  0  0  0
  -27.5750  -32.5730   25.9940 C   0  0  0  0  0  1  0  0  0  0  0  0
  1 51  1  0
  2  3  1  0
  2  1  1  0
  3  4  1  0
  4  5  1  0
  5  6  1  0
  6  7  1  0
  7  8  1  0
  8 11  1  0
  8  9  1  0
 10  8  1  0
 11 12  1  0
 12 21  1  0
 13 21  1  0
 14 19  1  0
 15 16  1  0
 15 14  1  0
 17 16  1  0
 17 26  1  0
 17 18  1  0
 19 13  1  0
 19 18  1  0
 20 13  2  0
 21 22  1  0
 23 24  2  0
 24 25  1  0
 24 43  1  0
 25 28  1  0
 26 23  1  0
 26 27  1  0
 27 25  2  0
 28 29  1  0
 29 30  2  0
 31 34  1  0
 31 30  1  0
 32 31  2  0
 33 32  1  0
 33 28  2  0
 34 35  1  0
 35 40  2  0
 35 36  1  0
 36 37  2  0
 37 38  1  0
 38 42  1  0
 39 38  2  0
 40 39  1  0
 41 40  1  0
 43 44  1  0
 44 47  1  0
 44 46  1  0
 45 43  2  0
 48 49  1  0
 48 23  1  0
 50 48  1  0
 51 52  1  0
 52 53  1  0
 53 56  1  0
 53 54  1  0
 53 55  1  0
 56 57  1  0
 57 58  1  0
 59 70  2  0
 60 58  1  0
 60 65  1  0
 61 69  1  0
 61 71  1  0
 62 68  1  0
 62 64  1  0
 63 69  1  0
 64 65  2  0
 64 63  1  0
 66 60  2  0
 67 66  1  0
 67 62  2  0
 68 61  1  0
 69 59  1  0
 71 73  2  0
 72 71  1  0
 74 72  1  0
 75 84  2  0
 75 80  1  0
 76 72  1  0
 76 80  1  0
 77 76  1  0
 78 79  1  0
 78 77  1  0
 79 75  1  0
 80 81  2  0
 81 82  1  0
 83 82  2  0
 84 83  1  0
 85 59  1  0
 85 86  1  0
 85 95  1  0
 86 89  1  0
 87 91  1  0
 87 86  1  0
 88 87  2  0
 91 90  1  0
 93 91  1  0
 93 94  1  0
 93 92  1  0
 95 98  1  1
 95 96  1  0
 97 95  1  0
M  ISO  4  13 100  21 100  57 101  58 101
M  END
>  <TORSDO>  (15) 
F 30

>  <SCORE>  (15) 
-8.995

>  <name>  (15) 
14

>  <ligand_id>  (15) 
14

>  <original_smiles>  (15) 
[H]c1c([H])c([H])c2c(c1[H])C([H])([H])C([H])([H])C([H])([H])C2([H])N([H])C(=O)C1([H])N(C(=O)C([H])(N([H])C(=O)C([H])(N([H])C([H])([H])[H])C([H])([H])[H])C(C([H])([H])[H])(C([H])([H])[H])C([H])([H])[H])C([H])([H])c2c([H])c(OC([H])([H])C([H])([H])[N+]([H])([H])C([H])([H])C([H])([H])C([H])([H])OC([H])([H])C([H])([H])OC([H])([H])C([H])([H])[N+]([H])([H])C([H])([H])C([H])([H])N([H])C(=O)N3C([H])([H])C([H])([H])C([H])([H])C([H])(n4nc(-c5c([H])c([H])c(Oc6c([H])c([H])c(F)c([H])c6F)c([H])c5[H])c(C(=O)N([H])[H])c4N([H])[H])C3([H])[H])c([H])c([H])c2C1([H])[H]

>  <smiles>  (15) 
[H]c1c([H])c([H])c2c(c1[H])C([H])([H])C([H])([H])C([H])([H])C2([H])N([H])C(=O)C1([H])N(C(=O)C([H])(N([H])C(=O)C([H])(N([H])C([H])([H])[H])C([H])([H])[H])C(C([H])([H])[H])(C([H])([H])[H])C([H])([H])[H])C([H])([H])c2c([H])c(OC([H])([H])C([H])([H])[N+]([H])([H])C([H])([H])C([H])([H])C([H])([H])OC([H])([H])C([H])([H])OC([H])([H])C([H])([H])[N+]([H])([H])C([H])([H])C([H])([H])N([H])C(=O)N3C([H])([H])C([H])([H])C([H])([H])C([H])(n4nc(-c5c([H])c([H])c(Oc6c([H])c([H])c(F)c([H])c6F)c([H])c5[H])c(C(=O)N([H])[H])c4N([H])[H])C3([H])[H])c([H])c([H])c2C1([H])[H]

$$$$
17:0:0
     RDKit          3D

100107  0  0  1  0  0  0  0  0999 V2000
  -24.0130  -22.9140   17.2860 N   0  0  0  0  0  4  0  0  0  0  0  0
  -25.0080  -22.7710   17.1900 H   0  0  0  0  0  0  0  0  0  0  0  0
  -23.5530  -22.2420   16.6890 H   0  0  0  0  0  0  0  0  0  0  0  0
  -23.7390  -22.5890   18.7030 C   0  0  0  0  0  2  0  0  0  0  0  0
  -24.8650  -21.6980   19.2380 C   0  0  0  0  0  2  0  0  0  0  0  0
  -26.0690  -22.2840   18.7530 O   0  0  0  0  0  0  0  0  0  0  0  0
  -27.2260  -21.4870   18.9600 C   0  0  0  0  0  2  0  0  0  0  0  0
  -28.3620  -22.1600   18.1820 C   0  0  0  0  0  2  0  0  0  0  0  0
  -29.6950  -21.4010   18.2400 C   0  0  0  0  0  2  0  0  0  0  0  0
  -30.7600  -22.0750   17.3640 C   0  0  0  0  0  2  0  0  0  0  0  0
  -32.1260  -21.3790   17.4180 C   0  0  0  0  0  2  0  0  0  0  0  0
  -33.1450  -22.0510   16.4800 C   0  0  0  0  0  2  0  0  0  0  0  0
  -34.5730  -21.4920   16.6030 C   0  0  0  0  0  2  0  0  0  0  0  0
  -34.7300  -19.3340   15.3500 C   0  0  0  0  0  0  0  0  0  0  0  0
  -34.9690  -17.0600   14.4210 C   0  0  0  0  0  2  0  0  0  0  0  0
  -33.6200  -16.4830   13.9520 C   0  0  0  0  0  2  0  0  0  0  0  0
  -32.8850  -15.8010   15.1200 C   0  0  0  0  0  2  0  0  0  0  0  0
  -32.8020  -16.7080   16.3750 C   0  0  0  0  0  3  0  0  0  0  0  0
  -34.1910  -17.2860   16.7180 C   0  0  0  0  0  2  0  0  0  0  0  0
  -34.7170  -17.9890   15.5300 N   0  0  0  0  0  0  0  0  0  0  0  0
  -34.9120  -19.8780   14.2560 O   0  0  0  0  0  0  0  0  0  0  0  0
  -34.6010  -20.0390   16.4790 N   0  0  0  0  0  0  0  0  0  0  0  0
  -34.5100  -19.5040   17.3300 H   0  0  0  0  0  0  0  0  0  0  0  0
  -31.1240  -16.3200   18.2920 C   0  0  0  0  0  0  0  0  0  0  0  0
  -30.9690  -15.2850   19.1750 C   0  0  0  0  0  0  0  0  0  0  0  0
  -32.0050  -14.3510   18.8720 C   0  0  0  0  0  0  0  0  0  0  0  0
  -32.2230  -15.9930   17.5110 N   0  0  0  0  0  0  0  0  0  0  0  0
  -32.7820  -14.8190   17.9050 N   0  0  0  0  0  0  0  0  0  0  0  0
  -32.2690  -13.0080   19.4090 C   0  0  0  0  0  0  0  0  0  0  0  0
  -33.5500  -12.6410   19.8800 C   0  0  0  0  0  3  0  0  0  0  0  0
  -33.7750  -11.3510   20.4050 C   0  0  0  0  0  3  0  0  0  0  0  0
  -32.7150  -10.4150   20.4690 C   0  0  0  0  0  0  0  0  0  0  0  0
  -31.4490  -10.7790   19.9790 C   0  0  0  0  0  3  0  0  0  0  0  0
  -31.2270  -12.0620   19.4500 C   0  0  0  0  0  3  0  0  0  0  0  0
  -32.8470   -9.1320   20.9410 O   0  0  0  0  0  0  0  0  0  0  0  0
  -33.8480   -8.7840   21.8130 C   0  0  0  0  0  0  0  0  0  0  0  0
  -34.0240   -9.4450   23.0480 C   0  0  0  0  0  3  0  0  0  0  0  0
  -35.0220   -9.0110   23.9430 C   0  0  0  0  0  3  0  0  0  0  0  0
  -35.8370   -7.9110   23.6100 C   0  0  0  0  0  0  0  0  0  0  0  0
  -35.6590   -7.2480   22.3840 C   0  0  0  0  0  3  0  0  0  0  0  0
  -34.6650   -7.6820   21.4880 C   0  0  0  0  0  0  0  0  0  0  0  0
  -34.4840   -7.0260   20.3160 F   0  0  0  0  0  0  0  0  0  0  0  0
  -36.7900   -7.4890   24.4730 F   0  0  0  0  0  0  0  0  0  0  0  0
  -29.8650  -15.1240   20.1800 C   0  0  0  0  0  0  0  0  0  0  0  0
  -30.1540  -14.4860   21.3090 N   0  0  0  0  0  0  0  0  0  0  0  0
  -28.7500  -15.6080   19.9890 O   0  0  0  0  0  0  0  0  0  0  0  0
  -31.0740  -14.1080   21.4750 H   0  0  0  0  0  0  0  0  0  0  0  0
  -29.4430  -14.3750   22.0180 H   0  0  0  0  0  0  0  0  0  0  0  0
  -30.4170  -17.4970   18.0750 N   0  0  0  0  0  0  0  0  0  0  0  0
  -29.5790  -17.7280   18.5960 H   0  0  0  0  0  0  0  0  0  0  0  0
  -30.6320  -18.1690   17.3490 H   0  0  0  0  0  0  0  0  0  0  0  0
  -23.6490  -24.2880   16.8710 C   0  0  0  0  0  2  0  0  0  0  0  0
  -24.3110  -24.7080   15.5370 C   0  0  0  0  0  2  0  0  0  0  0  0
  -25.8580  -24.7990   15.5680 C   0  0  0  0  0  2  0  0  0  0  0  0
  -26.3610  -26.0500   16.1880 N   0  0  0  0  0  4  0  0  0  0  0  0
  -25.6840  -26.4020   16.8450 H   0  0  0  0  0  0  0  0  0  0  0  0
  -26.4540  -26.7470   15.4620 H   0  0  0  0  0  0  0  0  0  0  0  0
  -27.6640  -25.8980   16.8900 C   0  0  0  0  0  2  0  0  0  0  0  0
  -28.1190  -27.1870   17.6120 C   0  0  0  0  0  2  0  0  0  0  0  0
  -27.7410  -27.2150   18.9930 O   0  0  0  0  0  0  0  0  0  0  0  0
  -24.5170  -31.7580   23.4300 C   0  0  0  0  0  0  0  0  0  0  0  0
  -26.6090  -27.9340   19.2900 C   0  0  0  0  0  0  0  0  0  0  0  0
  -23.0810  -30.7400   21.6940 C   0  0  0  0  0  3  0  0  0  0  0  0
  -24.3020  -29.4520   19.8640 C   0  0  0  0  0  0  0  0  0  0  0  0
  -25.5900  -31.0480   21.2980 C   0  0  0  0  0  2  0  0  0  0  0  0
  -25.5390  -29.8240   20.4080 C   0  0  0  0  0  0  0  0  0  0  0  0
  -26.6960  -29.0670   20.1270 C   0  0  0  0  0  3  0  0  0  0  0  0
  -25.3500  -27.5410   18.7910 C   0  0  0  0  0  3  0  0  0  0  0  0
  -24.1980  -28.3030   19.0620 C   0  0  0  0  0  3  0  0  0  0  0  0
  -23.1160  -30.3270   20.1980 C   0  0  0  0  0  2  0  0  0  0  0  0
  -24.4210  -31.1830   22.1990 N   0  0  0  0  0  0  0  0  0  0  0  0
  -23.5110  -31.9590   24.1240 O   0  0  0  0  0  0  0  0  0  0  0  0
  -22.4750  -29.5760   22.5100 C   0  0  0  0  0  0  0  0  0  0  0  0
  -21.1480  -29.3980   22.4010 N   0  0  0  0  0  0  0  0  0  0  0  0
  -23.1920  -28.8440   23.1980 O   0  0  0  0  0  0  0  0  0  0  0  0
  -20.6300  -30.0440   21.8220 H   0  0  0  0  0  0  0  0  0  0  0  0
  -17.8330  -27.9930   22.6900 C   0  0  0  0  0  0  0  0  0  0  0  0
  -20.3680  -28.3440   23.0490 C   0  0  0  0  0  3  0  0  0  0  0  0
  -20.5540  -26.9890   22.3270 C   0  0  0  0  0  2  0  0  0  0  0  0
  -19.4890  -26.7230   21.2580 C   0  0  0  0  0  2  0  0  0  0  0  0
  -18.0900  -26.7330   21.8810 C   0  0  0  0  0  2  0  0  0  0  0  0
  -18.9030  -28.7570   23.2260 C   0  0  0  0  0  0  0  0  0  0  0  0
  -18.6100  -29.9390   23.9400 C   0  0  0  0  0  3  0  0  0  0  0  0
  -17.2800  -30.3570   24.1240 C   0  0  0  0  0  3  0  0  0  0  0  0
  -16.2230  -29.5890   23.6040 C   0  0  0  0  0  3  0  0  0  0  0  0
  -16.5000  -28.4070   22.8940 C   0  0  0  0  0  3  0  0  0  0  0  0
  -25.8900  -32.2130   24.0140 C   0  0  0  0  0  3  0  0  0  0  0  0
  -25.7630  -33.6290   24.3840 N   0  0  0  0  0  0  0  0  0  0  0  0
  -26.2650  -34.6480   23.6740 C   0  0  0  0  0  0  0  0  0  0  0  0
  -26.9510  -34.4850   22.6610 O   0  0  0  0  0  0  0  0  0  0  0  0
  -25.1630  -33.8390   25.1680 H   0  0  0  0  0  0  0  0  0  0  0  0
  -24.8720  -36.7030   23.2730 C   0  0  0  0  0  1  0  0  0  0  0  0
  -25.9550  -36.0750   24.1650 C   0  0  0  0  0  3  0  0  0  0  0  0
  -28.1150  -36.5740   25.2200 C   0  0  0  0  0  1  0  0  0  0  0  0
  -27.1430  -36.9560   24.2000 N   0  0  0  0  0  0  0  0  0  0  0  0
  -26.8700  -37.9200   24.3690 H   0  0  0  0  0  0  0  0  0  0  0  0
  -26.3580  -31.3520   25.2510 C   0  0  1  0  0  0  0  0  0  0  0  0
  -25.2930  -31.2350   26.3660 C   0  0  0  0  0  1  0  0  0  0  0  0
  -26.7360  -29.9190   24.8080 C   0  0  0  0  0  1  0  0  0  0  0  0
  -27.6330  -31.9730   25.8690 C   0  0  0  0  0  1  0  0  0  0  0  0
  1  4  1  0
  2  1  1  0
  3  1  1  0
  4  5  1  0
  6  7  1  0
  6  5  1  0
  8  9  1  0
  8  7  1  0
 10 11  1  0
 10  9  1  0
 12 13  1  0
 12 11  1  0
 14 20  1  0
 14 22  1  0
 15 20  1  0
 16 15  1  0
 16 17  1  0
 18 17  1  0
 18 19  1  0
 18 27  1  0
 20 19  1  0
 21 14  2  0
 22 13  1  0
 22 23  1  0
 24 25  2  0
 25 44  1  0
 26 25  1  0
 26 29  1  0
 27 28  1  0
 27 24  1  0
 28 26  2  0
 29 34  2  0
 29 30  1  0
 30 31  2  0
 31 32  1  0
 32 35  1  0
 33 32  2  0
 34 33  1  0
 35 36  1  0
 36 37  1  0
 37 38  2  0
 39 38  1  0
 39 43  1  0
 40 39  2  0
 41 36  2  0
 41 40  1  0
 42 41  1  0
 44 45  1  0
 45 47  1  0
 45 48  1  0
 46 44  2  0
 49 24  1  0
 49 50  1  0
 51 49  1  0
 52  1  1  0
 53 54  1  0
 53 52  1  0
 54 55  1  0
 55 56  1  0
 55 58  1  0
 57 55  1  0
 58 59  1  0
 59 60  1  0
 60 62  1  0
 61 72  2  0
 62 67  1  0
 63 71  1  0
 63 73  1  0
 64 70  1  0
 64 66  1  0
 65 71  1  0
 66 65  1  0
 67 66  2  0
 68 69  1  0
 68 62  2  0
 69 64  2  0
 70 63  1  0
 71 61  1  0
 73 75  2  0
 74 73  1  0
 76 74  1  0
 77 86  2  0
 77 82  1  0
 78 74  1  0
 78 82  1  0
 79 78  1  0
 80 81  1  0
 80 79  1  0
 81 77  1  0
 82 83  2  0
 83 84  1  0
 85 84  2  0
 86 85  1  0
 87 61  1  0
 87 88  1  0
 87 97  1  0
 88 91  1  0
 89 93  1  0
 89 88  1  0
 90 89  2  0
 93 92  1  0
 93 95  1  0
 95 96  1  0
 95 94  1  0
 97100  1  1
 97 98  1  0
 99 97  1  0
M  ISO  4  14 100  22 100  59 101  60 101
M  END
>  <TORSDO>  (16) 
F 32

>  <SCORE>  (16) 
-5.686

>  <name>  (16) 
17

>  <ligand_id>  (16) 
17

>  <original_smiles>  (16) 
[H]c1c([H])c([H])c2c(c1[H])C([H])([H])C([H])([H])C([H])([H])C2([H])N([H])C(=O)C1([H])N(C(=O)C([H])(N([H])C(=O)C([H])(N([H])C([H])([H])[H])C([H])([H])[H])C(C([H])([H])[H])(C([H])([H])[H])C([H])([H])[H])C([H])([H])c2c([H])c(OC([H])([H])C([H])([H])[N+]([H])([H])C([H])([H])C([H])([H])C([H])([H])[N+]([H])([H])C([H])([H])C([H])([H])OC([H])([H])C([H])([H])C([H])([H])C([H])([H])C([H])([H])C([H])([H])C([H])([H])N([H])C(=O)N3C([H])([H])C([H])([H])C([H])([H])C([H])(n4nc(-c5c([H])c([H])c(Oc6c([H])c([H])c(F)c([H])c6F)c([H])c5[H])c(C(=O)N([H])[H])c4N([H])[H])C3([H])[H])c([H])c([H])c2C1([H])[H]

>  <smiles>  (16) 
[H]c1c([H])c([H])c2c(c1[H])C([H])([H])C([H])([H])C([H])([H])C2([H])N([H])C(=O)C1([H])N(C(=O)C([H])(N([H])C(=O)C([H])(N([H])C([H])([H])[H])C([H])([H])[H])C(C([H])([H])[H])(C([H])([H])[H])C([H])([H])[H])C([H])([H])c2c([H])c(OC([H])([H])C([H])([H])[N+]([H])([H])C([H])([H])C([H])([H])C([H])([H])[N+]([H])([H])C([H])([H])C([H])([H])OC([H])([H])C([H])([H])C([H])([H])C([H])([H])C([H])([H])C([H])([H])C([H])([H])N([H])C(=O)N3C([H])([H])C([H])([H])C([H])([H])C([H])(n4nc(-c5c([H])c([H])c(Oc6c([H])c([H])c(F)c([H])c6F)c([H])c5[H])c(C(=O)N([H])[H])c4N([H])[H])C3([H])[H])c([H])c([H])c2C1([H])[H]

$$$$
18:0:0
     RDKit          3D

 94101  0  0  1  0  0  0  0  0999 V2000
  -27.1460  -19.8420   19.0380 C   0  0  0  0  0  2  0  0  0  0  0  0
  -25.2010  -18.4020   19.4000 C   0  0  0  0  0  0  0  0  0  0  0  0
  -26.5790  -18.5030   19.5140 N   0  0  0  0  0  0  0  0  0  0  0  0
  -24.4800  -19.3380   19.0880 O   0  0  0  0  0  0  0  0  0  0  0  0
  -23.2670  -16.8570   19.2970 C   0  0  0  0  0  2  0  0  0  0  0  0
  -24.5370  -17.1380   19.6910 C   0  0  0  0  0  3  0  0  0  0  0  0
  -27.4680  -17.3110   19.3410 C   0  0  0  0  0  2  0  0  0  0  0  0
  -28.4070  -17.0010   20.5490 C   0  0  0  0  0  2  0  0  0  0  0  0
  -29.8610  -16.6980   20.0620 C   0  0  0  0  0  2  0  0  0  0  0  0
  -30.8700  -14.4780   20.5380 C   0  0  0  0  0  3  0  0  0  0  0  0
  -30.5790  -12.3120   19.4630 C   0  0  0  0  0  2  0  0  0  0  0  0
  -29.5700  -12.3860   18.2960 C   0  0  0  0  0  3  0  0  0  0  0  0
  -28.1370  -12.7270   18.6770 C   0  0  0  0  0  3  0  0  0  0  0  0
  -27.8690  -13.2970   20.1090 C   0  0  0  0  0  3  0  0  0  0  0  0
  -28.9480  -12.9870   21.1650 C   0  0  0  0  0  2  0  0  0  0  0  0
  -30.2550  -13.2790   20.5220 N   0  0  0  0  0  0  0  0  0  0  0  0
  -32.0810  -14.6220   20.4610 O   0  0  0  0  0  1  0  0  0  0  0  0
  -30.2240  -15.3000   19.7300 N   0  0  0  0  0  0  0  0  0  0  0  0
  -30.7100  -15.2780   18.8330 H   0  0  0  0  0  0  0  0  0  0  0  0
  -25.5070  -13.7550   20.9740 C   0  0  0  0  0  0  0  0  0  0  0  0
  -24.4180  -12.9380   21.2120 C   0  0  0  0  0  0  0  0  0  0  0  0
  -24.9060  -11.6140   21.0350 C   0  0  0  0  0  0  0  0  0  0  0  0
  -26.5380  -12.9230   20.5610 N   0  0  0  0  0  0  0  0  0  0  0  0
  -26.1950  -11.6330   20.6870 N   0  0  0  0  0  0  0  0  0  0  0  0
  -24.1840  -10.3360   21.1460 C   0  0  0  0  0  0  0  0  0  0  0  0
  -24.5730   -9.3450   22.0850 C   0  0  0  0  0  3  0  0  0  0  0  0
  -23.8210   -8.1490   22.2340 C   0  0  0  0  0  3  0  0  0  0  0  0
  -22.6890   -7.9230   21.4320 C   0  0  0  0  0  0  0  0  0  0  0  0
  -22.3050   -8.8790   20.4890 C   0  0  0  0  0  3  0  0  0  0  0  0
  -23.0380  -10.0740   20.3380 C   0  0  0  0  0  3  0  0  0  0  0  0
  -21.9490   -6.7800   21.4540 O   0  0  0  0  0  0  0  0  0  0  0  0
  -21.8140   -6.0280   22.6010 C   0  0  0  0  0  0  0  0  0  0  0  0
  -21.2610   -6.5730   23.7740 C   0  0  0  0  0  3  0  0  0  0  0  0
  -21.0730   -5.7550   24.9090 C   0  0  0  0  0  3  0  0  0  0  0  0
  -21.4350   -4.3910   24.8640 C   0  0  0  0  0  0  0  0  0  0  0  0
  -21.9830   -3.8540   23.6880 C   0  0  0  0  0  3  0  0  0  0  0  0
  -22.1660   -4.6670   22.5590 C   0  0  0  0  0  0  0  0  0  0  0  0
  -22.6820   -4.1290   21.4250 F   0  0  0  0  0  0  0  0  0  0  0  0
  -21.2410   -3.6150   25.9470 F   0  0  0  0  0  0  0  0  0  0  0  0
  -23.0360  -13.4160   21.5610 C   0  0  0  0  0  0  0  0  0  0  0  0
  -22.3290  -12.6440   22.3870 N   0  0  0  0  0  0  0  0  0  0  0  0
  -22.5780  -14.4650   21.1070 O   0  0  0  0  0  0  0  0  0  0  0  0
  -22.6980  -11.7800   22.7390 H   0  0  0  0  0  0  0  0  0  0  0  0
  -21.4230  -12.9470   22.6900 H   0  0  0  0  0  0  0  0  0  0  0  0
  -25.6660  -15.1280   21.1210 N   0  0  0  0  0  0  0  0  0  0  0  0
  -25.8110  -15.6260   20.2690 H   0  0  0  0  0  0  0  0  0  0  0  0
  -24.8260  -15.4500   21.5980 H   0  0  0  0  0  0  0  0  0  0  0  0
  -27.9700  -20.8890   19.9410 C   0  0  0  0  0  2  0  0  0  0  0  0
  -27.9110  -22.3500   19.4300 N   0  0  0  0  0  4  0  0  0  0  0  0
  -26.9340  -22.5970   19.3080 H   0  0  0  0  0  0  0  0  0  0  0  0
  -28.2930  -22.3250   18.5030 H   0  0  0  0  0  0  0  0  0  0  0  0
  -28.5790  -23.5600   20.1160 C   0  0  0  0  0  2  0  0  0  0  0  0
  -27.8630  -24.9530   19.7460 C   0  0  0  0  0  2  0  0  0  0  0  0
  -28.3510  -26.3950   19.7010 O   0  0  0  0  0  0  0  0  0  0  0  0
  -24.5100  -31.5860   23.0590 C   0  0  0  0  0  0  0  0  0  0  0  0
  -27.3120  -27.3590   19.6420 C   0  0  0  0  0  0  0  0  0  0  0  0
  -23.3800  -30.1880   21.3790 C   0  0  0  0  0  3  0  0  0  0  0  0
  -24.8900  -28.8730   19.7990 C   0  0  0  0  0  0  0  0  0  0  0  0
  -25.8980  -30.7060   21.1570 C   0  0  0  0  0  2  0  0  0  0  0  0
  -26.0550  -29.3870   20.3970 C   0  0  0  0  0  0  0  0  0  0  0  0
  -27.2830  -28.6390   20.2940 C   0  0  0  0  0  3  0  0  0  0  0  0
  -26.1290  -26.9870   18.9580 C   0  0  0  0  0  3  0  0  0  0  0  0
  -24.9360  -27.6940   19.0630 C   0  0  0  0  0  3  0  0  0  0  0  0
  -23.6000  -29.6410   19.9520 C   0  0  0  0  0  2  0  0  0  0  0  0
  -24.6150  -30.8470   21.9180 N   0  0  0  0  0  0  0  0  0  0  0  0
  -23.4210  -31.7350   23.6330 O   0  0  0  0  0  0  0  0  0  0  0  0
  -22.8360  -29.0570   22.2890 C   0  0  0  0  0  0  0  0  0  0  0  0
  -21.5350  -28.7450   22.1670 N   0  0  0  0  0  0  0  0  0  0  0  0
  -23.5860  -28.4690   23.0720 O   0  0  0  0  0  0  0  0  0  0  0  0
  -20.9810  -29.2810   21.5130 H   0  0  0  0  0  0  0  0  0  0  0  0
  -18.3390  -27.0710   22.5470 C   0  0  0  0  0  0  0  0  0  0  0  0
  -20.8290  -27.6860   22.8960 C   0  0  0  0  0  3  0  0  0  0  0  0
  -21.1460  -26.2920   22.3040 C   0  0  0  0  0  2  0  0  0  0  0  0
  -20.1270  -25.8360   21.2540 C   0  0  0  0  0  2  0  0  0  0  0  0
  -18.7220  -25.7730   21.8610 C   0  0  0  0  0  2  0  0  0  0  0  0
  -19.3270  -27.9770   23.0220 C   0  0  0  0  0  0  0  0  0  0  0  0
  -18.9100  -29.1850   23.6250 C   0  0  0  0  0  3  0  0  0  0  0  0
  -17.5430  -29.4900   23.7570 C   0  0  0  0  0  3  0  0  0  0  0  0
  -16.5720  -28.5840   23.2970 C   0  0  0  0  0  3  0  0  0  0  0  0
  -16.9710  -27.3760   22.6980 C   0  0  0  0  0  3  0  0  0  0  0  0
  -25.7460  -32.2940   23.6860 C   0  0  0  0  0  3  0  0  0  0  0  0
  -26.3120  -31.5430   24.9530 C   0  0  1  0  0  0  0  0  0  0  0  0
  -25.2450  -31.2350   26.0300 C   0  0  0  0  0  1  0  0  0  0  0  0
  -26.9700  -30.2020   24.5550 C   0  0  0  0  0  1  0  0  0  0  0  0
  -27.4230  -32.4010   25.6060 C   0  0  0  0  0  1  0  0  0  0  0  0
  -25.3390  -33.6630   24.0350 N   0  0  0  0  0  0  0  0  0  0  0  0
  -25.6500  -34.7570   23.3280 C   0  0  0  0  0  0  0  0  0  0  0  0
  -26.3760  -34.7250   22.3330 O   0  0  0  0  0  0  0  0  0  0  0  0
  -24.6890  -33.7540   24.8020 H   0  0  0  0  0  0  0  0  0  0  0  0
  -23.8510  -36.4760   22.9330 C   0  0  0  0  0  1  0  0  0  0  0  0
  -25.0620  -36.1020   23.8030 C   0  0  0  0  0  3  0  0  0  0  0  0
  -27.1040  -37.0620   24.7770 C   0  0  0  0  0  1  0  0  0  0  0  0
  -26.0390  -37.2130   23.7890 N   0  0  0  0  0  0  0  0  0  0  0  0
  -25.5740  -38.1010   23.9580 H   0  0  0  0  0  0  0  0  0  0  0  0
  1  3  1  0
  1 48  1  0
  2  3  1  0
  2  6  1  0
  4  2  2  0
  5  6  2  0
  7  3  1  0
  7  8  1  0
  9  8  1  0
 10 17  1  0
 11 16  1  0
 12 13  2  0
 12 11  1  0
 14 13  1  0
 14 23  1  0
 14 15  1  0
 16 10  1  0
 16 15  1  0
 18  9  1  0
 18 10  1  0
 19 18  1  0
 20 45  1  0
 20 21  2  0
 21 40  1  0
 22 25  1  0
 22 21  1  0
 23 24  1  0
 23 20  1  0
 24 22  2  0
 25 26  1  0
 26 27  2  0
 28 31  1  0
 28 27  1  0
 29 28  2  0
 30 29  1  0
 30 25  2  0
 31 32  1  0
 32 33  1  0
 33 34  2  0
 35 34  1  0
 35 39  1  0
 36 35  2  0
 37 32  2  0
 37 36  1  0
 38 37  1  0
 40 41  1  0
 41 44  1  0
 41 43  1  0
 42 40  2  0
 45 47  1  0
 46 45  1  0
 49 48  1  0
 49 52  1  0
 50 49  1  0
 51 49  1  0
 53 52  1  0
 54 53  1  0
 55 66  2  0
 56 54  1  0
 56 61  1  0
 57 65  1  0
 57 67  1  0
 58 64  1  0
 58 60  1  0
 59 65  1  0
 60 59  1  0
 61 60  2  0
 62 63  1  0
 62 56  2  0
 63 58  2  0
 64 57  1  0
 65 55  1  0
 67 69  2  0
 68 67  1  0
 70 68  1  0
 71 80  2  0
 71 76  1  0
 72 68  1  0
 72 76  1  0
 73 72  1  0
 74 75  1  0
 74 73  1  0
 75 71  1  0
 76 77  2  0
 77 78  1  0
 79 78  2  0
 80 79  1  0
 81 55  1  0
 81 86  1  0
 81 82  1  0
 82 85  1  1
 82 83  1  0
 84 82  1  0
 86 89  1  0
 87 91  1  0
 87 86  1  0
 88 87  2  0
 91 90  1  0
 93 91  1  0
 93 94  1  0
 93 92  1  0
M  ISO  4  10 100  18 100  53 101  54 101
M  END
>  <TORSDO>  (17) 
F 25

>  <SCORE>  (17) 
-7.641

>  <name>  (17) 
18

>  <ligand_id>  (17) 
18

>  <original_smiles>  (17) 
[H]C([H])=C([H])C(=O)N(C([H])([H])C([H])([H])C([H])([H])N([H])C(=O)N1C([H])([H])C([H])([H])C([H])([H])C([H])(n2nc(-c3c([H])c([H])c(Oc4c([H])c([H])c(F)c([H])c4F)c([H])c3[H])c(C(=O)N([H])[H])c2N([H])[H])C1([H])[H])C([H])([H])C([H])([H])[N+]([H])([H])C([H])([H])C([H])([H])Oc1c([H])c([H])c2c(c1[H])C([H])([H])N(C(=O)C([H])(N([H])C(=O)C([H])(N([H])C([H])([H])[H])C([H])([H])[H])C(C([H])([H])[H])(C([H])([H])[H])C([H])([H])[H])C([H])(C(=O)N([H])C1([H])c3c([H])c([H])c([H])c([H])c3C([H])([H])C([H])([H])C1([H])[H])C2([H])[H]

>  <smiles>  (17) 
[H]C([H])=C([H])C(=O)N(C([H])([H])C([H])([H])C([H])([H])N([H])C(=O)N1C([H])([H])C([H])([H])C([H])([H])C([H])(n2nc(-c3c([H])c([H])c(Oc4c([H])c([H])c(F)c([H])c4F)c([H])c3[H])c(C(=O)N([H])[H])c2N([H])[H])C1([H])[H])C([H])([H])C([H])([H])[N+]([H])([H])C([H])([H])C([H])([H])Oc1c([H])c([H])c2c(c1[H])C([H])([H])N(C(=O)C([H])(N([H])C(=O)C([H])(N([H])C([H])([H])[H])C([H])([H])[H])C(C([H])([H])[H])(C([H])([H])[H])C([H])([H])[H])C([H])(C(=O)N([H])C1([H])c3c([H])c([H])c([H])c([H])c3C([H])([H])C([H])([H])C1([H])[H])C2([H])[H]

$$$$
19:0:0
     RDKit          3D

 97104  0  0  1  0  0  0  0  0999 V2000
  -28.8590  -21.9990   16.4570 C   0  0  0  0  0  2  0  0  0  0  0  0
  -28.4610  -21.3140   17.7750 C   0  0  0  0  0  2  0  0  0  0  0  0
  -29.4460  -20.2860   18.0800 N   0  0  0  0  0  0  0  0  0  0  0  0
  -30.3690  -20.7170   18.0990 H   0  0  0  0  0  0  0  0  0  0  0  0
  -29.1840  -19.6640   19.3750 C   0  0  0  0  0  2  0  0  0  0  0  0
  -30.4950  -19.0810   19.9440 C   0  0  0  0  0  2  0  0  0  0  0  0
  -30.2650  -17.9060   20.8060 N   0  0  0  0  0  4  0  0  0  0  0  0
  -29.6370  -18.1640   21.5500 H   0  0  0  0  0  0  0  0  0  0  0  0
  -29.8280  -17.1880   20.2550 H   0  0  0  0  0  0  0  0  0  0  0  0
  -31.5090  -17.3670   21.3960 C   0  0  0  0  0  2  0  0  0  0  0  0
  -31.2820  -16.0900   22.2340 C   0  0  0  0  0  2  0  0  0  0  0  0
  -30.8260  -14.3850   20.4780 C   0  0  0  0  0  0  0  0  0  0  0  0
  -30.3230  -12.4810   18.9950 C   0  0  0  0  0  2  0  0  0  0  0  0
  -29.3350  -12.8610   17.8770 C   0  0  0  0  0  2  0  0  0  0  0  0
  -27.8820  -12.7170   18.3620 C   0  0  0  0  0  2  0  0  0  0  0  0
  -27.6310  -13.4100   19.7270 C   0  0  0  0  0  3  0  0  0  0  0  0
  -28.7210  -13.0200   20.7500 C   0  0  0  0  0  2  0  0  0  0  0  0
  -30.0420  -13.3210   20.1670 N   0  0  0  0  0  0  0  0  0  0  0  0
  -31.8240  -14.7080   19.8310 O   0  0  0  0  0  0  0  0  0  0  0  0
  -30.4670  -15.0680   21.5710 N   0  0  0  0  0  0  0  0  0  0  0  0
  -29.6470  -14.7340   22.0580 H   0  0  0  0  0  0  0  0  0  0  0  0
  -25.2450  -13.9970   20.4980 C   0  0  0  0  0  0  0  0  0  0  0  0
  -24.1880  -13.2150   20.8760 C   0  0  0  0  0  0  0  0  0  0  0  0
  -24.6510  -11.8650   20.8020 C   0  0  0  0  0  0  0  0  0  0  0  0
  -26.2880  -13.1250   20.2280 N   0  0  0  0  0  0  0  0  0  0  0  0
  -25.9340  -11.8370   20.4650 N   0  0  0  0  0  0  0  0  0  0  0  0
  -23.9310  -10.5970   20.9800 C   0  0  0  0  0  0  0  0  0  0  0  0
  -24.3230   -9.6550   21.9570 C   0  0  0  0  0  3  0  0  0  0  0  0
  -23.6040   -8.4510   22.1190 C   0  0  0  0  0  3  0  0  0  0  0  0
  -22.4790   -8.1800   21.3030 C   0  0  0  0  0  0  0  0  0  0  0  0
  -22.1080   -9.1110   20.3180 C   0  0  0  0  0  3  0  0  0  0  0  0
  -22.8270  -10.3070   20.1540 C   0  0  0  0  0  3  0  0  0  0  0  0
  -21.7370   -7.0260   21.3750 O   0  0  0  0  0  0  0  0  0  0  0  0
  -21.5860   -6.3380   22.5520 C   0  0  0  0  0  0  0  0  0  0  0  0
  -20.9500   -6.9120   23.6740 C   0  0  0  0  0  3  0  0  0  0  0  0
  -20.7540   -6.1450   24.8400 C   0  0  0  0  0  3  0  0  0  0  0  0
  -21.1820   -4.8050   24.8830 C   0  0  0  0  0  0  0  0  0  0  0  0
  -21.8120   -4.2310   23.7650 C   0  0  0  0  0  3  0  0  0  0  0  0
  -22.0090   -4.9940   22.6000 C   0  0  0  0  0  0  0  0  0  0  0  0
  -22.5960   -4.4280   21.5170 F   0  0  0  0  0  0  0  0  0  0  0  0
  -20.9890   -4.0650   25.9990 F   0  0  0  0  0  0  0  0  0  0  0  0
  -22.7970  -13.6820   21.1930 C   0  0  0  0  0  0  0  0  0  0  0  0
  -22.0820  -12.9510   22.0440 N   0  0  0  0  0  0  0  0  0  0  0  0
  -22.3500  -14.7280   20.7240 O   0  0  0  0  0  0  0  0  0  0  0  0
  -22.4560  -12.1040   22.4460 H   0  0  0  0  0  0  0  0  0  0  0  0
  -21.1500  -13.2460   22.2990 H   0  0  0  0  0  0  0  0  0  0  0  0
  -25.3990  -15.3720   20.3380 N   0  0  0  0  0  0  0  0  0  0  0  0
  -24.6180  -16.0100   20.4440 H   0  0  0  0  0  0  0  0  0  0  0  0
  -26.2200  -15.8110   19.9450 H   0  0  0  0  0  0  0  0  0  0  0  0
  -28.3690  -23.4520   16.2890 C   0  0  0  0  0  2  0  0  0  0  0  0
  -29.1740  -24.4190   17.0730 N   0  0  0  0  0  4  0  0  0  0  0  0
  -29.3120  -25.2260   16.4850 H   0  0  0  0  0  0  0  0  0  0  0  0
  -30.0880  -24.0330   17.2480 H   0  0  0  0  0  0  0  0  0  0  0  0
  -28.5630  -24.9090   18.3280 C   0  0  0  0  0  2  0  0  0  0  0  0
  -29.5490  -24.8760   19.5130 C   0  0  0  0  0  2  0  0  0  0  0  0
  -28.9440  -25.3660   20.8440 C   0  0  0  0  0  2  0  0  0  0  0  0
  -28.8530  -26.7890   20.8940 O   0  0  0  0  0  0  0  0  0  0  0  0
  -24.7480  -31.9940   23.4340 C   0  0  0  0  0  0  0  0  0  0  0  0
  -27.6280  -27.4140   20.8080 C   0  0  0  0  0  0  0  0  0  0  0  0
  -23.6570  -30.4720   21.8160 C   0  0  0  0  0  3  0  0  0  0  0  0
  -25.2070  -28.8620   20.5930 C   0  0  0  0  0  0  0  0  0  0  0  0
  -26.1820  -30.8550   21.7430 C   0  0  0  0  0  2  0  0  0  0  0  0
  -26.3210  -29.4470   21.2060 C   0  0  0  0  0  0  0  0  0  0  0  0
  -27.5310  -28.7330   21.3060 C   0  0  0  0  0  3  0  0  0  0  0  0
  -26.4860  -26.8240   20.2180 C   0  0  0  0  0  3  0  0  0  0  0  0
  -25.2810  -27.5480   20.1020 C   0  0  0  0  0  3  0  0  0  0  0  0
  -23.9540  -29.7020   20.5030 C   0  0  0  0  0  2  0  0  0  0  0  0
  -24.8770  -31.1250   22.3920 N   0  0  0  0  0  0  0  0  0  0  0  0
  -23.6340  -32.2930   23.8830 O   0  0  0  0  0  0  0  0  0  0  0  0
  -22.9550  -29.5110   22.8020 C   0  0  0  0  0  0  0  0  0  0  0  0
  -21.6520  -29.2790   22.5840 N   0  0  0  0  0  0  0  0  0  0  0  0
  -23.5850  -28.9700   23.7150 O   0  0  0  0  0  0  0  0  0  0  0  0
  -21.2050  -29.7640   21.8180 H   0  0  0  0  0  0  0  0  0  0  0  0
  -18.2760  -28.0350   22.9120 C   0  0  0  0  0  0  0  0  0  0  0  0
  -20.8000  -28.3760   23.3550 C   0  0  0  0  0  3  0  0  0  0  0  0
  -20.9760  -26.9110   22.8920 C   0  0  0  0  0  2  0  0  0  0  0  0
  -19.9600  -26.4900   21.8240 C   0  0  0  0  0  2  0  0  0  0  0  0
  -18.5300  -26.6460   22.3490 C   0  0  0  0  0  2  0  0  0  0  0  0
  -19.3440  -28.8540   23.3680 C   0  0  0  0  0  0  0  0  0  0  0  0
  -19.0540  -30.1500   23.8470 C   0  0  0  0  0  3  0  0  0  0  0  0
  -17.7320  -30.6300   23.8760 C   0  0  0  0  0  3  0  0  0  0  0  0
  -16.6780  -29.8120   23.4360 C   0  0  0  0  0  3  0  0  0  0  0  0
  -16.9500  -28.5160   22.9610 C   0  0  0  0  0  3  0  0  0  0  0  0
  -25.9890  -32.6770   24.0890 C   0  0  0  0  0  3  0  0  0  0  0  0
  -25.6380  -34.0820   24.3440 N   0  0  0  0  0  0  0  0  0  0  0  0
  -25.9710  -35.1020   23.5430 C   0  0  0  0  0  0  0  0  0  0  0  0
  -26.6710  -34.9640   22.5370 O   0  0  0  0  0  0  0  0  0  0  0  0
  -25.0150  -34.2610   25.1180 H   0  0  0  0  0  0  0  0  0  0  0  0
  -24.2080  -36.8260   23.0520 C   0  0  0  0  0  1  0  0  0  0  0  0
  -25.4380  -36.4990   23.9150 C   0  0  0  0  0  3  0  0  0  0  0  0
  -27.5210  -37.4910   24.7580 C   0  0  0  0  0  1  0  0  0  0  0  0
  -26.4470  -37.5700   23.7710 N   0  0  0  0  0  0  0  0  0  0  0  0
  -26.0140  -38.4860   23.8510 H   0  0  0  0  0  0  0  0  0  0  0  0
  -26.4600  -31.9720   25.4220 C   0  0  1  0  0  0  0  0  0  0  0  0
  -25.3150  -31.7330   26.4340 C   0  0  0  0  0  1  0  0  0  0  0  0
  -27.1110  -30.6030   25.1100 C   0  0  0  0  0  1  0  0  0  0  0  0
  -27.5420  -32.8320   26.1150 C   0  0  0  0  0  1  0  0  0  0  0  0
  1  2  1  0
  2  3  1  0
  3  4  1  0
  3  5  1  0
  5  6  1  0
  6  7  1  0
  7 10  1  0
  7  8  1  0
  9  7  1  0
 10 11  1  0
 12 20  1  0
 13 18  1  0
 14 15  1  0
 14 13  1  0
 16 15  1  0
 16 25  1  0
 16 17  1  0
 18 12  1  0
 18 17  1  0
 19 12  2  0
 20 21  1  0
 20 11  1  0
 22 23  2  0
 23 42  1  0
 24 23  1  0
 24 27  1  0
 25 26  1  0
 25 22  1  0
 26 24  2  0
 27 28  1  0
 28 29  2  0
 30 33  1  0
 30 29  1  0
 31 30  2  0
 32 31  1  0
 32 27  2  0
 33 34  1  0
 34 39  2  0
 34 35  1  0
 35 36  2  0
 36 37  1  0
 37 41  1  0
 38 37  2  0
 39 38  1  0
 40 39  1  0
 42 43  1  0
 43 46  1  0
 43 45  1  0
 44 42  2  0
 47 48  1  0
 47 22  1  0
 49 47  1  0
 50  1  1  0
 50 51  1  0
 51 53  1  0
 51 54  1  0
 52 51  1  0
 54 55  1  0
 55 56  1  0
 56 57  1  0
 58 69  2  0
 59 57  1  0
 59 64  1  0
 60 68  1  0
 60 70  1  0
 61 63  1  0
 62 68  1  0
 63 64  2  0
 63 62  1  0
 65 59  2  0
 66 65  1  0
 66 61  2  0
 67 61  1  0
 67 60  1  0
 68 58  1  0
 70 72  2  0
 71 70  1  0
 73 71  1  0
 74 83  2  0
 74 79  1  0
 75 71  1  0
 75 79  1  0
 76 75  1  0
 77 78  1  0
 77 76  1  0
 78 74  1  0
 79 80  2  0
 80 81  1  0
 82 81  2  0
 83 82  1  0
 84 58  1  0
 84 85  1  0
 84 94  1  0
 85 88  1  0
 86 90  1  0
 86 85  1  0
 87 86  2  0
 90 89  1  0
 92 93  1  0
 92 90  1  0
 92 91  1  0
 94 97  1  1
 94 95  1  0
 96 94  1  0
M  ISO  4  12 100  20 100  56 101  57 101
M  END
>  <TORSDO>  (18) 
F 28

>  <SCORE>  (18) 
-9.898

>  <name>  (18) 
19

>  <ligand_id>  (18) 
19

>  <original_smiles>  (18) 
[H]c1c([H])c([H])c2c(c1[H])C([H])([H])C([H])([H])C([H])([H])C2([H])N([H])C(=O)C1([H])N(C(=O)C([H])(N([H])C(=O)C([H])(N([H])C([H])([H])[H])C([H])([H])[H])C(C([H])([H])[H])(C([H])([H])[H])C([H])([H])[H])C([H])([H])c2c([H])c(OC([H])([H])C([H])([H])C([H])([H])[N+]([H])([H])C([H])([H])C([H])([H])C([H])([H])N([H])C([H])([H])C([H])([H])[N+]([H])([H])C([H])([H])C([H])([H])N([H])C(=O)N3C([H])([H])C([H])([H])C([H])([H])C([H])(n4nc(-c5c([H])c([H])c(Oc6c([H])c([H])c(F)c([H])c6F)c([H])c5[H])c(C(=O)N([H])[H])c4N([H])[H])C3([H])[H])c([H])c([H])c2C1([H])[H]

>  <smiles>  (18) 
[H]c1c([H])c([H])c2c(c1[H])C([H])([H])C([H])([H])C([H])([H])C2([H])N([H])C(=O)C1([H])N(C(=O)C([H])(N([H])C(=O)C([H])(N([H])C([H])([H])[H])C([H])([H])[H])C(C([H])([H])[H])(C([H])([H])[H])C([H])([H])[H])C([H])([H])c2c([H])c(OC([H])([H])C([H])([H])C([H])([H])[N+]([H])([H])C([H])([H])C([H])([H])C([H])([H])N([H])C([H])([H])C([H])([H])[N+]([H])([H])C([H])([H])C([H])([H])N([H])C(=O)N3C([H])([H])C([H])([H])C([H])([H])C([H])(n4nc(-c5c([H])c([H])c(Oc6c([H])c([H])c(F)c([H])c6F)c([H])c5[H])c(C(=O)N([H])[H])c4N([H])[H])C3([H])[H])c([H])c([H])c2C1([H])[H]

$$$$
20:0:0
     RDKit          3D

 93100  0  0  1  0  0  0  0  0999 V2000
  -27.7830  -21.9970   20.4780 C   0  0  0  0  0  2  0  0  0  0  0  0
  -28.2750  -23.2030   19.7750 N   0  0  0  0  0  4  0  0  0  0  0  0
  -27.7070  -23.3430   18.9550 H   0  0  0  0  0  0  0  0  0  0  0  0
  -29.2190  -23.0310   19.4640 H   0  0  0  0  0  0  0  0  0  0  0  0
  -28.2380  -24.4350   20.5980 C   0  0  0  0  0  2  0  0  0  0  0  0
  -28.9770  -25.6140   19.9300 C   0  0  0  0  0  2  0  0  0  0  0  0
  -28.7670  -26.8260   20.6560 O   0  0  0  0  0  0  0  0  0  0  0  0
  -24.6640  -31.9180   23.4110 C   0  0  0  0  0  0  0  0  0  0  0  0
  -27.5540  -27.4790   20.5650 C   0  0  0  0  0  0  0  0  0  0  0  0
  -23.5780  -30.4790   21.7180 C   0  0  0  0  0  3  0  0  0  0  0  0
  -25.1350  -28.9400   20.4140 C   0  0  0  0  0  0  0  0  0  0  0  0
  -26.1050  -30.8700   21.6720 C   0  0  0  0  0  2  0  0  0  0  0  0
  -26.2450  -29.4900   21.0640 C   0  0  0  0  0  0  0  0  0  0  0  0
  -27.4540  -28.7660   21.1400 C   0  0  0  0  0  3  0  0  0  0  0  0
  -26.4160  -26.9350   19.9180 C   0  0  0  0  0  3  0  0  0  0  0  0
  -25.2130  -27.6590   19.8430 C   0  0  0  0  0  3  0  0  0  0  0  0
  -23.8810  -29.7830   20.3650 C   0  0  0  0  0  2  0  0  0  0  0  0
  -24.7970  -31.1030   22.3270 N   0  0  0  0  0  0  0  0  0  0  0  0
  -23.5480  -32.1860   23.8780 O   0  0  0  0  0  0  0  0  0  0  0  0
  -22.8810  -29.4630   22.6500 C   0  0  0  0  0  0  0  0  0  0  0  0
  -21.5690  -29.2630   22.4380 N   0  0  0  0  0  0  0  0  0  0  0  0
  -23.5160  -28.8570   23.5160 O   0  0  0  0  0  0  0  0  0  0  0  0
  -21.1180  -29.8000   21.7110 H   0  0  0  0  0  0  0  0  0  0  0  0
  -18.1790  -28.0600   22.7480 C   0  0  0  0  0  0  0  0  0  0  0  0
  -20.7140  -28.3290   23.1680 C   0  0  0  0  0  3  0  0  0  0  0  0
  -20.8560  -26.8930   22.6140 C   0  0  0  0  0  2  0  0  0  0  0  0
  -19.8180  -26.5550   21.5410 C   0  0  0  0  0  2  0  0  0  0  0  0
  -18.3990  -26.7040   22.0990 C   0  0  0  0  0  2  0  0  0  0  0  0
  -19.2660  -28.8300   23.2360 C   0  0  0  0  0  0  0  0  0  0  0  0
  -19.0110  -30.1000   23.7980 C   0  0  0  0  0  3  0  0  0  0  0  0
  -17.6970  -30.5980   23.8820 C   0  0  0  0  0  3  0  0  0  0  0  0
  -16.6220  -29.8250   23.4120 C   0  0  0  0  0  3  0  0  0  0  0  0
  -16.8630  -28.5570   22.8500 C   0  0  0  0  0  3  0  0  0  0  0  0
  -25.9030  -32.5710   24.1010 C   0  0  0  0  0  3  0  0  0  0  0  0
  -25.5650  -33.9720   24.3790 N   0  0  0  0  0  0  0  0  0  0  0  0
  -25.9270  -35.0080   23.6100 C   0  0  0  0  0  0  0  0  0  0  0  0
  -26.6510  -34.8860   22.6190 O   0  0  0  0  0  0  0  0  0  0  0  0
  -24.9270  -34.1410   25.1430 H   0  0  0  0  0  0  0  0  0  0  0  0
  -24.1890  -36.7620   23.1310 C   0  0  0  0  0  1  0  0  0  0  0  0
  -25.4010  -36.4010   24.0050 C   0  0  0  0  0  3  0  0  0  0  0  0
  -27.4860  -37.3420   24.8960 C   0  0  0  0  0  1  0  0  0  0  0  0
  -26.4220  -37.4660   23.9030 N   0  0  0  0  0  0  0  0  0  0  0  0
  -25.9970  -38.3830   24.0060 H   0  0  0  0  0  0  0  0  0  0  0  0
  -26.3430  -31.8260   25.4210 C   0  0  1  0  0  0  0  0  0  0  0  0
  -25.1770  -31.5560   26.3990 C   0  0  0  0  0  1  0  0  0  0  0  0
  -27.0040  -30.4680   25.0870 C   0  0  0  0  0  1  0  0  0  0  0  0
  -27.4090  -32.6650   26.1650 C   0  0  0  0  0  1  0  0  0  0  0  0
  -27.7150  -20.7780   19.5420 C   0  0  0  0  0  2  0  0  0  0  0  0
  -27.5670  -19.4350   20.2820 C   0  0  0  0  0  2  0  0  0  0  0  0
  -29.5890  -17.9950   20.3460 C   0  0  0  0  0  0  0  0  0  0  0  0
  -28.8270  -18.9690   20.8610 N   0  0  0  0  0  0  0  0  0  0  0  0
  -29.3110  -17.4380   19.2810 O   0  0  0  0  0  0  0  0  0  0  0  0
  -29.1060  -19.3640   21.7510 H   0  0  0  0  0  0  0  0  0  0  0  0
  -30.8390  -17.5850   21.1420 C   0  0  0  0  0  2  0  0  0  0  0  0
  -30.9460  -16.0640   21.4100 C   0  0  0  0  0  2  0  0  0  0  0  0
  -32.3990  -14.2040   20.4670 C   0  0  0  0  0  0  0  0  0  0  0  0
  -32.0130  -11.8340   19.9340 C   0  0  0  0  0  2  0  0  0  0  0  0
  -31.1620  -11.7460   18.6490 C   0  0  0  0  0  2  0  0  0  0  0  0
  -29.6550  -11.8400   18.9710 C   0  0  0  0  0  2  0  0  0  0  0  0
  -29.3170  -13.0140   19.9300 C   0  0  0  0  0  3  0  0  0  0  0  0
  -30.2740  -12.9840   21.1420 C   0  0  0  0  0  2  0  0  0  0  0  0
  -31.6440  -13.0820   20.6230 N   0  0  0  0  0  0  0  0  0  0  0  0
  -33.5560  -14.1740   20.0440 O   0  0  0  0  0  0  0  0  0  0  0  0
  -31.7520  -15.3790   20.3960 N   0  0  0  0  0  0  0  0  0  0  0  0
  -32.2670  -16.0290   19.8210 H   0  0  0  0  0  0  0  0  0  0  0  0
  -27.0300  -14.0320   20.5330 C   0  0  0  0  0  0  0  0  0  0  0  0
  -25.8260  -13.4550   20.8410 C   0  0  0  0  0  0  0  0  0  0  0  0
  -26.0450  -12.0440   20.8030 C   0  0  0  0  0  0  0  0  0  0  0  0
  -27.9150  -12.9830   20.3380 N   0  0  0  0  0  0  0  0  0  0  0  0
  -27.3200  -11.7820   20.5500 N   0  0  0  0  0  0  0  0  0  0  0  0
  -25.1020  -10.9260   20.9380 C   0  0  0  0  0  0  0  0  0  0  0  0
  -25.3140   -9.8930   21.8770 C   0  0  0  0  0  3  0  0  0  0  0  0
  -24.3860   -8.8370   22.0010 C   0  0  0  0  0  3  0  0  0  0  0  0
  -23.2300   -8.8080   21.1830 C   0  0  0  0  0  0  0  0  0  0  0  0
  -23.0370   -9.8280   20.2350 C   0  0  0  0  0  3  0  0  0  0  0  0
  -23.9650  -10.8760   20.1090 C   0  0  0  0  0  3  0  0  0  0  0  0
  -22.2880   -7.8090   21.2160 O   0  0  0  0  0  0  0  0  0  0  0  0
  -22.0340   -7.0950   22.3580 C   0  0  0  0  0  0  0  0  0  0  0  0
  -21.6330   -7.7250   23.5560 C   0  0  0  0  0  3  0  0  0  0  0  0
  -21.3150   -6.9470   24.6880 C   0  0  0  0  0  3  0  0  0  0  0  0
  -21.3890   -5.5420   24.6220 C   0  0  0  0  0  0  0  0  0  0  0  0
  -21.7820   -4.9140   23.4280 C   0  0  0  0  0  3  0  0  0  0  0  0
  -22.1020   -5.6870   22.2990 C   0  0  0  0  0  0  0  0  0  0  0  0
  -22.4600   -5.0750   21.1440 F   0  0  0  0  0  0  0  0  0  0  0  0
  -21.0760   -4.7950   25.7060 F   0  0  0  0  0  0  0  0  0  0  0  0
  -24.5230  -14.1660   21.0660 C   0  0  0  0  0  0  0  0  0  0  0  0
  -23.6680  -13.6180   21.9230 N   0  0  0  0  0  0  0  0  0  0  0  0
  -24.2740  -15.2390   20.5190 O   0  0  0  0  0  0  0  0  0  0  0  0
  -23.8820  -12.7460   22.3870 H   0  0  0  0  0  0  0  0  0  0  0  0
  -22.7890  -14.0750   22.1190 H   0  0  0  0  0  0  0  0  0  0  0  0
  -27.4370  -15.3550   20.3890 N   0  0  0  0  0  0  0  0  0  0  0  0
  -26.7880  -16.1300   20.4650 H   0  0  0  0  0  0  0  0  0  0  0  0
  -28.3800  -15.6550   20.1560 H   0  0  0  0  0  0  0  0  0  0  0  0
  2  1  1  0
  2  5  1  0
  3  2  1  0
  4  2  1  0
  6  5  1  0
  6  7  1  0
  8 19  2  0
  9  7  1  0
  9 14  1  0
 10 18  1  0
 10 20  1  0
 11 13  1  0
 12 18  1  0
 13 14  2  0
 13 12  1  0
 15  9  2  0
 16 15  1  0
 16 11  2  0
 17 11  1  0
 17 10  1  0
 18  8  1  0
 20 22  2  0
 21 20  1  0
 23 21  1  0
 24 33  2  0
 24 29  1  0
 25 21  1  0
 25 29  1  0
 26 25  1  0
 27 28  1  0
 27 26  1  0
 28 24  1  0
 29 30  2  0
 30 31  1  0
 32 31  2  0
 33 32  1  0
 34  8  1  0
 34 35  1  0
 34 44  1  0
 35 38  1  0
 36 40  1  0
 36 35  1  0
 37 36  2  0
 40 39  1  0
 42 40  1  0
 42 43  1  0
 42 41  1  0
 44 47  1  1
 44 45  1  0
 46 44  1  0
 48 49  1  0
 48  1  1  0
 49 51  1  0
 50 51  1  0
 50 54  1  0
 51 53  1  0
 52 50  2  0
 54 55  1  0
 56 62  1  0
 57 62  1  0
 58 59  1  0
 58 57  1  0
 60 59  1  0
 60 69  1  0
 60 61  1  0
 62 61  1  0
 63 56  2  0
 64 56  1  0
 64 55  1  0
 65 64  1  0
 66 67  2  0
 67 86  1  0
 68 67  1  0
 68 71  1  0
 69 66  1  0
 69 70  1  0
 70 68  2  0
 71 72  1  0
 72 73  2  0
 74 77  1  0
 74 73  1  0
 75 74  2  0
 76 75  1  0
 76 71  2  0
 77 78  1  0
 78 79  1  0
 79 80  2  0
 81 80  1  0
 81 85  1  0
 82 81  2  0
 83 78  2  0
 83 82  1  0
 84 83  1  0
 86 87  1  0
 87 90  1  0
 87 89  1  0
 88 86  2  0
 91 92  1  0
 91 66  1  0
 93 91  1  0
M  ISO  4   6 101   7 101  56 100  64 100
M  END
>  <TORSDO>  (19) 
F 24

>  <SCORE>  (19) 
-11.228

>  <name>  (19) 
20

>  <ligand_id>  (19) 
20

>  <original_smiles>  (19) 
[H]c1c([H])c([H])c2c(c1[H])C([H])([H])C([H])([H])C([H])([H])C2([H])N([H])C(=O)C1([H])N(C(=O)C([H])(N([H])C(=O)C([H])(N([H])C([H])([H])[H])C([H])([H])[H])C(C([H])([H])[H])(C([H])([H])[H])C([H])([H])[H])C([H])([H])c2c([H])c(OC([H])([H])C([H])([H])[N+]([H])([H])C([H])([H])C([H])([H])C([H])([H])N([H])C(=O)C([H])([H])C([H])([H])N([H])C(=O)N3C([H])([H])C([H])([H])C([H])([H])C([H])(n4nc(-c5c([H])c([H])c(Oc6c([H])c([H])c(F)c([H])c6F)c([H])c5[H])c(C(=O)N([H])[H])c4N([H])[H])C3([H])[H])c([H])c([H])c2C1([H])[H]

>  <smiles>  (19) 
[H]c1c([H])c([H])c2c(c1[H])C([H])([H])C([H])([H])C([H])([H])C2([H])N([H])C(=O)C1([H])N(C(=O)C([H])(N([H])C(=O)C([H])(N([H])C([H])([H])[H])C([H])([H])[H])C(C([H])([H])[H])(C([H])([H])[H])C([H])([H])[H])C([H])([H])c2c([H])c(OC([H])([H])C([H])([H])[N+]([H])([H])C([H])([H])C([H])([H])C([H])([H])N([H])C(=O)C([H])([H])C([H])([H])N([H])C(=O)N3C([H])([H])C([H])([H])C([H])([H])C([H])(n4nc(-c5c([H])c([H])c(Oc6c([H])c([H])c(F)c([H])c6F)c([H])c5[H])c(C(=O)N([H])[H])c4N([H])[H])C3([H])[H])c([H])c([H])c2C1([H])[H]

$$$$
21:0:0
     RDKit          3D

 96103  0  0  1  0  0  0  0  0999 V2000
  -30.6040  -22.5100   15.5970 C   0  0  0  0  0  2  0  0  0  0  0  0
  -30.8270  -24.4690   17.0770 C   0  0  0  0  0  0  0  0  0  0  0  0
  -30.2640  -23.8560   16.0330 N   0  0  0  0  0  0  0  0  0  0  0  0
  -31.8370  -24.0430   17.6420 O   0  0  0  0  0  0  0  0  0  0  0  0
  -29.4350  -24.2720   15.6290 H   0  0  0  0  0  0  0  0  0  0  0  0
  -30.0600  -25.6230   17.4850 C   0  0  0  0  0  3  0  0  0  0  0  0
  -30.2210  -26.1250   18.7220 C   0  0  0  0  0  3  0  0  0  0  0  0
  -29.4120  -27.2700   19.2670 C   0  0  0  0  0  2  0  0  0  0  0  0
  -28.4410  -26.7340   20.1490 O   0  0  0  0  0  0  0  0  0  0  0  0
  -24.6040  -31.8450   23.2390 C   0  0  0  0  0  0  0  0  0  0  0  0
  -27.2810  -27.4510   20.1820 C   0  0  0  0  0  0  0  0  0  0  0  0
  -23.4120  -30.4440   21.5840 C   0  0  0  0  0  3  0  0  0  0  0  0
  -24.8810  -28.9120   20.1740 C   0  0  0  0  0  0  0  0  0  0  0  0
  -25.9320  -30.8230   21.4000 C   0  0  0  0  0  2  0  0  0  0  0  0
  -26.0280  -29.4530   20.7680 C   0  0  0  0  0  0  0  0  0  0  0  0
  -27.2340  -28.7270   20.7760 C   0  0  0  0  0  3  0  0  0  0  0  0
  -26.1220  -26.9020   19.6000 C   0  0  0  0  0  3  0  0  0  0  0  0
  -24.9190  -27.6330   19.5880 C   0  0  0  0  0  3  0  0  0  0  0  0
  -23.6340  -29.7650   20.2050 C   0  0  0  0  0  2  0  0  0  0  0  0
  -24.6670  -31.0510   22.1350 N   0  0  0  0  0  0  0  0  0  0  0  0
  -23.5180  -32.1160   23.7720 O   0  0  0  0  0  0  0  0  0  0  0  0
  -22.7580  -29.4200   22.5370 C   0  0  0  0  0  0  0  0  0  0  0  0
  -21.4350  -29.2410   22.4020 N   0  0  0  0  0  0  0  0  0  0  0  0
  -23.4360  -28.7890   23.3520 O   0  0  0  0  0  0  0  0  0  0  0  0
  -20.9500  -29.8010   21.7160 H   0  0  0  0  0  0  0  0  0  0  0  0
  -18.0510  -28.0730   22.8820 C   0  0  0  0  0  0  0  0  0  0  0  0
  -20.6100  -28.3030   23.1630 C   0  0  0  0  0  3  0  0  0  0  0  0
  -20.7020  -26.8780   22.5720 C   0  0  0  0  0  2  0  0  0  0  0  0
  -19.5980  -26.5760   21.5530 C   0  0  0  0  0  2  0  0  0  0  0  0
  -18.2160  -26.7290   22.1950 C   0  0  0  0  0  2  0  0  0  0  0  0
  -19.1760  -28.8200   23.3230 C   0  0  0  0  0  0  0  0  0  0  0  0
  -18.9680  -30.0810   23.9220 C   0  0  0  0  0  3  0  0  0  0  0  0
  -17.6680  -30.5930   24.0900 C   0  0  0  0  0  3  0  0  0  0  0  0
  -16.5580  -29.8430   23.6670 C   0  0  0  0  0  3  0  0  0  0  0  0
  -16.7500  -28.5850   23.0690 C   0  0  0  0  0  3  0  0  0  0  0  0
  -25.8860  -32.4770   23.8700 C   0  0  0  0  0  3  0  0  0  0  0  0
  -26.3940  -31.7020   25.1470 C   0  0  1  0  0  0  0  0  0  0  0  0
  -25.2940  -31.4580   26.2060 C   0  0  0  0  0  1  0  0  0  0  0  0
  -26.9800  -30.3270   24.7500 C   0  0  0  0  0  1  0  0  0  0  0  0
  -27.5370  -32.4970   25.8220 C   0  0  0  0  0  1  0  0  0  0  0  0
  -25.5760  -33.8750   24.1960 N   0  0  0  0  0  0  0  0  0  0  0  0
  -25.9200  -34.9240   23.4400 C   0  0  0  0  0  0  0  0  0  0  0  0
  -26.6020  -34.8180   22.4180 O   0  0  0  0  0  0  0  0  0  0  0  0
  -24.9720  -34.0310   24.9890 H   0  0  0  0  0  0  0  0  0  0  0  0
  -24.2010  -36.7180   23.0540 C   0  0  0  0  0  1  0  0  0  0  0  0
  -25.4270  -36.3130   23.8880 C   0  0  0  0  0  3  0  0  0  0  0  0
  -27.5500  -37.1910   24.7530 C   0  0  0  0  0  1  0  0  0  0  0  0
  -26.4620  -37.3640   23.7950 N   0  0  0  0  0  0  0  0  0  0  0  0
  -26.0560  -38.2840   23.9410 H   0  0  0  0  0  0  0  0  0  0  0  0
  -29.7150  -21.4900   16.3260 C   0  0  0  0  0  2  0  0  0  0  0  0
  -30.4640  -20.1940   16.6510 C   0  0  0  0  0  2  0  0  0  0  0  0
  -29.6050  -19.2200   17.4690 C   0  0  0  0  0  2  0  0  0  0  0  0
  -30.4200  -18.1020   17.9820 N   0  0  0  0  0  4  0  0  0  0  0  0
  -31.1280  -18.4510   18.6100 H   0  0  0  0  0  0  0  0  0  0  0  0
  -30.8990  -17.6940   17.1960 H   0  0  0  0  0  0  0  0  0  0  0  0
  -29.6440  -17.0360   18.6490 C   0  0  0  0  0  2  0  0  0  0  0  0
  -29.1940  -17.4000   20.0860 C   0  0  0  0  0  2  0  0  0  0  0  0
  -30.0960  -16.8700   21.2230 C   0  0  0  0  0  2  0  0  0  0  0  0
  -30.6990  -14.4900   20.7650 C   0  0  0  0  0  0  0  0  0  0  0  0
  -30.4470  -12.3870   19.5100 C   0  0  0  0  0  2  0  0  0  0  0  0
  -29.5360  -12.6330   18.2890 C   0  0  0  0  0  2  0  0  0  0  0  0
  -28.0490  -12.4930   18.6680 C   0  0  0  0  0  2  0  0  0  0  0  0
  -27.6820  -13.2980   19.9420 C   0  0  0  0  0  3  0  0  0  0  0  0
  -28.6930  -13.0050   21.0750 C   0  0  0  0  0  2  0  0  0  0  0  0
  -30.0460  -13.3170   20.5750 N   0  0  0  0  0  0  0  0  0  0  0  0
  -31.7990  -14.7570   20.2720 O   0  0  0  0  0  0  0  0  0  0  0  0
  -29.9520  -15.4240   21.3620 N   0  0  0  0  0  0  0  0  0  0  0  0
  -29.0920  -15.0950   21.7800 H   0  0  0  0  0  0  0  0  0  0  0  0
  -25.2490  -13.9140   20.5190 C   0  0  0  0  0  0  0  0  0  0  0  0
  -24.1680  -13.1440   20.8520 C   0  0  0  0  0  0  0  0  0  0  0  0
  -24.6340  -11.7950   20.8660 C   0  0  0  0  0  0  0  0  0  0  0  0
  -26.3090  -13.0350   20.3610 N   0  0  0  0  0  0  0  0  0  0  0  0
  -25.9370  -11.7550   20.6230 N   0  0  0  0  0  0  0  0  0  0  0  0
  -23.9060  -10.5350   21.0500 C   0  0  0  0  0  0  0  0  0  0  0  0
  -24.3130   -9.5840   22.0130 C   0  0  0  0  0  3  0  0  0  0  0  0
  -23.5930   -8.3800   22.1790 C   0  0  0  0  0  3  0  0  0  0  0  0
  -22.4500   -8.1220   21.3830 C   0  0  0  0  0  0  0  0  0  0  0  0
  -22.0640   -9.0620   20.4110 C   0  0  0  0  0  3  0  0  0  0  0  0
  -22.7840  -10.2570   20.2440 C   0  0  0  0  0  3  0  0  0  0  0  0
  -21.6990   -6.9750   21.4600 O   0  0  0  0  0  0  0  0  0  0  0  0
  -21.6190   -6.2450   22.6190 C   0  0  0  0  0  0  0  0  0  0  0  0
  -21.1490   -6.8100   23.8250 C   0  0  0  0  0  3  0  0  0  0  0  0
  -21.0210   -6.0050   24.9750 C   0  0  0  0  0  3  0  0  0  0  0  0
  -21.3470   -4.6360   24.9170 C   0  0  0  0  0  0  0  0  0  0  0  0
  -21.8050   -4.0720   23.7140 C   0  0  0  0  0  3  0  0  0  0  0  0
  -21.9400   -4.8740   22.5680 C   0  0  0  0  0  0  0  0  0  0  0  0
  -22.3630   -4.3210   21.4050 F   0  0  0  0  0  0  0  0  0  0  0  0
  -21.2120   -3.8580   26.0190 F   0  0  0  0  0  0  0  0  0  0  0  0
  -22.7580  -13.6170   21.0590 C   0  0  0  0  0  0  0  0  0  0  0  0
  -21.9960  -12.9270   21.9010 N   0  0  0  0  0  0  0  0  0  0  0  0
  -22.3370  -14.6360   20.5080 O   0  0  0  0  0  0  0  0  0  0  0  0
  -22.3430  -12.1050   22.3710 H   0  0  0  0  0  0  0  0  0  0  0  0
  -21.0490  -13.2270   22.0780 H   0  0  0  0  0  0  0  0  0  0  0  0
  -25.4160  -15.2810   20.3230 N   0  0  0  0  0  0  0  0  0  0  0  0
  -24.6380  -15.9310   20.3730 H   0  0  0  0  0  0  0  0  0  0  0  0
  -26.2810  -15.7210   20.0390 H   0  0  0  0  0  0  0  0  0  0  0  0
  1  3  1  0
  1 50  1  0
  2  6  1  0
  2  4  2  0
  3  2  1  0
  5  3  1  0
  6  7  2  0
  7  8  1  0
  8  9  1  0
  9 11  1  0
 10 21  2  0
 11 16  1  0
 12 20  1  0
 12 22  1  0
 13 19  1  0
 13 15  1  0
 14 20  1  0
 15 16  2  0
 15 14  1  0
 17 11  2  0
 18 17  1  0
 18 13  2  0
 19 12  1  0
 20 10  1  0
 22 24  2  0
 23 22  1  0
 25 23  1  0
 26 35  2  0
 26 31  1  0
 27 23  1  0
 27 31  1  0
 28 27  1  0
 29 30  1  0
 29 28  1  0
 30 26  1  0
 31 32  2  0
 32 33  1  0
 34 33  2  0
 35 34  1  0
 36 10  1  0
 36 41  1  0
 36 37  1  0
 37 40  1  1
 37 38  1  0
 39 37  1  0
 41 44  1  0
 42 46  1  0
 42 41  1  0
 43 42  2  0
 46 45  1  0
 48 46  1  0
 48 49  1  0
 48 47  1  0
 50 51  1  0
 51 52  1  0
 52 53  1  0
 53 54  1  0
 53 56  1  0
 55 53  1  0
 56 57  1  0
 57 58  1  0
 58 67  1  0
 59 67  1  0
 60 65  1  0
 61 62  1  0
 61 60  1  0
 63 62  1  0
 63 72  1  0
 63 64  1  0
 65 59  1  0
 65 64  1  0
 66 59  2  0
 67 68  1  0
 69 70  2  0
 70 71  1  0
 70 89  1  0
 71 74  1  0
 72 69  1  0
 72 73  1  0
 73 71  2  0
 74 75  1  0
 75 76  2  0
 77 80  1  0
 77 76  1  0
 78 77  2  0
 79 78  1  0
 79 74  2  0
 80 81  1  0
 81 82  1  0
 82 83  2  0
 84 83  1  0
 84 88  1  0
 85 84  2  0
 86 81  2  0
 86 85  1  0
 87 86  1  0
 89 90  1  0
 90 93  1  0
 90 92  1  0
 91 89  2  0
 94 95  1  0
 94 69  1  0
 96 94  1  0
M  ISO  4   8 101   9 101  59 100  67 100
M  END
>  <TORSDO>  (20) 
F 26

>  <SCORE>  (20) 
-11.714

>  <name>  (20) 
21

>  <ligand_id>  (20) 
21

>  <original_smiles>  (20) 
[H]C(C(=O)N([H])C([H])([H])C([H])([H])C([H])([H])C([H])([H])[N+]([H])([H])C([H])([H])C([H])([H])C([H])([H])N([H])C(=O)N1C([H])([H])C([H])([H])C([H])([H])C([H])(n2nc(-c3c([H])c([H])c(Oc4c([H])c([H])c(F)c([H])c4F)c([H])c3[H])c(C(=O)N([H])[H])c2N([H])[H])C1([H])[H])=C([H])C([H])([H])Oc1c([H])c([H])c2c(c1[H])C([H])([H])N(C(=O)C([H])(N([H])C(=O)C([H])(N([H])C([H])([H])[H])C([H])([H])[H])C(C([H])([H])[H])(C([H])([H])[H])C([H])([H])[H])C([H])(C(=O)N([H])C1([H])c3c([H])c([H])c([H])c([H])c3C([H])([H])C([H])([H])C1([H])[H])C2([H])[H]

>  <smiles>  (20) 
[H]C(C(=O)N([H])C([H])([H])C([H])([H])C([H])([H])C([H])([H])[N+]([H])([H])C([H])([H])C([H])([H])C([H])([H])N([H])C(=O)N1C([H])([H])C([H])([H])C([H])([H])C([H])(n2nc(-c3c([H])c([H])c(Oc4c([H])c([H])c(F)c([H])c4F)c([H])c3[H])c(C(=O)N([H])[H])c2N([H])[H])C1([H])[H])=C([H])C([H])([H])Oc1c([H])c([H])c2c(c1[H])C([H])([H])N(C(=O)C([H])(N([H])C(=O)C([H])(N([H])C([H])([H])[H])C([H])([H])[H])C(C([H])([H])[H])(C([H])([H])[H])C([H])([H])[H])C([H])(C(=O)N([H])C1([H])c3c([H])c([H])c([H])c([H])c3C([H])([H])C([H])([H])C1([H])[H])C2([H])[H]

$$$$
22:0:0
     RDKit          3D

 96103  0  0  1  0  0  0  0  0999 V2000
  -32.0200  -23.9500   18.8470 C   0  0  0  0  0  2  0  0  0  0  0  0
  -31.3770  -25.3500   18.7880 C   0  0  0  0  0  2  0  0  0  0  0  0
  -32.1040  -26.3910   19.5510 N   0  0  0  0  0  4  0  0  0  0  0  0
  -32.3020  -26.0930   20.4920 H   0  0  0  0  0  0  0  0  0  0  0  0
  -32.9940  -26.5340   19.0940 H   0  0  0  0  0  0  0  0  0  0  0  0
  -31.3990  -27.6960   19.5830 C   0  0  0  0  0  2  0  0  0  0  0  0
  -30.6040  -27.9630   20.8830 C   0  0  0  0  0  2  0  0  0  0  0  0
  -29.4640  -26.9710   21.2350 C   0  0  0  0  0  2  0  0  0  0  0  0
  -28.5020  -26.7460   20.1900 O   0  0  0  0  0  0  0  0  0  0  0  0
  -24.6170  -31.8670   23.2310 C   0  0  0  0  0  0  0  0  0  0  0  0
  -27.3310  -27.4740   20.2120 C   0  0  0  0  0  0  0  0  0  0  0  0
  -23.4160  -30.4470   21.5930 C   0  0  0  0  0  3  0  0  0  0  0  0
  -24.8880  -28.9040   20.1850 C   0  0  0  0  0  0  0  0  0  0  0  0
  -25.9250  -30.8410   21.3830 C   0  0  0  0  0  2  0  0  0  0  0  0
  -26.0270  -29.4630   20.7760 C   0  0  0  0  0  0  0  0  0  0  0  0
  -27.2380  -28.7520   20.8030 C   0  0  0  0  0  3  0  0  0  0  0  0
  -26.1810  -26.9220   19.6050 C   0  0  0  0  0  3  0  0  0  0  0  0
  -24.9570  -27.6260   19.5980 C   0  0  0  0  0  3  0  0  0  0  0  0
  -23.6300  -29.7420   20.2220 C   0  0  0  0  0  2  0  0  0  0  0  0
  -24.6710  -31.0660   22.1300 N   0  0  0  0  0  0  0  0  0  0  0  0
  -23.5370  -32.1390   23.7720 O   0  0  0  0  0  0  0  0  0  0  0  0
  -22.7690  -29.4390   22.5650 C   0  0  0  0  0  0  0  0  0  0  0  0
  -21.4450  -29.2580   22.4390 N   0  0  0  0  0  0  0  0  0  0  0  0
  -23.4540  -28.8180   23.3820 O   0  0  0  0  0  0  0  0  0  0  0  0
  -20.9560  -29.8090   21.7480 H   0  0  0  0  0  0  0  0  0  0  0  0
  -18.0690  -28.0820   22.9470 C   0  0  0  0  0  0  0  0  0  0  0  0
  -20.6290  -28.3250   23.2150 C   0  0  0  0  0  3  0  0  0  0  0  0
  -20.7260  -26.8930   22.6400 C   0  0  0  0  0  2  0  0  0  0  0  0
  -19.6200  -26.5750   21.6290 C   0  0  0  0  0  2  0  0  0  0  0  0
  -18.2390  -26.7290   22.2740 C   0  0  0  0  0  2  0  0  0  0  0  0
  -19.1920  -28.8360   23.3770 C   0  0  0  0  0  0  0  0  0  0  0  0
  -18.9830  -30.1020   23.9650 C   0  0  0  0  0  3  0  0  0  0  0  0
  -17.6840  -30.6130   24.1310 C   0  0  0  0  0  3  0  0  0  0  0  0
  -16.5740  -29.8550   23.7200 C   0  0  0  0  0  3  0  0  0  0  0  0
  -16.7680  -28.5910   23.1350 C   0  0  0  0  0  3  0  0  0  0  0  0
  -25.9050  -32.5010   23.8470 C   0  0  0  0  0  3  0  0  0  0  0  0
  -25.5950  -33.8980   24.1790 N   0  0  0  0  0  0  0  0  0  0  0  0
  -25.9310  -34.9520   23.4220 C   0  0  0  0  0  0  0  0  0  0  0  0
  -26.6060  -34.8500   22.3920 O   0  0  0  0  0  0  0  0  0  0  0  0
  -24.9900  -34.0470   24.9740 H   0  0  0  0  0  0  0  0  0  0  0  0
  -24.1960  -36.7340   23.0720 C   0  0  0  0  0  1  0  0  0  0  0  0
  -25.4410  -36.3380   23.8800 C   0  0  0  0  0  3  0  0  0  0  0  0
  -27.5770  -37.2250   24.7060 C   0  0  0  0  0  1  0  0  0  0  0  0
  -26.4690  -37.3940   23.7680 N   0  0  0  0  0  0  0  0  0  0  0  0
  -26.0620  -38.3130   23.9220 H   0  0  0  0  0  0  0  0  0  0  0  0
  -26.4400  -31.7280   25.1120 C   0  0  1  0  0  0  0  0  0  0  0  0
  -25.3560  -31.4760   26.1870 C   0  0  0  0  0  1  0  0  0  0  0  0
  -27.0250  -30.3560   24.7000 C   0  0  0  0  0  1  0  0  0  0  0  0
  -27.5870  -32.5320   25.7700 C   0  0  0  0  0  1  0  0  0  0  0  0
  -31.0940  -22.9010   18.2020 C   0  0  0  0  0  2  0  0  0  0  0  0
  -31.4990  -21.5670   18.4700 O   0  0  0  0  0  0  0  0  0  0  0  0
  -30.9550  -20.9880   19.6610 C   0  0  0  0  0  2  0  0  0  0  0  0
  -31.5120  -19.5590   19.6900 C   0  0  0  0  0  2  0  0  0  0  0  0
  -31.2400  -18.8020   20.9390 N   0  0  0  0  0  4  0  0  0  0  0  0
  -32.1220  -18.6840   21.4110 H   0  0  0  0  0  0  0  0  0  0  0  0
  -30.6380  -19.3230   21.5560 H   0  0  0  0  0  0  0  0  0  0  0  0
  -30.6580  -17.4630   20.6930 C   0  0  0  0  0  2  0  0  0  0  0  0
  -30.8770  -16.4530   21.8380 C   0  0  0  0  0  2  0  0  0  0  0  0
  -30.7700  -14.3350   20.5330 C   0  0  0  0  0  0  0  0  0  0  0  0
  -30.3710  -12.2970   19.2040 C   0  0  0  0  0  2  0  0  0  0  0  0
  -29.4110  -12.5580   18.0290 C   0  0  0  0  0  2  0  0  0  0  0  0
  -27.9420  -12.4350   18.4750 C   0  0  0  0  0  2  0  0  0  0  0  0
  -27.6410  -13.2310   19.7700 C   0  0  0  0  0  3  0  0  0  0  0  0
  -28.7000  -12.9310   20.8550 C   0  0  0  0  0  2  0  0  0  0  0  0
  -30.0330  -13.2220   20.2960 N   0  0  0  0  0  0  0  0  0  0  0  0
  -31.7970  -14.6120   19.9090 O   0  0  0  0  0  0  0  0  0  0  0  0
  -30.3010  -15.1500   21.4880 N   0  0  0  0  0  0  0  0  0  0  0  0
  -29.4590  -14.8650   21.9630 H   0  0  0  0  0  0  0  0  0  0  0  0
  -25.2440  -13.8460   20.4860 C   0  0  0  0  0  0  0  0  0  0  0  0
  -24.1750  -13.0740   20.8630 C   0  0  0  0  0  0  0  0  0  0  0  0
  -24.6330  -11.7240   20.8340 C   0  0  0  0  0  0  0  0  0  0  0  0
  -26.2870  -12.9630   20.2530 N   0  0  0  0  0  0  0  0  0  0  0  0
  -25.9200  -11.6830   20.5150 N   0  0  0  0  0  0  0  0  0  0  0  0
  -23.9060  -10.4640   21.0320 C   0  0  0  0  0  0  0  0  0  0  0  0
  -24.3540   -9.4930   21.9560 C   0  0  0  0  0  3  0  0  0  0  0  0
  -23.6290   -8.2970   22.1450 C   0  0  0  0  0  3  0  0  0  0  0  0
  -22.4440   -8.0620   21.4100 C   0  0  0  0  0  0  0  0  0  0  0  0
  -22.0130   -9.0210   20.4780 C   0  0  0  0  0  3  0  0  0  0  0  0
  -22.7390  -10.2100   20.2860 C   0  0  0  0  0  3  0  0  0  0  0  0
  -21.6900   -6.9160   21.5060 O   0  0  0  0  0  0  0  0  0  0  0  0
  -21.6730   -6.1600   22.6480 C   0  0  0  0  0  0  0  0  0  0  0  0
  -21.3060   -6.7070   23.8990 C   0  0  0  0  0  3  0  0  0  0  0  0
  -21.2330   -5.8780   25.0360 C   0  0  0  0  0  3  0  0  0  0  0  0
  -21.5190   -4.5040   24.9260 C   0  0  0  0  0  0  0  0  0  0  0  0
  -21.8830   -3.9570   23.6820 C   0  0  0  0  0  3  0  0  0  0  0  0
  -21.9560   -4.7830   22.5470 C   0  0  0  0  0  0  0  0  0  0  0  0
  -22.2820   -4.2470   21.3470 F   0  0  0  0  0  0  0  0  0  0  0  0
  -21.4450   -3.7050   26.0170 F   0  0  0  0  0  0  0  0  0  0  0  0
  -22.7800  -13.5550   21.1430 C   0  0  0  0  0  0  0  0  0  0  0  0
  -22.0610  -12.8620   22.0200 N   0  0  0  0  0  0  0  0  0  0  0  0
  -22.3370  -14.5760   20.6220 O   0  0  0  0  0  0  0  0  0  0  0  0
  -22.4340  -12.0350   22.4620 H   0  0  0  0  0  0  0  0  0  0  0  0
  -21.1230  -13.1610   22.2490 H   0  0  0  0  0  0  0  0  0  0  0  0
  -25.4130  -15.2140   20.3060 N   0  0  0  0  0  0  0  0  0  0  0  0
  -24.6560  -15.8760   20.4300 H   0  0  0  0  0  0  0  0  0  0  0  0
  -26.2600  -15.6410   19.9510 H   0  0  0  0  0  0  0  0  0  0  0  0
  2  1  1  0
  2  3  1  0
  3  6  1  0
  3  4  1  0
  5  3  1  0
  6  7  1  0
  7  8  1  0
  9 11  1  0
  9  8  1  0
 10 21  2  0
 11 16  1  0
 12 20  1  0
 12 22  1  0
 13 19  1  0
 13 15  1  0
 14 20  1  0
 15 16  2  0
 15 14  1  0
 17 11  2  0
 18 17  1  0
 18 13  2  0
 19 12  1  0
 20 10  1  0
 22 24  2  0
 23 22  1  0
 25 23  1  0
 26 35  2  0
 26 31  1  0
 27 23  1  0
 27 31  1  0
 28 27  1  0
 29 30  1  0
 29 28  1  0
 30 26  1  0
 31 32  2  0
 32 33  1  0
 34 33  2  0
 35 34  1  0
 36 10  1  0
 36 37  1  0
 36 46  1  0
 37 40  1  0
 38 42  1  0
 38 37  1  0
 39 38  2  0
 42 41  1  0
 44 42  1  0
 44 45  1  0
 44 43  1  0
 46 49  1  1
 46 47  1  0
 48 46  1  0
 50 51  1  0
 50  1  1  0
 51 52  1  0
 52 53  1  0
 53 54  1  0
 54 55  1  0
 54 56  1  0
 57 54  1  0
 57 58  1  0
 59 67  1  0
 60 65  1  0
 61 62  1  0
 61 60  1  0
 63 62  1  0
 63 72  1  0
 63 64  1  0
 65 59  1  0
 65 64  1  0
 66 59  2  0
 67 58  1  0
 67 68  1  0
 69 70  2  0
 70 89  1  0
 71 70  1  0
 71 74  1  0
 72 69  1  0
 72 73  1  0
 73 71  2  0
 74 75  1  0
 75 76  2  0
 77 80  1  0
 77 76  1  0
 78 77  2  0
 79 78  1  0
 79 74  2  0
 80 81  1  0
 81 82  1  0
 82 83  2  0
 84 83  1  0
 84 88  1  0
 85 84  2  0
 86 81  2  0
 86 85  1  0
 87 86  1  0
 89 90  1  0
 90 93  1  0
 90 92  1  0
 91 89  2  0
 94 95  1  0
 94 69  1  0
 96 94  1  0
M  ISO  4   8 101   9 101  59 100  67 100
M  END
>  <TORSDO>  (21) 
F 28

>  <SCORE>  (21) 
-11.320

>  <name>  (21) 
22

>  <ligand_id>  (21) 
22

>  <original_smiles>  (21) 
[H]c1c([H])c([H])c2c(c1[H])C([H])([H])C([H])([H])C([H])([H])C2([H])N([H])C(=O)C1([H])N(C(=O)C([H])(N([H])C(=O)C([H])(N([H])C([H])([H])[H])C([H])([H])[H])C(C([H])([H])[H])(C([H])([H])[H])C([H])([H])[H])C([H])([H])c2c([H])c(OC([H])([H])C([H])([H])C([H])([H])[N+]([H])([H])C([H])([H])C([H])([H])C([H])([H])OC([H])([H])C([H])([H])[N+]([H])([H])C([H])([H])C([H])([H])N([H])C(=O)N3C([H])([H])C([H])([H])C([H])([H])C([H])(n4nc(-c5c([H])c([H])c(Oc6c([H])c([H])c(F)c([H])c6F)c([H])c5[H])c(C(=O)N([H])[H])c4N([H])[H])C3([H])[H])c([H])c([H])c2C1([H])[H]

>  <smiles>  (21) 
[H]c1c([H])c([H])c2c(c1[H])C([H])([H])C([H])([H])C([H])([H])C2([H])N([H])C(=O)C1([H])N(C(=O)C([H])(N([H])C(=O)C([H])(N([H])C([H])([H])[H])C([H])([H])[H])C(C([H])([H])[H])(C([H])([H])[H])C([H])([H])[H])C([H])([H])c2c([H])c(OC([H])([H])C([H])([H])C([H])([H])[N+]([H])([H])C([H])([H])C([H])([H])C([H])([H])OC([H])([H])C([H])([H])[N+]([H])([H])C([H])([H])C([H])([H])N([H])C(=O)N3C([H])([H])C([H])([H])C([H])([H])C([H])(n4nc(-c5c([H])c([H])c(Oc6c([H])c([H])c(F)c([H])c6F)c([H])c5[H])c(C(=O)N([H])[H])c4N([H])[H])C3([H])[H])c([H])c([H])c2C1([H])[H]

$$$$
23:0:0
     RDKit          3D

 92 94  0  0  1  0  0  0  0  0999 V2000
  -24.1910  -25.7060   24.2410 C   0  0  0  0  0  2  0  0  0  0  0  0
  -24.5300  -23.8970   23.5410 C   0  0  0  0  0  1  0  0  0  0  0  0
  -25.9830  -22.5980   23.2360 C   0  0  0  0  0  1  0  0  0  0  0  0
  -26.2150  -20.9400   22.5970 N   0  0  0  0  0  4  0  0  0  0  0  0
  -25.5620  -20.3790   23.1210 H   0  0  0  0  0  0  0  0  0  0  0  0
  -25.8070  -21.0130   21.6810 H   0  0  0  0  0  0  0  0  0  0  0  0
  -27.5790  -19.8230   22.2860 C   0  0  0  0  0  1  0  0  0  0  0  0
  -27.8870  -17.9590   21.6930 C   0  0  0  0  0  1  0  0  0  0  0  0
  -29.9940  -15.5300   20.8190 C   0  0  0  0  0  0  0  0  0  0  0  0
  -30.3380  -13.0850   19.7080 C   0  0  0  0  0  2  0  0  0  0  0  0
  -29.5410  -12.7100   18.4170 C   0  0  0  0  0  2  0  0  0  0  0  0
  -28.0990  -12.3190   18.7660 C   0  0  0  0  0  2  0  0  0  0  0  0
  -27.5440  -13.2740   19.8470 C   0  0  0  0  0  3  0  0  0  0  0  0
  -28.4560  -13.4490   21.0650 C   0  0  0  0  0  2  0  0  0  0  0  0
  -29.6080  -14.1550   20.5610 N   0  0  0  0  0  0  0  0  0  0  0  0
  -31.2150  -15.5750   20.5170 O   0  0  0  0  0  0  0  0  0  0  0  0
  -29.2560  -16.8530   21.2930 N   0  0  0  0  0  0  0  0  0  0  0  0
  -30.0470  -17.4810   21.3180 H   0  0  0  0  0  0  0  0  0  0  0  0
  -25.2000  -13.8220   20.5670 C   0  0  0  0  0  0  0  0  0  0  0  0
  -24.1430  -13.0390   20.9230 C   0  0  0  0  0  0  0  0  0  0  0  0
  -24.6120  -11.6890   20.8730 C   0  0  0  0  0  0  0  0  0  0  0  0
  -26.2240  -12.9400   20.2960 N   0  0  0  0  0  0  0  0  0  0  0  0
  -25.8980  -11.6520   20.5530 N   0  0  0  0  0  0  0  0  0  0  0  0
  -23.8930  -10.4250   21.0420 C   0  0  0  0  0  0  0  0  0  0  0  0
  -24.3540   -9.4190   21.9190 C   0  0  0  0  0  3  0  0  0  0  0  0
  -23.6260   -8.2200   22.0750 C   0  0  0  0  0  3  0  0  0  0  0  0
  -22.4230   -8.0230   21.3560 C   0  0  0  0  0  0  0  0  0  0  0  0
  -21.9830   -9.0180   20.4640 C   0  0  0  0  0  3  0  0  0  0  0  0
  -22.7130  -10.2070   20.3060 C   0  0  0  0  0  3  0  0  0  0  0  0
  -21.6620   -6.8820   21.4240 O   0  0  0  0  0  0  0  0  0  0  0  0
  -21.6830   -6.0700   22.5280 C   0  0  0  0  0  0  0  0  0  0  0  0
  -21.4000   -6.5620   23.8210 C   0  0  0  0  0  3  0  0  0  0  0  0
  -21.3660   -5.6780   24.9180 C   0  0  0  0  0  3  0  0  0  0  0  0
  -21.6040   -4.3040   24.7230 C   0  0  0  0  0  0  0  0  0  0  0  0
  -21.8830   -3.8130   23.4360 C   0  0  0  0  0  3  0  0  0  0  0  0
  -21.9190   -4.6940   22.3420 C   0  0  0  0  0  0  0  0  0  0  0  0
  -22.1660   -4.2140   21.0990 F   0  0  0  0  0  0  0  0  0  0  0  0
  -21.5630   -3.4530   25.7750 F   0  0  0  0  0  0  0  0  0  0  0  0
  -22.7510  -13.5190   21.1960 C   0  0  0  0  0  0  0  0  0  0  0  0
  -22.0210  -12.8160   22.0520 N   0  0  0  0  0  0  0  0  0  0  0  0
  -22.3210  -14.5500   20.6790 O   0  0  0  0  0  0  0  0  0  0  0  0
  -22.3820  -11.9830   22.4920 H   0  0  0  0  0  0  0  0  0  0  0  0
  -21.0840  -13.1170   22.2770 H   0  0  0  0  0  0  0  0  0  0  0  0
  -25.3770  -15.1970   20.4250 N   0  0  0  0  0  0  0  0  0  0  0  0
  -24.6150  -15.8560   20.5450 H   0  0  0  0  0  0  0  0  0  0  0  0
  -26.2320  -15.6260   20.0970 H   0  0  0  0  0  0  0  0  0  0  0  0
  -22.9480  -26.9100   24.7680 O   0  0  0  0  0  0  0  0  0  0  0  0
  -22.2790  -28.6480   24.6740 C   0  0  0  0  0  1  0  0  0  0  0  0
  -21.6120  -29.7720   23.0210 C   0  0  0  0  0 15  0  0  0  0  0  0
  -21.7000  -29.1560   21.0100 C   0  0  0  0  0 15  0  0  0  0  0  0
  -23.0950  -27.8540   20.1400 C   0  0  0  0  0  1  0  0  0  0  0  0
  -24.7740  -27.1720   20.5820 O   0  0  0  0  0  0  0  0  0  0  0  0
  -24.7790  -31.8690   23.2380 C   0  0  0  0  0  0  0  0  0  0  0  0
  -26.1800  -27.3100   20.2340 C   0  0  0  0  0  3  0  0  0  0  0  0
  -23.9020  -30.1830   21.6590 C   0  0  0  0  0  3  0  0  0  0  0  0
  -25.2520  -29.5720   19.6340 C   0  0  0  0  0  3  0  0  0  0  0  0
  -26.2610  -30.7960   21.5440 C   0  0  0  0  0  2  0  0  0  0  0  0
  -26.2410  -29.6090   20.6080 C   0  0  0  0  0  3  0  0  0  0  0  0
  -26.8810  -28.3950   20.8480 C   0  0  0  0  0  2  0  0  0  0  0  0
  -26.0630  -27.4040   18.8840 C   0  0  0  0  0  2  0  0  0  0  0  0
  -25.2820  -28.5460   18.6380 C   0  0  0  0  0  2  0  0  0  0  0  0
  -24.0580  -30.3400   20.0630 C   0  0  0  0  0  2  0  0  0  0  0  0
  -24.9700  -30.9850   22.2240 N   0  0  0  0  0  0  0  0  0  0  0  0
  -23.6740  -32.1830   23.7020 O   0  0  0  0  0  0  0  0  0  0  0  0
  -23.7570  -28.6580   22.5010 C   0  0  0  0  0  0  0  0  0  0  0  0
  -22.5860  -27.6140   22.5560 N   0  0  0  0  0  0  0  0  0  0  0  0
  -24.5760  -28.5450   23.3650 O   0  0  0  0  0  0  0  0  0  0  0  0
  -22.9840  -26.8720   23.1200 H   0  0  0  0  0  0  0  0  0  0  0  0
  -18.1230  -27.9370   22.7190 C   0  0  0  0  0  0  0  0  0  0  0  0
  -20.8500  -27.4310   22.9160 C   0  0  0  0  0  3  0  0  0  0  0  0
  -20.5230  -26.2130   22.1570 C   0  0  0  0  0  2  0  0  0  0  0  0
  -19.3600  -26.3760   21.2160 C   0  0  0  0  0  2  0  0  0  0  0  0
  -18.0840  -26.6300   21.9920 C   0  0  0  0  0  2  0  0  0  0  0  0
  -19.3850  -28.3890   23.2250 C   0  0  0  0  0  0  0  0  0  0  0  0
  -19.1040  -29.5460   24.0900 C   0  0  0  0  0  3  0  0  0  0  0  0
  -17.8920  -30.2990   24.1580 C   0  0  0  0  0  3  0  0  0  0  0  0
  -16.7360  -29.8050   23.5580 C   0  0  0  0  0  3  0  0  0  0  0  0
  -16.8630  -28.5860   22.8850 C   0  0  0  0  0  3  0  0  0  0  0  0
  -26.0160  -32.5130   23.8870 C   0  0  0  0  0  3  0  0  0  0  0  0
  -26.5070  -31.6920   25.1350 C   0  0  1  0  0  0  0  0  0  0  0  0
  -25.3910  -31.3960   26.1640 C   0  0  0  0  0  1  0  0  0  0  0  0
  -27.1480  -30.3450   24.7300 C   0  0  0  0  0  1  0  0  0  0  0  0
  -27.6290  -32.4760   25.8390 C   0  0  0  0  0  1  0  0  0  0  0  0
  -25.6550  -33.8830   24.2610 N   0  0  0  0  0  0  0  0  0  0  0  0
  -25.9170  -34.9610   23.5130 C   0  0  0  0  0  0  0  0  0  0  0  0
  -26.5500  -34.9010   22.4550 O   0  0  0  0  0  0  0  0  0  0  0  0
  -25.0870  -33.9930   25.0890 H   0  0  0  0  0  0  0  0  0  0  0  0
  -24.1500  -36.7340   23.2580 C   0  0  0  0  0  1  0  0  0  0  0  0
  -25.4110  -36.3180   24.0330 C   0  0  0  0  0  3  0  0  0  0  0  0
  -27.5570  -37.1880   24.8480 C   0  0  0  0  0  1  0  0  0  0  0  0
  -26.4260  -37.3890   23.9460 N   0  0  0  0  0  0  0  0  0  0  0  0
  -26.0150  -38.2940   24.1560 H   0  0  0  0  0  0  0  0  0  0  0  0
  1 47  1  0
  2  1  1  0
  4  5  1  0
  4  3  1  0
  6  4  1  0
  7  4  1  0
  9 17  1  0
 10 15  1  0
 11 12  1  0
 11 10  1  0
 13 12  1  0
 13 22  1  0
 13 14  1  0
 15  9  1  0
 15 14  1  0
 16  9  2  0
 17 18  1  0
 17  8  1  0
 19 20  2  0
 20 39  1  0
 21 20  1  0
 21 24  1  0
 22 23  1  0
 22 19  1  0
 23 21  2  0
 24 25  1  0
 25 26  2  0
 27 30  1  0
 27 26  1  0
 28 27  2  0
 29 28  1  0
 29 24  2  0
 30 31  1  0
 31 32  1  0
 32 33  2  0
 34 33  1  0
 34 38  1  0
 35 34  2  0
 36 31  2  0
 36 35  1  0
 37 36  1  0
 39 40  1  0
 40 43  1  0
 40 42  1  0
 41 39  2  0
 44 45  1  0
 44 19  1  0
 46 44  1  0
 48 47  1  0
 51 52  1  0
 53 64  2  0
 54 52  1  0
 54 59  1  0
 55 63  1  0
 55 65  1  0
 56 61  1  0
 56 62  1  0
 56 58  1  0
 57 63  1  0
 58 59  1  0
 58 57  1  0
 60 54  1  0
 61 60  1  0
 62 55  1  0
 63 53  1  0
 65 66  1  0
 65 67  2  0
 66 68  1  0
 69 78  2  0
 69 74  1  0
 70 66  1  0
 70 74  1  0
 71 70  1  0
 72 73  1  0
 72 71  1  0
 73 69  1  0
 74 75  2  0
 75 76  1  0
 77 76  2  0
 78 77  1  0
 79 53  1  0
 79 84  1  0
 79 80  1  0
 80 83  1  1
 80 81  1  0
 82 80  1  0
 84 87  1  0
 85 89  1  0
 85 84  1  0
 86 85  2  0
 89 88  1  0
 91 89  1  0
 91 92  1  0
 91 90  1  0
M  ISO  4   9 100  17 100  51 101  52 101
M  END
>  <TORSDO>  (22) 
F 26

>  <SCORE>  (22) 
5.560

>  <name>  (22) 
23

>  <ligand_id>  (22) 
23

>  <original_smiles>  (22) 
[H]c1c([H])c([H])c2c(c1[H])C([H])([H])C([H])([H])C([H])([H])C2([H])N([H])C(=O)C1([H])N(C(=O)C([H])(N([H])C(=O)C([H])(N([H])C([H])([H])[H])C([H])([H])[H])C(C([H])([H])[H])(C([H])([H])[H])C([H])([H])[H])C([H])([H])c2c([H])c(OC([H])([H])C([H])([H])C([H])([H])C([H])([H])OC([H])([H])C([H])([H])C([H])([H])[N+]([H])([H])C([H])([H])C([H])([H])N([H])C(=O)N3C([H])([H])C([H])([H])C([H])([H])C([H])(n4nc(-c5c([H])c([H])c(Oc6c([H])c([H])c(F)c([H])c6F)c([H])c5[H])c(C(=O)N([H])[H])c4N([H])[H])C3([H])[H])c([H])c([H])c2C1([H])[H]

>  <smiles>  (22) 
[H]c1c([H])c([H])c2c(c1[H])C([H])([H])C([H])([H])C([H])([H])C2([H])N([H])C(=O)C1([H])N(C(=O)C([H])(N([H])C(=O)C([H])(N([H])C([H])([H])[H])C([H])([H])[H])C(C([H])([H])[H])(C([H])([H])[H])C([H])([H])[H])C([H])([H])c2c([H])c(OC([H])([H])C([H])([H])C([H])([H])C([H])([H])OC([H])([H])C([H])([H])C([H])([H])[N+]([H])([H])C([H])([H])C([H])([H])N([H])C(=O)N3C([H])([H])C([H])([H])C([H])([H])C([H])(n4nc(-c5c([H])c([H])c(Oc6c([H])c([H])c(F)c([H])c6F)c([H])c5[H])c(C(=O)N([H])[H])c4N([H])[H])C3([H])[H])c([H])c([H])c2C1([H])[H]

$$$$
24:0:0
     RDKit          3D

 97104  0  0  1  0  0  0  0  0999 V2000
  -29.5280  -24.3770   25.4400 C   0  0  0  0  0  2  0  0  0  0  0  0
  -28.6070  -23.1420   25.5410 C   0  0  0  0  0  2  0  0  0  0  0  0
  -28.6960  -22.1750   24.3510 C   0  0  0  0  0  2  0  0  0  0  0  0
  -30.0090  -21.6350   24.2980 O   0  0  0  0  0  0  0  0  0  0  0  0
  -30.3240  -21.0850   23.0280 C   0  0  0  0  0  2  0  0  0  0  0  0
  -31.4450  -20.0530   23.1980 C   0  0  0  0  0  2  0  0  0  0  0  0
  -31.6590  -19.2710   21.9560 N   0  0  0  0  0  4  0  0  0  0  0  0
  -31.0560  -19.6330   21.2340 H   0  0  0  0  0  0  0  0  0  0  0  0
  -32.6090  -19.4160   21.6520 H   0  0  0  0  0  0  0  0  0  0  0  0
  -31.4070  -17.8180   22.0690 C   0  0  0  0  0  2  0  0  0  0  0  0
  -31.8140  -17.0760   20.7780 C   0  0  0  0  0  2  0  0  0  0  0  0
  -31.8590  -14.7040   20.0390 C   0  0  0  0  0  0  0  0  0  0  0  0
  -31.3760  -12.5260   18.9780 C   0  0  0  0  0  2  0  0  0  0  0  0
  -30.4730  -12.7270   17.7450 C   0  0  0  0  0  2  0  0  0  0  0  0
  -28.9870  -12.7480   18.1530 C   0  0  0  0  0  2  0  0  0  0  0  0
  -28.7110  -13.7080   19.3400 C   0  0  0  0  0  3  0  0  0  0  0  0
  -29.7160  -13.4540   20.4860 C   0  0  0  0  0  2  0  0  0  0  0  0
  -31.0780  -13.5960   19.9420 N   0  0  0  0  0  0  0  0  0  0  0  0
  -32.9370  -14.8350   19.4520 O   0  0  0  0  0  0  0  0  0  0  0  0
  -31.3360  -15.6960   20.7680 N   0  0  0  0  0  0  0  0  0  0  0  0
  -30.4540  -15.5020   21.2160 H   0  0  0  0  0  0  0  0  0  0  0  0
  -26.3570  -14.5850   19.9100 C   0  0  0  0  0  0  0  0  0  0  0  0
  -25.2170  -13.9470   20.3210 C   0  0  0  0  0  0  0  0  0  0  0  0
  -25.5610  -12.5650   20.4330 C   0  0  0  0  0  0  0  0  0  0  0  0
  -27.3280  -13.6020   19.7990 N   0  0  0  0  0  0  0  0  0  0  0  0
  -26.8490  -12.3870   20.1680 N   0  0  0  0  0  0  0  0  0  0  0  0
  -24.7280  -11.3920   20.7230 C   0  0  0  0  0  0  0  0  0  0  0  0
  -25.0640  -10.4800   21.7490 C   0  0  0  0  0  3  0  0  0  0  0  0
  -24.2360   -9.3690   22.0200 C   0  0  0  0  0  3  0  0  0  0  0  0
  -23.0580   -9.1600   21.2640 C   0  0  0  0  0  0  0  0  0  0  0  0
  -22.7400  -10.0570   20.2310 C   0  0  0  0  0  3  0  0  0  0  0  0
  -23.5660  -11.1600   19.9580 C   0  0  0  0  0  3  0  0  0  0  0  0
  -22.2080   -8.0960   21.4410 O   0  0  0  0  0  0  0  0  0  0  0  0
  -22.0410   -7.5030   22.6670 C   0  0  0  0  0  0  0  0  0  0  0  0
  -21.6470   -8.2430   23.8030 C   0  0  0  0  0  3  0  0  0  0  0  0
  -21.4190   -7.5830   25.0280 C   0  0  0  0  0  3  0  0  0  0  0  0
  -21.5750   -6.1870   25.1160 C   0  0  0  0  0  0  0  0  0  0  0  0
  -21.9630   -5.4490   23.9840 C   0  0  0  0  0  3  0  0  0  0  0  0
  -22.1920   -6.1060   22.7630 C   0  0  0  0  0  0  0  0  0  0  0  0
  -22.5450   -5.3860   21.6700 F   0  0  0  0  0  0  0  0  0  0  0  0
  -21.3490   -5.5510   26.2900 F   0  0  0  0  0  0  0  0  0  0  0  0
  -23.8610  -14.5610   20.5110 C   0  0  0  0  0  0  0  0  0  0  0  0
  -23.0730  -14.0320   21.4410 N   0  0  0  0  0  0  0  0  0  0  0  0
  -23.5100  -15.5500   19.8690 O   0  0  0  0  0  0  0  0  0  0  0  0
  -23.3710  -13.2270   21.9760 H   0  0  0  0  0  0  0  0  0  0  0  0
  -22.1640  -14.4330   21.6230 H   0  0  0  0  0  0  0  0  0  0  0  0
  -26.6520  -15.9110   19.6020 N   0  0  0  0  0  0  0  0  0  0  0  0
  -25.9600  -16.6520   19.6240 H   0  0  0  0  0  0  0  0  0  0  0  0
  -27.5460  -16.2130   19.2370 H   0  0  0  0  0  0  0  0  0  0  0  0
  -29.3690  -25.2290   24.1580 C   0  0  0  0  0  2  0  0  0  0  0  0
  -30.3550  -26.4200   24.1380 C   0  0  0  0  0  2  0  0  0  0  0  0
  -30.8160  -26.8520   22.7960 N   0  0  0  0  0  4  0  0  0  0  0  0
  -31.4890  -27.5840   22.9700 H   0  0  0  0  0  0  0  0  0  0  0  0
  -31.3320  -26.1060   22.3520 H   0  0  0  0  0  0  0  0  0  0  0  0
  -29.8190  -27.4130   21.8510 C   0  0  0  0  0  2  0  0  0  0  0  0
  -29.0910  -26.3290   21.0300 C   0  0  0  0  0  2  0  0  0  0  0  0
  -28.6000  -26.8350   19.7910 O   0  0  0  0  0  0  0  0  0  0  0  0
  -24.6510  -31.7050   23.1390 C   0  0  0  0  0  0  0  0  0  0  0  0
  -27.4150  -27.5140   19.8770 C   0  0  0  0  0  0  0  0  0  0  0  0
  -23.4680  -30.3150   21.4650 C   0  0  0  0  0  3  0  0  0  0  0  0
  -24.9570  -28.8800   19.9740 C   0  0  0  0  0  0  0  0  0  0  0  0
  -25.9670  -30.7890   21.2370 C   0  0  0  0  0  2  0  0  0  0  0  0
  -26.0960  -29.4430   20.5630 C   0  0  0  0  0  0  0  0  0  0  0  0
  -27.3290  -28.7660   20.5190 C   0  0  0  0  0  3  0  0  0  0  0  0
  -26.2680  -26.9570   19.2770 C   0  0  0  0  0  3  0  0  0  0  0  0
  -25.0340  -27.6320   19.3290 C   0  0  0  0  0  3  0  0  0  0  0  0
  -23.6780  -29.6810   20.0620 C   0  0  0  0  0  2  0  0  0  0  0  0
  -24.7130  -30.9490   22.0060 N   0  0  0  0  0  0  0  0  0  0  0  0
  -23.5710  -31.9140   23.7090 O   0  0  0  0  0  0  0  0  0  0  0  0
  -22.8730  -29.2380   22.4010 C   0  0  0  0  0  0  0  0  0  0  0  0
  -21.5560  -29.0040   22.2770 N   0  0  0  0  0  0  0  0  0  0  0  0
  -23.5920  -28.6160   23.1880 O   0  0  0  0  0  0  0  0  0  0  0  0
  -21.0360  -29.5570   21.6110 H   0  0  0  0  0  0  0  0  0  0  0  0
  -18.2470  -27.6480   22.7570 C   0  0  0  0  0  0  0  0  0  0  0  0
  -20.7900  -28.0100   23.0270 C   0  0  0  0  0  3  0  0  0  0  0  0
  -20.9530  -26.6020   22.4090 C   0  0  0  0  0  2  0  0  0  0  0  0
  -19.8620  -26.2590   21.3910 C   0  0  0  0  0  2  0  0  0  0  0  0
  -18.4790  -26.3260   22.0450 C   0  0  0  0  0  2  0  0  0  0  0  0
  -19.3310  -28.4450   23.2050 C   0  0  0  0  0  0  0  0  0  0  0  0
  -19.0590  -29.6830   23.8280 C   0  0  0  0  0  3  0  0  0  0  0  0
  -17.7350  -30.1210   24.0120 C   0  0  0  0  0  3  0  0  0  0  0  0
  -16.6640  -29.3200   23.5800 C   0  0  0  0  0  3  0  0  0  0  0  0
  -16.9210  -28.0860   22.9570 C   0  0  0  0  0  3  0  0  0  0  0  0
  -25.9270  -32.3620   23.7590 C   0  0  0  0  0  3  0  0  0  0  0  0
  -26.4660  -31.5860   25.0240 C   0  0  1  0  0  0  0  0  0  0  0  0
  -25.3700  -31.3030   26.0780 C   0  0  0  0  0  1  0  0  0  0  0  0
  -27.0970  -30.2330   24.6120 C   0  0  0  0  0  1  0  0  0  0  0  0
  -27.5890  -32.4050   25.7010 C   0  0  0  0  0  1  0  0  0  0  0  0
  -25.5830  -33.7480   24.1060 N   0  0  0  0  0  0  0  0  0  0  0  0
  -25.9060  -34.8210   23.3730 C   0  0  0  0  0  0  0  0  0  0  0  0
  -26.5980  -34.7510   22.3540 O   0  0  0  0  0  0  0  0  0  0  0  0
  -24.9780  -33.8740   24.9040 H   0  0  0  0  0  0  0  0  0  0  0  0
  -24.1430  -36.5830   23.0160 C   0  0  0  0  0  1  0  0  0  0  0  0
  -25.3780  -36.1900   23.8440 C   0  0  0  0  0  3  0  0  0  0  0  0
  -27.4850  -37.1040   24.7170 C   0  0  0  0  0  1  0  0  0  0  0  0
  -26.3850  -37.2710   23.7700 N   0  0  0  0  0  0  0  0  0  0  0  0
  -25.9520  -38.1750   23.9410 H   0  0  0  0  0  0  0  0  0  0  0  0
  1  2  1  0
  3  2  1  0
  4  3  1  0
  5  6  1  0
  5  4  1  0
  7 10  1  0
  7  6  1  0
  8  7  1  0
  9  7  1  0
 11 10  1  0
 12 20  1  0
 13 18  1  0
 14 15  1  0
 14 13  1  0
 16 15  1  0
 16 25  1  0
 16 17  1  0
 18 12  1  0
 18 17  1  0
 19 12  2  0
 20 11  1  0
 20 21  1  0
 22 23  2  0
 23 24  1  0
 23 42  1  0
 24 27  1  0
 25 22  1  0
 25 26  1  0
 26 24  2  0
 27 28  1  0
 28 29  2  0
 30 33  1  0
 30 29  1  0
 31 30  2  0
 32 31  1  0
 32 27  2  0
 33 34  1  0
 34 39  2  0
 34 35  1  0
 35 36  2  0
 36 37  1  0
 37 41  1  0
 38 37  2  0
 39 38  1  0
 40 39  1  0
 42 43  1  0
 43 46  1  0
 43 45  1  0
 44 42  2  0
 47 48  1  0
 47 22  1  0
 49 47  1  0
 50  1  1  0
 51 50  1  0
 52 53  1  0
 52 51  1  0
 54 52  1  0
 55 52  1  0
 56 55  1  0
 57 59  1  0
 57 56  1  0
 58 69  2  0
 59 64  1  0
 60 68  1  0
 60 70  1  0
 61 67  1  0
 61 63  1  0
 62 68  1  0
 63 62  1  0
 64 63  2  0
 65 66  1  0
 65 59  2  0
 66 61  2  0
 67 60  1  0
 68 58  1  0
 70 72  2  0
 71 70  1  0
 73 71  1  0
 74 83  2  0
 74 79  1  0
 75 71  1  0
 75 79  1  0
 76 75  1  0
 77 78  1  0
 77 76  1  0
 78 74  1  0
 79 80  2  0
 80 81  1  0
 82 81  2  0
 83 82  1  0
 84 58  1  0
 84 89  1  0
 84 85  1  0
 85 88  1  1
 85 86  1  0
 87 85  1  0
 89 92  1  0
 90 94  1  0
 90 89  1  0
 91 90  2  0
 94 93  1  0
 96 94  1  0
 96 97  1  0
 96 95  1  0
M  ISO  4  12 100  20 100  56 101  57 101
M  END
>  <TORSDO>  (23) 
F 29

>  <SCORE>  (23) 
-2.198

>  <name>  (23) 
24

>  <ligand_id>  (23) 
24

>  <original_smiles>  (23) 
[H]c1c([H])c([H])c2c(c1[H])C([H])([H])C([H])([H])C([H])([H])C2([H])N([H])C(=O)C1([H])N(C(=O)C([H])(N([H])C(=O)C([H])(N([H])C([H])([H])[H])C([H])([H])[H])C(C([H])([H])[H])(C([H])([H])[H])C([H])([H])[H])C([H])([H])c2c([H])c(OC([H])([H])C([H])([H])[N+]([H])([H])C([H])([H])C([H])([H])C([H])([H])C([H])([H])C([H])([H])OC([H])([H])C([H])([H])[N+]([H])([H])C([H])([H])C([H])([H])N([H])C(=O)N3C([H])([H])C([H])([H])C([H])([H])C([H])(n4nc(-c5c([H])c([H])c(Oc6c([H])c([H])c(F)c([H])c6F)c([H])c5[H])c(C(=O)N([H])[H])c4N([H])[H])C3([H])[H])c([H])c([H])c2C1([H])[H]

>  <smiles>  (23) 
[H]c1c([H])c([H])c2c(c1[H])C([H])([H])C([H])([H])C([H])([H])C2([H])N([H])C(=O)C1([H])N(C(=O)C([H])(N([H])C(=O)C([H])(N([H])C([H])([H])[H])C([H])([H])[H])C(C([H])([H])[H])(C([H])([H])[H])C([H])([H])[H])C([H])([H])c2c([H])c(OC([H])([H])C([H])([H])[N+]([H])([H])C([H])([H])C([H])([H])C([H])([H])C([H])([H])C([H])([H])OC([H])([H])C([H])([H])[N+]([H])([H])C([H])([H])C([H])([H])N([H])C(=O)N3C([H])([H])C([H])([H])C([H])([H])C([H])(n4nc(-c5c([H])c([H])c(Oc6c([H])c([H])c(F)c([H])c6F)c([H])c5[H])c(C(=O)N([H])[H])c4N([H])[H])C3([H])[H])c([H])c([H])c2C1([H])[H]

$$$$
25:0:0
     RDKit          3D

 91 98  0  0  1  0  0  0  0  0999 V2000
  -28.4620  -22.0030   21.3960 C   0  0  0  0  0  2  0  0  0  0  0  0
  -29.1980  -20.6790   21.6720 C   0  0  0  0  0  0  0  0  0  0  0  0
  -29.0980  -19.7000   20.7560 N   0  0  0  0  0  0  0  0  0  0  0  0
  -29.8060  -20.5280   22.7350 O   0  0  0  0  0  0  0  0  0  0  0  0
  -28.6040  -19.9260   19.9020 H   0  0  0  0  0  0  0  0  0  0  0  0
  -29.3840  -18.2780   20.9990 C   0  0  0  0  0  2  0  0  0  0  0  0
  -30.8820  -17.8950   20.9360 C   0  0  0  0  0  2  0  0  0  0  0  0
  -31.2920  -16.9410   19.7890 C   0  0  0  0  0  2  0  0  0  0  0  0
  -31.2790  -14.4870   19.3450 C   0  0  0  0  0  0  0  0  0  0  0  0
  -30.8260  -12.1690   18.6260 C   0  0  0  0  0  2  0  0  0  0  0  0
  -29.7810  -12.1680   17.4920 C   0  0  0  0  0  2  0  0  0  0  0  0
  -28.3530  -12.1620   18.0700 C   0  0  0  0  0  2  0  0  0  0  0  0
  -28.1440  -13.2470   19.1590 C   0  0  0  0  0  3  0  0  0  0  0  0
  -29.2840  -13.2000   20.2000 C   0  0  0  0  0  2  0  0  0  0  0  0
  -30.5640  -13.3390   19.4830 N   0  0  0  0  0  0  0  0  0  0  0  0
  -32.3040  -14.5630   18.6600 O   0  0  0  0  0  0  0  0  0  0  0  0
  -30.7600  -15.5790   19.9370 N   0  0  0  0  0  0  0  0  0  0  0  0
  -29.9280  -15.4450   20.4930 H   0  0  0  0  0  0  0  0  0  0  0  0
  -25.9230  -14.1120   20.1360 C   0  0  0  0  0  0  0  0  0  0  0  0
  -24.8240  -13.4580   20.6280 C   0  0  0  0  0  0  0  0  0  0  0  0
  -25.1240  -12.0650   20.5460 C   0  0  0  0  0  0  0  0  0  0  0  0
  -26.8310  -13.1240   19.7890 N   0  0  0  0  0  0  0  0  0  0  0  0
  -26.3570  -11.8870   20.0900 N   0  0  0  0  0  0  0  0  0  0  0  0
  -24.2860  -10.8890   20.8210 C   0  0  0  0  0  0  0  0  0  0  0  0
  -24.6740   -9.9100   21.7620 C   0  0  0  0  0  3  0  0  0  0  0  0
  -23.8430   -8.7990   22.0230 C   0  0  0  0  0  3  0  0  0  0  0  0
  -22.6110   -8.6600   21.3410 C   0  0  0  0  0  0  0  0  0  0  0  0
  -22.2420   -9.6240   20.3870 C   0  0  0  0  0  3  0  0  0  0  0  0
  -23.0720  -10.7270   20.1260 C   0  0  0  0  0  3  0  0  0  0  0  0
  -21.7520   -7.6010   21.5100 O   0  0  0  0  0  0  0  0  0  0  0  0
  -21.6350   -6.9530   22.7140 C   0  0  0  0  0  0  0  0  0  0  0  0
  -21.2630   -7.6360   23.8930 C   0  0  0  0  0  3  0  0  0  0  0  0
  -21.0890   -6.9200   25.0950 C   0  0  0  0  0  3  0  0  0  0  0  0
  -21.2750   -5.5240   25.1170 C   0  0  0  0  0  0  0  0  0  0  0  0
  -21.6410   -4.8430   23.9430 C   0  0  0  0  0  3  0  0  0  0  0  0
  -21.8180   -5.5560   22.7450 C   0  0  0  0  0  0  0  0  0  0  0  0
  -22.1500   -4.8910   21.6110 F   0  0  0  0  0  0  0  0  0  0  0  0
  -21.0980   -4.8360   26.2690 F   0  0  0  0  0  0  0  0  0  0  0  0
  -23.5300  -14.0840   21.0640 C   0  0  0  0  0  0  0  0  0  0  0  0
  -22.8510  -13.4750   22.0310 N   0  0  0  0  0  0  0  0  0  0  0  0
  -23.1410  -15.1480   20.5860 O   0  0  0  0  0  0  0  0  0  0  0  0
  -23.1830  -12.6110   22.4370 H   0  0  0  0  0  0  0  0  0  0  0  0
  -21.9900  -13.8760   22.3710 H   0  0  0  0  0  0  0  0  0  0  0  0
  -26.2160  -15.4570   19.9390 N   0  0  0  0  0  0  0  0  0  0  0  0
  -25.5310  -16.1860   20.1130 H   0  0  0  0  0  0  0  0  0  0  0  0
  -27.0610  -15.8050   19.5020 H   0  0  0  0  0  0  0  0  0  0  0  0
  -29.3640  -23.1090   21.4740 O   0  0  0  0  0  0  0  0  0  0  0  0
  -28.6900  -24.3620   21.3700 C   0  0  0  0  0  2  0  0  0  0  0  0
  -29.7060  -25.5060   21.2050 C   0  0  0  0  0  2  0  0  0  0  0  0
  -29.0500  -26.8940   21.1030 C   0  0  0  0  0  2  0  0  0  0  0  0
  -28.2310  -26.9440   19.9360 O   0  0  0  0  0  0  0  0  0  0  0  0
  -24.5230  -31.9790   23.3580 C   0  0  0  0  0  0  0  0  0  0  0  0
  -27.0860  -27.6970   20.0350 C   0  0  0  0  0  0  0  0  0  0  0  0
  -23.2610  -30.6260   21.7140 C   0  0  0  0  0  3  0  0  0  0  0  0
  -24.6720  -29.1530   20.1800 C   0  0  0  0  0  0  0  0  0  0  0  0
  -25.7670  -31.0270   21.4260 C   0  0  0  0  0  2  0  0  0  0  0  0
  -25.8410  -29.6790   20.7440 C   0  0  0  0  0  0  0  0  0  0  0  0
  -27.0520  -28.9570   20.6730 C   0  0  0  0  0  3  0  0  0  0  0  0
  -25.9080  -27.1860   19.4550 C   0  0  0  0  0  3  0  0  0  0  0  0
  -24.6970  -27.9040   19.5320 C   0  0  0  0  0  3  0  0  0  0  0  0
  -23.4210  -29.9920   20.3050 C   0  0  0  0  0  2  0  0  0  0  0  0
  -24.5370  -31.2220   22.2250 N   0  0  0  0  0  0  0  0  0  0  0  0
  -23.4630  -32.2240   23.9500 O   0  0  0  0  0  0  0  0  0  0  0  0
  -22.6570  -29.5680   22.6640 C   0  0  0  0  0  0  0  0  0  0  0  0
  -21.3390  -29.3410   22.5430 N   0  0  0  0  0  0  0  0  0  0  0  0
  -23.3690  -28.9530   23.4630 O   0  0  0  0  0  0  0  0  0  0  0  0
  -20.8260  -29.8950   21.8710 H   0  0  0  0  0  0  0  0  0  0  0  0
  -18.0190  -27.9900   22.9900 C   0  0  0  0  0  0  0  0  0  0  0  0
  -20.5580  -28.3660   23.3020 C   0  0  0  0  0  3  0  0  0  0  0  0
  -20.7370  -26.9420   22.7260 C   0  0  0  0  0  2  0  0  0  0  0  0
  -19.6650  -26.5720   21.6950 C   0  0  0  0  0  2  0  0  0  0  0  0
  -18.2690  -26.6520   22.3180 C   0  0  0  0  0  2  0  0  0  0  0  0
  -19.0950  -28.8030   23.4380 C   0  0  0  0  0  0  0  0  0  0  0  0
  -18.8080  -30.0560   24.0210 C   0  0  0  0  0  3  0  0  0  0  0  0
  -17.4790  -30.4950   24.1680 C   0  0  0  0  0  3  0  0  0  0  0  0
  -16.4180  -29.6790   23.7360 C   0  0  0  0  0  3  0  0  0  0  0  0
  -16.6890  -28.4310   23.1500 C   0  0  0  0  0  3  0  0  0  0  0  0
  -25.8310  -32.5920   23.9510 C   0  0  0  0  0  3  0  0  0  0  0  0
  -25.5380  -33.9800   24.3260 N   0  0  0  0  0  0  0  0  0  0  0  0
  -25.8790  -35.0520   23.5970 C   0  0  0  0  0  0  0  0  0  0  0  0
  -26.5470  -34.9740   22.5620 O   0  0  0  0  0  0  0  0  0  0  0  0
  -24.9450  -34.1160   25.1320 H   0  0  0  0  0  0  0  0  0  0  0  0
  -24.1710  -36.8680   23.2940 C   0  0  0  0  0  1  0  0  0  0  0  0
  -25.4040  -36.4290   24.0970 C   0  0  0  0  0  3  0  0  0  0  0  0
  -27.5470  -37.2620   24.9600 C   0  0  0  0  0  1  0  0  0  0  0  0
  -26.4480  -37.4740   24.0200 N   0  0  0  0  0  0  0  0  0  0  0  0
  -26.0520  -38.3940   24.1950 H   0  0  0  0  0  0  0  0  0  0  0  0
  -26.3940  -31.7850   25.1830 C   0  0  1  0  0  0  0  0  0  0  0  0
  -25.3380  -31.5110   26.2800 C   0  0  0  0  0  1  0  0  0  0  0  0
  -26.9680  -30.4220   24.7280 C   0  0  0  0  0  1  0  0  0  0  0  0
  -27.5650  -32.5620   25.8290 C   0  0  0  0  0  1  0  0  0  0  0  0
  1 47  1  0
  1  2  1  0
  2  4  2  0
  3  6  1  0
  3  2  1  0
  5  3  1  0
  7  6  1  0
  8 17  1  0
  8  7  1  0
  9 15  1  0
  9 17  1  0
 10 15  1  0
 11 12  1  0
 11 10  1  0
 13 12  1  0
 13 22  1  0
 13 14  1  0
 15 14  1  0
 16  9  2  0
 17 18  1  0
 19 20  2  0
 20 39  1  0
 21 20  1  0
 21 24  1  0
 22 23  1  0
 22 19  1  0
 23 21  2  0
 24 25  1  0
 25 26  2  0
 27 30  1  0
 27 26  1  0
 28 27  2  0
 29 28  1  0
 29 24  2  0
 30 31  1  0
 31 36  2  0
 31 32  1  0
 32 33  2  0
 33 34  1  0
 34 38  1  0
 35 34  2  0
 36 35  1  0
 37 36  1  0
 39 40  1  0
 40 43  1  0
 40 42  1  0
 41 39  2  0
 44 45  1  0
 44 19  1  0
 46 44  1  0
 48 47  1  0
 49 48  1  0
 50 49  1  0
 51 53  1  0
 51 50  1  0
 52 63  2  0
 53 58  1  0
 54 62  1  0
 54 64  1  0
 55 61  1  0
 55 57  1  0
 56 62  1  0
 57 56  1  0
 58 57  2  0
 59 60  1  0
 59 53  2  0
 60 55  2  0
 61 54  1  0
 62 52  1  0
 64 66  2  0
 65 64  1  0
 67 65  1  0
 68 77  2  0
 68 73  1  0
 69 65  1  0
 69 73  1  0
 70 69  1  0
 71 72  1  0
 71 70  1  0
 72 68  1  0
 73 74  2  0
 74 75  1  0
 76 75  2  0
 77 76  1  0
 78 52  1  0
 78 79  1  0
 78 88  1  0
 79 82  1  0
 80 84  1  0
 80 79  1  0
 81 80  2  0
 84 83  1  0
 86 84  1  0
 86 87  1  0
 86 85  1  0
 88 91  1  1
 88 89  1  0
 90 88  1  0
M  ISO  4   9 100  17 100  50 101  51 101
M  END
>  <TORSDO>  (24) 
F 24

>  <SCORE>  (24) 
-10.771

>  <name>  (24) 
25

>  <ligand_id>  (24) 
25

>  <original_smiles>  (24) 
[H]c1c([H])c([H])c2c(c1[H])C([H])([H])C([H])([H])C([H])([H])C2([H])N([H])C(=O)C1([H])N(C(=O)C([H])(N([H])C(=O)C([H])(N([H])C([H])([H])[H])C([H])([H])[H])C(C([H])([H])[H])(C([H])([H])[H])C([H])([H])[H])C([H])([H])c2c([H])c(OC([H])([H])C([H])([H])C([H])([H])OC([H])([H])C(=O)N([H])C([H])([H])C([H])([H])C([H])([H])N([H])C(=O)N3C([H])([H])C([H])([H])C([H])([H])C([H])(n4nc(-c5c([H])c([H])c(Oc6c([H])c([H])c(F)c([H])c6F)c([H])c5[H])c(C(=O)N([H])[H])c4N([H])[H])C3([H])[H])c([H])c([H])c2C1([H])[H]

>  <smiles>  (24) 
[H]c1c([H])c([H])c2c(c1[H])C([H])([H])C([H])([H])C([H])([H])C2([H])N([H])C(=O)C1([H])N(C(=O)C([H])(N([H])C(=O)C([H])(N([H])C([H])([H])[H])C([H])([H])[H])C(C([H])([H])[H])(C([H])([H])[H])C([H])([H])[H])C([H])([H])c2c([H])c(OC([H])([H])C([H])([H])C([H])([H])OC([H])([H])C(=O)N([H])C([H])([H])C([H])([H])C([H])([H])N([H])C(=O)N3C([H])([H])C([H])([H])C([H])([H])C([H])(n4nc(-c5c([H])c([H])c(Oc6c([H])c([H])c(F)c([H])c6F)c([H])c5[H])c(C(=O)N([H])[H])c4N([H])[H])C3([H])[H])c([H])c([H])c2C1([H])[H]

$$$$
26:0:0
     RDKit          3D

 93100  0  0  1  0  0  0  0  0999 V2000
  -28.1440  -22.6410   21.1460 C   0  0  0  0  0  0  0  0  0  0  0  0
  -28.5320  -21.4160   20.7730 N   0  0  0  0  0  0  0  0  0  0  0  0
  -27.1910  -22.8300   21.9070 O   0  0  0  0  0  0  0  0  0  0  0  0
  -29.2710  -21.3630   20.0860 H   0  0  0  0  0  0  0  0  0  0  0  0
  -28.9600  -23.6760   20.5420 C   0  0  0  0  0  3  0  0  0  0  0  0
  -28.4910  -24.9340   20.4290 C   0  0  0  0  0  3  0  0  0  0  0  0
  -29.2640  -26.0950   19.8260 C   0  0  0  0  0  2  0  0  0  0  0  0
  -29.1260  -27.2940   20.5920 O   0  0  0  0  0  0  0  0  0  0  0  0
  -25.1020  -32.1500   23.8470 C   0  0  0  0  0  0  0  0  0  0  0  0
  -27.9180  -27.9630   20.5770 C   0  0  0  0  0  0  0  0  0  0  0  0
  -23.9690  -30.8310   22.0890 C   0  0  0  0  0  3  0  0  0  0  0  0
  -25.4890  -29.4120   20.6190 C   0  0  0  0  0  0  0  0  0  0  0  0
  -26.4910  -31.2500   21.9850 C   0  0  0  0  0  2  0  0  0  0  0  0
  -26.6200  -29.9240   21.2650 C   0  0  0  0  0  0  0  0  0  0  0  0
  -27.8360  -29.2070   21.2400 C   0  0  0  0  0  3  0  0  0  0  0  0
  -26.7600  -27.4600   19.9360 C   0  0  0  0  0  3  0  0  0  0  0  0
  -25.5510  -28.1770   19.9550 C   0  0  0  0  0  3  0  0  0  0  0  0
  -24.2290  -30.2430   20.6790 C   0  0  0  0  0  2  0  0  0  0  0  0
  -25.2050  -31.4220   22.6990 N   0  0  0  0  0  0  0  0  0  0  0  0
  -24.0010  -32.3680   24.3720 O   0  0  0  0  0  0  0  0  0  0  0  0
  -23.3130  -29.7380   22.9650 C   0  0  0  0  0  0  0  0  0  0  0  0
  -22.0170  -29.4800   22.7250 N   0  0  0  0  0  0  0  0  0  0  0  0
  -23.9680  -29.1300   23.8150 O   0  0  0  0  0  0  0  0  0  0  0  0
  -21.5490  -30.0300   22.0200 H   0  0  0  0  0  0  0  0  0  0  0  0
  -18.7160  -28.0150   22.8560 C   0  0  0  0  0  0  0  0  0  0  0  0
  -21.2020  -28.4700   23.3990 C   0  0  0  0  0  3  0  0  0  0  0  0
  -21.4770  -27.0590   22.8290 C   0  0  0  0  0  2  0  0  0  0  0  0
  -20.5170  -26.6650   21.7020 C   0  0  0  0  0  2  0  0  0  0  0  0
  -19.0680  -26.6930   22.1970 C   0  0  0  0  0  2  0  0  0  0  0  0
  -19.7190  -28.8570   23.4070 C   0  0  0  0  0  0  0  0  0  0  0  0
  -19.3410  -30.0930   23.9760 C   0  0  0  0  0  3  0  0  0  0  0  0
  -17.9910  -30.4910   24.0010 C   0  0  0  0  0  3  0  0  0  0  0  0
  -16.9990  -29.6470   23.4700 C   0  0  0  0  0  3  0  0  0  0  0  0
  -17.3620  -28.4110   22.9060 C   0  0  0  0  0  3  0  0  0  0  0  0
  -26.3570  -32.7640   24.5410 C   0  0  0  0  0  3  0  0  0  0  0  0
  -26.0570  -34.1730   24.8310 N   0  0  0  0  0  0  0  0  0  0  0  0
  -26.4410  -35.2040   24.0660 C   0  0  0  0  0  0  0  0  0  0  0  0
  -27.1580  -35.0680   23.0690 O   0  0  0  0  0  0  0  0  0  0  0  0
  -25.4320  -34.3530   25.6010 H   0  0  0  0  0  0  0  0  0  0  0  0
  -24.7440  -37.0010   23.6070 C   0  0  0  0  0  1  0  0  0  0  0  0
  -25.9560  -36.6090   24.4690 C   0  0  0  0  0  3  0  0  0  0  0  0
  -28.0850  -37.4810   25.3250 C   0  0  0  0  0  1  0  0  0  0  0  0
  -27.0030  -37.6480   24.3580 N   0  0  0  0  0  0  0  0  0  0  0  0
  -26.6050  -38.5760   24.4820 H   0  0  0  0  0  0  0  0  0  0  0  0
  -26.7760  -32.0010   25.8580 C   0  0  1  0  0  0  0  0  0  0  0  0
  -25.5990  -31.7320   26.8250 C   0  0  0  0  0  1  0  0  0  0  0  0
  -27.4260  -30.6400   25.5140 C   0  0  0  0  0  1  0  0  0  0  0  0
  -27.8430  -32.8210   26.6210 C   0  0  0  0  0  1  0  0  0  0  0  0
  -27.8250  -20.1880   21.1450 C   0  0  0  0  0  2  0  0  0  0  0  0
  -28.3050  -18.9670   20.3440 C   0  0  0  0  0  2  0  0  0  0  0  0
  -29.6910  -18.5580   20.6710 N   0  0  0  0  0  4  0  0  0  0  0  0
  -29.7560  -18.4140   21.6660 H   0  0  0  0  0  0  0  0  0  0  0  0
  -30.3210  -19.3060   20.4330 H   0  0  0  0  0  0  0  0  0  0  0  0
  -30.1120  -17.3360   19.9510 C   0  0  0  0  0  2  0  0  0  0  0  0
  -31.3460  -16.6380   20.5570 C   0  0  0  0  0  2  0  0  0  0  0  0
  -32.2510  -14.3430   20.3630 C   0  0  0  0  0  0  0  0  0  0  0  0
  -31.8950  -11.9210   20.2190 C   0  0  0  0  0  2  0  0  0  0  0  0
  -31.0730  -11.6390   18.9450 C   0  0  0  0  0  2  0  0  0  0  0  0
  -29.5610  -11.7520   19.2270 C   0  0  0  0  0  2  0  0  0  0  0  0
  -29.1840  -13.0550   19.9830 C   0  0  0  0  0  3  0  0  0  0  0  0
  -30.1280  -13.2900   21.1870 C   0  0  0  0  0  2  0  0  0  0  0  0
  -31.5120  -13.2550   20.6920 N   0  0  0  0  0  0  0  0  0  0  0  0
  -33.4470  -14.3050   20.0760 O   0  0  0  0  0  0  0  0  0  0  0  0
  -31.5180  -15.3530   19.8910 N   0  0  0  0  0  0  0  0  0  0  0  0
  -31.7390  -15.4950   18.9150 H   0  0  0  0  0  0  0  0  0  0  0  0
  -26.9390  -14.1260   20.6500 C   0  0  0  0  0  0  0  0  0  0  0  0
  -25.7090  -13.5830   20.9120 C   0  0  0  0  0  0  0  0  0  0  0  0
  -25.8660  -12.1700   20.7740 C   0  0  0  0  0  0  0  0  0  0  0  0
  -27.7790  -13.0550   20.3830 N   0  0  0  0  0  0  0  0  0  0  0  0
  -27.1310  -11.8690   20.5140 N   0  0  0  0  0  0  0  0  0  0  0  0
  -24.8720  -11.0890   20.8160 C   0  0  0  0  0  0  0  0  0  0  0  0
  -25.0200   -9.9840   21.6830 C   0  0  0  0  0  3  0  0  0  0  0  0
  -24.0440   -8.9660   21.7200 C   0  0  0  0  0  3  0  0  0  0  0  0
  -22.9020   -9.0490   20.8870 C   0  0  0  0  0  0  0  0  0  0  0  0
  -22.7710  -10.1390   20.0100 C   0  0  0  0  0  3  0  0  0  0  0  0
  -23.7470  -11.1480   19.9710 C   0  0  0  0  0  3  0  0  0  0  0  0
  -21.9150   -8.0950   20.8370 O   0  0  0  0  0  0  0  0  0  0  0  0
  -21.5960   -7.3330   21.9310 C   0  0  0  0  0  0  0  0  0  0  0  0
  -21.1810   -7.9120   23.1490 C   0  0  0  0  0  3  0  0  0  0  0  0
  -20.7970   -7.0880   24.2260 C   0  0  0  0  0  3  0  0  0  0  0  0
  -20.8170   -5.6870   24.0840 C   0  0  0  0  0  0  0  0  0  0  0  0
  -21.2220   -5.1080   22.8690 C   0  0  0  0  0  3  0  0  0  0  0  0
  -21.6080   -5.9300   21.7950 C   0  0  0  0  0  0  0  0  0  0  0  0
  -21.9800   -5.3660   20.6190 F   0  0  0  0  0  0  0  0  0  0  0  0
  -20.4400   -4.8950   25.1150 F   0  0  0  0  0  0  0  0  0  0  0  0
  -24.4360  -14.3350   21.1700 C   0  0  0  0  0  0  0  0  0  0  0  0
  -23.5340  -13.7620   21.9580 N   0  0  0  0  0  0  0  0  0  0  0  0
  -24.2560  -15.4640   20.7120 O   0  0  0  0  0  0  0  0  0  0  0  0
  -23.6910  -12.8460   22.3530 H   0  0  0  0  0  0  0  0  0  0  0  0
  -22.6740  -14.2470   22.1740 H   0  0  0  0  0  0  0  0  0  0  0  0
  -27.4030  -15.4360   20.5910 N   0  0  0  0  0  0  0  0  0  0  0  0
  -26.7510  -16.2120   20.6380 H   0  0  0  0  0  0  0  0  0  0  0  0
  -28.2840  -15.6810   20.1580 H   0  0  0  0  0  0  0  0  0  0  0  0
  1  3  2  0
  2 49  1  0
  2  1  1  0
  4  2  1  0
  5  1  1  0
  6  5  2  0
  7  6  1  0
  7  8  1  0
  9 20  2  0
 10  8  1  0
 10 15  1  0
 11 19  1  0
 11 21  1  0
 12 18  1  0
 12 14  1  0
 13 19  1  0
 14 13  1  0
 15 14  2  0
 16 17  1  0
 16 10  2  0
 17 12  2  0
 18 11  1  0
 19  9  1  0
 21 23  2  0
 22 21  1  0
 24 22  1  0
 25 34  2  0
 25 30  1  0
 26 22  1  0
 26 30  1  0
 27 26  1  0
 28 29  1  0
 28 27  1  0
 29 25  1  0
 30 31  2  0
 31 32  1  0
 33 32  2  0
 34 33  1  0
 35  9  1  0
 35 36  1  0
 35 45  1  0
 36 39  1  0
 37 41  1  0
 37 36  1  0
 38 37  2  0
 41 40  1  0
 43 41  1  0
 43 44  1  0
 43 42  1  0
 45 48  1  1
 45 46  1  0
 47 45  1  0
 50 51  1  0
 50 49  1  0
 51 52  1  0
 53 51  1  0
 54 55  1  0
 54 51  1  0
 56 62  1  0
 57 62  1  0
 58 59  1  0
 58 57  1  0
 60 59  1  0
 60 69  1  0
 60 61  1  0
 62 61  1  0
 63 56  2  0
 64 56  1  0
 64 55  1  0
 65 64  1  0
 66 67  2  0
 67 86  1  0
 68 71  1  0
 68 67  1  0
 69 70  1  0
 69 66  1  0
 70 68  2  0
 71 72  1  0
 72 73  2  0
 74 73  1  0
 75 74  2  0
 76 75  1  0
 76 71  2  0
 77 74  1  0
 77 78  1  0
 78 79  1  0
 79 80  2  0
 81 80  1  0
 81 85  1  0
 82 81  2  0
 83 78  2  0
 83 82  1  0
 84 83  1  0
 86 87  1  0
 87 90  1  0
 87 89  1  0
 88 86  2  0
 91 92  1  0
 91 66  1  0
 93 91  1  0
M  ISO  4   7 101   8 101  56 100  64 100
M  END
>  <TORSDO>  (25) 
F 23

>  <SCORE>  (25) 
-9.438

>  <name>  (25) 
26

>  <ligand_id>  (25) 
26

>  <original_smiles>  (25) 
[H]C(C(=O)N([H])C([H])([H])C([H])([H])[N+]([H])([H])C([H])([H])C([H])([H])N([H])C(=O)N1C([H])([H])C([H])([H])C([H])([H])C([H])(n2nc(-c3c([H])c([H])c(Oc4c([H])c([H])c(F)c([H])c4F)c([H])c3[H])c(C(=O)N([H])[H])c2N([H])[H])C1([H])[H])=C([H])C([H])([H])Oc1c([H])c([H])c2c(c1[H])C([H])([H])N(C(=O)C([H])(N([H])C(=O)C([H])(N([H])C([H])([H])[H])C([H])([H])[H])C(C([H])([H])[H])(C([H])([H])[H])C([H])([H])[H])C([H])(C(=O)N([H])C1([H])c3c([H])c([H])c([H])c([H])c3C([H])([H])C([H])([H])C1([H])[H])C2([H])[H]

>  <smiles>  (25) 
[H]C(C(=O)N([H])C([H])([H])C([H])([H])[N+]([H])([H])C([H])([H])C([H])([H])N([H])C(=O)N1C([H])([H])C([H])([H])C([H])([H])C([H])(n2nc(-c3c([H])c([H])c(Oc4c([H])c([H])c(F)c([H])c4F)c([H])c3[H])c(C(=O)N([H])[H])c2N([H])[H])C1([H])[H])=C([H])C([H])([H])Oc1c([H])c([H])c2c(c1[H])C([H])([H])N(C(=O)C([H])(N([H])C(=O)C([H])(N([H])C([H])([H])[H])C([H])([H])[H])C(C([H])([H])[H])(C([H])([H])[H])C([H])([H])[H])C([H])(C(=O)N([H])C1([H])c3c([H])c([H])c([H])c([H])c3C([H])([H])C([H])([H])C1([H])[H])C2([H])[H]

$$$$
27:0:0
     RDKit          3D

 98105  0  0  1  0  0  0  0  0999 V2000
  -28.7980  -20.9150   26.0700 C   0  0  0  0  0  2  0  0  0  0  0  0
  -29.3240  -21.2660   24.7410 N   0  0  0  0  0  0  0  0  0  0  0  0
  -28.5910  -21.1120   24.0480 H   0  0  0  0  0  0  0  0  0  0  0  0
  -29.7950  -22.6390   24.6420 C   0  0  0  0  0  2  0  0  0  0  0  0
  -30.1540  -22.9940   23.1890 C   0  0  0  0  0  2  0  0  0  0  0  0
  -30.5560  -24.3940   23.0930 N   0  0  0  0  0  0  0  0  0  0  0  0
  -29.8600  -24.9760   23.5620 H   0  0  0  0  0  0  0  0  0  0  0  0
  -30.6980  -24.8640   21.7150 C   0  0  0  0  0  2  0  0  0  0  0  0
  -30.9960  -26.3700   21.6610 C   0  0  0  0  0  2  0  0  0  0  0  0
  -30.6690  -26.8480   20.3570 O   0  0  0  0  0  0  0  0  0  0  0  0
  -25.4970  -30.7300   23.2590 C   0  0  0  0  0  0  0  0  0  0  0  0
  -29.3790  -27.2990   20.2590 C   0  0  0  0  0  0  0  0  0  0  0  0
  -24.8080  -29.2140   21.4250 C   0  0  0  0  0  3  0  0  0  0  0  0
  -26.7090  -28.1700   20.0800 C   0  0  0  0  0  0  0  0  0  0  0  0
  -27.1730  -30.1750   21.5070 C   0  0  0  0  0  2  0  0  0  0  0  0
  -27.6400  -28.9130   20.8160 C   0  0  0  0  0  0  0  0  0  0  0  0
  -28.9770  -28.4820   20.9110 C   0  0  0  0  0  3  0  0  0  0  0  0
  -28.4440  -26.5620   19.5060 C   0  0  0  0  0  3  0  0  0  0  0  0
  -27.1040  -26.9900   19.4200 C   0  0  0  0  0  3  0  0  0  0  0  0
  -25.2940  -28.7010   20.0410 C   0  0  0  0  0  2  0  0  0  0  0  0
  -25.8350  -30.0510   22.1260 N   0  0  0  0  0  0  0  0  0  0  0  0
  -24.3370  -30.7060   23.6960 O   0  0  0  0  0  0  0  0  0  0  0  0
  -24.3360  -28.0010   22.2590 C   0  0  0  0  0  0  0  0  0  0  0  0
  -23.1310  -27.5030   21.9510 N   0  0  0  0  0  0  0  0  0  0  0  0
  -25.0590  -27.5150   23.1330 O   0  0  0  0  0  0  0  0  0  0  0  0
  -22.6020  -27.9630   21.2230 H   0  0  0  0  0  0  0  0  0  0  0  0
  -20.1400  -25.4800   21.9430 C   0  0  0  0  0  0  0  0  0  0  0  0
  -22.4940  -26.3420   22.5710 C   0  0  0  0  0  3  0  0  0  0  0  0
  -23.0270  -25.0240   21.9620 C   0  0  0  0  0  2  0  0  0  0  0  0
  -22.1760  -24.5100   20.7970 C   0  0  0  0  0  2  0  0  0  0  0  0
  -20.7350  -24.2640   21.2520 C   0  0  0  0  0  2  0  0  0  0  0  0
  -20.9670  -26.4630   22.5470 C   0  0  0  0  0  0  0  0  0  0  0  0
  -20.3650  -27.5940   23.1430 C   0  0  0  0  0  3  0  0  0  0  0  0
  -18.9650  -27.7470   23.1460 C   0  0  0  0  0  3  0  0  0  0  0  0
  -18.1510  -26.7610   22.5630 C   0  0  0  0  0  3  0  0  0  0  0  0
  -18.7370  -25.6300   21.9680 C   0  0  0  0  0  3  0  0  0  0  0  0
  -26.5410  -31.5870   24.0430 C   0  0  0  0  0  3  0  0  0  0  0  0
  -27.0050  -30.9190   25.3940 C   0  0  1  0  0  0  0  0  0  0  0  0
  -25.8310  -30.4690   26.2970 C   0  0  0  0  0  1  0  0  0  0  0  0
  -27.8910  -29.6830   25.1110 C   0  0  0  0  0  1  0  0  0  0  0  0
  -27.8780  -31.9110   26.2000 C   0  0  0  0  0  1  0  0  0  0  0  0
  -25.9370  -32.9010   24.2940 N   0  0  0  0  0  0  0  0  0  0  0  0
  -26.1870  -34.0020   23.5710 C   0  0  0  0  0  0  0  0  0  0  0  0
  -27.0190  -34.0310   22.6600 O   0  0  0  0  0  0  0  0  0  0  0  0
  -25.2080  -32.9400   24.9920 H   0  0  0  0  0  0  0  0  0  0  0  0
  -24.2440  -35.4440   22.9020 C   0  0  0  0  0  1  0  0  0  0  0  0
  -25.3880  -35.2720   23.9150 C   0  0  0  0  0  3  0  0  0  0  0  0
  -27.1540  -36.5230   25.0710 C   0  0  0  0  0  1  0  0  0  0  0  0
  -26.2170  -36.4970   23.9500 N   0  0  0  0  0  0  0  0  0  0  0  0
  -25.6320  -37.3260   24.0090 H   0  0  0  0  0  0  0  0  0  0  0  0
  -28.6770  -19.3900   26.1630 C   0  0  0  0  0  2  0  0  0  0  0  0
  -29.2860  -18.8490   24.9530 N   0  0  0  0  0  0  0  0  0  0  0  0
  -29.0860  -19.6030   24.2810 H   0  0  0  0  0  0  0  0  0  0  0  0
  -30.7390  -18.6190   25.0170 C   0  0  0  0  0  2  0  0  0  0  0  0
  -31.2880  -18.4400   23.5950 C   0  0  0  0  0  2  0  0  0  0  0  0
  -30.3540  -17.5930   22.8260 N   0  0  0  0  0  4  0  0  0  0  0  0
  -30.2560  -16.6950   23.2650 H   0  0  0  0  0  0  0  0  0  0  0  0
  -29.4660  -18.0630   22.9510 H   0  0  0  0  0  0  0  0  0  0  0  0
  -30.6680  -17.4490   21.3900 C   0  0  0  0  0  2  0  0  0  0  0  0
  -31.4380  -16.1460   21.1120 C   0  0  0  0  0  2  0  0  0  0  0  0
  -30.6000  -14.3950   19.5450 C   0  0  0  0  0  0  0  0  0  0  0  0
  -30.2400  -12.1270   18.6470 C   0  0  0  0  0  2  0  0  0  0  0  0
  -29.1490  -12.0360   17.5680 C   0  0  0  0  0  2  0  0  0  0  0  0
  -27.7680  -11.8430   18.2160 C   0  0  0  0  0  2  0  0  0  0  0  0
  -27.4880  -12.9000   19.3110 C   0  0  0  0  0  3  0  0  0  0  0  0
  -28.6640  -12.9900   20.3090 C   0  0  0  0  0  2  0  0  0  0  0  0
  -29.9140  -13.2280   19.5640 N   0  0  0  0  0  0  0  0  0  0  0  0
  -31.3670  -14.7270   18.6350 O   0  0  0  0  0  0  0  0  0  0  0  0
  -30.5540  -15.0520   20.7120 N   0  0  0  0  0  0  0  0  0  0  0  0
  -29.9690  -14.6330   21.4210 H   0  0  0  0  0  0  0  0  0  0  0  0
  -25.2810  -13.5270   20.4840 C   0  0  0  0  0  0  0  0  0  0  0  0
  -24.2540  -12.7600   20.9710 C   0  0  0  0  0  0  0  0  0  0  0  0
  -24.6360  -11.4020   20.7430 C   0  0  0  0  0  0  0  0  0  0  0  0
  -26.2240  -12.6350   19.9960 N   0  0  0  0  0  0  0  0  0  0  0  0
  -25.8480  -11.3470   20.2080 N   0  0  0  0  0  0  0  0  0  0  0  0
  -23.8930  -10.1540   20.9540 C   0  0  0  0  0  0  0  0  0  0  0  0
  -24.3590   -9.1590   21.8430 C   0  0  0  0  0  3  0  0  0  0  0  0
  -23.6180   -7.9730   22.0390 C   0  0  0  0  0  3  0  0  0  0  0  0
  -22.4000   -7.7740   21.3480 C   0  0  0  0  0  0  0  0  0  0  0  0
  -21.9530   -8.7580   20.4480 C   0  0  0  0  0  3  0  0  0  0  0  0
  -22.6930   -9.9350   20.2490 C   0  0  0  0  0  3  0  0  0  0  0  0
  -21.6260   -6.6430   21.4570 O   0  0  0  0  0  0  0  0  0  0  0  0
  -21.5180   -5.9570   22.6400 C   0  0  0  0  0  0  0  0  0  0  0  0
  -21.0400   -6.5720   23.8170 C   0  0  0  0  0  3  0  0  0  0  0  0
  -20.8770   -5.8110   24.9920 C   0  0  0  0  0  3  0  0  0  0  0  0
  -21.1850   -4.4380   24.9910 C   0  0  0  0  0  0  0  0  0  0  0  0
  -21.6550   -3.8220   23.8180 C   0  0  0  0  0  3  0  0  0  0  0  0
  -21.8200   -4.5800   22.6450 C   0  0  0  0  0  0  0  0  0  0  0  0
  -22.2530   -3.9780   21.5120 F   0  0  0  0  0  0  0  0  0  0  0  0
  -21.0210   -3.7060   26.1180 F   0  0  0  0  0  0  0  0  0  0  0  0
  -22.9520  -13.2580   21.5280 C   0  0  0  0  0  0  0  0  0  0  0  0
  -22.3640  -12.5190   22.4640 N   0  0  0  0  0  0  0  0  0  0  0  0
  -22.4740  -14.3330   21.1710 O   0  0  0  0  0  0  0  0  0  0  0  0
  -22.7640  -11.6440   22.7670 H   0  0  0  0  0  0  0  0  0  0  0  0
  -21.5010  -12.8350   22.8820 H   0  0  0  0  0  0  0  0  0  0  0  0
  -25.4800  -14.9000   20.3990 N   0  0  0  0  0  0  0  0  0  0  0  0
  -24.7790  -15.5700   20.6960 H   0  0  0  0  0  0  0  0  0  0  0  0
  -26.2930  -15.3390   19.9840 H   0  0  0  0  0  0  0  0  0  0  0  0
  1 51  1  0
  2  1  1  0
  3  2  1  0
  4  2  1  0
  5  4  1  0
  6  5  1  0
  6  7  1  0
  8  6  1  0
  9  8  1  0
 10  9  1  0
 11 22  2  0
 12 10  1  0
 12 17  1  0
 13 21  1  0
 13 23  1  0
 14 16  1  0
 15 21  1  0
 16 17  2  0
 16 15  1  0
 18 12  2  0
 19 18  1  0
 19 14  2  0
 20 14  1  0
 20 13  1  0
 21 11  1  0
 23 25  2  0
 24 23  1  0
 26 24  1  0
 27 36  2  0
 27 32  1  0
 28 24  1  0
 29 28  1  0
 30 31  1  0
 30 29  1  0
 31 27  1  0
 32 28  1  0
 32 33  2  0
 33 34  1  0
 35 34  2  0
 36 35  1  0
 37 11  1  0
 37 42  1  0
 37 38  1  0
 38 41  1  1
 38 39  1  0
 40 38  1  0
 42 45  1  0
 43 47  1  0
 43 42  1  0
 44 43  2  0
 47 46  1  0
 47 49  1  0
 49 50  1  0
 49 48  1  0
 52 54  1  0
 52 51  1  0
 53 52  1  0
 55 54  1  0
 56 58  1  0
 56 57  1  0
 56 55  1  0
 59 56  1  0
 60 59  1  0
 61 67  1  0
 61 69  1  0
 62 67  1  0
 63 64  1  0
 63 62  1  0
 65 64  1  0
 65 74  1  0
 65 66  1  0
 67 66  1  0
 68 61  2  0
 69 60  1  0
 69 70  1  0
 71 72  2  0
 72 91  1  0
 73 76  1  0
 73 72  1  0
 74 75  1  0
 74 71  1  0
 75 73  2  0
 76 77  1  0
 77 78  2  0
 79 82  1  0
 79 78  1  0
 80 79  2  0
 81 80  1  0
 81 76  2  0
 82 83  1  0
 83 88  2  0
 83 84  1  0
 84 85  2  0
 86 85  1  0
 86 90  1  0
 87 86  2  0
 88 87  1  0
 89 88  1  0
 91 92  1  0
 92 94  1  0
 92 95  1  0
 93 91  2  0
 96 71  1  0
 96 97  1  0
 98 96  1  0
M  ISO  4   9 101  10 101  61 100  69 100
M  END
>  <TORSDO>  (26) 
F 29

>  <SCORE>  (26) 
0.437

>  <name>  (26) 
27

>  <ligand_id>  (26) 
27

>  <original_smiles>  (26) 
[H]c1c([H])c([H])c2c(c1[H])C([H])([H])C([H])([H])C([H])([H])C2([H])N([H])C(=O)C1([H])N(C(=O)C([H])(N([H])C(=O)C([H])(N([H])C([H])([H])[H])C([H])([H])[H])C(C([H])([H])[H])(C([H])([H])[H])C([H])([H])[H])C([H])([H])c2c([H])c(OC([H])([H])C([H])([H])N([H])C([H])([H])C([H])([H])N([H])C([H])([H])C([H])([H])N([H])C([H])([H])C([H])([H])[N+]([H])([H])C([H])([H])C([H])([H])N([H])C(=O)N3C([H])([H])C([H])([H])C([H])([H])C([H])(n4nc(-c5c([H])c([H])c(Oc6c([H])c([H])c(F)c([H])c6F)c([H])c5[H])c(C(=O)N([H])[H])c4N([H])[H])C3([H])[H])c([H])c([H])c2C1([H])[H]

>  <smiles>  (26) 
[H]c1c([H])c([H])c2c(c1[H])C([H])([H])C([H])([H])C([H])([H])C2([H])N([H])C(=O)C1([H])N(C(=O)C([H])(N([H])C(=O)C([H])(N([H])C([H])([H])[H])C([H])([H])[H])C(C([H])([H])[H])(C([H])([H])[H])C([H])([H])[H])C([H])([H])c2c([H])c(OC([H])([H])C([H])([H])N([H])C([H])([H])C([H])([H])N([H])C([H])([H])C([H])([H])N([H])C([H])([H])C([H])([H])[N+]([H])([H])C([H])([H])C([H])([H])N([H])C(=O)N3C([H])([H])C([H])([H])C([H])([H])C([H])(n4nc(-c5c([H])c([H])c(Oc6c([H])c([H])c(F)c([H])c6F)c([H])c5[H])c(C(=O)N([H])[H])c4N([H])[H])C3([H])[H])c([H])c([H])c2C1([H])[H]

$$$$
28:0:0
     RDKit          3D

 92 99  0  0  1  0  0  0  0  0999 V2000
  -30.7910  -21.8480   21.6530 C   0  0  0  0  0  2  0  0  0  0  0  0
  -30.9070  -20.3760   21.4980 N   0  0  0  0  0  4  0  0  0  0  0  0
  -30.0120  -19.9410   21.6550 H   0  0  0  0  0  0  0  0  0  0  0  0
  -31.1920  -20.1310   20.5620 H   0  0  0  0  0  0  0  0  0  0  0  0
  -31.8680  -19.7650   22.4400 C   0  0  0  0  0  2  0  0  0  0  0  0
  -31.3120  -18.4850   23.0860 C   0  0  0  0  0  2  0  0  0  0  0  0
  -31.2960  -16.2300   22.6640 C   0  0  0  0  0  2  0  0  0  0  0  0
  -31.2660  -17.3860   22.1340 N   0  0  0  0  0  2  0  0  0  0  0  0
  -31.4880  -14.9420   21.9000 C   0  0  0  0  0  2  0  0  0  0  0  0
  -30.1570  -14.1960   19.9460 C   0  0  0  0  0  0  0  0  0  0  0  0
  -29.6220  -12.2580   18.5290 C   0  0  0  0  0  2  0  0  0  0  0  0
  -28.5020  -12.4630   17.4980 C   0  0  0  0  0  2  0  0  0  0  0  0
  -27.1290  -12.1950   18.1320 C   0  0  0  0  0  2  0  0  0  0  0  0
  -26.9300  -12.9750   19.4560 C   0  0  0  0  0  3  0  0  0  0  0  0
  -28.1320  -12.7780   20.4070 C   0  0  0  0  0  2  0  0  0  0  0  0
  -29.3740  -13.1230   19.6900 N   0  0  0  0  0  0  0  0  0  0  0  0
  -30.9160  -14.7050   19.1150 O   0  0  0  0  0  0  0  0  0  0  0  0
  -30.2750  -14.4400   21.2540 N   0  0  0  0  0  0  0  0  0  0  0  0
  -29.6320  -13.9390   21.8480 H   0  0  0  0  0  0  0  0  0  0  0  0
  -24.6120  -13.4140   20.4860 C   0  0  0  0  0  0  0  0  0  0  0  0
  -23.6480  -12.5670   20.9630 C   0  0  0  0  0  0  0  0  0  0  0  0
  -24.1820  -11.2480   20.8320 C   0  0  0  0  0  0  0  0  0  0  0  0
  -25.6700  -12.6070   20.0980 N   0  0  0  0  0  0  0  0  0  0  0  0
  -25.4200  -11.2980   20.3610 N   0  0  0  0  0  0  0  0  0  0  0  0
  -23.5630   -9.9380   21.0720 C   0  0  0  0  0  0  0  0  0  0  0  0
  -24.1020   -9.0270   22.0090 C   0  0  0  0  0  3  0  0  0  0  0  0
  -23.4760   -7.7820   22.2380 C   0  0  0  0  0  3  0  0  0  0  0  0
  -22.2990   -7.4370   21.5320 C   0  0  0  0  0  0  0  0  0  0  0  0
  -21.7780   -8.3390   20.5870 C   0  0  0  0  0  3  0  0  0  0  0  0
  -22.4050   -9.5750   20.3560 C   0  0  0  0  0  3  0  0  0  0  0  0
  -21.6400   -6.2390   21.6680 O   0  0  0  0  0  0  0  0  0  0  0  0
  -21.6370   -5.5500   22.8540 C   0  0  0  0  0  0  0  0  0  0  0  0
  -21.1420   -6.1220   24.0460 C   0  0  0  0  0  3  0  0  0  0  0  0
  -21.0950   -5.3560   25.2280 C   0  0  0  0  0  3  0  0  0  0  0  0
  -21.5320   -4.0170   25.2180 C   0  0  0  0  0  0  0  0  0  0  0  0
  -22.0220   -3.4460   24.0310 C   0  0  0  0  0  3  0  0  0  0  0  0
  -22.0710   -4.2090   22.8520 C   0  0  0  0  0  0  0  0  0  0  0  0
  -22.5240   -3.6470   21.7060 F   0  0  0  0  0  0  0  0  0  0  0  0
  -21.4780   -3.2780   26.3520 F   0  0  0  0  0  0  0  0  0  0  0  0
  -22.2710  -12.9480   21.4250 C   0  0  0  0  0  0  0  0  0  0  0  0
  -21.7080  -12.1940   22.3620 N   0  0  0  0  0  0  0  0  0  0  0  0
  -21.7060  -13.9520   20.9940 O   0  0  0  0  0  0  0  0  0  0  0  0
  -22.1770  -11.3810   22.7340 H   0  0  0  0  0  0  0  0  0  0  0  0
  -20.7930  -12.4370   22.7160 H   0  0  0  0  0  0  0  0  0  0  0  0
  -24.6680  -14.7960   20.3320 N   0  0  0  0  0  0  0  0  0  0  0  0
  -23.8850  -15.3990   20.5570 H   0  0  0  0  0  0  0  0  0  0  0  0
  -25.4500  -15.2980   19.9320 H   0  0  0  0  0  0  0  0  0  0  0  0
  -29.7720  -22.5040   20.7070 C   0  0  0  0  0  2  0  0  0  0  0  0
  -29.6680  -23.8560   21.1330 O   0  0  0  0  0  0  0  0  0  0  0  0
  -28.8900  -24.6910   20.2890 C   0  0  0  0  0  2  0  0  0  0  0  0
  -28.7100  -26.0440   21.0010 C   0  0  0  0  0  2  0  0  0  0  0  0
  -28.5740  -27.1030   20.0610 O   0  0  0  0  0  0  0  0  0  0  0  0
  -24.6440  -32.0270   23.3690 C   0  0  0  0  0  0  0  0  0  0  0  0
  -27.3840  -27.7740   20.1400 C   0  0  0  0  0  0  0  0  0  0  0  0
  -23.4620  -30.6400   21.6940 C   0  0  0  0  0  3  0  0  0  0  0  0
  -24.9440  -29.1780   20.2230 C   0  0  0  0  0  0  0  0  0  0  0  0
  -25.9710  -31.0790   21.4860 C   0  0  0  0  0  2  0  0  0  0  0  0
  -26.0880  -29.7270   20.8150 C   0  0  0  0  0  0  0  0  0  0  0  0
  -27.3140  -29.0310   20.7730 C   0  0  0  0  0  3  0  0  0  0  0  0
  -26.2280  -27.2210   19.5530 C   0  0  0  0  0  3  0  0  0  0  0  0
  -25.0040  -27.9200   19.5950 C   0  0  0  0  0  3  0  0  0  0  0  0
  -23.6770  -30.0010   20.2970 C   0  0  0  0  0  2  0  0  0  0  0  0
  -24.7100  -31.2620   22.2420 N   0  0  0  0  0  0  0  0  0  0  0  0
  -23.5610  -32.2540   23.9230 O   0  0  0  0  0  0  0  0  0  0  0  0
  -22.8450  -29.5750   22.6300 C   0  0  0  0  0  0  0  0  0  0  0  0
  -21.5280  -29.3540   22.4970 N   0  0  0  0  0  0  0  0  0  0  0  0
  -23.5500  -28.9530   23.4290 O   0  0  0  0  0  0  0  0  0  0  0  0
  -21.0200  -29.9120   21.8260 H   0  0  0  0  0  0  0  0  0  0  0  0
  -18.1920  -28.0480   22.9580 C   0  0  0  0  0  0  0  0  0  0  0  0
  -20.7400  -28.3730   23.2410 C   0  0  0  0  0  3  0  0  0  0  0  0
  -20.8870  -26.9610   22.6290 C   0  0  0  0  0  2  0  0  0  0  0  0
  -19.7950  -26.6310   21.6050 C   0  0  0  0  0  2  0  0  0  0  0  0
  -18.4090  -26.7210   22.2500 C   0  0  0  0  0  2  0  0  0  0  0  0
  -19.2870  -28.8310   23.4100 C   0  0  0  0  0  0  0  0  0  0  0  0
  -19.0310  -30.0730   24.0290 C   0  0  0  0  0  3  0  0  0  0  0  0
  -17.7130  -30.5320   24.2030 C   0  0  0  0  0  3  0  0  0  0  0  0
  -16.6320  -29.7450   23.7690 C   0  0  0  0  0  3  0  0  0  0  0  0
  -16.8730  -28.5060   23.1510 C   0  0  0  0  0  3  0  0  0  0  0  0
  -25.9190  -32.6710   23.9980 C   0  0  0  0  0  3  0  0  0  0  0  0
  -26.4160  -31.9240   25.2970 C   0  0  1  0  0  0  0  0  0  0  0  0
  -25.3030  -31.6820   26.3420 C   0  0  0  0  0  1  0  0  0  0  0  0
  -27.0290  -30.5520   24.9320 C   0  0  0  0  0  1  0  0  0  0  0  0
  -27.5390  -32.7430   25.9760 C   0  0  0  0  0  1  0  0  0  0  0  0
  -25.6050  -34.0750   24.2940 N   0  0  0  0  0  0  0  0  0  0  0  0
  -25.9480  -35.1100   23.5160 C   0  0  0  0  0  0  0  0  0  0  0  0
  -26.6330  -34.9830   22.4970 O   0  0  0  0  0  0  0  0  0  0  0  0
  -25.0020  -34.2470   25.0860 H   0  0  0  0  0  0  0  0  0  0  0  0
  -24.2230  -36.8890   23.0910 C   0  0  0  0  0  1  0  0  0  0  0  0
  -25.4500  -36.5070   23.9330 C   0  0  0  0  0  3  0  0  0  0  0  0
  -27.5700  -37.4090   24.7800 C   0  0  0  0  0  1  0  0  0  0  0  0
  -26.4840  -37.5580   23.8150 N   0  0  0  0  0  0  0  0  0  0  0  0
  -26.0760  -38.4810   23.9380 H   0  0  0  0  0  0  0  0  0  0  0  0
  2  1  1  0
  2  3  1  0
  2  5  1  0
  4  2  1  0
  5  6  1  0
  8  7  1  0
  8  6  1  0
  9  7  1  0
 10 18  1  0
 11 16  1  0
 12 13  1  0
 12 11  1  0
 14 13  1  0
 14 23  1  0
 14 15  1  0
 16 10  1  0
 16 15  1  0
 17 10  2  0
 18 19  1  0
 18  9  1  0
 20 21  2  0
 21 40  1  0
 22 21  1  0
 22 25  1  0
 23 24  1  0
 23 20  1  0
 24 22  2  0
 25 26  1  0
 26 27  2  0
 28 31  1  0
 28 27  1  0
 29 28  2  0
 30 29  1  0
 30 25  2  0
 31 32  1  0
 32 33  1  0
 33 34  2  0
 35 34  1  0
 35 39  1  0
 36 35  2  0
 37 32  2  0
 37 36  1  0
 38 37  1  0
 40 41  1  0
 41 44  1  0
 41 43  1  0
 42 40  2  0
 45 20  1  0
 45 46  1  0
 47 45  1  0
 48 49  1  0
 48  1  1  0
 50 51  1  0
 50 49  1  0
 52 54  1  0
 52 51  1  0
 53 64  2  0
 54 59  1  0
 55 63  1  0
 55 65  1  0
 56 62  1  0
 56 58  1  0
 57 63  1  0
 58 57  1  0
 59 58  2  0
 60 61  1  0
 60 54  2  0
 61 56  2  0
 62 55  1  0
 63 53  1  0
 65 67  2  0
 66 65  1  0
 68 66  1  0
 69 78  2  0
 69 74  1  0
 70 66  1  0
 70 74  1  0
 71 70  1  0
 72 73  1  0
 72 71  1  0
 73 69  1  0
 74 75  2  0
 75 76  1  0
 77 76  2  0
 78 77  1  0
 79 53  1  0
 79 84  1  0
 79 80  1  0
 80 83  1  1
 80 81  1  0
 82 80  1  0
 84 87  1  0
 85 89  1  0
 85 84  1  0
 86 85  2  0
 89 88  1  0
 91 89  1  0
 91 92  1  0
 91 90  1  0
M  ISO  4  10 100  18 100  51 101  52 101
M  END
>  <TORSDO>  (27) 
F 25

>  <SCORE>  (27) 
-9.319

>  <name>  (27) 
28

>  <ligand_id>  (27) 
28

>  <original_smiles>  (27) 
[H]C(=NC([H])([H])C([H])([H])[N+]([H])([H])C([H])([H])C([H])([H])OC([H])([H])C([H])([H])Oc1c([H])c([H])c2c(c1[H])C([H])([H])N(C(=O)C([H])(N([H])C(=O)C([H])(N([H])C([H])([H])[H])C([H])([H])[H])C(C([H])([H])[H])(C([H])([H])[H])C([H])([H])[H])C([H])(C(=O)N([H])C1([H])c3c([H])c([H])c([H])c([H])c3C([H])([H])C([H])([H])C1([H])[H])C2([H])[H])C([H])([H])N([H])C(=O)N1C([H])([H])C([H])([H])C([H])([H])C([H])(n2nc(-c3c([H])c([H])c(Oc4c([H])c([H])c(F)c([H])c4F)c([H])c3[H])c(C(=O)N([H])[H])c2N([H])[H])C1([H])[H]

>  <smiles>  (27) 
[H]C(=NC([H])([H])C([H])([H])[N+]([H])([H])C([H])([H])C([H])([H])OC([H])([H])C([H])([H])Oc1c([H])c([H])c2c(c1[H])C([H])([H])N(C(=O)C([H])(N([H])C(=O)C([H])(N([H])C([H])([H])[H])C([H])([H])[H])C(C([H])([H])[H])(C([H])([H])[H])C([H])([H])[H])C([H])(C(=O)N([H])C1([H])c3c([H])c([H])c([H])c([H])c3C([H])([H])C([H])([H])C1([H])[H])C2([H])[H])C([H])([H])N([H])C(=O)N1C([H])([H])C([H])([H])C([H])([H])C([H])(n2nc(-c3c([H])c([H])c(Oc4c([H])c([H])c(F)c([H])c4F)c([H])c3[H])c(C(=O)N([H])[H])c2N([H])[H])C1([H])[H]

$$$$
29:0:0
     RDKit          3D

 96103  0  0  1  0  0  0  0  0999 V2000
  -29.4320  -23.3480   23.4230 C   0  0  0  0  0  2  0  0  0  0  0  0
  -29.1620  -21.8450   23.2950 C   0  0  0  0  0  2  0  0  0  0  0  0
  -30.3630  -21.2350   22.7460 N   0  0  0  0  0  0  0  0  0  0  0  0
  -31.1670  -21.4370   23.3370 H   0  0  0  0  0  0  0  0  0  0  0  0
  -30.2190  -19.7980   22.5640 C   0  0  0  0  0  2  0  0  0  0  0  0
  -31.2590  -19.3470   21.5270 C   0  0  0  0  0  2  0  0  0  0  0  0
  -31.2130  -17.8950   21.2850 N   0  0  0  0  0  4  0  0  0  0  0  0
  -31.4040  -17.4190   22.1510 H   0  0  0  0  0  0  0  0  0  0  0  0
  -30.2870  -17.6380   20.9820 H   0  0  0  0  0  0  0  0  0  0  0  0
  -32.1830  -17.4460   20.2660 C   0  0  0  0  0  2  0  0  0  0  0  0
  -32.5110  -15.9530   20.4000 C   0  0  0  0  0  2  0  0  0  0  0  0
  -31.3390  -14.3000   18.9710 C   0  0  0  0  0  0  0  0  0  0  0  0
  -30.9210  -11.9390   18.4340 C   0  0  0  0  0  2  0  0  0  0  0  0
  -29.8180  -11.6880   17.3950 C   0  0  0  0  0  2  0  0  0  0  0  0
  -28.4400  -11.6320   18.0750 C   0  0  0  0  0  2  0  0  0  0  0  0
  -28.1850  -12.8500   18.9980 C   0  0  0  0  0  3  0  0  0  0  0  0
  -29.3750  -13.0820   19.9540 C   0  0  0  0  0  2  0  0  0  0  0  0
  -30.6170  -13.1740   19.1630 N   0  0  0  0  0  0  0  0  0  0  0  0
  -32.0920  -14.4870   18.0100 O   0  0  0  0  0  0  0  0  0  0  0  0
  -31.3910  -15.0740   20.0620 N   0  0  0  0  0  0  0  0  0  0  0  0
  -30.7870  -14.7890   20.8190 H   0  0  0  0  0  0  0  0  0  0  0  0
  -26.0740  -13.6880   20.2140 C   0  0  0  0  0  0  0  0  0  0  0  0
  -25.0030  -13.0230   20.7510 C   0  0  0  0  0  0  0  0  0  0  0  0
  -25.2620  -11.6330   20.5490 C   0  0  0  0  0  0  0  0  0  0  0  0
  -26.9250  -12.7080   19.7270 N   0  0  0  0  0  0  0  0  0  0  0  0
  -26.4490  -11.4620   19.9800 N   0  0  0  0  0  0  0  0  0  0  0  0
  -24.4210  -10.4570   20.8120 C   0  0  0  0  0  0  0  0  0  0  0  0
  -24.8160   -9.4570   21.7280 C   0  0  0  0  0  3  0  0  0  0  0  0
  -23.9820   -8.3450   21.9780 C   0  0  0  0  0  3  0  0  0  0  0  0
  -22.7390   -8.2260   21.3100 C   0  0  0  0  0  0  0  0  0  0  0  0
  -22.3630   -9.2130   20.3820 C   0  0  0  0  0  3  0  0  0  0  0  0
  -23.1960  -10.3150   20.1320 C   0  0  0  0  0  3  0  0  0  0  0  0
  -21.8760   -7.1690   21.4700 O   0  0  0  0  0  0  0  0  0  0  0  0
  -21.7380   -6.5290   22.6770 C   0  0  0  0  0  0  0  0  0  0  0  0
  -21.3320   -7.2160   23.8410 C   0  0  0  0  0  3  0  0  0  0  0  0
  -21.1330   -6.5080   25.0430 C   0  0  0  0  0  3  0  0  0  0  0  0
  -21.3300   -5.1150   25.0820 C   0  0  0  0  0  0  0  0  0  0  0  0
  -21.7300   -4.4280   23.9210 C   0  0  0  0  0  3  0  0  0  0  0  0
  -21.9300   -5.1340   22.7220 C   0  0  0  0  0  0  0  0  0  0  0  0
  -22.2940   -4.4650   21.6020 F   0  0  0  0  0  0  0  0  0  0  0  0
  -21.1330   -4.4330   26.2330 F   0  0  0  0  0  0  0  0  0  0  0  0
  -23.7640  -13.6420   21.3310 C   0  0  0  0  0  0  0  0  0  0  0  0
  -23.1460  -12.9810   22.3040 N   0  0  0  0  0  0  0  0  0  0  0  0
  -23.3640  -14.7430   20.9560 O   0  0  0  0  0  0  0  0  0  0  0  0
  -23.4850  -12.0860   22.6260 H   0  0  0  0  0  0  0  0  0  0  0  0
  -22.3220  -13.3770   22.7350 H   0  0  0  0  0  0  0  0  0  0  0  0
  -26.3860  -15.0380   20.0820 N   0  0  0  0  0  0  0  0  0  0  0  0
  -25.7500  -15.7730   20.3750 H   0  0  0  0  0  0  0  0  0  0  0  0
  -27.2090  -15.3920   19.6100 H   0  0  0  0  0  0  0  0  0  0  0  0
  -28.1920  -24.2100   23.1310 C   0  0  0  0  0  2  0  0  0  0  0  0
  -28.5770  -25.5510   22.6450 N   0  0  0  0  0  4  0  0  0  0  0  0
  -29.3250  -25.8990   23.2260 H   0  0  0  0  0  0  0  0  0  0  0  0
  -27.7870  -26.1660   22.7740 H   0  0  0  0  0  0  0  0  0  0  0  0
  -28.9730  -25.5710   21.2150 C   0  0  0  0  0  2  0  0  0  0  0  0
  -29.5890  -26.9130   20.7780 C   0  0  0  0  0  2  0  0  0  0  0  0
  -29.0080  -27.3020   19.5360 O   0  0  0  0  0  0  0  0  0  0  0  0
  -24.6750  -31.6440   23.1380 C   0  0  0  0  0  0  0  0  0  0  0  0
  -27.7660  -27.8710   19.6540 C   0  0  0  0  0  0  0  0  0  0  0  0
  -23.6020  -30.2320   21.4100 C   0  0  0  0  0  3  0  0  0  0  0  0
  -25.1950  -29.0050   19.8420 C   0  0  0  0  0  0  0  0  0  0  0  0
  -26.0450  -30.9370   21.1850 C   0  0  0  0  0  2  0  0  0  0  0  0
  -26.2870  -29.6420   20.4440 C   0  0  0  0  0  0  0  0  0  0  0  0
  -27.5750  -29.0810   20.3540 C   0  0  0  0  0  3  0  0  0  0  0  0
  -26.6650  -27.2370   19.0470 C   0  0  0  0  0  3  0  0  0  0  0  0
  -25.3760  -27.7950   19.1430 C   0  0  0  0  0  3  0  0  0  0  0  0
  -23.8530  -29.6850   19.9790 C   0  0  0  0  0  2  0  0  0  0  0  0
  -24.7920  -30.9470   21.9720 N   0  0  0  0  0  0  0  0  0  0  0  0
  -23.5850  -31.7370   23.7200 O   0  0  0  0  0  0  0  0  0  0  0  0
  -23.1120  -29.0670   22.2980 C   0  0  0  0  0  0  0  0  0  0  0  0
  -21.8340  -28.6920   22.1330 N   0  0  0  0  0  0  0  0  0  0  0  0
  -23.8780  -28.5070   23.0860 O   0  0  0  0  0  0  0  0  0  0  0  0
  -21.2720  -29.2060   21.4670 H   0  0  0  0  0  0  0  0  0  0  0  0
  -18.6950  -26.9340   22.4500 C   0  0  0  0  0  0  0  0  0  0  0  0
  -21.1640  -27.5950   22.8290 C   0  0  0  0  0  3  0  0  0  0  0  0
  -21.5210  -26.2320   22.1920 C   0  0  0  0  0  2  0  0  0  0  0  0
  -20.5190  -25.7840   21.1250 C   0  0  0  0  0  2  0  0  0  0  0  0
  -19.1120  -25.6670   21.7210 C   0  0  0  0  0  2  0  0  0  0  0  0
  -19.6590  -27.8470   22.9560 C   0  0  0  0  0  0  0  0  0  0  0  0
  -19.2170  -29.0260   23.5950 C   0  0  0  0  0  3  0  0  0  0  0  0
  -17.8440  -29.3000   23.7310 C   0  0  0  0  0  3  0  0  0  0  0  0
  -16.8930  -28.3880   23.2420 C   0  0  0  0  0  3  0  0  0  0  0  0
  -17.3200  -27.2040   22.6090 C   0  0  0  0  0  3  0  0  0  0  0  0
  -25.8940  -32.3770   23.7800 C   0  0  0  0  0  3  0  0  0  0  0  0
  -25.4570  -33.7340   24.1330 N   0  0  0  0  0  0  0  0  0  0  0  0
  -25.7150  -34.8270   23.4030 C   0  0  0  0  0  0  0  0  0  0  0  0
  -26.4150  -34.8050   22.3870 O   0  0  0  0  0  0  0  0  0  0  0  0
  -24.8370  -33.8210   24.9260 H   0  0  0  0  0  0  0  0  0  0  0  0
  -23.8500  -36.4670   23.0300 C   0  0  0  0  0  1  0  0  0  0  0  0
  -25.0950  -36.1560   23.8740 C   0  0  0  0  0  3  0  0  0  0  0  0
  -27.1180  -37.1990   24.7940 C   0  0  0  0  0  1  0  0  0  0  0  0
  -26.0360  -37.2940   23.8170 N   0  0  0  0  0  0  0  0  0  0  0  0
  -25.5490  -38.1730   23.9700 H   0  0  0  0  0  0  0  0  0  0  0  0
  -26.4740  -31.6290   25.0430 C   0  0  1  0  0  0  0  0  0  0  0  0
  -25.4040  -31.2570   26.0940 C   0  0  0  0  0  1  0  0  0  0  0  0
  -27.1920  -30.3260   24.6180 C   0  0  0  0  0  1  0  0  0  0  0  0
  -27.5370  -32.5170   25.7350 C   0  0  0  0  0  1  0  0  0  0  0  0
  2  1  1  0
  3  2  1  0
  3  4  1  0
  5  3  1  0
  6  5  1  0
  7  6  1  0
  7  8  1  0
  9  7  1  0
 10 11  1  0
 10  7  1  0
 12 18  1  0
 12 20  1  0
 13 18  1  0
 14 15  1  0
 14 13  1  0
 16 15  1  0
 16 25  1  0
 16 17  1  0
 18 17  1  0
 19 12  2  0
 20 11  1  0
 20 21  1  0
 22 23  2  0
 23 42  1  0
 24 23  1  0
 24 27  1  0
 25 26  1  0
 25 22  1  0
 26 24  2  0
 27 28  1  0
 28 29  2  0
 30 33  1  0
 30 29  1  0
 31 30  2  0
 32 31  1  0
 32 27  2  0
 33 34  1  0
 34 39  2  0
 34 35  1  0
 35 36  2  0
 36 37  1  0
 37 41  1  0
 38 37  2  0
 39 38  1  0
 40 39  1  0
 42 43  1  0
 43 45  1  0
 43 46  1  0
 44 42  2  0
 47 22  1  0
 47 48  1  0
 49 47  1  0
 50  1  1  0
 51 53  1  0
 51 50  1  0
 51 52  1  0
 54 51  1  0
 55 54  1  0
 56 58  1  0
 56 55  1  0
 57 68  2  0
 58 63  1  0
 59 67  1  0
 59 69  1  0
 60 66  1  0
 60 62  1  0
 61 67  1  0
 62 61  1  0
 63 62  2  0
 64 65  1  0
 64 58  2  0
 65 60  2  0
 66 59  1  0
 67 57  1  0
 69 71  2  0
 70 69  1  0
 72 70  1  0
 73 82  2  0
 73 78  1  0
 74 70  1  0
 74 78  1  0
 75 74  1  0
 76 77  1  0
 76 75  1  0
 77 73  1  0
 78 79  2  0
 79 80  1  0
 81 80  2  0
 82 81  1  0
 83 57  1  0
 83 84  1  0
 83 93  1  0
 84 87  1  0
 85 89  1  0
 85 84  1  0
 86 85  2  0
 89 88  1  0
 91 89  1  0
 91 92  1  0
 91 90  1  0
 93 96  1  1
 93 94  1  0
 95 93  1  0
M  ISO  4  12 100  20 100  55 101  56 101
M  END
>  <TORSDO>  (28) 
F 27

>  <SCORE>  (28) 
-7.636

>  <name>  (28) 
29

>  <ligand_id>  (28) 
29

>  <original_smiles>  (28) 
[H]c1c([H])c([H])c2c(c1[H])C([H])([H])C([H])([H])C([H])([H])C2([H])N([H])C(=O)C1([H])N(C(=O)C([H])(N([H])C(=O)C([H])(N([H])C([H])([H])[H])C([H])([H])[H])C(C([H])([H])[H])(C([H])([H])[H])C([H])([H])[H])C([H])([H])c2c([H])c(OC([H])([H])C([H])([H])[N+]([H])([H])C([H])([H])C([H])([H])C([H])([H])N([H])C([H])([H])C([H])([H])[N+]([H])([H])C([H])([H])C([H])([H])N([H])C(=O)N3C([H])([H])C([H])([H])C([H])([H])C([H])(n4nc(-c5c([H])c([H])c(Oc6c([H])c([H])c(F)c([H])c6F)c([H])c5[H])c(C(=O)N([H])[H])c4N([H])[H])C3([H])[H])c([H])c([H])c2C1([H])[H]

>  <smiles>  (28) 
[H]c1c([H])c([H])c2c(c1[H])C([H])([H])C([H])([H])C([H])([H])C2([H])N([H])C(=O)C1([H])N(C(=O)C([H])(N([H])C(=O)C([H])(N([H])C([H])([H])[H])C([H])([H])[H])C(C([H])([H])[H])(C([H])([H])[H])C([H])([H])[H])C([H])([H])c2c([H])c(OC([H])([H])C([H])([H])[N+]([H])([H])C([H])([H])C([H])([H])C([H])([H])N([H])C([H])([H])C([H])([H])[N+]([H])([H])C([H])([H])C([H])([H])N([H])C(=O)N3C([H])([H])C([H])([H])C([H])([H])C([H])(n4nc(-c5c([H])c([H])c(Oc6c([H])c([H])c(F)c([H])c6F)c([H])c5[H])c(C(=O)N([H])[H])c4N([H])[H])C3([H])[H])c([H])c([H])c2C1([H])[H]

$$$$
30:0:0
     RDKit          3D

 99106  0  0  1  0  0  0  0  0999 V2000
  -28.4140  -24.1040   20.6940 C   0  0  0  0  0  0  0  0  0  0  0  0
  -27.8030  -24.8030   19.7230 N   0  0  0  0  0  0  0  0  0  0  0  0
  -27.9070  -23.9120   21.7990 O   0  0  0  0  0  0  0  0  0  0  0  0
  -28.2670  -24.8570   18.8250 H   0  0  0  0  0  0  0  0  0  0  0  0
  -26.4690  -25.4110   19.7730 C   0  0  0  0  0  2  0  0  0  0  0  0
  -26.4440  -26.8710   20.2680 C   0  0  0  0  0  2  0  0  0  0  0  0
  -25.0500  -27.4240   20.5980 C   0  0  0  0  0  2  0  0  0  0  0  0
  -25.1870  -28.2140   21.7710 O   0  0  0  0  0  0  0  0  0  0  0  0
  -25.6780  -27.5040   22.8950 C   0  0  0  0  0  2  0  0  0  0  0  0
  -26.6450  -28.4370   23.6380 C   0  0  0  0  0  2  0  0  0  0  0  0
  -26.4100  -29.9400   23.3850 C   0  0  0  0  0  2  0  0  0  0  0  0
  -26.1400  -30.6270   24.6110 O   0  0  0  0  0  0  0  0  0  0  0  0
  -27.9630  -31.3440   31.4380 C   0  0  0  0  0  0  0  0  0  0  0  0
  -27.1760  -30.8170   25.5000 C   0  0  0  0  0  0  0  0  0  0  0  0
  -29.7540  -31.8110   29.7970 C   0  0  0  0  0  3  0  0  0  0  0  0
  -29.2510  -31.1500   27.3900 C   0  0  0  0  0  0  0  0  0  0  0  0
  -27.8550  -30.1920   29.2320 C   0  0  0  0  0  2  0  0  0  0  0  0
  -28.0270  -30.5950   27.7830 C   0  0  0  0  0  0  0  0  0  0  0  0
  -26.9910  -30.4200   26.8410 C   0  0  0  0  0  3  0  0  0  0  0  0
  -28.4210  -31.3720   25.1180 C   0  0  0  0  0  3  0  0  0  0  0  0
  -29.4530  -31.5470   26.0570 C   0  0  0  0  0  3  0  0  0  0  0  0
  -30.3180  -31.2820   28.4520 C   0  0  0  0  0  2  0  0  0  0  0  0
  -28.4770  -31.1330   30.1930 N   0  0  0  0  0  0  0  0  0  0  0  0
  -28.5550  -32.0520   32.2630 O   0  0  0  0  0  0  0  0  0  0  0  0
  -29.6270  -33.3490   29.7060 C   0  0  0  0  0  0  0  0  0  0  0  0
  -30.3490  -34.0600   30.5870 N   0  0  0  0  0  0  0  0  0  0  0  0
  -28.9170  -33.8750   28.8450 O   0  0  0  0  0  0  0  0  0  0  0  0
  -30.8960  -33.5530   31.2690 H   0  0  0  0  0  0  0  0  0  0  0  0
  -30.3000  -36.8510   32.8790 C   0  0  0  0  0  0  0  0  0  0  0  0
  -30.4160  -35.5180   30.6670 C   0  0  0  0  0  3  0  0  0  0  0  0
  -31.8770  -36.0160   30.5610 C   0  0  0  0  0  2  0  0  0  0  0  0
  -32.5520  -36.1950   31.9250 C   0  0  0  0  0  2  0  0  0  0  0  0
  -31.7760  -37.2010   32.7800 C   0  0  0  0  0  2  0  0  0  0  0  0
  -29.6670  -36.0460   31.8940 C   0  0  0  0  0  0  0  0  0  0  0  0
  -28.3020  -35.7180   32.0520 C   0  0  0  0  0  3  0  0  0  0  0  0
  -27.5750  -36.1810   33.1640 C   0  0  0  0  0  3  0  0  0  0  0  0
  -28.2030  -36.9900   34.1270 C   0  0  0  0  0  3  0  0  0  0  0  0
  -29.5600  -37.3280   33.9810 C   0  0  0  0  0  3  0  0  0  0  0  0
  -26.6220  -30.6860   31.8910 C   0  0  0  0  0  3  0  0  0  0  0  0
  -26.9360  -29.3400   32.3880 N   0  0  0  0  0  0  0  0  0  0  0  0
  -26.4060  -28.2080   31.9060 C   0  0  0  0  0  0  0  0  0  0  0  0
  -25.5350  -28.1960   31.0320 O   0  0  0  0  0  0  0  0  0  0  0  0
  -27.6780  -29.2690   33.0680 H   0  0  0  0  0  0  0  0  0  0  0  0
  -28.3820  -26.6590   32.0430 C   0  0  0  0  0  1  0  0  0  0  0  0
  -26.9250  -26.8770   32.4840 C   0  0  0  0  0  3  0  0  0  0  0  0
  -25.1800  -25.2810   33.1420 C   0  0  0  0  0  1  0  0  0  0  0  0
  -26.1070  -25.7080   32.0960 N   0  0  0  0  0  0  0  0  0  0  0  0
  -26.6970  -24.9160   31.8540 H   0  0  0  0  0  0  0  0  0  0  0  0
  -25.8570  -31.5230   32.9900 C   0  0  1  0  0  0  0  0  0  0  0  0
  -26.4390  -31.3590   34.4130 C   0  0  0  0  0  1  0  0  0  0  0  0
  -25.8790  -33.0290   32.6400 C   0  0  0  0  0  1  0  0  0  0  0  0
  -24.3690  -31.1000   33.0300 C   0  0  0  0  0  1  0  0  0  0  0  0
  -29.7830  -23.4850   20.3840 C   0  0  0  0  0  2  0  0  0  0  0  0
  -30.0830  -22.1400   21.0880 C   0  0  0  0  0  2  0  0  0  0  0  0
  -31.3440  -22.1160   21.8750 N   0  0  0  0  0  4  0  0  0  0  0  0
  -31.1070  -22.1390   22.8550 H   0  0  0  0  0  0  0  0  0  0  0  0
  -31.9070  -22.9260   21.6700 H   0  0  0  0  0  0  0  0  0  0  0  0
  -32.1440  -20.8980   21.6160 C   0  0  0  0  0  2  0  0  0  0  0  0
  -31.3030  -19.6130   21.4520 C   0  0  0  0  0  2  0  0  0  0  0  0
  -32.1840  -18.4790   20.8970 C   0  0  0  0  0  2  0  0  0  0  0  0
  -31.8880  -18.0220   19.4530 C   0  0  0  0  0  2  0  0  0  0  0  0
  -33.8270  -17.5350   17.8970 C   0  0  0  0  0  0  0  0  0  0  0  0
  -36.1150  -17.2820   16.9880 C   0  0  0  0  0  2  0  0  0  0  0  0
  -36.9650  -16.3330   17.8540 C   0  0  0  0  0  2  0  0  0  0  0  0
  -37.6070  -17.0770   19.0420 C   0  0  0  0  0  2  0  0  0  0  0  0
  -36.5830  -17.9380   19.8260 C   0  0  0  0  0  3  0  0  0  0  0  0
  -35.7730  -18.8150   18.8450 C   0  0  0  0  0  2  0  0  0  0  0  0
  -35.1220  -17.9400   17.8450 N   0  0  0  0  0  0  0  0  0  0  0  0
  -33.3710  -16.5700   17.2770 O   0  0  0  0  0  0  0  0  0  0  0  0
  -33.0800  -18.3260   18.6720 N   0  0  0  0  0  0  0  0  0  0  0  0
  -33.5660  -19.1670   18.9500 H   0  0  0  0  0  0  0  0  0  0  0  0
  -37.9670  -18.3480   21.9630 C   0  0  0  0  0  0  0  0  0  0  0  0
  -38.4070  -19.4990   22.5610 C   0  0  0  0  0  0  0  0  0  0  0  0
  -37.9120  -20.5730   21.7580 C   0  0  0  0  0  0  0  0  0  0  0  0
  -37.2360  -18.7490   20.8540 N   0  0  0  0  0  0  0  0  0  0  0  0
  -37.1660  -20.1020   20.7680 N   0  0  0  0  0  0  0  0  0  0  0  0
  -38.1550  -22.0190   21.8410 C   0  0  0  0  0  0  0  0  0  0  0  0
  -39.3680  -22.5920   21.3980 C   0  0  0  0  0  3  0  0  0  0  0  0
  -39.5730  -23.9860   21.4730 C   0  0  0  0  0  3  0  0  0  0  0  0
  -38.5590  -24.8240   21.9930 C   0  0  0  0  0  0  0  0  0  0  0  0
  -37.3610  -24.2500   22.4530 C   0  0  0  0  0  3  0  0  0  0  0  0
  -37.1620  -22.8610   22.3820 C   0  0  0  0  0  3  0  0  0  0  0  0
  -38.6780  -26.1870   22.1300 O   0  0  0  0  0  0  0  0  0  0  0  0
  -37.6950  -27.0420   21.7020 C   0  0  0  0  0  0  0  0  0  0  0  0
  -36.7860  -27.6430   22.6000 C   0  0  0  0  0  3  0  0  0  0  0  0
  -35.8360  -28.5680   22.1270 C   0  0  0  0  0  3  0  0  0  0  0  0
  -35.7960  -28.9020   20.7590 C   0  0  0  0  0  0  0  0  0  0  0  0
  -36.7040  -28.3100   19.8630 C   0  0  0  0  0  3  0  0  0  0  0  0
  -37.6520  -27.3850   20.3350 C   0  0  0  0  0  0  0  0  0  0  0  0
  -38.5380  -26.8330   19.4710 F   0  0  0  0  0  0  0  0  0  0  0  0
  -34.8890  -29.7970   20.3040 F   0  0  0  0  0  0  0  0  0  0  0  0
  -39.3150  -19.6010   23.7510 C   0  0  0  0  0  0  0  0  0  0  0  0
  -39.2430  -20.7030   24.4870 N   0  0  0  0  0  0  0  0  0  0  0  0
  -40.0660  -18.6770   24.0630 O   0  0  0  0  0  0  0  0  0  0  0  0
  -38.6160  -21.4560   24.2410 H   0  0  0  0  0  0  0  0  0  0  0  0
  -39.8250  -20.7980   25.3070 H   0  0  0  0  0  0  0  0  0  0  0  0
  -38.1390  -16.9970   22.2530 N   0  0  0  0  0  0  0  0  0  0  0  0
  -38.7250  -16.6760   23.0140 H   0  0  0  0  0  0  0  0  0  0  0  0
  -37.8220  -16.2490   21.6500 H   0  0  0  0  0  0  0  0  0  0  0  0
  1  3  2  0
  2  5  1  0
  2  1  1  0
  4  2  1  0
  5  6  1  0
  6  7  1  0
  7  8  1  0
  8  9  1  0
  9 10  1  0
 11 10  1  0
 11 12  1  0
 12 14  1  0
 13 24  2  0
 14 19  1  0
 15 25  1  0
 15 23  1  0
 16 18  1  0
 16 22  1  0
 17 23  1  0
 18 17  1  0
 19 18  2  0
 20 14  2  0
 20 21  1  0
 21 16  2  0
 22 15  1  0
 23 13  1  0
 25 26  1  0
 26 28  1  0
 27 25  2  0
 29 38  1  0
 30 26  1  0
 30 34  1  0
 31 30  1  0
 31 32  1  0
 32 33  1  0
 33 29  1  0
 34 35  1  0
 34 29  2  0
 35 36  2  0
 36 37  1  0
 38 37  2  0
 39 13  1  0
 39 40  1  0
 39 49  1  0
 40 43  1  0
 41 40  1  0
 41 45  1  0
 42 41  2  0
 45 44  1  0
 47 45  1  0
 47 46  1  0
 48 47  1  0
 49 52  1  1
 49 50  1  0
 51 49  1  0
 53  1  1  0
 53 54  1  0
 54 55  1  0
 55 56  1  0
 57 55  1  0
 58 55  1  0
 59 58  1  0
 60 59  1  0
 61 60  1  0
 62 70  1  0
 63 68  1  0
 63 64  1  0
 64 65  1  0
 65 66  1  0
 66 67  1  0
 66 75  1  0
 68 62  1  0
 68 67  1  0
 69 62  2  0
 70 71  1  0
 70 61  1  0
 72 97  1  0
 72 73  2  0
 73 92  1  0
 74 77  1  0
 74 73  1  0
 75 72  1  0
 76 75  1  0
 76 74  2  0
 77 82  1  0
 78 79  1  0
 78 77  2  0
 79 80  2  0
 80 83  1  0
 80 81  1  0
 82 81  2  0
 84 83  1  0
 84 85  1  0
 86 85  2  0
 87 86  1  0
 88 89  1  0
 88 87  2  0
 89 84  2  0
 90 89  1  0
 91 87  1  0
 92 94  2  0
 92 93  1  0
 93 96  1  0
 95 93  1  0
 97 98  1  0
 99 97  1  0
M  ISO  4  11 101  12 101  62 100  70 100
M  END
>  <TORSDO>  (29) 
F 30

>  <SCORE>  (29) 
-4.801

>  <name>  (29) 
30

>  <ligand_id>  (29) 
30

>  <original_smiles>  (29) 
[H]c1c([H])c([H])c2c(c1[H])C([H])([H])C([H])([H])C([H])([H])C2([H])N([H])C(=O)C1([H])N(C(=O)C([H])(N([H])C(=O)C([H])(N([H])C([H])([H])[H])C([H])([H])[H])C(C([H])([H])[H])(C([H])([H])[H])C([H])([H])[H])C([H])([H])c2c([H])c(OC([H])([H])C([H])([H])C([H])([H])OC([H])([H])C([H])([H])C([H])([H])N([H])C(=O)C([H])([H])C([H])([H])[N+]([H])([H])C([H])([H])C([H])([H])C([H])([H])C([H])([H])N([H])C(=O)N3C([H])([H])C([H])([H])C([H])([H])C([H])(n4nc(-c5c([H])c([H])c(Oc6c([H])c([H])c(F)c([H])c6F)c([H])c5[H])c(C(=O)N([H])[H])c4N([H])[H])C3([H])[H])c([H])c([H])c2C1([H])[H]

>  <smiles>  (29) 
[H]c1c([H])c([H])c2c(c1[H])C([H])([H])C([H])([H])C([H])([H])C2([H])N([H])C(=O)C1([H])N(C(=O)C([H])(N([H])C(=O)C([H])(N([H])C([H])([H])[H])C([H])([H])[H])C(C([H])([H])[H])(C([H])([H])[H])C([H])([H])[H])C([H])([H])c2c([H])c(OC([H])([H])C([H])([H])C([H])([H])OC([H])([H])C([H])([H])C([H])([H])N([H])C(=O)C([H])([H])C([H])([H])[N+]([H])([H])C([H])([H])C([H])([H])C([H])([H])C([H])([H])N([H])C(=O)N3C([H])([H])C([H])([H])C([H])([H])C([H])(n4nc(-c5c([H])c([H])c(Oc6c([H])c([H])c(F)c([H])c6F)c([H])c5[H])c(C(=O)N([H])[H])c4N([H])[H])C3([H])[H])c([H])c([H])c2C1([H])[H]

$$$$
31:0:0
     RDKit          3D

 98105  0  0  1  0  0  0  0  0999 V2000
  -30.1750  -23.5570   25.2820 C   0  0  0  0  0  2  0  0  0  0  0  0
  -30.3570  -22.0590   25.5820 C   0  0  0  0  0  2  0  0  0  0  0  0
  -31.5590  -21.4440   24.8500 C   0  0  0  0  0  2  0  0  0  0  0  0
  -31.1010  -20.3100   24.1290 O   0  0  0  0  0  0  0  0  0  0  0  0
  -32.0050  -19.9030   23.1090 C   0  0  0  0  0  2  0  0  0  0  0  0
  -31.1800  -19.5360   21.8710 C   0  0  0  0  0  2  0  0  0  0  0  0
  -30.2110  -20.6090   21.5460 N   0  0  0  0  0  4  0  0  0  0  0  0
  -29.5670  -20.6880   22.3190 H   0  0  0  0  0  0  0  0  0  0  0  0
  -30.7060  -21.4850   21.4800 H   0  0  0  0  0  0  0  0  0  0  0  0
  -29.4680  -20.3910   20.2890 C   0  0  0  0  0  2  0  0  0  0  0  0
  -28.3530  -21.4340   20.0710 C   0  0  0  0  0  2  0  0  0  0  0  0
  -27.4790  -21.0610   18.8640 C   0  0  0  0  0  2  0  0  0  0  0  0
  -25.7520  -22.4490   17.7200 C   0  0  0  0  0  0  0  0  0  0  0  0
  -23.6520  -22.4770   16.4340 C   0  0  0  0  0  2  0  0  0  0  0  0
  -23.0140  -23.8590   16.2410 C   0  0  0  0  0  2  0  0  0  0  0  0
  -22.1160  -24.2110   17.4390 C   0  0  0  0  0  2  0  0  0  0  0  0
  -22.8420  -24.0200   18.7950 C   0  0  0  0  0  3  0  0  0  0  0  0
  -23.5280  -22.6390   18.8750 C   0  0  0  0  0  2  0  0  0  0  0  0
  -24.4000  -22.4660   17.6980 N   0  0  0  0  0  0  0  0  0  0  0  0
  -26.4640  -22.7200   16.7460 O   0  0  0  0  0  0  0  0  0  0  0  0
  -26.2360  -21.8280   18.8010 N   0  0  0  0  0  0  0  0  0  0  0  0
  -25.5510  -21.6260   19.5160 H   0  0  0  0  0  0  0  0  0  0  0  0
  -21.9930  -25.1700   20.9370 C   0  0  0  0  0  0  0  0  0  0  0  0
  -20.8580  -24.9910   21.6830 C   0  0  0  0  0  0  0  0  0  0  0  0
  -20.1370  -23.9290   21.0560 C   0  0  0  0  0  0  0  0  0  0  0  0
  -21.9300  -24.2330   19.9170 N   0  0  0  0  0  0  0  0  0  0  0  0
  -20.8260  -23.4490   20.0280 N   0  0  0  0  0  0  0  0  0  0  0  0
  -18.8050  -23.3790   21.3410 C   0  0  0  0  0  0  0  0  0  0  0  0
  -18.5970  -21.9890   21.4880 C   0  0  0  0  0  3  0  0  0  0  0  0
  -17.3110  -21.4850   21.7780 C   0  0  0  0  0  3  0  0  0  0  0  0
  -16.2180  -22.3720   21.9280 C   0  0  0  0  0  0  0  0  0  0  0  0
  -16.4270  -23.7520   21.7570 C   0  0  0  0  0  3  0  0  0  0  0  0
  -17.7060  -24.2520   21.4630 C   0  0  0  0  0  3  0  0  0  0  0  0
  -14.9300  -21.9720   22.1850 O   0  0  0  0  0  0  0  0  0  0  0  0
  -14.6550  -20.7750   22.7980 C   0  0  0  0  0  0  0  0  0  0  0  0
  -15.1860  -20.4500   24.0650 C   0  0  0  0  0  3  0  0  0  0  0  0
  -14.8230  -19.2400   24.6900 C   0  0  0  0  0  3  0  0  0  0  0  0
  -13.9260  -18.3610   24.0560 C   0  0  0  0  0  0  0  0  0  0  0  0
  -13.3940  -18.6850   22.7960 C   0  0  0  0  0  3  0  0  0  0  0  0
  -13.7550  -19.8910   22.1700 C   0  0  0  0  0  0  0  0  0  0  0  0
  -13.2230  -20.2100   20.9660 F   0  0  0  0  0  0  0  0  0  0  0  0
  -13.5710  -17.2010   24.6590 F   0  0  0  0  0  0  0  0  0  0  0  0
  -20.4160  -25.8200   22.8540 C   0  0  0  0  0  0  0  0  0  0  0  0
  -19.6890  -25.2210   23.7920 N   0  0  0  0  0  0  0  0  0  0  0  0
  -20.7560  -26.9980   22.9680 O   0  0  0  0  0  0  0  0  0  0  0  0
  -19.4280  -24.2490   23.7080 H   0  0  0  0  0  0  0  0  0  0  0  0
  -19.3920  -25.7410   24.6040 H   0  0  0  0  0  0  0  0  0  0  0  0
  -23.0610  -26.0580   21.0300 N   0  0  0  0  0  0  0  0  0  0  0  0
  -23.1060  -26.7850   21.7360 H   0  0  0  0  0  0  0  0  0  0  0  0
  -23.8320  -26.0920   20.3740 H   0  0  0  0  0  0  0  0  0  0  0  0
  -28.7300  -24.0320   25.5130 C   0  0  0  0  0  2  0  0  0  0  0  0
  -28.3860  -25.3370   24.7710 C   0  0  0  0  0  2  0  0  0  0  0  0
  -28.1640  -25.1040   23.3250 N   0  0  0  0  0  4  0  0  0  0  0  0
  -27.6950  -24.2160   23.2300 H   0  0  0  0  0  0  0  0  0  0  0  0
  -29.0480  -25.0200   22.8470 H   0  0  0  0  0  0  0  0  0  0  0  0
  -27.3240  -26.1160   22.6440 C   0  0  0  0  0  2  0  0  0  0  0  0
  -28.0670  -27.4260   22.3280 C   0  0  0  0  0  2  0  0  0  0  0  0
  -27.1040  -28.4560   22.1260 O   0  0  0  0  0  0  0  0  0  0  0  0
  -28.5160  -32.0690   28.1070 C   0  0  0  0  0  0  0  0  0  0  0  0
  -26.6430  -29.0560   23.2680 C   0  0  0  0  0  0  0  0  0  0  0  0
  -26.1930  -31.2480   27.8520 C   0  0  0  0  0  3  0  0  0  0  0  0
  -25.5910  -30.3320   25.5490 C   0  0  0  0  0  0  0  0  0  0  0  0
  -27.6290  -31.7640   25.8010 C   0  0  0  0  0  2  0  0  0  0  0  0
  -26.8610  -30.6840   25.0710 C   0  0  0  0  0  0  0  0  0  0  0  0
  -27.3950  -30.0460   23.9350 C   0  0  0  0  0  3  0  0  0  0  0  0
  -25.3650  -28.7080   23.7510 C   0  0  0  0  0  3  0  0  0  0  0  0
  -24.8400  -29.3370   24.8970 C   0  0  0  0  0  3  0  0  0  0  0  0
  -25.0930  -31.0720   26.7680 C   0  0  0  0  0  2  0  0  0  0  0  0
  -27.5060  -31.6880   27.2750 N   0  0  0  0  0  0  0  0  0  0  0  0
  -28.3580  -32.1000   29.3340 O   0  0  0  0  0  0  0  0  0  0  0  0
  -26.2930  -29.9400   28.6680 C   0  0  0  0  0  0  0  0  0  0  0  0
  -25.2950  -29.6990   29.5330 N   0  0  0  0  0  0  0  0  0  0  0  0
  -27.2320  -29.1580   28.4980 O   0  0  0  0  0  0  0  0  0  0  0  0
  -24.5670  -30.3950   29.6180 H   0  0  0  0  0  0  0  0  0  0  0  0
  -23.1540  -28.0970   31.9610 C   0  0  0  0  0  0  0  0  0  0  0  0
  -25.1560  -28.5150   30.3790 C   0  0  0  0  0  3  0  0  0  0  0  0
  -24.6320  -27.3090   29.5650 C   0  0  0  0  0  2  0  0  0  0  0  0
  -23.1080  -27.1670   29.6080 C   0  0  0  0  0  2  0  0  0  0  0  0
  -22.6250  -27.0000   31.0520 C   0  0  0  0  0  2  0  0  0  0  0  0
  -24.3340  -28.8180   31.6360 C   0  0  0  0  0  0  0  0  0  0  0  0
  -24.7650  -29.8500   32.4980 C   0  0  0  0  0  3  0  0  0  0  0  0
  -24.0430  -30.1630   33.6650 C   0  0  0  0  0  3  0  0  0  0  0  0
  -22.8860  -29.4330   33.9900 C   0  0  0  0  0  3  0  0  0  0  0  0
  -22.4460  -28.4010   33.1420 C   0  0  0  0  0  3  0  0  0  0  0  0
  -29.9110  -32.5040   27.5540 C   0  0  0  0  0  3  0  0  0  0  0  0
  -30.3450  -33.6790   28.3190 N   0  0  0  0  0  0  0  0  0  0  0  0
  -30.2200  -34.9460   27.8990 C   0  0  0  0  0  0  0  0  0  0  0  0
  -29.7900  -35.2430   26.7820 O   0  0  0  0  0  0  0  0  0  0  0  0
  -30.6550  -33.5120   29.2640 H   0  0  0  0  0  0  0  0  0  0  0  0
  -29.3900  -36.6340   29.5660 C   0  0  0  0  0  1  0  0  0  0  0  0
  -30.6390  -36.0590   28.8770 C   0  0  0  0  0  3  0  0  0  0  0  0
  -32.7240  -36.7420   27.7750 C   0  0  0  0  0  1  0  0  0  0  0  0
  -31.3980  -37.1530   28.2320 N   0  0  0  0  0  0  0  0  0  0  0  0
  -31.5120  -37.9370   28.8670 H   0  0  0  0  0  0  0  0  0  0  0  0
  -30.9930  -31.3590   27.6260 C   0  0  1  0  0  0  0  0  0  0  0  0
  -31.1250  -30.7170   29.0270 C   0  0  0  0  0  1  0  0  0  0  0  0
  -30.6630  -30.2340   26.6180 C   0  0  0  0  0  1  0  0  0  0  0  0
  -32.3770  -31.9190   27.2270 C   0  0  0  0  0  1  0  0  0  0  0  0
  1 51  1  0
  1  2  1  0
  3  2  1  0
  4  3  1  0
  5  4  1  0
  6  5  1  0
  7  6  1  0
  7  8  1  0
  9  7  1  0
 10  7  1  0
 11 10  1  0
 12 11  1  0
 13 21  1  0
 14 19  1  0
 15 14  1  0
 15 16  1  0
 17 16  1  0
 17 18  1  0
 17 26  1  0
 19 13  1  0
 19 18  1  0
 20 13  2  0
 21 12  1  0
 21 22  1  0
 23 48  1  0
 23 24  2  0
 24 43  1  0
 25 28  1  0
 25 24  1  0
 26 27  1  0
 26 23  1  0
 27 25  2  0
 28 33  2  0
 28 29  1  0
 29 30  2  0
 30 31  1  0
 31 34  1  0
 32 31  2  0
 33 32  1  0
 34 35  1  0
 35 36  1  0
 36 37  2  0
 38 42  1  0
 38 37  1  0
 39 38  2  0
 40 39  1  0
 40 35  2  0
 41 40  1  0
 43 45  2  0
 43 44  1  0
 44 47  1  0
 46 44  1  0
 48 49  1  0
 50 48  1  0
 52 51  1  0
 53 52  1  0
 54 53  1  0
 55 53  1  0
 56 53  1  0
 57 56  1  0
 58 57  1  0
 58 60  1  0
 59 70  2  0
 60 66  2  0
 60 65  1  0
 61 71  1  0
 62 68  1  0
 63 69  1  0
 64 62  1  0
 64 63  1  0
 65 64  2  0
 66 67  1  0
 67 62  2  0
 68 61  1  0
 69 61  1  0
 69 59  1  0
 71 72  1  0
 72 74  1  0
 73 71  2  0
 75 84  1  0
 76 72  1  0
 76 80  1  0
 77 78  1  0
 77 76  1  0
 78 79  1  0
 79 75  1  0
 80 75  2  0
 80 81  1  0
 81 82  2  0
 82 83  1  0
 84 83  2  0
 85 95  1  0
 85 59  1  0
 85 86  1  0
 86 89  1  0
 87 86  1  0
 87 91  1  0
 88 87  2  0
 91 90  1  0
 92 93  1  0
 93 94  1  0
 93 91  1  0
 95 96  1  1
 97 95  1  0
 98 95  1  0
M  ISO  4  13 100  21 100  57 101  58 101
M  END
>  <TORSDO>  (30) 
F 30

>  <SCORE>  (30) 
2.010

>  <name>  (30) 
31

>  <ligand_id>  (30) 
31

>  <original_smiles>  (30) 
[H]c1c([H])c([H])c2c(c1[H])C([H])([H])C([H])([H])C([H])([H])C2([H])N([H])C(=O)C1([H])N(C(=O)C([H])(N([H])C(=O)C([H])(N([H])C([H])([H])[H])C([H])([H])[H])C(C([H])([H])[H])(C([H])([H])[H])C([H])([H])[H])C([H])([H])c2c([H])c(OC([H])([H])C([H])([H])[N+]([H])([H])C([H])([H])C([H])([H])C([H])([H])C([H])([H])C([H])([H])OC([H])([H])C([H])([H])[N+]([H])([H])C([H])([H])C([H])([H])C([H])([H])N([H])C(=O)N3C([H])([H])C([H])([H])C([H])([H])C([H])(n4nc(-c5c([H])c([H])c(Oc6c([H])c([H])c(F)c([H])c6F)c([H])c5[H])c(C(=O)N([H])[H])c4N([H])[H])C3([H])[H])c([H])c([H])c2C1([H])[H]

>  <smiles>  (30) 
[H]c1c([H])c([H])c2c(c1[H])C([H])([H])C([H])([H])C([H])([H])C2([H])N([H])C(=O)C1([H])N(C(=O)C([H])(N([H])C(=O)C([H])(N([H])C([H])([H])[H])C([H])([H])[H])C(C([H])([H])[H])(C([H])([H])[H])C([H])([H])[H])C([H])([H])c2c([H])c(OC([H])([H])C([H])([H])[N+]([H])([H])C([H])([H])C([H])([H])C([H])([H])C([H])([H])C([H])([H])OC([H])([H])C([H])([H])[N+]([H])([H])C([H])([H])C([H])([H])C([H])([H])N([H])C(=O)N3C([H])([H])C([H])([H])C([H])([H])C([H])(n4nc(-c5c([H])c([H])c(Oc6c([H])c([H])c(F)c([H])c6F)c([H])c5[H])c(C(=O)N([H])[H])c4N([H])[H])C3([H])[H])c([H])c([H])c2C1([H])[H]

$$$$
32:0:0
     RDKit          3D

 97104  0  0  1  0  0  0  0  0999 V2000
  -29.5800  -21.3490   17.7460 C   0  0  0  0  0  0  0  0  0  0  0  0
  -30.0590  -20.5260   16.8090 N   0  0  0  0  0  0  0  0  0  0  0  0
  -29.3840  -20.9590   18.9020 O   0  0  0  0  0  0  0  0  0  0  0  0
  -30.2060  -20.9010   15.8790 H   0  0  0  0  0  0  0  0  0  0  0  0
  -30.2980  -19.0860   16.9810 C   0  0  0  0  0  2  0  0  0  0  0  0
  -31.6160  -18.7440   17.7140 C   0  0  0  0  0  2  0  0  0  0  0  0
  -31.7020  -19.3690   19.0520 N   0  0  0  0  0  4  0  0  0  0  0  0
  -32.5090  -19.9720   19.0440 H   0  0  0  0  0  0  0  0  0  0  0  0
  -30.8840  -19.9630   19.1660 H   0  0  0  0  0  0  0  0  0  0  0  0
  -31.8400  -18.4640   20.2140 C   0  0  0  0  0  2  0  0  0  0  0  0
  -30.6060  -17.5690   20.4660 C   0  0  0  0  0  2  0  0  0  0  0  0
  -30.8200  -16.6140   21.6660 C   0  0  0  0  0  2  0  0  0  0  0  0
  -30.7850  -14.3920   20.5720 C   0  0  0  0  0  0  0  0  0  0  0  0
  -30.3970  -12.3200   19.3070 C   0  0  0  0  0  2  0  0  0  0  0  0
  -29.4720  -12.6070   18.1090 C   0  0  0  0  0  2  0  0  0  0  0  0
  -27.9940  -12.4890   18.5250 C   0  0  0  0  0  2  0  0  0  0  0  0
  -27.6710  -13.2940   19.8110 C   0  0  0  0  0  3  0  0  0  0  0  0
  -28.7080  -13.0000   20.9190 C   0  0  0  0  0  2  0  0  0  0  0  0
  -30.0550  -13.2650   20.3790 N   0  0  0  0  0  0  0  0  0  0  0  0
  -31.8360  -14.6350   19.9710 O   0  0  0  0  0  0  0  0  0  0  0  0
  -30.2650  -15.2810   21.4290 N   0  0  0  0  0  0  0  0  0  0  0  0
  -29.4340  -15.0140   21.9360 H   0  0  0  0  0  0  0  0  0  0  0  0
  -25.2640  -13.9300   20.4690 C   0  0  0  0  0  0  0  0  0  0  0  0
  -24.1830  -13.1720   20.8310 C   0  0  0  0  0  0  0  0  0  0  0  0
  -24.6330  -11.8160   20.8220 C   0  0  0  0  0  0  0  0  0  0  0  0
  -26.3060  -13.0380   20.2680 N   0  0  0  0  0  0  0  0  0  0  0  0
  -25.9260  -11.7610   20.5330 N   0  0  0  0  0  0  0  0  0  0  0  0
  -23.8920  -10.5620   21.0190 C   0  0  0  0  0  0  0  0  0  0  0  0
  -24.3160   -9.5920   21.9530 C   0  0  0  0  0  3  0  0  0  0  0  0
  -23.5770   -8.4030   22.1370 C   0  0  0  0  0  3  0  0  0  0  0  0
  -22.3990   -8.1770   21.3860 C   0  0  0  0  0  0  0  0  0  0  0  0
  -21.9940   -9.1360   20.4400 C   0  0  0  0  0  3  0  0  0  0  0  0
  -22.7340  -10.3160   20.2540 C   0  0  0  0  0  3  0  0  0  0  0  0
  -21.6340   -7.0390   21.4770 O   0  0  0  0  0  0  0  0  0  0  0  0
  -21.5940   -6.2890   22.6250 C   0  0  0  0  0  0  0  0  0  0  0  0
  -21.2110   -6.8460   23.8660 C   0  0  0  0  0  3  0  0  0  0  0  0
  -21.1140   -6.0230   25.0060 C   0  0  0  0  0  3  0  0  0  0  0  0
  -21.3940   -4.6480   24.9090 C   0  0  0  0  0  0  0  0  0  0  0  0
  -21.7720   -4.0910   23.6750 C   0  0  0  0  0  3  0  0  0  0  0  0
  -21.8700   -4.9100   22.5360 C   0  0  0  0  0  0  0  0  0  0  0  0
  -22.2130   -4.3640   21.3450 F   0  0  0  0  0  0  0  0  0  0  0  0
  -21.2960   -3.8560   26.0040 F   0  0  0  0  0  0  0  0  0  0  0  0
  -22.7860  -13.6650   21.0820 C   0  0  0  0  0  0  0  0  0  0  0  0
  -22.0450  -12.9840   21.9480 N   0  0  0  0  0  0  0  0  0  0  0  0
  -22.3620  -14.6870   20.5430 O   0  0  0  0  0  0  0  0  0  0  0  0
  -22.4050  -12.1570   22.3990 H   0  0  0  0  0  0  0  0  0  0  0  0
  -21.1080  -13.2930   22.1640 H   0  0  0  0  0  0  0  0  0  0  0  0
  -25.4450  -15.2960   20.2810 N   0  0  0  0  0  0  0  0  0  0  0  0
  -24.6820  -15.9590   20.3570 H   0  0  0  0  0  0  0  0  0  0  0  0
  -26.3140  -15.7230   19.9830 H   0  0  0  0  0  0  0  0  0  0  0  0
  -29.3160  -22.8110   17.3920 C   0  0  0  0  0  2  0  0  0  0  0  0
  -29.3750  -23.5900   18.6400 N   0  0  0  0  0  4  0  0  0  0  0  0
  -30.3260  -23.5830   18.9770 H   0  0  0  0  0  0  0  0  0  0  0  0
  -28.8440  -23.0450   19.3050 H   0  0  0  0  0  0  0  0  0  0  0  0
  -28.8640  -24.9760   18.6030 C   0  0  0  0  0  2  0  0  0  0  0  0
  -28.5330  -25.4280   20.0340 C   0  0  0  0  0  2  0  0  0  0  0  0
  -28.4590  -26.8410   20.1280 O   0  0  0  0  0  0  0  0  0  0  0  0
  -24.5850  -31.8770   23.2310 C   0  0  0  0  0  0  0  0  0  0  0  0
  -27.2330  -27.4640   20.1410 C   0  0  0  0  0  0  0  0  0  0  0  0
  -23.3680  -30.4690   21.6010 C   0  0  0  0  0  3  0  0  0  0  0  0
  -24.8160  -28.9250   20.1760 C   0  0  0  0  0  0  0  0  0  0  0  0
  -25.8850  -30.8390   21.3780 C   0  0  0  0  0  2  0  0  0  0  0  0
  -25.9700  -29.4660   20.7500 C   0  0  0  0  0  0  0  0  0  0  0  0
  -27.1780  -28.7430   20.7300 C   0  0  0  0  0  3  0  0  0  0  0  0
  -26.0580  -26.9170   19.5740 C   0  0  0  0  0  3  0  0  0  0  0  0
  -24.8510  -27.6470   19.5890 C   0  0  0  0  0  3  0  0  0  0  0  0
  -23.5680  -29.7780   20.2250 C   0  0  0  0  0  2  0  0  0  0  0  0
  -24.6320  -31.0750   22.1300 N   0  0  0  0  0  0  0  0  0  0  0  0
  -23.5080  -32.1530   23.7760 O   0  0  0  0  0  0  0  0  0  0  0  0
  -22.7240  -29.4540   22.5680 C   0  0  0  0  0  0  0  0  0  0  0  0
  -21.3990  -29.2700   22.4430 N   0  0  0  0  0  0  0  0  0  0  0  0
  -23.4080  -28.8310   23.3830 O   0  0  0  0  0  0  0  0  0  0  0  0
  -20.9060  -29.8230   21.7550 H   0  0  0  0  0  0  0  0  0  0  0  0
  -18.0280  -28.0720   22.9330 C   0  0  0  0  0  0  0  0  0  0  0  0
  -20.5840  -28.3360   23.2170 C   0  0  0  0  0  3  0  0  0  0  0  0
  -20.6940  -26.9020   22.6510 C   0  0  0  0  0  2  0  0  0  0  0  0
  -19.5980  -26.5690   21.6350 C   0  0  0  0  0  2  0  0  0  0  0  0
  -18.2120  -26.7180   22.2700 C   0  0  0  0  0  2  0  0  0  0  0  0
  -19.1430  -28.8390   23.3640 C   0  0  0  0  0  0  0  0  0  0  0  0
  -18.9200  -30.1090   23.9390 C   0  0  0  0  0  3  0  0  0  0  0  0
  -17.6130  -30.6110   24.0920 C   0  0  0  0  0  3  0  0  0  0  0  0
  -16.5120  -29.8410   23.6810 C   0  0  0  0  0  3  0  0  0  0  0  0
  -16.7210  -28.5730   23.1060 C   0  0  0  0  0  3  0  0  0  0  0  0
  -25.8770  -32.5050   23.8430 C   0  0  0  0  0  3  0  0  0  0  0  0
  -26.4090  -31.7280   25.1100 C   0  0  1  0  0  0  0  0  0  0  0  0
  -25.3280  -31.4880   26.1880 C   0  0  0  0  0  1  0  0  0  0  0  0
  -26.9870  -30.3530   24.6990 C   0  0  0  0  0  1  0  0  0  0  0  0
  -27.5660  -32.5210   25.7640 C   0  0  0  0  0  1  0  0  0  0  0  0
  -25.5750  -33.9020   24.1780 N   0  0  0  0  0  0  0  0  0  0  0  0
  -25.9070  -34.9550   23.4190 C   0  0  0  0  0  0  0  0  0  0  0  0
  -26.5740  -34.8540   22.3850 O   0  0  0  0  0  0  0  0  0  0  0  0
  -24.9860  -34.0570   24.9830 H   0  0  0  0  0  0  0  0  0  0  0  0
  -24.1820  -36.7500   23.0740 C   0  0  0  0  0  1  0  0  0  0  0  0
  -25.4230  -36.3410   23.8810 C   0  0  0  0  0  3  0  0  0  0  0  0
  -27.5610  -37.2190   24.7110 C   0  0  0  0  0  1  0  0  0  0  0  0
  -26.4570  -37.3930   23.7700 N   0  0  0  0  0  0  0  0  0  0  0  0
  -26.0530  -38.3120   23.9250 H   0  0  0  0  0  0  0  0  0  0  0  0
  1  3  2  0
  2  5  1  0
  2  1  1  0
  4  2  1  0
  5  6  1  0
  6  7  1  0
  7  9  1  0
  7 10  1  0
  8  7  1  0
 10 11  1  0
 11 12  1  0
 13 21  1  0
 14 19  1  0
 15 16  1  0
 15 14  1  0
 17 16  1  0
 17 26  1  0
 17 18  1  0
 19 13  1  0
 19 18  1  0
 20 13  2  0
 21 12  1  0
 21 22  1  0
 23 24  2  0
 24 43  1  0
 25 24  1  0
 25 28  1  0
 26 23  1  0
 26 27  1  0
 27 25  2  0
 28 29  1  0
 29 30  2  0
 31 34  1  0
 31 30  1  0
 32 31  2  0
 33 32  1  0
 33 28  2  0
 34 35  1  0
 35 36  1  0
 36 37  2  0
 38 37  1  0
 38 42  1  0
 39 38  2  0
 40 35  2  0
 40 39  1  0
 41 40  1  0
 43 44  1  0
 44 47  1  0
 44 46  1  0
 45 43  2  0
 48 49  1  0
 48 23  1  0
 50 48  1  0
 51  1  1  0
 51 52  1  0
 52 53  1  0
 52 54  1  0
 55 52  1  0
 55 56  1  0
 56 57  1  0
 57 59  1  0
 58 69  2  0
 59 64  1  0
 60 68  1  0
 60 70  1  0
 61 67  1  0
 61 63  1  0
 62 68  1  0
 63 62  1  0
 64 63  2  0
 65 66  1  0
 65 59  2  0
 66 61  2  0
 67 60  1  0
 68 58  1  0
 70 72  2  0
 71 70  1  0
 73 71  1  0
 74 83  2  0
 74 79  1  0
 75 71  1  0
 75 79  1  0
 76 75  1  0
 77 78  1  0
 77 76  1  0
 78 74  1  0
 79 80  2  0
 80 81  1  0
 82 81  2  0
 83 82  1  0
 84 58  1  0
 84 89  1  0
 84 85  1  0
 85 88  1  1
 85 86  1  0
 87 85  1  0
 89 92  1  0
 90 94  1  0
 90 89  1  0
 91 90  2  0
 94 93  1  0
 96 94  1  0
 96 97  1  0
 96 95  1  0
M  ISO  4  13 100  21 100  56 101  57 101
M  END
>  <TORSDO>  (31) 
F 26

>  <SCORE>  (31) 
-11.897

>  <name>  (31) 
32

>  <ligand_id>  (31) 
32

>  <original_smiles>  (31) 
[H]c1c([H])c([H])c2c(c1[H])C([H])([H])C([H])([H])C([H])([H])C2([H])N([H])C(=O)C1([H])N(C(=O)C([H])(N([H])C(=O)C([H])(N([H])C([H])([H])[H])C([H])([H])[H])C(C([H])([H])[H])(C([H])([H])[H])C([H])([H])[H])C([H])([H])c2c([H])c(OC([H])([H])C([H])([H])[N+]([H])([H])C([H])([H])C(=O)N([H])C([H])([H])C([H])([H])[N+]([H])([H])C([H])([H])C([H])([H])C([H])([H])N([H])C(=O)N3C([H])([H])C([H])([H])C([H])([H])C([H])(n4nc(-c5c([H])c([H])c(Oc6c([H])c([H])c(F)c([H])c6F)c([H])c5[H])c(C(=O)N([H])[H])c4N([H])[H])C3([H])[H])c([H])c([H])c2C1([H])[H]

>  <smiles>  (31) 
[H]c1c([H])c([H])c2c(c1[H])C([H])([H])C([H])([H])C([H])([H])C2([H])N([H])C(=O)C1([H])N(C(=O)C([H])(N([H])C(=O)C([H])(N([H])C([H])([H])[H])C([H])([H])[H])C(C([H])([H])[H])(C([H])([H])[H])C([H])([H])[H])C([H])([H])c2c([H])c(OC([H])([H])C([H])([H])[N+]([H])([H])C([H])([H])C(=O)N([H])C([H])([H])C([H])([H])[N+]([H])([H])C([H])([H])C([H])([H])C([H])([H])N([H])C(=O)N3C([H])([H])C([H])([H])C([H])([H])C([H])(n4nc(-c5c([H])c([H])c(Oc6c([H])c([H])c(F)c([H])c6F)c([H])c5[H])c(C(=O)N([H])[H])c4N([H])[H])C3([H])[H])c([H])c([H])c2C1([H])[H]

$$$$
33:0:0
     RDKit          3D

101108  0  0  1  0  0  0  0  0999 V2000
  -23.6930  -18.0650   23.7350 C   0  0  0  0  0  2  0  0  0  0  0  0
  -23.5850  -16.7050   23.1610 N   0  0  0  0  0  4  0  0  0  0  0  0
  -22.6530  -16.5820   22.7970 H   0  0  0  0  0  0  0  0  0  0  0  0
  -23.7120  -16.0400   23.9070 H   0  0  0  0  0  0  0  0  0  0  0  0
  -24.5480  -16.4080   22.0720 C   0  0  0  0  0  2  0  0  0  0  0  0
  -23.9040  -15.5410   20.9790 C   0  0  0  0  0  2  0  0  0  0  0  0
  -24.1460  -14.1820   21.3170 O   0  0  0  0  0  0  0  0  0  0  0  0
  -25.1970  -13.9850   22.2440 C   0  0  0  0  0  2  0  0  0  0  0  0
  -26.4480  -13.5830   21.4480 C   0  0  0  0  0  2  0  0  0  0  0  0
  -26.2780  -13.8580   19.9520 C   0  0  0  0  0  2  0  0  0  0  0  0
  -27.5670  -13.6990   19.1240 C   0  0  0  0  0  2  0  0  0  0  0  0
  -27.9480  -12.2200   19.0670 C   0  0  0  0  0  2  0  0  0  0  0  0
  -28.4740  -11.6930   17.7240 C   0  0  0  0  0  2  0  0  0  0  0  0
  -30.4750  -10.9950   19.0200 C   0  0  0  0  0  0  0  0  0  0  0  0
  -32.6470  -11.5090   20.0770 C   0  0  0  0  0  2  0  0  0  0  0  0
  -32.5330  -12.2320   21.4310 C   0  0  0  0  0  2  0  0  0  0  0  0
  -32.3870  -13.7520   21.2410 C   0  0  0  0  0  2  0  0  0  0  0  0
  -31.2780  -14.1090   20.2210 C   0  0  0  0  0  3  0  0  0  0  0  0
  -31.5020  -13.3030   18.9210 C   0  0  0  0  0  2  0  0  0  0  0  0
  -31.4930  -11.8650   19.2400 N   0  0  0  0  0  0  0  0  0  0  0  0
  -30.3520   -9.9230   19.6200 O   0  0  0  0  0  0  0  0  0  0  0  0
  -29.8370  -11.1780   17.8560 N   0  0  0  0  0  0  0  0  0  0  0  0
  -29.9360  -10.3530   17.2790 H   0  0  0  0  0  0  0  0  0  0  0  0
  -30.1740  -16.4380   20.1090 C   0  0  0  0  0  0  0  0  0  0  0  0
  -30.6850  -17.6780   19.8320 C   0  0  0  0  0  0  0  0  0  0  0  0
  -32.0700  -17.4780   19.5490 C   0  0  0  0  0  0  0  0  0  0  0  0
  -31.2320  -15.5490   19.9750 N   0  0  0  0  0  0  0  0  0  0  0  0
  -32.3680  -16.1850   19.5890 N   0  0  0  0  0  0  0  0  0  0  0  0
  -33.1450  -18.4460   19.2940 C   0  0  0  0  0  0  0  0  0  0  0  0
  -34.1290  -18.2120   18.3100 C   0  0  0  0  0  3  0  0  0  0  0  0
  -35.1420  -19.1640   18.0680 C   0  0  0  0  0  3  0  0  0  0  0  0
  -35.1760  -20.3670   18.8140 C   0  0  0  0  0  0  0  0  0  0  0  0
  -34.2070  -20.5840   19.8090 C   0  0  0  0  0  3  0  0  0  0  0  0
  -33.2010  -19.6350   20.0490 C   0  0  0  0  0  3  0  0  0  0  0  0
  -36.1380  -21.3360   18.6690 O   0  0  0  0  0  0  0  0  0  0  0  0
  -37.0070  -21.3350   17.6070 C   0  0  0  0  0  0  0  0  0  0  0  0
  -36.5490  -21.3490   16.2720 C   0  0  0  0  0  3  0  0  0  0  0  0
  -37.4730  -21.4160   15.2110 C   0  0  0  0  0  3  0  0  0  0  0  0
  -38.8540  -21.4740   15.4820 C   0  0  0  0  0  0  0  0  0  0  0  0
  -39.3130  -21.4650   16.8120 C   0  0  0  0  0  3  0  0  0  0  0  0
  -38.3900  -21.3990   17.8710 C   0  0  0  0  0  0  0  0  0  0  0  0
  -38.8350  -21.4110   19.1490 F   0  0  0  0  0  0  0  0  0  0  0  0
  -39.7430  -21.5490   14.4640 F   0  0  0  0  0  0  0  0  0  0  0  0
  -29.9550  -18.9880   19.9160 C   0  0  0  0  0  0  0  0  0  0  0  0
  -30.2930  -19.9330   19.0440 N   0  0  0  0  0  0  0  0  0  0  0  0
  -29.0420  -19.1620   20.7210 O   0  0  0  0  0  0  0  0  0  0  0  0
  -31.0360  -19.7860   18.3790 H   0  0  0  0  0  0  0  0  0  0  0  0
  -29.8130  -20.8220   19.0560 H   0  0  0  0  0  0  0  0  0  0  0  0
  -28.9090  -15.9930   20.4800 N   0  0  0  0  0  0  0  0  0  0  0  0
  -28.1400  -16.6280   20.6480 H   0  0  0  0  0  0  0  0  0  0  0  0
  -28.6890  -15.0270   20.6950 H   0  0  0  0  0  0  0  0  0  0  0  0
  -22.6770  -18.2760   24.8720 C   0  0  0  0  0  2  0  0  0  0  0  0
  -21.7700  -19.3920   24.5870 N   0  0  0  0  0  0  0  0  0  0  0  0
  -21.9800  -20.1680   25.2170 H   0  0  0  0  0  0  0  0  0  0  0  0
  -20.3680  -19.0260   24.7410 C   0  0  0  0  0  2  0  0  0  0  0  0
  -19.4490  -20.1030   24.1570 C   0  0  0  0  0  2  0  0  0  0  0  0
  -18.0740  -19.6240   24.1190 N   0  0  0  0  0  0  0  0  0  0  0  0
  -18.0660  -18.6450   23.8270 H   0  0  0  0  0  0  0  0  0  0  0  0
  -17.2170  -20.4060   23.2290 C   0  0  0  0  0  2  0  0  0  0  0  0
  -15.9910  -19.6000   22.7530 C   0  0  0  0  0  2  0  0  0  0  0  0
  -14.9160  -20.4710   22.4150 O   0  0  0  0  0  0  0  0  0  0  0  0
  -11.1400  -25.4420   25.7690 C   0  0  0  0  0  0  0  0  0  0  0  0
  -13.9370  -20.7060   23.3560 C   0  0  0  0  0  0  0  0  0  0  0  0
  -10.8970  -23.1460   26.6570 C   0  0  0  0  0  3  0  0  0  0  0  0
  -11.8930  -21.2950   25.2180 C   0  0  0  0  0  0  0  0  0  0  0  0
  -11.4780  -23.5390   24.1970 C   0  0  0  0  0  2  0  0  0  0  0  0
  -12.2280  -22.2250   24.2280 C   0  0  0  0  0  0  0  0  0  0  0  0
  -13.2440  -21.9320   23.2930 C   0  0  0  0  0  3  0  0  0  0  0  0
  -13.5950  -19.7800   24.3700 C   0  0  0  0  0  3  0  0  0  0  0  0
  -12.5770  -20.0700   25.2970 C   0  0  0  0  0  3  0  0  0  0  0  0
  -10.7840  -21.6770   26.1700 C   0  0  0  0  0  2  0  0  0  0  0  0
  -11.2000  -24.1000   25.5410 N   0  0  0  0  0  0  0  0  0  0  0  0
  -10.7960  -25.8920   26.8710 O   0  0  0  0  0  0  0  0  0  0  0  0
  -11.9260  -23.2040   27.8080 C   0  0  0  0  0  0  0  0  0  0  0  0
  -11.5220  -22.7210   28.9940 N   0  0  0  0  0  0  0  0  0  0  0  0
  -13.0620  -23.6490   27.6200 O   0  0  0  0  0  0  0  0  0  0  0  0
  -10.5740  -22.3770   29.0660 H   0  0  0  0  0  0  0  0  0  0  0  0
  -11.5070  -21.5840   32.4210 C   0  0  0  0  0  0  0  0  0  0  0  0
  -12.3280  -22.6410   30.2100 C   0  0  0  0  0  3  0  0  0  0  0  0
  -13.3290  -21.4630   30.1370 C   0  0  0  0  0  2  0  0  0  0  0  0
  -12.7840  -20.1710   30.7550 C   0  0  0  0  0  2  0  0  0  0  0  0
  -12.4260  -20.3910   32.2280 C   0  0  0  0  0  2  0  0  0  0  0  0
  -11.4500  -22.6340   31.4660 C   0  0  0  0  0  0  0  0  0  0  0  0
  -10.5520  -23.7030   31.6770 C   0  0  0  0  0  3  0  0  0  0  0  0
   -9.7280  -23.7380   32.8180 C   0  0  0  0  0  3  0  0  0  0  0  0
   -9.8000  -22.7030   33.7680 C   0  0  0  0  0  3  0  0  0  0  0  0
  -10.6900  -21.6330   33.5690 C   0  0  0  0  0  3  0  0  0  0  0  0
  -11.4740  -26.4780   24.6500 C   0  0  0  0  0  3  0  0  0  0  0  0
  -10.4280  -27.5090   24.6770 N   0  0  0  0  0  0  0  0  0  0  0  0
   -9.3800  -27.5510   23.8460 C   0  0  0  0  0  0  0  0  0  0  0  0
   -9.2310  -26.7530   22.9150 O   0  0  0  0  0  0  0  0  0  0  0  0
  -10.4540  -28.1580   25.4520 H   0  0  0  0  0  0  0  0  0  0  0  0
   -7.1430  -28.0740   24.8690 C   0  0  0  0  0  1  0  0  0  0  0  0
   -8.3290  -28.6530   24.0820 C   0  0  0  0  0  3  0  0  0  0  0  0
   -8.8670  -30.0410   22.1290 C   0  0  0  0  0  1  0  0  0  0  0  0
   -7.8410  -29.2760   22.8320 N   0  0  0  0  0  0  0  0  0  0  0  0
   -7.0590  -29.8960   23.0220 H   0  0  0  0  0  0  0  0  0  0  0  0
  -12.9040  -27.1260   24.8100 C   0  0  1  0  0  0  0  0  0  0  0  0
  -13.1770  -27.6930   26.2230 C   0  0  0  0  0  1  0  0  0  0  0  0
  -14.0070  -26.0880   24.4960 C   0  0  0  0  0  1  0  0  0  0  0  0
  -13.0760  -28.2760   23.7910 C   0  0  0  0  0  1  0  0  0  0  0  0
  1 52  1  0
  2  1  1  0
  2  4  1  0
  3  2  1  0
  5  2  1  0
  6  7  1  0
  6  5  1  0
  7  8  1  0
  9  8  1  0
 10  9  1  0
 11 10  1  0
 12 11  1  0
 13 22  1  0
 13 12  1  0
 14 20  1  0
 14 21  2  0
 15 16  1  0
 17 16  1  0
 18 19  1  0
 18 17  1  0
 19 20  1  0
 20 15  1  0
 22 14  1  0
 23 22  1  0
 24 49  1  0
 25 44  1  0
 25 24  2  0
 26 28  2  0
 26 25  1  0
 27 24  1  0
 27 18  1  0
 28 27  1  0
 29 26  1  0
 29 34  1  0
 30 29  2  0
 31 30  1  0
 31 32  2  0
 32 33  1  0
 33 34  2  0
 35 32  1  0
 36 41  1  0
 36 35  1  0
 37 36  2  0
 38 39  2  0
 38 37  1  0
 39 40  1  0
 40 41  2  0
 41 42  1  0
 43 39  1  0
 44 46  2  0
 45 48  1  0
 45 44  1  0
 47 45  1  0
 49 50  1  0
 49 51  1  0
 53 55  1  0
 53 52  1  0
 53 54  1  0
 56 55  1  0
 57 56  1  0
 58 57  1  0
 59 57  1  0
 60 59  1  0
 61 60  1  0
 61 63  1  0
 62 73  2  0
 63 69  1  0
 64 74  1  0
 65 70  1  0
 65 71  1  0
 66 67  1  0
 66 72  1  0
 67 65  2  0
 68 63  2  0
 68 67  1  0
 69 70  2  0
 71 64  1  0
 72 62  1  0
 72 64  1  0
 74 75  1  0
 75 77  1  0
 76 74  2  0
 78 87  1  0
 79 75  1  0
 79 83  1  0
 80 79  1  0
 80 81  1  0
 81 82  1  0
 82 78  1  0
 83 84  1  0
 83 78  2  0
 84 85  2  0
 85 86  1  0
 87 86  2  0
 88 89  1  0
 88 98  1  0
 88 62  1  0
 89 92  1  0
 90 94  1  0
 90 89  1  0
 91 90  2  0
 94 93  1  0
 95 96  1  0
 96 97  1  0
 96 94  1  0
 98 99  1  1
100 98  1  0
101 98  1  0
M  ISO  4  14 100  22 100  60 101  61 101
M  END
>  <TORSDO>  (32) 
F 33

>  <SCORE>  (32) 
20.227

>  <name>  (32) 
33

>  <ligand_id>  (32) 
33

>  <original_smiles>  (32) 
[H]c1c([H])c([H])c2c(c1[H])C([H])([H])C([H])([H])C([H])([H])C2([H])N([H])C(=O)C1([H])N(C(=O)C([H])(N([H])C(=O)C([H])(N([H])C([H])([H])[H])C([H])([H])[H])C(C([H])([H])[H])(C([H])([H])[H])C([H])([H])[H])C([H])([H])c2c([H])c(OC([H])([H])C([H])([H])N([H])C([H])([H])C([H])([H])N([H])C([H])([H])C([H])([H])[N+]([H])([H])C([H])([H])C([H])([H])OC([H])([H])C([H])([H])C([H])([H])C([H])([H])C([H])([H])C([H])([H])N([H])C(=O)N3C([H])([H])C([H])([H])C([H])([H])C([H])(n4nc(-c5c([H])c([H])c(Oc6c([H])c([H])c(F)c([H])c6F)c([H])c5[H])c(C(=O)N([H])[H])c4N([H])[H])C3([H])[H])c([H])c([H])c2C1([H])[H]

>  <smiles>  (32) 
[H]c1c([H])c([H])c2c(c1[H])C([H])([H])C([H])([H])C([H])([H])C2([H])N([H])C(=O)C1([H])N(C(=O)C([H])(N([H])C(=O)C([H])(N([H])C([H])([H])[H])C([H])([H])[H])C(C([H])([H])[H])(C([H])([H])[H])C([H])([H])[H])C([H])([H])c2c([H])c(OC([H])([H])C([H])([H])N([H])C([H])([H])C([H])([H])N([H])C([H])([H])C([H])([H])[N+]([H])([H])C([H])([H])C([H])([H])OC([H])([H])C([H])([H])C([H])([H])C([H])([H])C([H])([H])C([H])([H])N([H])C(=O)N3C([H])([H])C([H])([H])C([H])([H])C([H])(n4nc(-c5c([H])c([H])c(Oc6c([H])c([H])c(F)c([H])c6F)c([H])c5[H])c(C(=O)N([H])[H])c4N([H])[H])C3([H])[H])c([H])c([H])c2C1([H])[H]

$$$$
34:0:0
     RDKit          3D

102109  0  0  1  0  0  0  0  0999 V2000
  -33.5050  -21.4390   16.2340 N   0  0  0  0  0  4  0  0  0  0  0  0
  -33.7090  -20.6120   15.6930 H   0  0  0  0  0  0  0  0  0  0  0  0
  -34.0870  -22.1700   15.8570 H   0  0  0  0  0  0  0  0  0  0  0  0
  -32.0950  -21.8150   15.9850 C   0  0  0  0  0  2  0  0  0  0  0  0
  -31.0880  -20.7250   16.4270 C   0  0  0  0  0  2  0  0  0  0  0  0
  -29.6740  -21.1270   16.3380 N   0  0  0  0  0  0  0  0  0  0  0  0
  -29.1310  -20.2720   16.2010 H   0  0  0  0  0  0  0  0  0  0  0  0
  -29.1200  -21.7710   17.5370 C   0  0  0  0  0  2  0  0  0  0  0  0
  -29.4060  -23.2790   17.6760 C   0  0  0  0  0  2  0  0  0  0  0  0
  -29.7500  -23.5340   19.0340 O   0  0  0  0  0  0  0  0  0  0  0  0
  -29.8290  -24.9130   19.3810 C   0  0  0  0  0  2  0  0  0  0  0  0
  -28.4350  -25.5490   19.3880 C   0  0  0  0  0  2  0  0  0  0  0  0
  -28.4200  -26.7880   20.0790 O   0  0  0  0  0  0  0  0  0  0  0  0
  -24.6110  -31.8740   23.2150 C   0  0  0  0  0  0  0  0  0  0  0  0
  -27.2270  -27.4760   20.0840 C   0  0  0  0  0  0  0  0  0  0  0  0
  -23.3940  -30.5060   21.5550 C   0  0  0  0  0  3  0  0  0  0  0  0
  -24.8350  -28.9790   20.1240 C   0  0  0  0  0  0  0  0  0  0  0  0
  -25.9220  -30.8580   21.3640 C   0  0  0  0  0  2  0  0  0  0  0  0
  -25.9970  -29.4960   20.7090 C   0  0  0  0  0  0  0  0  0  0  0  0
  -27.1930  -28.7480   20.6930 C   0  0  0  0  0  3  0  0  0  0  0  0
  -26.0360  -26.9650   19.5050 C   0  0  0  0  0  3  0  0  0  0  0  0
  -24.8430  -27.7070   19.5300 C   0  0  0  0  0  3  0  0  0  0  0  0
  -23.6020  -29.8480   20.1670 C   0  0  0  0  0  2  0  0  0  0  0  0
  -24.6600  -31.0880   22.1060 N   0  0  0  0  0  0  0  0  0  0  0  0
  -23.5300  -32.1470   23.7570 O   0  0  0  0  0  0  0  0  0  0  0  0
  -22.7370  -29.4740   22.4980 C   0  0  0  0  0  0  0  0  0  0  0  0
  -21.4100  -29.3060   22.3710 N   0  0  0  0  0  0  0  0  0  0  0  0
  -23.4160  -28.8280   23.3020 O   0  0  0  0  0  0  0  0  0  0  0  0
  -20.9220  -29.8790   21.6970 H   0  0  0  0  0  0  0  0  0  0  0  0
  -18.0280  -28.1400   22.8490 C   0  0  0  0  0  0  0  0  0  0  0  0
  -20.5860  -28.3690   23.1310 C   0  0  0  0  0  3  0  0  0  0  0  0
  -20.6750  -26.9420   22.5410 C   0  0  0  0  0  2  0  0  0  0  0  0
  -19.5750  -26.6400   21.5200 C   0  0  0  0  0  2  0  0  0  0  0  0
  -18.1930  -26.7940   22.1610 C   0  0  0  0  0  2  0  0  0  0  0  0
  -19.1530  -28.8860   23.2900 C   0  0  0  0  0  0  0  0  0  0  0  0
  -18.9450  -30.1450   23.8910 C   0  0  0  0  0  3  0  0  0  0  0  0
  -17.6470  -30.6600   24.0590 C   0  0  0  0  0  3  0  0  0  0  0  0
  -16.5350  -29.9120   23.6340 C   0  0  0  0  0  3  0  0  0  0  0  0
  -16.7270  -28.6550   23.0330 C   0  0  0  0  0  3  0  0  0  0  0  0
  -25.9030  -32.4860   23.8430 C   0  0  0  0  0  3  0  0  0  0  0  0
  -25.5890  -33.8660   24.2360 N   0  0  0  0  0  0  0  0  0  0  0  0
  -25.9030  -34.9490   23.5140 C   0  0  0  0  0  0  0  0  0  0  0  0
  -26.5590  -34.8940   22.4690 O   0  0  0  0  0  0  0  0  0  0  0  0
  -25.0080  -33.9850   25.0530 H   0  0  0  0  0  0  0  0  0  0  0  0
  -24.1470  -36.7310   23.2640 C   0  0  0  0  0  1  0  0  0  0  0  0
  -25.4100  -36.3130   24.0340 C   0  0  0  0  0  3  0  0  0  0  0  0
  -27.5580  -37.1810   24.8480 C   0  0  0  0  0  1  0  0  0  0  0  0
  -26.4290  -37.3820   23.9410 N   0  0  0  0  0  0  0  0  0  0  0  0
  -26.0170  -38.2890   24.1430 H   0  0  0  0  0  0  0  0  0  0  0  0
  -26.4490  -31.6620   25.0730 C   0  0  1  0  0  0  0  0  0  0  0  0
  -25.3790  -31.3700   26.1480 C   0  0  0  0  0  1  0  0  0  0  0  0
  -27.0330  -30.3080   24.6090 C   0  0  0  0  0  1  0  0  0  0  0  0
  -27.6090  -32.4310   25.7490 C   0  0  0  0  0  1  0  0  0  0  0  0
  -33.8930  -21.1940   17.6500 C   0  0  0  0  0  2  0  0  0  0  0  0
  -33.7170  -22.4170   18.5910 C   0  0  0  0  0  2  0  0  0  0  0  0
  -33.9310  -22.0930   20.0840 C   0  0  0  0  0  2  0  0  0  0  0  0
  -32.6220  -21.9730   20.8960 C   0  0  0  0  0  2  0  0  0  0  0  0
  -32.7220  -20.9670   22.0580 C   0  0  0  0  0  2  0  0  0  0  0  0
  -32.5870  -19.5740   21.5770 N   0  0  0  0  0  4  0  0  0  0  0  0
  -33.2920  -19.0150   22.0290 H   0  0  0  0  0  0  0  0  0  0  0  0
  -32.7800  -19.5680   20.5920 H   0  0  0  0  0  0  0  0  0  0  0  0
  -31.2650  -18.9620   21.8290 C   0  0  0  0  0  2  0  0  0  0  0  0
  -31.0800  -17.5840   21.1430 C   0  0  0  0  0  2  0  0  0  0  0  0
  -30.8260  -16.4310   22.1430 C   0  0  0  0  0  2  0  0  0  0  0  0
  -30.7580  -14.3950   20.6600 C   0  0  0  0  0  0  0  0  0  0  0  0
  -30.4260  -12.3070   19.3890 C   0  0  0  0  0  2  0  0  0  0  0  0
  -29.4860  -12.5270   18.1870 C   0  0  0  0  0  2  0  0  0  0  0  0
  -28.0090  -12.3860   18.6040 C   0  0  0  0  0  2  0  0  0  0  0  0
  -27.6640  -13.2080   19.8730 C   0  0  0  0  0  3  0  0  0  0  0  0
  -28.7070  -12.9560   20.9820 C   0  0  0  0  0  2  0  0  0  0  0  0
  -30.0430  -13.2620   20.4370 N   0  0  0  0  0  0  0  0  0  0  0  0
  -31.8240  -14.6520   20.1000 O   0  0  0  0  0  0  0  0  0  0  0  0
  -30.2160  -15.2380   21.5490 N   0  0  0  0  0  0  0  0  0  0  0  0
  -29.3220  -14.9540   21.9210 H   0  0  0  0  0  0  0  0  0  0  0  0
  -25.2600  -13.8200   20.5690 C   0  0  0  0  0  0  0  0  0  0  0  0
  -24.1840  -13.0450   20.9200 C   0  0  0  0  0  0  0  0  0  0  0  0
  -24.6390  -11.6930   20.8740 C   0  0  0  0  0  0  0  0  0  0  0  0
  -26.3040  -12.9350   20.3370 N   0  0  0  0  0  0  0  0  0  0  0  0
  -25.9330  -11.6500   20.5750 N   0  0  0  0  0  0  0  0  0  0  0  0
  -23.9060  -10.4290   21.0390 C   0  0  0  0  0  0  0  0  0  0  0  0
  -24.3610   -9.4210   21.9170 C   0  0  0  0  0  3  0  0  0  0  0  0
  -23.6280   -8.2250   22.0750 C   0  0  0  0  0  3  0  0  0  0  0  0
  -22.4270   -8.0290   21.3540 C   0  0  0  0  0  0  0  0  0  0  0  0
  -21.9880   -9.0270   20.4650 C   0  0  0  0  0  3  0  0  0  0  0  0
  -22.7230  -10.2140   20.3050 C   0  0  0  0  0  3  0  0  0  0  0  0
  -21.6640   -6.8880   21.4250 O   0  0  0  0  0  0  0  0  0  0  0  0
  -21.6840   -6.0730   22.5280 C   0  0  0  0  0  0  0  0  0  0  0  0
  -21.4010   -6.5630   23.8220 C   0  0  0  0  0  3  0  0  0  0  0  0
  -21.3660   -5.6790   24.9180 C   0  0  0  0  0  3  0  0  0  0  0  0
  -21.6050   -4.3050   24.7220 C   0  0  0  0  0  0  0  0  0  0  0  0
  -21.8810   -3.8140   23.4350 C   0  0  0  0  0  3  0  0  0  0  0  0
  -21.9190   -4.6960   22.3410 C   0  0  0  0  0  0  0  0  0  0  0  0
  -22.1650   -4.2140   21.0980 F   0  0  0  0  0  0  0  0  0  0  0  0
  -21.5630   -3.4540   25.7730 F   0  0  0  0  0  0  0  0  0  0  0  0
  -22.7840  -13.5240   21.1860 C   0  0  0  0  0  0  0  0  0  0  0  0
  -22.0470  -12.8250   22.0430 N   0  0  0  0  0  0  0  0  0  0  0  0
  -22.3510  -14.5530   20.6720 O   0  0  0  0  0  0  0  0  0  0  0  0
  -22.4070  -11.9930   22.4840 H   0  0  0  0  0  0  0  0  0  0  0  0
  -21.1080  -13.1270   22.2590 H   0  0  0  0  0  0  0  0  0  0  0  0
  -25.4310  -15.1910   20.4120 N   0  0  0  0  0  0  0  0  0  0  0  0
  -24.6730  -15.8550   20.5200 H   0  0  0  0  0  0  0  0  0  0  0  0
  -26.2950  -15.6260   20.1080 H   0  0  0  0  0  0  0  0  0  0  0  0
  1 54  1  0
  2  1  1  0
  3  1  1  0
  4  1  1  0
  4  5  1  0
  6  5  1  0
  6  8  1  0
  7  6  1  0
  8  9  1  0
  9 10  1  0
 10 11  1  0
 11 12  1  0
 12 13  1  0
 13 15  1  0
 14 25  2  0
 15 20  1  0
 16 24  1  0
 16 26  1  0
 17 23  1  0
 17 19  1  0
 18 24  1  0
 19 18  1  0
 20 19  2  0
 21 22  1  0
 21 15  2  0
 22 17  2  0
 23 16  1  0
 24 14  1  0
 26 28  2  0
 27 26  1  0
 29 27  1  0
 30 39  2  0
 30 35  1  0
 31 27  1  0
 31 35  1  0
 32 31  1  0
 33 34  1  0
 33 32  1  0
 34 30  1  0
 35 36  2  0
 36 37  1  0
 38 37  2  0
 39 38  1  0
 40 14  1  0
 40 41  1  0
 40 50  1  0
 41 44  1  0
 42 46  1  0
 42 41  1  0
 43 42  2  0
 46 45  1  0
 48 46  1  0
 48 49  1  0
 48 47  1  0
 50 53  1  1
 50 51  1  0
 52 50  1  0
 54 55  1  0
 55 56  1  0
 56 57  1  0
 57 58  1  0
 59 62  1  0
 59 60  1  0
 59 58  1  0
 61 59  1  0
 63 62  1  0
 63 64  1  0
 65 73  1  0
 66 71  1  0
 67 68  1  0
 67 66  1  0
 69 68  1  0
 69 78  1  0
 69 70  1  0
 71 65  1  0
 71 70  1  0
 72 65  2  0
 73 74  1  0
 73 64  1  0
 75 76  2  0
 76 95  1  0
 77 76  1  0
 77 80  1  0
 78 75  1  0
 78 79  1  0
 79 77  2  0
 80 81  1  0
 81 82  2  0
 83 86  1  0
 83 82  1  0
 84 83  2  0
 85 84  1  0
 85 80  2  0
 86 87  1  0
 87 88  1  0
 88 89  2  0
 90 89  1  0
 90 94  1  0
 91 90  2  0
 92 87  2  0
 92 91  1  0
 93 92  1  0
 95 96  1  0
 96 99  1  0
 96 98  1  0
 97 95  2  0
100101  1  0
100 75  1  0
102100  1  0
M  ISO  4  12 101  13 101  65 100  73 100
M  END
>  <TORSDO>  (33) 
F 33

>  <SCORE>  (33) 
-10.090

>  <name>  (33) 
34

>  <ligand_id>  (33) 
34

>  <original_smiles>  (33) 
[H]c1c([H])c([H])c2c(c1[H])C([H])([H])C([H])([H])C([H])([H])C2([H])N([H])C(=O)C1([H])N(C(=O)C([H])(N([H])C(=O)C([H])(N([H])C([H])([H])[H])C([H])([H])[H])C(C([H])([H])[H])(C([H])([H])[H])C([H])([H])[H])C([H])([H])c2c([H])c(OC([H])([H])C([H])([H])OC([H])([H])C([H])([H])N([H])C([H])([H])C([H])([H])[N+]([H])([H])C([H])([H])C([H])([H])C([H])([H])C([H])([H])C([H])([H])[N+]([H])([H])C([H])([H])C([H])([H])C([H])([H])N([H])C(=O)N3C([H])([H])C([H])([H])C([H])([H])C([H])(n4nc(-c5c([H])c([H])c(Oc6c([H])c([H])c(F)c([H])c6F)c([H])c5[H])c(C(=O)N([H])[H])c4N([H])[H])C3([H])[H])c([H])c([H])c2C1([H])[H]

>  <smiles>  (33) 
[H]c1c([H])c([H])c2c(c1[H])C([H])([H])C([H])([H])C([H])([H])C2([H])N([H])C(=O)C1([H])N(C(=O)C([H])(N([H])C(=O)C([H])(N([H])C([H])([H])[H])C([H])([H])[H])C(C([H])([H])[H])(C([H])([H])[H])C([H])([H])[H])C([H])([H])c2c([H])c(OC([H])([H])C([H])([H])OC([H])([H])C([H])([H])N([H])C([H])([H])C([H])([H])[N+]([H])([H])C([H])([H])C([H])([H])C([H])([H])C([H])([H])C([H])([H])[N+]([H])([H])C([H])([H])C([H])([H])C([H])([H])N([H])C(=O)N3C([H])([H])C([H])([H])C([H])([H])C([H])(n4nc(-c5c([H])c([H])c(Oc6c([H])c([H])c(F)c([H])c6F)c([H])c5[H])c(C(=O)N([H])[H])c4N([H])[H])C3([H])[H])c([H])c([H])c2C1([H])[H]

$$$$
35:0:0
     RDKit          3D

 98105  0  0  1  0  0  0  0  0999 V2000
  -27.8800  -24.0670   25.2200 C   0  0  0  0  0  2  0  0  0  0  0  0
  -28.6450  -22.8710   25.7960 C   0  0  0  0  0  2  0  0  0  0  0  0
  -30.1180  -23.1890   26.1140 C   0  0  0  0  0  2  0  0  0  0  0  0
  -30.9490  -22.2280   25.4790 O   0  0  0  0  0  0  0  0  0  0  0  0
  -30.8150  -22.2800   24.0640 C   0  0  0  0  0  2  0  0  0  0  0  0
  -31.2180  -20.9470   23.4260 C   0  0  0  0  0  2  0  0  0  0  0  0
  -30.6870  -20.9060   21.9840 C   0  0  0  0  0  2  0  0  0  0  0  0
  -30.5870  -19.5470   21.4180 N   0  0  0  0  0  4  0  0  0  0  0  0
  -29.6720  -19.1680   21.6010 H   0  0  0  0  0  0  0  0  0  0  0  0
  -31.2660  -18.9490   21.8580 H   0  0  0  0  0  0  0  0  0  0  0  0
  -30.8130  -19.5540   19.9580 C   0  0  0  0  0  2  0  0  0  0  0  0
  -31.6170  -18.3480   19.4610 C   0  0  0  0  0  2  0  0  0  0  0  0
  -31.4030  -15.8850   19.2740 C   0  0  0  0  0  0  0  0  0  0  0  0
  -31.8670  -13.7070   20.3100 C   0  0  0  0  0  2  0  0  0  0  0  0
  -31.3150  -12.4850   19.5610 C   0  0  0  0  0  2  0  0  0  0  0  0
  -29.8660  -12.2060   19.9880 C   0  0  0  0  0  2  0  0  0  0  0  0
  -28.9730  -13.4700   19.8880 C   0  0  0  0  0  3  0  0  0  0  0  0
  -29.6330  -14.6860   20.5800 C   0  0  0  0  0  2  0  0  0  0  0  0
  -31.0000  -14.8640   20.0570 N   0  0  0  0  0  0  0  0  0  0  0  0
  -32.3140  -15.8050   18.4410 O   0  0  0  0  0  0  0  0  0  0  0  0
  -30.9570  -17.0650   19.7130 N   0  0  0  0  0  0  0  0  0  0  0  0
  -30.3310  -17.0140   20.5050 H   0  0  0  0  0  0  0  0  0  0  0  0
  -26.6310  -14.1080   20.7480 C   0  0  0  0  0  0  0  0  0  0  0  0
  -25.5560  -13.3480   21.1210 C   0  0  0  0  0  0  0  0  0  0  0  0
  -25.9710  -11.9860   20.9880 C   0  0  0  0  0  0  0  0  0  0  0  0
  -27.6350  -13.2110   20.4170 N   0  0  0  0  0  0  0  0  0  0  0  0
  -27.2430  -11.9280   20.6180 N   0  0  0  0  0  0  0  0  0  0  0  0
  -25.2150  -10.7360   21.1380 C   0  0  0  0  0  0  0  0  0  0  0  0
  -25.3640   -9.9170   22.2790 C   0  0  0  0  0  3  0  0  0  0  0  0
  -24.6140   -8.7280   22.4100 C   0  0  0  0  0  3  0  0  0  0  0  0
  -23.7010   -8.3500   21.3980 C   0  0  0  0  0  0  0  0  0  0  0  0
  -23.5730   -9.1580   20.2530 C   0  0  0  0  0  3  0  0  0  0  0  0
  -24.3230  -10.3380   20.1220 C   0  0  0  0  0  3  0  0  0  0  0  0
  -22.9490   -7.2000   21.4260 O   0  0  0  0  0  0  0  0  0  0  0  0
  -22.2970   -6.7950   22.5620 C   0  0  0  0  0  0  0  0  0  0  0  0
  -21.3170   -7.5980   23.1850 C   0  0  0  0  0  3  0  0  0  0  0  0
  -20.6200   -7.1110   24.3100 C   0  0  0  0  0  3  0  0  0  0  0  0
  -20.8970   -5.8240   24.8070 C   0  0  0  0  0  0  0  0  0  0  0  0
  -21.8690   -5.0210   24.1850 C   0  0  0  0  0  3  0  0  0  0  0  0
  -22.5650   -5.5050   23.0630 C   0  0  0  0  0  0  0  0  0  0  0  0
  -23.4850   -4.7200   22.4540 F   0  0  0  0  0  0  0  0  0  0  0  0
  -20.2230   -5.3540   25.8830 F   0  0  0  0  0  0  0  0  0  0  0  0
  -24.1890  -13.8460   21.4910 C   0  0  0  0  0  0  0  0  0  0  0  0
  -23.5110  -13.1590   22.4020 N   0  0  0  0  0  0  0  0  0  0  0  0
  -23.7340  -14.8810   21.0030 O   0  0  0  0  0  0  0  0  0  0  0  0
  -23.8920  -12.3200   22.8140 H   0  0  0  0  0  0  0  0  0  0  0  0
  -22.5960  -13.4730   22.6910 H   0  0  0  0  0  0  0  0  0  0  0  0
  -26.8350  -15.4810   20.6460 N   0  0  0  0  0  0  0  0  0  0  0  0
  -26.1010  -16.1560   20.8260 H   0  0  0  0  0  0  0  0  0  0  0  0
  -27.6940  -15.9060   20.3170 H   0  0  0  0  0  0  0  0  0  0  0  0
  -26.6200  -23.6180   24.4650 C   0  0  0  0  0  2  0  0  0  0  0  0
  -26.1450  -24.6320   23.4140 C   0  0  0  0  0  2  0  0  0  0  0  0
  -27.1180  -24.7630   22.3060 N   0  0  0  0  0  4  0  0  0  0  0  0
  -27.0270  -23.9420   21.7270 H   0  0  0  0  0  0  0  0  0  0  0  0
  -28.0580  -24.7700   22.6730 H   0  0  0  0  0  0  0  0  0  0  0  0
  -26.9250  -25.9560   21.4580 C   0  0  0  0  0  2  0  0  0  0  0  0
  -27.4300  -25.7240   20.0090 C   0  0  0  0  0  2  0  0  0  0  0  0
  -27.5210  -26.9340   19.2510 O   0  0  0  0  0  0  0  0  0  0  0  0
  -24.6850  -31.7090   23.6020 C   0  0  0  0  0  0  0  0  0  0  0  0
  -26.4560  -27.7750   19.4420 C   0  0  0  0  0  0  0  0  0  0  0  0
  -23.1450  -30.7620   21.9110 C   0  0  0  0  0  3  0  0  0  0  0  0
  -24.2450  -29.4070   20.0530 C   0  0  0  0  0  0  0  0  0  0  0  0
  -25.6570  -30.9360   21.4500 C   0  0  0  0  0  2  0  0  0  0  0  0
  -25.5130  -29.7230   20.5600 C   0  0  0  0  0  0  0  0  0  0  0  0
  -26.6220  -28.9160   20.2480 C   0  0  0  0  0  3  0  0  0  0  0  0
  -25.1790  -27.4640   18.9250 C   0  0  0  0  0  3  0  0  0  0  0  0
  -24.0730  -28.2770   19.2360 C   0  0  0  0  0  3  0  0  0  0  0  0
  -23.1110  -30.3330   20.4210 C   0  0  0  0  0  2  0  0  0  0  0  0
  -24.5220  -31.1320   22.3770 N   0  0  0  0  0  0  0  0  0  0  0  0
  -23.7100  -31.9700   24.3230 O   0  0  0  0  0  0  0  0  0  0  0  0
  -22.4950  -29.6410   22.7530 C   0  0  0  0  0  0  0  0  0  0  0  0
  -21.1730  -29.4660   22.5970 N   0  0  0  0  0  0  0  0  0  0  0  0
  -23.1790  -28.9330   23.4970 O   0  0  0  0  0  0  0  0  0  0  0  0
  -20.6770  -30.0930   21.9810 H   0  0  0  0  0  0  0  0  0  0  0  0
  -17.8470  -28.0770   22.7810 C   0  0  0  0  0  0  0  0  0  0  0  0
  -20.3590  -28.4450   23.2580 C   0  0  0  0  0  3  0  0  0  0  0  0
  -20.5800  -27.0530   22.6190 C   0  0  0  0  0  2  0  0  0  0  0  0
  -19.5720  -26.7320   21.5100 C   0  0  0  0  0  2  0  0  0  0  0  0
  -18.1430  -26.7780   22.0550 C   0  0  0  0  0  2  0  0  0  0  0  0
  -18.8880  -28.8680   23.3340 C   0  0  0  0  0  0  0  0  0  0  0  0
  -18.5620  -30.0870   23.9660 C   0  0  0  0  0  3  0  0  0  0  0  0
  -17.2230  -30.5150   24.0520 C   0  0  0  0  0  3  0  0  0  0  0  0
  -16.1930  -29.7190   23.5190 C   0  0  0  0  0  3  0  0  0  0  0  0
  -16.5060  -28.5020   22.8890 C   0  0  0  0  0  3  0  0  0  0  0  0
  -26.0990  -32.0880   24.1480 C   0  0  0  0  0  3  0  0  0  0  0  0
  -26.0070  -33.4430   24.7050 N   0  0  0  0  0  0  0  0  0  0  0  0
  -26.4430  -34.5500   24.0900 C   0  0  0  0  0  0  0  0  0  0  0  0
  -27.0380  -34.5260   23.0100 O   0  0  0  0  0  0  0  0  0  0  0  0
  -25.4810  -33.5470   25.5600 H   0  0  0  0  0  0  0  0  0  0  0  0
  -25.0100  -36.6160   24.0860 C   0  0  0  0  0  1  0  0  0  0  0  0
  -26.1770  -35.9000   24.7850 C   0  0  0  0  0  3  0  0  0  0  0  0
  -28.4210  -36.3050   25.6950 C   0  0  0  0  0  1  0  0  0  0  0  0
  -27.3580  -36.7890   24.8160 N   0  0  0  0  0  0  0  0  0  0  0  0
  -27.0990  -37.7240   25.1160 H   0  0  0  0  0  0  0  0  0  0  0  0
  -26.6440  -31.0740   25.2290 C   0  0  1  0  0  0  0  0  0  0  0  0
  -25.6430  -30.8020   26.3740 C   0  0  0  0  0  1  0  0  0  0  0  0
  -27.0050  -29.7180   24.5820 C   0  0  0  0  0  1  0  0  0  0  0  0
  -27.9470  -31.6270   25.8550 C   0  0  0  0  0  1  0  0  0  0  0  0
  1  2  1  0
  2  3  1  0
  4  3  1  0
  5  4  1  0
  6  5  1  0
  7  6  1  0
  8  9  1  0
  8 10  1  0
  8  7  1  0
 11  8  1  0
 12 21  1  0
 12 11  1  0
 13 21  1  0
 13 19  1  0
 15 16  1  0
 15 14  1  0
 17 16  1  0
 17 26  1  0
 17 18  1  0
 19 14  1  0
 19 18  1  0
 20 13  2  0
 21 22  1  0
 23 24  2  0
 24 43  1  0
 25 24  1  0
 25 28  1  0
 26 27  1  0
 26 23  1  0
 27 25  2  0
 28 29  1  0
 29 30  2  0
 31 34  1  0
 31 30  1  0
 32 31  2  0
 33 32  1  0
 33 28  2  0
 34 35  1  0
 35 40  2  0
 35 36  1  0
 36 37  2  0
 37 38  1  0
 38 42  1  0
 39 38  2  0
 40 39  1  0
 41 40  1  0
 43 44  1  0
 44 47  1  0
 44 46  1  0
 45 43  2  0
 48 23  1  0
 48 49  1  0
 50 48  1  0
 51  1  1  0
 52 51  1  0
 53 55  1  0
 53 52  1  0
 54 53  1  0
 56 53  1  0
 57 56  1  0
 58 60  1  0
 58 57  1  0
 59 70  2  0
 60 65  1  0
 61 69  1  0
 61 71  1  0
 62 68  1  0
 62 64  1  0
 63 69  1  0
 64 63  1  0
 65 64  2  0
 66 67  1  0
 66 60  2  0
 67 62  2  0
 68 61  1  0
 69 59  1  0
 71 73  2  0
 72 71  1  0
 74 72  1  0
 75 84  2  0
 75 80  1  0
 76 72  1  0
 76 80  1  0
 77 76  1  0
 78 79  1  0
 78 77  1  0
 79 75  1  0
 80 81  2  0
 81 82  1  0
 83 82  2  0
 84 83  1  0
 85 59  1  0
 85 86  1  0
 85 95  1  0
 86 89  1  0
 87 86  1  0
 87 91  1  0
 88 87  2  0
 91 90  1  0
 91 93  1  0
 93 94  1  0
 93 92  1  0
 95 98  1  1
 95 96  1  0
 97 95  1  0
M  ISO  4  13 100  21 100  57 101  58 101
M  END
>  <TORSDO>  (34) 
F 30

>  <SCORE>  (34) 
4.524

>  <name>  (34) 
35

>  <ligand_id>  (34) 
35

>  <original_smiles>  (34) 
[H]c1c([H])c([H])c2c(c1[H])C([H])([H])C([H])([H])C([H])([H])C2([H])N([H])C(=O)C1([H])N(C(=O)C([H])(N([H])C(=O)C([H])(N([H])C([H])([H])[H])C([H])([H])[H])C(C([H])([H])[H])(C([H])([H])[H])C([H])([H])[H])C([H])([H])c2c([H])c(OC([H])([H])C([H])([H])[N+]([H])([H])C([H])([H])C([H])([H])C([H])([H])C([H])([H])C([H])([H])OC([H])([H])C([H])([H])C([H])([H])[N+]([H])([H])C([H])([H])C([H])([H])N([H])C(=O)N3C([H])([H])C([H])([H])C([H])([H])C([H])(n4nc(-c5c([H])c([H])c(Oc6c([H])c([H])c(F)c([H])c6F)c([H])c5[H])c(C(=O)N([H])[H])c4N([H])[H])C3([H])[H])c([H])c([H])c2C1([H])[H]

>  <smiles>  (34) 
[H]c1c([H])c([H])c2c(c1[H])C([H])([H])C([H])([H])C([H])([H])C2([H])N([H])C(=O)C1([H])N(C(=O)C([H])(N([H])C(=O)C([H])(N([H])C([H])([H])[H])C([H])([H])[H])C(C([H])([H])[H])(C([H])([H])[H])C([H])([H])[H])C([H])([H])c2c([H])c(OC([H])([H])C([H])([H])[N+]([H])([H])C([H])([H])C([H])([H])C([H])([H])C([H])([H])C([H])([H])OC([H])([H])C([H])([H])C([H])([H])[N+]([H])([H])C([H])([H])C([H])([H])N([H])C(=O)N3C([H])([H])C([H])([H])C([H])([H])C([H])(n4nc(-c5c([H])c([H])c(Oc6c([H])c([H])c(F)c([H])c6F)c([H])c5[H])c(C(=O)N([H])[H])c4N([H])[H])C3([H])[H])c([H])c([H])c2C1([H])[H]

$$$$
36:0:0
     RDKit          3D

 96103  0  0  1  0  0  0  0  0999 V2000
  -25.9160  -22.7400   20.0600 C   0  0  0  0  0  2  0  0  0  0  0  0
  -26.1430  -22.8970   21.5870 C   0  0  0  0  0  2  0  0  0  0  0  0
  -27.3720  -23.6620   21.9420 N   0  0  0  0  0  4  0  0  0  0  0  0
  -28.1830  -23.1600   21.6120 H   0  0  0  0  0  0  0  0  0  0  0  0
  -27.4310  -23.6970   22.9480 H   0  0  0  0  0  0  0  0  0  0  0  0
  -27.3850  -25.0440   21.3940 C   0  0  0  0  0  2  0  0  0  0  0  0
  -28.6880  -25.8630   21.5660 C   0  0  0  0  0  2  0  0  0  0  0  0
  -28.7470  -26.9800   20.6560 O   0  0  0  0  0  0  0  0  0  0  0  0
  -24.6270  -32.0520   23.4490 C   0  0  0  0  0  0  0  0  0  0  0  0
  -27.5870  -27.7090   20.5540 C   0  0  0  0  0  0  0  0  0  0  0  0
  -23.5660  -30.6020   21.7450 C   0  0  0  0  0  3  0  0  0  0  0  0
  -25.1560  -29.1240   20.4080 C   0  0  0  0  0  0  0  0  0  0  0  0
  -26.0850  -31.0430   21.7040 C   0  0  0  0  0  2  0  0  0  0  0  0
  -26.2530  -29.6800   21.0800 C   0  0  0  0  0  0  0  0  0  0  0  0
  -27.4740  -28.9730   21.1630 C   0  0  0  0  0  3  0  0  0  0  0  0
  -26.4960  -27.1910   19.8220 C   0  0  0  0  0  3  0  0  0  0  0  0
  -25.2730  -27.8800   19.7700 C   0  0  0  0  0  3  0  0  0  0  0  0
  -23.8790  -29.9320   20.3830 C   0  0  0  0  0  2  0  0  0  0  0  0
  -24.7720  -31.2480   22.3590 N   0  0  0  0  0  0  0  0  0  0  0  0
  -23.5080  -32.2940   23.9200 O   0  0  0  0  0  0  0  0  0  0  0  0
  -22.8930  -29.5620   22.6700 C   0  0  0  0  0  0  0  0  0  0  0  0
  -21.5910  -29.3250   22.4550 N   0  0  0  0  0  0  0  0  0  0  0  0
  -23.5450  -28.9680   23.5340 O   0  0  0  0  0  0  0  0  0  0  0  0
  -21.1270  -29.8420   21.7220 H   0  0  0  0  0  0  0  0  0  0  0  0
  -18.2200  -28.0770   22.7760 C   0  0  0  0  0  0  0  0  0  0  0  0
  -20.7590  -28.3670   23.1800 C   0  0  0  0  0  3  0  0  0  0  0  0
  -20.9080  -26.9460   22.5880 C   0  0  0  0  0  2  0  0  0  0  0  0
  -19.8700  -26.6380   21.5060 C   0  0  0  0  0  2  0  0  0  0  0  0
  -18.4490  -26.7540   22.0670 C   0  0  0  0  0  2  0  0  0  0  0  0
  -19.3040  -28.8450   23.2770 C   0  0  0  0  0  0  0  0  0  0  0  0
  -19.0360  -30.0930   23.8820 C   0  0  0  0  0  3  0  0  0  0  0  0
  -17.7180  -30.5690   23.9960 C   0  0  0  0  0  3  0  0  0  0  0  0
  -16.6460  -29.7940   23.5190 C   0  0  0  0  0  3  0  0  0  0  0  0
  -16.9000  -28.5490   22.9160 C   0  0  0  0  0  3  0  0  0  0  0  0
  -25.8540  -32.7220   24.1430 C   0  0  0  0  0  3  0  0  0  0  0  0
  -25.5230  -34.1360   24.3550 N   0  0  0  0  0  0  0  0  0  0  0  0
  -25.8980  -35.1330   23.5440 C   0  0  0  0  0  0  0  0  0  0  0  0
  -26.6300  -34.9630   22.5630 O   0  0  0  0  0  0  0  0  0  0  0  0
  -24.8860  -34.3490   25.1090 H   0  0  0  0  0  0  0  0  0  0  0  0
  -24.1830  -36.8750   22.9610 C   0  0  0  0  0  1  0  0  0  0  0  0
  -25.3780  -36.5450   23.8690 C   0  0  0  0  0  3  0  0  0  0  0  0
  -27.4570  -37.5100   24.7460 C   0  0  0  0  0  1  0  0  0  0  0  0
  -26.4080  -37.5960   23.7340 N   0  0  0  0  0  0  0  0  0  0  0  0
  -25.9920  -38.5220   23.7860 H   0  0  0  0  0  0  0  0  0  0  0  0
  -26.2590  -32.0320   25.5030 C   0  0  1  0  0  0  0  0  0  0  0  0
  -25.0700  -31.8080   26.4660 C   0  0  0  0  0  1  0  0  0  0  0  0
  -26.9180  -30.6570   25.2440 C   0  0  0  0  0  1  0  0  0  0  0  0
  -27.3140  -32.8920   26.2360 C   0  0  0  0  0  1  0  0  0  0  0  0
  -24.4760  -22.3610   19.6400 C   0  0  0  0  0  2  0  0  0  0  0  0
  -24.2500  -22.7620   18.2790 O   0  0  0  0  0  0  0  0  0  0  0  0
  -24.4140  -21.7630   17.2670 C   0  0  0  0  0  2  0  0  0  0  0  0
  -26.0110  -19.9910   18.0120 C   0  0  0  0  0  3  0  0  0  0  0  0
  -25.7810  -21.1290   17.3410 C   0  0  0  0  0  3  0  0  0  0  0  0
  -27.3250  -19.4350   18.1950 C   0  0  0  0  0  3  0  0  0  0  0  0
  -27.6070  -18.6780   19.2670 C   0  0  0  0  0  3  0  0  0  0  0  0
  -29.1470  -17.5630   20.7290 C   0  0  0  0  0  3  0  0  0  0  0  0
  -28.8810  -18.0290   19.4950 C   0  0  0  0  0  0  0  0  0  0  0  0
  -29.8450  -17.8460   18.3300 C   0  0  0  0  0  1  0  0  0  0  0  0
  -30.3870  -16.7960   21.1400 C   0  0  0  0  0  2  0  0  0  0  0  0
  -30.0940  -15.4130   21.0760 O   0  0  0  0  0  0  0  0  0  0  0  0
  -30.6720  -14.6240   20.1570 C   0  0  0  0  0  0  0  0  0  0  0  0
  -30.3070  -12.4630   18.9850 C   0  0  0  0  0  2  0  0  0  0  0  0
  -29.2700  -12.6210   17.8580 C   0  0  0  0  0  2  0  0  0  0  0  0
  -27.8410  -12.4380   18.4020 C   0  0  0  0  0  2  0  0  0  0  0  0
  -27.5630  -13.3170   19.6530 C   0  0  0  0  0  3  0  0  0  0  0  0
  -28.6850  -13.1370   20.6990 C   0  0  0  0  0  2  0  0  0  0  0  0
  -29.9750  -13.4180   20.0440 N   0  0  0  0  0  0  0  0  0  0  0  0
  -31.6530  -14.9520   19.4830 O   0  0  0  0  0  0  0  0  0  0  0  0
  -25.2220  -13.9020   20.5550 C   0  0  0  0  0  0  0  0  0  0  0  0
  -24.1830  -13.1190   20.9760 C   0  0  0  0  0  0  0  0  0  0  0  0
  -24.6390  -11.7670   20.8640 C   0  0  0  0  0  0  0  0  0  0  0  0
  -26.2480  -13.0310   20.2210 N   0  0  0  0  0  0  0  0  0  0  0  0
  -25.9010  -11.7410   20.4590 N   0  0  0  0  0  0  0  0  0  0  0  0
  -23.9270  -10.4990   21.0620 C   0  0  0  0  0  0  0  0  0  0  0  0
  -24.4050   -9.5170   21.9580 C   0  0  0  0  0  3  0  0  0  0  0  0
  -23.6930   -8.3120   22.1440 C   0  0  0  0  0  3  0  0  0  0  0  0
  -22.4930   -8.0790   21.4300 C   0  0  0  0  0  0  0  0  0  0  0  0
  -22.0330   -9.0480   20.5220 C   0  0  0  0  0  3  0  0  0  0  0  0
  -22.7460  -10.2450   20.3350 C   0  0  0  0  0  3  0  0  0  0  0  0
  -21.7540   -6.9230   21.5260 O   0  0  0  0  0  0  0  0  0  0  0  0
  -21.6920   -6.2030   22.6910 C   0  0  0  0  0  0  0  0  0  0  0  0
  -21.2320   -6.7790   23.8960 C   0  0  0  0  0  3  0  0  0  0  0  0
  -21.1120   -5.9860   25.0520 C   0  0  0  0  0  3  0  0  0  0  0  0
  -21.4470   -4.6190   25.0100 C   0  0  0  0  0  0  0  0  0  0  0  0
  -21.9030   -4.0440   23.8110 C   0  0  0  0  0  3  0  0  0  0  0  0
  -22.0200   -4.8330   22.6540 C   0  0  0  0  0  0  0  0  0  0  0  0
  -22.4400   -4.2700   21.4950 F   0  0  0  0  0  0  0  0  0  0  0  0
  -21.3250   -3.8550   26.1210 F   0  0  0  0  0  0  0  0  0  0  0  0
  -22.8120  -13.5840   21.3720 C   0  0  0  0  0  0  0  0  0  0  0  0
  -22.1610  -12.8610   22.2760 N   0  0  0  0  0  0  0  0  0  0  0  0
  -22.3300  -14.6210   20.9170 O   0  0  0  0  0  0  0  0  0  0  0  0
  -22.5680  -12.0220   22.6610 H   0  0  0  0  0  0  0  0  0  0  0  0
  -21.2510  -13.1590   22.5960 H   0  0  0  0  0  0  0  0  0  0  0  0
  -25.3690  -15.2770   20.4080 N   0  0  0  0  0  0  0  0  0  0  0  0
  -24.5830  -15.9060   20.5120 H   0  0  0  0  0  0  0  0  0  0  0  0
  -26.1720  -15.7160   19.9780 H   0  0  0  0  0  0  0  0  0  0  0  0
  1  2  1  0
  2  3  1  0
  3  5  1  0
  4  3  1  0
  6  7  1  0
  6  3  1  0
  8  7  1  0
  9 20  2  0
 10  8  1  0
 10 15  1  0
 11 19  1  0
 11 21  1  0
 12 14  1  0
 13 19  1  0
 14 15  2  0
 14 13  1  0
 16 10  2  0
 17 16  1  0
 17 12  2  0
 18 12  1  0
 18 11  1  0
 19  9  1  0
 21 23  2  0
 22 21  1  0
 24 22  1  0
 25 34  2  0
 25 30  1  0
 26 22  1  0
 26 30  1  0
 27 26  1  0
 28 29  1  0
 28 27  1  0
 29 25  1  0
 30 31  2  0
 31 32  1  0
 33 32  2  0
 34 33  1  0
 35  9  1  0
 35 36  1  0
 35 45  1  0
 36 39  1  0
 37 41  1  0
 37 36  1  0
 38 37  2  0
 41 40  1  0
 43 44  1  0
 43 41  1  0
 43 42  1  0
 45 48  1  1
 45 46  1  0
 47 45  1  0
 49  1  1  0
 50 49  1  0
 51 53  1  0
 51 50  1  0
 52 54  1  0
 53 52  2  0
 54 55  2  0
 55 57  1  0
 56 59  1  0
 57 56  2  0
 58 57  1  0
 60 59  1  0
 61 60  1  0
 62 67  1  0
 63 64  1  0
 63 62  1  0
 65 64  1  0
 65 72  1  0
 65 66  1  0
 67 61  1  0
 67 66  1  0
 68 61  2  0
 69 70  2  0
 70 89  1  0
 71 70  1  0
 71 74  1  0
 72 73  1  0
 72 69  1  0
 73 71  2  0
 74 75  1  0
 75 76  2  0
 77 80  1  0
 77 76  1  0
 78 77  2  0
 79 78  1  0
 79 74  2  0
 80 81  1  0
 81 82  1  0
 82 83  2  0
 84 83  1  0
 84 88  1  0
 85 84  2  0
 86 81  2  0
 86 85  1  0
 87 86  1  0
 89 90  1  0
 90 93  1  0
 90 92  1  0
 91 89  2  0
 94 95  1  0
 94 69  1  0
 96 94  1  0
M  ISO  4   7 101   8 101  60 100  61 100
M  END
>  <TORSDO>  (35) 
F 28

>  <SCORE>  (35) 
-10.875

>  <name>  (35) 
36

>  <ligand_id>  (35) 
36

>  <original_smiles>  (35) 
[H]C(=C([H])C(=C([H])C([H])([H])OC(=O)N1C([H])([H])C([H])([H])C([H])([H])C([H])(n2nc(-c3c([H])c([H])c(Oc4c([H])c([H])c(F)c([H])c4F)c([H])c3[H])c(C(=O)N([H])[H])c2N([H])[H])C1([H])[H])C([H])([H])[H])C([H])=C([H])C([H])([H])OC([H])([H])C([H])([H])C([H])([H])[N+]([H])([H])C([H])([H])C([H])([H])Oc1c([H])c([H])c2c(c1[H])C([H])([H])N(C(=O)C([H])(N([H])C(=O)C([H])(N([H])C([H])([H])[H])C([H])([H])[H])C(C([H])([H])[H])(C([H])([H])[H])C([H])([H])[H])C([H])(C(=O)N([H])C1([H])c3c([H])c([H])c([H])c([H])c3C([H])([H])C([H])([H])C1([H])[H])C2([H])[H]

>  <smiles>  (35) 
[H]C(=C([H])C(=C([H])C([H])([H])OC(=O)N1C([H])([H])C([H])([H])C([H])([H])C([H])(n2nc(-c3c([H])c([H])c(Oc4c([H])c([H])c(F)c([H])c4F)c([H])c3[H])c(C(=O)N([H])[H])c2N([H])[H])C1([H])[H])C([H])([H])[H])C([H])=C([H])C([H])([H])OC([H])([H])C([H])([H])C([H])([H])[N+]([H])([H])C([H])([H])C([H])([H])Oc1c([H])c([H])c2c(c1[H])C([H])([H])N(C(=O)C([H])(N([H])C(=O)C([H])(N([H])C([H])([H])[H])C([H])([H])[H])C(C([H])([H])[H])(C([H])([H])[H])C([H])([H])[H])C([H])(C(=O)N([H])C1([H])c3c([H])c([H])c([H])c([H])c3C([H])([H])C([H])([H])C1([H])[H])C2([H])[H]

$$$$
37:0:0
     RDKit          3D

103110  0  0  1  0  0  0  0  0999 V2000
  -28.1190  -19.5030   19.4900 N   0  0  0  0  0  4  0  0  0  0  0  0
  -28.7570  -19.9220   18.8350 H   0  0  0  0  0  0  0  0  0  0  0  0
  -28.3780  -19.8500   20.4050 H   0  0  0  0  0  0  0  0  0  0  0  0
  -26.7940  -20.0840   19.2170 C   0  0  0  0  0  2  0  0  0  0  0  0
  -26.5380  -21.2370   20.2020 C   0  0  0  0  0  2  0  0  0  0  0  0
  -27.7720  -21.9630   20.5560 N   0  0  0  0  0  0  0  0  0  0  0  0
  -27.5370  -22.7970   21.1010 H   0  0  0  0  0  0  0  0  0  0  0  0
  -28.5640  -22.4350   19.4160 C   0  0  0  0  0  2  0  0  0  0  0  0
  -29.7970  -23.1950   19.9200 C   0  0  0  0  0  2  0  0  0  0  0  0
  -29.4650  -24.5510   20.3760 N   0  0  0  0  0  0  0  0  0  0  0  0
  -30.2580  -24.9000   20.9170 H   0  0  0  0  0  0  0  0  0  0  0  0
  -29.1950  -25.5180   19.2990 C   0  0  0  0  0  2  0  0  0  0  0  0
  -27.7270  -25.9780   19.2790 C   0  0  0  0  0  2  0  0  0  0  0  0
  -27.5880  -26.9420   20.3070 O   0  0  0  0  0  0  0  0  0  0  0  0
  -24.3810  -32.2880   23.6310 C   0  0  0  0  0  0  0  0  0  0  0  0
  -26.4490  -27.7090   20.3510 C   0  0  0  0  0  0  0  0  0  0  0  0
  -22.9660  -31.0480   22.0190 C   0  0  0  0  0  3  0  0  0  0  0  0
  -24.1980  -29.4060   20.5050 C   0  0  0  0  0  0  0  0  0  0  0  0
  -25.5000  -31.1670   21.7170 C   0  0  0  0  0  2  0  0  0  0  0  0
  -25.4190  -29.8100   21.0530 C   0  0  0  0  0  0  0  0  0  0  0  0
  -26.5410  -28.9630   20.9860 C   0  0  0  0  0  3  0  0  0  0  0  0
  -25.2080  -27.3030   19.8070 C   0  0  0  0  0  3  0  0  0  0  0  0
  -24.0820  -28.1470   19.8870 C   0  0  0  0  0  3  0  0  0  0  0  0
  -23.0450  -30.3770   20.6200 C   0  0  0  0  0  2  0  0  0  0  0  0
  -24.3020  -31.5130   22.5120 N   0  0  0  0  0  0  0  0  0  0  0  0
  -23.3580  -32.6540   24.2270 O   0  0  0  0  0  0  0  0  0  0  0  0
  -22.2610  -30.0760   22.9910 C   0  0  0  0  0  0  0  0  0  0  0  0
  -20.9300  -29.9680   22.8650 N   0  0  0  0  0  0  0  0  0  0  0  0
  -22.9090  -29.4220   23.8130 O   0  0  0  0  0  0  0  0  0  0  0  0
  -20.4710  -30.5440   22.1730 H   0  0  0  0  0  0  0  0  0  0  0  0
  -17.5040  -28.9120   23.3090 C   0  0  0  0  0  0  0  0  0  0  0  0
  -20.0610  -29.0860   23.6450 C   0  0  0  0  0  3  0  0  0  0  0  0
  -20.1260  -27.6340   23.1190 C   0  0  0  0  0  2  0  0  0  0  0  0
  -19.0400  -27.3160   22.0860 C   0  0  0  0  0  2  0  0  0  0  0  0
  -17.6480  -27.5340   22.6840 C   0  0  0  0  0  2  0  0  0  0  0  0
  -18.6380  -29.6470   23.7450 C   0  0  0  0  0  0  0  0  0  0  0  0
  -18.4510  -30.9390   24.2850 C   0  0  0  0  0  3  0  0  0  0  0  0
  -17.1620  -31.4930   24.3940 C   0  0  0  0  0  3  0  0  0  0  0  0
  -16.0420  -30.7540   23.9760 C   0  0  0  0  0  3  0  0  0  0  0  0
  -16.2140  -29.4660   23.4400 C   0  0  0  0  0  3  0  0  0  0  0  0
  -25.7520  -32.7690   24.2010 C   0  0  0  0  0  3  0  0  0  0  0  0
  -25.6510  -34.2160   24.4290 N   0  0  0  0  0  0  0  0  0  0  0  0
  -26.1810  -35.1510   23.6280 C   0  0  0  0  0  0  0  0  0  0  0  0
  -26.8770  -34.8770   22.6460 O   0  0  0  0  0  0  0  0  0  0  0  0
  -25.0480  -34.5130   25.1810 H   0  0  0  0  0  0  0  0  0  0  0  0
  -24.8100  -37.1710   23.0270 C   0  0  0  0  0  1  0  0  0  0  0  0
  -25.8920  -36.6240   23.9720 C   0  0  0  0  0  3  0  0  0  0  0  0
  -28.0600  -37.2080   24.9640 C   0  0  0  0  0  1  0  0  0  0  0  0
  -27.0900  -37.4900   23.9100 N   0  0  0  0  0  0  0  0  0  0  0  0
  -26.8300  -38.4700   23.9720 H   0  0  0  0  0  0  0  0  0  0  0  0
  -26.1750  -32.0230   25.5260 C   0  0  1  0  0  0  0  0  0  0  0  0
  -25.0820  -32.0380   26.6190 C   0  0  0  0  0  1  0  0  0  0  0  0
  -26.5280  -30.5460   25.2330 C   0  0  0  0  0  1  0  0  0  0  0  0
  -27.4490  -32.6750   26.1120 C   0  0  0  0  0  1  0  0  0  0  0  0
  -28.2490  -18.0340   19.3710 C   0  0  0  0  0  2  0  0  0  0  0  0
  -27.8030  -17.2590   20.6340 C   0  0  0  0  0  2  0  0  0  0  0  0
  -28.9560  -17.0670   21.6450 C   0  0  0  0  0  2  0  0  0  0  0  0
  -29.5980  -18.4030   22.0780 C   0  0  0  0  0  2  0  0  0  0  0  0
  -31.1310  -18.4580   21.9080 C   0  0  0  0  0  2  0  0  0  0  0  0
  -31.5190  -19.3090   20.7590 N   0  0  0  0  0  4  0  0  0  0  0  0
  -32.2550  -19.9220   21.0800 H   0  0  0  0  0  0  0  0  0  0  0  0
  -30.7490  -19.9030   20.5020 H   0  0  0  0  0  0  0  0  0  0  0  0
  -32.0570  -18.6000   19.5670 C   0  0  0  0  0  2  0  0  0  0  0  0
  -31.0330  -17.6590   18.8710 C   0  0  0  0  0  2  0  0  0  0  0  0
  -31.6330  -16.5360   17.9960 C   0  0  0  0  0  2  0  0  0  0  0  0
  -32.0240  -14.0660   18.3810 C   0  0  0  0  0  0  0  0  0  0  0  0
  -32.2310  -11.7710   19.2770 C   0  0  0  0  0  2  0  0  0  0  0  0
  -31.3960  -10.7210   18.5220 C   0  0  0  0  0  2  0  0  0  0  0  0
  -29.9390  -10.6940   19.0160 C   0  0  0  0  0  2  0  0  0  0  0  0
  -29.3090  -12.1070   19.0710 C   0  0  0  0  0  3  0  0  0  0  0  0
  -30.2370  -13.0660   19.8410 C   0  0  0  0  0  2  0  0  0  0  0  0
  -31.5610  -13.0750   19.1810 N   0  0  0  0  0  0  0  0  0  0  0  0
  -32.9670  -13.9400   17.5930 O   0  0  0  0  0  0  0  0  0  0  0  0
  -31.4160  -15.2370   18.6220 N   0  0  0  0  0  0  0  0  0  0  0  0
  -30.7110  -15.1840   19.3400 H   0  0  0  0  0  0  0  0  0  0  0  0
  -27.1160  -13.1160   19.9710 C   0  0  0  0  0  0  0  0  0  0  0  0
  -25.9640  -12.5340   20.4290 C   0  0  0  0  0  0  0  0  0  0  0  0
  -26.1790  -11.1240   20.3580 C   0  0  0  0  0  0  0  0  0  0  0  0
  -27.9700  -12.0700   19.6550 N   0  0  0  0  0  0  0  0  0  0  0  0
  -27.4120  -10.8670   19.9410 N   0  0  0  0  0  0  0  0  0  0  0  0
  -25.2630  -10.0040   20.6040 C   0  0  0  0  0  0  0  0  0  0  0  0
  -25.4950   -9.0780   21.6440 C   0  0  0  0  0  3  0  0  0  0  0  0
  -24.5880   -8.0200   21.8710 C   0  0  0  0  0  3  0  0  0  0  0  0
  -23.4360   -7.8820   21.0600 C   0  0  0  0  0  0  0  0  0  0  0  0
  -23.2270   -8.7930   20.0090 C   0  0  0  0  0  3  0  0  0  0  0  0
  -24.1320   -9.8410   19.7810 C   0  0  0  0  0  3  0  0  0  0  0  0
  -22.5130   -6.8730   21.1950 O   0  0  0  0  0  0  0  0  0  0  0  0
  -21.9850   -6.5400   22.4170 C   0  0  0  0  0  0  0  0  0  0  0  0
  -21.3050   -7.4820   23.2190 C   0  0  0  0  0  3  0  0  0  0  0  0
  -20.7160   -7.0790   24.4340 C   0  0  0  0  0  3  0  0  0  0  0  0
  -20.7980   -5.7360   24.8440 C   0  0  0  0  0  0  0  0  0  0  0  0
  -21.4690   -4.7940   24.0460 C   0  0  0  0  0  3  0  0  0  0  0  0
  -22.0580   -5.1960   22.8340 C   0  0  0  0  0  0  0  0  0  0  0  0
  -22.6840   -4.2780   22.0570 F   0  0  0  0  0  0  0  0  0  0  0  0
  -20.2250   -5.3480   26.0090 F   0  0  0  0  0  0  0  0  0  0  0  0
  -24.6960  -13.2420   20.8110 C   0  0  0  0  0  0  0  0  0  0  0  0
  -23.9280  -12.6700   21.7350 N   0  0  0  0  0  0  0  0  0  0  0  0
  -24.4030  -14.3340   20.3270 O   0  0  0  0  0  0  0  0  0  0  0  0
  -24.1760  -11.7860   22.1530 H   0  0  0  0  0  0  0  0  0  0  0  0
  -23.0730  -13.1250   22.0240 H   0  0  0  0  0  0  0  0  0  0  0  0
  -27.4980  -14.4370   19.7730 N   0  0  0  0  0  0  0  0  0  0  0  0
  -26.8010  -15.1700   19.8030 H   0  0  0  0  0  0  0  0  0  0  0  0
  -28.3150  -14.6840   19.2320 H   0  0  0  0  0  0  0  0  0  0  0  0
  1  3  1  0
  2  1  1  0
  4  1  1  0
  4  5  1  0
  5  6  1  0
  6  7  1  0
  8  9  1  0
  8  6  1  0
  9 10  1  0
 10 11  1  0
 12 10  1  0
 13 12  1  0
 13 14  1  0
 14 16  1  0
 15 26  2  0
 16 21  1  0
 17 25  1  0
 17 27  1  0
 18 24  1  0
 18 20  1  0
 19 25  1  0
 20 19  1  0
 21 20  2  0
 22 23  1  0
 22 16  2  0
 23 18  2  0
 24 17  1  0
 25 15  1  0
 27 29  2  0
 28 27  1  0
 30 28  1  0
 31 40  2  0
 31 36  1  0
 32 28  1  0
 32 36  1  0
 33 32  1  0
 34 35  1  0
 34 33  1  0
 35 31  1  0
 36 37  2  0
 37 38  1  0
 39 38  2  0
 40 39  1  0
 41 15  1  0
 41 42  1  0
 41 51  1  0
 42 45  1  0
 43 47  1  0
 43 42  1  0
 44 43  2  0
 47 46  1  0
 49 50  1  0
 49 47  1  0
 49 48  1  0
 51 54  1  1
 51 52  1  0
 53 51  1  0
 55  1  1  0
 55 56  1  0
 56 57  1  0
 57 58  1  0
 59 58  1  0
 60 61  1  0
 60 59  1  0
 62 60  1  0
 63 60  1  0
 64 63  1  0
 65 74  1  0
 65 64  1  0
 66 74  1  0
 66 72  1  0
 68 69  1  0
 68 67  1  0
 70 69  1  0
 70 79  1  0
 70 71  1  0
 72 67  1  0
 72 71  1  0
 73 66  2  0
 74 75  1  0
 76 77  2  0
 77 96  1  0
 78 77  1  0
 78 81  1  0
 79 80  1  0
 79 76  1  0
 80 78  2  0
 81 82  1  0
 82 83  2  0
 84 87  1  0
 84 83  1  0
 85 84  2  0
 86 85  1  0
 86 81  2  0
 87 88  1  0
 88 93  2  0
 88 89  1  0
 89 90  2  0
 90 91  1  0
 91 95  1  0
 92 91  2  0
 93 92  1  0
 94 93  1  0
 96 97  1  0
 97100  1  0
 97 99  1  0
 98 96  2  0
101102  1  0
101 76  1  0
103101  1  0
M  ISO  4  13 101  14 101  66 100  74 100
M  END
>  <TORSDO>  (36) 
F 33

>  <SCORE>  (36) 
-2.820

>  <name>  (36) 
37

>  <ligand_id>  (36) 
37

>  <original_smiles>  (36) 
[H]c1c([H])c([H])c2c(c1[H])C([H])([H])C([H])([H])C([H])([H])C2([H])N([H])C(=O)C1([H])N(C(=O)C([H])(N([H])C(=O)C([H])(N([H])C([H])([H])[H])C([H])([H])[H])C(C([H])([H])[H])(C([H])([H])[H])C([H])([H])[H])C([H])([H])c2c([H])c(OC([H])([H])C([H])([H])N([H])C([H])([H])C([H])([H])N([H])C([H])([H])C([H])([H])[N+]([H])([H])C([H])([H])C([H])([H])C([H])([H])C([H])([H])C([H])([H])[N+]([H])([H])C([H])([H])C([H])([H])C([H])([H])N([H])C(=O)N3C([H])([H])C([H])([H])C([H])([H])C([H])(n4nc(-c5c([H])c([H])c(Oc6c([H])c([H])c(F)c([H])c6F)c([H])c5[H])c(C(=O)N([H])[H])c4N([H])[H])C3([H])[H])c([H])c([H])c2C1([H])[H]

>  <smiles>  (36) 
[H]c1c([H])c([H])c2c(c1[H])C([H])([H])C([H])([H])C([H])([H])C2([H])N([H])C(=O)C1([H])N(C(=O)C([H])(N([H])C(=O)C([H])(N([H])C([H])([H])[H])C([H])([H])[H])C(C([H])([H])[H])(C([H])([H])[H])C([H])([H])[H])C([H])([H])c2c([H])c(OC([H])([H])C([H])([H])N([H])C([H])([H])C([H])([H])N([H])C([H])([H])C([H])([H])[N+]([H])([H])C([H])([H])C([H])([H])C([H])([H])C([H])([H])C([H])([H])[N+]([H])([H])C([H])([H])C([H])([H])C([H])([H])N([H])C(=O)N3C([H])([H])C([H])([H])C([H])([H])C([H])(n4nc(-c5c([H])c([H])c(Oc6c([H])c([H])c(F)c([H])c6F)c([H])c5[H])c(C(=O)N([H])[H])c4N([H])[H])C3([H])[H])c([H])c([H])c2C1([H])[H]

$$$$
38:0:0
     RDKit          3D

 99106  0  0  1  0  0  0  0  0999 V2000
  -31.5910  -23.6780   15.9490 C   0  0  0  0  0  3  0  0  0  0  0  0
  -31.9650  -22.5520   16.5800 C   0  0  0  0  0  3  0  0  0  0  0  0
  -31.4560  -24.9540   16.6250 C   0  0  0  0  0  3  0  0  0  0  0  0
  -32.3210  -25.4060   17.5620 C   0  0  0  0  0  3  0  0  0  0  0  0
  -32.1380  -26.6480   18.2950 C   0  0  0  0  0  0  0  0  0  0  0  0
  -30.8600  -27.0440   18.3810 N   0  0  0  0  0  0  0  0  0  0  0  0
  -33.0500  -27.2520   18.8600 O   0  0  0  0  0  0  0  0  0  0  0  0
  -30.1710  -26.4750   17.9070 H   0  0  0  0  0  0  0  0  0  0  0  0
  -30.3420  -28.0020   19.3480 C   0  0  0  0  0  2  0  0  0  0  0  0
  -29.7550  -27.2220   20.5370 C   0  0  0  0  0  2  0  0  0  0  0  0
  -28.5060  -26.6290   20.1730 O   0  0  0  0  0  0  0  0  0  0  0  0
  -24.6790  -31.8130   23.2290 C   0  0  0  0  0  0  0  0  0  0  0  0
  -27.3590  -27.3950   20.2120 C   0  0  0  0  0  0  0  0  0  0  0  0
  -23.4680  -30.4000   21.5930 C   0  0  0  0  0  3  0  0  0  0  0  0
  -24.9290  -28.8440   20.1930 C   0  0  0  0  0  0  0  0  0  0  0  0
  -25.9730  -30.7900   21.3620 C   0  0  0  0  0  2  0  0  0  0  0  0
  -26.0740  -29.4030   20.7680 C   0  0  0  0  0  0  0  0  0  0  0  0
  -27.2830  -28.6880   20.7850 C   0  0  0  0  0  3  0  0  0  0  0  0
  -26.1920  -26.8370   19.6490 C   0  0  0  0  0  3  0  0  0  0  0  0
  -24.9770  -27.5530   19.6370 C   0  0  0  0  0  3  0  0  0  0  0  0
  -23.6780  -29.6930   20.2250 C   0  0  0  0  0  2  0  0  0  0  0  0
  -24.7270  -31.0110   22.1280 N   0  0  0  0  0  0  0  0  0  0  0  0
  -23.5990  -32.0910   23.7700 O   0  0  0  0  0  0  0  0  0  0  0  0
  -22.8120  -29.3940   22.5640 C   0  0  0  0  0  0  0  0  0  0  0  0
  -21.4860  -29.2290   22.4390 N   0  0  0  0  0  0  0  0  0  0  0  0
  -23.4900  -28.7650   23.3800 O   0  0  0  0  0  0  0  0  0  0  0  0
  -21.0060  -29.7820   21.7450 H   0  0  0  0  0  0  0  0  0  0  0  0
  -18.0960  -28.0930   22.9400 C   0  0  0  0  0  0  0  0  0  0  0  0
  -20.6570  -28.3040   23.2100 C   0  0  0  0  0  3  0  0  0  0  0  0
  -20.7360  -26.8740   22.6290 C   0  0  0  0  0  2  0  0  0  0  0  0
  -19.6270  -26.5730   21.6170 C   0  0  0  0  0  2  0  0  0  0  0  0
  -18.2480  -26.7400   22.2630 C   0  0  0  0  0  2  0  0  0  0  0  0
  -19.2290  -28.8340   23.3700 C   0  0  0  0  0  0  0  0  0  0  0  0
  -19.0350  -30.1010   23.9610 C   0  0  0  0  0  3  0  0  0  0  0  0
  -17.7410  -30.6260   24.1320 C   0  0  0  0  0  3  0  0  0  0  0  0
  -16.6210  -29.8800   23.7230 C   0  0  0  0  0  3  0  0  0  0  0  0
  -16.8000  -28.6160   23.1300 C   0  0  0  0  0  3  0  0  0  0  0  0
  -25.9670  -32.4400   23.8520 C   0  0  0  0  0  3  0  0  0  0  0  0
  -25.6670  -33.8390   24.1880 N   0  0  0  0  0  0  0  0  0  0  0  0
  -26.0040  -34.8890   23.4270 C   0  0  0  0  0  0  0  0  0  0  0  0
  -26.6760  -34.7830   22.3970 O   0  0  0  0  0  0  0  0  0  0  0  0
  -25.0720  -33.9970   24.9880 H   0  0  0  0  0  0  0  0  0  0  0  0
  -24.2830  -36.6840   23.0590 C   0  0  0  0  0  1  0  0  0  0  0  0
  -25.5180  -36.2790   23.8780 C   0  0  0  0  0  3  0  0  0  0  0  0
  -27.6550  -37.1520   24.7140 C   0  0  0  0  0  1  0  0  0  0  0  0
  -26.5530  -37.3290   23.7710 N   0  0  0  0  0  0  0  0  0  0  0  0
  -26.1490  -38.2490   23.9250 H   0  0  0  0  0  0  0  0  0  0  0  0
  -26.4880  -31.6560   25.1180 C   0  0  1  0  0  0  0  0  0  0  0  0
  -25.4010  -31.4090   26.1900 C   0  0  0  0  0  1  0  0  0  0  0  0
  -27.0630  -30.2810   24.7000 C   0  0  0  0  0  1  0  0  0  0  0  0
  -27.6470  -32.4370   25.7800 C   0  0  0  0  0  1  0  0  0  0  0  0
  -32.1410  -21.1960   15.9350 C   0  0  0  0  0  2  0  0  0  0  0  0
  -31.2790  -20.2180   16.5920 N   0  0  0  0  0  0  0  0  0  0  0  0
  -30.3710  -20.2740   16.1320 H   0  0  0  0  0  0  0  0  0  0  0  0
  -31.8050  -18.8660   16.4240 C   0  0  0  0  0  2  0  0  0  0  0  0
  -32.5840  -18.4810   17.6920 C   0  0  0  0  0  2  0  0  0  0  0  0
  -31.6760  -18.4550   18.8560 N   0  0  0  0  0  4  0  0  0  0  0  0
  -32.2200  -18.6520   19.6790 H   0  0  0  0  0  0  0  0  0  0  0  0
  -31.0340  -19.2210   18.7120 H   0  0  0  0  0  0  0  0  0  0  0  0
  -30.9410  -17.1840   19.0530 C   0  0  0  0  0  2  0  0  0  0  0  0
  -30.6580  -16.8760   20.5500 C   0  0  0  0  0  2  0  0  0  0  0  0
  -30.7340  -14.4110   20.4730 C   0  0  0  0  0  0  0  0  0  0  0  0
  -30.3420  -12.2630   19.3770 C   0  0  0  0  0  2  0  0  0  0  0  0
  -29.4390  -12.4950   18.1500 C   0  0  0  0  0  2  0  0  0  0  0  0
  -27.9560  -12.3980   18.5550 C   0  0  0  0  0  2  0  0  0  0  0  0
  -27.6140  -13.2470   19.8100 C   0  0  0  0  0  3  0  0  0  0  0  0
  -28.6540  -13.0560   20.9390 C   0  0  0  0  0  2  0  0  0  0  0  0
  -29.9920  -13.2850   20.3720 N   0  0  0  0  0  0  0  0  0  0  0  0
  -31.9040  -14.4810   20.0950 O   0  0  0  0  0  0  0  0  0  0  0  0
  -30.0730  -15.5400   20.7570 N   0  0  0  0  0  0  0  0  0  0  0  0
  -29.1010  -15.4740   21.0250 H   0  0  0  0  0  0  0  0  0  0  0  0
  -25.2110  -13.8760   20.4790 C   0  0  0  0  0  0  0  0  0  0  0  0
  -24.1350  -13.1160   20.8460 C   0  0  0  0  0  0  0  0  0  0  0  0
  -24.5860  -11.7610   20.8370 C   0  0  0  0  0  0  0  0  0  0  0  0
  -26.2540  -12.9860   20.2750 N   0  0  0  0  0  0  0  0  0  0  0  0
  -25.8800  -11.7090   20.5470 N   0  0  0  0  0  0  0  0  0  0  0  0
  -23.8490  -10.5060   21.0320 C   0  0  0  0  0  0  0  0  0  0  0  0
  -24.2750   -9.5390   21.9690 C   0  0  0  0  0  3  0  0  0  0  0  0
  -23.5410   -8.3480   22.1520 C   0  0  0  0  0  3  0  0  0  0  0  0
  -22.3650   -8.1160   21.3990 C   0  0  0  0  0  0  0  0  0  0  0  0
  -21.9570   -9.0720   20.4530 C   0  0  0  0  0  3  0  0  0  0  0  0
  -22.6920  -10.2550   20.2690 C   0  0  0  0  0  3  0  0  0  0  0  0
  -21.6010   -6.9780   21.4910 O   0  0  0  0  0  0  0  0  0  0  0  0
  -21.5590   -6.2300   22.6410 C   0  0  0  0  0  0  0  0  0  0  0  0
  -21.1690   -6.7870   23.8780 C   0  0  0  0  0  3  0  0  0  0  0  0
  -21.0730   -5.9670   25.0210 C   0  0  0  0  0  3  0  0  0  0  0  0
  -21.3550   -4.5910   24.9250 C   0  0  0  0  0  0  0  0  0  0  0  0
  -21.7380   -4.0340   23.6930 C   0  0  0  0  0  3  0  0  0  0  0  0
  -21.8360   -4.8510   22.5530 C   0  0  0  0  0  0  0  0  0  0  0  0
  -22.1840   -4.3050   21.3630 F   0  0  0  0  0  0  0  0  0  0  0  0
  -21.2560   -3.8010   26.0200 F   0  0  0  0  0  0  0  0  0  0  0  0
  -22.7380  -13.6070   21.0970 C   0  0  0  0  0  0  0  0  0  0  0  0
  -21.9940  -12.9230   21.9590 N   0  0  0  0  0  0  0  0  0  0  0  0
  -22.3140  -14.6310   20.5620 O   0  0  0  0  0  0  0  0  0  0  0  0
  -22.3550  -12.0980   22.4160 H   0  0  0  0  0  0  0  0  0  0  0  0
  -21.0540  -13.2300   22.1670 H   0  0  0  0  0  0  0  0  0  0  0  0
  -25.3860  -15.2430   20.2850 N   0  0  0  0  0  0  0  0  0  0  0  0
  -24.6150  -15.8960   20.3700 H   0  0  0  0  0  0  0  0  0  0  0  0
  -26.2360  -15.6770   19.9490 H   0  0  0  0  0  0  0  0  0  0  0  0
  1  2  2  0
  1  3  1  0
  3  4  2  0
  4  5  1  0
  5  6  1  0
  5  7  2  0
  6  9  1  0
  8  6  1  0
  9 10  1  0
 11 13  1  0
 11 10  1  0
 12 23  2  0
 13 18  1  0
 14 22  1  0
 14 24  1  0
 15 21  1  0
 15 17  1  0
 16 22  1  0
 17 18  2  0
 17 16  1  0
 19 13  2  0
 20 19  1  0
 20 15  2  0
 21 14  1  0
 22 12  1  0
 24 26  2  0
 25 24  1  0
 27 25  1  0
 28 37  2  0
 28 33  1  0
 29 25  1  0
 29 33  1  0
 30 29  1  0
 31 32  1  0
 31 30  1  0
 32 28  1  0
 33 34  2  0
 34 35  1  0
 36 35  2  0
 37 36  1  0
 38 12  1  0
 38 39  1  0
 38 48  1  0
 39 42  1  0
 40 44  1  0
 40 39  1  0
 41 40  2  0
 44 43  1  0
 46 44  1  0
 46 47  1  0
 46 45  1  0
 48 51  1  1
 48 49  1  0
 50 48  1  0
 52  2  1  0
 52 53  1  0
 54 53  1  0
 55 53  1  0
 55 56  1  0
 56 57  1  0
 57 60  1  0
 57 58  1  0
 59 57  1  0
 60 61  1  0
 61 70  1  0
 62 70  1  0
 63 68  1  0
 64 65  1  0
 64 63  1  0
 66 65  1  0
 66 75  1  0
 66 67  1  0
 68 62  1  0
 68 67  1  0
 69 62  2  0
 70 71  1  0
 72 73  2  0
 73 92  1  0
 74 73  1  0
 74 77  1  0
 75 72  1  0
 75 76  1  0
 76 74  2  0
 77 78  1  0
 78 79  2  0
 80 83  1  0
 80 79  1  0
 81 80  2  0
 82 81  1  0
 82 77  2  0
 83 84  1  0
 84 85  1  0
 85 86  2  0
 87 86  1  0
 87 91  1  0
 88 87  2  0
 89 84  2  0
 89 88  1  0
 90 89  1  0
 92 93  1  0
 93 96  1  0
 93 95  1  0
 94 92  2  0
 97 98  1  0
 97 72  1  0
 99 97  1  0
M  ISO  4  10 101  11 101  62 100  70 100
M  END
>  <TORSDO>  (37) 
F 27

>  <SCORE>  (37) 
-11.226

>  <name>  (37) 
38

>  <ligand_id>  (37) 
38

>  <original_smiles>  (37) 
[H]C(C(=O)N([H])C([H])([H])C([H])([H])Oc1c([H])c([H])c2c(c1[H])C([H])([H])N(C(=O)C([H])(N([H])C(=O)C([H])(N([H])C([H])([H])[H])C([H])([H])[H])C(C([H])([H])[H])(C([H])([H])[H])C([H])([H])[H])C([H])(C(=O)N([H])C1([H])c3c([H])c([H])c([H])c([H])c3C([H])([H])C([H])([H])C1([H])[H])C2([H])[H])=C([H])C([H])=C([H])C([H])([H])N([H])C([H])([H])C([H])([H])[N+]([H])([H])C([H])([H])C([H])([H])N([H])C(=O)N1C([H])([H])C([H])([H])C([H])([H])C([H])(n2nc(-c3c([H])c([H])c(Oc4c([H])c([H])c(F)c([H])c4F)c([H])c3[H])c(C(=O)N([H])[H])c2N([H])[H])C1([H])[H]

>  <smiles>  (37) 
[H]C(C(=O)N([H])C([H])([H])C([H])([H])Oc1c([H])c([H])c2c(c1[H])C([H])([H])N(C(=O)C([H])(N([H])C(=O)C([H])(N([H])C([H])([H])[H])C([H])([H])[H])C(C([H])([H])[H])(C([H])([H])[H])C([H])([H])[H])C([H])(C(=O)N([H])C1([H])c3c([H])c([H])c([H])c([H])c3C([H])([H])C([H])([H])C1([H])[H])C2([H])[H])=C([H])C([H])=C([H])C([H])([H])N([H])C([H])([H])C([H])([H])[N+]([H])([H])C([H])([H])C([H])([H])N([H])C(=O)N1C([H])([H])C([H])([H])C([H])([H])C([H])(n2nc(-c3c([H])c([H])c(Oc4c([H])c([H])c(F)c([H])c4F)c([H])c3[H])c(C(=O)N([H])[H])c2N([H])[H])C1([H])[H]

$$$$
39:0:0
     RDKit          3D

 93100  0  0  1  0  0  0  0  0999 V2000
  -29.8380  -21.2520   20.5260 C   0  0  0  0  0  3  0  0  0  0  0  0
  -31.3210  -21.6120   20.2960 C   0  0  0  0  0  0  0  0  0  0  0  0
  -32.2230  -21.1010   21.1310 N   0  0  0  0  0  0  0  0  0  0  0  0
  -31.6720  -22.2930   19.3330 O   0  0  0  0  0  0  0  0  0  0  0  0
  -31.9370  -20.4990   21.8900 H   0  0  0  0  0  0  0  0  0  0  0  0
  -33.2070  -21.2690   20.9810 H   0  0  0  0  0  0  0  0  0  0  0  0
  -28.9260  -22.3840   20.0190 N   0  0  0  0  0  4  0  0  0  0  0  0
  -29.0250  -22.3940   19.0170 H   0  0  0  0  0  0  0  0  0  0  0  0
  -27.9820  -22.1040   20.2280 H   0  0  0  0  0  0  0  0  0  0  0  0
  -29.1210  -23.8420   20.5030 C   0  0  0  0  0  3  0  0  0  0  0  0
  -28.1010  -24.9630   19.9630 C   0  0  0  0  0  3  0  0  0  0  0  0
  -28.2970  -26.4210   20.2590 O   0  0  0  0  0  0  0  0  0  0  0  0
  -24.5980  -31.8950   23.2480 C   0  0  0  0  0  0  0  0  0  0  0  0
  -27.1900  -27.2970   20.1920 C   0  0  0  0  0  0  0  0  0  0  0  0
  -23.3870  -30.4950   21.6140 C   0  0  0  0  0  3  0  0  0  0  0  0
  -24.8300  -28.9390   20.1850 C   0  0  0  0  0  0  0  0  0  0  0  0
  -25.9300  -30.7960   21.4300 C   0  0  0  0  0  2  0  0  0  0  0  0
  -26.0040  -29.4150   20.7840 C   0  0  0  0  0  0  0  0  0  0  0  0
  -27.1840  -28.6060   20.7830 C   0  0  0  0  0  3  0  0  0  0  0  0
  -25.9930  -26.8900   19.5560 C   0  0  0  0  0  3  0  0  0  0  0  0
  -24.8300  -27.6810   19.5640 C   0  0  0  0  0  3  0  0  0  0  0  0
  -23.5960  -29.8160   20.2360 C   0  0  0  0  0  2  0  0  0  0  0  0
  -24.6580  -31.0790   22.1530 N   0  0  0  0  0  0  0  0  0  0  0  0
  -23.5180  -32.1780   23.7840 O   0  0  0  0  0  0  0  0  0  0  0  0
  -22.7230  -29.4820   22.5780 C   0  0  0  0  0  0  0  0  0  0  0  0
  -21.3970  -29.3040   22.4490 N   0  0  0  0  0  0  0  0  0  0  0  0
  -23.4000  -28.8600   23.4000 O   0  0  0  0  0  0  0  0  0  0  0  0
  -20.9100  -29.8530   21.7560 H   0  0  0  0  0  0  0  0  0  0  0  0
  -18.0200  -28.1060   22.9440 C   0  0  0  0  0  0  0  0  0  0  0  0
  -20.5770  -28.3720   23.2240 C   0  0  0  0  0  3  0  0  0  0  0  0
  -20.6860  -26.9350   22.6590 C   0  0  0  0  0  2  0  0  0  0  0  0
  -19.5880  -26.6040   21.6420 C   0  0  0  0  0  2  0  0  0  0  0  0
  -18.2030  -26.7520   22.2790 C   0  0  0  0  0  2  0  0  0  0  0  0
  -19.1350  -28.8740   23.3730 C   0  0  0  0  0  0  0  0  0  0  0  0
  -18.9110  -30.1410   23.9520 C   0  0  0  0  0  3  0  0  0  0  0  0
  -17.6050  -30.6400   24.1130 C   0  0  0  0  0  3  0  0  0  0  0  0
  -16.5040  -29.8680   23.7010 C   0  0  0  0  0  3  0  0  0  0  0  0
  -16.7130  -28.6050   23.1210 C   0  0  0  0  0  3  0  0  0  0  0  0
  -25.8850  -32.5230   23.8640 C   0  0  0  0  0  3  0  0  0  0  0  0
  -25.5830  -33.9220   24.1970 N   0  0  0  0  0  0  0  0  0  0  0  0
  -25.9060  -34.9740   23.4330 C   0  0  0  0  0  0  0  0  0  0  0  0
  -26.5620  -34.8700   22.3940 O   0  0  0  0  0  0  0  0  0  0  0  0
  -25.0010  -34.0810   25.0060 H   0  0  0  0  0  0  0  0  0  0  0  0
  -24.1720  -36.7670   23.1040 C   0  0  0  0  0  1  0  0  0  0  0  0
  -25.4260  -36.3640   23.8970 C   0  0  0  0  0  3  0  0  0  0  0  0
  -27.5720  -37.2490   24.6920 C   0  0  0  0  0  1  0  0  0  0  0  0
  -26.4550  -37.4180   23.7670 N   0  0  0  0  0  0  0  0  0  0  0  0
  -26.0500  -38.3360   23.9240 H   0  0  0  0  0  0  0  0  0  0  0  0
  -26.4050  -31.7520   25.1390 C   0  0  1  0  0  0  0  0  0  0  0  0
  -25.3150  -31.5180   26.2120 C   0  0  0  0  0  1  0  0  0  0  0  0
  -26.9840  -30.3720   24.7500 C   0  0  0  0  0  1  0  0  0  0  0  0
  -27.5600  -32.5440   25.7980 C   0  0  0  0  0  1  0  0  0  0  0  0
  -29.9330  -18.5670   20.5200 C   0  0  0  0  0  3  0  0  0  0  0  0
  -29.6160  -19.7890   19.9500 C   0  0  0  0  0  3  0  0  0  0  0  0
  -29.9720  -17.1640   19.7980 C   0  0  0  0  0  2  0  0  0  0  0  0
  -30.6070  -14.7130   20.3530 C   0  0  0  0  0  0  0  0  0  0  0  0
  -30.3830  -12.4420   19.3660 C   0  0  0  0  0  2  0  0  0  0  0  0
  -29.4520  -12.5600   18.1400 C   0  0  0  0  0  2  0  0  0  0  0  0
  -27.9750  -12.4210   18.5590 C   0  0  0  0  0  2  0  0  0  0  0  0
  -27.6190  -13.2820   19.8000 C   0  0  0  0  0  3  0  0  0  0  0  0
  -28.6780  -13.1620   20.9180 C   0  0  0  0  0  2  0  0  0  0  0  0
  -29.9800  -13.4910   20.3290 N   0  0  0  0  0  0  0  0  0  0  0  0
  -31.7780  -14.8200   19.9830 O   0  0  0  0  0  0  0  0  0  0  0  0
  -29.8320  -15.8400   20.5340 N   0  0  0  0  0  0  0  0  0  0  0  0
  -28.9070  -15.6500   20.8940 H   0  0  0  0  0  0  0  0  0  0  0  0
  -25.2260  -13.8830   20.5090 C   0  0  0  0  0  0  0  0  0  0  0  0
  -24.1580  -13.1120   20.8800 C   0  0  0  0  0  0  0  0  0  0  0  0
  -24.6180  -11.7610   20.8650 C   0  0  0  0  0  0  0  0  0  0  0  0
  -26.2710  -13.0000   20.2850 N   0  0  0  0  0  0  0  0  0  0  0  0
  -25.9090  -11.7190   20.5580 N   0  0  0  0  0  0  0  0  0  0  0  0
  -23.8870  -10.5010   21.0600 C   0  0  0  0  0  0  0  0  0  0  0  0
  -24.3250   -9.5300   21.9870 C   0  0  0  0  0  3  0  0  0  0  0  0
  -23.5970   -8.3340   22.1710 C   0  0  0  0  0  3  0  0  0  0  0  0
  -22.4160   -8.1040   21.4260 C   0  0  0  0  0  0  0  0  0  0  0  0
  -21.9970   -9.0630   20.4880 C   0  0  0  0  0  3  0  0  0  0  0  0
  -22.7260  -10.2490   20.3020 C   0  0  0  0  0  3  0  0  0  0  0  0
  -21.6540   -6.9640   21.5230 O   0  0  0  0  0  0  0  0  0  0  0  0
  -21.6250   -6.2110   22.6690 C   0  0  0  0  0  0  0  0  0  0  0  0
  -21.2310   -6.7610   23.9100 C   0  0  0  0  0  3  0  0  0  0  0  0
  -21.1490   -5.9350   25.0490 C   0  0  0  0  0  3  0  0  0  0  0  0
  -21.4490   -4.5640   24.9500 C   0  0  0  0  0  0  0  0  0  0  0  0
  -21.8340   -4.0140   23.7140 C   0  0  0  0  0  3  0  0  0  0  0  0
  -21.9190   -4.8350   22.5770 C   0  0  0  0  0  0  0  0  0  0  0  0
  -22.2690   -4.2960   21.3850 F   0  0  0  0  0  0  0  0  0  0  0  0
  -21.3600   -3.7690   26.0420 F   0  0  0  0  0  0  0  0  0  0  0  0
  -22.7610  -13.5940   21.1430 C   0  0  0  0  0  0  0  0  0  0  0  0
  -22.0270  -12.9060   22.0100 N   0  0  0  0  0  0  0  0  0  0  0  0
  -22.3280  -14.6160   20.6090 O   0  0  0  0  0  0  0  0  0  0  0  0
  -22.3870  -12.0790   22.4630 H   0  0  0  0  0  0  0  0  0  0  0  0
  -21.0890  -13.2150   22.2270 H   0  0  0  0  0  0  0  0  0  0  0  0
  -25.3910  -15.2530   20.3190 N   0  0  0  0  0  0  0  0  0  0  0  0
  -24.6230  -15.9050   20.4170 H   0  0  0  0  0  0  0  0  0  0  0  0
  -26.2340  -15.6860   19.9600 H   0  0  0  0  0  0  0  0  0  0  0  0
  1 54  1  0
  2  1  1  0
  2  3  1  0
  3  5  1  0
  4  2  2  0
  6  3  1  0
  7  9  1  0
  7 10  1  0
  7  1  1  0
  8  7  1  0
 11 12  1  0
 11 10  2  0
 13 24  2  0
 14 12  1  0
 14 19  1  0
 15 23  1  0
 15 25  1  0
 16 22  1  0
 16 18  1  0
 17 23  1  0
 18 17  1  0
 19 18  2  0
 20 21  1  0
 20 14  2  0
 21 16  2  0
 22 15  1  0
 23 13  1  0
 25 27  2  0
 26 25  1  0
 28 26  1  0
 29 38  2  0
 29 34  1  0
 30 26  1  0
 30 34  1  0
 31 30  1  0
 32 33  1  0
 32 31  1  0
 33 29  1  0
 34 35  2  0
 35 36  1  0
 37 36  2  0
 38 37  1  0
 39 13  1  0
 39 40  1  0
 39 49  1  0
 40 43  1  0
 41 45  1  0
 41 40  1  0
 42 41  2  0
 45 44  1  0
 47 45  1  0
 47 48  1  0
 47 46  1  0
 49 52  1  1
 49 50  1  0
 51 49  1  0
 54 53  2  0
 55 53  1  0
 55 64  1  0
 56 64  1  0
 57 62  1  0
 58 59  1  0
 58 57  1  0
 60 59  1  0
 60 69  1  0
 60 61  1  0
 62 56  1  0
 62 61  1  0
 63 56  2  0
 64 65  1  0
 66 67  2  0
 67 86  1  0
 68 67  1  0
 68 71  1  0
 69 66  1  0
 69 70  1  0
 70 68  2  0
 71 72  1  0
 72 73  2  0
 74 77  1  0
 74 73  1  0
 75 74  2  0
 76 75  1  0
 76 71  2  0
 77 78  1  0
 78 79  1  0
 79 80  2  0
 81 80  1  0
 81 85  1  0
 82 81  2  0
 83 78  2  0
 83 82  1  0
 84 83  1  0
 86 87  1  0
 87 90  1  0
 87 89  1  0
 88 86  2  0
 91 92  1  0
 91 66  1  0
 93 91  1  0
M  ISO  4  11 101  12 101  56 100  64 100
M  END
>  <TORSDO>  (38) 
F 22

>  <SCORE>  (38) 
-13.045

>  <name>  (38) 
39

>  <ligand_id>  (38) 
39

>  <original_smiles>  (38) 
[H]C(=C([H])C([H])(C(=O)N([H])[H])[N+]([H])([H])C([H])([H])C([H])([H])Oc1c([H])c([H])c2c(c1[H])C([H])([H])N(C(=O)C([H])(N([H])C(=O)C([H])(N([H])C([H])([H])[H])C([H])([H])[H])C(C([H])([H])[H])(C([H])([H])[H])C([H])([H])[H])C([H])(C(=O)N([H])C1([H])c3c([H])c([H])c([H])c([H])c3C([H])([H])C([H])([H])C1([H])[H])C2([H])[H])C([H])([H])N([H])C(=O)N1C([H])([H])C([H])([H])C([H])([H])C([H])(n2nc(-c3c([H])c([H])c(Oc4c([H])c([H])c(F)c([H])c4F)c([H])c3[H])c(C(=O)N([H])[H])c2N([H])[H])C1([H])[H]

>  <smiles>  (38) 
[H]C(=C([H])C([H])(C(=O)N([H])[H])[N+]([H])([H])C([H])([H])C([H])([H])Oc1c([H])c([H])c2c(c1[H])C([H])([H])N(C(=O)C([H])(N([H])C(=O)C([H])(N([H])C([H])([H])[H])C([H])([H])[H])C(C([H])([H])[H])(C([H])([H])[H])C([H])([H])[H])C([H])(C(=O)N([H])C1([H])c3c([H])c([H])c([H])c([H])c3C([H])([H])C([H])([H])C1([H])[H])C2([H])[H])C([H])([H])N([H])C(=O)N1C([H])([H])C([H])([H])C([H])([H])C([H])(n2nc(-c3c([H])c([H])c(Oc4c([H])c([H])c(F)c([H])c4F)c([H])c3[H])c(C(=O)N([H])[H])c2N([H])[H])C1([H])[H]

$$$$
40:0:0
     RDKit          3D

 94101  0  0  1  0  0  0  0  0999 V2000
  -31.2010  -21.0720   22.4900 C   0  0  0  0  0  2  0  0  0  0  0  0
  -30.9260  -19.7800   23.0270 O   0  0  0  0  0  0  0  0  0  0  0  0
  -32.1250  -19.0380   23.2580 C   0  0  0  0  0  2  0  0  0  0  0  0
  -31.8040  -17.5520   23.5140 C   0  0  0  0  0  2  0  0  0  0  0  0
  -30.5640  -17.0790   22.8410 N   0  0  0  0  0  4  0  0  0  0  0  0
  -30.3260  -16.1620   23.1840 H   0  0  0  0  0  0  0  0  0  0  0  0
  -29.8090  -17.6980   23.1060 H   0  0  0  0  0  0  0  0  0  0  0  0
  -30.4990  -17.0530   21.3590 C   0  0  0  0  0  2  0  0  0  0  0  0
  -29.7760  -14.2970   19.9840 C   0  0  0  0  0  0  0  0  0  0  0  0
  -29.8140  -11.9730   19.0950 C   0  0  0  0  0  2  0  0  0  0  0  0
  -28.8390  -11.8540   17.9100 C   0  0  0  0  0  2  0  0  0  0  0  0
  -27.3790  -11.6210   18.3590 C   0  0  0  0  0  2  0  0  0  0  0  0
  -26.9500  -12.5560   19.5200 C   0  0  0  0  0  3  0  0  0  0  0  0
  -28.0350  -12.5890   20.6150 C   0  0  0  0  0  2  0  0  0  0  0  0
  -29.2980  -13.0220   19.9830 N   0  0  0  0  0  0  0  0  0  0  0  0
  -30.7940  -14.6390   19.3660 O   0  0  0  0  0  0  0  0  0  0  0  0
  -29.1340  -16.4190   21.0450 C   0  0  0  0  0  0  0  0  0  0  0  0
  -28.9750  -15.1470   20.6470 N   0  0  0  0  0  0  0  0  0  0  0  0
  -28.1270  -17.0820   21.3160 O   0  0  0  0  0  0  0  0  0  0  0  0
  -28.0650  -14.7730   20.8650 H   0  0  0  0  0  0  0  0  0  0  0  0
  -24.5380  -12.9830   20.3340 C   0  0  0  0  0  0  0  0  0  0  0  0
  -23.5710  -12.1340   20.8000 C   0  0  0  0  0  0  0  0  0  0  0  0
  -24.1500  -10.8260   20.7910 C   0  0  0  0  0  0  0  0  0  0  0  0
  -25.6470  -12.1860   20.0740 N   0  0  0  0  0  0  0  0  0  0  0  0
  -25.4160  -10.8900   20.3990 N   0  0  0  0  0  0  0  0  0  0  0  0
  -23.5520   -9.5130   21.0760 C   0  0  0  0  0  0  0  0  0  0  0  0
  -24.0790   -8.6520   22.0660 C   0  0  0  0  0  3  0  0  0  0  0  0
  -23.4670   -7.4030   22.3250 C   0  0  0  0  0  3  0  0  0  0  0  0
  -22.3210   -7.0070   21.5980 C   0  0  0  0  0  0  0  0  0  0  0  0
  -21.8250   -7.8570   20.5920 C   0  0  0  0  0  3  0  0  0  0  0  0
  -22.4350   -9.0940   20.3310 C   0  0  0  0  0  3  0  0  0  0  0  0
  -21.6800   -5.8030   21.7610 O   0  0  0  0  0  0  0  0  0  0  0  0
  -21.6710   -5.1520   22.9680 C   0  0  0  0  0  0  0  0  0  0  0  0
  -21.1450   -5.7520   24.1350 C   0  0  0  0  0  3  0  0  0  0  0  0
  -21.0920   -5.0210   25.3380 C   0  0  0  0  0  3  0  0  0  0  0  0
  -21.5570   -3.6940   25.3780 C   0  0  0  0  0  0  0  0  0  0  0  0
  -22.0770   -3.0940   24.2150 C   0  0  0  0  0  3  0  0  0  0  0  0
  -22.1340   -3.8210   23.0140 C   0  0  0  0  0  0  0  0  0  0  0  0
  -22.6200   -3.2350   21.8940 F   0  0  0  0  0  0  0  0  0  0  0  0
  -21.5050   -2.9870   26.5320 F   0  0  0  0  0  0  0  0  0  0  0  0
  -22.1550  -12.4960   21.1410 C   0  0  0  0  0  0  0  0  0  0  0  0
  -21.5450  -11.7890   22.0890 N   0  0  0  0  0  0  0  0  0  0  0  0
  -21.5850  -13.4370   20.5890 O   0  0  0  0  0  0  0  0  0  0  0  0
  -22.0040  -11.0240   22.5620 H   0  0  0  0  0  0  0  0  0  0  0  0
  -20.5920  -12.0050   22.3390 H   0  0  0  0  0  0  0  0  0  0  0  0
  -24.5700  -14.3570   20.1060 N   0  0  0  0  0  0  0  0  0  0  0  0
  -23.7540  -14.9440   20.2380 H   0  0  0  0  0  0  0  0  0  0  0  0
  -25.3690  -14.8800   19.7600 H   0  0  0  0  0  0  0  0  0  0  0  0
  -30.0370  -21.5700   21.6130 C   0  0  0  0  0  2  0  0  0  0  0  0
  -30.3290  -23.0010   21.1130 C   0  0  0  0  0  2  0  0  0  0  0  0
  -29.3090  -23.6080   20.1210 C   0  0  0  0  0  2  0  0  0  0  0  0
  -29.4390  -25.1450   20.0200 C   0  0  0  0  0  2  0  0  0  0  0  0
  -28.3490  -25.8190   19.1680 C   0  0  0  0  0  2  0  0  0  0  0  0
  -28.3830  -27.2320   19.4160 O   0  0  0  0  0  0  0  0  0  0  0  0
  -24.4860  -31.8610   23.1780 C   0  0  0  0  0  0  0  0  0  0  0  0
  -27.1670  -27.8720   19.5420 C   0  0  0  0  0  0  0  0  0  0  0  0
  -23.2590  -30.5230   21.5020 C   0  0  0  0  0  3  0  0  0  0  0  0
  -24.6980  -29.2190   19.8510 C   0  0  0  0  0  0  0  0  0  0  0  0
  -25.7450  -31.0520   21.1860 C   0  0  0  0  0  2  0  0  0  0  0  0
  -25.8620  -29.7570   20.4110 C   0  0  0  0  0  0  0  0  0  0  0  0
  -27.1000  -29.0920   20.2510 C   0  0  0  0  0  3  0  0  0  0  0  0
  -25.9810  -27.3480   18.9770 C   0  0  0  0  0  3  0  0  0  0  0  0
  -24.7500  -28.0130   19.1350 C   0  0  0  0  0  3  0  0  0  0  0  0
  -23.4100  -29.9860   20.0540 C   0  0  0  0  0  2  0  0  0  0  0  0
  -24.5180  -31.1570   22.0100 N   0  0  0  0  0  0  0  0  0  0  0  0
  -23.4280  -32.0170   23.8020 O   0  0  0  0  0  0  0  0  0  0  0  0
  -22.7440  -29.3780   22.4020 C   0  0  0  0  0  0  0  0  0  0  0  0
  -21.4490  -29.0530   22.2690 N   0  0  0  0  0  0  0  0  0  0  0  0
  -23.5060  -28.7900   23.1770 O   0  0  0  0  0  0  0  0  0  0  0  0
  -20.8920  -29.5830   21.6110 H   0  0  0  0  0  0  0  0  0  0  0  0
  -18.2530  -27.4170   22.6600 C   0  0  0  0  0  0  0  0  0  0  0  0
  -20.7520  -27.9880   22.9890 C   0  0  0  0  0  3  0  0  0  0  0  0
  -21.0480  -26.6070   22.3610 C   0  0  0  0  0  2  0  0  0  0  0  0
  -20.0100  -26.1860   21.3160 C   0  0  0  0  0  2  0  0  0  0  0  0
  -18.6120  -26.1280   21.9380 C   0  0  0  0  0  2  0  0  0  0  0  0
  -19.2590  -28.2970   23.1370 C   0  0  0  0  0  0  0  0  0  0  0  0
  -18.8720  -29.4990   23.7690 C   0  0  0  0  0  3  0  0  0  0  0  0
  -17.5120  -29.8230   23.9310 C   0  0  0  0  0  3  0  0  0  0  0  0
  -16.5210  -28.9380   23.4720 C   0  0  0  0  0  3  0  0  0  0  0  0
  -16.8920  -27.7380   22.8400 C   0  0  0  0  0  3  0  0  0  0  0  0
  -25.7700  -32.5240   23.7660 C   0  0  0  0  0  3  0  0  0  0  0  0
  -26.3350  -31.7670   25.0300 C   0  0  1  0  0  0  0  0  0  0  0  0
  -25.2630  -31.4720   26.1050 C   0  0  0  0  0  1  0  0  0  0  0  0
  -26.9790  -30.4210   24.6220 C   0  0  0  0  0  1  0  0  0  0  0  0
  -27.4520  -32.6110   25.6880 C   0  0  0  0  0  1  0  0  0  0  0  0
  -25.4280  -33.9130   24.1030 N   0  0  0  0  0  0  0  0  0  0  0  0
  -25.7080  -34.9750   23.3360 C   0  0  0  0  0  0  0  0  0  0  0  0
  -26.3550  -34.8910   22.2900 O   0  0  0  0  0  0  0  0  0  0  0  0
  -24.8500  -34.0490   24.9200 H   0  0  0  0  0  0  0  0  0  0  0  0
  -23.9230  -36.7170   23.0180 C   0  0  0  0  0  1  0  0  0  0  0  0
  -25.1890  -36.3460   23.8080 C   0  0  0  0  0  3  0  0  0  0  0  0
  -27.3080  -37.2890   24.6100 C   0  0  0  0  0  1  0  0  0  0  0  0
  -26.1880  -37.4290   23.6820 N   0  0  0  0  0  0  0  0  0  0  0  0
  -25.7570  -38.3360   23.8420 H   0  0  0  0  0  0  0  0  0  0  0  0
  1  2  1  0
  2  3  1  0
  3  4  1  0
  5  7  1  0
  5  6  1  0
  5  4  1  0
  8  5  1  0
  9 18  1  0
 10 15  1  0
 11 12  1  0
 11 10  1  0
 13 12  1  0
 13 24  1  0
 13 14  1  0
 15  9  1  0
 15 14  1  0
 16  9  2  0
 17 19  2  0
 17  8  1  0
 18 20  1  0
 18 17  1  0
 21 22  2  0
 22 41  1  0
 23 22  1  0
 23 26  1  0
 24 21  1  0
 24 25  1  0
 25 23  2  0
 26 27  1  0
 27 28  2  0
 29 32  1  0
 29 28  1  0
 30 29  2  0
 31 30  1  0
 31 26  2  0
 32 33  1  0
 33 38  2  0
 33 34  1  0
 34 35  2  0
 35 36  1  0
 36 40  1  0
 37 36  2  0
 38 37  1  0
 39 38  1  0
 41 42  1  0
 42 45  1  0
 42 44  1  0
 43 41  2  0
 46 47  1  0
 46 21  1  0
 48 46  1  0
 49  1  1  0
 50 49  1  0
 51 50  1  0
 52 51  1  0
 53 54  1  0
 53 52  1  0
 54 56  1  0
 55 66  2  0
 56 61  1  0
 57 65  1  0
 57 67  1  0
 58 64  1  0
 58 60  1  0
 59 65  1  0
 60 59  1  0
 61 60  2  0
 62 63  1  0
 62 56  2  0
 63 58  2  0
 64 57  1  0
 65 55  1  0
 67 69  2  0
 68 67  1  0
 70 68  1  0
 71 80  2  0
 71 76  1  0
 72 68  1  0
 72 76  1  0
 73 72  1  0
 74 75  1  0
 74 73  1  0
 75 71  1  0
 76 77  2  0
 77 78  1  0
 79 78  2  0
 80 79  1  0
 81 55  1  0
 81 86  1  0
 81 82  1  0
 82 85  1  1
 82 83  1  0
 84 82  1  0
 86 89  1  0
 87 91  1  0
 87 86  1  0
 88 87  2  0
 91 90  1  0
 93 91  1  0
 93 94  1  0
 93 92  1  0
M  ISO  4   9 100  18 100  53 101  54 101
M  END
>  <TORSDO>  (39) 
F 26

>  <SCORE>  (39) 
-6.626

>  <name>  (39) 
40

>  <ligand_id>  (39) 
40

>  <original_smiles>  (39) 
[H]c1c([H])c([H])c2c(c1[H])C([H])([H])C([H])([H])C([H])([H])C2([H])N([H])C(=O)C1([H])N(C(=O)C([H])(N([H])C(=O)C([H])(N([H])C([H])([H])[H])C([H])([H])[H])C(C([H])([H])[H])(C([H])([H])[H])C([H])([H])[H])C([H])([H])c2c([H])c(OC([H])([H])C([H])([H])C([H])([H])C([H])([H])C([H])([H])C([H])([H])OC([H])([H])C([H])([H])[N+]([H])([H])C([H])([H])C(=O)N([H])C(=O)N3C([H])([H])C([H])([H])C([H])([H])C([H])(n4nc(-c5c([H])c([H])c(Oc6c([H])c([H])c(F)c([H])c6F)c([H])c5[H])c(C(=O)N([H])[H])c4N([H])[H])C3([H])[H])c([H])c([H])c2C1([H])[H]

>  <smiles>  (39) 
[H]c1c([H])c([H])c2c(c1[H])C([H])([H])C([H])([H])C([H])([H])C2([H])N([H])C(=O)C1([H])N(C(=O)C([H])(N([H])C(=O)C([H])(N([H])C([H])([H])[H])C([H])([H])[H])C(C([H])([H])[H])(C([H])([H])[H])C([H])([H])[H])C([H])([H])c2c([H])c(OC([H])([H])C([H])([H])C([H])([H])C([H])([H])C([H])([H])C([H])([H])OC([H])([H])C([H])([H])[N+]([H])([H])C([H])([H])C(=O)N([H])C(=O)N3C([H])([H])C([H])([H])C([H])([H])C([H])(n4nc(-c5c([H])c([H])c(Oc6c([H])c([H])c(F)c([H])c6F)c([H])c5[H])c(C(=O)N([H])[H])c4N([H])[H])C3([H])[H])c([H])c([H])c2C1([H])[H]

$$$$
41:0:0
     RDKit          3D

102109  0  0  1  0  0  0  0  0999 V2000
  -28.3340  -20.0810   17.6320 C   0  0  0  0  0  0  0  0  0  0  0  0
  -27.5350  -20.1070   16.5590 N   0  0  0  0  0  0  0  0  0  0  0  0
  -29.3890  -19.4460   17.7060 O   0  0  0  0  0  0  0  0  0  0  0  0
  -26.7440  -20.7330   16.6270 H   0  0  0  0  0  0  0  0  0  0  0  0
  -27.8190  -20.9620   18.6530 C   0  0  0  0  0  3  0  0  0  0  0  0
  -28.6000  -21.4450   19.6400 C   0  0  0  0  0  3  0  0  0  0  0  0
  -28.0000  -22.3940   20.5560 C   0  0  0  0  0  0  0  0  0  0  0  0
  -28.8260  -23.3900   20.8880 N   0  0  0  0  0  0  0  0  0  0  0  0
  -26.8090  -22.4000   20.8760 O   0  0  0  0  0  0  0  0  0  0  0  0
  -29.8210  -23.2650   20.7460 H   0  0  0  0  0  0  0  0  0  0  0  0
  -28.3160  -24.7570   20.8340 C   0  0  0  0  0  2  0  0  0  0  0  0
  -29.3020  -25.8460   21.2890 C   0  0  0  0  0  2  0  0  0  0  0  0
  -29.1640  -27.0640   20.5400 O   0  0  0  0  0  0  0  0  0  0  0  0
  -24.8040  -31.8810   23.4440 C   0  0  0  0  0  0  0  0  0  0  0  0
  -27.9190  -27.6550   20.5280 C   0  0  0  0  0  0  0  0  0  0  0  0
  -23.7750  -30.3300   21.8180 C   0  0  0  0  0  3  0  0  0  0  0  0
  -25.3980  -28.9180   20.4590 C   0  0  0  0  0  0  0  0  0  0  0  0
  -26.2590  -30.9360   21.6490 C   0  0  0  0  0  2  0  0  0  0  0  0
  -26.4870  -29.5640   21.0550 C   0  0  0  0  0  0  0  0  0  0  0  0
  -27.7530  -28.9370   21.0940 C   0  0  0  0  0  3  0  0  0  0  0  0
  -26.8160  -27.0290   19.9030 C   0  0  0  0  0  3  0  0  0  0  0  0
  -25.5540  -27.6480   19.8800 C   0  0  0  0  0  3  0  0  0  0  0  0
  -24.0780  -29.6500   20.4590 C   0  0  0  0  0  2  0  0  0  0  0  0
  -24.9620  -31.0690   22.3590 N   0  0  0  0  0  0  0  0  0  0  0  0
  -23.6930  -32.0530   23.9630 O   0  0  0  0  0  0  0  0  0  0  0  0
  -23.2140  -29.2650   22.7880 C   0  0  0  0  0  0  0  0  0  0  0  0
  -22.0960  -28.6340   22.4010 N   0  0  0  0  0  0  0  0  0  0  0  0
  -23.8000  -29.0020   23.8430 O   0  0  0  0  0  0  0  0  0  0  0  0
  -21.6760  -28.9100   21.5250 H   0  0  0  0  0  0  0  0  0  0  0  0
  -19.4010  -26.2320   22.1970 C   0  0  0  0  0  0  0  0  0  0  0  0
  -21.4040  -27.5700   23.1320 C   0  0  0  0  0  3  0  0  0  0  0  0
  -22.1930  -26.2420   23.0610 C   0  0  0  0  0  2  0  0  0  0  0  0
  -21.7520  -25.3380   21.9060 C   0  0  0  0  0  2  0  0  0  0  0  0
  -20.2650  -24.9910   22.0370 C   0  0  0  0  0  2  0  0  0  0  0  0
  -19.9410  -27.4470   22.6970 C   0  0  0  0  0  0  0  0  0  0  0  0
  -19.1040  -28.5790   22.7940 C   0  0  0  0  0  3  0  0  0  0  0  0
  -17.7540  -28.5120   22.4010 C   0  0  0  0  0  3  0  0  0  0  0  0
  -17.2180  -27.3000   21.9280 C   0  0  0  0  0  3  0  0  0  0  0  0
  -18.0400  -26.1630   21.8280 C   0  0  0  0  0  3  0  0  0  0  0  0
  -26.0120  -32.6500   24.0650 C   0  0  0  0  0  3  0  0  0  0  0  0
  -25.5670  -34.0190   24.3480 N   0  0  0  0  0  0  0  0  0  0  0  0
  -25.7790  -35.0670   23.5410 C   0  0  0  0  0  0  0  0  0  0  0  0
  -26.4470  -34.9920   22.5070 O   0  0  0  0  0  0  0  0  0  0  0  0
  -24.9720  -34.1430   25.1550 H   0  0  0  0  0  0  0  0  0  0  0  0
  -23.8510  -36.6300   23.1590 C   0  0  0  0  0  1  0  0  0  0  0  0
  -25.1490  -36.4120   23.9500 C   0  0  0  0  0  3  0  0  0  0  0  0
  -27.1980  -37.5640   24.6660 C   0  0  0  0  0  1  0  0  0  0  0  0
  -26.0540  -37.5650   23.7560 N   0  0  0  0  0  0  0  0  0  0  0  0
  -25.5510  -38.4390   23.8810 H   0  0  0  0  0  0  0  0  0  0  0  0
  -26.5760  -31.9670   25.3730 C   0  0  1  0  0  0  0  0  0  0  0  0
  -25.4840  -31.5630   26.3920 C   0  0  0  0  0  1  0  0  0  0  0  0
  -27.3800  -30.6950   25.0190 C   0  0  0  0  0  1  0  0  0  0  0  0
  -27.5610  -32.9240   26.0860 C   0  0  0  0  0  1  0  0  0  0  0  0
  -27.8280  -19.6390   15.2030 C   0  0  0  0  0  2  0  0  0  0  0  0
  -28.5730  -18.2910   15.0970 C   0  0  0  0  0  2  0  0  0  0  0  0
  -29.6070  -18.1110   16.1120 N   0  0  0  0  0  0  0  0  0  0  0  0
  -29.5850  -17.1420   16.4150 H   0  0  0  0  0  0  0  0  0  0  0  0
  -30.9430  -18.4740   15.6320 C   0  0  0  0  0  2  0  0  0  0  0  0
  -32.0080  -17.7610   16.4840 C   0  0  0  0  0  2  0  0  0  0  0  0
  -31.7300  -17.9380   17.9270 N   0  0  0  0  0  4  0  0  0  0  0  0
  -32.3330  -18.6690   18.2630 H   0  0  0  0  0  0  0  0  0  0  0  0
  -30.7680  -18.2530   17.9900 H   0  0  0  0  0  0  0  0  0  0  0  0
  -31.9100  -16.7280   18.7650 C   0  0  0  0  0  2  0  0  0  0  0  0
  -30.5830  -16.2980   19.4650 C   0  0  0  0  0  2  0  0  0  0  0  0
  -31.3350  -14.3100   20.7000 C   0  0  0  0  0  0  0  0  0  0  0  0
  -30.8570  -12.3180   19.3510 C   0  0  0  0  0  2  0  0  0  0  0  0
  -29.9510  -12.6910   18.1640 C   0  0  0  0  0  2  0  0  0  0  0  0
  -28.4720  -12.5710   18.5780 C   0  0  0  0  0  2  0  0  0  0  0  0
  -28.1560  -13.3350   19.8960 C   0  0  0  0  0  3  0  0  0  0  0  0
  -29.2010  -13.0280   20.9970 C   0  0  0  0  0  2  0  0  0  0  0  0
  -30.5430  -13.2440   20.4390 N   0  0  0  0  0  0  0  0  0  0  0  0
  -32.5500  -14.3310   20.5110 O   0  0  0  0  0  0  0  0  0  0  0  0
  -30.6970  -15.4800   20.6920 N   0  0  0  0  0  0  0  0  0  0  0  0
  -30.9700  -16.0580   21.4760 H   0  0  0  0  0  0  0  0  0  0  0  0
  -25.7510  -13.9890   20.5140 C   0  0  0  0  0  0  0  0  0  0  0  0
  -24.6490  -13.2350   20.8320 C   0  0  0  0  0  0  0  0  0  0  0  0
  -25.0920  -11.8790   20.8270 C   0  0  0  0  0  0  0  0  0  0  0  0
  -26.7890  -13.0840   20.3380 N   0  0  0  0  0  0  0  0  0  0  0  0
  -26.3950  -11.8120   20.5900 N   0  0  0  0  0  0  0  0  0  0  0  0
  -24.3430  -10.6300   20.9870 C   0  0  0  0  0  0  0  0  0  0  0  0
  -24.6240   -9.7370   22.0430 C   0  0  0  0  0  3  0  0  0  0  0  0
  -23.8770   -8.5500   22.1890 C   0  0  0  0  0  3  0  0  0  0  0  0
  -22.8390   -8.2450   21.2770 C   0  0  0  0  0  0  0  0  0  0  0  0
  -22.5790   -9.1300   20.2150 C   0  0  0  0  0  3  0  0  0  0  0  0
  -23.3250  -10.3100   20.0670 C   0  0  0  0  0  3  0  0  0  0  0  0
  -22.0790   -7.1000   21.3240 O   0  0  0  0  0  0  0  0  0  0  0  0
  -21.5620   -6.6260   22.5040 C   0  0  0  0  0  0  0  0  0  0  0  0
  -20.7950   -7.4420   23.3610 C   0  0  0  0  0  3  0  0  0  0  0  0
  -20.2270   -6.8950   24.5300 C   0  0  0  0  0  3  0  0  0  0  0  0
  -20.4130   -5.5340   24.8350 C   0  0  0  0  0  0  0  0  0  0  0  0
  -21.1670   -4.7160   23.9750 C   0  0  0  0  0  3  0  0  0  0  0  0
  -21.7360   -5.2610   22.8120 C   0  0  0  0  0  0  0  0  0  0  0  0
  -22.4490   -4.4640   21.9780 F   0  0  0  0  0  0  0  0  0  0  0  0
  -19.8580   -5.0080   25.9530 F   0  0  0  0  0  0  0  0  0  0  0  0
  -23.2460  -13.7340   21.0320 C   0  0  0  0  0  0  0  0  0  0  0  0
  -22.4660  -13.0620   21.8750 N   0  0  0  0  0  0  0  0  0  0  0  0
  -22.8430  -14.7570   20.4800 O   0  0  0  0  0  0  0  0  0  0  0  0
  -22.7900  -12.2380   22.3600 H   0  0  0  0  0  0  0  0  0  0  0  0
  -21.5200  -13.3750   22.0260 H   0  0  0  0  0  0  0  0  0  0  0  0
  -25.9520  -15.3490   20.3330 N   0  0  0  0  0  0  0  0  0  0  0  0
  -25.2250  -16.0420   20.4940 H   0  0  0  0  0  0  0  0  0  0  0  0
  -26.8530  -15.7700   20.1440 H   0  0  0  0  0  0  0  0  0  0  0  0
  1  3  2  0
  1  5  1  0
  2  4  1  0
  2  1  1  0
  5  6  2  0
  6  7  1  0
  7  9  2  0
  7  8  1  0
 10  8  1  0
 11  8  1  0
 11 12  1  0
 13 12  1  0
 14 25  2  0
 15 13  1  0
 15 20  1  0
 16 24  1  0
 16 26  1  0
 17 23  1  0
 17 19  1  0
 18 24  1  0
 19 20  2  0
 19 18  1  0
 21 15  2  0
 22 21  1  0
 22 17  2  0
 23 16  1  0
 24 14  1  0
 26 28  2  0
 27 26  1  0
 29 27  1  0
 30 35  1  0
 31 27  1  0
 32 31  1  0
 33 34  1  0
 33 32  1  0
 34 30  1  0
 35 36  2  0
 35 31  1  0
 37 36  1  0
 38 37  2  0
 39 38  1  0
 39 30  2  0
 40 14  1  0
 40 41  1  0
 40 50  1  0
 41 44  1  0
 42 46  1  0
 42 41  1  0
 43 42  2  0
 46 45  1  0
 48 49  1  0
 48 46  1  0
 48 47  1  0
 50 53  1  1
 50 51  1  0
 52 50  1  0
 54  2  1  0
 55 54  1  0
 55 56  1  0
 56 57  1  0
 58 56  1  0
 58 59  1  0
 59 60  1  0
 60 62  1  0
 60 61  1  0
 60 63  1  0
 63 64  1  0
 64 73  1  0
 66 71  1  0
 67 68  1  0
 67 66  1  0
 69 68  1  0
 69 78  1  0
 69 70  1  0
 71 65  1  0
 71 70  1  0
 72 65  2  0
 73 65  1  0
 73 74  1  0
 75 76  2  0
 76 95  1  0
 77 76  1  0
 77 80  1  0
 78 75  1  0
 78 79  1  0
 79 77  2  0
 80 81  1  0
 81 82  2  0
 83 86  1  0
 83 82  1  0
 84 83  2  0
 85 84  1  0
 85 80  2  0
 86 87  1  0
 87 92  2  0
 87 88  1  0
 88 89  2  0
 89 90  1  0
 90 94  1  0
 91 90  2  0
 92 91  1  0
 93 92  1  0
 95 96  1  0
 96 99  1  0
 96 98  1  0
 97 95  2  0
100101  1  0
100 75  1  0
102100  1  0
M  ISO  4  12 101  13 101  65 100  73 100
M  END
>  <TORSDO>  (40) 
F 28

>  <SCORE>  (40) 
-8.400

>  <name>  (40) 
41

>  <ligand_id>  (40) 
41

>  <original_smiles>  (40) 
[H]C(C(=O)N([H])C([H])([H])C([H])([H])Oc1c([H])c([H])c2c(c1[H])C([H])([H])N(C(=O)C([H])(N([H])C(=O)C([H])(N([H])C([H])([H])[H])C([H])([H])[H])C(C([H])([H])[H])(C([H])([H])[H])C([H])([H])[H])C([H])(C(=O)N([H])C1([H])c3c([H])c([H])c([H])c([H])c3C([H])([H])C([H])([H])C1([H])[H])C2([H])[H])=C([H])C(=O)N([H])C([H])([H])C([H])([H])N([H])C([H])([H])C([H])([H])[N+]([H])([H])C([H])([H])C([H])([H])N([H])C(=O)N1C([H])([H])C([H])([H])C([H])([H])C([H])(n2nc(-c3c([H])c([H])c(Oc4c([H])c([H])c(F)c([H])c4F)c([H])c3[H])c(C(=O)N([H])[H])c2N([H])[H])C1([H])[H]

>  <smiles>  (40) 
[H]C(C(=O)N([H])C([H])([H])C([H])([H])Oc1c([H])c([H])c2c(c1[H])C([H])([H])N(C(=O)C([H])(N([H])C(=O)C([H])(N([H])C([H])([H])[H])C([H])([H])[H])C(C([H])([H])[H])(C([H])([H])[H])C([H])([H])[H])C([H])(C(=O)N([H])C1([H])c3c([H])c([H])c([H])c([H])c3C([H])([H])C([H])([H])C1([H])[H])C2([H])[H])=C([H])C(=O)N([H])C([H])([H])C([H])([H])N([H])C([H])([H])C([H])([H])[N+]([H])([H])C([H])([H])C([H])([H])N([H])C(=O)N1C([H])([H])C([H])([H])C([H])([H])C([H])(n2nc(-c3c([H])c([H])c(Oc4c([H])c([H])c(F)c([H])c4F)c([H])c3[H])c(C(=O)N([H])[H])c2N([H])[H])C1([H])[H]

$$$$
42:0:0
     RDKit          3D

 98105  0  0  1  0  0  0  0  0999 V2000
  -28.7980  -20.9150   26.0700 C   0  0  0  0  0  2  0  0  0  0  0  0
  -29.3240  -21.2660   24.7410 N   0  0  0  0  0  0  0  0  0  0  0  0
  -28.5910  -21.1120   24.0480 H   0  0  0  0  0  0  0  0  0  0  0  0
  -29.7950  -22.6390   24.6420 C   0  0  0  0  0  2  0  0  0  0  0  0
  -30.1540  -22.9940   23.1890 C   0  0  0  0  0  2  0  0  0  0  0  0
  -30.5560  -24.3940   23.0930 N   0  0  0  0  0  0  0  0  0  0  0  0
  -29.8600  -24.9760   23.5620 H   0  0  0  0  0  0  0  0  0  0  0  0
  -30.6980  -24.8640   21.7150 C   0  0  0  0  0  2  0  0  0  0  0  0
  -30.9960  -26.3700   21.6610 C   0  0  0  0  0  2  0  0  0  0  0  0
  -30.6690  -26.8480   20.3570 O   0  0  0  0  0  0  0  0  0  0  0  0
  -25.4970  -30.7300   23.2590 C   0  0  0  0  0  0  0  0  0  0  0  0
  -29.3790  -27.2990   20.2590 C   0  0  0  0  0  0  0  0  0  0  0  0
  -24.8080  -29.2140   21.4250 C   0  0  0  0  0  3  0  0  0  0  0  0
  -26.7090  -28.1700   20.0800 C   0  0  0  0  0  0  0  0  0  0  0  0
  -27.1730  -30.1750   21.5070 C   0  0  0  0  0  2  0  0  0  0  0  0
  -27.6400  -28.9130   20.8160 C   0  0  0  0  0  0  0  0  0  0  0  0
  -28.9770  -28.4820   20.9110 C   0  0  0  0  0  3  0  0  0  0  0  0
  -28.4440  -26.5620   19.5060 C   0  0  0  0  0  3  0  0  0  0  0  0
  -27.1040  -26.9900   19.4200 C   0  0  0  0  0  3  0  0  0  0  0  0
  -25.2940  -28.7010   20.0410 C   0  0  0  0  0  2  0  0  0  0  0  0
  -25.8350  -30.0510   22.1260 N   0  0  0  0  0  0  0  0  0  0  0  0
  -24.3370  -30.7060   23.6960 O   0  0  0  0  0  0  0  0  0  0  0  0
  -24.3360  -28.0010   22.2590 C   0  0  0  0  0  0  0  0  0  0  0  0
  -23.1310  -27.5030   21.9510 N   0  0  0  0  0  0  0  0  0  0  0  0
  -25.0590  -27.5150   23.1330 O   0  0  0  0  0  0  0  0  0  0  0  0
  -22.6020  -27.9630   21.2230 H   0  0  0  0  0  0  0  0  0  0  0  0
  -20.1400  -25.4800   21.9430 C   0  0  0  0  0  0  0  0  0  0  0  0
  -22.4940  -26.3420   22.5710 C   0  0  0  0  0  3  0  0  0  0  0  0
  -23.0270  -25.0240   21.9620 C   0  0  0  0  0  2  0  0  0  0  0  0
  -22.1760  -24.5100   20.7970 C   0  0  0  0  0  2  0  0  0  0  0  0
  -20.7350  -24.2640   21.2520 C   0  0  0  0  0  2  0  0  0  0  0  0
  -20.9670  -26.4630   22.5470 C   0  0  0  0  0  0  0  0  0  0  0  0
  -20.3650  -27.5940   23.1430 C   0  0  0  0  0  3  0  0  0  0  0  0
  -18.9650  -27.7470   23.1460 C   0  0  0  0  0  3  0  0  0  0  0  0
  -18.1510  -26.7610   22.5630 C   0  0  0  0  0  3  0  0  0  0  0  0
  -18.7370  -25.6300   21.9680 C   0  0  0  0  0  3  0  0  0  0  0  0
  -26.5410  -31.5870   24.0430 C   0  0  0  0  0  3  0  0  0  0  0  0
  -27.0050  -30.9190   25.3940 C   0  0  1  0  0  0  0  0  0  0  0  0
  -25.8310  -30.4690   26.2970 C   0  0  0  0  0  1  0  0  0  0  0  0
  -27.8910  -29.6830   25.1110 C   0  0  0  0  0  1  0  0  0  0  0  0
  -27.8780  -31.9110   26.2000 C   0  0  0  0  0  1  0  0  0  0  0  0
  -25.9370  -32.9010   24.2940 N   0  0  0  0  0  0  0  0  0  0  0  0
  -26.1870  -34.0020   23.5710 C   0  0  0  0  0  0  0  0  0  0  0  0
  -27.0190  -34.0310   22.6600 O   0  0  0  0  0  0  0  0  0  0  0  0
  -25.2080  -32.9400   24.9920 H   0  0  0  0  0  0  0  0  0  0  0  0
  -24.2440  -35.4440   22.9020 C   0  0  0  0  0  1  0  0  0  0  0  0
  -25.3880  -35.2720   23.9150 C   0  0  0  0  0  3  0  0  0  0  0  0
  -27.1540  -36.5230   25.0710 C   0  0  0  0  0  1  0  0  0  0  0  0
  -26.2170  -36.4970   23.9500 N   0  0  0  0  0  0  0  0  0  0  0  0
  -25.6320  -37.3260   24.0090 H   0  0  0  0  0  0  0  0  0  0  0  0
  -28.6770  -19.3900   26.1630 C   0  0  0  0  0  2  0  0  0  0  0  0
  -29.2860  -18.8490   24.9530 N   0  0  0  0  0  0  0  0  0  0  0  0
  -29.0860  -19.6030   24.2810 H   0  0  0  0  0  0  0  0  0  0  0  0
  -30.7390  -18.6190   25.0170 C   0  0  0  0  0  2  0  0  0  0  0  0
  -31.2880  -18.4400   23.5950 C   0  0  0  0  0  2  0  0  0  0  0  0
  -30.3540  -17.5930   22.8260 N   0  0  0  0  0  4  0  0  0  0  0  0
  -30.2560  -16.6950   23.2650 H   0  0  0  0  0  0  0  0  0  0  0  0
  -29.4660  -18.0630   22.9510 H   0  0  0  0  0  0  0  0  0  0  0  0
  -30.6680  -17.4490   21.3900 C   0  0  0  0  0  2  0  0  0  0  0  0
  -31.4380  -16.1460   21.1120 C   0  0  0  0  0  2  0  0  0  0  0  0
  -30.6000  -14.3950   19.5450 C   0  0  0  0  0  0  0  0  0  0  0  0
  -30.2400  -12.1270   18.6470 C   0  0  0  0  0  2  0  0  0  0  0  0
  -29.1490  -12.0360   17.5680 C   0  0  0  0  0  2  0  0  0  0  0  0
  -27.7680  -11.8430   18.2160 C   0  0  0  0  0  2  0  0  0  0  0  0
  -27.4880  -12.9000   19.3110 C   0  0  0  0  0  3  0  0  0  0  0  0
  -28.6640  -12.9900   20.3090 C   0  0  0  0  0  2  0  0  0  0  0  0
  -29.9140  -13.2280   19.5640 N   0  0  0  0  0  0  0  0  0  0  0  0
  -31.3670  -14.7270   18.6350 O   0  0  0  0  0  0  0  0  0  0  0  0
  -30.5540  -15.0520   20.7120 N   0  0  0  0  0  0  0  0  0  0  0  0
  -29.9690  -14.6330   21.4210 H   0  0  0  0  0  0  0  0  0  0  0  0
  -25.2810  -13.5270   20.4840 C   0  0  0  0  0  0  0  0  0  0  0  0
  -24.2540  -12.7600   20.9710 C   0  0  0  0  0  0  0  0  0  0  0  0
  -24.6360  -11.4020   20.7430 C   0  0  0  0  0  0  0  0  0  0  0  0
  -26.2240  -12.6350   19.9960 N   0  0  0  0  0  0  0  0  0  0  0  0
  -25.8480  -11.3470   20.2080 N   0  0  0  0  0  0  0  0  0  0  0  0
  -23.8930  -10.1540   20.9540 C   0  0  0  0  0  0  0  0  0  0  0  0
  -24.3590   -9.1590   21.8430 C   0  0  0  0  0  3  0  0  0  0  0  0
  -23.6180   -7.9730   22.0390 C   0  0  0  0  0  3  0  0  0  0  0  0
  -22.4000   -7.7740   21.3480 C   0  0  0  0  0  0  0  0  0  0  0  0
  -21.9530   -8.7580   20.4480 C   0  0  0  0  0  3  0  0  0  0  0  0
  -22.6930   -9.9350   20.2490 C   0  0  0  0  0  3  0  0  0  0  0  0
  -21.6260   -6.6430   21.4570 O   0  0  0  0  0  0  0  0  0  0  0  0
  -21.5180   -5.9570   22.6400 C   0  0  0  0  0  0  0  0  0  0  0  0
  -21.0400   -6.5720   23.8170 C   0  0  0  0  0  3  0  0  0  0  0  0
  -20.8770   -5.8110   24.9920 C   0  0  0  0  0  3  0  0  0  0  0  0
  -21.1850   -4.4380   24.9910 C   0  0  0  0  0  0  0  0  0  0  0  0
  -21.6550   -3.8220   23.8180 C   0  0  0  0  0  3  0  0  0  0  0  0
  -21.8200   -4.5800   22.6450 C   0  0  0  0  0  0  0  0  0  0  0  0
  -22.2530   -3.9780   21.5120 F   0  0  0  0  0  0  0  0  0  0  0  0
  -21.0210   -3.7060   26.1180 F   0  0  0  0  0  0  0  0  0  0  0  0
  -22.9520  -13.2580   21.5280 C   0  0  0  0  0  0  0  0  0  0  0  0
  -22.3640  -12.5190   22.4640 N   0  0  0  0  0  0  0  0  0  0  0  0
  -22.4740  -14.3330   21.1710 O   0  0  0  0  0  0  0  0  0  0  0  0
  -22.7640  -11.6440   22.7670 H   0  0  0  0  0  0  0  0  0  0  0  0
  -21.5010  -12.8350   22.8820 H   0  0  0  0  0  0  0  0  0  0  0  0
  -25.4800  -14.9000   20.3990 N   0  0  0  0  0  0  0  0  0  0  0  0
  -24.7790  -15.5700   20.6960 H   0  0  0  0  0  0  0  0  0  0  0  0
  -26.2930  -15.3390   19.9840 H   0  0  0  0  0  0  0  0  0  0  0  0
  1 51  1  0
  2  1  1  0
  3  2  1  0
  4  2  1  0
  5  4  1  0
  6  5  1  0
  6  7  1  0
  8  6  1  0
  9  8  1  0
 10  9  1  0
 11 22  2  0
 12 10  1  0
 12 17  1  0
 13 21  1  0
 13 23  1  0
 14 16  1  0
 15 21  1  0
 16 17  2  0
 16 15  1  0
 18 12  2  0
 19 18  1  0
 19 14  2  0
 20 14  1  0
 20 13  1  0
 21 11  1  0
 23 25  2  0
 24 23  1  0
 26 24  1  0
 27 36  2  0
 27 32  1  0
 28 24  1  0
 29 28  1  0
 30 31  1  0
 30 29  1  0
 31 27  1  0
 32 28  1  0
 32 33  2  0
 33 34  1  0
 35 34  2  0
 36 35  1  0
 37 11  1  0
 37 42  1  0
 37 38  1  0
 38 41  1  1
 38 39  1  0
 40 38  1  0
 42 45  1  0
 43 47  1  0
 43 42  1  0
 44 43  2  0
 47 46  1  0
 47 49  1  0
 49 50  1  0
 49 48  1  0
 52 54  1  0
 52 51  1  0
 53 52  1  0
 55 54  1  0
 56 58  1  0
 56 57  1  0
 56 55  1  0
 59 56  1  0
 60 59  1  0
 61 67  1  0
 61 69  1  0
 62 67  1  0
 63 64  1  0
 63 62  1  0
 65 64  1  0
 65 74  1  0
 65 66  1  0
 67 66  1  0
 68 61  2  0
 69 60  1  0
 69 70  1  0
 71 72  2  0
 72 91  1  0
 73 76  1  0
 73 72  1  0
 74 75  1  0
 74 71  1  0
 75 73  2  0
 76 77  1  0
 77 78  2  0
 79 82  1  0
 79 78  1  0
 80 79  2  0
 81 80  1  0
 81 76  2  0
 82 83  1  0
 83 88  2  0
 83 84  1  0
 84 85  2  0
 86 85  1  0
 86 90  1  0
 87 86  2  0
 88 87  1  0
 89 88  1  0
 91 92  1  0
 92 94  1  0
 92 95  1  0
 93 91  2  0
 96 71  1  0
 96 97  1  0
 98 96  1  0
M  ISO  4   9 101  10 101  61 100  69 100
M  END
>  <TORSDO>  (41) 
F 29

>  <SCORE>  (41) 
0.437

>  <name>  (41) 
42

>  <ligand_id>  (41) 
42

>  <original_smiles>  (41) 
[H]c1c([H])c([H])c2c(c1[H])C([H])([H])C([H])([H])C([H])([H])C2([H])N([H])C(=O)C1([H])N(C(=O)C([H])(N([H])C(=O)C([H])(N([H])C([H])([H])[H])C([H])([H])[H])C(C([H])([H])[H])(C([H])([H])[H])C([H])([H])[H])C([H])([H])c2c([H])c(OC([H])([H])C([H])([H])N([H])C([H])([H])C([H])([H])N([H])C([H])([H])C([H])([H])N([H])C([H])([H])C([H])([H])[N+]([H])([H])C([H])([H])C([H])([H])N([H])C(=O)N3C([H])([H])C([H])([H])C([H])([H])C([H])(n4nc(-c5c([H])c([H])c(Oc6c([H])c([H])c(F)c([H])c6F)c([H])c5[H])c(C(=O)N([H])[H])c4N([H])[H])C3([H])[H])c([H])c([H])c2C1([H])[H]

>  <smiles>  (41) 
[H]c1c([H])c([H])c2c(c1[H])C([H])([H])C([H])([H])C([H])([H])C2([H])N([H])C(=O)C1([H])N(C(=O)C([H])(N([H])C(=O)C([H])(N([H])C([H])([H])[H])C([H])([H])[H])C(C([H])([H])[H])(C([H])([H])[H])C([H])([H])[H])C([H])([H])c2c([H])c(OC([H])([H])C([H])([H])N([H])C([H])([H])C([H])([H])N([H])C([H])([H])C([H])([H])N([H])C([H])([H])C([H])([H])[N+]([H])([H])C([H])([H])C([H])([H])N([H])C(=O)N3C([H])([H])C([H])([H])C([H])([H])C([H])(n4nc(-c5c([H])c([H])c(Oc6c([H])c([H])c(F)c([H])c6F)c([H])c5[H])c(C(=O)N([H])[H])c4N([H])[H])C3([H])[H])c([H])c([H])c2C1([H])[H]

$$$$
44:0:0
     RDKit          3D

 99106  0  0  1  0  0  0  0  0999 V2000
  -32.3860  -18.4310   17.4780 C   0  0  0  0  0  2  0  0  0  0  0  0
  -33.2450  -17.4390   18.1500 N   0  0  0  0  0  0  0  0  0  0  0  0
  -32.6500  -16.7760   18.6590 H   0  0  0  0  0  0  0  0  0  0  0  0
  -34.1530  -16.6970   17.2470 C   0  0  0  0  0  2  0  0  0  0  0  0
  -35.0350  -15.6570   17.9820 C   0  0  0  0  0  2  0  0  0  0  0  0
  -34.5130  -14.2750   17.9050 N   0  0  0  0  0  4  0  0  0  0  0  0
  -33.5230  -14.3090   18.1060 H   0  0  0  0  0  0  0  0  0  0  0  0
  -34.6310  -13.9210   16.9690 H   0  0  0  0  0  0  0  0  0  0  0  0
  -35.1240  -13.3150   18.8550 C   0  0  0  0  0  2  0  0  0  0  0  0
  -33.6580  -13.8110   20.8180 C   0  0  0  0  0  3  0  0  0  0  0  0
  -34.0330  -12.9740   19.8370 C   0  0  0  0  0  3  0  0  0  0  0  0
  -32.4150  -13.6780   21.6850 C   0  0  0  0  0  2  0  0  0  0  0  0
  -30.7270  -13.5300   19.7820 C   0  0  0  0  0  0  0  0  0  0  0  0
  -29.6890  -12.1650   18.0370 C   0  0  0  0  0  2  0  0  0  0  0  0
  -28.5440  -12.8000   17.2420 C   0  0  0  0  0  2  0  0  0  0  0  0
  -27.2090  -12.5620   17.9580 C   0  0  0  0  0  2  0  0  0  0  0  0
  -27.2560  -13.0360   19.4300 C   0  0  0  0  0  3  0  0  0  0  0  0
  -28.4920  -12.4670   20.1790 C   0  0  0  0  0  2  0  0  0  0  0  0
  -29.7160  -12.7230   19.3940 N   0  0  0  0  0  0  0  0  0  0  0  0
  -31.3650  -14.2590   19.0090 O   0  0  0  0  0  0  0  0  0  0  0  0
  -31.2070  -13.1910   20.9920 N   0  0  0  0  0  0  0  0  0  0  0  0
  -30.6720  -12.4830   21.4770 H   0  0  0  0  0  0  0  0  0  0  0  0
  -24.9920  -13.5810   20.5450 C   0  0  0  0  0  0  0  0  0  0  0  0
  -23.9970  -12.7780   21.0390 C   0  0  0  0  0  0  0  0  0  0  0  0
  -24.4480  -11.4370   20.8580 C   0  0  0  0  0  0  0  0  0  0  0  0
  -25.9940  -12.7250   20.1080 N   0  0  0  0  0  0  0  0  0  0  0  0
  -25.6740  -11.4280   20.3490 N   0  0  0  0  0  0  0  0  0  0  0  0
  -23.7610  -10.1590   21.0950 C   0  0  0  0  0  0  0  0  0  0  0  0
  -24.2780   -9.2110   22.0030 C   0  0  0  0  0  3  0  0  0  0  0  0
  -23.6020   -7.9920   22.2310 C   0  0  0  0  0  3  0  0  0  0  0  0
  -22.3930   -7.7150   21.5510 C   0  0  0  0  0  0  0  0  0  0  0  0
  -21.8940   -8.6520   20.6290 C   0  0  0  0  0  3  0  0  0  0  0  0
  -22.5710   -9.8630   20.4020 C   0  0  0  0  0  3  0  0  0  0  0  0
  -21.6820   -6.5470   21.6830 O   0  0  0  0  0  0  0  0  0  0  0  0
  -21.6730   -5.8400   22.8580 C   0  0  0  0  0  0  0  0  0  0  0  0
  -21.2010   -6.4020   24.0650 C   0  0  0  0  0  3  0  0  0  0  0  0
  -21.1450   -5.6190   25.2350 C   0  0  0  0  0  3  0  0  0  0  0  0
  -21.5510   -4.2720   25.1990 C   0  0  0  0  0  0  0  0  0  0  0  0
  -22.0100   -3.7040   23.9970 C   0  0  0  0  0  3  0  0  0  0  0  0
  -22.0670   -4.4870   22.8310 C   0  0  0  0  0  0  0  0  0  0  0  0
  -22.4940   -3.9290   21.6710 F   0  0  0  0  0  0  0  0  0  0  0  0
  -21.4870   -3.5190   26.3210 F   0  0  0  0  0  0  0  0  0  0  0  0
  -22.6600  -13.2230   21.5630 C   0  0  0  0  0  0  0  0  0  0  0  0
  -22.0930  -12.4780   22.5080 N   0  0  0  0  0  0  0  0  0  0  0  0
  -22.1320  -14.2600   21.1710 O   0  0  0  0  0  0  0  0  0  0  0  0
  -22.5380  -11.6380   22.8420 H   0  0  0  0  0  0  0  0  0  0  0  0
  -21.2040  -12.7530   22.9060 H   0  0  0  0  0  0  0  0  0  0  0  0
  -25.1320  -14.9610   20.4180 N   0  0  0  0  0  0  0  0  0  0  0  0
  -24.4030  -15.6150   20.6860 H   0  0  0  0  0  0  0  0  0  0  0  0
  -25.9330  -15.4140   19.9870 H   0  0  0  0  0  0  0  0  0  0  0  0
  -31.8500  -19.4810   18.4850 C   0  0  0  0  0  2  0  0  0  0  0  0
  -31.0600  -20.5530   17.8540 N   0  0  0  0  0  0  0  0  0  0  0  0
  -30.1940  -20.1560   17.4780 H   0  0  0  0  0  0  0  0  0  0  0  0
  -30.7280  -21.6450   18.7920 C   0  0  0  0  0  2  0  0  0  0  0  0
  -29.9460  -22.8240   18.1600 C   0  0  0  0  0  2  0  0  0  0  0  0
  -29.7880  -23.8550   19.1450 O   0  0  0  0  0  0  0  0  0  0  0  0
  -28.9090  -24.9220   18.7630 C   0  0  0  0  0  2  0  0  0  0  0  0
  -29.2180  -26.2490   19.5130 C   0  0  0  0  0  2  0  0  0  0  0  0
  -28.5390  -26.4780   20.7640 O   0  0  0  0  0  0  0  0  0  0  0  0
  -24.5700  -31.9010   23.2810 C   0  0  0  0  0  0  0  0  0  0  0  0
  -27.3660  -27.2040   20.6990 C   0  0  0  0  0  0  0  0  0  0  0  0
  -23.4430  -30.3460   21.7230 C   0  0  0  0  0  3  0  0  0  0  0  0
  -24.9600  -28.6850   20.5180 C   0  0  0  0  0  0  0  0  0  0  0  0
  -25.9780  -30.6870   21.6180 C   0  0  0  0  0  2  0  0  0  0  0  0
  -26.0910  -29.2620   21.1100 C   0  0  0  0  0  0  0  0  0  0  0  0
  -27.2930  -28.5210   21.2120 C   0  0  0  0  0  3  0  0  0  0  0  0
  -26.2110  -26.6320   20.1280 C   0  0  0  0  0  3  0  0  0  0  0  0
  -25.0120  -27.3650   20.0360 C   0  0  0  0  0  3  0  0  0  0  0  0
  -23.7190  -29.5430   20.4240 C   0  0  0  0  0  2  0  0  0  0  0  0
  -24.6790  -30.9980   22.2640 N   0  0  0  0  0  0  0  0  0  0  0  0
  -23.4630  -32.2180   23.7400 O   0  0  0  0  0  0  0  0  0  0  0  0
  -22.7450  -29.4160   22.7420 C   0  0  0  0  0  0  0  0  0  0  0  0
  -21.4350  -29.1940   22.5510 N   0  0  0  0  0  0  0  0  0  0  0  0
  -23.3840  -28.8950   23.6600 O   0  0  0  0  0  0  0  0  0  0  0  0
  -20.9800  -29.6700   21.7840 H   0  0  0  0  0  0  0  0  0  0  0  0
  -18.0560  -27.9700   22.9440 C   0  0  0  0  0  0  0  0  0  0  0  0
  -20.5830  -28.3230   23.3620 C   0  0  0  0  0  3  0  0  0  0  0  0
  -20.7510  -26.8410   22.9580 C   0  0  0  0  0  2  0  0  0  0  0  0
  -19.7320  -26.3810   21.9100 C   0  0  0  0  0  2  0  0  0  0  0  0
  -18.3050  -26.5610   22.4370 C   0  0  0  0  0  2  0  0  0  0  0  0
  -19.1260  -28.8030   23.3640 C   0  0  0  0  0  0  0  0  0  0  0  0
  -18.8440  -30.1180   23.7930 C   0  0  0  0  0  3  0  0  0  0  0  0
  -17.5220  -30.6030   23.8090 C   0  0  0  0  0  3  0  0  0  0  0  0
  -16.4640  -29.7680   23.4070 C   0  0  0  0  0  3  0  0  0  0  0  0
  -16.7310  -28.4540   22.9810 C   0  0  0  0  0  3  0  0  0  0  0  0
  -25.8260  -32.5920   23.8960 C   0  0  0  0  0  3  0  0  0  0  0  0
  -25.4650  -33.9860   24.1880 N   0  0  0  0  0  0  0  0  0  0  0  0
  -25.7630  -35.0290   23.4030 C   0  0  0  0  0  0  0  0  0  0  0  0
  -26.4440  -34.9230   22.3800 O   0  0  0  0  0  0  0  0  0  0  0  0
  -24.8590  -34.1390   24.9810 H   0  0  0  0  0  0  0  0  0  0  0  0
  -23.9770  -36.7490   22.9860 C   0  0  0  0  0  1  0  0  0  0  0  0
  -25.2220  -36.4090   23.8200 C   0  0  0  0  0  3  0  0  0  0  0  0
  -27.3170  -37.3880   24.6510 C   0  0  0  0  0  1  0  0  0  0  0  0
  -26.2190  -37.4950   23.6920 N   0  0  0  0  0  0  0  0  0  0  0  0
  -25.7790  -38.4040   23.8140 H   0  0  0  0  0  0  0  0  0  0  0  0
  -26.3590  -31.8700   25.1960 C   0  0  1  0  0  0  0  0  0  0  0  0
  -25.2580  -31.5770   26.2400 C   0  0  0  0  0  1  0  0  0  0  0  0
  -27.0380  -30.5270   24.8350 C   0  0  0  0  0  1  0  0  0  0  0  0
  -27.4380  -32.7460   25.8780 C   0  0  0  0  0  1  0  0  0  0  0  0
  1  2  1  0
  1 51  1  0
  2  3  1  0
  4  5  1  0
  4  2  1  0
  6  5  1  0
  6  7  1  0
  6  9  1  0
  8  6  1  0
  9 11  1  0
 10 12  1  0
 11 10  2  0
 13 21  1  0
 14 19  1  0
 15 16  1  0
 15 14  1  0
 17 16  1  0
 17 26  1  0
 17 18  1  0
 19 13  1  0
 19 18  1  0
 20 13  2  0
 21 22  1  0
 21 12  1  0
 23 24  2  0
 24 43  1  0
 25 24  1  0
 25 28  1  0
 26 27  1  0
 26 23  1  0
 27 25  2  0
 28 29  1  0
 29 30  2  0
 31 34  1  0
 31 30  1  0
 32 31  2  0
 33 32  1  0
 33 28  2  0
 34 35  1  0
 35 36  1  0
 36 37  2  0
 38 37  1  0
 38 42  1  0
 39 38  2  0
 40 35  2  0
 40 39  1  0
 41 40  1  0
 43 44  1  0
 44 46  1  0
 44 47  1  0
 45 43  2  0
 48 23  1  0
 48 49  1  0
 50 48  1  0
 52 51  1  0
 52 54  1  0
 53 52  1  0
 55 54  1  0
 55 56  1  0
 57 56  1  0
 57 58  1  0
 58 59  1  0
 60 71  2  0
 61 59  1  0
 61 66  1  0
 62 70  1  0
 62 72  1  0
 63 65  1  0
 64 70  1  0
 65 66  2  0
 65 64  1  0
 67 61  2  0
 68 67  1  0
 68 63  2  0
 69 63  1  0
 69 62  1  0
 70 60  1  0
 72 74  2  0
 73 72  1  0
 75 73  1  0
 76 85  2  0
 76 81  1  0
 77 73  1  0
 77 81  1  0
 78 77  1  0
 79 80  1  0
 79 78  1  0
 80 76  1  0
 81 82  2  0
 82 83  1  0
 84 83  2  0
 85 84  1  0
 86 60  1  0
 86 87  1  0
 86 96  1  0
 87 90  1  0
 88 92  1  0
 88 87  1  0
 89 88  2  0
 92 91  1  0
 94 95  1  0
 94 92  1  0
 94 93  1  0
 96 99  1  1
 96 97  1  0
 98 96  1  0
M  ISO  4  13 100  21 100  58 101  59 101
M  END
>  <TORSDO>  (42) 
F 30

>  <SCORE>  (42) 
-8.888

>  <name>  (42) 
44

>  <ligand_id>  (42) 
44

>  <original_smiles>  (42) 
[H]C(=C([H])C([H])([H])[N+]([H])([H])C([H])([H])C([H])([H])N([H])C([H])([H])C([H])([H])N([H])C([H])([H])C([H])([H])OC([H])([H])C([H])([H])Oc1c([H])c([H])c2c(c1[H])C([H])([H])N(C(=O)C([H])(N([H])C(=O)C([H])(N([H])C([H])([H])[H])C([H])([H])[H])C(C([H])([H])[H])(C([H])([H])[H])C([H])([H])[H])C([H])(C(=O)N([H])C1([H])c3c([H])c([H])c([H])c([H])c3C([H])([H])C([H])([H])C1([H])[H])C2([H])[H])C([H])([H])N([H])C(=O)N1C([H])([H])C([H])([H])C([H])([H])C([H])(n2nc(-c3c([H])c([H])c(Oc4c([H])c([H])c(F)c([H])c4F)c([H])c3[H])c(C(=O)N([H])[H])c2N([H])[H])C1([H])[H]

>  <smiles>  (42) 
[H]C(=C([H])C([H])([H])[N+]([H])([H])C([H])([H])C([H])([H])N([H])C([H])([H])C([H])([H])N([H])C([H])([H])C([H])([H])OC([H])([H])C([H])([H])Oc1c([H])c([H])c2c(c1[H])C([H])([H])N(C(=O)C([H])(N([H])C(=O)C([H])(N([H])C([H])([H])[H])C([H])([H])[H])C(C([H])([H])[H])(C([H])([H])[H])C([H])([H])[H])C([H])(C(=O)N([H])C1([H])c3c([H])c([H])c([H])c([H])c3C([H])([H])C([H])([H])C1([H])[H])C2([H])[H])C([H])([H])N([H])C(=O)N1C([H])([H])C([H])([H])C([H])([H])C([H])(n2nc(-c3c([H])c([H])c(Oc4c([H])c([H])c(F)c([H])c4F)c([H])c3[H])c(C(=O)N([H])[H])c2N([H])[H])C1([H])[H]

$$$$
45:0:0
     RDKit          3D

105112  0  0  1  0  0  0  0  0999 V2000
  -27.1830  -21.5580   20.4650 C   0  0  0  0  0  0  0  0  0  0  0  0
  -27.3010  -20.2780   20.0890 N   0  0  0  0  0  0  0  0  0  0  0  0
  -26.2060  -22.2470   20.1660 O   0  0  0  0  0  0  0  0  0  0  0  0
  -28.1310  -19.7870   20.3950 H   0  0  0  0  0  0  0  0  0  0  0  0
  -28.3030  -22.0030   21.2710 C   0  0  0  0  0  3  0  0  0  0  0  0
  -28.6610  -23.3040   21.2720 C   0  0  0  0  0  3  0  0  0  0  0  0
  -29.7590  -23.7680   22.0990 C   0  0  0  0  0  0  0  0  0  0  0  0
  -29.8440  -25.1010   22.1210 N   0  0  0  0  0  0  0  0  0  0  0  0
  -30.5270  -23.0460   22.7370 O   0  0  0  0  0  0  0  0  0  0  0  0
  -29.1790  -25.6300   21.5730 H   0  0  0  0  0  0  0  0  0  0  0  0
  -30.8080  -25.8640   22.9130 C   0  0  0  0  0  2  0  0  0  0  0  0
  -30.7650  -27.3530   22.5450 C   0  0  0  0  0  2  0  0  0  0  0  0
  -30.2640  -27.4670   21.2130 O   0  0  0  0  0  0  0  0  0  0  0  0
  -25.5060  -32.0470   23.8680 C   0  0  0  0  0  0  0  0  0  0  0  0
  -29.0500  -28.0910   21.0900 C   0  0  0  0  0  0  0  0  0  0  0  0
  -24.7070  -30.5900   22.0330 C   0  0  0  0  0  3  0  0  0  0  0  0
  -26.5170  -29.2910   20.7870 C   0  0  0  0  0  0  0  0  0  0  0  0
  -27.1710  -31.2480   22.2020 C   0  0  0  0  0  2  0  0  0  0  0  0
  -27.5040  -29.9230   21.5500 C   0  0  0  0  0  0  0  0  0  0  0  0
  -28.7730  -29.3290   21.7080 C   0  0  0  0  0  3  0  0  0  0  0  0
  -28.0570  -27.4690   20.3060 C   0  0  0  0  0  3  0  0  0  0  0  0
  -26.7840  -28.0570   20.1630 C   0  0  0  0  0  3  0  0  0  0  0  0
  -25.1840  -29.9940   20.6790 C   0  0  0  0  0  2  0  0  0  0  0  0
  -25.8040  -31.3100   22.7630 N   0  0  0  0  0  0  0  0  0  0  0  0
  -24.3380  -32.1730   24.2600 O   0  0  0  0  0  0  0  0  0  0  0  0
  -24.0550  -29.4640   22.8630 C   0  0  0  0  0  0  0  0  0  0  0  0
  -22.8280  -29.0780   22.4830 N   0  0  0  0  0  0  0  0  0  0  0  0
  -24.6580  -28.9390   23.8010 O   0  0  0  0  0  0  0  0  0  0  0  0
  -22.3970  -29.5650   21.7100 H   0  0  0  0  0  0  0  0  0  0  0  0
  -19.5780  -27.4990   22.4680 C   0  0  0  0  0  0  0  0  0  0  0  0
  -22.0350  -28.0110   23.0910 C   0  0  0  0  0  3  0  0  0  0  0  0
  -22.3720  -26.6390   22.4640 C   0  0  0  0  0  2  0  0  0  0  0  0
  -21.4530  -26.2650   21.2970 C   0  0  0  0  0  2  0  0  0  0  0  0
  -19.9930  -26.2200   21.7580 C   0  0  0  0  0  2  0  0  0  0  0  0
  -20.5390  -28.3470   23.0800 C   0  0  0  0  0  0  0  0  0  0  0  0
  -20.1050  -29.5410   23.6960 C   0  0  0  0  0  3  0  0  0  0  0  0
  -18.7420  -29.8910   23.7090 C   0  0  0  0  0  3  0  0  0  0  0  0
  -17.7940  -29.0390   23.1160 C   0  0  0  0  0  3  0  0  0  0  0  0
  -18.2110  -27.8440   22.5020 C   0  0  0  0  0  3  0  0  0  0  0  0
  -26.6170  -32.7870   24.6820 C   0  0  0  0  0  3  0  0  0  0  0  0
  -26.0910  -34.1080   25.0450 N   0  0  0  0  0  0  0  0  0  0  0  0
  -26.4040  -35.2490   24.4180 C   0  0  0  0  0  0  0  0  0  0  0  0
  -27.2330  -35.3070   23.5050 O   0  0  0  0  0  0  0  0  0  0  0  0
  -25.3670  -34.1280   25.7490 H   0  0  0  0  0  0  0  0  0  0  0  0
  -24.5340  -36.8480   23.9010 C   0  0  0  0  0  1  0  0  0  0  0  0
  -25.6810  -36.5300   24.8740 C   0  0  0  0  0  3  0  0  0  0  0  0
  -27.5760  -37.5640   26.0430 C   0  0  0  0  0  1  0  0  0  0  0  0
  -26.5780  -37.7020   24.9860 N   0  0  0  0  0  0  0  0  0  0  0  0
  -26.0440  -38.5480   25.1630 H   0  0  0  0  0  0  0  0  0  0  0  0
  -27.0800  -31.9950   25.9660 C   0  0  1  0  0  0  0  0  0  0  0  0
  -25.9110  -31.3980   26.7840 C   0  0  0  0  0  1  0  0  0  0  0  0
  -28.0260  -30.8340   25.5780 C   0  0  0  0  0  1  0  0  0  0  0  0
  -27.8850  -32.9310   26.8970 C   0  0  0  0  0  1  0  0  0  0  0  0
  -26.2850  -19.4840   19.3880 C   0  0  0  0  0  2  0  0  0  0  0  0
  -26.8250  -18.6690   18.1890 C   0  0  0  0  0  2  0  0  0  0  0  0
  -28.1600  -17.9790   18.4950 C   0  0  0  0  0  2  0  0  0  0  0  0
  -29.2380  -18.3090   17.5350 N   0  0  0  0  0  4  0  0  0  0  0  0
  -29.2500  -19.3020   17.3590 H   0  0  0  0  0  0  0  0  0  0  0  0
  -29.0290  -17.8540   16.6590 H   0  0  0  0  0  0  0  0  0  0  0  0
  -30.5910  -17.8860   17.9750 C   0  0  0  0  0  2  0  0  0  0  0  0
  -31.0460  -18.5960   19.2720 C   0  0  0  0  0  2  0  0  0  0  0  0
  -31.0270  -17.7180   20.4000 O   0  0  0  0  0  0  0  0  0  0  0  0
  -32.1750  -16.8870   20.5410 C   0  0  0  0  0  2  0  0  0  0  0  0
  -31.8490  -15.7510   21.5200 C   0  0  0  0  0  2  0  0  0  0  0  0
  -32.9290  -14.6570   21.5390 C   0  0  0  0  0  2  0  0  0  0  0  0
  -32.5760  -13.4770   22.4580 C   0  0  0  0  0  2  0  0  0  0  0  0
  -33.6030  -12.3360   22.3740 C   0  0  0  0  0  2  0  0  0  0  0  0
  -33.4010   -9.9160   22.2900 C   0  0  0  0  0  0  0  0  0  0  0  0
  -32.7390   -8.4810   20.4170 C   0  0  0  0  0  2  0  0  0  0  0  0
  -32.5210   -9.3820   19.1850 C   0  0  0  0  0  2  0  0  0  0  0  0
  -31.0770   -9.9250   19.1490 C   0  0  0  0  0  2  0  0  0  0  0  0
  -30.6280  -10.5320   20.5060 C   0  0  0  0  0  3  0  0  0  0  0  0
  -30.9780   -9.5860   21.6800 C   0  0  0  0  0  2  0  0  0  0  0  0
  -32.4170   -9.2760   21.6080 N   0  0  0  0  0  0  0  0  0  0  0  0
  -34.5980   -9.6410   22.1900 O   0  0  0  0  0  0  0  0  0  0  0  0
  -33.0290  -11.0760   22.8390 N   0  0  0  0  0  0  0  0  0  0  0  0
  -32.7420  -11.0300   23.8100 H   0  0  0  0  0  0  0  0  0  0  0  0
  -28.5870  -12.0300   20.0450 C   0  0  0  0  0  0  0  0  0  0  0  0
  -27.2430  -11.8230   20.1920 C   0  0  0  0  0  0  0  0  0  0  0  0
  -27.1080  -10.5020   20.7190 C   0  0  0  0  0  0  0  0  0  0  0  0
  -29.2080  -10.8760   20.4910 N   0  0  0  0  0  0  0  0  0  0  0  0
  -28.3010   -9.9690   20.9390 N   0  0  0  0  0  0  0  0  0  0  0  0
  -25.9110   -9.6930   20.9670 C   0  0  0  0  0  0  0  0  0  0  0  0
  -25.7360   -8.9850   22.1760 C   0  0  0  0  0  3  0  0  0  0  0  0
  -24.5670   -8.2260   22.3970 C   0  0  0  0  0  3  0  0  0  0  0  0
  -23.5560   -8.1740   21.4070 C   0  0  0  0  0  0  0  0  0  0  0  0
  -23.7470   -8.8600   20.1940 C   0  0  0  0  0  3  0  0  0  0  0  0
  -24.9140   -9.6100   19.9740 C   0  0  0  0  0  3  0  0  0  0  0  0
  -22.3960   -7.4460   21.5260 O   0  0  0  0  0  0  0  0  0  0  0  0
  -21.8220   -7.2020   22.7490 C   0  0  0  0  0  0  0  0  0  0  0  0
  -21.5530   -8.2390   23.6680 C   0  0  0  0  0  3  0  0  0  0  0  0
  -20.8990   -7.9530   24.8820 C   0  0  0  0  0  3  0  0  0  0  0  0
  -20.5050   -6.6350   25.1750 C   0  0  0  0  0  0  0  0  0  0  0  0
  -20.7670   -5.6000   24.2590 C   0  0  0  0  0  3  0  0  0  0  0  0
  -21.4250   -5.8840   23.0500 C   0  0  0  0  0  0  0  0  0  0  0  0
  -21.6560   -4.8870   22.1630 F   0  0  0  0  0  0  0  0  0  0  0  0
  -19.8710   -6.3600   26.3380 F   0  0  0  0  0  0  0  0  0  0  0  0
  -26.1390  -12.7530   19.7720 C   0  0  0  0  0  0  0  0  0  0  0  0
  -25.0320  -12.7610   20.5050 N   0  0  0  0  0  0  0  0  0  0  0  0
  -26.2750  -13.5170   18.8130 O   0  0  0  0  0  0  0  0  0  0  0  0
  -24.9330  -12.1590   21.3100 H   0  0  0  0  0  0  0  0  0  0  0  0
  -24.2770  -13.3890   20.2650 H   0  0  0  0  0  0  0  0  0  0  0  0
  -29.3220  -13.0990   19.5470 N   0  0  0  0  0  0  0  0  0  0  0  0
  -28.8650  -13.9220   19.1770 H   0  0  0  0  0  0  0  0  0  0  0  0
  -30.3300  -13.1180   19.4700 H   0  0  0  0  0  0  0  0  0  0  0  0
  1  5  1  0
  2  4  1  0
  2  1  1  0
  3  1  2  0
  5  6  2  0
  6  7  1  0
  7  8  1  0
  7  9  2  0
  8 11  1  0
 10  8  1  0
 12 11  1  0
 13 12  1  0
 14 25  2  0
 15 13  1  0
 15 20  1  0
 16 24  1  0
 16 26  1  0
 17 19  1  0
 18 24  1  0
 19 20  2  0
 19 18  1  0
 21 15  2  0
 22 21  1  0
 22 17  2  0
 23 17  1  0
 23 16  1  0
 24 14  1  0
 26 28  2  0
 27 26  1  0
 29 27  1  0
 30 39  2  0
 30 35  1  0
 31 27  1  0
 32 31  1  0
 33 34  1  0
 33 32  1  0
 34 30  1  0
 35 31  1  0
 35 36  2  0
 36 37  1  0
 38 37  2  0
 39 38  1  0
 40 14  1  0
 40 41  1  0
 40 50  1  0
 41 44  1  0
 42 46  1  0
 42 41  1  0
 43 42  2  0
 46 45  1  0
 46 48  1  0
 48 49  1  0
 48 47  1  0
 50 51  1  1
 50 53  1  0
 52 50  1  0
 54  2  1  0
 55 56  1  0
 55 54  1  0
 57 60  1  0
 57 56  1  0
 58 57  1  0
 59 57  1  0
 60 61  1  0
 61 62  1  0
 62 63  1  0
 63 64  1  0
 64 65  1  0
 65 66  1  0
 67 66  1  0
 67 76  1  0
 68 76  1  0
 69 74  1  0
 70 69  1  0
 71 70  1  0
 72 71  1  0
 72 73  1  0
 74 73  1  0
 74 68  1  0
 75 68  2  0
 76 77  1  0
 78 79  2  0
 78 81  1  0
 79 80  1  0
 80 82  2  0
 80 83  1  0
 81 72  1  0
 81 82  1  0
 83 84  1  0
 84 85  2  0
 86 89  1  0
 86 85  1  0
 87 86  2  0
 88 87  1  0
 88 83  2  0
 89 90  1  0
 90 95  2  0
 90 91  1  0
 91 92  2  0
 92 93  1  0
 93 97  1  0
 94 93  2  0
 95 94  1  0
 96 95  1  0
 98 79  1  0
 98 99  1  0
 99101  1  0
100 98  2  0
102 99  1  0
103 78  1  0
104103  1  0
105103  1  0
M  ISO  4  12 101  13 101  68 100  76 100
M  END
>  <TORSDO>  (43) 
F 32

>  <SCORE>  (43) 
-1.821

>  <name>  (43) 
45

>  <ligand_id>  (43) 
45

>  <original_smiles>  (43) 
[H]C(C(=O)N([H])C([H])([H])C([H])([H])Oc1c([H])c([H])c2c(c1[H])C([H])([H])N(C(=O)C([H])(N([H])C(=O)C([H])(N([H])C([H])([H])[H])C([H])([H])[H])C(C([H])([H])[H])(C([H])([H])[H])C([H])([H])[H])C([H])(C(=O)N([H])C1([H])c3c([H])c([H])c([H])c([H])c3C([H])([H])C([H])([H])C1([H])[H])C2([H])[H])=C([H])C(=O)N([H])C([H])([H])C([H])([H])C([H])([H])[N+]([H])([H])C([H])([H])C([H])([H])OC([H])([H])C([H])([H])C([H])([H])C([H])([H])C([H])([H])N([H])C(=O)N1C([H])([H])C([H])([H])C([H])([H])C([H])(n2nc(-c3c([H])c([H])c(Oc4c([H])c([H])c(F)c([H])c4F)c([H])c3[H])c(C(=O)N([H])[H])c2N([H])[H])C1([H])[H]

>  <smiles>  (43) 
[H]C(C(=O)N([H])C([H])([H])C([H])([H])Oc1c([H])c([H])c2c(c1[H])C([H])([H])N(C(=O)C([H])(N([H])C(=O)C([H])(N([H])C([H])([H])[H])C([H])([H])[H])C(C([H])([H])[H])(C([H])([H])[H])C([H])([H])[H])C([H])(C(=O)N([H])C1([H])c3c([H])c([H])c([H])c([H])c3C([H])([H])C([H])([H])C1([H])[H])C2([H])[H])=C([H])C(=O)N([H])C([H])([H])C([H])([H])C([H])([H])[N+]([H])([H])C([H])([H])C([H])([H])OC([H])([H])C([H])([H])C([H])([H])C([H])([H])C([H])([H])N([H])C(=O)N1C([H])([H])C([H])([H])C([H])([H])C([H])(n2nc(-c3c([H])c([H])c(Oc4c([H])c([H])c(F)c([H])c4F)c([H])c3[H])c(C(=O)N([H])[H])c2N([H])[H])C1([H])[H]

$$$$
46:0:0
     RDKit          3D

 93100  0  0  1  0  0  0  0  0999 V2000
  -28.5890  -22.1430   21.0110 C   0  0  0  0  0  0  0  0  0  0  0  0
  -29.0310  -23.2900   20.4880 N   0  0  0  0  0  0  0  0  0  0  0  0
  -27.3930  -21.9010   21.1850 O   0  0  0  0  0  0  0  0  0  0  0  0
  -30.0320  -23.3860   20.3810 H   0  0  0  0  0  0  0  0  0  0  0  0
  -29.4860  -19.9380   21.5380 C   0  0  0  0  0  3  0  0  0  0  0  0
  -29.6890  -21.2550   21.3320 C   0  0  0  0  0  3  0  0  0  0  0  0
  -30.6060  -19.0760   21.8580 C   0  0  0  0  0  0  0  0  0  0  0  0
  -30.2400  -17.7990   22.0120 N   0  0  0  0  0  0  0  0  0  0  0  0
  -31.7770  -19.4450   21.9790 O   0  0  0  0  0  0  0  0  0  0  0  0
  -29.2610  -17.5710   21.8990 H   0  0  0  0  0  0  0  0  0  0  0  0
  -31.1450  -16.7010   22.3410 C   0  0  0  0  0  2  0  0  0  0  0  0
  -31.7050  -16.0310   21.0720 C   0  0  0  0  0  2  0  0  0  0  0  0
  -31.1130  -14.1060   19.6200 C   0  0  0  0  0  0  0  0  0  0  0  0
  -30.5860  -11.9340   18.5780 C   0  0  0  0  0  2  0  0  0  0  0  0
  -29.5420  -12.0520   17.4540 C   0  0  0  0  0  2  0  0  0  0  0  0
  -28.1140  -11.9890   18.0250 C   0  0  0  0  0  2  0  0  0  0  0  0
  -27.9070  -12.9650   19.2130 C   0  0  0  0  0  3  0  0  0  0  0  0
  -29.0420  -12.8120   20.2490 C   0  0  0  0  0  2  0  0  0  0  0  0
  -30.3360  -12.9960   19.5620 N   0  0  0  0  0  0  0  0  0  0  0  0
  -32.0330  -14.3410   18.8300 O   0  0  0  0  0  0  0  0  0  0  0  0
  -30.8860  -14.8900   20.6800 N   0  0  0  0  0  0  0  0  0  0  0  0
  -30.1390  -14.6130   21.2980 H   0  0  0  0  0  0  0  0  0  0  0  0
  -25.6490  -13.7380   20.1860 C   0  0  0  0  0  0  0  0  0  0  0  0
  -24.5670  -13.0400   20.6510 C   0  0  0  0  0  0  0  0  0  0  0  0
  -24.9120  -11.6590   20.5390 C   0  0  0  0  0  0  0  0  0  0  0  0
  -26.5920  -12.7860   19.8260 N   0  0  0  0  0  0  0  0  0  0  0  0
  -26.1540  -11.5280   20.0920 N   0  0  0  0  0  0  0  0  0  0  0  0
  -24.1100  -10.4520   20.7790 C   0  0  0  0  0  0  0  0  0  0  0  0
  -24.5240   -9.4610   21.6970 C   0  0  0  0  0  3  0  0  0  0  0  0
  -23.7280   -8.3170   21.9230 C   0  0  0  0  0  3  0  0  0  0  0  0
  -22.5030   -8.1580   21.2320 C   0  0  0  0  0  0  0  0  0  0  0  0
  -22.1070   -9.1360   20.3020 C   0  0  0  0  0  3  0  0  0  0  0  0
  -22.9030  -10.2710   20.0750 C   0  0  0  0  0  3  0  0  0  0  0  0
  -21.6760   -7.0690   21.3690 O   0  0  0  0  0  0  0  0  0  0  0  0
  -21.5820   -6.3800   22.5520 C   0  0  0  0  0  0  0  0  0  0  0  0
  -21.2040   -7.0170   23.7550 C   0  0  0  0  0  3  0  0  0  0  0  0
  -21.0520   -6.2590   24.9330 C   0  0  0  0  0  3  0  0  0  0  0  0
  -21.2680   -4.8680   24.9110 C   0  0  0  0  0  0  0  0  0  0  0  0
  -21.6390   -4.2320   23.7120 C   0  0  0  0  0  3  0  0  0  0  0  0
  -21.7930   -4.9870   22.5360 C   0  0  0  0  0  0  0  0  0  0  0  0
  -22.1300   -4.3670   21.3800 F   0  0  0  0  0  0  0  0  0  0  0  0
  -21.1130   -4.1390   26.0400 F   0  0  0  0  0  0  0  0  0  0  0  0
  -23.2500  -13.6160   21.0850 C   0  0  0  0  0  0  0  0  0  0  0  0
  -22.5710  -12.9590   22.0180 N   0  0  0  0  0  0  0  0  0  0  0  0
  -22.8380  -14.6820   20.6310 O   0  0  0  0  0  0  0  0  0  0  0  0
  -22.9190  -12.0960   22.4080 H   0  0  0  0  0  0  0  0  0  0  0  0
  -21.6890  -13.3260   22.3490 H   0  0  0  0  0  0  0  0  0  0  0  0
  -25.9040  -15.0970   20.0220 N   0  0  0  0  0  0  0  0  0  0  0  0
  -25.2080  -15.8060   20.2270 H   0  0  0  0  0  0  0  0  0  0  0  0
  -26.7520  -15.4780   19.6200 H   0  0  0  0  0  0  0  0  0  0  0  0
  -28.2230  -24.4200   20.0350 C   0  0  0  0  0  2  0  0  0  0  0  0
  -28.5130  -25.6700   20.8810 C   0  0  0  0  0  2  0  0  0  0  0  0
  -28.4320  -26.8580   20.1010 O   0  0  0  0  0  0  0  0  0  0  0  0
  -24.6400  -31.9230   23.3280 C   0  0  0  0  0  0  0  0  0  0  0  0
  -27.2450  -27.5390   20.1730 C   0  0  0  0  0  0  0  0  0  0  0  0
  -23.4100  -30.5430   21.6810 C   0  0  0  0  0  3  0  0  0  0  0  0
  -24.8440  -29.0130   20.2320 C   0  0  0  0  0  0  0  0  0  0  0  0
  -25.9290  -30.9090   21.4540 C   0  0  0  0  0  2  0  0  0  0  0  0
  -26.0060  -29.5420   20.8080 C   0  0  0  0  0  0  0  0  0  0  0  0
  -27.2110  -28.8120   20.7760 C   0  0  0  0  0  3  0  0  0  0  0  0
  -26.0720  -27.0090   19.5980 C   0  0  0  0  0  3  0  0  0  0  0  0
  -24.8700  -27.7430   19.6260 C   0  0  0  0  0  3  0  0  0  0  0  0
  -23.6020  -29.8720   20.2940 C   0  0  0  0  0  2  0  0  0  0  0  0
  -24.6780  -31.1390   22.2130 N   0  0  0  0  0  0  0  0  0  0  0  0
  -23.5670  -32.1900   23.8840 O   0  0  0  0  0  0  0  0  0  0  0  0
  -22.7680  -29.5140   22.6380 C   0  0  0  0  0  0  0  0  0  0  0  0
  -21.4470  -29.3150   22.5010 N   0  0  0  0  0  0  0  0  0  0  0  0
  -23.4550  -28.8960   23.4550 O   0  0  0  0  0  0  0  0  0  0  0  0
  -20.9530  -29.8650   21.8110 H   0  0  0  0  0  0  0  0  0  0  0  0
  -18.0920  -28.0490   22.9380 C   0  0  0  0  0  0  0  0  0  0  0  0
  -20.6370  -28.3660   23.2640 C   0  0  0  0  0  3  0  0  0  0  0  0
  -20.7850  -26.9320   22.7050 C   0  0  0  0  0  2  0  0  0  0  0  0
  -19.7120  -26.5750   21.6710 C   0  0  0  0  0  2  0  0  0  0  0  0
  -18.3130  -26.6980   22.2830 C   0  0  0  0  0  2  0  0  0  0  0  0
  -19.1840  -28.8400   23.3850 C   0  0  0  0  0  0  0  0  0  0  0  0
  -18.9270  -30.1060   23.9560 C   0  0  0  0  0  3  0  0  0  0  0  0
  -17.6080  -30.5800   24.0870 C   0  0  0  0  0  3  0  0  0  0  0  0
  -16.5300  -29.7870   23.6580 C   0  0  0  0  0  3  0  0  0  0  0  0
  -16.7720  -28.5240   23.0890 C   0  0  0  0  0  3  0  0  0  0  0  0
  -25.9360  -32.5410   23.9410 C   0  0  0  0  0  3  0  0  0  0  0  0
  -25.6440  -33.9420   24.2720 N   0  0  0  0  0  0  0  0  0  0  0  0
  -25.9590  -34.9880   23.4970 C   0  0  0  0  0  0  0  0  0  0  0  0
  -26.6000  -34.8760   22.4480 O   0  0  0  0  0  0  0  0  0  0  0  0
  -25.0740  -34.1040   25.0900 H   0  0  0  0  0  0  0  0  0  0  0  0
  -24.2080  -36.7680   23.2040 C   0  0  0  0  0  1  0  0  0  0  0  0
  -25.4890  -36.3800   23.9590 C   0  0  0  0  0  3  0  0  0  0  0  0
  -27.6590  -37.2840   24.6710 C   0  0  0  0  0  1  0  0  0  0  0  0
  -26.5110  -37.4360   23.7810 N   0  0  0  0  0  0  0  0  0  0  0  0
  -26.1090  -38.3550   23.9360 H   0  0  0  0  0  0  0  0  0  0  0  0
  -26.4560  -31.7620   25.2100 C   0  0  1  0  0  0  0  0  0  0  0  0
  -25.3690  -31.5280   26.2830 C   0  0  0  0  0  1  0  0  0  0  0  0
  -27.0270  -30.3830   24.8050 C   0  0  0  0  0  1  0  0  0  0  0  0
  -27.6160  -32.5460   25.8690 C   0  0  0  0  0  1  0  0  0  0  0  0
  1  3  2  0
  1  6  1  0
  2  1  1  0
  4  2  1  0
  5  7  1  0
  6  5  2  0
  7  9  2  0
  7  8  1  0
  8 11  1  0
 10  8  1  0
 12 11  1  0
 13 21  1  0
 14 19  1  0
 15 16  1  0
 15 14  1  0
 17 16  1  0
 17 26  1  0
 17 18  1  0
 19 13  1  0
 19 18  1  0
 20 13  2  0
 21 12  1  0
 21 22  1  0
 23 24  2  0
 24 43  1  0
 25 24  1  0
 25 28  1  0
 26 27  1  0
 26 23  1  0
 27 25  2  0
 28 29  1  0
 29 30  2  0
 31 34  1  0
 31 30  1  0
 32 31  2  0
 33 32  1  0
 33 28  2  0
 34 35  1  0
 35 36  1  0
 36 37  2  0
 38 37  1  0
 38 42  1  0
 39 38  2  0
 40 35  2  0
 40 39  1  0
 41 40  1  0
 43 44  1  0
 44 47  1  0
 44 46  1  0
 45 43  2  0
 48 23  1  0
 48 49  1  0
 50 48  1  0
 51  2  1  0
 51 52  1  0
 53 55  1  0
 53 52  1  0
 54 65  2  0
 55 60  1  0
 56 64  1  0
 56 66  1  0
 57 63  1  0
 57 59  1  0
 58 64  1  0
 59 58  1  0
 60 59  2  0
 61 62  1  0
 61 55  2  0
 62 57  2  0
 63 56  1  0
 64 54  1  0
 66 68  2  0
 67 66  1  0
 69 67  1  0
 70 79  2  0
 70 75  1  0
 71 67  1  0
 71 75  1  0
 72 71  1  0
 73 74  1  0
 73 72  1  0
 74 70  1  0
 75 76  2  0
 76 77  1  0
 78 77  2  0
 79 78  1  0
 80 54  1  0
 80 81  1  0
 80 90  1  0
 81 84  1  0
 82 86  1  0
 82 81  1  0
 83 82  2  0
 86 85  1  0
 88 89  1  0
 88 86  1  0
 88 87  1  0
 90 93  1  1
 90 91  1  0
 92 90  1  0
M  ISO  4  13 100  21 100  52 101  53 101
M  END
>  <TORSDO>  (44) 
F 22

>  <SCORE>  (44) 
-11.992

>  <name>  (44) 
46

>  <ligand_id>  (44) 
46

>  <original_smiles>  (44) 
[H]C(C(=O)N([H])C([H])([H])C([H])([H])Oc1c([H])c([H])c2c(c1[H])C([H])([H])N(C(=O)C([H])(N([H])C(=O)C([H])(N([H])C([H])([H])[H])C([H])([H])[H])C(C([H])([H])[H])(C([H])([H])[H])C([H])([H])[H])C([H])(C(=O)N([H])C1([H])c3c([H])c([H])c([H])c([H])c3C([H])([H])C([H])([H])C1([H])[H])C2([H])[H])=C([H])C(=O)N([H])C([H])([H])C([H])([H])N([H])C(=O)N1C([H])([H])C([H])([H])C([H])([H])C([H])(n2nc(-c3c([H])c([H])c(Oc4c([H])c([H])c(F)c([H])c4F)c([H])c3[H])c(C(=O)N([H])[H])c2N([H])[H])C1([H])[H]

>  <smiles>  (44) 
[H]C(C(=O)N([H])C([H])([H])C([H])([H])Oc1c([H])c([H])c2c(c1[H])C([H])([H])N(C(=O)C([H])(N([H])C(=O)C([H])(N([H])C([H])([H])[H])C([H])([H])[H])C(C([H])([H])[H])(C([H])([H])[H])C([H])([H])[H])C([H])(C(=O)N([H])C1([H])c3c([H])c([H])c([H])c([H])c3C([H])([H])C([H])([H])C1([H])[H])C2([H])[H])=C([H])C(=O)N([H])C([H])([H])C([H])([H])N([H])C(=O)N1C([H])([H])C([H])([H])C([H])([H])C([H])(n2nc(-c3c([H])c([H])c(Oc4c([H])c([H])c(F)c([H])c4F)c([H])c3[H])c(C(=O)N([H])[H])c2N([H])[H])C1([H])[H]

$$$$
47:0:0
     RDKit          3D

 98105  0  0  1  0  0  0  0  0999 V2000
  -28.7980  -20.9150   26.0700 C   0  0  0  0  0  2  0  0  0  0  0  0
  -29.3240  -21.2660   24.7410 N   0  0  0  0  0  0  0  0  0  0  0  0
  -28.5910  -21.1120   24.0480 H   0  0  0  0  0  0  0  0  0  0  0  0
  -29.7950  -22.6390   24.6420 C   0  0  0  0  0  2  0  0  0  0  0  0
  -30.1540  -22.9940   23.1890 C   0  0  0  0  0  2  0  0  0  0  0  0
  -30.5560  -24.3940   23.0930 N   0  0  0  0  0  0  0  0  0  0  0  0
  -29.8600  -24.9760   23.5620 H   0  0  0  0  0  0  0  0  0  0  0  0
  -30.6980  -24.8640   21.7150 C   0  0  0  0  0  2  0  0  0  0  0  0
  -30.9960  -26.3700   21.6610 C   0  0  0  0  0  2  0  0  0  0  0  0
  -30.6690  -26.8480   20.3570 O   0  0  0  0  0  0  0  0  0  0  0  0
  -25.4970  -30.7300   23.2590 C   0  0  0  0  0  0  0  0  0  0  0  0
  -29.3790  -27.2990   20.2590 C   0  0  0  0  0  0  0  0  0  0  0  0
  -24.8080  -29.2140   21.4250 C   0  0  0  0  0  3  0  0  0  0  0  0
  -26.7090  -28.1700   20.0800 C   0  0  0  0  0  0  0  0  0  0  0  0
  -27.1730  -30.1750   21.5070 C   0  0  0  0  0  2  0  0  0  0  0  0
  -27.6400  -28.9130   20.8160 C   0  0  0  0  0  0  0  0  0  0  0  0
  -28.9770  -28.4820   20.9110 C   0  0  0  0  0  3  0  0  0  0  0  0
  -28.4440  -26.5620   19.5060 C   0  0  0  0  0  3  0  0  0  0  0  0
  -27.1040  -26.9900   19.4200 C   0  0  0  0  0  3  0  0  0  0  0  0
  -25.2940  -28.7010   20.0410 C   0  0  0  0  0  2  0  0  0  0  0  0
  -25.8350  -30.0510   22.1260 N   0  0  0  0  0  0  0  0  0  0  0  0
  -24.3370  -30.7060   23.6960 O   0  0  0  0  0  0  0  0  0  0  0  0
  -24.3360  -28.0010   22.2590 C   0  0  0  0  0  0  0  0  0  0  0  0
  -23.1310  -27.5030   21.9510 N   0  0  0  0  0  0  0  0  0  0  0  0
  -25.0590  -27.5150   23.1330 O   0  0  0  0  0  0  0  0  0  0  0  0
  -22.6020  -27.9630   21.2230 H   0  0  0  0  0  0  0  0  0  0  0  0
  -20.1400  -25.4800   21.9430 C   0  0  0  0  0  0  0  0  0  0  0  0
  -22.4940  -26.3420   22.5710 C   0  0  0  0  0  3  0  0  0  0  0  0
  -23.0270  -25.0240   21.9620 C   0  0  0  0  0  2  0  0  0  0  0  0
  -22.1760  -24.5100   20.7970 C   0  0  0  0  0  2  0  0  0  0  0  0
  -20.7350  -24.2640   21.2520 C   0  0  0  0  0  2  0  0  0  0  0  0
  -20.9670  -26.4630   22.5470 C   0  0  0  0  0  0  0  0  0  0  0  0
  -20.3650  -27.5940   23.1430 C   0  0  0  0  0  3  0  0  0  0  0  0
  -18.9650  -27.7470   23.1460 C   0  0  0  0  0  3  0  0  0  0  0  0
  -18.1510  -26.7610   22.5630 C   0  0  0  0  0  3  0  0  0  0  0  0
  -18.7370  -25.6300   21.9680 C   0  0  0  0  0  3  0  0  0  0  0  0
  -26.5410  -31.5870   24.0430 C   0  0  0  0  0  3  0  0  0  0  0  0
  -27.0050  -30.9190   25.3940 C   0  0  1  0  0  0  0  0  0  0  0  0
  -25.8310  -30.4690   26.2970 C   0  0  0  0  0  1  0  0  0  0  0  0
  -27.8910  -29.6830   25.1110 C   0  0  0  0  0  1  0  0  0  0  0  0
  -27.8780  -31.9110   26.2000 C   0  0  0  0  0  1  0  0  0  0  0  0
  -25.9370  -32.9010   24.2940 N   0  0  0  0  0  0  0  0  0  0  0  0
  -26.1870  -34.0020   23.5710 C   0  0  0  0  0  0  0  0  0  0  0  0
  -27.0190  -34.0310   22.6600 O   0  0  0  0  0  0  0  0  0  0  0  0
  -25.2080  -32.9400   24.9920 H   0  0  0  0  0  0  0  0  0  0  0  0
  -24.2440  -35.4440   22.9020 C   0  0  0  0  0  1  0  0  0  0  0  0
  -25.3880  -35.2720   23.9150 C   0  0  0  0  0  3  0  0  0  0  0  0
  -27.1540  -36.5230   25.0710 C   0  0  0  0  0  1  0  0  0  0  0  0
  -26.2170  -36.4970   23.9500 N   0  0  0  0  0  0  0  0  0  0  0  0
  -25.6320  -37.3260   24.0090 H   0  0  0  0  0  0  0  0  0  0  0  0
  -28.6770  -19.3900   26.1630 C   0  0  0  0  0  2  0  0  0  0  0  0
  -29.2860  -18.8490   24.9530 N   0  0  0  0  0  0  0  0  0  0  0  0
  -29.0860  -19.6030   24.2810 H   0  0  0  0  0  0  0  0  0  0  0  0
  -30.7390  -18.6190   25.0170 C   0  0  0  0  0  2  0  0  0  0  0  0
  -31.2880  -18.4400   23.5950 C   0  0  0  0  0  2  0  0  0  0  0  0
  -30.3540  -17.5930   22.8260 N   0  0  0  0  0  4  0  0  0  0  0  0
  -30.2560  -16.6950   23.2650 H   0  0  0  0  0  0  0  0  0  0  0  0
  -29.4660  -18.0630   22.9510 H   0  0  0  0  0  0  0  0  0  0  0  0
  -30.6680  -17.4490   21.3900 C   0  0  0  0  0  2  0  0  0  0  0  0
  -31.4380  -16.1460   21.1120 C   0  0  0  0  0  2  0  0  0  0  0  0
  -30.6000  -14.3950   19.5450 C   0  0  0  0  0  0  0  0  0  0  0  0
  -30.2400  -12.1270   18.6470 C   0  0  0  0  0  2  0  0  0  0  0  0
  -29.1490  -12.0360   17.5680 C   0  0  0  0  0  2  0  0  0  0  0  0
  -27.7680  -11.8430   18.2160 C   0  0  0  0  0  2  0  0  0  0  0  0
  -27.4880  -12.9000   19.3110 C   0  0  0  0  0  3  0  0  0  0  0  0
  -28.6640  -12.9900   20.3090 C   0  0  0  0  0  2  0  0  0  0  0  0
  -29.9140  -13.2280   19.5640 N   0  0  0  0  0  0  0  0  0  0  0  0
  -31.3670  -14.7270   18.6350 O   0  0  0  0  0  0  0  0  0  0  0  0
  -30.5540  -15.0520   20.7120 N   0  0  0  0  0  0  0  0  0  0  0  0
  -29.9690  -14.6330   21.4210 H   0  0  0  0  0  0  0  0  0  0  0  0
  -25.2810  -13.5270   20.4840 C   0  0  0  0  0  0  0  0  0  0  0  0
  -24.2540  -12.7600   20.9710 C   0  0  0  0  0  0  0  0  0  0  0  0
  -24.6360  -11.4020   20.7430 C   0  0  0  0  0  0  0  0  0  0  0  0
  -26.2240  -12.6350   19.9960 N   0  0  0  0  0  0  0  0  0  0  0  0
  -25.8480  -11.3470   20.2080 N   0  0  0  0  0  0  0  0  0  0  0  0
  -23.8930  -10.1540   20.9540 C   0  0  0  0  0  0  0  0  0  0  0  0
  -24.3590   -9.1590   21.8430 C   0  0  0  0  0  3  0  0  0  0  0  0
  -23.6180   -7.9730   22.0390 C   0  0  0  0  0  3  0  0  0  0  0  0
  -22.4000   -7.7740   21.3480 C   0  0  0  0  0  0  0  0  0  0  0  0
  -21.9530   -8.7580   20.4480 C   0  0  0  0  0  3  0  0  0  0  0  0
  -22.6930   -9.9350   20.2490 C   0  0  0  0  0  3  0  0  0  0  0  0
  -21.6260   -6.6430   21.4570 O   0  0  0  0  0  0  0  0  0  0  0  0
  -21.5180   -5.9570   22.6400 C   0  0  0  0  0  0  0  0  0  0  0  0
  -21.0400   -6.5720   23.8170 C   0  0  0  0  0  3  0  0  0  0  0  0
  -20.8770   -5.8110   24.9920 C   0  0  0  0  0  3  0  0  0  0  0  0
  -21.1850   -4.4380   24.9910 C   0  0  0  0  0  0  0  0  0  0  0  0
  -21.6550   -3.8220   23.8180 C   0  0  0  0  0  3  0  0  0  0  0  0
  -21.8200   -4.5800   22.6450 C   0  0  0  0  0  0  0  0  0  0  0  0
  -22.2530   -3.9780   21.5120 F   0  0  0  0  0  0  0  0  0  0  0  0
  -21.0210   -3.7060   26.1180 F   0  0  0  0  0  0  0  0  0  0  0  0
  -22.9520  -13.2580   21.5280 C   0  0  0  0  0  0  0  0  0  0  0  0
  -22.3640  -12.5190   22.4640 N   0  0  0  0  0  0  0  0  0  0  0  0
  -22.4740  -14.3330   21.1710 O   0  0  0  0  0  0  0  0  0  0  0  0
  -22.7640  -11.6440   22.7670 H   0  0  0  0  0  0  0  0  0  0  0  0
  -21.5010  -12.8350   22.8820 H   0  0  0  0  0  0  0  0  0  0  0  0
  -25.4800  -14.9000   20.3990 N   0  0  0  0  0  0  0  0  0  0  0  0
  -24.7790  -15.5700   20.6960 H   0  0  0  0  0  0  0  0  0  0  0  0
  -26.2930  -15.3390   19.9840 H   0  0  0  0  0  0  0  0  0  0  0  0
  1 51  1  0
  2  1  1  0
  3  2  1  0
  4  2  1  0
  5  4  1  0
  6  5  1  0
  6  7  1  0
  8  6  1  0
  9  8  1  0
 10  9  1  0
 11 22  2  0
 12 10  1  0
 12 17  1  0
 13 21  1  0
 13 23  1  0
 14 16  1  0
 15 21  1  0
 16 17  2  0
 16 15  1  0
 18 12  2  0
 19 18  1  0
 19 14  2  0
 20 14  1  0
 20 13  1  0
 21 11  1  0
 23 25  2  0
 24 23  1  0
 26 24  1  0
 27 36  2  0
 27 32  1  0
 28 24  1  0
 29 28  1  0
 30 31  1  0
 30 29  1  0
 31 27  1  0
 32 28  1  0
 32 33  2  0
 33 34  1  0
 35 34  2  0
 36 35  1  0
 37 11  1  0
 37 42  1  0
 37 38  1  0
 38 41  1  1
 38 39  1  0
 40 38  1  0
 42 45  1  0
 43 47  1  0
 43 42  1  0
 44 43  2  0
 47 46  1  0
 47 49  1  0
 49 50  1  0
 49 48  1  0
 52 54  1  0
 52 51  1  0
 53 52  1  0
 55 54  1  0
 56 58  1  0
 56 57  1  0
 56 55  1  0
 59 56  1  0
 60 59  1  0
 61 67  1  0
 61 69  1  0
 62 67  1  0
 63 64  1  0
 63 62  1  0
 65 64  1  0
 65 74  1  0
 65 66  1  0
 67 66  1  0
 68 61  2  0
 69 60  1  0
 69 70  1  0
 71 72  2  0
 72 91  1  0
 73 76  1  0
 73 72  1  0
 74 75  1  0
 74 71  1  0
 75 73  2  0
 76 77  1  0
 77 78  2  0
 79 82  1  0
 79 78  1  0
 80 79  2  0
 81 80  1  0
 81 76  2  0
 82 83  1  0
 83 88  2  0
 83 84  1  0
 84 85  2  0
 86 85  1  0
 86 90  1  0
 87 86  2  0
 88 87  1  0
 89 88  1  0
 91 92  1  0
 92 94  1  0
 92 95  1  0
 93 91  2  0
 96 71  1  0
 96 97  1  0
 98 96  1  0
M  ISO  4   9 101  10 101  61 100  69 100
M  END
>  <TORSDO>  (45) 
F 29

>  <SCORE>  (45) 
0.437

>  <name>  (45) 
47

>  <ligand_id>  (45) 
47

>  <original_smiles>  (45) 
[H]c1c([H])c([H])c2c(c1[H])C([H])([H])C([H])([H])C([H])([H])C2([H])N([H])C(=O)C1([H])N(C(=O)C([H])(N([H])C(=O)C([H])(N([H])C([H])([H])[H])C([H])([H])[H])C(C([H])([H])[H])(C([H])([H])[H])C([H])([H])[H])C([H])([H])c2c([H])c(OC([H])([H])C([H])([H])N([H])C([H])([H])C([H])([H])N([H])C([H])([H])C([H])([H])N([H])C([H])([H])C([H])([H])[N+]([H])([H])C([H])([H])C([H])([H])N([H])C(=O)N3C([H])([H])C([H])([H])C([H])([H])C([H])(n4nc(-c5c([H])c([H])c(Oc6c([H])c([H])c(F)c([H])c6F)c([H])c5[H])c(C(=O)N([H])[H])c4N([H])[H])C3([H])[H])c([H])c([H])c2C1([H])[H]

>  <smiles>  (45) 
[H]c1c([H])c([H])c2c(c1[H])C([H])([H])C([H])([H])C([H])([H])C2([H])N([H])C(=O)C1([H])N(C(=O)C([H])(N([H])C(=O)C([H])(N([H])C([H])([H])[H])C([H])([H])[H])C(C([H])([H])[H])(C([H])([H])[H])C([H])([H])[H])C([H])([H])c2c([H])c(OC([H])([H])C([H])([H])N([H])C([H])([H])C([H])([H])N([H])C([H])([H])C([H])([H])N([H])C([H])([H])C([H])([H])[N+]([H])([H])C([H])([H])C([H])([H])N([H])C(=O)N3C([H])([H])C([H])([H])C([H])([H])C([H])(n4nc(-c5c([H])c([H])c(Oc6c([H])c([H])c(F)c([H])c6F)c([H])c5[H])c(C(=O)N([H])[H])c4N([H])[H])C3([H])[H])c([H])c([H])c2C1([H])[H]

$$$$
48:0:0
     RDKit          3D

102109  0  0  1  0  0  0  0  0999 V2000
  -33.7160  -23.8690   16.9490 C   0  0  0  0  0  2  0  0  0  0  0  0
  -32.6010  -22.8070   17.0020 C   0  0  0  0  0  2  0  0  0  0  0  0
  -31.7150  -23.0180   18.1680 N   0  0  0  0  0  4  0  0  0  0  0  0
  -31.3900  -23.9700   18.1340 H   0  0  0  0  0  0  0  0  0  0  0  0
  -32.2620  -22.9040   19.0080 H   0  0  0  0  0  0  0  0  0  0  0  0
  -30.5290  -22.1340   18.2080 C   0  0  0  0  0  2  0  0  0  0  0  0
  -29.7300  -22.2620   19.5270 C   0  0  0  0  0  2  0  0  0  0  0  0
  -30.2230  -21.3500   20.6740 C   0  0  0  0  0  2  0  0  0  0  0  0
  -29.7550  -19.9530   20.5220 N   0  0  0  0  0  4  0  0  0  0  0  0
  -28.7690  -19.9170   20.7320 H   0  0  0  0  0  0  0  0  0  0  0  0
  -29.8730  -19.6610   19.5670 H   0  0  0  0  0  0  0  0  0  0  0  0
  -30.4570  -18.9750   21.3770 C   0  0  0  0  0  2  0  0  0  0  0  0
  -30.0180  -17.5390   21.0510 C   0  0  0  0  0  2  0  0  0  0  0  0
  -30.8130  -16.4780   21.8300 C   0  0  0  0  0  2  0  0  0  0  0  0
  -30.7900  -14.3830   20.4800 C   0  0  0  0  0  0  0  0  0  0  0  0
  -30.4010  -12.3380   19.1590 C   0  0  0  0  0  2  0  0  0  0  0  0
  -29.4450  -12.6100   17.9820 C   0  0  0  0  0  2  0  0  0  0  0  0
  -27.9750  -12.4770   18.4250 C   0  0  0  0  0  2  0  0  0  0  0  0
  -27.6700  -13.2780   19.7170 C   0  0  0  0  0  3  0  0  0  0  0  0
  -28.7240  -12.9760   20.8040 C   0  0  0  0  0  2  0  0  0  0  0  0
  -30.0640  -13.2600   20.2520 N   0  0  0  0  0  0  0  0  0  0  0  0
  -31.7900  -14.6970   19.8270 O   0  0  0  0  0  0  0  0  0  0  0  0
  -30.3410  -15.1420   21.4870 N   0  0  0  0  0  0  0  0  0  0  0  0
  -29.5510  -14.7800   22.0030 H   0  0  0  0  0  0  0  0  0  0  0  0
  -25.2710  -13.9080   20.4210 C   0  0  0  0  0  0  0  0  0  0  0  0
  -24.2000  -13.1440   20.7990 C   0  0  0  0  0  0  0  0  0  0  0  0
  -24.6540  -11.7890   20.7780 C   0  0  0  0  0  0  0  0  0  0  0  0
  -26.3120  -13.0190   20.1960 N   0  0  0  0  0  0  0  0  0  0  0  0
  -25.9430  -11.7400   20.4640 N   0  0  0  0  0  0  0  0  0  0  0  0
  -23.9230  -10.5320   20.9820 C   0  0  0  0  0  0  0  0  0  0  0  0
  -24.3620   -9.5650   21.9130 C   0  0  0  0  0  3  0  0  0  0  0  0
  -23.6330   -8.3720   22.1040 C   0  0  0  0  0  3  0  0  0  0  0  0
  -22.4500   -8.1370   21.3630 C   0  0  0  0  0  0  0  0  0  0  0  0
  -22.0300   -9.0920   20.4210 C   0  0  0  0  0  3  0  0  0  0  0  0
  -22.7600  -10.2770   20.2280 C   0  0  0  0  0  3  0  0  0  0  0  0
  -21.6920   -6.9960   21.4630 O   0  0  0  0  0  0  0  0  0  0  0  0
  -21.6600   -6.2500   22.6140 C   0  0  0  0  0  0  0  0  0  0  0  0
  -21.2790   -6.8090   23.8530 C   0  0  0  0  0  3  0  0  0  0  0  0
  -21.1940   -5.9920   24.9980 C   0  0  0  0  0  3  0  0  0  0  0  0
  -21.4790   -4.6170   24.9040 C   0  0  0  0  0  0  0  0  0  0  0  0
  -21.8540   -4.0570   23.6710 C   0  0  0  0  0  3  0  0  0  0  0  0
  -21.9410   -4.8720   22.5280 C   0  0  0  0  0  0  0  0  0  0  0  0
  -22.2820   -4.3240   21.3370 F   0  0  0  0  0  0  0  0  0  0  0  0
  -21.3900   -3.8290   26.0020 F   0  0  0  0  0  0  0  0  0  0  0  0
  -22.8060  -13.6290   21.0760 C   0  0  0  0  0  0  0  0  0  0  0  0
  -22.0800  -12.9450   21.9540 N   0  0  0  0  0  0  0  0  0  0  0  0
  -22.3680  -14.6520   20.5480 O   0  0  0  0  0  0  0  0  0  0  0  0
  -22.4450  -12.1180   22.4030 H   0  0  0  0  0  0  0  0  0  0  0  0
  -21.1450  -13.2530   22.1800 H   0  0  0  0  0  0  0  0  0  0  0  0
  -25.4430  -15.2750   20.2330 N   0  0  0  0  0  0  0  0  0  0  0  0
  -24.6810  -15.9370   20.3390 H   0  0  0  0  0  0  0  0  0  0  0  0
  -26.3010  -15.7050   19.9100 H   0  0  0  0  0  0  0  0  0  0  0  0
  -34.7280  -23.7550   18.1120 C   0  0  0  0  0  2  0  0  0  0  0  0
  -35.1670  -25.1060   18.7150 C   0  0  0  0  0  2  0  0  0  0  0  0
  -33.1250  -25.6380   20.0800 C   0  0  0  0  0  0  0  0  0  0  0  0
  -34.0580  -25.9480   19.1710 N   0  0  0  0  0  0  0  0  0  0  0  0
  -33.0490  -24.5300   20.6130 O   0  0  0  0  0  0  0  0  0  0  0  0
  -34.0220  -26.8840   18.7860 H   0  0  0  0  0  0  0  0  0  0  0  0
  -32.0860  -26.7120   20.4030 C   0  0  0  0  0  2  0  0  0  0  0  0
  -30.6600  -26.2190   20.0990 C   0  0  0  0  0  2  0  0  0  0  0  0
  -29.5770  -27.2690   20.3650 C   0  0  0  0  0  2  0  0  0  0  0  0
  -28.3380  -26.7090   19.9450 O   0  0  0  0  0  0  0  0  0  0  0  0
  -24.5380  -31.8630   23.1410 C   0  0  0  0  0  0  0  0  0  0  0  0
  -27.1970  -27.4780   20.0280 C   0  0  0  0  0  0  0  0  0  0  0  0
  -23.3210  -30.4580   21.5050 C   0  0  0  0  0  3  0  0  0  0  0  0
  -24.7720  -28.9290   20.0710 C   0  0  0  0  0  0  0  0  0  0  0  0
  -25.8350  -30.8440   21.2800 C   0  0  0  0  0  2  0  0  0  0  0  0
  -25.9270  -29.4740   20.6460 C   0  0  0  0  0  0  0  0  0  0  0  0
  -27.1400  -28.7580   20.6280 C   0  0  0  0  0  3  0  0  0  0  0  0
  -26.0230  -26.9350   19.4660 C   0  0  0  0  0  3  0  0  0  0  0  0
  -24.8110  -27.6550   19.4800 C   0  0  0  0  0  3  0  0  0  0  0  0
  -23.5210  -29.7770   20.1250 C   0  0  0  0  0  2  0  0  0  0  0  0
  -24.5830  -31.0680   22.0350 N   0  0  0  0  0  0  0  0  0  0  0  0
  -23.4620  -32.1280   23.6940 O   0  0  0  0  0  0  0  0  0  0  0  0
  -22.6860  -29.4310   22.4720 C   0  0  0  0  0  0  0  0  0  0  0  0
  -21.3600  -29.2540   22.3660 N   0  0  0  0  0  0  0  0  0  0  0  0
  -23.3830  -28.8010   23.2710 O   0  0  0  0  0  0  0  0  0  0  0  0
  -20.8590  -29.8180   21.6930 H   0  0  0  0  0  0  0  0  0  0  0  0
  -17.9910  -28.0730   22.9100 C   0  0  0  0  0  0  0  0  0  0  0  0
  -20.5520  -28.3140   23.1430 C   0  0  0  0  0  3  0  0  0  0  0  0
  -20.6390  -26.8870   22.5540 C   0  0  0  0  0  2  0  0  0  0  0  0
  -19.5200  -26.5780   21.5560 C   0  0  0  0  0  2  0  0  0  0  0  0
  -18.1490  -26.7260   22.2240 C   0  0  0  0  0  2  0  0  0  0  0  0
  -19.1200  -28.8250   23.3280 C   0  0  0  0  0  0  0  0  0  0  0  0
  -18.9200  -30.0870   23.9310 C   0  0  0  0  0  3  0  0  0  0  0  0
  -17.6210  -30.5960   24.1190 C   0  0  0  0  0  3  0  0  0  0  0  0
  -16.5050  -29.8410   23.7180 C   0  0  0  0  0  3  0  0  0  0  0  0
  -16.6910  -28.5810   23.1190 C   0  0  0  0  0  3  0  0  0  0  0  0
  -25.8300  -32.4980   23.7480 C   0  0  0  0  0  3  0  0  0  0  0  0
  -26.3870  -31.7040   24.9930 C   0  0  1  0  0  0  0  0  0  0  0  0
  -25.3200  -31.4220   26.0780 C   0  0  0  0  0  1  0  0  0  0  0  0
  -26.9820  -30.3460   24.5510 C   0  0  0  0  0  1  0  0  0  0  0  0
  -27.5390  -32.4990   25.6510 C   0  0  0  0  0  1  0  0  0  0  0  0
  -25.5150  -33.8840   24.1130 N   0  0  0  0  0  0  0  0  0  0  0  0
  -25.8240  -34.9540   23.3690 C   0  0  0  0  0  0  0  0  0  0  0  0
  -26.4780  -34.8780   22.3240 O   0  0  0  0  0  0  0  0  0  0  0  0
  -24.9340  -34.0160   24.9280 H   0  0  0  0  0  0  0  0  0  0  0  0
  -24.0720  -36.7290   23.0760 C   0  0  0  0  0  1  0  0  0  0  0  0
  -25.3290  -36.3260   23.8600 C   0  0  0  0  0  3  0  0  0  0  0  0
  -27.4700  -37.2140   24.6720 C   0  0  0  0  0  1  0  0  0  0  0  0
  -26.3490  -37.3920   23.7520 N   0  0  0  0  0  0  0  0  0  0  0  0
  -25.9370  -38.3040   23.9290 H   0  0  0  0  0  0  0  0  0  0  0  0
  1  2  1  0
  1 53  1  0
  2  3  1  0
  3  6  1  0
  3  5  1  0
  4  3  1  0
  6  7  1  0
  7  8  1  0
  9  8  1  0
  9 10  1  0
  9 12  1  0
 11  9  1  0
 13 12  1  0
 13 14  1  0
 15 23  1  0
 16 21  1  0
 17 18  1  0
 17 16  1  0
 19 18  1  0
 19 28  1  0
 19 20  1  0
 21 15  1  0
 21 20  1  0
 22 15  2  0
 23 14  1  0
 23 24  1  0
 25 26  2  0
 26 45  1  0
 27 26  1  0
 27 30  1  0
 28 25  1  0
 28 29  1  0
 29 27  2  0
 30 31  1  0
 31 32  2  0
 33 36  1  0
 33 32  1  0
 34 33  2  0
 35 34  1  0
 35 30  2  0
 36 37  1  0
 37 38  1  0
 38 39  2  0
 40 39  1  0
 40 44  1  0
 41 40  2  0
 42 37  2  0
 42 41  1  0
 43 42  1  0
 45 46  1  0
 46 49  1  0
 46 48  1  0
 47 45  2  0
 50 51  1  0
 50 25  1  0
 52 50  1  0
 53 54  1  0
 54 56  1  0
 55 59  1  0
 55 57  2  0
 56 55  1  0
 58 56  1  0
 60 61  1  0
 60 59  1  0
 62 64  1  0
 62 61  1  0
 63 74  2  0
 64 69  1  0
 65 73  1  0
 65 75  1  0
 66 72  1  0
 66 68  1  0
 67 73  1  0
 68 67  1  0
 69 68  2  0
 70 71  1  0
 70 64  2  0
 71 66  2  0
 72 65  1  0
 73 63  1  0
 75 77  2  0
 76 75  1  0
 78 76  1  0
 79 88  2  0
 79 84  1  0
 80 76  1  0
 80 84  1  0
 81 80  1  0
 82 83  1  0
 82 81  1  0
 83 79  1  0
 84 85  2  0
 85 86  1  0
 87 86  2  0
 88 87  1  0
 89 63  1  0
 89 94  1  0
 89 90  1  0
 90 93  1  1
 90 91  1  0
 92 90  1  0
 94 97  1  0
 95 99  1  0
 95 94  1  0
 96 95  2  0
 99 98  1  0
101 99  1  0
101102  1  0
101100  1  0
M  ISO  4  15 100  23 100  61 101  62 101
M  END
>  <TORSDO>  (46) 
F 31

>  <SCORE>  (46) 
-10.451

>  <name>  (46) 
48

>  <ligand_id>  (46) 
48

>  <original_smiles>  (46) 
[H]c1c([H])c([H])c2c(c1[H])C([H])([H])C([H])([H])C([H])([H])C2([H])N([H])C(=O)C1([H])N(C(=O)C([H])(N([H])C(=O)C([H])(N([H])C([H])([H])[H])C([H])([H])[H])C(C([H])([H])[H])(C([H])([H])[H])C([H])([H])[H])C([H])([H])c2c([H])c(OC([H])([H])C([H])([H])C([H])([H])C(=O)N([H])C([H])([H])C([H])([H])C([H])([H])C([H])([H])[N+]([H])([H])C([H])([H])C([H])([H])C([H])([H])[N+]([H])([H])C([H])([H])C([H])([H])C([H])([H])N([H])C(=O)N3C([H])([H])C([H])([H])C([H])([H])C([H])(n4nc(-c5c([H])c([H])c(Oc6c([H])c([H])c(F)c([H])c6F)c([H])c5[H])c(C(=O)N([H])[H])c4N([H])[H])C3([H])[H])c([H])c([H])c2C1([H])[H]

>  <smiles>  (46) 
[H]c1c([H])c([H])c2c(c1[H])C([H])([H])C([H])([H])C([H])([H])C2([H])N([H])C(=O)C1([H])N(C(=O)C([H])(N([H])C(=O)C([H])(N([H])C([H])([H])[H])C([H])([H])[H])C(C([H])([H])[H])(C([H])([H])[H])C([H])([H])[H])C([H])([H])c2c([H])c(OC([H])([H])C([H])([H])C([H])([H])C(=O)N([H])C([H])([H])C([H])([H])C([H])([H])C([H])([H])[N+]([H])([H])C([H])([H])C([H])([H])C([H])([H])[N+]([H])([H])C([H])([H])C([H])([H])C([H])([H])N([H])C(=O)N3C([H])([H])C([H])([H])C([H])([H])C([H])(n4nc(-c5c([H])c([H])c(Oc6c([H])c([H])c(F)c([H])c6F)c([H])c5[H])c(C(=O)N([H])[H])c4N([H])[H])C3([H])[H])c([H])c([H])c2C1([H])[H]

$$$$
49:0:0
     RDKit          3D

105112  0  0  1  0  0  0  0  0999 V2000
  -31.2280  -21.7550   22.5120 C   0  0  0  0  0  3  0  0  0  0  0  0
  -30.9950  -19.5040   21.4490 C   0  0  0  0  0  0  0  0  0  0  0  0
  -30.5030  -20.7000   21.8000 N   0  0  0  0  0  0  0  0  0  0  0  0
  -32.1630  -19.1750   21.6580 O   0  0  0  0  0  0  0  0  0  0  0  0
  -29.5320  -20.8850   21.5810 H   0  0  0  0  0  0  0  0  0  0  0  0
  -30.0030  -18.5500   20.7750 C   0  0  0  0  0  2  0  0  0  0  0  0
  -30.5760  -17.2270   20.2160 C   0  0  0  0  0  2  0  0  0  0  0  0
  -31.1720  -16.2590   21.2630 C   0  0  0  0  0  2  0  0  0  0  0  0
  -31.2420  -13.9780   20.1860 C   0  0  0  0  0  0  0  0  0  0  0  0
  -30.8150  -11.8000   19.1010 C   0  0  0  0  0  2  0  0  0  0  0  0
  -29.8280  -11.9680   17.9290 C   0  0  0  0  0  2  0  0  0  0  0  0
  -28.3670  -11.9130   18.4210 C   0  0  0  0  0  2  0  0  0  0  0  0
  -28.1130  -12.8470   19.6340 C   0  0  0  0  0  3  0  0  0  0  0  0
  -29.1900  -12.6150   20.7160 C   0  0  0  0  0  2  0  0  0  0  0  0
  -30.5150  -12.8330   20.1010 N   0  0  0  0  0  0  0  0  0  0  0  0
  -32.2690  -14.1870   19.5320 O   0  0  0  0  0  0  0  0  0  0  0  0
  -30.7290  -14.8860   21.0270 N   0  0  0  0  0  0  0  0  0  0  0  0
  -29.9040  -14.5880   21.5290 H   0  0  0  0  0  0  0  0  0  0  0  0
  -25.8120  -13.6340   20.4840 C   0  0  0  0  0  0  0  0  0  0  0  0
  -24.7030  -12.9420   20.8920 C   0  0  0  0  0  0  0  0  0  0  0  0
  -25.0450  -11.5580   20.7980 C   0  0  0  0  0  0  0  0  0  0  0  0
  -26.7660  -12.6760   20.1730 N   0  0  0  0  0  0  0  0  0  0  0  0
  -26.3080  -11.4220   20.4140 N   0  0  0  0  0  0  0  0  0  0  0  0
  -24.2260  -10.3550   20.9950 C   0  0  0  0  0  0  0  0  0  0  0  0
  -24.6100   -9.3440   21.9040 C   0  0  0  0  0  3  0  0  0  0  0  0
  -23.8000   -8.2030   22.0900 C   0  0  0  0  0  3  0  0  0  0  0  0
  -22.5910   -8.0650   21.3670 C   0  0  0  0  0  0  0  0  0  0  0  0
  -22.2240   -9.0630   20.4460 C   0  0  0  0  0  3  0  0  0  0  0  0
  -23.0340  -10.1960   20.2600 C   0  0  0  0  0  3  0  0  0  0  0  0
  -21.7530   -6.9810   21.4620 O   0  0  0  0  0  0  0  0  0  0  0  0
  -21.6570   -6.2460   22.6160 C   0  0  0  0  0  0  0  0  0  0  0  0
  -21.2440   -6.8220   23.8350 C   0  0  0  0  0  3  0  0  0  0  0  0
  -21.0930   -6.0150   24.9810 C   0  0  0  0  0  3  0  0  0  0  0  0
  -21.3450   -4.6320   24.9070 C   0  0  0  0  0  0  0  0  0  0  0  0
  -21.7510   -4.0550   23.6910 C   0  0  0  0  0  3  0  0  0  0  0  0
  -21.9040   -4.8600   22.5480 C   0  0  0  0  0  0  0  0  0  0  0  0
  -22.2750   -4.2960   21.3740 F   0  0  0  0  0  0  0  0  0  0  0  0
  -21.1910   -3.8540   26.0030 F   0  0  0  0  0  0  0  0  0  0  0  0
  -23.3670  -13.5230   21.2570 C   0  0  0  0  0  0  0  0  0  0  0  0
  -22.6440  -12.8760   22.1650 N   0  0  0  0  0  0  0  0  0  0  0  0
  -22.9790  -14.5850   20.7740 O   0  0  0  0  0  0  0  0  0  0  0  0
  -22.9740  -12.0180   22.5820 H   0  0  0  0  0  0  0  0  0  0  0  0
  -21.7470  -13.2460   22.4460 H   0  0  0  0  0  0  0  0  0  0  0  0
  -26.0830  -14.9900   20.3370 N   0  0  0  0  0  0  0  0  0  0  0  0
  -25.3820  -15.7040   20.5020 H   0  0  0  0  0  0  0  0  0  0  0  0
  -26.9520  -15.3670   19.9780 H   0  0  0  0  0  0  0  0  0  0  0  0
  -32.1930  -22.5330   21.5750 C   0  0  0  0  0  2  0  0  0  0  0  0
  -31.6580  -22.7790   20.1450 C   0  0  0  0  0  2  0  0  0  0  0  0
  -32.4590  -23.8290   19.3590 C   0  0  0  0  0  2  0  0  0  0  0  0
  -31.7650  -24.2480   18.0520 C   0  0  0  0  0  2  0  0  0  0  0  0
  -30.5220  -22.7870   16.4130 C   0  0  0  0  0  0  0  0  0  0  0  0
  -30.5480  -21.7130   15.6330 N   0  0  0  0  0  4  0  0  0  0  0  0
  -29.4070  -23.5130   16.4770 N   0  0  0  0  0  0  0  0  0  0  0  0
  -31.6120  -23.1130   17.1230 N   0  0  0  0  0  0  0  0  0  0  0  0
  -29.7540  -21.4230   15.0810 H   0  0  0  0  0  0  0  0  0  0  0  0
  -31.3750  -21.1350   15.5610 H   0  0  0  0  0  0  0  0  0  0  0  0
  -28.5800  -23.2760   15.9480 H   0  0  0  0  0  0  0  0  0  0  0  0
  -29.3740  -24.3610   17.0230 H   0  0  0  0  0  0  0  0  0  0  0  0
  -32.4550  -22.5740   16.9760 H   0  0  0  0  0  0  0  0  0  0  0  0
  -30.2530  -22.6130   23.3730 C   0  0  0  0  0  2  0  0  0  0  0  0
  -28.7140  -24.0670   22.4110 N   0  0  0  0  0  2  0  0  0  0  0  0
  -29.9180  -23.8600   22.6460 N   0  0  0  0  0  2  0  0  0  0  0  0
  -28.4710  -25.3800   21.7660 C   0  0  0  0  0  2  0  0  0  0  0  0
  -27.8120  -25.0930   20.4060 C   0  0  0  0  0  2  0  0  0  0  0  0
  -27.8240  -26.2870   19.6320 O   0  0  0  0  0  0  0  0  0  0  0  0
  -24.4730  -31.5190   23.0900 C   0  0  0  0  0  0  0  0  0  0  0  0
  -26.7000  -27.0630   19.7530 C   0  0  0  0  0  0  0  0  0  0  0  0
  -23.1150  -30.2700   21.4400 C   0  0  0  0  0  3  0  0  0  0  0  0
  -24.4090  -28.6910   19.9150 C   0  0  0  0  0  0  0  0  0  0  0  0
  -25.6470  -30.4730   21.1590 C   0  0  0  0  0  2  0  0  0  0  0  0
  -25.6190  -29.1250   20.4740 C   0  0  0  0  0  0  0  0  0  0  0  0
  -26.7710  -28.3170   20.3890 C   0  0  0  0  0  3  0  0  0  0  0  0
  -25.4780  -26.6270   19.2000 C   0  0  0  0  0  3  0  0  0  0  0  0
  -24.3310  -27.4390   19.2780 C   0  0  0  0  0  3  0  0  0  0  0  0
  -23.2310  -29.6280   20.0310 C   0  0  0  0  0  2  0  0  0  0  0  0
  -24.4330  -30.7650   21.9550 N   0  0  0  0  0  0  0  0  0  0  0  0
  -23.4340  -31.8430   23.6800 O   0  0  0  0  0  0  0  0  0  0  0  0
  -22.4280  -29.2600   22.3860 C   0  0  0  0  0  0  0  0  0  0  0  0
  -21.0920  -29.1700   22.2930 N   0  0  0  0  0  0  0  0  0  0  0  0
  -23.0930  -28.5600   23.1550 O   0  0  0  0  0  0  0  0  0  0  0  0
  -20.6190  -29.7830   21.6430 H   0  0  0  0  0  0  0  0  0  0  0  0
  -17.6610  -28.1930   22.8590 C   0  0  0  0  0  0  0  0  0  0  0  0
  -20.2370  -28.2610   23.0570 C   0  0  0  0  0  3  0  0  0  0  0  0
  -20.2210  -26.8500   22.4240 C   0  0  0  0  0  2  0  0  0  0  0  0
  -19.0700  -26.6450   21.4340 C   0  0  0  0  0  2  0  0  0  0  0  0
  -17.7220  -26.8610   22.1280 C   0  0  0  0  0  2  0  0  0  0  0  0
  -18.8440  -28.8570   23.2800 C   0  0  0  0  0  0  0  0  0  0  0  0
  -18.7330  -30.1090   23.9230 C   0  0  0  0  0  3  0  0  0  0  0  0
  -17.4730  -30.6940   24.1480 C   0  0  0  0  0  3  0  0  0  0  0  0
  -16.3060  -30.0250   23.7420 C   0  0  0  0  0  3  0  0  0  0  0  0
  -16.4020  -28.7760   23.1030 C   0  0  0  0  0  3  0  0  0  0  0  0
  -25.8220  -32.0340   23.6850 C   0  0  0  0  0  3  0  0  0  0  0  0
  -25.6220  -33.4310   24.0870 N   0  0  0  0  0  0  0  0  0  0  0  0
  -26.0100  -34.4920   23.3670 C   0  0  0  0  0  0  0  0  0  0  0  0
  -26.6450  -34.3900   22.3130 O   0  0  0  0  0  0  0  0  0  0  0  0
  -25.0610  -33.5900   24.9110 H   0  0  0  0  0  0  0  0  0  0  0  0
  -24.4030  -36.4130   23.1410 C   0  0  0  0  0  1  0  0  0  0  0  0
  -25.6330  -35.8880   23.8990 C   0  0  0  0  0  3  0  0  0  0  0  0
  -27.8400  -36.5890   24.7150 C   0  0  0  0  0  1  0  0  0  0  0  0
  -26.7350  -36.8710   23.8030 N   0  0  0  0  0  0  0  0  0  0  0  0
  -26.3980  -37.8110   23.9960 H   0  0  0  0  0  0  0  0  0  0  0  0
  -26.3350  -31.1690   24.9000 C   0  0  1  0  0  0  0  0  0  0  0  0
  -25.2720  -30.9530   26.0030 C   0  0  0  0  0  1  0  0  0  0  0  0
  -26.8030  -29.7760   24.4160 C   0  0  0  0  0  1  0  0  0  0  0  0
  -27.5630  -31.8500   25.5470 C   0  0  0  0  0  1  0  0  0  0  0  0
  1 47  1  0
  1 60  1  0
  2  4  2  0
  2  3  1  0
  3  1  1  0
  5  3  1  0
  6  2  1  0
  7  6  1  0
  7  8  1  0
  9 17  1  0
 10 15  1  0
 11 12  1  0
 11 10  1  0
 13 12  1  0
 13 22  1  0
 13 14  1  0
 15  9  1  0
 15 14  1  0
 16  9  2  0
 17  8  1  0
 17 18  1  0
 19 20  2  0
 20 39  1  0
 21 20  1  0
 21 24  1  0
 22 23  1  0
 22 19  1  0
 23 21  2  0
 24 25  1  0
 25 26  2  0
 27 30  1  0
 27 26  1  0
 28 27  2  0
 29 28  1  0
 29 24  2  0
 30 31  1  0
 31 32  1  0
 32 33  2  0
 34 33  1  0
 34 38  1  0
 35 34  2  0
 36 31  2  0
 36 35  1  0
 37 36  1  0
 39 40  1  0
 40 43  1  0
 40 42  1  0
 41 39  2  0
 44 19  1  0
 44 45  1  0
 46 44  1  0
 48 47  1  0
 49 48  1  0
 50 49  1  0
 51 53  1  0
 51 54  1  0
 52 51  2  0
 53 58  1  0
 54 50  1  0
 55 52  1  0
 56 52  1  0
 57 53  1  0
 59 54  1  0
 61 62  1  0
 62 60  1  0
 63 61  1  0
 64 63  1  0
 65 67  1  0
 65 64  1  0
 66 77  2  0
 67 72  1  0
 68 76  1  0
 68 78  1  0
 69 75  1  0
 69 71  1  0
 70 76  1  0
 71 70  1  0
 72 71  2  0
 73 74  1  0
 73 67  2  0
 74 69  2  0
 75 68  1  0
 76 66  1  0
 78 80  2  0
 79 78  1  0
 81 79  1  0
 82 91  2  0
 82 87  1  0
 83 79  1  0
 83 87  1  0
 84 83  1  0
 85 86  1  0
 85 84  1  0
 86 82  1  0
 87 88  2  0
 88 89  1  0
 90 89  2  0
 91 90  1  0
 92 66  1  0
 92 93  1  0
 92102  1  0
 93 96  1  0
 94 98  1  0
 94 93  1  0
 95 94  2  0
 98 97  1  0
100 98  1  0
100101  1  0
100 99  1  0
102105  1  1
102103  1  0
104102  1  0
M  ISO  4   9 100  17 100  64 101  65 101
M  END
>  <TORSDO>  (47) 
F 29

>  <SCORE>  (47) 
-10.235

>  <name>  (47) 
49

>  <ligand_id>  (47) 
49

>  <original_smiles>  (47) 
[H]c1c([H])c([H])c2c(c1[H])C([H])([H])C([H])([H])C([H])([H])C2([H])N([H])C(=O)C1([H])N(C(=O)C([H])(N([H])C(=O)C([H])(N([H])C([H])([H])[H])C([H])([H])[H])C(C([H])([H])[H])(C([H])([H])[H])C([H])([H])[H])C([H])([H])c2c([H])c(OC([H])([H])C([H])([H])N=NC([H])([H])C([H])(N([H])C(=O)C([H])([H])C([H])([H])C([H])([H])N([H])C(=O)N3C([H])([H])C([H])([H])C([H])([H])C([H])(n4nc(-c5c([H])c([H])c(Oc6c([H])c([H])c(F)c([H])c6F)c([H])c5[H])c(C(=O)N([H])[H])c4N([H])[H])C3([H])[H])C([H])([H])C([H])([H])C([H])([H])C([H])([H])N([H])C(N([H])[H])=[N+]([H])[H])c([H])c([H])c2C1([H])[H]

>  <smiles>  (47) 
[H]c1c([H])c([H])c2c(c1[H])C([H])([H])C([H])([H])C([H])([H])C2([H])N([H])C(=O)C1([H])N(C(=O)C([H])(N([H])C(=O)C([H])(N([H])C([H])([H])[H])C([H])([H])[H])C(C([H])([H])[H])(C([H])([H])[H])C([H])([H])[H])C([H])([H])c2c([H])c(OC([H])([H])C([H])([H])N=NC([H])([H])C([H])(N([H])C(=O)C([H])([H])C([H])([H])C([H])([H])N([H])C(=O)N3C([H])([H])C([H])([H])C([H])([H])C([H])(n4nc(-c5c([H])c([H])c(Oc6c([H])c([H])c(F)c([H])c6F)c([H])c5[H])c(C(=O)N([H])[H])c4N([H])[H])C3([H])[H])C([H])([H])C([H])([H])C([H])([H])C([H])([H])N([H])C(N([H])[H])=[N+]([H])[H])c([H])c([H])c2C1([H])[H]

$$$$
50:0:0
     RDKit          3D

 94101  0  0  1  0  0  0  0  0999 V2000
  -29.3480  -21.3240   22.0470 C   0  0  0  0  0  2  0  0  0  0  0  0
  -29.1750  -22.8470   22.0640 C   0  0  0  0  0  2  0  0  0  0  0  0
  -28.5420  -23.3600   20.7620 C   0  0  0  0  0  2  0  0  0  0  0  0
  -29.1160  -24.6140   20.4450 O   0  0  0  0  0  0  0  0  0  0  0  0
  -28.7650  -25.0550   19.1420 C   0  0  0  0  0  2  0  0  0  0  0  0
  -29.5260  -26.3490   18.8160 C   0  0  0  0  0  2  0  0  0  0  0  0
  -28.7020  -27.1700   17.9990 O   0  0  0  0  0  0  0  0  0  0  0  0
  -25.8880  -29.2500   24.1820 C   0  0  0  0  0  0  0  0  0  0  0  0
  -27.6140  -27.6730   18.6600 C   0  0  0  0  0  0  0  0  0  0  0  0
  -24.3140  -29.0980   22.2760 C   0  0  0  0  0  3  0  0  0  0  0  0
  -25.3840  -28.7580   19.9870 C   0  0  0  0  0  0  0  0  0  0  0  0
  -26.7940  -29.5670   21.8900 C   0  0  0  0  0  2  0  0  0  0  0  0
  -26.6560  -28.8560   20.5620 C   0  0  0  0  0  0  0  0  0  0  0  0
  -27.7750  -28.3080   19.9060 C   0  0  0  0  0  3  0  0  0  0  0  0
  -26.3340  -27.5710   18.0860 C   0  0  0  0  0  3  0  0  0  0  0  0
  -25.2130  -28.1050   18.7500 C   0  0  0  0  0  3  0  0  0  0  0  0
  -24.2440  -29.3860   20.7520 C   0  0  0  0  0  2  0  0  0  0  0  0
  -25.6910  -29.2810   22.8340 N   0  0  0  0  0  0  0  0  0  0  0  0
  -24.9350  -29.1190   24.9650 O   0  0  0  0  0  0  0  0  0  0  0  0
  -23.7320  -27.6900   22.5350 C   0  0  0  0  0  0  0  0  0  0  0  0
  -22.4720  -27.4820   22.1210 N   0  0  0  0  0  0  0  0  0  0  0  0
  -24.4130  -26.8120   23.0710 O   0  0  0  0  0  0  0  0  0  0  0  0
  -21.9780  -28.2560   21.6990 H   0  0  0  0  0  0  0  0  0  0  0  0
  -19.4900  -25.7630   21.0300 C   0  0  0  0  0  0  0  0  0  0  0  0
  -21.7340  -26.2250   22.2260 C   0  0  0  0  0  3  0  0  0  0  0  0
  -22.3340  -25.1450   21.2970 C   0  0  0  0  0  2  0  0  0  0  0  0
  -21.6640  -25.0940   19.9200 C   0  0  0  0  0  2  0  0  0  0  0  0
  -20.1670  -24.8070   20.0640 C   0  0  0  0  0  2  0  0  0  0  0  0
  -20.2290  -26.4400   22.0360 C   0  0  0  0  0  0  0  0  0  0  0  0
  -19.5570  -27.3460   22.8860 C   0  0  0  0  0  3  0  0  0  0  0  0
  -18.1750  -27.5750   22.7450 C   0  0  0  0  0  3  0  0  0  0  0  0
  -17.4470  -26.8930   21.7550 C   0  0  0  0  0  3  0  0  0  0  0  0
  -18.1040  -25.9870   20.9040 C   0  0  0  0  0  3  0  0  0  0  0  0
  -27.3100  -29.4060   24.8070 C   0  0  0  0  0  3  0  0  0  0  0  0
  -27.8880  -28.0560   25.3880 C   0  0  1  0  0  0  0  0  0  0  0  0
  -26.9090  -27.3210   26.3340 C   0  0  0  0  0  1  0  0  0  0  0  0
  -28.2610  -27.0850   24.2430 C   0  0  0  0  0  1  0  0  0  0  0  0
  -29.1880  -28.3370   26.1770 C   0  0  0  0  0  1  0  0  0  0  0  0
  -27.2240  -30.4280   25.8590 N   0  0  0  0  0  0  0  0  0  0  0  0
  -27.6960  -31.6760   25.7440 C   0  0  0  0  0  0  0  0  0  0  0  0
  -28.3210  -32.0680   24.7550 O   0  0  0  0  0  0  0  0  0  0  0  0
  -26.6750  -30.1940   26.6740 H   0  0  0  0  0  0  0  0  0  0  0  0
  -26.2800  -33.5990   26.5360 C   0  0  0  0  0  1  0  0  0  0  0  0
  -27.4270  -32.6450   26.9100 C   0  0  0  0  0  3  0  0  0  0  0  0
  -29.6610  -32.6180   27.9300 C   0  0  0  0  0  1  0  0  0  0  0  0
  -28.6160  -33.4280   27.3100 N   0  0  0  0  0  0  0  0  0  0  0  0
  -28.3600  -34.1670   27.9600 H   0  0  0  0  0  0  0  0  0  0  0  0
  -30.4810  -20.8220   22.9440 C   0  0  0  0  0  2  0  0  0  0  0  0
  -31.0870  -19.7640   22.2270 O   0  0  0  0  0  0  0  0  0  0  0  0
  -32.2850  -19.2660   22.8010 C   0  0  0  0  0  2  0  0  0  0  0  0
  -33.0390  -18.5090   21.6940 C   0  0  0  0  0  2  0  0  0  0  0  0
  -31.7540  -17.3770   19.8570 C   0  0  0  0  0  0  0  0  0  0  0  0
  -32.1920  -17.4610   21.1210 N   0  0  0  0  0  0  0  0  0  0  0  0
  -32.1030  -18.1470   18.9580 O   0  0  0  0  0  0  0  0  0  0  0  0
  -31.8280  -16.7830   21.7780 H   0  0  0  0  0  0  0  0  0  0  0  0
  -30.7480  -16.2580   19.5780 C   0  0  0  0  0  2  0  0  0  0  0  0
  -31.7600  -14.3300   18.2960 C   0  0  0  0  0  0  0  0  0  0  0  0
  -31.8540  -11.9120   18.8300 C   0  0  0  0  0  2  0  0  0  0  0  0
  -30.8950  -11.0770   17.9530 C   0  0  0  0  0  2  0  0  0  0  0  0
  -29.4780  -11.0480   18.5560 C   0  0  0  0  0  2  0  0  0  0  0  0
  -28.9730  -12.4630   18.9260 C   0  0  0  0  0  3  0  0  0  0  0  0
  -30.0310  -13.1910   19.7710 C   0  0  0  0  0  2  0  0  0  0  0  0
  -31.2890  -13.2650   19.0040 N   0  0  0  0  0  0  0  0  0  0  0  0
  -32.6920  -14.2270   17.4890 O   0  0  0  0  0  0  0  0  0  0  0  0
  -31.0770  -15.4880   18.3730 N   0  0  0  0  0  0  0  0  0  0  0  0
  -31.2590  -16.1140   17.6000 H   0  0  0  0  0  0  0  0  0  0  0  0
  -26.8820  -13.4590   20.0560 C   0  0  0  0  0  0  0  0  0  0  0  0
  -25.7620  -12.8730   20.5840 C   0  0  0  0  0  0  0  0  0  0  0  0
  -25.9490  -11.4650   20.4320 C   0  0  0  0  0  0  0  0  0  0  0  0
  -27.6850  -12.4180   19.6160 N   0  0  0  0  0  0  0  0  0  0  0  0
  -27.1360  -11.2100   19.8990 N   0  0  0  0  0  0  0  0  0  0  0  0
  -25.0420  -10.3450   20.7120 C   0  0  0  0  0  0  0  0  0  0  0  0
  -25.2980   -9.4300   21.7560 C   0  0  0  0  0  3  0  0  0  0  0  0
  -24.4040   -8.3670   22.0150 C   0  0  0  0  0  3  0  0  0  0  0  0
  -23.2340   -8.2180   21.2310 C   0  0  0  0  0  0  0  0  0  0  0  0
  -22.9960   -9.1180   20.1770 C   0  0  0  0  0  3  0  0  0  0  0  0
  -23.8900  -10.1700   19.9180 C   0  0  0  0  0  3  0  0  0  0  0  0
  -22.3200   -7.2060   21.3940 O   0  0  0  0  0  0  0  0  0  0  0  0
  -21.8260   -6.8770   22.6300 C   0  0  0  0  0  0  0  0  0  0  0  0
  -21.1910   -7.8310   23.4570 C   0  0  0  0  0  3  0  0  0  0  0  0
  -20.6360   -7.4350   24.6890 C   0  0  0  0  0  3  0  0  0  0  0  0
  -20.6980   -6.0870   25.0920 C   0  0  0  0  0  0  0  0  0  0  0  0
  -21.3200   -5.1350   24.2640 C   0  0  0  0  0  3  0  0  0  0  0  0
  -21.8790   -5.5290   23.0370 C   0  0  0  0  0  0  0  0  0  0  0  0
  -22.4610   -4.6030   22.2360 F   0  0  0  0  0  0  0  0  0  0  0  0
  -20.1550   -5.7060   26.2710 F   0  0  0  0  0  0  0  0  0  0  0  0
  -24.5450  -13.5770   21.1110 C   0  0  0  0  0  0  0  0  0  0  0  0
  -23.8870  -13.0010   22.1100 N   0  0  0  0  0  0  0  0  0  0  0  0
  -24.2010  -14.6740   20.6720 O   0  0  0  0  0  0  0  0  0  0  0  0
  -24.1760  -12.1070   22.4790 H   0  0  0  0  0  0  0  0  0  0  0  0
  -23.0780  -13.4560   22.5110 H   0  0  0  0  0  0  0  0  0  0  0  0
  -27.2740  -14.7840   19.8930 N   0  0  0  0  0  0  0  0  0  0  0  0
  -26.6860  -15.5650   20.1620 H   0  0  0  0  0  0  0  0  0  0  0  0
  -28.1410  -15.0680   19.4550 H   0  0  0  0  0  0  0  0  0  0  0  0
  1  2  1  0
  1 48  1  0
  3  2  1  0
  4  3  1  0
  5  4  1  0
  6  5  1  0
  7  9  1  0
  7  6  1  0
  8 19  2  0
  9 14  1  0
 10 20  1  0
 10 18  1  0
 11 13  1  0
 11 17  1  0
 12 18  1  0
 13 12  1  0
 14 13  2  0
 15  9  2  0
 15 16  1  0
 16 11  2  0
 17 10  1  0
 18  8  1  0
 20 22  2  0
 21 20  1  0
 23 21  1  0
 24 29  1  0
 25 21  1  0
 26 25  1  0
 27 28  1  0
 27 26  1  0
 28 24  1  0
 29 25  1  0
 29 30  2  0
 31 30  1  0
 32 31  2  0
 33 24  2  0
 33 32  1  0
 34  8  1  0
 34 35  1  0
 34 39  1  0
 35 38  1  1
 35 36  1  0
 37 35  1  0
 39 42  1  0
 40 39  1  0
 40 44  1  0
 41 40  2  0
 44 43  1  0
 44 46  1  0
 46 45  1  0
 46 47  1  0
 49 50  1  0
 49 48  1  0
 51 50  1  0
 52 53  1  0
 53 51  1  0
 53 55  1  0
 54 52  2  0
 56 52  1  0
 57 65  1  0
 57 63  1  0
 58 63  1  0
 59 60  1  0
 59 58  1  0
 61 60  1  0
 61 70  1  0
 61 62  1  0
 63 62  1  0
 64 57  2  0
 65 56  1  0
 66 65  1  0
 67 68  2  0
 68 87  1  0
 69 68  1  0
 69 72  1  0
 70 71  1  0
 70 67  1  0
 71 69  2  0
 72 73  1  0
 73 74  2  0
 75 78  1  0
 75 74  1  0
 76 75  2  0
 77 76  1  0
 77 72  2  0
 78 79  1  0
 79 84  2  0
 79 80  1  0
 80 81  2  0
 81 82  1  0
 82 86  1  0
 83 82  2  0
 84 83  1  0
 85 84  1  0
 87 88  1  0
 88 90  1  0
 88 91  1  0
 89 87  2  0
 92 67  1  0
 92 93  1  0
 94 92  1  0
M  ISO  4   6 101   7 101  57 100  65 100
M  END
>  <TORSDO>  (48) 
F 27

>  <SCORE>  (48) 
-5.465

>  <name>  (48) 
50

>  <ligand_id>  (48) 
50

>  <original_smiles>  (48) 
[H]c1c([H])c([H])c2c(c1[H])C([H])([H])C([H])([H])C([H])([H])C2([H])N([H])C(=O)C1([H])N(C(=O)C([H])(N([H])C(=O)C([H])(N([H])C([H])([H])[H])C([H])([H])[H])C(C([H])([H])[H])(C([H])([H])[H])C([H])([H])[H])C([H])([H])c2c([H])c(OC([H])([H])C([H])([H])OC([H])([H])C([H])([H])C([H])([H])C([H])([H])OC([H])([H])C([H])([H])N([H])C(=O)C([H])([H])N([H])C(=O)N3C([H])([H])C([H])([H])C([H])([H])C([H])(n4nc(-c5c([H])c([H])c(Oc6c([H])c([H])c(F)c([H])c6F)c([H])c5[H])c(C(=O)N([H])[H])c4N([H])[H])C3([H])[H])c([H])c([H])c2C1([H])[H]

>  <smiles>  (48) 
[H]c1c([H])c([H])c2c(c1[H])C([H])([H])C([H])([H])C([H])([H])C2([H])N([H])C(=O)C1([H])N(C(=O)C([H])(N([H])C(=O)C([H])(N([H])C([H])([H])[H])C([H])([H])[H])C(C([H])([H])[H])(C([H])([H])[H])C([H])([H])[H])C([H])([H])c2c([H])c(OC([H])([H])C([H])([H])OC([H])([H])C([H])([H])C([H])([H])C([H])([H])OC([H])([H])C([H])([H])N([H])C(=O)C([H])([H])N([H])C(=O)N3C([H])([H])C([H])([H])C([H])([H])C([H])(n4nc(-c5c([H])c([H])c(Oc6c([H])c([H])c(F)c([H])c6F)c([H])c5[H])c(C(=O)N([H])[H])c4N([H])[H])C3([H])[H])c([H])c([H])c2C1([H])[H]

$$$$
51:0:0
     RDKit          3D

 98105  0  0  1  0  0  0  0  0999 V2000
  -30.5880  -23.6130   17.0270 C   0  0  0  0  0  2  0  0  0  0  0  0
  -31.8410  -24.4460   16.6870 C   0  0  0  0  0  2  0  0  0  0  0  0
  -32.0210  -25.6950   17.5630 C   0  0  0  0  0  2  0  0  0  0  0  0
  -32.1260  -25.3060   18.9260 O   0  0  0  0  0  0  0  0  0  0  0  0
  -31.8300  -26.4730   19.7120 N   0  0  0  0  0  0  0  0  0  0  0  0
  -32.6840  -26.6990   20.2180 H   0  0  0  0  0  0  0  0  0  0  0  0
  -30.8090  -26.0540   20.6620 C   0  0  0  0  0  2  0  0  0  0  0  0
  -29.6910  -27.1040   20.7590 C   0  0  0  0  0  2  0  0  0  0  0  0
  -28.5500  -26.6230   20.0530 O   0  0  0  0  0  0  0  0  0  0  0  0
  -24.5980  -31.7080   23.1540 C   0  0  0  0  0  0  0  0  0  0  0  0
  -27.3980  -27.3750   20.0940 C   0  0  0  0  0  0  0  0  0  0  0  0
  -23.4510  -30.3200   21.4530 C   0  0  0  0  0  3  0  0  0  0  0  0
  -24.9630  -28.8140   20.0570 C   0  0  0  0  0  0  0  0  0  0  0  0
  -25.9720  -30.7180   21.3310 C   0  0  0  0  0  2  0  0  0  0  0  0
  -26.0920  -29.3570   20.6840 C   0  0  0  0  0  0  0  0  0  0  0  0
  -27.3060  -28.6470   20.7080 C   0  0  0  0  0  3  0  0  0  0  0  0
  -26.2500  -26.8370   19.4740 C   0  0  0  0  0  3  0  0  0  0  0  0
  -25.0350  -27.5460   19.4530 C   0  0  0  0  0  3  0  0  0  0  0  0
  -23.7090  -29.6570   20.0720 C   0  0  0  0  0  2  0  0  0  0  0  0
  -24.6890  -30.9290   22.0400 N   0  0  0  0  0  0  0  0  0  0  0  0
  -23.5020  -31.9620   23.6690 O   0  0  0  0  0  0  0  0  0  0  0  0
  -22.7840  -29.2790   22.3790 C   0  0  0  0  0  0  0  0  0  0  0  0
  -21.4610  -29.1040   22.2220 N   0  0  0  0  0  0  0  0  0  0  0  0
  -23.4510  -28.6310   23.1910 O   0  0  0  0  0  0  0  0  0  0  0  0
  -20.9870  -29.6780   21.5390 H   0  0  0  0  0  0  0  0  0  0  0  0
  -18.0640  -27.9670   22.6660 C   0  0  0  0  0  0  0  0  0  0  0  0
  -20.6250  -28.1540   22.9540 C   0  0  0  0  0  3  0  0  0  0  0  0
  -20.6980  -26.7460   22.3210 C   0  0  0  0  0  2  0  0  0  0  0  0
  -19.5940  -26.4880   21.2920 C   0  0  0  0  0  2  0  0  0  0  0  0
  -18.2140  -26.6400   21.9390 C   0  0  0  0  0  2  0  0  0  0  0  0
  -19.1990  -28.6860   23.1280 C   0  0  0  0  0  0  0  0  0  0  0  0
  -19.0110  -29.9300   23.7650 C   0  0  0  0  0  3  0  0  0  0  0  0
  -17.7180  -30.4560   23.9480 C   0  0  0  0  0  3  0  0  0  0  0  0
  -16.5970  -29.7330   23.5070 C   0  0  0  0  0  3  0  0  0  0  0  0
  -16.7710  -28.4910   22.8700 C   0  0  0  0  0  3  0  0  0  0  0  0
  -25.8630  -32.3370   23.8200 C   0  0  0  0  0  3  0  0  0  0  0  0
  -26.3410  -31.5570   25.1050 C   0  0  1  0  0  0  0  0  0  0  0  0
  -25.2160  -31.3150   26.1360 C   0  0  0  0  0  1  0  0  0  0  0  0
  -26.9380  -30.1850   24.7180 C   0  0  0  0  0  1  0  0  0  0  0  0
  -27.4700  -32.3490   25.8060 C   0  0  0  0  0  1  0  0  0  0  0  0
  -25.5450  -33.7320   24.1440 N   0  0  0  0  0  0  0  0  0  0  0  0
  -25.9040  -34.7860   23.3980 C   0  0  0  0  0  0  0  0  0  0  0  0
  -26.6080  -34.6850   22.3890 O   0  0  0  0  0  0  0  0  0  0  0  0
  -24.9220  -33.8840   24.9240 H   0  0  0  0  0  0  0  0  0  0  0  0
  -24.1970  -36.5810   22.9720 C   0  0  0  0  0  1  0  0  0  0  0  0
  -25.3980  -36.1710   23.8400 C   0  0  0  0  0  3  0  0  0  0  0  0
  -27.4900  -37.0530   24.7760 C   0  0  0  0  0  1  0  0  0  0  0  0
  -26.4360  -37.2220   23.7790 N   0  0  0  0  0  0  0  0  0  0  0  0
  -26.0240  -38.1430   23.9040 H   0  0  0  0  0  0  0  0  0  0  0  0
  -29.3100  -24.4600   17.2130 C   0  0  0  0  0  2  0  0  0  0  0  0
  -27.9910  -23.6730   17.2830 C   0  0  0  0  0  2  0  0  0  0  0  0
  -28.3000  -21.3420   18.0870 C   0  0  0  0  0  0  0  0  0  0  0  0
  -28.0220  -22.6320   18.3060 N   0  0  0  0  0  0  0  0  0  0  0  0
  -28.4220  -20.8710   16.9540 O   0  0  0  0  0  0  0  0  0  0  0  0
  -27.8800  -22.9220   19.2640 H   0  0  0  0  0  0  0  0  0  0  0  0
  -29.1980  -19.4740   19.3330 C   0  0  0  0  0  3  0  0  0  0  0  0
  -28.4800  -20.6120   19.3280 C   0  0  0  0  0  3  0  0  0  0  0  0
  -29.4520  -18.6840   20.5200 C   0  0  0  0  0  3  0  0  0  0  0  0
  -30.2420  -17.6010   20.4770 C   0  0  0  0  0  3  0  0  0  0  0  0
  -30.5670  -16.6940   21.6490 C   0  0  0  0  0  2  0  0  0  0  0  0
  -30.8020  -14.4810   20.5030 C   0  0  0  0  0  0  0  0  0  0  0  0
  -30.4960  -12.4240   19.1790 C   0  0  0  0  0  2  0  0  0  0  0  0
  -29.5410  -12.6900   17.9990 C   0  0  0  0  0  2  0  0  0  0  0  0
  -28.0690  -12.5270   18.4300 C   0  0  0  0  0  2  0  0  0  0  0  0
  -27.7420  -13.3050   19.7310 C   0  0  0  0  0  3  0  0  0  0  0  0
  -28.7950  -12.9950   20.8170 C   0  0  0  0  0  2  0  0  0  0  0  0
  -30.1260  -13.3270   20.2760 N   0  0  0  0  0  0  0  0  0  0  0  0
  -31.8570  -14.7800   19.9350 O   0  0  0  0  0  0  0  0  0  0  0  0
  -30.1930  -15.3160   21.3550 N   0  0  0  0  0  0  0  0  0  0  0  0
  -29.3370  -14.9770   21.7720 H   0  0  0  0  0  0  0  0  0  0  0  0
  -25.3310  -13.8900   20.4230 C   0  0  0  0  0  0  0  0  0  0  0  0
  -24.2710  -13.1040   20.7940 C   0  0  0  0  0  0  0  0  0  0  0  0
  -24.7530  -11.7590   20.7730 C   0  0  0  0  0  0  0  0  0  0  0  0
  -26.3890  -13.0210   20.2020 N   0  0  0  0  0  0  0  0  0  0  0  0
  -26.0440  -11.7360   20.4660 N   0  0  0  0  0  0  0  0  0  0  0  0
  -24.0480  -10.4870   20.9720 C   0  0  0  0  0  0  0  0  0  0  0  0
  -24.4810   -9.5440   21.9290 C   0  0  0  0  0  3  0  0  0  0  0  0
  -23.7760   -8.3360   22.1120 C   0  0  0  0  0  3  0  0  0  0  0  0
  -22.6240   -8.0610   21.3380 C   0  0  0  0  0  0  0  0  0  0  0  0
  -22.2090   -8.9940   20.3710 C   0  0  0  0  0  3  0  0  0  0  0  0
  -22.9150  -10.1950   20.1860 C   0  0  0  0  0  3  0  0  0  0  0  0
  -21.8890   -6.9020   21.4300 O   0  0  0  0  0  0  0  0  0  0  0  0
  -21.8230   -6.1840   22.5960 C   0  0  0  0  0  0  0  0  0  0  0  0
  -21.3160   -6.7450   23.7890 C   0  0  0  0  0  3  0  0  0  0  0  0
  -21.2000   -5.9500   24.9460 C   0  0  0  0  0  3  0  0  0  0  0  0
  -21.5810   -4.5940   24.9110 C   0  0  0  0  0  0  0  0  0  0  0  0
  -22.0800   -4.0330   23.7240 C   0  0  0  0  0  3  0  0  0  0  0  0
  -22.1980   -4.8260   22.5680 C   0  0  0  0  0  0  0  0  0  0  0  0
  -22.6610   -4.2750   21.4200 F   0  0  0  0  0  0  0  0  0  0  0  0
  -21.4620   -3.8280   26.0210 F   0  0  0  0  0  0  0  0  0  0  0  0
  -22.8660  -13.5610   21.0630 C   0  0  0  0  0  0  0  0  0  0  0  0
  -22.1470  -12.8540   21.9270 N   0  0  0  0  0  0  0  0  0  0  0  0
  -22.4140  -14.5800   20.5410 O   0  0  0  0  0  0  0  0  0  0  0  0
  -22.5260  -12.0310   22.3730 H   0  0  0  0  0  0  0  0  0  0  0  0
  -21.2050  -13.1410   22.1480 H   0  0  0  0  0  0  0  0  0  0  0  0
  -25.4770  -15.2620   20.2360 N   0  0  0  0  0  0  0  0  0  0  0  0
  -24.7060  -15.9120   20.3470 H   0  0  0  0  0  0  0  0  0  0  0  0
  -26.3290  -15.7080   19.9210 H   0  0  0  0  0  0  0  0  0  0  0  0
  1 50  1  0
  2  1  1  0
  2  3  1  0
  3  4  1  0
  4  5  1  0
  5  6  1  0
  5  7  1  0
  7  8  1  0
  9 11  1  0
  9  8  1  0
 10 21  2  0
 11 16  1  0
 12 20  1  0
 12 22  1  0
 13 19  1  0
 13 15  1  0
 14 20  1  0
 15 16  2  0
 15 14  1  0
 17 11  2  0
 18 17  1  0
 18 13  2  0
 19 12  1  0
 20 10  1  0
 22 24  2  0
 23 22  1  0
 25 23  1  0
 26 35  2  0
 26 31  1  0
 27 23  1  0
 27 31  1  0
 28 27  1  0
 29 30  1  0
 29 28  1  0
 30 26  1  0
 31 32  2  0
 32 33  1  0
 34 33  2  0
 35 34  1  0
 36 10  1  0
 36 41  1  0
 36 37  1  0
 37 40  1  1
 37 38  1  0
 39 37  1  0
 41 44  1  0
 42 46  1  0
 42 41  1  0
 43 42  2  0
 46 45  1  0
 48 46  1  0
 48 49  1  0
 48 47  1  0
 50 51  1  0
 51 53  1  0
 52 53  1  0
 52 57  1  0
 53 55  1  0
 54 52  2  0
 56 58  1  0
 57 56  2  0
 59 58  2  0
 59 60  1  0
 61 69  1  0
 62 67  1  0
 63 64  1  0
 63 62  1  0
 65 64  1  0
 65 74  1  0
 65 66  1  0
 67 61  1  0
 67 66  1  0
 68 61  2  0
 69 60  1  0
 69 70  1  0
 71 72  2  0
 72 91  1  0
 73 72  1  0
 73 76  1  0
 74 71  1  0
 74 75  1  0
 75 73  2  0
 76 77  1  0
 77 78  2  0
 79 82  1  0
 79 78  1  0
 80 79  2  0
 81 80  1  0
 81 76  2  0
 82 83  1  0
 83 84  1  0
 84 85  2  0
 86 85  1  0
 86 90  1  0
 87 86  2  0
 88 83  2  0
 88 87  1  0
 89 88  1  0
 91 92  1  0
 92 95  1  0
 92 94  1  0
 93 91  2  0
 96 97  1  0
 96 71  1  0
 98 96  1  0
M  ISO  4   8 101   9 101  61 100  69 100
M  END
>  <TORSDO>  (49) 
F 28

>  <SCORE>  (49) 
-11.377

>  <name>  (49) 
51

>  <ligand_id>  (49) 
51

>  <original_smiles>  (49) 
[H]C(C(=O)N([H])C([H])([H])C([H])([H])C([H])([H])C([H])([H])C([H])([H])ON([H])C([H])([H])C([H])([H])Oc1c([H])c([H])c2c(c1[H])C([H])([H])N(C(=O)C([H])(N([H])C(=O)C([H])(N([H])C([H])([H])[H])C([H])([H])[H])C(C([H])([H])[H])(C([H])([H])[H])C([H])([H])[H])C([H])(C(=O)N([H])C1([H])c3c([H])c([H])c([H])c([H])c3C([H])([H])C([H])([H])C1([H])[H])C2([H])[H])=C([H])C([H])=C([H])C([H])([H])N([H])C(=O)N1C([H])([H])C([H])([H])C([H])([H])C([H])(n2nc(-c3c([H])c([H])c(Oc4c([H])c([H])c(F)c([H])c4F)c([H])c3[H])c(C(=O)N([H])[H])c2N([H])[H])C1([H])[H]

>  <smiles>  (49) 
[H]C(C(=O)N([H])C([H])([H])C([H])([H])C([H])([H])C([H])([H])C([H])([H])ON([H])C([H])([H])C([H])([H])Oc1c([H])c([H])c2c(c1[H])C([H])([H])N(C(=O)C([H])(N([H])C(=O)C([H])(N([H])C([H])([H])[H])C([H])([H])[H])C(C([H])([H])[H])(C([H])([H])[H])C([H])([H])[H])C([H])(C(=O)N([H])C1([H])c3c([H])c([H])c([H])c([H])c3C([H])([H])C([H])([H])C1([H])[H])C2([H])[H])=C([H])C([H])=C([H])C([H])([H])N([H])C(=O)N1C([H])([H])C([H])([H])C([H])([H])C([H])(n2nc(-c3c([H])c([H])c(Oc4c([H])c([H])c(F)c([H])c4F)c([H])c3[H])c(C(=O)N([H])[H])c2N([H])[H])C1([H])[H]

$$$$
52:0:0
     RDKit          3D

 98 98  0  0  1  0  0  0  0  0999 V2000
  -21.2240  -27.5970   18.3550 N   0  0  0  0  0  4  0  0  0  0  0  0
  -21.3200  -28.5770   18.1140 H   0  0  0  0  0  0  0  0  0  0  0  0
  -22.0900  -27.3420   18.7850 H   0  0  0  0  0  0  0  0  0  0  0  0
  -20.1830  -27.4980   19.4980 C   0  0  0  0  0  2  0  0  0  0  0  0
  -20.6150  -27.9660   21.0150 C   0  0  0  0  0  2  0  0  0  0  0  0
  -20.1060  -27.3270   22.2700 O   0  0  0  0  0  0  0  0  0  0  0  0
  -20.7110  -27.4670   23.6810 C   0  0  0  0  0  1  0  0  0  0  0  0
  -23.4320  -25.4020   24.4610 C   0  0  0  0  0 15  0  0  0  0  0  0
  -24.8740  -24.0140   23.2580 C   0  0  0  0  0 15  0  0  0  0  0  0
  -26.5490  -23.3570   21.8100 C   0  0  0  0  0 15  0  0  0  0  0  0
  -27.7640  -21.8410   20.5870 C   0  0  0  0  0 15  0  0  0  0  0  0
  -29.5660  -21.0760   19.3680 C   0  0  0  0  0 15  0  0  0  0  0  0
  -30.6100  -19.8250   17.7550 C   0  0  0  0  0 15  0  0  0  0  0  0
  -33.2320  -18.1440   15.6620 C   0  0  0  0  0  0  0  0  0  0  0  0
  -34.6030  -16.0350   14.2560 C   0  0  0  0  0  2  0  0  0  0  0  0
  -33.8580  -14.6820   13.9140 C   0  0  0  0  0  2  0  0  0  0  0  0
  -33.5880  -13.8580   15.1830 C   0  0  0  0  0  2  0  0  0  0  0  0
  -33.2710  -14.8600   16.3020 C   0  0  0  0  0  3  0  0  0  0  0  0
  -34.3470  -15.9160   16.5250 C   0  0  0  0  0  2  0  0  0  0  0  0
  -34.0170  -16.8560   15.4970 N   0  0  0  0  0  0  0  0  0  0  0  0
  -33.5680  -18.6130   14.5150 O   0  0  0  0  0  0  0  0  0  0  0  0
  -32.1640  -18.7630   16.9080 N   0  0  0  0  0  2  0  0  0  0  0  0
  -32.3020  -18.0350   17.6000 H   0  0  0  0  0  0  0  0  0  0  0  0
  -32.0060  -14.7940   18.4280 C   0  0  0  0  0  0  0  0  0  0  0  0
  -32.1210  -14.0020   19.5250 C   0  0  0  0  0  0  0  0  0  0  0  0
  -33.2060  -13.1090   19.2640 C   0  0  0  0  0  0  0  0  0  0  0  0
  -32.9730  -14.3210   17.5700 N   0  0  0  0  0  0  0  0  0  0  0  0
  -33.7610  -13.3670   18.0930 N   0  0  0  0  0  0  0  0  0  0  0  0
  -33.6980  -11.9660   20.0210 C   0  0  0  0  0  0  0  0  0  0  0  0
  -35.0570  -11.8480   20.3800 C   0  0  0  0  0  3  0  0  0  0  0  0
  -35.4950  -10.7330   21.1260 C   0  0  0  0  0  3  0  0  0  0  0  0
  -34.5690   -9.7360   21.5180 C   0  0  0  0  0  0  0  0  0  0  0  0
  -33.2240   -9.8500   21.1270 C   0  0  0  0  0  3  0  0  0  0  0  0
  -32.7900  -10.9570   20.3820 C   0  0  0  0  0  3  0  0  0  0  0  0
  -34.9040   -8.6140   22.2290 O   0  0  0  0  0  0  0  0  0  0  0  0
  -36.0060   -8.5890   23.0440 C   0  0  0  0  0  0  0  0  0  0  0  0
  -36.1530   -9.4810   24.1300 C   0  0  0  0  0  3  0  0  0  0  0  0
  -37.2670   -9.3690   24.9820 C   0  0  0  0  0  3  0  0  0  0  0  0
  -38.2270   -8.3640   24.7610 C   0  0  0  0  0  0  0  0  0  0  0  0
  -38.0800   -7.4740   23.6830 C   0  0  0  0  0  3  0  0  0  0  0  0
  -36.9710   -7.5830   22.8290 C   0  0  0  0  0  0  0  0  0  0  0  0
  -36.8200   -6.7120   21.8030 F   0  0  0  0  0  0  0  0  0  0  0  0
  -39.2930   -8.2500   25.5870 F   0  0  0  0  0  0  0  0  0  0  0  0
  -31.1950  -14.0100   20.6960 C   0  0  0  0  0  0  0  0  0  0  0  0
  -31.7200  -13.7320   21.8810 N   0  0  0  0  0  0  0  0  0  0  0  0
  -30.0080  -14.3040   20.5600 O   0  0  0  0  0  0  0  0  0  0  0  0
  -32.7010  -13.5070   21.9740 H   0  0  0  0  0  0  0  0  0  0  0  0
  -31.1420  -13.7330   22.7080 H   0  0  0  0  0  0  0  0  0  0  0  0
  -31.1610  -15.8470   18.0790 N   0  0  0  0  0  0  0  0  0  0  0  0
  -30.3320  -15.9650   18.6550 H   0  0  0  0  0  0  0  0  0  0  0  0
  -30.9560  -16.0230   17.1020 H   0  0  0  0  0  0  0  0  0  0  0  0
  -21.2680  -26.7530   17.0470 C   0  0  0  0  0  2  0  0  0  0  0  0
  -22.7390  -26.6640   16.3870 C   0  0  0  0  0  2  0  0  0  0  0  0
  -23.3300  -25.7560   15.3450 N   0  0  0  0  0  0  0  0  0  0  0  0
  -23.1290  -26.1290   14.4170 H   0  0  0  0  0  0  0  0  0  0  0  0
  -24.8230  -25.4390   15.4360 C   0  0  0  0  0  2  0  0  0  0  0  0
  -26.0060  -26.2340   14.6100 C   0  0  0  0  0  2  0  0  0  0  0  0
  -27.0860  -27.0420   15.3030 O   0  0  0  0  0  0  0  0  0  0  0  0
  -26.4210  -27.7360   22.3710 C   0  0  0  0  0  0  0  0  0  0  0  0
  -26.5590  -27.7660   16.3320 C   0  0  0  0  0  0  0  0  0  0  0  0
  -24.5020  -27.6570   20.9060 C   0  0  0  0  0  3  0  0  0  0  0  0
  -24.8830  -28.2700   18.4930 C   0  0  0  0  0  0  0  0  0  0  0  0
  -26.6970  -28.6670   20.0810 C   0  0  0  0  0  2  0  0  0  0  0  0
  -26.2590  -28.2800   18.6960 C   0  0  0  0  0  0  0  0  0  0  0  0
  -27.1350  -27.9830   17.6150 C   0  0  0  0  0  3  0  0  0  0  0  0
  -25.2460  -28.1750   16.1320 C   0  0  0  0  0  3  0  0  0  0  0  0
  -24.4190  -28.3950   17.2160 C   0  0  0  0  0  3  0  0  0  0  0  0
  -23.9360  -28.3450   19.6540 C   0  0  0  0  0  2  0  0  0  0  0  0
  -25.9080  -28.0210   21.1540 N   0  0  0  0  0  0  0  0  0  0  0  0
  -25.7390  -27.2010   23.2560 O   0  0  0  0  0  0  0  0  0  0  0  0
  -24.3800  -26.1480   20.7230 C   0  0  0  0  0  0  0  0  0  0  0  0
  -23.1480  -25.7590   20.5500 N   0  0  0  0  0  0  0  0  0  0  0  0
  -25.3370  -25.3780   20.6660 O   0  0  0  0  0  0  0  0  0  0  0  0
  -22.4090  -26.2880   20.9840 H   0  0  0  0  0  0  0  0  0  0  0  0
  -20.3930  -23.8360   18.8960 C   0  0  0  0  0  0  0  0  0  0  0  0
  -22.8470  -24.4740   20.0420 C   0  0  0  0  0  0  0  0  0  0  0  0
  -23.1840  -24.1740   18.6190 C   0  0  0  0  0  3  0  0  0  0  0  0
  -22.1910  -23.7200   17.4780 C   0  0  0  0  0  3  0  0  0  0  0  0
  -20.7250  -23.4770   17.5970 C   0  0  0  0  0  3  0  0  0  0  0  0
  -21.4840  -24.4930   20.1180 C   0  0  0  0  0  0  0  0  0  0  0  0
  -21.0490  -24.3060   21.6700 C   0  0  0  0  0  3  0  0  0  0  0  0
  -19.7080  -23.6410   22.0460 C   0  0  0  0  0  3  0  0  0  0  0  0
  -18.7650  -23.0530   20.9960 C   0  0  0  0  0  3  0  0  0  0  0  0
  -19.0490  -23.1090   19.4640 C   0  0  0  0  0  3  0  0  0  0  0  0
  -27.8890  -28.0960   22.6850 C   0  0  0  0  0  3  0  0  0  0  0  0
  -27.8540  -29.0420   23.8020 N   0  0  0  0  0  0  0  0  0  0  0  0
  -28.0370  -30.3610   23.6740 C   0  0  0  0  0  0  0  0  0  0  0  0
  -28.3440  -30.8960   22.6050 O   0  0  0  0  0  0  0  0  0  0  0  0
  -27.5570  -28.6830   24.6970 H   0  0  0  0  0  0  0  0  0  0  0  0
  -26.5520  -32.0130   24.8460 C   0  0  0  0  0  1  0  0  0  0  0  0
  -27.8620  -31.2160   24.9400 C   0  0  0  0  0  3  0  0  0  0  0  0
  -30.2350  -31.4490   25.5200 C   0  0  0  0  0  1  0  0  0  0  0  0
  -28.9910  -32.1370   25.1820 N   0  0  0  0  0  0  0  0  0  0  0  0
  -28.7710  -32.7830   25.9350 H   0  0  0  0  0  0  0  0  0  0  0  0
  -28.7660  -26.8340   23.0210 C   0  0  1  0  0  0  0  0  0  0  0  0
  -28.1780  -25.9420   24.1380 C   0  0  0  0  0  1  0  0  0  0  0  0
  -28.9770  -25.9330   21.7800 C   0  0  0  0  0  1  0  0  0  0  0  0
  -30.1660  -27.3050   23.4670 C   0  0  0  0  0  1  0  0  0  0  0  0
  1  3  1  0
  1  4  1  0
  2  1  1  0
  4  5  1  0
  5  6  1  0
  6  7  1  0
 14 22  1  0
 15 20  1  0
 16 15  1  0
 16 17  1  0
 18 17  1  0
 18 19  1  0
 18 27  1  0
 20 14  1  0
 20 19  1  0
 21 14  2  0
 22 23  1  0
 24 25  2  0
 25 44  1  0
 26 25  1  0
 26 29  1  0
 27 28  1  0
 27 24  1  0
 28 26  2  0
 29 30  2  0
 29 34  1  0
 30 31  1  0
 31 32  2  0
 32 35  1  0
 33 32  1  0
 34 33  2  0
 35 36  1  0
 36 37  1  0
 37 38  2  0
 39 38  1  0
 39 43  1  0
 40 39  2  0
 41 36  2  0
 41 40  1  0
 42 41  1  0
 44 45  1  0
 45 47  1  0
 45 48  1  0
 46 44  2  0
 49 24  1  0
 49 50  1  0
 51 49  1  0
 52  1  1  0
 53 52  1  0
 54 56  1  0
 54 53  1  0
 55 54  1  0
 57 58  1  0
 57 56  1  0
 58 60  1  0
 59 70  2  0
 60 65  1  0
 61 71  1  0
 61 69  1  0
 62 64  1  0
 62 68  1  0
 63 69  1  0
 64 63  1  0
 65 64  2  0
 66 60  2  0
 66 67  1  0
 67 62  2  0
 68 61  1  0
 69 59  1  0
 72 71  1  0
 72 74  1  0
 73 71  2  0
 75 84  2  0
 75 80  1  0
 76 80  1  0
 76 72  1  0
 77 76  2  0
 78 79  2  0
 78 77  1  0
 79 75  1  0
 80 81  2  0
 81 82  1  0
 83 82  2  0
 84 83  1  0
 85 59  1  0
 85 95  1  0
 85 86  1  0
 86 89  1  0
 87 86  1  0
 87 91  1  0
 88 87  2  0
 91 90  1  0
 91 93  1  0
 93 92  1  0
 93 94  1  0
 95 98  1  1
 95 96  1  0
 97 95  1  0
M  ISO  4  14 100  22 100  57 101  58 101
M  END
>  <TORSDO>  (50) 
F 31

>  <SCORE>  (50) 
-4.966

>  <name>  (50) 
52

>  <ligand_id>  (50) 
52

>  <original_smiles>  (50) 
[H]c1c([H])c([H])c2c(c1[H])C([H])([H])C([H])([H])C([H])([H])C2([H])N([H])C(=O)C1([H])N(C(=O)C([H])(N([H])C(=O)C([H])(N([H])C([H])([H])[H])C([H])([H])[H])C(C([H])([H])[H])(C([H])([H])[H])C([H])([H])[H])C([H])([H])c2c([H])c(OC([H])([H])C([H])([H])N([H])C([H])([H])C([H])([H])[N+]([H])([H])C([H])([H])C([H])([H])OC([H])([H])C([H])([H])C([H])([H])C([H])([H])C([H])([H])C([H])([H])C([H])([H])N([H])C(=O)N3C([H])([H])C([H])([H])C([H])([H])C([H])(n4nc(-c5c([H])c([H])c(Oc6c([H])c([H])c(F)c([H])c6F)c([H])c5[H])c(C(=O)N([H])[H])c4N([H])[H])C3([H])[H])c([H])c([H])c2C1([H])[H]

>  <smiles>  (50) 
[H]c1c([H])c([H])c2c(c1[H])C([H])([H])C([H])([H])C([H])([H])C2([H])N([H])C(=O)C1([H])N(C(=O)C([H])(N([H])C(=O)C([H])(N([H])C([H])([H])[H])C([H])([H])[H])C(C([H])([H])[H])(C([H])([H])[H])C([H])([H])[H])C([H])([H])c2c([H])c(OC([H])([H])C([H])([H])N([H])C([H])([H])C([H])([H])[N+]([H])([H])C([H])([H])C([H])([H])OC([H])([H])C([H])([H])C([H])([H])C([H])([H])C([H])([H])C([H])([H])C([H])([H])N([H])C(=O)N3C([H])([H])C([H])([H])C([H])([H])C([H])(n4nc(-c5c([H])c([H])c(Oc6c([H])c([H])c(F)c([H])c6F)c([H])c5[H])c(C(=O)N([H])[H])c4N([H])[H])C3([H])[H])c([H])c([H])c2C1([H])[H]

$$$$
53:0:0
     RDKit          3D

101108  0  0  1  0  0  0  0  0999 V2000
  -24.6120  -20.5600   18.8930 C   0  0  0  0  0  2  0  0  0  0  0  0
  -23.9720  -20.8150   17.5710 N   0  0  0  0  0  4  0  0  0  0  0  0
  -23.9440  -21.8050   17.3940 H   0  0  0  0  0  0  0  0  0  0  0  0
  -23.0120  -20.5210   17.6490 H   0  0  0  0  0  0  0  0  0  0  0  0
  -24.5250  -20.1160   16.3760 C   0  0  0  0  0  2  0  0  0  0  0  0
  -25.9960  -20.4600   16.1090 C   0  0  0  0  0  2  0  0  0  0  0  0
  -26.7060  -19.6190   16.9940 O   0  0  0  0  0  0  0  0  0  0  0  0
  -28.0590  -19.9350   17.2510 C   0  0  0  0  0  2  0  0  0  0  0  0
  -28.4660  -18.7700   18.1650 C   0  0  0  0  0  2  0  0  0  0  0  0
  -29.8760  -18.7840   18.7790 C   0  0  0  0  0  2  0  0  0  0  0  0
  -29.8370  -17.9520   20.0820 C   0  0  0  0  0  2  0  0  0  0  0  0
  -31.1820  -17.6200   20.7480 C   0  0  0  0  0  2  0  0  0  0  0  0
  -30.9960  -16.9510   22.1380 C   0  0  0  0  0  2  0  0  0  0  0  0
  -31.2950  -14.6080   21.3620 C   0  0  0  0  0  0  0  0  0  0  0  0
  -31.0030  -12.7380   19.7940 C   0  0  0  0  0  2  0  0  0  0  0  0
  -30.1830  -13.2400   18.5930 C   0  0  0  0  0  2  0  0  0  0  0  0
  -28.6700  -13.1100   18.8580 C   0  0  0  0  0  2  0  0  0  0  0  0
  -28.2490  -13.6680   20.2450 C   0  0  0  0  0  3  0  0  0  0  0  0
  -29.2020  -13.1950   21.3680 C   0  0  0  0  0  2  0  0  0  0  0  0
  -30.5840  -13.5150   20.9710 N   0  0  0  0  0  0  0  0  0  0  0  0
  -32.4500  -14.8290   20.9970 O   0  0  0  0  0  0  0  0  0  0  0  0
  -30.5980  -15.5420   22.0200 N   0  0  0  0  0  0  0  0  0  0  0  0
  -29.6700  -15.2890   22.3260 H   0  0  0  0  0  0  0  0  0  0  0  0
  -25.7630  -14.2140   20.6580 C   0  0  0  0  0  0  0  0  0  0  0  0
  -24.6810  -13.4140   20.8970 C   0  0  0  0  0  0  0  0  0  0  0  0
  -25.1820  -12.0760   20.9530 C   0  0  0  0  0  0  0  0  0  0  0  0
  -26.8530  -13.3620   20.5570 N   0  0  0  0  0  0  0  0  0  0  0  0
  -26.4980  -12.0740   20.7980 N   0  0  0  0  0  0  0  0  0  0  0  0
  -24.4790  -10.7930   21.0870 C   0  0  0  0  0  0  0  0  0  0  0  0
  -24.8530   -9.8370   22.0550 C   0  0  0  0  0  3  0  0  0  0  0  0
  -24.1380   -8.6250   22.1780 C   0  0  0  0  0  3  0  0  0  0  0  0
  -23.0420   -8.3580   21.3250 C   0  0  0  0  0  0  0  0  0  0  0  0
  -22.6860   -9.3060   20.3480 C   0  0  0  0  0  3  0  0  0  0  0  0
  -23.4000  -10.5080   20.2250 C   0  0  0  0  0  3  0  0  0  0  0  0
  -22.3090   -7.1980   21.3470 O   0  0  0  0  0  0  0  0  0  0  0  0
  -22.0500   -6.5330   22.5200 C   0  0  0  0  0  0  0  0  0  0  0  0
  -21.4810   -7.1840   23.6350 C   0  0  0  0  0  3  0  0  0  0  0  0
  -21.1680   -6.4470   24.7960 C   0  0  0  0  0  3  0  0  0  0  0  0
  -21.4170   -5.0620   24.8370 C   0  0  0  0  0  0  0  0  0  0  0  0
  -21.9830   -4.4130   23.7260 C   0  0  0  0  0  3  0  0  0  0  0  0
  -22.2930   -5.1450   22.5670 C   0  0  0  0  0  0  0  0  0  0  0  0
  -22.8160   -4.5120   21.4900 F   0  0  0  0  0  0  0  0  0  0  0  0
  -21.1100   -4.3510   25.9480 F   0  0  0  0  0  0  0  0  0  0  0  0
  -23.2470  -13.8520   20.9870 C   0  0  0  0  0  0  0  0  0  0  0  0
  -22.4380  -13.1480   21.7650 N   0  0  0  0  0  0  0  0  0  0  0  0
  -22.8490  -14.8580   20.4010 O   0  0  0  0  0  0  0  0  0  0  0  0
  -22.7770  -12.3360   22.2640 H   0  0  0  0  0  0  0  0  0  0  0  0
  -21.4730  -13.4280   21.8710 H   0  0  0  0  0  0  0  0  0  0  0  0
  -25.9120  -15.5910   20.5150 N   0  0  0  0  0  0  0  0  0  0  0  0
  -25.1290  -16.2320   20.6080 H   0  0  0  0  0  0  0  0  0  0  0  0
  -26.7980  -16.0600   20.3980 H   0  0  0  0  0  0  0  0  0  0  0  0
  -25.9080  -21.3890   19.0810 C   0  0  0  0  0  2  0  0  0  0  0  0
  -26.7100  -21.1270   20.3820 C   0  0  0  0  0  2  0  0  0  0  0  0
  -28.0340  -21.9330   20.4250 C   0  0  0  0  0  2  0  0  0  0  0  0
  -28.8040  -21.8510   21.7640 C   0  0  0  0  0  2  0  0  0  0  0  0
  -30.1580  -22.4660   21.7170 N   0  0  0  0  0  4  0  0  0  0  0  0
  -30.6580  -22.1530   20.9000 H   0  0  0  0  0  0  0  0  0  0  0  0
  -30.6530  -22.0750   22.5040 H   0  0  0  0  0  0  0  0  0  0  0  0
  -30.2450  -23.9440   21.8760 C   0  0  0  0  0  2  0  0  0  0  0  0
  -29.3580  -24.7410   20.9060 C   0  0  0  0  0  2  0  0  0  0  0  0
  -29.4710  -26.1530   21.1360 O   0  0  0  0  0  0  0  0  0  0  0  0
  -25.3240  -31.2910   23.7850 C   0  0  0  0  0  0  0  0  0  0  0  0
  -28.3150  -26.8900   20.9800 C   0  0  0  0  0  0  0  0  0  0  0  0
  -24.3280  -29.9200   21.9890 C   0  0  0  0  0  3  0  0  0  0  0  0
  -25.9420  -28.4150   20.7210 C   0  0  0  0  0  0  0  0  0  0  0  0
  -26.8630  -30.2750   22.1050 C   0  0  0  0  0  2  0  0  0  0  0  0
  -27.0220  -28.9150   21.4590 C   0  0  0  0  0  0  0  0  0  0  0  0
  -28.2110  -28.1630   21.5890 C   0  0  0  0  0  3  0  0  0  0  0  0
  -27.2160  -26.4110   20.2220 C   0  0  0  0  0  3  0  0  0  0  0  0
  -26.0320  -27.1580   20.1050 C   0  0  0  0  0  3  0  0  0  0  0  0
  -24.7010  -29.2740   20.6300 C   0  0  0  0  0  2  0  0  0  0  0  0
  -25.5180  -30.5120   22.6850 N   0  0  0  0  0  0  0  0  0  0  0  0
  -24.1820  -31.5530   24.1910 O   0  0  0  0  0  0  0  0  0  0  0  0
  -23.5720  -28.8800   22.8420 C   0  0  0  0  0  0  0  0  0  0  0  0
  -22.2840  -28.6790   22.5240 N   0  0  0  0  0  0  0  0  0  0  0  0
  -24.1430  -28.2590   23.7410 O   0  0  0  0  0  0  0  0  0  0  0  0
  -21.8910  -29.2250   21.7710 H   0  0  0  0  0  0  0  0  0  0  0  0
  -18.8720  -27.4770   22.6050 C   0  0  0  0  0  0  0  0  0  0  0  0
  -21.3810  -27.7230   23.1700 C   0  0  0  0  0  3  0  0  0  0  0  0
  -21.5480  -26.3090   22.5710 C   0  0  0  0  0  2  0  0  0  0  0  0
  -20.5720  -26.0140   21.4300 C   0  0  0  0  0  2  0  0  0  0  0  0
  -19.1290  -26.1390   21.9270 C   0  0  0  0  0  2  0  0  0  0  0  0
  -19.9340  -28.2240   23.1760 C   0  0  0  0  0  0  0  0  0  0  0  0
  -19.6540  -29.4740   23.7720 C   0  0  0  0  0  3  0  0  0  0  0  0
  -18.3440  -29.9840   23.7980 C   0  0  0  0  0  3  0  0  0  0  0  0
  -17.2920  -29.2300   23.2440 C   0  0  0  0  0  3  0  0  0  0  0  0
  -17.5530  -27.9810   22.6530 C   0  0  0  0  0  3  0  0  0  0  0  0
  -26.5230  -31.9150   24.5640 C   0  0  0  0  0  3  0  0  0  0  0  0
  -26.1460  -33.2810   24.9480 N   0  0  0  0  0  0  0  0  0  0  0  0
  -26.5160  -34.3820   24.2810 C   0  0  0  0  0  0  0  0  0  0  0  0
  -27.2830  -34.3530   23.3150 O   0  0  0  0  0  0  0  0  0  0  0  0
  -25.4890  -33.3750   25.7060 H   0  0  0  0  0  0  0  0  0  0  0  0
  -24.7730  -36.1420   23.8540 C   0  0  0  0  0  1  0  0  0  0  0  0
  -25.9420  -35.7270   24.7620 C   0  0  0  0  0  3  0  0  0  0  0  0
  -27.9610  -36.6200   25.8370 C   0  0  0  0  0  1  0  0  0  0  0  0
  -26.9460  -36.8130   24.8060 N   0  0  0  0  0  0  0  0  0  0  0  0
  -26.5000  -37.7160   24.9540 H   0  0  0  0  0  0  0  0  0  0  0  0
  -26.9420  -31.0750   25.8340 C   0  0  1  0  0  0  0  0  0  0  0  0
  -25.7520  -30.6880   26.7460 C   0  0  0  0  0  1  0  0  0  0  0  0
  -27.6700  -29.7760   25.4170 C   0  0  0  0  0  1  0  0  0  0  0  0
  -27.9580  -31.8800   26.6810 C   0  0  0  0  0  1  0  0  0  0  0  0
  1 52  1  0
  2  4  1  0
  2  1  1  0
  3  2  1  0
  5  2  1  0
  6  5  1  0
  6  7  1  0
  7  8  1  0
  8  9  1  0
  9 10  1  0
 10 11  1  0
 11 12  1  0
 12 13  1  0
 14 22  1  0
 15 20  1  0
 16 17  1  0
 16 15  1  0
 18 17  1  0
 18 27  1  0
 18 19  1  0
 20 14  1  0
 20 19  1  0
 21 14  2  0
 22 13  1  0
 22 23  1  0
 24 25  2  0
 25 26  1  0
 25 44  1  0
 26 29  1  0
 27 24  1  0
 27 28  1  0
 28 26  2  0
 29 30  1  0
 30 31  2  0
 32 35  1  0
 32 31  1  0
 33 32  2  0
 34 33  1  0
 34 29  2  0
 35 36  1  0
 36 41  2  0
 36 37  1  0
 37 38  2  0
 38 39  1  0
 39 43  1  0
 40 39  2  0
 41 40  1  0
 42 41  1  0
 44 45  1  0
 45 48  1  0
 45 47  1  0
 46 44  2  0
 49 50  1  0
 49 24  1  0
 51 49  1  0
 52 53  1  0
 53 54  1  0
 54 55  1  0
 56 55  1  0
 56 59  1  0
 56 58  1  0
 57 56  1  0
 60 61  1  0
 60 59  1  0
 62 73  2  0
 63 61  1  0
 63 68  1  0
 64 72  1  0
 64 74  1  0
 65 67  1  0
 66 72  1  0
 67 68  2  0
 67 66  1  0
 69 63  2  0
 70 69  1  0
 70 65  2  0
 71 65  1  0
 71 64  1  0
 72 62  1  0
 74 76  2  0
 75 74  1  0
 77 75  1  0
 78 87  2  0
 78 83  1  0
 79 75  1  0
 79 83  1  0
 80 79  1  0
 81 82  1  0
 81 80  1  0
 82 78  1  0
 83 84  2  0
 84 85  1  0
 86 85  2  0
 87 86  1  0
 88 62  1  0
 88 89  1  0
 88 98  1  0
 89 92  1  0
 90 94  1  0
 90 89  1  0
 91 90  2  0
 94 93  1  0
 94 96  1  0
 96 97  1  0
 96 95  1  0
 98101  1  1
 98 99  1  0
100 98  1  0
M  ISO  4  14 100  22 100  60 101  61 101
M  END
>  <TORSDO>  (51) 
F 33

>  <SCORE>  (51) 
-5.428

>  <name>  (51) 
53

>  <ligand_id>  (51) 
53

>  <original_smiles>  (51) 
[H]c1c([H])c([H])c2c(c1[H])C([H])([H])C([H])([H])C([H])([H])C2([H])N([H])C(=O)C1([H])N(C(=O)C([H])(N([H])C(=O)C([H])(N([H])C([H])([H])[H])C([H])([H])[H])C(C([H])([H])[H])(C([H])([H])[H])C([H])([H])[H])C([H])([H])c2c([H])c(OC([H])([H])C([H])([H])[N+]([H])([H])C([H])([H])C([H])([H])C([H])([H])C([H])([H])C([H])([H])[N+]([H])([H])C([H])([H])C([H])([H])OC([H])([H])C([H])([H])C([H])([H])C([H])([H])C([H])([H])C([H])([H])N([H])C(=O)N3C([H])([H])C([H])([H])C([H])([H])C([H])(n4nc(-c5c([H])c([H])c(Oc6c([H])c([H])c(F)c([H])c6F)c([H])c5[H])c(C(=O)N([H])[H])c4N([H])[H])C3([H])[H])c([H])c([H])c2C1([H])[H]

>  <smiles>  (51) 
[H]c1c([H])c([H])c2c(c1[H])C([H])([H])C([H])([H])C([H])([H])C2([H])N([H])C(=O)C1([H])N(C(=O)C([H])(N([H])C(=O)C([H])(N([H])C([H])([H])[H])C([H])([H])[H])C(C([H])([H])[H])(C([H])([H])[H])C([H])([H])[H])C([H])([H])c2c([H])c(OC([H])([H])C([H])([H])[N+]([H])([H])C([H])([H])C([H])([H])C([H])([H])C([H])([H])C([H])([H])[N+]([H])([H])C([H])([H])C([H])([H])OC([H])([H])C([H])([H])C([H])([H])C([H])([H])C([H])([H])C([H])([H])N([H])C(=O)N3C([H])([H])C([H])([H])C([H])([H])C([H])(n4nc(-c5c([H])c([H])c(Oc6c([H])c([H])c(F)c([H])c6F)c([H])c5[H])c(C(=O)N([H])[H])c4N([H])[H])C3([H])[H])c([H])c([H])c2C1([H])[H]

$$$$
54:0:0
     RDKit          3D

100107  0  0  1  0  0  0  0  0999 V2000
  -25.0400  -18.6830   22.7940 C   0  0  0  0  0  2  0  0  0  0  0  0
  -26.0890  -18.3260   23.7730 N   0  0  0  0  0  4  0  0  0  0  0  0
  -26.9000  -18.8890   23.5480 H   0  0  0  0  0  0  0  0  0  0  0  0
  -26.3530  -17.3560   23.6640 H   0  0  0  0  0  0  0  0  0  0  0  0
  -25.8120  -18.6390   25.1950 C   0  0  0  0  0  2  0  0  0  0  0  0
  -27.0610  -18.3170   26.0230 C   0  0  0  0  0  2  0  0  0  0  0  0
  -28.0800  -19.1690   25.5010 O   0  0  0  0  0  0  0  0  0  0  0  0
  -29.4060  -18.6850   25.6490 C   0  0  0  0  0  2  0  0  0  0  0  0
  -30.2560  -19.4140   24.5920 C   0  0  0  0  0  2  0  0  0  0  0  0
  -31.3100  -18.5240   23.9110 C   0  0  0  0  0  2  0  0  0  0  0  0
  -30.6780  -17.4540   23.0040 C   0  0  0  0  0  2  0  0  0  0  0  0
  -31.7140  -16.5960   22.2690 C   0  0  0  0  0  2  0  0  0  0  0  0
  -31.4850  -14.7020   20.6750 C   0  0  0  0  0  0  0  0  0  0  0  0
  -31.0150  -12.7730   19.2130 C   0  0  0  0  0  2  0  0  0  0  0  0
  -30.1260  -13.1970   18.0310 C   0  0  0  0  0  2  0  0  0  0  0  0
  -28.6370  -13.1120   18.4150 C   0  0  0  0  0  2  0  0  0  0  0  0
  -28.3270  -13.8270   19.7560 C   0  0  0  0  0  3  0  0  0  0  0  0
  -29.3300  -13.4000   20.8510 C   0  0  0  0  0  2  0  0  0  0  0  0
  -30.6980  -13.6430   20.3530 N   0  0  0  0  0  0  0  0  0  0  0  0
  -32.5260  -14.9910   20.0790 O   0  0  0  0  0  0  0  0  0  0  0  0
  -31.0640  -15.4110   21.7230 N   0  0  0  0  0  0  0  0  0  0  0  0
  -30.2250  -15.0820   22.1750 H   0  0  0  0  0  0  0  0  0  0  0  0
  -25.9100  -14.5090   20.3300 C   0  0  0  0  0  0  0  0  0  0  0  0
  -24.8080  -13.7710   20.6690 C   0  0  0  0  0  0  0  0  0  0  0  0
  -25.2360  -12.4090   20.6930 C   0  0  0  0  0  0  0  0  0  0  0  0
  -26.9440  -13.6000   20.1740 N   0  0  0  0  0  0  0  0  0  0  0  0
  -26.5380  -12.3320   20.4470 N   0  0  0  0  0  0  0  0  0  0  0  0
  -24.4710  -11.1690   20.8820 C   0  0  0  0  0  0  0  0  0  0  0  0
  -24.8230  -10.2290   21.8760 C   0  0  0  0  0  3  0  0  0  0  0  0
  -24.0610   -9.0550   22.0510 C   0  0  0  0  0  3  0  0  0  0  0  0
  -22.9340   -8.8100   21.2290 C   0  0  0  0  0  0  0  0  0  0  0  0
  -22.6040   -9.7380   20.2250 C   0  0  0  0  0  3  0  0  0  0  0  0
  -23.3660  -10.9050   20.0510 C   0  0  0  0  0  3  0  0  0  0  0  0
  -22.1520   -7.6840   21.3080 O   0  0  0  0  0  0  0  0  0  0  0  0
  -21.9670   -7.0170   22.4930 C   0  0  0  0  0  0  0  0  0  0  0  0
  -21.4530   -7.6620   23.6400 C   0  0  0  0  0  3  0  0  0  0  0  0
  -21.2150   -6.9230   24.8150 C   0  0  0  0  0  3  0  0  0  0  0  0
  -21.4820   -5.5400   24.8460 C   0  0  0  0  0  0  0  0  0  0  0  0
  -21.9890   -4.8960   23.7040 C   0  0  0  0  0  3  0  0  0  0  0  0
  -22.2280   -5.6320   22.5300 C   0  0  0  0  0  0  0  0  0  0  0  0
  -22.6970   -5.0020   21.4260 F   0  0  0  0  0  0  0  0  0  0  0  0
  -21.2460   -4.8290   25.9720 F   0  0  0  0  0  0  0  0  0  0  0  0
  -23.4110  -14.2880   20.8660 C   0  0  0  0  0  0  0  0  0  0  0  0
  -22.6360  -13.6440   21.7310 N   0  0  0  0  0  0  0  0  0  0  0  0
  -23.0160  -15.3000   20.2860 O   0  0  0  0  0  0  0  0  0  0  0  0
  -22.9640  -12.8250   22.2200 H   0  0  0  0  0  0  0  0  0  0  0  0
  -21.6980  -13.9740   21.9080 H   0  0  0  0  0  0  0  0  0  0  0  0
  -26.1130  -15.8720   20.1250 N   0  0  0  0  0  0  0  0  0  0  0  0
  -25.3290  -16.5130   20.0900 H   0  0  0  0  0  0  0  0  0  0  0  0
  -26.9670  -16.2590   19.7420 H   0  0  0  0  0  0  0  0  0  0  0  0
  -25.6870  -19.1740   21.4900 C   0  0  0  0  0  2  0  0  0  0  0  0
  -26.3780  -20.3720   21.8200 O   0  0  0  0  0  0  0  0  0  0  0  0
  -26.9060  -21.0650   20.6920 C   0  0  0  0  0  2  0  0  0  0  0  0
  -27.2050  -22.5110   21.1060 C   0  0  0  0  0  0  0  0  0  0  0  0
  -28.1790  -23.1620   20.4610 N   0  0  0  0  0  0  0  0  0  0  0  0
  -26.5450  -23.0390   22.0050 O   0  0  0  0  0  0  0  0  0  0  0  0
  -28.7030  -22.6620   19.7540 H   0  0  0  0  0  0  0  0  0  0  0  0
  -28.5040  -24.5710   20.6750 C   0  0  0  0  0  2  0  0  0  0  0  0
  -28.9620  -25.2490   19.3720 C   0  0  0  0  0  2  0  0  0  0  0  0
  -28.8680  -26.6720   19.4660 O   0  0  0  0  0  0  0  0  0  0  0  0
  -24.6340  -31.2530   22.8420 C   0  0  0  0  0  0  0  0  0  0  0  0
  -27.6190  -27.2610   19.4840 C   0  0  0  0  0  0  0  0  0  0  0  0
  -23.5380  -29.8790   21.1020 C   0  0  0  0  0  3  0  0  0  0  0  0
  -25.1070  -28.5560   19.5870 C   0  0  0  0  0  0  0  0  0  0  0  0
  -26.0260  -30.4490   20.9380 C   0  0  0  0  0  2  0  0  0  0  0  0
  -26.2180  -29.1350   20.2120 C   0  0  0  0  0  0  0  0  0  0  0  0
  -27.4750  -28.4940   20.1570 C   0  0  0  0  0  3  0  0  0  0  0  0
  -26.4840  -26.6930   18.8560 C   0  0  0  0  0  3  0  0  0  0  0  0
  -25.2330  -27.3350   18.9060 C   0  0  0  0  0  3  0  0  0  0  0  0
  -23.7970  -29.3040   19.6840 C   0  0  0  0  0  2  0  0  0  0  0  0
  -24.7500  -30.5360   21.6890 N   0  0  0  0  0  0  0  0  0  0  0  0
  -23.5360  -31.4070   23.3940 O   0  0  0  0  0  0  0  0  0  0  0  0
  -22.9620  -28.7510   21.9880 C   0  0  0  0  0  0  0  0  0  0  0  0
  -21.6550  -28.4820   21.8330 N   0  0  0  0  0  0  0  0  0  0  0  0
  -23.6850  -28.1240   22.7670 O   0  0  0  0  0  0  0  0  0  0  0  0
  -21.1320  -29.0410   21.1740 H   0  0  0  0  0  0  0  0  0  0  0  0
  -18.3760  -27.0130   22.1860 C   0  0  0  0  0  0  0  0  0  0  0  0
  -20.9020  -27.4380   22.5250 C   0  0  0  0  0  3  0  0  0  0  0  0
  -21.1210  -26.0600   21.8590 C   0  0  0  0  0  2  0  0  0  0  0  0
  -20.0620  -25.7260   20.8060 C   0  0  0  0  0  2  0  0  0  0  0  0
  -18.6630  -25.7260   21.4310 C   0  0  0  0  0  2  0  0  0  0  0  0
  -19.4280  -27.8260   22.6850 C   0  0  0  0  0  0  0  0  0  0  0  0
  -19.1060  -29.0320   23.3450 C   0  0  0  0  0  3  0  0  0  0  0  0
  -17.7650  -29.4240   23.5130 C   0  0  0  0  0  3  0  0  0  0  0  0
  -16.7270  -28.6050   23.0340 C   0  0  0  0  0  3  0  0  0  0  0  0
  -17.0340  -27.4020   22.3740 C   0  0  0  0  0  3  0  0  0  0  0  0
  -25.8700  -31.9280   23.5130 C   0  0  0  0  0  3  0  0  0  0  0  0
  -26.4650  -31.0860   24.7070 C   0  0  1  0  0  0  0  0  0  0  0  0
  -25.4100  -30.6630   25.7540 C   0  0  0  0  0  1  0  0  0  0  0  0
  -27.1450  -29.8030   24.1770 C   0  0  0  0  0  1  0  0  0  0  0  0
  -27.5610  -31.9040   25.4320 C   0  0  0  0  0  1  0  0  0  0  0  0
  -25.4500  -33.2580   23.9690 N   0  0  0  0  0  0  0  0  0  0  0  0
  -25.7080  -34.4010   23.3200 C   0  0  0  0  0  0  0  0  0  0  0  0
  -26.3920  -34.4510   22.2950 O   0  0  0  0  0  0  0  0  0  0  0  0
  -24.8310  -33.2890   24.7670 H   0  0  0  0  0  0  0  0  0  0  0  0
  -23.8430  -36.0760   23.1160 C   0  0  0  0  0  1  0  0  0  0  0  0
  -25.1090  -35.6970   23.9000 C   0  0  0  0  0  3  0  0  0  0  0  0
  -27.1620  -36.6660   24.8350 C   0  0  0  0  0  1  0  0  0  0  0  0
  -26.0550  -36.8340   23.8990 N   0  0  0  0  0  0  0  0  0  0  0  0
  -25.5760  -37.7020   24.1260 H   0  0  0  0  0  0  0  0  0  0  0  0
  1  2  1  0
  2  5  1  0
  3  2  1  0
  4  2  1  0
  5  6  1  0
  7  8  1  0
  7  6  1  0
  9  8  1  0
 10  9  1  0
 11 10  1  0
 12 11  1  0
 13 21  1  0
 14 19  1  0
 15 16  1  0
 15 14  1  0
 17 16  1  0
 17 26  1  0
 17 18  1  0
 19 13  1  0
 19 18  1  0
 20 13  2  0
 21 22  1  0
 21 12  1  0
 23 24  2  0
 24 25  1  0
 24 43  1  0
 25 28  1  0
 26 23  1  0
 26 27  1  0
 27 25  2  0
 28 29  1  0
 29 30  2  0
 31 34  1  0
 31 30  1  0
 32 31  2  0
 33 32  1  0
 33 28  2  0
 34 35  1  0
 35 40  2  0
 35 36  1  0
 36 37  2  0
 37 38  1  0
 38 42  1  0
 39 38  2  0
 40 39  1  0
 41 40  1  0
 43 44  1  0
 44 47  1  0
 44 46  1  0
 45 43  2  0
 48 23  1  0
 49 48  1  0
 50 48  1  0
 51 52  1  0
 51  1  1  0
 53 54  1  0
 53 52  1  0
 54 56  2  0
 55 58  1  0
 55 54  1  0
 57 55  1  0
 59 60  1  0
 59 58  1  0
 60 62  1  0
 61 72  2  0
 62 67  1  0
 63 71  1  0
 63 73  1  0
 64 70  1  0
 64 66  1  0
 65 71  1  0
 66 65  1  0
 67 66  2  0
 68 69  1  0
 68 62  2  0
 69 64  2  0
 70 63  1  0
 71 61  1  0
 73 75  2  0
 74 73  1  0
 76 74  1  0
 77 86  2  0
 77 82  1  0
 78 74  1  0
 78 82  1  0
 79 78  1  0
 80 81  1  0
 80 79  1  0
 81 77  1  0
 82 83  2  0
 83 84  1  0
 85 84  2  0
 86 85  1  0
 87 61  1  0
 87 92  1  0
 87 88  1  0
 88 91  1  1
 88 89  1  0
 90 88  1  0
 92 95  1  0
 93 97  1  0
 93 92  1  0
 94 93  2  0
 97 96  1  0
 99 97  1  0
 99100  1  0
 99 98  1  0
M  ISO  4  13 100  21 100  59 101  60 101
M  END
>  <TORSDO>  (52) 
F 31

>  <SCORE>  (52) 
29.640

>  <name>  (52) 
54

>  <ligand_id>  (52) 
54

>  <original_smiles>  (52) 
[H]c1c([H])c([H])c2c(c1[H])C([H])([H])C([H])([H])C([H])([H])C2([H])N([H])C(=O)C1([H])N(C(=O)C([H])(N([H])C(=O)C([H])(N([H])C([H])([H])[H])C([H])([H])[H])C(C([H])([H])[H])(C([H])([H])[H])C([H])([H])[H])C([H])([H])c2c([H])c(OC([H])([H])C([H])([H])N([H])C(=O)C([H])([H])OC([H])([H])C([H])([H])[N+]([H])([H])C([H])([H])C([H])([H])OC([H])([H])C([H])([H])C([H])([H])C([H])([H])C([H])([H])N([H])C(=O)N3C([H])([H])C([H])([H])C([H])([H])C([H])(n4nc(-c5c([H])c([H])c(Oc6c([H])c([H])c(F)c([H])c6F)c([H])c5[H])c(C(=O)N([H])[H])c4N([H])[H])C3([H])[H])c([H])c([H])c2C1([H])[H]

>  <smiles>  (52) 
[H]c1c([H])c([H])c2c(c1[H])C([H])([H])C([H])([H])C([H])([H])C2([H])N([H])C(=O)C1([H])N(C(=O)C([H])(N([H])C(=O)C([H])(N([H])C([H])([H])[H])C([H])([H])[H])C(C([H])([H])[H])(C([H])([H])[H])C([H])([H])[H])C([H])([H])c2c([H])c(OC([H])([H])C([H])([H])N([H])C(=O)C([H])([H])OC([H])([H])C([H])([H])[N+]([H])([H])C([H])([H])C([H])([H])OC([H])([H])C([H])([H])C([H])([H])C([H])([H])C([H])([H])N([H])C(=O)N3C([H])([H])C([H])([H])C([H])([H])C([H])(n4nc(-c5c([H])c([H])c(Oc6c([H])c([H])c(F)c([H])c6F)c([H])c5[H])c(C(=O)N([H])[H])c4N([H])[H])C3([H])[H])c([H])c([H])c2C1([H])[H]

$$$$
56:0:0
     RDKit          3D

 98105  0  0  1  0  0  0  0  0999 V2000
  -25.7890  -22.7460   21.2780 C   0  0  0  0  0  2  0  0  0  0  0  0
  -25.1450  -22.2860   18.8850 C   0  0  0  0  0  0  0  0  0  0  0  0
  -24.8800  -22.3810   20.1960 N   0  0  0  0  0  0  0  0  0  0  0  0
  -24.2720  -21.9110   18.1020 O   0  0  0  0  0  0  0  0  0  0  0  0
  -23.9310  -22.1690   20.4710 H   0  0  0  0  0  0  0  0  0  0  0  0
  -26.5220  -22.6890   18.3410 C   0  0  0  0  0  2  0  0  0  0  0  0
  -26.5370  -24.0960   18.1220 O   0  0  0  0  0  0  0  0  0  0  0  0
  -27.8360  -24.5730   17.8020 C   0  0  0  0  0  2  0  0  0  0  0  0
  -27.8070  -26.0650   17.4200 C   0  0  0  0  0  2  0  0  0  0  0  0
  -27.8520  -26.9340   18.5490 O   0  0  0  0  0  0  0  0  0  0  0  0
  -25.1560  -31.0270   23.6410 C   0  0  0  0  0  0  0  0  0  0  0  0
  -26.7660  -27.7040   18.8980 C   0  0  0  0  0  0  0  0  0  0  0  0
  -23.5890  -30.4480   21.8140 C   0  0  0  0  0  3  0  0  0  0  0  0
  -24.6340  -29.3520   19.7570 C   0  0  0  0  0  0  0  0  0  0  0  0
  -26.1040  -30.5560   21.3880 C   0  0  0  0  0  2  0  0  0  0  0  0
  -25.9050  -29.4980   20.3240 C   0  0  0  0  0  0  0  0  0  0  0  0
  -26.9630  -28.6710   19.9070 C   0  0  0  0  0  3  0  0  0  0  0  0
  -25.4810  -27.5720   18.3240 C   0  0  0  0  0  3  0  0  0  0  0  0
  -24.4150  -28.3850   18.7600 C   0  0  0  0  0  3  0  0  0  0  0  0
  -23.5520  -30.2740   20.2720 C   0  0  0  0  0  2  0  0  0  0  0  0
  -24.9750  -30.6690   22.3380 N   0  0  0  0  0  0  0  0  0  0  0  0
  -24.1910  -31.2160   24.3940 O   0  0  0  0  0  0  0  0  0  0  0  0
  -22.8760  -29.2390   22.4670 C   0  0  0  0  0  0  0  0  0  0  0  0
  -21.5430  -29.1760   22.3100 N   0  0  0  0  0  0  0  0  0  0  0  0
  -23.5190  -28.3760   23.0700 O   0  0  0  0  0  0  0  0  0  0  0  0
  -21.0860  -29.9340   21.8220 H   0  0  0  0  0  0  0  0  0  0  0  0
  -18.1490  -27.9370   22.2730 C   0  0  0  0  0  0  0  0  0  0  0  0
  -20.6730  -28.1090   22.8000 C   0  0  0  0  0  3  0  0  0  0  0  0
  -20.8350  -26.8230   21.9550 C   0  0  0  0  0  2  0  0  0  0  0  0
  -19.8200  -26.7210   20.8120 C   0  0  0  0  0  2  0  0  0  0  0  0
  -18.3910  -26.7490   21.3590 C   0  0  0  0  0  2  0  0  0  0  0  0
  -19.2250  -28.5830   22.9400 C   0  0  0  0  0  0  0  0  0  0  0  0
  -18.9480  -29.6970   23.7610 C   0  0  0  0  0  3  0  0  0  0  0  0
  -17.6330  -30.1680   23.9200 C   0  0  0  0  0  3  0  0  0  0  0  0
  -16.5710  -29.5190   23.2660 C   0  0  0  0  0  3  0  0  0  0  0  0
  -16.8290  -28.4010   22.4520 C   0  0  0  0  0  3  0  0  0  0  0  0
  -26.5820  -31.2390   24.2380 C   0  0  0  0  0  3  0  0  0  0  0  0
  -26.5630  -32.4980   24.9950 N   0  0  0  0  0  0  0  0  0  0  0  0
  -27.0890  -33.6530   24.5650 C   0  0  0  0  0  0  0  0  0  0  0  0
  -27.7110  -33.7500   23.5030 O   0  0  0  0  0  0  0  0  0  0  0  0
  -26.0290  -32.5000   25.8530 H   0  0  0  0  0  0  0  0  0  0  0  0
  -25.7720  -35.7730   24.8610 C   0  0  0  0  0  1  0  0  0  0  0  0
  -26.8910  -34.8990   25.4500 C   0  0  0  0  0  3  0  0  0  0  0  0
  -29.1520  -35.0300   26.4000 C   0  0  0  0  0  1  0  0  0  0  0  0
  -28.1200  -35.7040   25.6180 N   0  0  0  0  0  0  0  0  0  0  0  0
  -27.9120  -36.5900   26.0660 H   0  0  0  0  0  0  0  0  0  0  0  0
  -27.0550  -30.0460   25.1560 C   0  0  1  0  0  0  0  0  0  0  0  0
  -26.0380  -29.6580   26.2540 C   0  0  0  0  0  1  0  0  0  0  0  0
  -27.3330  -28.7830   24.3060 C   0  0  0  0  0  1  0  0  0  0  0  0
  -28.3880  -30.4090   25.8510 C   0  0  0  0  0  1  0  0  0  0  0  0
  -26.8760  -21.6700   21.4630 C   0  0  0  0  0  2  0  0  0  0  0  0
  -27.8810  -21.7470   20.4040 N   0  0  0  0  0  0  0  0  0  0  0  0
  -27.9830  -22.7290   20.1680 H   0  0  0  0  0  0  0  0  0  0  0  0
  -29.1630  -21.2700   20.9250 C   0  0  0  0  0  2  0  0  0  0  0  0
  -30.2510  -21.3260   19.8320 C   0  0  0  0  0  2  0  0  0  0  0  0
  -30.3390  -20.0820   19.0330 N   0  0  0  0  0  4  0  0  0  0  0  0
  -29.4970  -20.0130   18.4840 H   0  0  0  0  0  0  0  0  0  0  0  0
  -31.1130  -20.1890   18.3980 H   0  0  0  0  0  0  0  0  0  0  0  0
  -30.5530  -18.8370   19.8060 C   0  0  0  0  0  2  0  0  0  0  0  0
  -31.4930  -17.8430   19.0840 C   0  0  0  0  0  2  0  0  0  0  0  0
  -32.1230  -15.4180   19.4420 C   0  0  0  0  0  0  0  0  0  0  0  0
  -32.0420  -12.9440   19.4790 C   0  0  0  0  0  2  0  0  0  0  0  0
  -31.1420  -12.4340   18.3310 C   0  0  0  0  0  2  0  0  0  0  0  0
  -29.6540  -12.4380   18.7420 C   0  0  0  0  0  2  0  0  0  0  0  0
  -29.2200  -13.7800   19.3860 C   0  0  0  0  0  3  0  0  0  0  0  0
  -30.2170  -14.1650   20.4970 C   0  0  0  0  0  2  0  0  0  0  0  0
  -31.5550  -14.2680   19.8880 N   0  0  0  0  0  0  0  0  0  0  0  0
  -33.2050  -15.4710   18.8520 O   0  0  0  0  0  0  0  0  0  0  0  0
  -31.3340  -16.4930   19.6220 N   0  0  0  0  0  0  0  0  0  0  0  0
  -30.4760  -16.3040   20.1170 H   0  0  0  0  0  0  0  0  0  0  0  0
  -26.9660  -14.7540   20.1610 C   0  0  0  0  0  0  0  0  0  0  0  0
  -25.7940  -14.1520   20.5330 C   0  0  0  0  0  0  0  0  0  0  0  0
  -26.0340  -12.7460   20.4620 C   0  0  0  0  0  0  0  0  0  0  0  0
  -27.8500  -13.7220   19.8850 N   0  0  0  0  0  0  0  0  0  0  0  0
  -27.2940  -12.5090   20.1210 N   0  0  0  0  0  0  0  0  0  0  0  0
  -25.1250  -11.6100   20.6450 C   0  0  0  0  0  0  0  0  0  0  0  0
  -25.4070  -10.5790   21.5680 C   0  0  0  0  0  3  0  0  0  0  0  0
  -24.5080   -9.5050   21.7380 C   0  0  0  0  0  3  0  0  0  0  0  0
  -23.3110   -9.4560   20.9820 C   0  0  0  0  0  0  0  0  0  0  0  0
  -23.0490  -10.4690   20.0460 C   0  0  0  0  0  3  0  0  0  0  0  0
  -23.9470  -11.5350   19.8750 C   0  0  0  0  0  3  0  0  0  0  0  0
  -22.3930   -8.4370   21.0580 O   0  0  0  0  0  0  0  0  0  0  0  0
  -22.1760   -7.7520   22.2250 C   0  0  0  0  0  0  0  0  0  0  0  0
  -21.7940   -8.4080   23.4140 C   0  0  0  0  0  3  0  0  0  0  0  0
  -21.5180   -7.6570   24.5750 C   0  0  0  0  0  3  0  0  0  0  0  0
  -21.6100   -6.2530   24.5430 C   0  0  0  0  0  0  0  0  0  0  0  0
  -21.9850   -5.5970   23.3570 C   0  0  0  0  0  3  0  0  0  0  0  0
  -22.2660   -6.3450   22.2010 C   0  0  0  0  0  0  0  0  0  0  0  0
  -22.6070   -5.7080   21.0550 F   0  0  0  0  0  0  0  0  0  0  0  0
  -21.3350   -5.5290   25.6550 F   0  0  0  0  0  0  0  0  0  0  0  0
  -24.4970  -14.8390   20.8480 C   0  0  0  0  0  0  0  0  0  0  0  0
  -23.6990  -14.2470   21.7290 N   0  0  0  0  0  0  0  0  0  0  0  0
  -24.2070  -15.9260   20.3500 O   0  0  0  0  0  0  0  0  0  0  0  0
  -23.9540  -13.3650   22.1460 H   0  0  0  0  0  0  0  0  0  0  0  0
  -22.8260  -14.6800   21.9950 H   0  0  0  0  0  0  0  0  0  0  0  0
  -27.3430  -16.0840   20.0170 N   0  0  0  0  0  0  0  0  0  0  0  0
  -26.6780  -16.8400   20.1400 H   0  0  0  0  0  0  0  0  0  0  0  0
  -28.2320  -16.3920   19.6410 H   0  0  0  0  0  0  0  0  0  0  0  0
  1 51  1  0
  2  3  1  0
  3  5  1  0
  3  1  1  0
  4  2  2  0
  6  2  1  0
  7  6  1  0
  8  7  1  0
  9  8  1  0
  9 10  1  0
 10 12  1  0
 11 22  2  0
 12 17  1  0
 13 21  1  0
 13 23  1  0
 14 20  1  0
 14 16  1  0
 15 21  1  0
 16 15  1  0
 17 16  2  0
 18 19  1  0
 18 12  2  0
 19 14  2  0
 20 13  1  0
 21 11  1  0
 23 25  2  0
 24 23  1  0
 26 24  1  0
 27 36  2  0
 27 32  1  0
 28 24  1  0
 28 32  1  0
 29 28  1  0
 30 31  1  0
 30 29  1  0
 31 27  1  0
 32 33  2  0
 33 34  1  0
 35 34  2  0
 36 35  1  0
 37 11  1  0
 37 38  1  0
 37 47  1  0
 38 41  1  0
 39 38  1  0
 39 43  1  0
 40 39  2  0
 43 42  1  0
 43 45  1  0
 45 46  1  0
 45 44  1  0
 47 50  1  1
 47 48  1  0
 49 47  1  0
 52 54  1  0
 52 51  1  0
 53 52  1  0
 55 54  1  0
 56 59  1  0
 56 55  1  0
 57 56  1  0
 58 56  1  0
 60 69  1  0
 60 59  1  0
 61 69  1  0
 61 67  1  0
 62 67  1  0
 63 64  1  0
 63 62  1  0
 65 64  1  0
 65 74  1  0
 65 66  1  0
 67 66  1  0
 68 61  2  0
 69 70  1  0
 71 72  2  0
 72 91  1  0
 73 72  1  0
 73 76  1  0
 74 75  1  0
 74 71  1  0
 75 73  2  0
 76 77  1  0
 77 78  2  0
 79 82  1  0
 79 78  1  0
 80 79  2  0
 81 80  1  0
 81 76  2  0
 82 83  1  0
 83 84  1  0
 84 85  2  0
 86 85  1  0
 86 90  1  0
 87 86  2  0
 88 83  2  0
 88 87  1  0
 89 88  1  0
 91 92  1  0
 92 95  1  0
 92 94  1  0
 93 91  2  0
 96 97  1  0
 96 71  1  0
 98 96  1  0
M  ISO  4   9 101  10 101  61 100  69 100
M  END
>  <TORSDO>  (53) 
F 28

>  <SCORE>  (53) 
-6.755

>  <name>  (53) 
56

>  <ligand_id>  (53) 
56

>  <original_smiles>  (53) 
[H]c1c([H])c([H])c2c(c1[H])C([H])([H])C([H])([H])C([H])([H])C2([H])N([H])C(=O)C1([H])N(C(=O)C([H])(N([H])C(=O)C([H])(N([H])C([H])([H])[H])C([H])([H])[H])C(C([H])([H])[H])(C([H])([H])[H])C([H])([H])[H])C([H])([H])c2c([H])c(OC([H])([H])C([H])([H])OC([H])([H])C(=O)N([H])C([H])([H])C([H])([H])N([H])C([H])([H])C([H])([H])[N+]([H])([H])C([H])([H])C([H])([H])N([H])C(=O)N3C([H])([H])C([H])([H])C([H])([H])C([H])(n4nc(-c5c([H])c([H])c(Oc6c([H])c([H])c(F)c([H])c6F)c([H])c5[H])c(C(=O)N([H])[H])c4N([H])[H])C3([H])[H])c([H])c([H])c2C1([H])[H]

>  <smiles>  (53) 
[H]c1c([H])c([H])c2c(c1[H])C([H])([H])C([H])([H])C([H])([H])C2([H])N([H])C(=O)C1([H])N(C(=O)C([H])(N([H])C(=O)C([H])(N([H])C([H])([H])[H])C([H])([H])[H])C(C([H])([H])[H])(C([H])([H])[H])C([H])([H])[H])C([H])([H])c2c([H])c(OC([H])([H])C([H])([H])OC([H])([H])C(=O)N([H])C([H])([H])C([H])([H])N([H])C([H])([H])C([H])([H])[N+]([H])([H])C([H])([H])C([H])([H])N([H])C(=O)N3C([H])([H])C([H])([H])C([H])([H])C([H])(n4nc(-c5c([H])c([H])c(Oc6c([H])c([H])c(F)c([H])c6F)c([H])c5[H])c(C(=O)N([H])[H])c4N([H])[H])C3([H])[H])c([H])c([H])c2C1([H])[H]

$$$$
57:0:0
     RDKit          3D

100107  0  0  1  0  0  0  0  0999 V2000
  -32.6290  -25.2990   23.6810 C   0  0  0  0  0  2  0  0  0  0  0  0
  -33.4840  -24.4890   24.6700 C   0  0  0  0  0  2  0  0  0  0  0  0
  -34.6330  -23.7550   23.9680 C   0  0  0  0  0  2  0  0  0  0  0  0
  -34.0270  -22.7540   23.1530 O   0  0  0  0  0  0  0  0  0  0  0  0
  -34.9380  -21.7690   22.6790 C   0  0  0  0  0  2  0  0  0  0  0  0
  -34.1130  -20.6810   21.9730 C   0  0  0  0  0  2  0  0  0  0  0  0
  -32.9530  -20.2660   22.8030 N   0  0  0  0  0  4  0  0  0  0  0  0
  -33.2490  -20.1970   23.7630 H   0  0  0  0  0  0  0  0  0  0  0  0
  -32.2740  -21.0110   22.7520 H   0  0  0  0  0  0  0  0  0  0  0  0
  -32.3280  -18.9860   22.4060 C   0  0  0  0  0  2  0  0  0  0  0  0
  -31.0080  -18.6880   23.1540 C   0  0  0  0  0  2  0  0  0  0  0  0
  -30.5030  -17.2350   22.9740 C   0  0  0  0  0  2  0  0  0  0  0  0
  -30.4400  -16.7550   21.5050 C   0  0  0  0  0  2  0  0  0  0  0  0
  -30.7080  -14.4240   20.6380 C   0  0  0  0  0  0  0  0  0  0  0  0
  -30.4280  -12.3050   19.4070 C   0  0  0  0  0  2  0  0  0  0  0  0
  -29.4890  -12.5100   18.2010 C   0  0  0  0  0  2  0  0  0  0  0  0
  -28.0180  -12.3420   18.6210 C   0  0  0  0  0  2  0  0  0  0  0  0
  -27.6650  -13.1870   19.8720 C   0  0  0  0  0  3  0  0  0  0  0  0
  -28.7010  -12.9440   20.9940 C   0  0  0  0  0  2  0  0  0  0  0  0
  -30.0370  -13.2570   20.4560 N   0  0  0  0  0  0  0  0  0  0  0  0
  -31.7890  -14.6700   20.0900 O   0  0  0  0  0  0  0  0  0  0  0  0
  -30.0740  -15.3410   21.3870 N   0  0  0  0  0  0  0  0  0  0  0  0
  -29.2000  -15.0530   21.8060 H   0  0  0  0  0  0  0  0  0  0  0  0
  -25.2670  -13.8090   20.5640 C   0  0  0  0  0  0  0  0  0  0  0  0
  -24.1870  -13.0430   20.9140 C   0  0  0  0  0  0  0  0  0  0  0  0
  -24.6370  -11.6880   20.8700 C   0  0  0  0  0  0  0  0  0  0  0  0
  -26.3040  -12.9200   20.3300 N   0  0  0  0  0  0  0  0  0  0  0  0
  -25.9270  -11.6380   20.5670 N   0  0  0  0  0  0  0  0  0  0  0  0
  -23.9000  -10.4300   21.0380 C   0  0  0  0  0  0  0  0  0  0  0  0
  -24.3580   -9.4240   21.9160 C   0  0  0  0  0  3  0  0  0  0  0  0
  -23.6290   -8.2260   22.0730 C   0  0  0  0  0  3  0  0  0  0  0  0
  -22.4260   -8.0290   21.3540 C   0  0  0  0  0  0  0  0  0  0  0  0
  -21.9880   -9.0250   20.4640 C   0  0  0  0  0  3  0  0  0  0  0  0
  -22.7150  -10.2160   20.3040 C   0  0  0  0  0  3  0  0  0  0  0  0
  -21.6650   -6.8890   21.4240 O   0  0  0  0  0  0  0  0  0  0  0  0
  -21.6880   -6.0720   22.5270 C   0  0  0  0  0  0  0  0  0  0  0  0
  -21.4030   -6.5640   23.8190 C   0  0  0  0  0  3  0  0  0  0  0  0
  -21.3650   -5.6790   24.9150 C   0  0  0  0  0  3  0  0  0  0  0  0
  -21.6050   -4.3050   24.7220 C   0  0  0  0  0  0  0  0  0  0  0  0
  -21.8830   -3.8130   23.4340 C   0  0  0  0  0  3  0  0  0  0  0  0
  -21.9220   -4.6960   22.3400 C   0  0  0  0  0  0  0  0  0  0  0  0
  -22.1710   -4.2150   21.0980 F   0  0  0  0  0  0  0  0  0  0  0  0
  -21.5610   -3.4540   25.7720 F   0  0  0  0  0  0  0  0  0  0  0  0
  -22.7930  -13.5280   21.1790 C   0  0  0  0  0  0  0  0  0  0  0  0
  -22.0530  -12.8320   22.0370 N   0  0  0  0  0  0  0  0  0  0  0  0
  -22.3660  -14.5580   20.6590 O   0  0  0  0  0  0  0  0  0  0  0  0
  -22.4210  -12.0120   22.4930 H   0  0  0  0  0  0  0  0  0  0  0  0
  -21.1130  -13.1320   22.2490 H   0  0  0  0  0  0  0  0  0  0  0  0
  -25.4510  -15.1790   20.4110 N   0  0  0  0  0  0  0  0  0  0  0  0
  -24.6920  -15.8470   20.4960 H   0  0  0  0  0  0  0  0  0  0  0  0
  -26.3150  -15.6080   20.0970 H   0  0  0  0  0  0  0  0  0  0  0  0
  -31.1290  -25.2960   24.0110 C   0  0  0  0  0  2  0  0  0  0  0  0
  -30.3020  -26.0250   22.9350 C   0  0  0  0  0  2  0  0  0  0  0  0
  -28.8030  -25.6650   22.9600 C   0  0  0  0  0  2  0  0  0  0  0  0
  -28.5150  -24.4360   22.1820 N   0  0  0  0  0  4  0  0  0  0  0  0
  -27.9910  -23.8250   22.7880 H   0  0  0  0  0  0  0  0  0  0  0  0
  -29.3770  -23.9600   21.9710 H   0  0  0  0  0  0  0  0  0  0  0  0
  -27.7090  -24.6030   20.9470 C   0  0  0  0  0  2  0  0  0  0  0  0
  -28.4260  -25.3840   19.8180 C   0  0  0  0  0  2  0  0  0  0  0  0
  -28.4340  -26.7890   20.0760 O   0  0  0  0  0  0  0  0  0  0  0  0
  -24.6100  -31.8720   23.2140 C   0  0  0  0  0  0  0  0  0  0  0  0
  -27.2380  -27.4740   20.0660 C   0  0  0  0  0  0  0  0  0  0  0  0
  -23.3970  -30.4960   21.5550 C   0  0  0  0  0  3  0  0  0  0  0  0
  -24.8430  -28.9730   20.1110 C   0  0  0  0  0  0  0  0  0  0  0  0
  -25.9260  -30.8460   21.3640 C   0  0  0  0  0  2  0  0  0  0  0  0
  -26.0000  -29.4840   20.7110 C   0  0  0  0  0  0  0  0  0  0  0  0
  -27.1980  -28.7390   20.6890 C   0  0  0  0  0  3  0  0  0  0  0  0
  -26.0580  -26.9720   19.4630 C   0  0  0  0  0  3  0  0  0  0  0  0
  -24.8630  -27.7130   19.4920 C   0  0  0  0  0  3  0  0  0  0  0  0
  -23.6020  -29.8350   20.1660 C   0  0  0  0  0  2  0  0  0  0  0  0
  -24.6620  -31.0850   22.1030 N   0  0  0  0  0  0  0  0  0  0  0  0
  -23.5280  -32.1470   23.7530 O   0  0  0  0  0  0  0  0  0  0  0  0
  -22.7400  -29.4660   22.5020 C   0  0  0  0  0  0  0  0  0  0  0  0
  -21.4130  -29.3010   22.3760 N   0  0  0  0  0  0  0  0  0  0  0  0
  -23.4190  -28.8180   23.3020 O   0  0  0  0  0  0  0  0  0  0  0  0
  -20.9270  -29.8770   21.7020 H   0  0  0  0  0  0  0  0  0  0  0  0
  -18.0280  -28.1340   22.8510 C   0  0  0  0  0  0  0  0  0  0  0  0
  -20.5870  -28.3640   23.1350 C   0  0  0  0  0  3  0  0  0  0  0  0
  -20.6750  -26.9380   22.5440 C   0  0  0  0  0  2  0  0  0  0  0  0
  -19.5740  -26.6380   21.5220 C   0  0  0  0  0  2  0  0  0  0  0  0
  -18.1920  -26.7900   22.1620 C   0  0  0  0  0  2  0  0  0  0  0  0
  -19.1520  -28.8800   23.2920 C   0  0  0  0  0  0  0  0  0  0  0  0
  -18.9450  -30.1420   23.8930 C   0  0  0  0  0  3  0  0  0  0  0  0
  -17.6450  -30.6570   24.0560 C   0  0  0  0  0  3  0  0  0  0  0  0
  -16.5350  -29.9080   23.6300 C   0  0  0  0  0  3  0  0  0  0  0  0
  -16.7270  -28.6480   23.0350 C   0  0  0  0  0  3  0  0  0  0  0  0
  -25.9010  -32.4840   23.8420 C   0  0  0  0  0  3  0  0  0  0  0  0
  -25.5890  -33.8640   24.2350 N   0  0  0  0  0  0  0  0  0  0  0  0
  -25.9050  -34.9490   23.5150 C   0  0  0  0  0  0  0  0  0  0  0  0
  -26.5620  -34.8930   22.4720 O   0  0  0  0  0  0  0  0  0  0  0  0
  -25.0000  -33.9840   25.0470 H   0  0  0  0  0  0  0  0  0  0  0  0
  -24.1490  -36.7340   23.2630 C   0  0  0  0  0  1  0  0  0  0  0  0
  -25.4100  -36.3130   24.0340 C   0  0  0  0  0  3  0  0  0  0  0  0
  -27.5610  -37.1790   24.8450 C   0  0  0  0  0  1  0  0  0  0  0  0
  -26.4290  -37.3810   23.9440 N   0  0  0  0  0  0  0  0  0  0  0  0
  -26.0180  -38.2890   24.1450 H   0  0  0  0  0  0  0  0  0  0  0  0
  -26.4440  -31.6590   25.0730 C   0  0  1  0  0  0  0  0  0  0  0  0
  -25.3710  -31.3730   26.1480 C   0  0  0  0  0  1  0  0  0  0  0  0
  -27.0210  -30.3000   24.6080 C   0  0  0  0  0  1  0  0  0  0  0  0
  -27.6080  -32.4260   25.7450 C   0  0  0  0  0  1  0  0  0  0  0  0
  1 52  1  0
  1  2  1  0
  3  2  1  0
  4  3  1  0
  5  4  1  0
  6  5  1  0
  6  7  1  0
  7  8  1  0
  9  7  1  0
 10  7  1  0
 10 11  1  0
 12 11  1  0
 13 12  1  0
 14 22  1  0
 15 20  1  0
 16 17  1  0
 16 15  1  0
 18 17  1  0
 18 27  1  0
 18 19  1  0
 20 14  1  0
 20 19  1  0
 21 14  2  0
 22 13  1  0
 22 23  1  0
 24 25  2  0
 25 44  1  0
 26 25  1  0
 26 29  1  0
 27 24  1  0
 27 28  1  0
 28 26  2  0
 29 30  1  0
 30 31  2  0
 32 35  1  0
 32 31  1  0
 33 32  2  0
 34 33  1  0
 34 29  2  0
 35 36  1  0
 36 37  1  0
 37 38  2  0
 39 38  1  0
 39 43  1  0
 40 39  2  0
 41 36  2  0
 41 40  1  0
 42 41  1  0
 44 45  1  0
 45 48  1  0
 45 47  1  0
 46 44  2  0
 49 50  1  0
 49 24  1  0
 51 49  1  0
 53 54  1  0
 53 52  1  0
 55 56  1  0
 55 54  1  0
 57 55  1  0
 58 55  1  0
 59 60  1  0
 59 58  1  0
 61 72  2  0
 62 60  1  0
 62 67  1  0
 63 71  1  0
 63 73  1  0
 64 70  1  0
 64 66  1  0
 65 71  1  0
 66 65  1  0
 67 66  2  0
 68 69  1  0
 68 62  2  0
 69 64  2  0
 70 63  1  0
 71 61  1  0
 73 75  2  0
 74 73  1  0
 76 74  1  0
 77 86  2  0
 77 82  1  0
 78 74  1  0
 78 82  1  0
 79 78  1  0
 80 81  1  0
 80 79  1  0
 81 77  1  0
 82 83  2  0
 83 84  1  0
 85 84  2  0
 86 85  1  0
 87 61  1  0
 87 88  1  0
 87 97  1  0
 88 91  1  0
 89 93  1  0
 89 88  1  0
 90 89  2  0
 93 92  1  0
 95 93  1  0
 95 96  1  0
 95 94  1  0
 97100  1  1
 97 98  1  0
 99 97  1  0
M  ISO  4  14 100  22 100  59 101  60 101
M  END
>  <TORSDO>  (54) 
F 32

>  <SCORE>  (54) 
14.852

>  <name>  (54) 
57

>  <ligand_id>  (54) 
57

>  <original_smiles>  (54) 
[H]c1c([H])c([H])c2c(c1[H])C([H])([H])C([H])([H])C([H])([H])C2([H])N([H])C(=O)C1([H])N(C(=O)C([H])(N([H])C(=O)C([H])(N([H])C([H])([H])[H])C([H])([H])[H])C(C([H])([H])[H])(C([H])([H])[H])C([H])([H])[H])C([H])([H])c2c([H])c(OC([H])([H])C([H])([H])[N+]([H])([H])C([H])([H])C([H])([H])C([H])([H])C([H])([H])C([H])([H])C([H])([H])OC([H])([H])C([H])([H])[N+]([H])([H])C([H])([H])C([H])([H])C([H])([H])C([H])([H])N([H])C(=O)N3C([H])([H])C([H])([H])C([H])([H])C([H])(n4nc(-c5c([H])c([H])c(Oc6c([H])c([H])c(F)c([H])c6F)c([H])c5[H])c(C(=O)N([H])[H])c4N([H])[H])C3([H])[H])c([H])c([H])c2C1([H])[H]

>  <smiles>  (54) 
[H]c1c([H])c([H])c2c(c1[H])C([H])([H])C([H])([H])C([H])([H])C2([H])N([H])C(=O)C1([H])N(C(=O)C([H])(N([H])C(=O)C([H])(N([H])C([H])([H])[H])C([H])([H])[H])C(C([H])([H])[H])(C([H])([H])[H])C([H])([H])[H])C([H])([H])c2c([H])c(OC([H])([H])C([H])([H])[N+]([H])([H])C([H])([H])C([H])([H])C([H])([H])C([H])([H])C([H])([H])C([H])([H])OC([H])([H])C([H])([H])[N+]([H])([H])C([H])([H])C([H])([H])C([H])([H])C([H])([H])N([H])C(=O)N3C([H])([H])C([H])([H])C([H])([H])C([H])(n4nc(-c5c([H])c([H])c(Oc6c([H])c([H])c(F)c([H])c6F)c([H])c5[H])c(C(=O)N([H])[H])c4N([H])[H])C3([H])[H])c([H])c([H])c2C1([H])[H]

$$$$
58:0:0
     RDKit          3D

 94101  0  0  1  0  0  0  0  0999 V2000
  -29.6420  -20.9360   21.3980 C   0  0  0  0  0  2  0  0  0  0  0  0
  -30.6720  -19.9460   21.1280 N   0  0  0  0  0  0  0  0  0  0  0  0
  -31.5750  -20.4220   21.0650 H   0  0  0  0  0  0  0  0  0  0  0  0
  -30.7350  -18.9250   22.1710 C   0  0  0  0  0  2  0  0  0  0  0  0
  -31.8620  -17.9180   21.9090 C   0  0  0  0  0  2  0  0  0  0  0  0
  -31.8940  -16.8860   22.9590 N   0  0  0  0  0  4  0  0  0  0  0  0
  -32.0680  -17.3110   23.8560 H   0  0  0  0  0  0  0  0  0  0  0  0
  -30.9930  -16.4390   22.9960 H   0  0  0  0  0  0  0  0  0  0  0  0
  -32.8850  -15.8220   22.7330 C   0  0  0  0  0  2  0  0  0  0  0  0
  -32.2320  -14.4410   22.8820 C   0  0  0  0  0  2  0  0  0  0  0  0
  -30.8940  -14.1770   20.8090 C   0  0  0  0  0  0  0  0  0  0  0  0
  -30.3960  -12.2840   19.3380 C   0  0  0  0  0  2  0  0  0  0  0  0
  -29.4510  -12.5440   18.1610 C   0  0  0  0  0  2  0  0  0  0  0  0
  -27.9900  -12.3770   18.6060 C   0  0  0  0  0  2  0  0  0  0  0  0
  -27.6620  -13.2040   19.8750 C   0  0  0  0  0  3  0  0  0  0  0  0
  -28.7060  -12.9650   20.9880 C   0  0  0  0  0  2  0  0  0  0  0  0
  -30.0550  -13.1890   20.4400 N   0  0  0  0  0  0  0  0  0  0  0  0
  -31.7480  -14.6780   20.0730 O   0  0  0  0  0  0  0  0  0  0  0  0
  -30.9730  -14.2790   22.1430 N   0  0  0  0  0  0  0  0  0  0  0  0
  -30.2410  -13.7850   22.6350 H   0  0  0  0  0  0  0  0  0  0  0  0
  -25.2580  -13.8170   20.5690 C   0  0  0  0  0  0  0  0  0  0  0  0
  -24.1830  -13.0440   20.9180 C   0  0  0  0  0  0  0  0  0  0  0  0
  -24.6370  -11.6910   20.8720 C   0  0  0  0  0  0  0  0  0  0  0  0
  -26.3030  -12.9340   20.3400 N   0  0  0  0  0  0  0  0  0  0  0  0
  -25.9300  -11.6490   20.5780 N   0  0  0  0  0  0  0  0  0  0  0  0
  -23.9040  -10.4290   21.0390 C   0  0  0  0  0  0  0  0  0  0  0  0
  -24.3590   -9.4210   21.9180 C   0  0  0  0  0  3  0  0  0  0  0  0
  -23.6280   -8.2240   22.0750 C   0  0  0  0  0  3  0  0  0  0  0  0
  -22.4260   -8.0270   21.3540 C   0  0  0  0  0  0  0  0  0  0  0  0
  -21.9890   -9.0250   20.4640 C   0  0  0  0  0  3  0  0  0  0  0  0
  -22.7210  -10.2130   20.3050 C   0  0  0  0  0  3  0  0  0  0  0  0
  -21.6630   -6.8870   21.4240 O   0  0  0  0  0  0  0  0  0  0  0  0
  -21.6850   -6.0730   22.5280 C   0  0  0  0  0  0  0  0  0  0  0  0
  -21.4020   -6.5640   23.8220 C   0  0  0  0  0  3  0  0  0  0  0  0
  -21.3650   -5.6800   24.9180 C   0  0  0  0  0  3  0  0  0  0  0  0
  -21.6040   -4.3050   24.7230 C   0  0  0  0  0  0  0  0  0  0  0  0
  -21.8810   -3.8150   23.4350 C   0  0  0  0  0  3  0  0  0  0  0  0
  -21.9190   -4.6960   22.3410 C   0  0  0  0  0  0  0  0  0  0  0  0
  -22.1660   -4.2140   21.0980 F   0  0  0  0  0  0  0  0  0  0  0  0
  -21.5620   -3.4540   25.7740 F   0  0  0  0  0  0  0  0  0  0  0  0
  -22.7850  -13.5240   21.1850 C   0  0  0  0  0  0  0  0  0  0  0  0
  -22.0490  -12.8230   22.0400 N   0  0  0  0  0  0  0  0  0  0  0  0
  -22.3540  -14.5560   20.6720 O   0  0  0  0  0  0  0  0  0  0  0  0
  -22.4090  -11.9870   22.4770 H   0  0  0  0  0  0  0  0  0  0  0  0
  -21.1110  -13.1270   22.2610 H   0  0  0  0  0  0  0  0  0  0  0  0
  -25.4330  -15.1890   20.4080 N   0  0  0  0  0  0  0  0  0  0  0  0
  -24.6710  -15.8520   20.5120 H   0  0  0  0  0  0  0  0  0  0  0  0
  -26.2970  -15.6230   20.1070 H   0  0  0  0  0  0  0  0  0  0  0  0
  -29.7340  -22.1070   20.4180 C   0  0  0  0  0  2  0  0  0  0  0  0
  -28.9470  -23.2150   20.9310 N   0  0  0  0  0  0  0  0  0  0  0  0
  -29.2550  -23.4240   21.8820 H   0  0  0  0  0  0  0  0  0  0  0  0
  -29.0370  -24.4320   20.1290 C   0  0  0  0  0  2  0  0  0  0  0  0
  -28.3460  -25.5850   20.8610 C   0  0  0  0  0  2  0  0  0  0  0  0
  -28.3980  -26.7620   20.0660 O   0  0  0  0  0  0  0  0  0  0  0  0
  -24.6100  -31.8710   23.2130 C   0  0  0  0  0  0  0  0  0  0  0  0
  -27.2350  -27.4820   20.0830 C   0  0  0  0  0  0  0  0  0  0  0  0
  -23.3960  -30.4940   21.5530 C   0  0  0  0  0  3  0  0  0  0  0  0
  -24.8430  -28.9650   20.1160 C   0  0  0  0  0  0  0  0  0  0  0  0
  -25.9200  -30.8500   21.3590 C   0  0  0  0  0  2  0  0  0  0  0  0
  -26.0000  -29.4880   20.7070 C   0  0  0  0  0  0  0  0  0  0  0  0
  -27.2030  -28.7530   20.6880 C   0  0  0  0  0  3  0  0  0  0  0  0
  -26.0660  -26.9590   19.4930 C   0  0  0  0  0  3  0  0  0  0  0  0
  -24.8670  -27.6960   19.5090 C   0  0  0  0  0  3  0  0  0  0  0  0
  -23.6010  -29.8240   20.1680 C   0  0  0  0  0  2  0  0  0  0  0  0
  -24.6600  -31.0850   22.1010 N   0  0  0  0  0  0  0  0  0  0  0  0
  -23.5310  -32.1440   23.7560 O   0  0  0  0  0  0  0  0  0  0  0  0
  -22.7380  -29.4670   22.5010 C   0  0  0  0  0  0  0  0  0  0  0  0
  -21.4120  -29.3020   22.3750 N   0  0  0  0  0  0  0  0  0  0  0  0
  -23.4170  -28.8220   23.3040 O   0  0  0  0  0  0  0  0  0  0  0  0
  -20.9270  -29.8730   21.6960 H   0  0  0  0  0  0  0  0  0  0  0  0
  -18.0270  -28.1370   22.8500 C   0  0  0  0  0  0  0  0  0  0  0  0
  -20.5850  -28.3650   23.1340 C   0  0  0  0  0  3  0  0  0  0  0  0
  -20.6770  -26.9390   22.5420 C   0  0  0  0  0  2  0  0  0  0  0  0
  -19.5750  -26.6390   21.5210 C   0  0  0  0  0  2  0  0  0  0  0  0
  -18.1920  -26.7920   22.1620 C   0  0  0  0  0  2  0  0  0  0  0  0
  -19.1510  -28.8820   23.2920 C   0  0  0  0  0  0  0  0  0  0  0  0
  -18.9440  -30.1440   23.8920 C   0  0  0  0  0  3  0  0  0  0  0  0
  -17.6440  -30.6580   24.0560 C   0  0  0  0  0  3  0  0  0  0  0  0
  -16.5340  -29.9080   23.6320 C   0  0  0  0  0  3  0  0  0  0  0  0
  -16.7250  -28.6500   23.0340 C   0  0  0  0  0  3  0  0  0  0  0  0
  -25.9020  -32.4840   23.8410 C   0  0  0  0  0  3  0  0  0  0  0  0
  -26.4470  -31.6600   25.0720 C   0  0  1  0  0  0  0  0  0  0  0  0
  -25.3750  -31.3680   26.1480 C   0  0  0  0  0  1  0  0  0  0  0  0
  -27.0280  -30.3050   24.6050 C   0  0  0  0  0  1  0  0  0  0  0  0
  -27.6070  -32.4290   25.7470 C   0  0  0  0  0  1  0  0  0  0  0  0
  -25.5890  -33.8640   24.2350 N   0  0  0  0  0  0  0  0  0  0  0  0
  -25.9030  -34.9490   23.5140 C   0  0  0  0  0  0  0  0  0  0  0  0
  -26.5580  -34.8930   22.4690 O   0  0  0  0  0  0  0  0  0  0  0  0
  -25.0050  -33.9800   25.0510 H   0  0  0  0  0  0  0  0  0  0  0  0
  -24.1490  -36.7320   23.2640 C   0  0  0  0  0  1  0  0  0  0  0  0
  -25.4100  -36.3120   24.0340 C   0  0  0  0  0  3  0  0  0  0  0  0
  -27.5580  -37.1810   24.8460 C   0  0  0  0  0  1  0  0  0  0  0  0
  -26.4290  -37.3800   23.9400 N   0  0  0  0  0  0  0  0  0  0  0  0
  -26.0190  -38.2880   24.1420 H   0  0  0  0  0  0  0  0  0  0  0  0
  2  1  1  0
  2  4  1  0
  3  2  1  0
  5  4  1  0
  5  6  1  0
  6  8  1  0
  6  7  1  0
  9 10  1  0
  9  6  1  0
 11 19  1  0
 12 17  1  0
 13 14  1  0
 13 12  1  0
 15 14  1  0
 15 24  1  0
 15 16  1  0
 17 11  1  0
 17 16  1  0
 18 11  2  0
 19 20  1  0
 19 10  1  0
 21 22  2  0
 22 41  1  0
 23 22  1  0
 23 26  1  0
 24 21  1  0
 24 25  1  0
 25 23  2  0
 26 27  1  0
 27 28  2  0
 29 32  1  0
 29 28  1  0
 30 29  2  0
 31 30  1  0
 31 26  2  0
 32 33  1  0
 33 34  1  0
 34 35  2  0
 36 35  1  0
 36 40  1  0
 37 36  2  0
 38 33  2  0
 38 37  1  0
 39 38  1  0
 41 42  1  0
 42 45  1  0
 42 44  1  0
 43 41  2  0
 46 47  1  0
 46 21  1  0
 48 46  1  0
 49 50  1  0
 49  1  1  0
 50 51  1  0
 52 53  1  0
 52 50  1  0
 54 56  1  0
 54 53  1  0
 55 66  2  0
 56 61  1  0
 57 65  1  0
 57 67  1  0
 58 64  1  0
 58 60  1  0
 59 65  1  0
 60 59  1  0
 61 60  2  0
 62 63  1  0
 62 56  2  0
 63 58  2  0
 64 57  1  0
 65 55  1  0
 67 69  2  0
 68 67  1  0
 70 68  1  0
 71 80  2  0
 71 76  1  0
 72 68  1  0
 72 76  1  0
 73 72  1  0
 74 75  1  0
 74 73  1  0
 75 71  1  0
 76 77  2  0
 77 78  1  0
 79 78  2  0
 80 79  1  0
 81 55  1  0
 81 86  1  0
 81 82  1  0
 82 85  1  1
 82 83  1  0
 84 82  1  0
 86 89  1  0
 87 91  1  0
 87 86  1  0
 88 87  2  0
 91 90  1  0
 93 91  1  0
 93 94  1  0
 93 92  1  0
M  ISO  4  11 100  19 100  53 101  54 101
M  END
>  <TORSDO>  (55) 
F 26

>  <SCORE>  (55) 
-2.703

>  <name>  (55) 
58

>  <ligand_id>  (55) 
58

>  <original_smiles>  (55) 
[H]c1c([H])c([H])c2c(c1[H])C([H])([H])C([H])([H])C([H])([H])C2([H])N([H])C(=O)C1([H])N(C(=O)C([H])(N([H])C(=O)C([H])(N([H])C([H])([H])[H])C([H])([H])[H])C(C([H])([H])[H])(C([H])([H])[H])C([H])([H])[H])C([H])([H])c2c([H])c(OC([H])([H])C([H])([H])N([H])C([H])([H])C([H])([H])N([H])C([H])([H])C([H])([H])[N+]([H])([H])C([H])([H])C([H])([H])N([H])C(=O)N3C([H])([H])C([H])([H])C([H])([H])C([H])(n4nc(-c5c([H])c([H])c(Oc6c([H])c([H])c(F)c([H])c6F)c([H])c5[H])c(C(=O)N([H])[H])c4N([H])[H])C3([H])[H])c([H])c([H])c2C1([H])[H]

>  <smiles>  (55) 
[H]c1c([H])c([H])c2c(c1[H])C([H])([H])C([H])([H])C([H])([H])C2([H])N([H])C(=O)C1([H])N(C(=O)C([H])(N([H])C(=O)C([H])(N([H])C([H])([H])[H])C([H])([H])[H])C(C([H])([H])[H])(C([H])([H])[H])C([H])([H])[H])C([H])([H])c2c([H])c(OC([H])([H])C([H])([H])N([H])C([H])([H])C([H])([H])N([H])C([H])([H])C([H])([H])[N+]([H])([H])C([H])([H])C([H])([H])N([H])C(=O)N3C([H])([H])C([H])([H])C([H])([H])C([H])(n4nc(-c5c([H])c([H])c(Oc6c([H])c([H])c(F)c([H])c6F)c([H])c5[H])c(C(=O)N([H])[H])c4N([H])[H])C3([H])[H])c([H])c([H])c2C1([H])[H]

$$$$
59:0:0
     RDKit          3D

 99106  0  0  1  0  0  0  0  0999 V2000
  -31.6450  -24.5930   18.0900 C   0  0  0  0  0  0  0  0  0  0  0  0
  -31.5820  -23.3990   17.4880 N   0  0  0  0  0  0  0  0  0  0  0  0
  -30.7210  -25.4070   18.0210 O   0  0  0  0  0  0  0  0  0  0  0  0
  -32.4170  -22.8250   17.5000 H   0  0  0  0  0  0  0  0  0  0  0  0
  -32.9210  -24.9390   18.8710 C   0  0  0  0  0  2  0  0  0  0  0  0
  -32.7260  -25.6690   20.2300 C   0  0  0  0  0  2  0  0  0  0  0  0
  -31.5160  -26.5220   20.3180 N   0  0  0  0  0  4  0  0  0  0  0  0
  -31.0100  -26.4050   19.4410 H   0  0  0  0  0  0  0  0  0  0  0  0
  -31.7940  -27.4870   20.3890 H   0  0  0  0  0  0  0  0  0  0  0  0
  -30.5950  -26.1610   21.4200 C   0  0  0  0  0  2  0  0  0  0  0  0
  -29.3230  -27.0080   21.3770 C   0  0  0  0  0  2  0  0  0  0  0  0
  -28.4650  -26.7000   20.2580 O   0  0  0  0  0  0  0  0  0  0  0  0
  -24.5920  -31.8400   23.1950 C   0  0  0  0  0  0  0  0  0  0  0  0
  -27.2930  -27.4320   20.2090 C   0  0  0  0  0  0  0  0  0  0  0  0
  -23.3810  -30.4180   21.5570 C   0  0  0  0  0  3  0  0  0  0  0  0
  -24.8470  -28.8650   20.1510 C   0  0  0  0  0  0  0  0  0  0  0  0
  -25.8870  -30.8100   21.3460 C   0  0  0  0  0  2  0  0  0  0  0  0
  -25.9810  -29.4310   20.7350 C   0  0  0  0  0  0  0  0  0  0  0  0
  -27.1920  -28.7290   20.7620 C   0  0  0  0  0  3  0  0  0  0  0  0
  -26.1460  -26.8750   19.5970 C   0  0  0  0  0  3  0  0  0  0  0  0
  -24.9220  -27.5820   19.5720 C   0  0  0  0  0  3  0  0  0  0  0  0
  -23.5900  -29.7070   20.1860 C   0  0  0  0  0  2  0  0  0  0  0  0
  -24.6370  -31.0380   22.0920 N   0  0  0  0  0  0  0  0  0  0  0  0
  -23.5150  -32.1140   23.7410 O   0  0  0  0  0  0  0  0  0  0  0  0
  -22.7330  -29.4140   22.5350 C   0  0  0  0  0  0  0  0  0  0  0  0
  -21.4100  -29.2320   22.4100 N   0  0  0  0  0  0  0  0  0  0  0  0
  -23.4190  -28.7960   23.3540 O   0  0  0  0  0  0  0  0  0  0  0  0
  -20.9200  -29.7810   21.7150 H   0  0  0  0  0  0  0  0  0  0  0  0
  -18.0340  -28.0660   22.9210 C   0  0  0  0  0  0  0  0  0  0  0  0
  -20.5930  -28.3050   23.1890 C   0  0  0  0  0  3  0  0  0  0  0  0
  -20.6840  -26.8700   22.6200 C   0  0  0  0  0  2  0  0  0  0  0  0
  -19.5780  -26.5510   21.6100 C   0  0  0  0  0  2  0  0  0  0  0  0
  -18.2000  -26.7110   22.2550 C   0  0  0  0  0  2  0  0  0  0  0  0
  -19.1580  -28.8220   23.3460 C   0  0  0  0  0  0  0  0  0  0  0  0
  -18.9520  -30.0910   23.9270 C   0  0  0  0  0  3  0  0  0  0  0  0
  -17.6520  -30.6050   24.0930 C   0  0  0  0  0  3  0  0  0  0  0  0
  -16.5410  -29.8450   23.6870 C   0  0  0  0  0  3  0  0  0  0  0  0
  -16.7320  -28.5790   23.1060 C   0  0  0  0  0  3  0  0  0  0  0  0
  -25.8850  -32.4690   23.8080 C   0  0  0  0  0  3  0  0  0  0  0  0
  -25.5790  -33.8610   24.1560 N   0  0  0  0  0  0  0  0  0  0  0  0
  -25.9040  -34.9220   23.4040 C   0  0  0  0  0  0  0  0  0  0  0  0
  -26.5690  -34.8300   22.3680 O   0  0  0  0  0  0  0  0  0  0  0  0
  -24.9940  -34.0090   24.9660 H   0  0  0  0  0  0  0  0  0  0  0  0
  -24.1750  -36.7130   23.0690 C   0  0  0  0  0  1  0  0  0  0  0  0
  -25.4160  -36.3030   23.8780 C   0  0  0  0  0  3  0  0  0  0  0  0
  -27.5490  -37.1820   24.7190 C   0  0  0  0  0  1  0  0  0  0  0  0
  -26.4470  -37.3590   23.7750 N   0  0  0  0  0  0  0  0  0  0  0  0
  -26.0390  -38.2770   23.9350 H   0  0  0  0  0  0  0  0  0  0  0  0
  -26.4280  -31.6840   25.0650 C   0  0  1  0  0  0  0  0  0  0  0  0
  -25.3500  -31.4060   26.1380 C   0  0  0  0  0  1  0  0  0  0  0  0
  -27.0350  -30.3260   24.6390 C   0  0  0  0  0  1  0  0  0  0  0  0
  -27.5680  -32.4880   25.7330 C   0  0  0  0  0  1  0  0  0  0  0  0
  -30.4120  -22.8980   16.7650 C   0  0  0  0  0  2  0  0  0  0  0  0
  -29.6280  -21.8430   17.5690 C   0  0  0  0  0  2  0  0  0  0  0  0
  -30.4360  -20.5640   17.8330 C   0  0  0  0  0  2  0  0  0  0  0  0
  -29.6190  -19.4990   18.4510 N   0  0  0  0  0  4  0  0  0  0  0  0
  -29.4930  -18.7880   17.7480 H   0  0  0  0  0  0  0  0  0  0  0  0
  -28.7030  -19.8530   18.6780 H   0  0  0  0  0  0  0  0  0  0  0  0
  -30.2170  -18.8930   19.6640 C   0  0  0  0  0  2  0  0  0  0  0  0
  -29.6510  -17.4930   19.9460 C   0  0  0  0  0  2  0  0  0  0  0  0
  -30.2220  -16.8540   21.2270 C   0  0  0  0  0  2  0  0  0  0  0  0
  -30.6090  -14.4890   20.5970 C   0  0  0  0  0  0  0  0  0  0  0  0
  -30.3140  -12.3840   19.3630 C   0  0  0  0  0  2  0  0  0  0  0  0
  -29.3710  -12.6280   18.1660 C   0  0  0  0  0  2  0  0  0  0  0  0
  -27.8990  -12.4730   18.5900 C   0  0  0  0  0  2  0  0  0  0  0  0
  -27.5580  -13.2760   19.8730 C   0  0  0  0  0  3  0  0  0  0  0  0
  -28.6050  -13.0110   20.9780 C   0  0  0  0  0  2  0  0  0  0  0  0
  -29.9390  -13.3230   20.4310 N   0  0  0  0  0  0  0  0  0  0  0  0
  -31.6950  -14.7440   20.0720 O   0  0  0  0  0  0  0  0  0  0  0  0
  -29.9210  -15.4280   21.2570 N   0  0  0  0  0  0  0  0  0  0  0  0
  -29.0420  -15.1340   21.6570 H   0  0  0  0  0  0  0  0  0  0  0  0
  -25.1410  -13.8690   20.5370 C   0  0  0  0  0  0  0  0  0  0  0  0
  -24.0780  -13.0840   20.8990 C   0  0  0  0  0  0  0  0  0  0  0  0
  -24.5560  -11.7390   20.8790 C   0  0  0  0  0  0  0  0  0  0  0  0
  -26.1990  -12.9960   20.3310 N   0  0  0  0  0  0  0  0  0  0  0  0
  -25.8490  -11.7140   20.5900 N   0  0  0  0  0  0  0  0  0  0  0  0
  -23.8460  -10.4670   21.0660 C   0  0  0  0  0  0  0  0  0  0  0  0
  -24.2900   -9.5070   22.0000 C   0  0  0  0  0  3  0  0  0  0  0  0
  -23.5820   -8.2980   22.1790 C   0  0  0  0  0  3  0  0  0  0  0  0
  -22.4150   -8.0430   21.4210 C   0  0  0  0  0  0  0  0  0  0  0  0
  -21.9900   -8.9920   20.4740 C   0  0  0  0  0  3  0  0  0  0  0  0
  -22.7000  -10.1910   20.2950 C   0  0  0  0  0  3  0  0  0  0  0  0
  -21.6780   -6.8850   21.5050 O   0  0  0  0  0  0  0  0  0  0  0  0
  -21.6450   -6.1380   22.6540 C   0  0  0  0  0  0  0  0  0  0  0  0
  -21.2140   -6.6780   23.8850 C   0  0  0  0  0  3  0  0  0  0  0  0
  -21.1350   -5.8550   25.0250 C   0  0  0  0  0  3  0  0  0  0  0  0
  -21.4690   -4.4900   24.9340 C   0  0  0  0  0  0  0  0  0  0  0  0
  -21.8910   -3.9480   23.7060 C   0  0  0  0  0  3  0  0  0  0  0  0
  -21.9760   -4.7700   22.5690 C   0  0  0  0  0  0  0  0  0  0  0  0
  -22.3620   -4.2400   21.3830 F   0  0  0  0  0  0  0  0  0  0  0  0
  -21.3830   -3.6950   26.0240 F   0  0  0  0  0  0  0  0  0  0  0  0
  -22.6710  -13.5420   21.1570 C   0  0  0  0  0  0  0  0  0  0  0  0
  -21.9460  -12.8360   22.0160 N   0  0  0  0  0  0  0  0  0  0  0  0
  -22.2240  -14.5590   20.6300 O   0  0  0  0  0  0  0  0  0  0  0  0
  -22.3210  -12.0110   22.4630 H   0  0  0  0  0  0  0  0  0  0  0  0
  -21.0040  -13.1300   22.2360 H   0  0  0  0  0  0  0  0  0  0  0  0
  -25.2920  -15.2400   20.3530 N   0  0  0  0  0  0  0  0  0  0  0  0
  -24.5170  -15.8870   20.4480 H   0  0  0  0  0  0  0  0  0  0  0  0
  -26.1450  -15.6890   20.0400 H   0  0  0  0  0  0  0  0  0  0  0  0
  1  5  1  0
  2  4  1  0
  2  1  1  0
  3  1  2  0
  5  6  1  0
  6  7  1  0
  7  9  1  0
  7 10  1  0
  8  7  1  0
 11 10  1  0
 12 11  1  0
 13 24  2  0
 14 12  1  0
 14 19  1  0
 15 23  1  0
 15 25  1  0
 16 22  1  0
 16 18  1  0
 17 23  1  0
 18 19  2  0
 18 17  1  0
 20 14  2  0
 21 20  1  0
 21 16  2  0
 22 15  1  0
 23 13  1  0
 25 27  2  0
 26 25  1  0
 28 26  1  0
 29 38  2  0
 29 34  1  0
 30 26  1  0
 30 34  1  0
 31 30  1  0
 32 33  1  0
 32 31  1  0
 33 29  1  0
 34 35  2  0
 35 36  1  0
 37 36  2  0
 38 37  1  0
 39 13  1  0
 39 40  1  0
 39 49  1  0
 40 43  1  0
 41 45  1  0
 41 40  1  0
 42 41  2  0
 45 44  1  0
 47 45  1  0
 47 48  1  0
 47 46  1  0
 49 52  1  1
 49 50  1  0
 51 49  1  0
 53  2  1  0
 53 54  1  0
 54 55  1  0
 55 56  1  0
 56 58  1  0
 56 59  1  0
 57 56  1  0
 59 60  1  0
 60 61  1  0
 61 70  1  0
 62 70  1  0
 63 68  1  0
 64 65  1  0
 64 63  1  0
 66 65  1  0
 66 75  1  0
 66 67  1  0
 68 62  1  0
 68 67  1  0
 69 62  2  0
 70 71  1  0
 72 73  2  0
 73 92  1  0
 74 73  1  0
 74 77  1  0
 75 72  1  0
 75 76  1  0
 76 74  2  0
 77 78  1  0
 78 79  2  0
 80 83  1  0
 80 79  1  0
 81 80  2  0
 82 81  1  0
 82 77  2  0
 83 84  1  0
 84 85  1  0
 85 86  2  0
 87 86  1  0
 87 91  1  0
 88 87  2  0
 89 84  2  0
 89 88  1  0
 90 89  1  0
 92 93  1  0
 93 96  1  0
 93 95  1  0
 94 92  2  0
 97 98  1  0
 97 72  1  0
 99 97  1  0
M  ISO  4  11 101  12 101  62 100  70 100
M  END
>  <TORSDO>  (56) 
F 28

>  <SCORE>  (56) 
-11.365

>  <name>  (56) 
59

>  <ligand_id>  (56) 
59

>  <original_smiles>  (56) 
[H]c1c([H])c([H])c2c(c1[H])C([H])([H])C([H])([H])C([H])([H])C2([H])N([H])C(=O)C1([H])N(C(=O)C([H])(N([H])C(=O)C([H])(N([H])C([H])([H])[H])C([H])([H])[H])C(C([H])([H])[H])(C([H])([H])[H])C([H])([H])[H])C([H])([H])c2c([H])c(OC([H])([H])C([H])([H])[N+]([H])([H])C([H])([H])C([H])([H])C(=O)N([H])C([H])([H])C([H])([H])C([H])([H])[N+]([H])([H])C([H])([H])C([H])([H])C([H])([H])N([H])C(=O)N3C([H])([H])C([H])([H])C([H])([H])C([H])(n4nc(-c5c([H])c([H])c(Oc6c([H])c([H])c(F)c([H])c6F)c([H])c5[H])c(C(=O)N([H])[H])c4N([H])[H])C3([H])[H])c([H])c([H])c2C1([H])[H]

>  <smiles>  (56) 
[H]c1c([H])c([H])c2c(c1[H])C([H])([H])C([H])([H])C([H])([H])C2([H])N([H])C(=O)C1([H])N(C(=O)C([H])(N([H])C(=O)C([H])(N([H])C([H])([H])[H])C([H])([H])[H])C(C([H])([H])[H])(C([H])([H])[H])C([H])([H])[H])C([H])([H])c2c([H])c(OC([H])([H])C([H])([H])[N+]([H])([H])C([H])([H])C([H])([H])C(=O)N([H])C([H])([H])C([H])([H])C([H])([H])[N+]([H])([H])C([H])([H])C([H])([H])C([H])([H])N([H])C(=O)N3C([H])([H])C([H])([H])C([H])([H])C([H])(n4nc(-c5c([H])c([H])c(Oc6c([H])c([H])c(F)c([H])c6F)c([H])c5[H])c(C(=O)N([H])[H])c4N([H])[H])C3([H])[H])c([H])c([H])c2C1([H])[H]

$$$$
60:0:0
     RDKit          3D

 98105  0  0  1  0  0  0  0  0999 V2000
  -30.4120  -22.4310   21.1790 C   0  0  0  0  0  2  0  0  0  0  0  0
  -29.6550  -21.3760   20.3610 C   0  0  0  0  0  2  0  0  0  0  0  0
  -30.4780  -20.2280   20.2190 O   0  0  0  0  0  0  0  0  0  0  0  0
  -29.8750  -19.2240   19.4110 C   0  0  0  0  0  2  0  0  0  0  0  0
  -30.8560  -18.0510   19.3240 C   0  0  0  0  0  2  0  0  0  0  0  0
  -31.6020  -17.8590   20.6000 N   0  0  1  0  0  4  0  0  0  0  0  0
  -32.3580  -18.5300   20.5570 H   0  0  0  0  0  0  0  0  0  0  0  0
  -29.6010  -17.3310   22.0950 C   0  0  0  0  0  1  0  0  0  0  0  0
  -30.8330  -18.2210   21.8260 C   0  0  0  0  0  2  0  0  0  0  0  0
  -32.2610  -16.5310   20.7050 C   0  0  0  0  0  2  0  0  0  0  0  0
  -33.5140  -16.4100   19.8100 C   0  0  0  0  0  2  0  0  0  0  0  0
  -34.3100  -15.1140   20.0470 C   0  0  0  0  0  2  0  0  0  0  0  0
  -33.3920  -12.8740   19.3890 C   0  0  0  0  0  0  0  0  0  0  0  0
  -32.5340  -10.5630   19.3330 C   0  0  0  0  0  2  0  0  0  0  0  0
  -31.4760  -10.3310   18.2420 C   0  0  0  0  0  2  0  0  0  0  0  0
  -30.0750  -10.6940   18.7620 C   0  0  0  0  0  2  0  0  0  0  0  0
  -30.0310  -12.1020   19.4050 C   0  0  0  0  0  3  0  0  0  0  0  0
  -31.1780  -12.2780   20.4260 C   0  0  0  0  0  2  0  0  0  0  0  0
  -32.4660  -11.9610   19.7720 N   0  0  0  0  0  0  0  0  0  0  0  0
  -34.2340  -12.6770   18.5090 O   0  0  0  0  0  0  0  0  0  0  0  0
  -33.4250  -13.9580   20.1710 N   0  0  0  0  0  0  0  0  0  0  0  0
  -32.7860  -13.9420   20.9520 H   0  0  0  0  0  0  0  0  0  0  0  0
  -28.1660  -13.5800   20.3930 C   0  0  0  0  0  0  0  0  0  0  0  0
  -26.9020  -13.2870   20.8320 C   0  0  0  0  0  0  0  0  0  0  0  0
  -26.7490  -11.8750   20.6790 C   0  0  0  0  0  0  0  0  0  0  0  0
  -28.7260  -12.3730   20.0070 N   0  0  0  0  0  0  0  0  0  0  0  0
  -27.8770  -11.3360   20.2310 N   0  0  0  0  0  0  0  0  0  0  0  0
  -25.5760  -11.0130   20.8760 C   0  0  0  0  0  0  0  0  0  0  0  0
  -25.6260   -9.8820   21.7220 C   0  0  0  0  0  3  0  0  0  0  0  0
  -24.4810   -9.0780   21.9110 C   0  0  0  0  0  3  0  0  0  0  0  0
  -23.2690   -9.4030   21.2550 C   0  0  0  0  0  0  0  0  0  0  0  0
  -23.2320  -10.5170   20.3970 C   0  0  0  0  0  3  0  0  0  0  0  0
  -24.3730  -11.3130   20.2070 C   0  0  0  0  0  3  0  0  0  0  0  0
  -22.1140   -8.6660   21.3590 O   0  0  0  0  0  0  0  0  0  0  0  0
  -21.8410   -7.9090   22.4710 C   0  0  0  0  0  0  0  0  0  0  0  0
  -21.7730   -8.4780   23.7610 C   0  0  0  0  0  3  0  0  0  0  0  0
  -21.4210   -7.6760   24.8660 C   0  0  0  0  0  3  0  0  0  0  0  0
  -21.1270   -6.3130   24.6810 C   0  0  0  0  0  0  0  0  0  0  0  0
  -21.1900   -5.7460   23.3970 C   0  0  0  0  0  3  0  0  0  0  0  0
  -21.5430   -6.5430   22.2940 C   0  0  0  0  0  0  0  0  0  0  0  0
  -21.5810   -5.9970   21.0550 F   0  0  0  0  0  0  0  0  0  0  0  0
  -20.7810   -5.5440   25.7410 F   0  0  0  0  0  0  0  0  0  0  0  0
  -25.8570  -14.2700   21.2790 C   0  0  0  0  0  0  0  0  0  0  0  0
  -24.9860  -13.8650   22.1960 N   0  0  0  0  0  0  0  0  0  0  0  0
  -25.8390  -15.4220   20.8490 O   0  0  0  0  0  0  0  0  0  0  0  0
  -25.0110  -12.9250   22.5640 H   0  0  0  0  0  0  0  0  0  0  0  0
  -24.2810  -14.5040   22.5360 H   0  0  0  0  0  0  0  0  0  0  0  0
  -28.8760  -14.7710   20.2720 N   0  0  0  0  0  0  0  0  0  0  0  0
  -28.4490  -15.6710   20.4600 H   0  0  0  0  0  0  0  0  0  0  0  0
  -29.7840  -14.8440   19.8330 H   0  0  0  0  0  0  0  0  0  0  0  0
  -29.9300  -23.8590   20.8910 C   0  0  0  0  0  2  0  0  0  0  0  0
  -30.9770  -24.9220   21.2780 C   0  0  0  0  0  2  0  0  0  0  0  0
  -30.5760  -26.2940   20.8990 N   0  0  0  0  0  4  0  0  0  0  0  0
  -31.2860  -26.9200   21.2490 H   0  0  0  0  0  0  0  0  0  0  0  0
  -29.7200  -26.5330   21.3740 H   0  0  0  0  0  0  0  0  0  0  0  0
  -30.4190  -26.5450   19.4460 C   0  0  0  0  0  2  0  0  0  0  0  0
  -29.2210  -27.4640   19.1680 C   0  0  0  0  0  2  0  0  0  0  0  0
  -28.0160  -26.7600   19.4770 O   0  0  0  0  0  0  0  0  0  0  0  0
  -24.5720  -31.6440   23.3720 C   0  0  0  0  0  0  0  0  0  0  0  0
  -26.9030  -27.5450   19.6640 C   0  0  0  0  0  0  0  0  0  0  0  0
  -23.2450  -30.5360   21.5970 C   0  0  0  0  0  3  0  0  0  0  0  0
  -24.5740  -29.1160   19.9460 C   0  0  0  0  0  0  0  0  0  0  0  0
  -25.7720  -30.7960   21.3640 C   0  0  0  0  0  2  0  0  0  0  0  0
  -25.7670  -29.5140   20.5630 C   0  0  0  0  0  0  0  0  0  0  0  0
  -26.9300  -28.7300   20.4320 C   0  0  0  0  0  3  0  0  0  0  0  0
  -25.6880  -27.1370   19.0740 C   0  0  0  0  0  3  0  0  0  0  0  0
  -24.5240  -27.9200   19.2060 C   0  0  0  0  0  3  0  0  0  0  0  0
  -23.3830  -30.0280   20.1350 C   0  0  0  0  0  2  0  0  0  0  0  0
  -24.5500  -30.9970   22.1730 N   0  0  0  0  0  0  0  0  0  0  0  0
  -23.5240  -31.8990   23.9800 O   0  0  0  0  0  0  0  0  0  0  0  0
  -22.5590  -29.4370   22.4390 C   0  0  0  0  0  0  0  0  0  0  0  0
  -21.2310  -29.3080   22.2870 N   0  0  0  0  0  0  0  0  0  0  0  0
  -23.2180  -28.7060   23.1830 O   0  0  0  0  0  0  0  0  0  0  0  0
  -20.7610  -29.9530   21.6670 H   0  0  0  0  0  0  0  0  0  0  0  0
  -17.8300  -28.1310   22.5690 C   0  0  0  0  0  0  0  0  0  0  0  0
  -20.3790  -28.3170   22.9430 C   0  0  0  0  0  3  0  0  0  0  0  0
  -20.4800  -26.9430   22.2440 C   0  0  0  0  0  2  0  0  0  0  0  0
  -19.4080  -26.7340   21.1690 C   0  0  0  0  0  2  0  0  0  0  0  0
  -18.0070  -26.8440   21.7800 C   0  0  0  0  0  2  0  0  0  0  0  0
  -18.9440  -28.8310   23.1010 C   0  0  0  0  0  0  0  0  0  0  0  0
  -18.7270  -30.0410   23.7950 C   0  0  0  0  0  3  0  0  0  0  0  0
  -17.4260  -30.5500   23.9630 C   0  0  0  0  0  3  0  0  0  0  0  0
  -16.3240  -29.8460   23.4480 C   0  0  0  0  0  3  0  0  0  0  0  0
  -16.5260  -28.6390   22.7570 C   0  0  0  0  0  3  0  0  0  0  0  0
  -25.9100  -32.1120   24.0270 C   0  0  0  0  0  3  0  0  0  0  0  0
  -25.7180  -33.4950   24.4810 N   0  0  0  0  0  0  0  0  0  0  0  0
  -26.1780  -34.5770   23.8370 C   0  0  0  0  0  0  0  0  0  0  0  0
  -26.8780  -34.5060   22.8210 O   0  0  0  0  0  0  0  0  0  0  0  0
  -25.1090  -33.6310   25.2730 H   0  0  0  0  0  0  0  0  0  0  0  0
  -24.6340  -36.5470   23.6020 C   0  0  0  0  0  1  0  0  0  0  0  0
  -25.8010  -35.9570   24.4100 C   0  0  0  0  0  3  0  0  0  0  0  0
  -27.9780  -36.5490   25.3780 C   0  0  0  0  0  1  0  0  0  0  0  0
  -26.9290  -36.9150   24.4300 N   0  0  0  0  0  0  0  0  0  0  0  0
  -26.6030  -37.8490   24.6660 H   0  0  0  0  0  0  0  0  0  0  0  0
  -26.3770  -31.1930   25.2200 C   0  0  1  0  0  0  0  0  0  0  0  0
  -25.2730  -30.9220   26.2680 C   0  0  0  0  0  1  0  0  0  0  0  0
  -26.8710  -29.8290   24.6850 C   0  0  0  0  0  1  0  0  0  0  0  0
  -27.5760  -31.8470   25.9490 C   0  0  0  0  0  1  0  0  0  0  0  0
  2  1  1  0
  3  2  1  0
  4  3  1  0
  5  4  1  0
  5  6  1  0
  6 10  1  0
  6  9  1  0
  6  7  1  6
  9  8  1  0
 11 12  1  0
 11 10  1  0
 12 21  1  0
 13 19  1  0
 13 21  1  0
 14 19  1  0
 15 16  1  0
 15 14  1  0
 17 16  1  0
 17 26  1  0
 17 18  1  0
 19 18  1  0
 20 13  2  0
 21 22  1  0
 23 24  2  0
 24 43  1  0
 25 24  1  0
 25 28  1  0
 26 27  1  0
 26 23  1  0
 27 25  2  0
 28 29  1  0
 29 30  2  0
 31 34  1  0
 31 30  1  0
 32 31  2  0
 33 32  1  0
 33 28  2  0
 34 35  1  0
 35 36  1  0
 36 37  2  0
 38 37  1  0
 38 42  1  0
 39 38  2  0
 40 35  2  0
 40 39  1  0
 41 40  1  0
 43 44  1  0
 44 47  1  0
 44 46  1  0
 45 43  2  0
 48 23  1  0
 48 49  1  0
 50 48  1  0
 51  1  1  0
 51 52  1  0
 53 54  1  0
 53 52  1  0
 53 55  1  0
 56 53  1  0
 57 56  1  0
 57 58  1  0
 58 60  1  0
 59 70  2  0
 60 65  1  0
 61 69  1  0
 61 71  1  0
 62 68  1  0
 62 64  1  0
 63 69  1  0
 64 63  1  0
 65 64  2  0
 66 67  1  0
 66 60  2  0
 67 62  2  0
 68 61  1  0
 69 59  1  0
 71 73  2  0
 72 71  1  0
 74 72  1  0
 75 84  2  0
 75 80  1  0
 76 72  1  0
 76 80  1  0
 77 76  1  0
 78 79  1  0
 78 77  1  0
 79 75  1  0
 80 81  2  0
 81 82  1  0
 83 82  2  0
 84 83  1  0
 85 59  1  0
 85 86  1  0
 85 95  1  0
 86 89  1  0
 87 91  1  0
 87 86  1  0
 88 87  2  0
 91 90  1  0
 91 93  1  0
 93 94  1  0
 93 92  1  0
 95 98  1  1
 95 96  1  0
 97 95  1  0
M  ISO  4  13 100  21 100  57 101  58 101
M  END
>  <TORSDO>  (57) 
F 30

>  <SCORE>  (57) 
-5.906

>  <name>  (57) 
60

>  <ligand_id>  (57) 
60

>  <original_smiles>  (57) 
[H]c1c([H])c([H])c2c(c1[H])C([H])([H])C([H])([H])C([H])([H])C2([H])N([H])C(=O)C1([H])N(C(=O)C([H])(N([H])C(=O)C([H])(N([H])C([H])([H])[H])C([H])([H])[H])C(C([H])([H])[H])(C([H])([H])[H])C([H])([H])[H])C([H])([H])c2c([H])c(OC([H])([H])C([H])([H])[N+]([H])([H])C([H])([H])C([H])([H])C([H])([H])C([H])([H])OC([H])([H])C([H])([H])[N+]([H])(C([H])([H])C([H])([H])[H])C([H])([H])C([H])([H])C([H])([H])N([H])C(=O)N3C([H])([H])C([H])([H])C([H])([H])C([H])(n4nc(-c5c([H])c([H])c(Oc6c([H])c([H])c(F)c([H])c6F)c([H])c5[H])c(C(=O)N([H])[H])c4N([H])[H])C3([H])[H])c([H])c([H])c2C1([H])[H]

>  <smiles>  (57) 
[H]c1c([H])c([H])c2c(c1[H])C([H])([H])C([H])([H])C([H])([H])C2([H])N([H])C(=O)C1([H])N(C(=O)C([H])(N([H])C(=O)C([H])(N([H])C([H])([H])[H])C([H])([H])[H])C(C([H])([H])[H])(C([H])([H])[H])C([H])([H])[H])C([H])([H])c2c([H])c(OC([H])([H])C([H])([H])[N+]([H])([H])C([H])([H])C([H])([H])C([H])([H])C([H])([H])OC([H])([H])C([H])([H])[N+]([H])(C([H])([H])C([H])([H])[H])C([H])([H])C([H])([H])C([H])([H])N([H])C(=O)N3C([H])([H])C([H])([H])C([H])([H])C([H])(n4nc(-c5c([H])c([H])c(Oc6c([H])c([H])c(F)c([H])c6F)c([H])c5[H])c(C(=O)N([H])[H])c4N([H])[H])C3([H])[H])c([H])c([H])c2C1([H])[H]

$$$$
61:0:0
     RDKit          3D

 98105  0  0  1  0  0  0  0  0999 V2000
  -28.7980  -20.9150   26.0700 C   0  0  0  0  0  2  0  0  0  0  0  0
  -29.3240  -21.2660   24.7410 N   0  0  0  0  0  0  0  0  0  0  0  0
  -28.5910  -21.1120   24.0480 H   0  0  0  0  0  0  0  0  0  0  0  0
  -29.7950  -22.6390   24.6420 C   0  0  0  0  0  2  0  0  0  0  0  0
  -30.1540  -22.9940   23.1890 C   0  0  0  0  0  2  0  0  0  0  0  0
  -30.5560  -24.3940   23.0930 N   0  0  0  0  0  0  0  0  0  0  0  0
  -29.8600  -24.9760   23.5620 H   0  0  0  0  0  0  0  0  0  0  0  0
  -30.6980  -24.8640   21.7150 C   0  0  0  0  0  2  0  0  0  0  0  0
  -30.9960  -26.3700   21.6610 C   0  0  0  0  0  2  0  0  0  0  0  0
  -30.6690  -26.8480   20.3570 O   0  0  0  0  0  0  0  0  0  0  0  0
  -25.4970  -30.7300   23.2590 C   0  0  0  0  0  0  0  0  0  0  0  0
  -29.3790  -27.2990   20.2590 C   0  0  0  0  0  0  0  0  0  0  0  0
  -24.8080  -29.2140   21.4250 C   0  0  0  0  0  3  0  0  0  0  0  0
  -26.7090  -28.1700   20.0800 C   0  0  0  0  0  0  0  0  0  0  0  0
  -27.1730  -30.1750   21.5070 C   0  0  0  0  0  2  0  0  0  0  0  0
  -27.6400  -28.9130   20.8160 C   0  0  0  0  0  0  0  0  0  0  0  0
  -28.9770  -28.4820   20.9110 C   0  0  0  0  0  3  0  0  0  0  0  0
  -28.4440  -26.5620   19.5060 C   0  0  0  0  0  3  0  0  0  0  0  0
  -27.1040  -26.9900   19.4200 C   0  0  0  0  0  3  0  0  0  0  0  0
  -25.2940  -28.7010   20.0410 C   0  0  0  0  0  2  0  0  0  0  0  0
  -25.8350  -30.0510   22.1260 N   0  0  0  0  0  0  0  0  0  0  0  0
  -24.3370  -30.7060   23.6960 O   0  0  0  0  0  0  0  0  0  0  0  0
  -24.3360  -28.0010   22.2590 C   0  0  0  0  0  0  0  0  0  0  0  0
  -23.1310  -27.5030   21.9510 N   0  0  0  0  0  0  0  0  0  0  0  0
  -25.0590  -27.5150   23.1330 O   0  0  0  0  0  0  0  0  0  0  0  0
  -22.6020  -27.9630   21.2230 H   0  0  0  0  0  0  0  0  0  0  0  0
  -20.1400  -25.4800   21.9430 C   0  0  0  0  0  0  0  0  0  0  0  0
  -22.4940  -26.3420   22.5710 C   0  0  0  0  0  3  0  0  0  0  0  0
  -23.0270  -25.0240   21.9620 C   0  0  0  0  0  2  0  0  0  0  0  0
  -22.1760  -24.5100   20.7970 C   0  0  0  0  0  2  0  0  0  0  0  0
  -20.7350  -24.2640   21.2520 C   0  0  0  0  0  2  0  0  0  0  0  0
  -20.9670  -26.4630   22.5470 C   0  0  0  0  0  0  0  0  0  0  0  0
  -20.3650  -27.5940   23.1430 C   0  0  0  0  0  3  0  0  0  0  0  0
  -18.9650  -27.7470   23.1460 C   0  0  0  0  0  3  0  0  0  0  0  0
  -18.1510  -26.7610   22.5630 C   0  0  0  0  0  3  0  0  0  0  0  0
  -18.7370  -25.6300   21.9680 C   0  0  0  0  0  3  0  0  0  0  0  0
  -26.5410  -31.5870   24.0430 C   0  0  0  0  0  3  0  0  0  0  0  0
  -27.0050  -30.9190   25.3940 C   0  0  1  0  0  0  0  0  0  0  0  0
  -25.8310  -30.4690   26.2970 C   0  0  0  0  0  1  0  0  0  0  0  0
  -27.8910  -29.6830   25.1110 C   0  0  0  0  0  1  0  0  0  0  0  0
  -27.8780  -31.9110   26.2000 C   0  0  0  0  0  1  0  0  0  0  0  0
  -25.9370  -32.9010   24.2940 N   0  0  0  0  0  0  0  0  0  0  0  0
  -26.1870  -34.0020   23.5710 C   0  0  0  0  0  0  0  0  0  0  0  0
  -27.0190  -34.0310   22.6600 O   0  0  0  0  0  0  0  0  0  0  0  0
  -25.2080  -32.9400   24.9920 H   0  0  0  0  0  0  0  0  0  0  0  0
  -24.2440  -35.4440   22.9020 C   0  0  0  0  0  1  0  0  0  0  0  0
  -25.3880  -35.2720   23.9150 C   0  0  0  0  0  3  0  0  0  0  0  0
  -27.1540  -36.5230   25.0710 C   0  0  0  0  0  1  0  0  0  0  0  0
  -26.2170  -36.4970   23.9500 N   0  0  0  0  0  0  0  0  0  0  0  0
  -25.6320  -37.3260   24.0090 H   0  0  0  0  0  0  0  0  0  0  0  0
  -28.6770  -19.3900   26.1630 C   0  0  0  0  0  2  0  0  0  0  0  0
  -29.2860  -18.8490   24.9530 N   0  0  0  0  0  0  0  0  0  0  0  0
  -29.0860  -19.6030   24.2810 H   0  0  0  0  0  0  0  0  0  0  0  0
  -30.7390  -18.6190   25.0170 C   0  0  0  0  0  2  0  0  0  0  0  0
  -31.2880  -18.4400   23.5950 C   0  0  0  0  0  2  0  0  0  0  0  0
  -30.3540  -17.5930   22.8260 N   0  0  0  0  0  4  0  0  0  0  0  0
  -30.2560  -16.6950   23.2650 H   0  0  0  0  0  0  0  0  0  0  0  0
  -29.4660  -18.0630   22.9510 H   0  0  0  0  0  0  0  0  0  0  0  0
  -30.6680  -17.4490   21.3900 C   0  0  0  0  0  2  0  0  0  0  0  0
  -31.4380  -16.1460   21.1120 C   0  0  0  0  0  2  0  0  0  0  0  0
  -30.6000  -14.3950   19.5450 C   0  0  0  0  0  0  0  0  0  0  0  0
  -30.2400  -12.1270   18.6470 C   0  0  0  0  0  2  0  0  0  0  0  0
  -29.1490  -12.0360   17.5680 C   0  0  0  0  0  2  0  0  0  0  0  0
  -27.7680  -11.8430   18.2160 C   0  0  0  0  0  2  0  0  0  0  0  0
  -27.4880  -12.9000   19.3110 C   0  0  0  0  0  3  0  0  0  0  0  0
  -28.6640  -12.9900   20.3090 C   0  0  0  0  0  2  0  0  0  0  0  0
  -29.9140  -13.2280   19.5640 N   0  0  0  0  0  0  0  0  0  0  0  0
  -31.3670  -14.7270   18.6350 O   0  0  0  0  0  0  0  0  0  0  0  0
  -30.5540  -15.0520   20.7120 N   0  0  0  0  0  0  0  0  0  0  0  0
  -29.9690  -14.6330   21.4210 H   0  0  0  0  0  0  0  0  0  0  0  0
  -25.2810  -13.5270   20.4840 C   0  0  0  0  0  0  0  0  0  0  0  0
  -24.2540  -12.7600   20.9710 C   0  0  0  0  0  0  0  0  0  0  0  0
  -24.6360  -11.4020   20.7430 C   0  0  0  0  0  0  0  0  0  0  0  0
  -26.2240  -12.6350   19.9960 N   0  0  0  0  0  0  0  0  0  0  0  0
  -25.8480  -11.3470   20.2080 N   0  0  0  0  0  0  0  0  0  0  0  0
  -23.8930  -10.1540   20.9540 C   0  0  0  0  0  0  0  0  0  0  0  0
  -24.3590   -9.1590   21.8430 C   0  0  0  0  0  3  0  0  0  0  0  0
  -23.6180   -7.9730   22.0390 C   0  0  0  0  0  3  0  0  0  0  0  0
  -22.4000   -7.7740   21.3480 C   0  0  0  0  0  0  0  0  0  0  0  0
  -21.9530   -8.7580   20.4480 C   0  0  0  0  0  3  0  0  0  0  0  0
  -22.6930   -9.9350   20.2490 C   0  0  0  0  0  3  0  0  0  0  0  0
  -21.6260   -6.6430   21.4570 O   0  0  0  0  0  0  0  0  0  0  0  0
  -21.5180   -5.9570   22.6400 C   0  0  0  0  0  0  0  0  0  0  0  0
  -21.0400   -6.5720   23.8170 C   0  0  0  0  0  3  0  0  0  0  0  0
  -20.8770   -5.8110   24.9920 C   0  0  0  0  0  3  0  0  0  0  0  0
  -21.1850   -4.4380   24.9910 C   0  0  0  0  0  0  0  0  0  0  0  0
  -21.6550   -3.8220   23.8180 C   0  0  0  0  0  3  0  0  0  0  0  0
  -21.8200   -4.5800   22.6450 C   0  0  0  0  0  0  0  0  0  0  0  0
  -22.2530   -3.9780   21.5120 F   0  0  0  0  0  0  0  0  0  0  0  0
  -21.0210   -3.7060   26.1180 F   0  0  0  0  0  0  0  0  0  0  0  0
  -22.9520  -13.2580   21.5280 C   0  0  0  0  0  0  0  0  0  0  0  0
  -22.3640  -12.5190   22.4640 N   0  0  0  0  0  0  0  0  0  0  0  0
  -22.4740  -14.3330   21.1710 O   0  0  0  0  0  0  0  0  0  0  0  0
  -22.7640  -11.6440   22.7670 H   0  0  0  0  0  0  0  0  0  0  0  0
  -21.5010  -12.8350   22.8820 H   0  0  0  0  0  0  0  0  0  0  0  0
  -25.4800  -14.9000   20.3990 N   0  0  0  0  0  0  0  0  0  0  0  0
  -24.7790  -15.5700   20.6960 H   0  0  0  0  0  0  0  0  0  0  0  0
  -26.2930  -15.3390   19.9840 H   0  0  0  0  0  0  0  0  0  0  0  0
  1 51  1  0
  2  1  1  0
  3  2  1  0
  4  2  1  0
  5  4  1  0
  6  5  1  0
  6  7  1  0
  8  6  1  0
  9  8  1  0
 10  9  1  0
 11 22  2  0
 12 10  1  0
 12 17  1  0
 13 21  1  0
 13 23  1  0
 14 16  1  0
 15 21  1  0
 16 17  2  0
 16 15  1  0
 18 12  2  0
 19 18  1  0
 19 14  2  0
 20 14  1  0
 20 13  1  0
 21 11  1  0
 23 25  2  0
 24 23  1  0
 26 24  1  0
 27 36  2  0
 27 32  1  0
 28 24  1  0
 29 28  1  0
 30 31  1  0
 30 29  1  0
 31 27  1  0
 32 28  1  0
 32 33  2  0
 33 34  1  0
 35 34  2  0
 36 35  1  0
 37 11  1  0
 37 42  1  0
 37 38  1  0
 38 41  1  1
 38 39  1  0
 40 38  1  0
 42 45  1  0
 43 47  1  0
 43 42  1  0
 44 43  2  0
 47 46  1  0
 47 49  1  0
 49 50  1  0
 49 48  1  0
 52 54  1  0
 52 51  1  0
 53 52  1  0
 55 54  1  0
 56 58  1  0
 56 57  1  0
 56 55  1  0
 59 56  1  0
 60 59  1  0
 61 67  1  0
 61 69  1  0
 62 67  1  0
 63 64  1  0
 63 62  1  0
 65 64  1  0
 65 74  1  0
 65 66  1  0
 67 66  1  0
 68 61  2  0
 69 60  1  0
 69 70  1  0
 71 72  2  0
 72 91  1  0
 73 76  1  0
 73 72  1  0
 74 75  1  0
 74 71  1  0
 75 73  2  0
 76 77  1  0
 77 78  2  0
 79 82  1  0
 79 78  1  0
 80 79  2  0
 81 80  1  0
 81 76  2  0
 82 83  1  0
 83 88  2  0
 83 84  1  0
 84 85  2  0
 86 85  1  0
 86 90  1  0
 87 86  2  0
 88 87  1  0
 89 88  1  0
 91 92  1  0
 92 94  1  0
 92 95  1  0
 93 91  2  0
 96 71  1  0
 96 97  1  0
 98 96  1  0
M  ISO  4   9 101  10 101  61 100  69 100
M  END
>  <TORSDO>  (58) 
F 29

>  <SCORE>  (58) 
0.437

>  <name>  (58) 
61

>  <ligand_id>  (58) 
61

>  <original_smiles>  (58) 
[H]c1c([H])c([H])c2c(c1[H])C([H])([H])C([H])([H])C([H])([H])C2([H])N([H])C(=O)C1([H])N(C(=O)C([H])(N([H])C(=O)C([H])(N([H])C([H])([H])[H])C([H])([H])[H])C(C([H])([H])[H])(C([H])([H])[H])C([H])([H])[H])C([H])([H])c2c([H])c(OC([H])([H])C([H])([H])N([H])C([H])([H])C([H])([H])N([H])C([H])([H])C([H])([H])N([H])C([H])([H])C([H])([H])[N+]([H])([H])C([H])([H])C([H])([H])N([H])C(=O)N3C([H])([H])C([H])([H])C([H])([H])C([H])(n4nc(-c5c([H])c([H])c(Oc6c([H])c([H])c(F)c([H])c6F)c([H])c5[H])c(C(=O)N([H])[H])c4N([H])[H])C3([H])[H])c([H])c([H])c2C1([H])[H]

>  <smiles>  (58) 
[H]c1c([H])c([H])c2c(c1[H])C([H])([H])C([H])([H])C([H])([H])C2([H])N([H])C(=O)C1([H])N(C(=O)C([H])(N([H])C(=O)C([H])(N([H])C([H])([H])[H])C([H])([H])[H])C(C([H])([H])[H])(C([H])([H])[H])C([H])([H])[H])C([H])([H])c2c([H])c(OC([H])([H])C([H])([H])N([H])C([H])([H])C([H])([H])N([H])C([H])([H])C([H])([H])N([H])C([H])([H])C([H])([H])[N+]([H])([H])C([H])([H])C([H])([H])N([H])C(=O)N3C([H])([H])C([H])([H])C([H])([H])C([H])(n4nc(-c5c([H])c([H])c(Oc6c([H])c([H])c(F)c([H])c6F)c([H])c5[H])c(C(=O)N([H])[H])c4N([H])[H])C3([H])[H])c([H])c([H])c2C1([H])[H]

$$$$
62:0:0
     RDKit          3D

101105  0  0  1  0  0  0  0  0999 V2000
  -26.2720  -17.3470   17.7610 C   0  0  0  0  0  2  0  0  0  0  0  0
  -26.9260  -16.0450   18.0450 N   0  0  0  0  0  0  0  0  0  0  0  0
  -26.9570  -15.9490   19.0670 H   0  0  0  0  0  0  0  0  0  0  0  0
  -26.2350  -14.8570   17.4870 C   0  0  0  0  0  2  0  0  0  0  0  0
  -27.1660  -13.9150   16.6580 C   0  0  0  0  0  2  0  0  0  0  0  0
  -28.0300  -12.9790   17.4330 N   0  0  0  0  0  4  0  0  0  0  0  0
  -28.4000  -13.4660   18.2320 H   0  0  0  0  0  0  0  0  0  0  0  0
  -27.4600  -12.2190   17.7700 H   0  0  0  0  0  0  0  0  0  0  0  0
  -29.1610  -12.4160   16.6300 C   0  0  0  0  0  2  0  0  0  0  0  0
  -30.1210  -11.4570   17.3990 C   0  0  0  0  0  2  0  0  0  0  0  0
  -30.9340  -12.0550   18.5800 C   0  0  0  0  0  3  0  0  0  0  0  0
  -31.9510  -13.1990   18.2390 C   0  0  0  0  0  3  0  0  0  0  0  0
  -32.8190  -13.8260   19.4110 C   0  0  0  0  0  2  0  0  0  0  0  0
  -31.8860  -16.4620   20.7520 C   0  0  2  0  0  0  0  0  0  0  0  0
  -32.2900  -17.1540   19.3510 C   0  0  0  0  0  1  0  0  0  0  0  0
  -30.8130  -16.1540   18.6800 C   0  0  0  0  0  1  0  0  0  0  0  0
  -30.0680  -14.9180   19.7400 C   0  0  0  0  0  2  0  0  0  0  0  0
  -30.4720  -14.6850   21.4470 C   0  0  0  0  0  2  0  0  0  0  0  0
  -31.8620  -15.7020   22.1890 C   0  0  0  0  0  1  0  0  0  0  0  0
  -32.7200  -16.8330   21.0870 N   0  0  0  0  0  1  0  0  0  0  0  0
  -30.8170  -17.3160   20.9800 O   0  0  0  0  0  1  0  0  0  0  0  0
  -32.6820  -15.1310   20.1820 N   0  0  0  0  0  2  0  0  0  0  0  0
  -33.6080  -15.3120   20.5380 H   0  0  0  0  0  0  0  0  0  0  0  0
  -29.5700  -12.7780   22.8920 C   0  0  0  0  0  0  0  0  0  0  0  0
  -29.8310  -11.4400   23.0010 C   0  0  0  0  0  0  0  0  0  0  0  0
  -30.8250  -11.1440   22.0260 C   0  0  0  0  0  0  0  0  0  0  0  0
  -30.4110  -13.2800   21.9200 N   0  0  0  0  0  0  0  0  0  0  0  0
  -31.2150  -12.2820   21.4490 N   0  0  0  0  0  0  0  0  0  0  0  0
  -31.3850   -9.8350   21.6130 C   0  0  0  0  0  0  0  0  0  0  0  0
  -32.7670   -9.6520   21.3780 C   0  0  0  0  0  3  0  0  0  0  0  0
  -33.2810   -8.3800   21.0330 C   0  0  0  0  0  3  0  0  0  0  0  0
  -32.4170   -7.2650   20.9210 C   0  0  0  0  0  0  0  0  0  0  0  0
  -31.0390   -7.4540   21.1290 C   0  0  0  0  0  3  0  0  0  0  0  0
  -30.5290   -8.7200   21.4680 C   0  0  0  0  0  3  0  0  0  0  0  0
  -32.8230   -6.0000   20.5610 O   0  0  0  0  0  0  0  0  0  0  0  0
  -34.1390   -5.6150   20.6300 C   0  0  0  0  0  0  0  0  0  0  0  0
  -34.8750   -5.6990   21.8330 C   0  0  0  0  0  3  0  0  0  0  0  0
  -36.2000   -5.2240   21.8830 C   0  0  0  0  0  3  0  0  0  0  0  0
  -36.7910   -4.6630   20.7350 C   0  0  0  0  0  0  0  0  0  0  0  0
  -36.0600   -4.5710   19.5390 C   0  0  0  0  0  3  0  0  0  0  0  0
  -34.7360   -5.0420   19.4880 C   0  0  0  0  0  0  0  0  0  0  0  0
  -34.0280   -4.9270   18.3380 F   0  0  0  0  0  0  0  0  0  0  0  0
  -38.0660   -4.2070   20.7840 F   0  0  0  0  0  0  0  0  0  0  0  0
  -29.1450  -10.4850   23.9290 C   0  0  0  0  0  0  0  0  0  0  0  0
  -29.8460   -9.4490   24.3730 N   0  0  0  0  0  0  0  0  0  0  0  0
  -27.9960  -10.6900   24.3120 O   0  0  0  0  0  0  0  0  0  0  0  0
  -30.8030   -9.3130   24.0800 H   0  0  0  0  0  0  0  0  0  0  0  0
  -29.4270   -8.7900   25.0130 H   0  0  0  0  0  0  0  0  0  0  0  0
  -28.6790  -13.6220   23.5410 N   0  0  0  0  0  0  0  0  0  0  0  0
  -28.1350  -13.2640   24.3160 H   0  0  0  0  0  0  0  0  0  0  0  0
  -28.9280  -14.5940   23.6690 H   0  0  0  0  0  0  0  0  0  0  0  0
  -27.0600  -18.5350   18.3810 C   0  0  0  0  0  2  0  0  0  0  0  0
  -26.2660  -19.7610   18.6320 N   0  0  0  0  0  0  0  0  0  0  0  0
  -26.4830  -20.0640   19.5840 H   0  0  0  0  0  0  0  0  0  0  0  0
  -26.5410  -20.9160   17.7540 C   0  0  0  0  0  2  0  0  0  0  0  0
  -26.0550  -22.2600   18.3820 C   0  0  0  0  0  2  0  0  0  0  0  0
  -26.6680  -23.4460   17.7430 N   0  0  0  0  0  0  0  0  0  0  0  0
  -26.2180  -23.6050   16.8380 H   0  0  0  0  0  0  0  0  0  0  0  0
  -26.6400  -24.7050   18.5330 C   0  0  0  0  0  2  0  0  0  0  0  0
  -27.1070  -25.9420   17.6970 C   0  0  0  0  0  2  0  0  0  0  0  0
  -27.2750  -27.1850   18.4180 O   0  0  0  0  0  0  0  0  0  0  0  0
  -24.3500  -32.0020   22.8340 C   0  0  0  0  0  0  0  0  0  0  0  0
  -26.1600  -27.9410   18.7400 C   0  0  0  0  0  0  0  0  0  0  0  0
  -22.8030  -30.8470   21.2930 C   0  0  0  0  0  3  0  0  0  0  0  0
  -23.8920  -29.4970   19.4320 C   0  0  0  0  0  0  0  0  0  0  0  0
  -25.2680  -31.1760   20.6650 C   0  0  0  0  0  2  0  0  0  0  0  0
  -25.1670  -29.9040   19.8430 C   0  0  0  0  0  0  0  0  0  0  0  0
  -26.3050  -29.1310   19.5000 C   0  0  0  0  0  3  0  0  0  0  0  0
  -24.8590  -27.5590   18.3410 C   0  0  0  0  0  3  0  0  0  0  0  0
  -23.7340  -28.3190   18.6880 C   0  0  0  0  0  3  0  0  0  0  0  0
  -22.7210  -30.3660   19.8230 C   0  0  0  0  0  2  0  0  0  0  0  0
  -24.1690  -31.3500   21.6500 N   0  0  0  0  0  0  0  0  0  0  0  0
  -23.3980  -32.2140   23.6000 O   0  0  0  0  0  0  0  0  0  0  0  0
  -22.3080  -29.7100   22.2170 C   0  0  0  0  0  0  0  0  0  0  0  0
  -20.9800  -29.5140   22.2670 N   0  0  0  0  0  0  0  0  0  0  0  0
  -23.1090  -29.0130   22.8460 O   0  0  0  0  0  0  0  0  0  0  0  0
  -20.3900  -30.1310   21.7290 H   0  0  0  0  0  0  0  0  0  0  0  0
  -17.7300  -28.1510   23.0630 C   0  0  0  0  0  0  0  0  0  0  0  0
  -20.2930  -28.4830   23.0460 C   0  0  0  0  0  3  0  0  0  0  0  0
  -20.3640  -27.1100   22.3380 C   0  0  0  0  0  2  0  0  0  0  0  0
  -19.1550  -26.8320   21.4390 C   0  0  0  0  0  2  0  0  0  0  0  0
  -17.8600  -26.8710   22.2550 C   0  0  0  0  0  2  0  0  0  0  0  0
  -18.8710  -28.9160   23.4210 C   0  0  0  0  0  0  0  0  0  0  0  0
  -18.6930  -30.1170   24.1420 C   0  0  0  0  0  3  0  0  0  0  0  0
  -17.4050  -30.5520   24.5070 C   0  0  0  0  0  3  0  0  0  0  0  0
  -16.2790  -29.7820   24.1630 C   0  0  0  0  0  3  0  0  0  0  0  0
  -16.4440  -28.5830   23.4470 C   0  0  0  0  0  3  0  0  0  0  0  0
  -25.7490  -32.5300   23.2680 C   0  0  0  0  0  3  0  0  0  0  0  0
  -26.4850  -31.5800   24.2900 C   0  0  1  0  0  0  0  0  0  0  0  0
  -25.6210  -31.1920   25.5110 C   0  0  0  0  0  1  0  0  0  0  0  0
  -26.9340  -30.2720   23.5970 C   0  0  0  0  0  1  0  0  0  0  0  0
  -27.7700  -32.2650   24.8100 C   0  0  0  0  0  1  0  0  0  0  0  0
  -25.5550  -33.8660   23.8500 N   0  0  0  0  0  0  0  0  0  0  0  0
  -25.7790  -35.0170   23.2040 C   0  0  0  0  0  0  0  0  0  0  0  0
  -26.2490  -35.0660   22.0640 O   0  0  0  0  0  0  0  0  0  0  0  0
  -25.1210  -33.9020   24.7600 H   0  0  0  0  0  0  0  0  0  0  0  0
  -24.0780  -36.8540   23.4380 C   0  0  0  0  0  1  0  0  0  0  0  0
  -25.4300  -36.3240   23.9420 C   0  0  0  0  0  3  0  0  0  0  0  0
  -27.7140  -37.0520   24.4760 C   0  0  0  0  0  1  0  0  0  0  0  0
  -26.4610  -37.3760   23.7970 N   0  0  0  0  0  0  0  0  0  0  0  0
  -26.1240  -38.2630   24.1600 H   0  0  0  0  0  0  0  0  0  0  0  0
  1  2  1  0
  1 52  1  0
  2  3  1  0
  4  2  1  0
  5  6  1  0
  5  4  1  0
  6  8  1  0
  6  7  1  0
  9 10  1  0
  9  6  1  0
 10 11  1  0
 12 11  2  0
 12 13  1  0
 13 22  1  0
 14 21  1  0
 14 20  1  0
 14 19  1  6
 15 14  1  0
 16 17  1  0
 17 18  1  0
 18 27  1  0
 22 23  1  0
 24 25  2  0
 24 49  1  0
 25 44  1  0
 26 25  1  0
 27 24  1  0
 28 27  1  0
 28 26  2  0
 29 26  1  0
 30 29  2  0
 31 30  1  0
 32 31  2  0
 32 33  1  0
 33 34  2  0
 34 29  1  0
 35 36  1  0
 35 32  1  0
 36 37  1  0
 37 38  2  0
 39 43  1  0
 39 38  1  0
 40 39  2  0
 41 40  1  0
 41 36  2  0
 42 41  1  0
 44 46  2  0
 44 45  1  0
 45 48  1  0
 47 45  1  0
 49 51  1  0
 49 50  1  0
 52 53  1  0
 53 54  1  0
 55 56  1  0
 55 53  1  0
 57 56  1  0
 57 59  1  0
 58 57  1  0
 60 61  1  0
 60 59  1  0
 61 63  1  0
 62 73  2  0
 63 68  1  0
 64 72  1  0
 64 74  1  0
 65 71  1  0
 65 67  1  0
 66 72  1  0
 67 66  1  0
 68 67  2  0
 69 70  1  0
 69 63  2  0
 70 65  2  0
 71 64  1  0
 72 62  1  0
 74 75  1  0
 74 76  2  0
 77 75  1  0
 78 83  2  0
 78 87  1  0
 79 75  1  0
 79 83  1  0
 80 79  1  0
 81 82  1  0
 81 80  1  0
 82 78  1  0
 83 84  1  0
 84 85  2  0
 86 85  1  0
 87 86  2  0
 88 62  1  0
 88 93  1  0
 88 89  1  0
 89 92  1  1
 89 90  1  0
 91 89  1  0
 93 96  1  0
 94 93  1  0
 94 98  1  0
 95 94  2  0
 98 97  1  0
100 98  1  0
100101  1  0
100 99  1  0
M  ISO  4  14 100  22 100  60 101  61 101
M  END
>  <TORSDO>  (59) 
F 32

>  <SCORE>  (59) 
16.390

>  <name>  (59) 
62

>  <ligand_id>  (59) 
62

>  <original_smiles>  (59) 
[H]c1c([H])c([H])c2c(c1[H])C([H])([H])C([H])([H])C([H])([H])C2([H])N([H])C(=O)C1([H])N(C(=O)C([H])(N([H])C(=O)C([H])(N([H])C([H])([H])[H])C([H])([H])[H])C(C([H])([H])[H])(C([H])([H])[H])C([H])([H])[H])C([H])([H])c2c([H])c(OC([H])([H])C([H])([H])N([H])C([H])([H])C([H])([H])N([H])C([H])([H])C([H])([H])N([H])C([H])([H])C([H])([H])[N+]([H])([H])C([H])([H])C([H])([H])C([H])([H])C([H])([H])C([H])([H])N([H])C(=O)N3C([H])([H])C([H])([H])C([H])([H])C([H])(n4nc(-c5c([H])c([H])c(Oc6c([H])c([H])c(F)c([H])c6F)c([H])c5[H])c(C(=O)N([H])[H])c4N([H])[H])C3([H])[H])c([H])c([H])c2C1([H])[H]

>  <smiles>  (59) 
[H]c1c([H])c([H])c2c(c1[H])C([H])([H])C([H])([H])C([H])([H])C2([H])N([H])C(=O)C1([H])N(C(=O)C([H])(N([H])C(=O)C([H])(N([H])C([H])([H])[H])C([H])([H])[H])C(C([H])([H])[H])(C([H])([H])[H])C([H])([H])[H])C([H])([H])c2c([H])c(OC([H])([H])C([H])([H])N([H])C([H])([H])C([H])([H])N([H])C([H])([H])C([H])([H])N([H])C([H])([H])C([H])([H])[N+]([H])([H])C([H])([H])C([H])([H])C([H])([H])C([H])([H])C([H])([H])N([H])C(=O)N3C([H])([H])C([H])([H])C([H])([H])C([H])(n4nc(-c5c([H])c([H])c(Oc6c([H])c([H])c(F)c([H])c6F)c([H])c5[H])c(C(=O)N([H])[H])c4N([H])[H])C3([H])[H])c([H])c([H])c2C1([H])[H]

$$$$
63:0:0
     RDKit          3D

100104  0  0  1  0  0  0  0  0999 V2000
  -25.7280  -18.1600   19.5070 C   0  0  0  0  0  2  0  0  0  0  0  0
  -24.9330  -17.2330   18.7600 O   0  0  0  0  0  0  0  0  0  0  0  0
  -25.1280  -15.8350   19.0150 C   0  0  0  0  0  2  0  0  0  0  0  0
  -26.4330  -15.2840   18.3870 C   0  0  0  0  0  2  0  0  0  0  0  0
  -26.6790  -13.8530   18.7260 N   0  0  0  0  0  4  0  0  0  0  0  0
  -26.8650  -13.7470   19.7110 H   0  0  0  0  0  0  0  0  0  0  0  0
  -25.8190  -13.3480   18.5520 H   0  0  0  0  0  0  0  0  0  0  0  0
  -27.7290  -13.1590   17.9310 C   0  0  0  0  0  2  0  0  0  0  0  0
  -28.9710  -12.7660   18.7640 C   0  0  0  0  0  2  0  0  0  0  0  0
  -30.2830  -12.5720   17.9500 C   0  0  0  0  0  2  0  0  0  0  0  0
  -31.5990  -12.7000   18.7800 C   0  0  0  0  0  2  0  0  0  0  0  0
  -32.2870  -14.1170   18.8720 C   0  0  0  0  0  2  0  0  0  0  0  0
  -32.5390  -14.7200   20.3190 C   0  0  0  0  0  2  0  0  0  0  0  0
  -31.1020  -17.3390   21.1460 C   0  0  2  0  0  0  0  0  0  0  0  0
  -32.0680  -18.1270   20.1380 C   0  0  0  0  0  1  0  0  0  0  0  0
  -31.0940  -17.1660   18.8030 C   0  0  0  0  0  1  0  0  0  0  0  0
  -30.0070  -15.8490   19.3270 C   0  0  0  0  0  2  0  0  0  0  0  0
  -29.5510  -15.5380   21.0110 C   0  0  0  0  0  2  0  0  0  0  0  0
  -30.4430  -16.4760   22.3640 C   0  0  0  0  0  1  0  0  0  0  0  0
  -31.6710  -17.6800   21.8520 N   0  0  0  0  0  1  0  0  0  0  0  0
  -30.0150  -18.1660   20.9210 O   0  0  0  0  0  1  0  0  0  0  0  0
  -32.1120  -16.0470   20.9230 N   0  0  0  0  0  2  0  0  0  0  0  0
  -32.8440  -16.2620   21.5770 H   0  0  0  0  0  0  0  0  0  0  0  0
  -28.0570  -13.6140   21.8150 C   0  0  0  0  0  0  0  0  0  0  0  0
  -28.2220  -12.2660   21.9670 C   0  0  0  0  0  0  0  0  0  0  0  0
  -29.5640  -11.9780   21.5800 C   0  0  0  0  0  0  0  0  0  0  0  0
  -29.2540  -14.1230   21.3500 N   0  0  0  0  0  0  0  0  0  0  0  0
  -30.1730  -13.1190   21.2740 N   0  0  0  0  0  0  0  0  0  0  0  0
  -30.2700  -10.6820   21.4500 C   0  0  0  0  0  0  0  0  0  0  0  0
  -31.5910  -10.4960   21.9300 C   0  0  0  0  0  3  0  0  0  0  0  0
  -32.2300   -9.2420   21.8230 C   0  0  0  0  0  3  0  0  0  0  0  0
  -31.5450   -8.1430   21.2420 C   0  0  0  0  0  0  0  0  0  0  0  0
  -30.2430   -8.3330   20.7490 C   0  0  0  0  0  3  0  0  0  0  0  0
  -29.6110   -9.5840   20.8530 C   0  0  0  0  0  3  0  0  0  0  0  0
  -32.0960   -6.8940   21.0770 O   0  0  0  0  0  0  0  0  0  0  0  0
  -33.1870   -6.4800   21.8040 C   0  0  0  0  0  0  0  0  0  0  0  0
  -33.1810   -6.4720   23.2150 C   0  0  0  0  0  3  0  0  0  0  0  0
  -34.2940   -5.9710   23.9200 C   0  0  0  0  0  3  0  0  0  0  0  0
  -35.4110   -5.4790   23.2180 C   0  0  0  0  0  0  0  0  0  0  0  0
  -35.4180   -5.4900   21.8120 C   0  0  0  0  0  3  0  0  0  0  0  0
  -34.3080   -5.9820   21.1070 C   0  0  0  0  0  0  0  0  0  0  0  0
  -34.3120   -5.9680   19.7530 F   0  0  0  0  0  0  0  0  0  0  0  0
  -36.4770   -4.9960   23.8980 F   0  0  0  0  0  0  0  0  0  0  0  0
  -27.1720  -11.2930   22.3940 C   0  0  0  0  0  0  0  0  0  0  0  0
  -27.5670  -10.2430   23.1080 N   0  0  0  0  0  0  0  0  0  0  0  0
  -25.9850  -11.4950   22.1340 O   0  0  0  0  0  0  0  0  0  0  0  0
  -28.5350  -10.1260   23.3710 H   0  0  0  0  0  0  0  0  0  0  0  0
  -26.8920   -9.5640   23.4320 H   0  0  0  0  0  0  0  0  0  0  0  0
  -26.9930  -14.4750   22.0390 N   0  0  0  0  0  0  0  0  0  0  0  0
  -26.2790  -14.1640   22.6880 H   0  0  0  0  0  0  0  0  0  0  0  0
  -27.2830  -15.4210   22.2560 H   0  0  0  0  0  0  0  0  0  0  0  0
  -25.5040  -19.5590   18.8760 C   0  0  0  0  0  2  0  0  0  0  0  0
  -26.5360  -20.6750   19.1850 C   0  0  0  0  0  2  0  0  0  0  0  0
  -26.0240  -21.9810   18.7010 N   0  0  0  0  0  4  0  0  0  0  0  0
  -25.5890  -21.8330   17.8060 H   0  0  0  0  0  0  0  0  0  0  0  0
  -25.3020  -22.2600   19.3440 H   0  0  0  0  0  0  0  0  0  0  0  0
  -26.9810  -23.1120   18.5690 C   0  0  0  0  0  2  0  0  0  0  0  0
  -26.2150  -24.4640   18.5880 C   0  0  0  0  0  3  0  0  0  0  0  0
  -27.0170  -25.7850   18.3760 C   0  0  0  0  0  3  0  0  0  0  0  0
  -26.2750  -27.0400   18.3690 O   0  0  0  0  0  0  0  0  0  0  0  0
  -28.2240  -30.9480   24.0280 C   0  0  0  0  0  0  0  0  0  0  0  0
  -25.9270  -27.5750   19.5940 C   0  0  0  0  0  0  0  0  0  0  0  0
  -26.1900  -29.5690   24.2880 C   0  0  0  0  0  3  0  0  0  0  0  0
  -25.2360  -28.5830   22.1440 C   0  0  0  0  0  0  0  0  0  0  0  0
  -26.8830  -30.4530   21.9860 C   0  0  0  0  0  2  0  0  0  0  0  0
  -26.2160  -29.2320   21.3830 C   0  0  0  0  0  0  0  0  0  0  0  0
  -26.5680  -28.7340   20.1020 C   0  0  0  0  0  3  0  0  0  0  0  0
  -24.8850  -26.9960   20.3490 C   0  0  0  0  0  3  0  0  0  0  0  0
  -24.5580  -27.4730   21.6260 C   0  0  0  0  0  3  0  0  0  0  0  0
  -24.9180  -29.1500   23.5060 C   0  0  0  0  0  2  0  0  0  0  0  0
  -27.1570  -30.3370   23.4400 N   0  0  0  0  0  0  0  0  0  0  0  0
  -28.3890  -30.9110   25.2560 O   0  0  0  0  0  0  0  0  0  0  0  0
  -26.8140  -28.3080   24.9330 C   0  0  0  0  0  0  0  0  0  0  0  0
  -26.3800  -27.9860   26.1630 N   0  0  0  0  0  0  0  0  0  0  0  0
  -27.6410  -27.6290   24.3200 O   0  0  0  0  0  0  0  0  0  0  0  0
  -25.7070  -28.5980   26.6010 H   0  0  0  0  0  0  0  0  0  0  0  0
  -26.1020  -26.3930   29.3950 C   0  0  0  0  0  0  0  0  0  0  0  0
  -26.8060  -26.8250   26.9450 C   0  0  0  0  0  3  0  0  0  0  0  0
  -25.9640  -25.5770   26.5920 C   0  0  0  0  0  2  0  0  0  0  0  0
  -24.7500  -25.3890   27.5090 C   0  0  0  0  0  2  0  0  0  0  0  0
  -25.1940  -25.2540   28.9680 C   0  0  0  0  0  2  0  0  0  0  0  0
  -26.8490  -27.1400   28.4450 C   0  0  0  0  0  0  0  0  0  0  0  0
  -27.6500  -28.2130   28.8940 C   0  0  0  0  0  3  0  0  0  0  0  0
  -27.7200  -28.5360   30.2620 C   0  0  0  0  0  3  0  0  0  0  0  0
  -26.9870  -27.7850   31.1980 C   0  0  0  0  0  3  0  0  0  0  0  0
  -26.1860  -26.7160   30.7650 C   0  0  0  0  0  3  0  0  0  0  0  0
  -29.2720  -31.7430   23.1910 C   0  0  0  0  0  3  0  0  0  0  0  0
  -29.4800  -33.0340   23.8610 N   0  0  0  0  0  0  0  0  0  0  0  0
  -28.9500  -34.1940   23.4580 C   0  0  0  0  0  0  0  0  0  0  0  0
  -28.2800  -34.3020   22.4240 O   0  0  0  0  0  0  0  0  0  0  0  0
  -29.9650  -33.0090   24.7470 H   0  0  0  0  0  0  0  0  0  0  0  0
  -27.9530  -35.7350   25.1790 C   0  0  0  0  0  1  0  0  0  0  0  0
  -29.2030  -35.4370   24.3340 C   0  0  0  0  0  3  0  0  0  0  0  0
  -30.8980  -36.5460   22.9460 C   0  0  0  0  0  1  0  0  0  0  0  0
  -29.5740  -36.6400   23.5570 N   0  0  0  0  0  0  0  0  0  0  0  0
  -29.5560  -37.4690   24.1460 H   0  0  0  0  0  0  0  0  0  0  0  0
  -30.6390  -30.9760   23.0130 C   0  0  1  0  0  0  0  0  0  0  0  0
  -31.2600  -30.4960   24.3470 C   0  0  0  0  0  1  0  0  0  0  0  0
  -30.4630  -29.7360   22.1050 C   0  0  0  0  0  1  0  0  0  0  0  0
  -31.6650  -31.8950   22.3080 C   0  0  0  0  0  1  0  0  0  0  0  0
  2  3  1  0
  2  1  1  0
  4  5  1  0
  4  3  1  0
  5  6  1  0
  7  5  1  0
  8  5  1  0
  8  9  1  0
 10  9  1  0
 10 11  1  0
 11 12  1  0
 12 13  1  0
 13 22  1  0
 14 20  1  0
 14 19  1  6
 15 14  1  0
 16 17  1  0
 17 18  1  0
 18 27  1  0
 21 14  1  0
 22 23  1  0
 24 25  2  0
 24 49  1  0
 25 44  1  0
 26 25  1  0
 27 24  1  0
 28 27  1  0
 28 26  2  0
 29 26  1  0
 29 30  1  0
 31 30  2  0
 32 31  1  0
 33 34  1  0
 33 32  2  0
 34 29  2  0
 35 32  1  0
 35 36  1  0
 36 37  1  0
 37 38  2  0
 39 43  1  0
 39 38  1  0
 40 39  2  0
 41 36  2  0
 41 40  1  0
 42 41  1  0
 44 45  1  0
 45 47  1  0
 45 48  1  0
 46 44  2  0
 49 51  1  0
 49 50  1  0
 52 53  1  0
 52  1  1  0
 54 53  1  0
 54 56  1  0
 55 54  1  0
 57 58  1  0
 57 54  1  0
 59 58  2  0
 60 59  1  0
 60 62  1  0
 61 72  2  0
 62 67  2  0
 62 68  1  0
 63 73  1  0
 64 70  1  0
 65 71  1  0
 66 65  1  0
 66 64  2  0
 67 66  1  0
 68 69  2  0
 69 64  1  0
 70 63  1  0
 71 61  1  0
 71 63  1  0
 73 74  1  0
 74 76  1  0
 75 73  2  0
 77 86  1  0
 78 74  1  0
 78 82  1  0
 79 78  1  0
 79 80  1  0
 80 81  1  0
 81 77  1  0
 82 83  1  0
 82 77  2  0
 83 84  2  0
 84 85  1  0
 86 85  2  0
 87 88  1  0
 87 61  1  0
 88 91  1  0
 89 88  1  0
 89 93  1  0
 90 89  2  0
 93 92  1  0
 94 95  1  0
 95 96  1  0
 95 93  1  0
 97 87  1  0
 97 98  1  1
 99 97  1  0
100 97  1  0
M  ISO  4  14 100  22 100  59 101  60 101
M  END
>  <TORSDO>  (60) 
F 32

>  <SCORE>  (60) 
3.774

>  <name>  (60) 
63

>  <ligand_id>  (60) 
63

>  <original_smiles>  (60) 
[H]c1c([H])c([H])c2c(c1[H])C([H])([H])C([H])([H])C([H])([H])C2([H])N([H])C(=O)C1([H])N(C(=O)C([H])(N([H])C(=O)C([H])(N([H])C([H])([H])[H])C([H])([H])[H])C(C([H])([H])[H])(C([H])([H])[H])C([H])([H])[H])C([H])([H])c2c([H])c(OC([H])([H])C([H])([H])C([H])([H])[N+]([H])([H])C([H])([H])C([H])([H])C([H])([H])OC([H])([H])C([H])([H])[N+]([H])([H])C([H])([H])C([H])([H])C([H])([H])C([H])([H])C([H])([H])C([H])([H])N([H])C(=O)N3C([H])([H])C([H])([H])C([H])([H])C([H])(n4nc(-c5c([H])c([H])c(Oc6c([H])c([H])c(F)c([H])c6F)c([H])c5[H])c(C(=O)N([H])[H])c4N([H])[H])C3([H])[H])c([H])c([H])c2C1([H])[H]

>  <smiles>  (60) 
[H]c1c([H])c([H])c2c(c1[H])C([H])([H])C([H])([H])C([H])([H])C2([H])N([H])C(=O)C1([H])N(C(=O)C([H])(N([H])C(=O)C([H])(N([H])C([H])([H])[H])C([H])([H])[H])C(C([H])([H])[H])(C([H])([H])[H])C([H])([H])[H])C([H])([H])c2c([H])c(OC([H])([H])C([H])([H])C([H])([H])[N+]([H])([H])C([H])([H])C([H])([H])C([H])([H])OC([H])([H])C([H])([H])[N+]([H])([H])C([H])([H])C([H])([H])C([H])([H])C([H])([H])C([H])([H])C([H])([H])N([H])C(=O)N3C([H])([H])C([H])([H])C([H])([H])C([H])(n4nc(-c5c([H])c([H])c(Oc6c([H])c([H])c(F)c([H])c6F)c([H])c5[H])c(C(=O)N([H])[H])c4N([H])[H])C3([H])[H])c([H])c([H])c2C1([H])[H]

$$$$
64:0:0
     RDKit          3D

 94101  0  0  1  0  0  0  0  0999 V2000
  -29.7300  -21.2320   22.4150 C   0  0  0  0  0  2  0  0  0  0  0  0
  -30.3590  -20.7600   23.6680 N   0  0  0  0  0  4  0  0  0  0  0  0
  -29.9840  -21.3200   24.4160 H   0  0  0  0  0  0  0  0  0  0  0  0
  -31.3490  -20.9460   23.6230 H   0  0  0  0  0  0  0  0  0  0  0  0
  -30.5320  -19.0720   25.4800 C   0  0  0  0  0  1  0  0  0  0  0  0
  -30.1370  -19.3350   24.0180 C   0  0  0  0  0  3  0  0  0  0  0  0
  -30.3970  -17.3740   22.4110 C   0  0  0  0  0  3  0  0  0  0  0  0
  -30.9170  -18.4140   23.0960 C   0  0  0  0  0  3  0  0  0  0  0  0
  -31.0960  -14.5870   20.1860 C   0  0  0  0  0  0  0  0  0  0  0  0
  -30.5800  -12.5520   18.8880 C   0  0  0  0  0  2  0  0  0  0  0  0
  -29.5770  -12.8610   17.7610 C   0  0  0  0  0  2  0  0  0  0  0  0
  -28.1330  -12.7350   18.2810 C   0  0  0  0  0  2  0  0  0  0  0  0
  -27.9050  -13.5130   19.6040 C   0  0  0  0  0  3  0  0  0  0  0  0
  -29.0190  -13.2060   20.6310 C   0  0  0  0  0  2  0  0  0  0  0  0
  -30.3210  -13.4830   19.9980 N   0  0  0  0  0  0  0  0  0  0  0  0
  -32.1120  -14.7830   19.5130 O   0  0  0  0  0  0  0  0  0  0  0  0
  -31.2500  -16.5900   21.5330 C   0  0  0  0  0  0  0  0  0  0  0  0
  -30.6510  -15.4560   21.1150 N   0  0  0  0  0  0  0  0  0  0  0  0
  -32.3920  -16.9420   21.2120 O   0  0  0  0  0  0  0  0  0  0  0  0
  -29.7600  -15.2350   21.5300 H   0  0  0  0  0  0  0  0  0  0  0  0
  -25.5640  -14.1390   20.4730 C   0  0  0  0  0  0  0  0  0  0  0  0
  -24.5040  -13.3750   20.8810 C   0  0  0  0  0  0  0  0  0  0  0  0
  -24.9350  -12.0160   20.7790 C   0  0  0  0  0  0  0  0  0  0  0  0
  -26.5760  -13.2470   20.1530 N   0  0  0  0  0  0  0  0  0  0  0  0
  -26.2040  -11.9640   20.3930 N   0  0  0  0  0  0  0  0  0  0  0  0
  -24.1970  -10.7620   20.9730 C   0  0  0  0  0  0  0  0  0  0  0  0
  -24.6290   -9.7850   21.8990 C   0  0  0  0  0  3  0  0  0  0  0  0
  -23.8910   -8.5960   22.0810 C   0  0  0  0  0  3  0  0  0  0  0  0
  -22.7090   -8.3730   21.3370 C   0  0  0  0  0  0  0  0  0  0  0  0
  -22.2950   -9.3380   20.4000 C   0  0  0  0  0  3  0  0  0  0  0  0
  -23.0330  -10.5190   20.2160 C   0  0  0  0  0  3  0  0  0  0  0  0
  -21.9420   -7.2360   21.4280 O   0  0  0  0  0  0  0  0  0  0  0  0
  -21.8380   -6.5300   22.5990 C   0  0  0  0  0  0  0  0  0  0  0  0
  -21.3800   -7.1300   23.7930 C   0  0  0  0  0  3  0  0  0  0  0  0
  -21.2230   -6.3510   24.9570 C   0  0  0  0  0  3  0  0  0  0  0  0
  -21.5140   -4.9740   24.9280 C   0  0  0  0  0  0  0  0  0  0  0  0
  -21.9660   -4.3740   23.7400 C   0  0  0  0  0  3  0  0  0  0  0  0
  -22.1240   -5.1500   22.5780 C   0  0  0  0  0  0  0  0  0  0  0  0
  -22.5390   -4.5620   21.4290 F   0  0  0  0  0  0  0  0  0  0  0  0
  -21.3560   -4.2240   26.0440 F   0  0  0  0  0  0  0  0  0  0  0  0
  -23.1350  -13.8670   21.2530 C   0  0  0  0  0  0  0  0  0  0  0  0
  -22.4600  -13.1740   22.1630 N   0  0  0  0  0  0  0  0  0  0  0  0
  -22.6760  -14.9020   20.7720 O   0  0  0  0  0  0  0  0  0  0  0  0
  -22.8450  -12.3360   22.5720 H   0  0  0  0  0  0  0  0  0  0  0  0
  -21.5440  -13.4860   22.4540 H   0  0  0  0  0  0  0  0  0  0  0  0
  -25.7460  -15.5120   20.3280 N   0  0  0  0  0  0  0  0  0  0  0  0
  -24.9980  -16.1770   20.4930 H   0  0  0  0  0  0  0  0  0  0  0  0
  -26.5830  -15.9420   19.9540 H   0  0  0  0  0  0  0  0  0  0  0  0
  -29.9940  -22.7400   22.1900 C   0  0  0  0  0  2  0  0  0  0  0  0
  -29.1570  -23.2750   21.1190 N   0  0  0  0  0  0  0  0  0  0  0  0
  -28.1780  -23.1350   21.3610 H   0  0  0  0  0  0  0  0  0  0  0  0
  -29.3860  -24.7120   20.9530 C   0  0  0  0  0  2  0  0  0  0  0  0
  -28.3390  -25.2990   19.9920 C   0  0  0  0  0  2  0  0  0  0  0  0
  -28.4330  -26.7270   19.9750 O   0  0  0  0  0  0  0  0  0  0  0  0
  -24.6710  -31.7580   23.2810 C   0  0  0  0  0  0  0  0  0  0  0  0
  -27.2570  -27.4480   19.9830 C   0  0  0  0  0  0  0  0  0  0  0  0
  -23.4430  -30.4460   21.5820 C   0  0  0  0  0  3  0  0  0  0  0  0
  -24.8740  -28.9680   20.0780 C   0  0  0  0  0  0  0  0  0  0  0  0
  -25.9690  -30.7930   21.3860 C   0  0  0  0  0  2  0  0  0  0  0  0
  -26.0380  -29.4540   20.6850 C   0  0  0  0  0  0  0  0  0  0  0  0
  -27.2310  -28.6990   20.6370 C   0  0  0  0  0  3  0  0  0  0  0  0
  -26.0770  -26.9850   19.3540 C   0  0  0  0  0  3  0  0  0  0  0  0
  -24.8870  -27.7330   19.4100 C   0  0  0  0  0  3  0  0  0  0  0  0
  -23.6380  -29.8320   20.1710 C   0  0  0  0  0  2  0  0  0  0  0  0
  -24.7130  -31.0100   22.1420 N   0  0  0  0  0  0  0  0  0  0  0  0
  -23.5950  -32.0140   23.8400 O   0  0  0  0  0  0  0  0  0  0  0  0
  -22.7900  -29.3840   22.4970 C   0  0  0  0  0  0  0  0  0  0  0  0
  -21.4710  -29.1870   22.3370 N   0  0  0  0  0  0  0  0  0  0  0  0
  -23.4650  -28.7430   23.3050 O   0  0  0  0  0  0  0  0  0  0  0  0
  -20.9860  -29.7600   21.6590 H   0  0  0  0  0  0  0  0  0  0  0  0
  -18.1130  -27.9040   22.6890 C   0  0  0  0  0  0  0  0  0  0  0  0
  -20.6510  -28.2160   23.0610 C   0  0  0  0  0  3  0  0  0  0  0  0
  -20.8100  -26.7990   22.4630 C   0  0  0  0  0  2  0  0  0  0  0  0
  -19.7530  -26.4700   21.4030 C   0  0  0  0  0  2  0  0  0  0  0  0
  -18.3460  -26.5720   21.9980 C   0  0  0  0  0  2  0  0  0  0  0  0
  -19.1960  -28.6840   23.1740 C   0  0  0  0  0  0  0  0  0  0  0  0
  -18.9260  -29.9310   23.7770 C   0  0  0  0  0  3  0  0  0  0  0  0
  -17.6060  -30.4010   23.9020 C   0  0  0  0  0  3  0  0  0  0  0  0
  -16.5360  -29.6180   23.4360 C   0  0  0  0  0  3  0  0  0  0  0  0
  -16.7890  -28.3710   22.8350 C   0  0  0  0  0  3  0  0  0  0  0  0
  -25.9670  -32.3470   23.9210 C   0  0  0  0  0  3  0  0  0  0  0  0
  -26.5020  -31.4960   25.1370 C   0  0  1  0  0  0  0  0  0  0  0  0
  -25.4260  -31.1900   26.2040 C   0  0  0  0  0  1  0  0  0  0  0  0
  -27.0770  -30.1470   24.6450 C   0  0  0  0  0  1  0  0  0  0  0  0
  -27.6640  -32.2460   25.8320 C   0  0  0  0  0  1  0  0  0  0  0  0
  -25.6670  -33.7230   24.3410 N   0  0  0  0  0  0  0  0  0  0  0  0
  -26.0170  -34.8190   23.6540 C   0  0  0  0  0  0  0  0  0  0  0  0
  -26.6980  -34.7770   22.6260 O   0  0  0  0  0  0  0  0  0  0  0  0
  -25.0650  -33.8290   25.1440 H   0  0  0  0  0  0  0  0  0  0  0  0
  -24.3170  -36.6530   23.3840 C   0  0  0  0  0  1  0  0  0  0  0  0
  -25.5340  -36.1780   24.1950 C   0  0  0  0  0  3  0  0  0  0  0  0
  -27.6590  -36.9730   25.1350 C   0  0  0  0  0  1  0  0  0  0  0  0
  -26.5810  -37.2230   24.1800 N   0  0  0  0  0  0  0  0  0  0  0  0
  -26.1830  -38.1350   24.3830 H   0  0  0  0  0  0  0  0  0  0  0  0
  1  2  1  0
  2  6  1  0
  2  3  1  0
  4  2  1  0
  6  5  1  0
  7  8  2  0
  8  6  1  0
  9 18  1  0
 10 15  1  0
 11 12  1  0
 11 10  1  0
 13 12  1  0
 13 24  1  0
 13 14  1  0
 15  9  1  0
 15 14  1  0
 16  9  2  0
 17  7  1  0
 18 20  1  0
 18 17  1  0
 19 17  2  0
 21 22  2  0
 22 41  1  0
 23 22  1  0
 23 26  1  0
 24 25  1  0
 24 21  1  0
 25 23  2  0
 26 27  1  0
 27 28  2  0
 29 32  1  0
 29 28  1  0
 30 29  2  0
 31 30  1  0
 31 26  2  0
 32 33  1  0
 33 34  1  0
 34 35  2  0
 36 35  1  0
 36 40  1  0
 37 36  2  0
 38 33  2  0
 38 37  1  0
 39 38  1  0
 41 42  1  0
 42 45  1  0
 42 44  1  0
 43 41  2  0
 46 21  1  0
 46 47  1  0
 48 46  1  0
 49  1  1  0
 50 51  1  0
 50 49  1  0
 52 50  1  0
 53 52  1  0
 54 56  1  0
 54 53  1  0
 55 66  2  0
 56 61  1  0
 57 65  1  0
 57 67  1  0
 58 64  1  0
 58 60  1  0
 59 65  1  0
 60 59  1  0
 61 60  2  0
 62 63  1  0
 62 56  2  0
 63 58  2  0
 64 57  1  0
 65 55  1  0
 67 69  2  0
 68 67  1  0
 70 68  1  0
 71 80  2  0
 71 76  1  0
 72 68  1  0
 72 76  1  0
 73 72  1  0
 74 75  1  0
 74 73  1  0
 75 71  1  0
 76 77  2  0
 77 78  1  0
 79 78  2  0
 80 79  1  0
 81 55  1  0
 81 86  1  0
 81 82  1  0
 82 85  1  1
 82 83  1  0
 84 82  1  0
 86 89  1  0
 87 91  1  0
 87 86  1  0
 88 87  2  0
 91 90  1  0
 93 91  1  0
 93 94  1  0
 93 92  1  0
M  ISO  4   9 100  18 100  53 101  54 101
M  END
>  <TORSDO>  (61) 
F 23

>  <SCORE>  (61) 
-8.925

>  <name>  (61) 
64

>  <ligand_id>  (61) 
64

>  <original_smiles>  (61) 
[H]C(C(=O)N([H])C(=O)N1C([H])([H])C([H])([H])C([H])([H])C([H])(n2nc(-c3c([H])c([H])c(Oc4c([H])c([H])c(F)c([H])c4F)c([H])c3[H])c(C(=O)N([H])[H])c2N([H])[H])C1([H])[H])=C([H])C([H])(C([H])([H])[H])[N+]([H])([H])C([H])([H])C([H])([H])N([H])C([H])([H])C([H])([H])Oc1c([H])c([H])c2c(c1[H])C([H])([H])N(C(=O)C([H])(N([H])C(=O)C([H])(N([H])C([H])([H])[H])C([H])([H])[H])C(C([H])([H])[H])(C([H])([H])[H])C([H])([H])[H])C([H])(C(=O)N([H])C1([H])c3c([H])c([H])c([H])c([H])c3C([H])([H])C([H])([H])C1([H])[H])C2([H])[H]

>  <smiles>  (61) 
[H]C(C(=O)N([H])C(=O)N1C([H])([H])C([H])([H])C([H])([H])C([H])(n2nc(-c3c([H])c([H])c(Oc4c([H])c([H])c(F)c([H])c4F)c([H])c3[H])c(C(=O)N([H])[H])c2N([H])[H])C1([H])[H])=C([H])C([H])(C([H])([H])[H])[N+]([H])([H])C([H])([H])C([H])([H])N([H])C([H])([H])C([H])([H])Oc1c([H])c([H])c2c(c1[H])C([H])([H])N(C(=O)C([H])(N([H])C(=O)C([H])(N([H])C([H])([H])[H])C([H])([H])[H])C(C([H])([H])[H])(C([H])([H])[H])C([H])([H])[H])C([H])(C(=O)N([H])C1([H])c3c([H])c([H])c([H])c([H])c3C([H])([H])C([H])([H])C1([H])[H])C2([H])[H]

$$$$
65:0:0
     RDKit          3D

 94101  0  0  1  0  0  0  0  0999 V2000
  -31.2410  -22.8660   18.0750 C   0  0  0  0  0  3  0  0  0  0  0  0
  -31.2690  -23.6510   19.1720 C   0  0  0  0  0  3  0  0  0  0  0  0
  -31.4950  -21.4440   18.1430 C   0  0  0  0  0  0  0  0  0  0  0  0
  -30.3640  -20.7470   18.0040 N   0  0  0  0  0  0  0  0  0  0  0  0
  -32.5950  -20.9250   18.3310 O   0  0  0  0  0  0  0  0  0  0  0  0
  -29.5150  -21.2750   17.8470 H   0  0  0  0  0  0  0  0  0  0  0  0
  -30.2370  -19.3010   18.1130 C   0  0  0  0  0  2  0  0  0  0  0  0
  -30.3140  -18.8300   19.5770 C   0  0  0  0  0  2  0  0  0  0  0  0
  -30.0760  -17.3220   19.6960 C   0  0  0  0  0  2  0  0  0  0  0  0
  -30.3590  -16.7590   21.1020 C   0  0  0  0  0  2  0  0  0  0  0  0
  -30.6860  -14.3710   20.5050 C   0  0  0  0  0  0  0  0  0  0  0  0
  -30.3250  -12.2680   19.2870 C   0  0  0  0  0  2  0  0  0  0  0  0
  -29.3700  -12.5360   18.1050 C   0  0  0  0  0  2  0  0  0  0  0  0
  -27.9010  -12.4090   18.5500 C   0  0  0  0  0  2  0  0  0  0  0  0
  -27.5950  -13.2190   19.8400 C   0  0  0  0  0  3  0  0  0  0  0  0
  -28.6580  -12.9350   20.9250 C   0  0  0  0  0  2  0  0  0  0  0  0
  -29.9880  -13.2180   20.3540 N   0  0  0  0  0  0  0  0  0  0  0  0
  -31.7750  -14.5880   19.9670 O   0  0  0  0  0  0  0  0  0  0  0  0
  -30.0310  -15.3360   21.1600 N   0  0  0  0  0  0  0  0  0  0  0  0
  -29.1500  -15.0760   21.5810 H   0  0  0  0  0  0  0  0  0  0  0  0
  -25.2060  -13.8420   20.5730 C   0  0  0  0  0  0  0  0  0  0  0  0
  -24.1360  -13.0740   20.9530 C   0  0  0  0  0  0  0  0  0  0  0  0
  -24.5890  -11.7190   20.9110 C   0  0  0  0  0  0  0  0  0  0  0  0
  -26.2430  -12.9550   20.3280 N   0  0  0  0  0  0  0  0  0  0  0  0
  -25.8750  -11.6730   20.5850 N   0  0  0  0  0  0  0  0  0  0  0  0
  -23.8600  -10.4600   21.1040 C   0  0  0  0  0  0  0  0  0  0  0  0
  -24.3170   -9.4730   22.0040 C   0  0  0  0  0  3  0  0  0  0  0  0
  -23.5880   -8.2780   22.1870 C   0  0  0  0  0  3  0  0  0  0  0  0
  -22.3870   -8.0630   21.4690 C   0  0  0  0  0  0  0  0  0  0  0  0
  -21.9490   -9.0390   20.5570 C   0  0  0  0  0  3  0  0  0  0  0  0
  -22.6780  -10.2250   20.3730 C   0  0  0  0  0  3  0  0  0  0  0  0
  -21.6270   -6.9210   21.5630 O   0  0  0  0  0  0  0  0  0  0  0  0
  -21.6350   -6.1430   22.6930 C   0  0  0  0  0  0  0  0  0  0  0  0
  -21.3050   -6.6660   23.9620 C   0  0  0  0  0  3  0  0  0  0  0  0
  -21.2560   -5.8160   25.0840 C   0  0  0  0  0  3  0  0  0  0  0  0
  -21.5290   -4.4420   24.9390 C   0  0  0  0  0  0  0  0  0  0  0  0
  -21.8510   -3.9180   23.6760 C   0  0  0  0  0  3  0  0  0  0  0  0
  -21.9020   -4.7660   22.5560 C   0  0  0  0  0  0  0  0  0  0  0  0
  -22.1920   -4.2510   21.3370 F   0  0  0  0  0  0  0  0  0  0  0  0
  -21.4750   -3.6240   26.0160 F   0  0  0  0  0  0  0  0  0  0  0  0
  -22.7460  -13.5570   21.2470 C   0  0  0  0  0  0  0  0  0  0  0  0
  -22.0260  -12.8640   22.1230 N   0  0  0  0  0  0  0  0  0  0  0  0
  -22.3040  -14.5860   20.7350 O   0  0  0  0  0  0  0  0  0  0  0  0
  -22.3950  -12.0320   22.5590 H   0  0  0  0  0  0  0  0  0  0  0  0
  -21.0930  -13.1700   22.3610 H   0  0  0  0  0  0  0  0  0  0  0  0
  -25.3770  -15.2120   20.3990 N   0  0  0  0  0  0  0  0  0  0  0  0
  -24.6150  -15.8730   20.5160 H   0  0  0  0  0  0  0  0  0  0  0  0
  -26.2300  -15.6470   20.0700 H   0  0  0  0  0  0  0  0  0  0  0  0
  -31.5340  -23.2200   20.6070 C   0  0  0  0  0  2  0  0  0  0  0  0
  -30.3170  -23.1470   21.3430 O   0  0  0  0  0  0  0  0  0  0  0  0
  -30.0720  -24.2260   22.2420 C   0  0  0  0  0  2  0  0  0  0  0  0
  -29.7450  -25.5530   21.5390 C   0  0  0  0  0  2  0  0  0  0  0  0
  -28.4530  -25.5240   20.7110 C   0  0  0  0  0  2  0  0  0  0  0  0
  -28.3740  -26.7790   20.0510 O   0  0  0  0  0  0  0  0  0  0  0  0
  -24.5620  -31.8570   23.2260 C   0  0  0  0  0  0  0  0  0  0  0  0
  -27.1760  -27.4380   20.1280 C   0  0  0  0  0  0  0  0  0  0  0  0
  -23.3340  -30.4560   21.5940 C   0  0  0  0  0  3  0  0  0  0  0  0
  -24.7710  -28.9050   20.1690 C   0  0  0  0  0  0  0  0  0  0  0  0
  -25.8530  -30.8190   21.3680 C   0  0  0  0  0  2  0  0  0  0  0  0
  -25.9310  -29.4460   20.7380 C   0  0  0  0  0  0  0  0  0  0  0  0
  -27.1380  -28.7200   20.7120 C   0  0  0  0  0  3  0  0  0  0  0  0
  -26.0020  -26.8910   19.5700 C   0  0  0  0  0  3  0  0  0  0  0  0
  -24.7960  -27.6230   19.5880 C   0  0  0  0  0  3  0  0  0  0  0  0
  -23.5300  -29.7660   20.2170 C   0  0  0  0  0  2  0  0  0  0  0  0
  -24.6030  -31.0570   22.1220 N   0  0  0  0  0  0  0  0  0  0  0  0
  -23.4880  -32.1340   23.7750 O   0  0  0  0  0  0  0  0  0  0  0  0
  -22.6890  -29.4410   22.5630 C   0  0  0  0  0  0  0  0  0  0  0  0
  -21.3620  -29.2650   22.4440 N   0  0  0  0  0  0  0  0  0  0  0  0
  -23.3770  -28.8130   23.3720 O   0  0  0  0  0  0  0  0  0  0  0  0
  -20.8690  -29.8220   21.7610 H   0  0  0  0  0  0  0  0  0  0  0  0
  -17.9890  -28.0860   22.9590 C   0  0  0  0  0  0  0  0  0  0  0  0
  -20.5470  -28.3340   23.2230 C   0  0  0  0  0  3  0  0  0  0  0  0
  -20.6430  -26.9000   22.6490 C   0  0  0  0  0  2  0  0  0  0  0  0
  -19.5360  -26.5790   21.6410 C   0  0  0  0  0  2  0  0  0  0  0  0
  -18.1570  -26.7330   22.2890 C   0  0  0  0  0  2  0  0  0  0  0  0
  -19.1120  -28.8440   23.3830 C   0  0  0  0  0  0  0  0  0  0  0  0
  -18.9020  -30.1120   23.9680 C   0  0  0  0  0  3  0  0  0  0  0  0
  -17.6000  -30.6220   24.1350 C   0  0  0  0  0  3  0  0  0  0  0  0
  -16.4900  -29.8590   23.7290 C   0  0  0  0  0  3  0  0  0  0  0  0
  -16.6860  -28.5940   23.1460 C   0  0  0  0  0  3  0  0  0  0  0  0
  -25.8590  -32.4790   23.8340 C   0  0  0  0  0  3  0  0  0  0  0  0
  -26.3950  -31.6950   25.0940 C   0  0  1  0  0  0  0  0  0  0  0  0
  -25.3190  -31.4510   26.1770 C   0  0  0  0  0  1  0  0  0  0  0  0
  -26.9660  -30.3180   24.6760 C   0  0  0  0  0  1  0  0  0  0  0  0
  -27.5590  -32.4780   25.7450 C   0  0  0  0  0  1  0  0  0  0  0  0
  -25.5600  -33.8760   24.1780 N   0  0  0  0  0  0  0  0  0  0  0  0
  -25.8880  -34.9300   23.4210 C   0  0  0  0  0  0  0  0  0  0  0  0
  -26.5480  -34.8300   22.3830 O   0  0  0  0  0  0  0  0  0  0  0  0
  -24.9740  -34.0270   24.9860 H   0  0  0  0  0  0  0  0  0  0  0  0
  -24.1590  -36.7260   23.0950 C   0  0  0  0  0  1  0  0  0  0  0  0
  -25.4080  -36.3170   23.8900 C   0  0  0  0  0  3  0  0  0  0  0  0
  -27.5560  -37.1880   24.7000 C   0  0  0  0  0  1  0  0  0  0  0  0
  -26.4420  -37.3670   23.7730 N   0  0  0  0  0  0  0  0  0  0  0  0
  -26.0400  -38.2870   23.9340 H   0  0  0  0  0  0  0  0  0  0  0  0
  1  3  1  0
  1  2  2  0
  2 49  1  0
  3  5  2  0
  4  7  1  0
  4  3  1  0
  6  4  1  0
  7  8  1  0
  8  9  1  0
  9 10  1  0
 10 19  1  0
 11 19  1  0
 12 17  1  0
 13 14  1  0
 13 12  1  0
 15 14  1  0
 15 24  1  0
 15 16  1  0
 17 11  1  0
 17 16  1  0
 18 11  2  0
 19 20  1  0
 21 22  2  0
 22 41  1  0
 23 22  1  0
 23 26  1  0
 24 21  1  0
 24 25  1  0
 25 23  2  0
 26 27  1  0
 27 28  2  0
 29 32  1  0
 29 28  1  0
 30 29  2  0
 31 30  1  0
 31 26  2  0
 32 33  1  0
 33 34  1  0
 34 35  2  0
 36 35  1  0
 36 40  1  0
 37 36  2  0
 38 33  2  0
 38 37  1  0
 39 38  1  0
 41 42  1  0
 42 45  1  0
 42 44  1  0
 43 41  2  0
 46 47  1  0
 46 21  1  0
 48 46  1  0
 49 50  1  0
 50 51  1  0
 52 51  1  0
 53 52  1  0
 54 56  1  0
 54 53  1  0
 55 66  2  0
 56 61  1  0
 57 65  1  0
 57 67  1  0
 58 64  1  0
 58 60  1  0
 59 65  1  0
 60 59  1  0
 61 60  2  0
 62 63  1  0
 62 56  2  0
 63 58  2  0
 64 57  1  0
 65 55  1  0
 67 69  2  0
 68 67  1  0
 70 68  1  0
 71 80  2  0
 71 76  1  0
 72 68  1  0
 72 76  1  0
 73 72  1  0
 74 75  1  0
 74 73  1  0
 75 71  1  0
 76 77  2  0
 77 78  1  0
 79 78  2  0
 80 79  1  0
 81 55  1  0
 81 86  1  0
 81 82  1  0
 82 85  1  1
 82 83  1  0
 84 82  1  0
 86 89  1  0
 87 91  1  0
 87 86  1  0
 88 87  2  0
 91 90  1  0
 93 91  1  0
 93 94  1  0
 93 92  1  0
M  ISO  4  11 100  19 100  53 101  54 101
M  END
>  <TORSDO>  (62) 
F 26

>  <SCORE>  (62) 
-11.793

>  <name>  (62) 
65

>  <ligand_id>  (62) 
65

>  <original_smiles>  (62) 
[H]C(C(=O)N([H])C([H])([H])C([H])([H])C([H])([H])C([H])([H])N([H])C(=O)N1C([H])([H])C([H])([H])C([H])([H])C([H])(n2nc(-c3c([H])c([H])c(Oc4c([H])c([H])c(F)c([H])c4F)c([H])c3[H])c(C(=O)N([H])[H])c2N([H])[H])C1([H])[H])=C([H])C([H])([H])OC([H])([H])C([H])([H])C([H])([H])Oc1c([H])c([H])c2c(c1[H])C([H])([H])N(C(=O)C([H])(N([H])C(=O)C([H])(N([H])C([H])([H])[H])C([H])([H])[H])C(C([H])([H])[H])(C([H])([H])[H])C([H])([H])[H])C([H])(C(=O)N([H])C1([H])c3c([H])c([H])c([H])c([H])c3C([H])([H])C([H])([H])C1([H])[H])C2([H])[H]

>  <smiles>  (62) 
[H]C(C(=O)N([H])C([H])([H])C([H])([H])C([H])([H])C([H])([H])N([H])C(=O)N1C([H])([H])C([H])([H])C([H])([H])C([H])(n2nc(-c3c([H])c([H])c(Oc4c([H])c([H])c(F)c([H])c4F)c([H])c3[H])c(C(=O)N([H])[H])c2N([H])[H])C1([H])[H])=C([H])C([H])([H])OC([H])([H])C([H])([H])C([H])([H])Oc1c([H])c([H])c2c(c1[H])C([H])([H])N(C(=O)C([H])(N([H])C(=O)C([H])(N([H])C([H])([H])[H])C([H])([H])[H])C(C([H])([H])[H])(C([H])([H])[H])C([H])([H])[H])C([H])(C(=O)N([H])C1([H])c3c([H])c([H])c([H])c([H])c3C([H])([H])C([H])([H])C1([H])[H])C2([H])[H]

$$$$
66:0:0
     RDKit          3D

102109  0  0  1  0  0  0  0  0999 V2000
  -24.3770  -23.1720   17.0200 C   0  0  0  0  0  2  0  0  0  0  0  0
  -24.9160  -21.8100   16.8020 N   0  0  0  0  0  4  0  0  0  0  0  0
  -24.8680  -21.6370   15.8100 H   0  0  0  0  0  0  0  0  0  0  0  0
  -24.3180  -21.1270   17.2380 H   0  0  0  0  0  0  0  0  0  0  0  0
  -26.3260  -21.5980   17.1940 C   0  0  0  0  0  2  0  0  0  0  0  0
  -26.4760  -20.4110   18.1610 C   0  0  0  0  0  2  0  0  0  0  0  0
  -27.8970  -20.2790   18.7340 C   0  0  0  0  0  2  0  0  0  0  0  0
  -28.0220  -19.0670   19.6740 C   0  0  0  0  0  2  0  0  0  0  0  0
  -29.3930  -18.8850   20.1920 N   0  0  0  0  0  4  0  0  0  0  0  0
  -29.6800  -19.7130   20.6870 H   0  0  0  0  0  0  0  0  0  0  0  0
  -30.0170  -18.7610   19.4110 H   0  0  0  0  0  0  0  0  0  0  0  0
  -29.5180  -17.7210   21.0940 C   0  0  0  0  0  2  0  0  0  0  0  0
  -30.9840  -17.3320   21.3560 C   0  0  0  0  0  2  0  0  0  0  0  0
  -31.1500  -16.0070   22.1320 C   0  0  0  0  0  2  0  0  0  0  0  0
  -30.7790  -14.2440   20.3940 C   0  0  0  0  0  0  0  0  0  0  0  0
  -30.2340  -12.3970   18.8530 C   0  0  0  0  0  2  0  0  0  0  0  0
  -29.2240  -12.8340   17.7770 C   0  0  0  0  0  2  0  0  0  0  0  0
  -27.7800  -12.6730   18.2870 C   0  0  0  0  0  2  0  0  0  0  0  0
  -27.5690  -13.3160   19.6820 C   0  0  0  0  0  3  0  0  0  0  0  0
  -28.6760  -12.8710   20.6630 C   0  0  0  0  0  2  0  0  0  0  0  0
  -29.9890  -13.1890   20.0670 N   0  0  0  0  0  0  0  0  0  0  0  0
  -31.7540  -14.5980   19.7250 O   0  0  0  0  0  0  0  0  0  0  0  0
  -30.4450  -14.8740   21.5260 N   0  0  0  0  0  0  0  0  0  0  0  0
  -29.6630  -14.4880   22.0370 H   0  0  0  0  0  0  0  0  0  0  0  0
  -25.1950  -13.8920   20.5020 C   0  0  0  0  0  0  0  0  0  0  0  0
  -24.1460  -13.1030   20.8960 C   0  0  0  0  0  0  0  0  0  0  0  0
  -24.6120  -11.7570   20.8080 C   0  0  0  0  0  0  0  0  0  0  0  0
  -26.2350  -13.0240   20.2060 N   0  0  0  0  0  0  0  0  0  0  0  0
  -25.8890  -11.7330   20.4440 N   0  0  0  0  0  0  0  0  0  0  0  0
  -23.9020  -10.4850   20.9960 C   0  0  0  0  0  0  0  0  0  0  0  0
  -24.3410   -9.5250   21.9340 C   0  0  0  0  0  3  0  0  0  0  0  0
  -23.6310   -8.3170   22.1080 C   0  0  0  0  0  3  0  0  0  0  0  0
  -22.4680   -8.0620   21.3440 C   0  0  0  0  0  0  0  0  0  0  0  0
  -22.0480   -9.0110   20.3950 C   0  0  0  0  0  3  0  0  0  0  0  0
  -22.7590  -10.2100   20.2200 C   0  0  0  0  0  3  0  0  0  0  0  0
  -21.7290   -6.9070   21.4280 O   0  0  0  0  0  0  0  0  0  0  0  0
  -21.6480   -6.1860   22.5920 C   0  0  0  0  0  0  0  0  0  0  0  0
  -21.1220   -6.7440   23.7780 C   0  0  0  0  0  3  0  0  0  0  0  0
  -20.9920   -5.9470   24.9340 C   0  0  0  0  0  3  0  0  0  0  0  0
  -21.3780   -4.5940   24.9040 C   0  0  0  0  0  0  0  0  0  0  0  0
  -21.8980   -4.0360   23.7230 C   0  0  0  0  0  3  0  0  0  0  0  0
  -22.0290   -4.8290   22.5690 C   0  0  0  0  0  0  0  0  0  0  0  0
  -22.5100   -4.2810   21.4280 F   0  0  0  0  0  0  0  0  0  0  0  0
  -21.2470   -3.8270   26.0110 F   0  0  0  0  0  0  0  0  0  0  0  0
  -22.7600  -13.5650   21.2420 C   0  0  0  0  0  0  0  0  0  0  0  0
  -22.0730  -12.8360   22.1150 N   0  0  0  0  0  0  0  0  0  0  0  0
  -22.2960  -14.6040   20.7760 O   0  0  0  0  0  0  0  0  0  0  0  0
  -22.4610  -11.9950   22.5150 H   0  0  0  0  0  0  0  0  0  0  0  0
  -21.1440  -13.1250   22.3890 H   0  0  0  0  0  0  0  0  0  0  0  0
  -25.3450  -15.2680   20.3530 N   0  0  0  0  0  0  0  0  0  0  0  0
  -24.5790  -15.9140   20.5060 H   0  0  0  0  0  0  0  0  0  0  0  0
  -26.1800  -15.7140   19.9970 H   0  0  0  0  0  0  0  0  0  0  0  0
  -23.8800  -23.4440   18.4590 C   0  0  0  0  0  2  0  0  0  0  0  0
  -24.9670  -23.4530   19.5530 C   0  0  0  0  0  2  0  0  0  0  0  0
  -24.4490  -23.9910   20.9000 C   0  0  0  0  0  2  0  0  0  0  0  0
  -25.4250  -23.8250   22.0860 C   0  0  0  0  0  2  0  0  0  0  0  0
  -26.3990  -24.9360   22.2270 N   0  0  0  0  0  4  0  0  0  0  0  0
  -26.3660  -25.1930   23.2040 H   0  0  0  0  0  0  0  0  0  0  0  0
  -26.0980  -25.7510   21.7150 H   0  0  0  0  0  0  0  0  0  0  0  0
  -27.8230  -24.6350   21.9240 C   0  0  0  0  0  2  0  0  0  0  0  0
  -28.2870  -25.1140   20.5320 C   0  0  0  0  0  2  0  0  0  0  0  0
  -28.3370  -26.5410   20.4500 O   0  0  0  0  0  0  0  0  0  0  0  0
  -24.5520  -31.7650   23.3880 C   0  0  0  0  0  0  0  0  0  0  0  0
  -27.1610  -27.2560   20.3960 C   0  0  0  0  0  0  0  0  0  0  0  0
  -23.3500  -30.3840   21.7260 C   0  0  0  0  0  3  0  0  0  0  0  0
  -24.7950  -28.8000   20.3540 C   0  0  0  0  0  0  0  0  0  0  0  0
  -25.8850  -30.6790   21.5880 C   0  0  0  0  0  2  0  0  0  0  0  0
  -25.9500  -29.3020   20.9660 C   0  0  0  0  0  0  0  0  0  0  0  0
  -27.1310  -28.5340   20.9920 C   0  0  0  0  0  3  0  0  0  0  0  0
  -25.9940  -26.7730   19.7600 C   0  0  0  0  0  3  0  0  0  0  0  0
  -24.8090  -27.5310   19.7530 C   0  0  0  0  0  3  0  0  0  0  0  0
  -23.5760  -29.6900   20.3570 C   0  0  0  0  0  2  0  0  0  0  0  0
  -24.6140  -30.9550   22.2940 N   0  0  0  0  0  0  0  0  0  0  0  0
  -23.4650  -32.0690   23.8990 O   0  0  0  0  0  0  0  0  0  0  0  0
  -22.6500  -29.3870   22.6760 C   0  0  0  0  0  0  0  0  0  0  0  0
  -21.3290  -29.2180   22.4960 N   0  0  0  0  0  0  0  0  0  0  0  0
  -23.2920  -28.7650   23.5270 O   0  0  0  0  0  0  0  0  0  0  0  0
  -20.8740  -29.7740   21.7850 H   0  0  0  0  0  0  0  0  0  0  0  0
  -17.9210  -28.0940   22.8850 C   0  0  0  0  0  0  0  0  0  0  0  0
  -20.4720  -28.2990   23.2430 C   0  0  0  0  0  3  0  0  0  0  0  0
  -20.5670  -26.8630   22.6720 C   0  0  0  0  0  2  0  0  0  0  0  0
  -19.4880  -26.5530   21.6290 C   0  0  0  0  0  2  0  0  0  0  0  0
  -18.0890  -26.7360   22.2260 C   0  0  0  0  0  2  0  0  0  0  0  0
  -19.0400  -28.8350   23.3480 C   0  0  0  0  0  0  0  0  0  0  0  0
  -18.8280  -30.1080   23.9200 C   0  0  0  0  0  3  0  0  0  0  0  0
  -17.5300  -30.6380   24.0390 C   0  0  0  0  0  3  0  0  0  0  0  0
  -16.4240  -29.8940   23.5900 C   0  0  0  0  0  3  0  0  0  0  0  0
  -16.6200  -28.6240   23.0190 C   0  0  0  0  0  3  0  0  0  0  0  0
  -25.8400  -32.3640   24.0350 C   0  0  0  0  0  3  0  0  0  0  0  0
  -25.5790  -33.7850   24.3030 N   0  0  0  0  0  0  0  0  0  0  0  0
  -25.9790  -34.7920   23.5160 C   0  0  0  0  0  0  0  0  0  0  0  0
  -26.6790  -34.6220   22.5130 O   0  0  0  0  0  0  0  0  0  0  0  0
  -24.9660  -33.9940   25.0780 H   0  0  0  0  0  0  0  0  0  0  0  0
  -24.3420  -36.6380   23.0240 C   0  0  0  0  0  1  0  0  0  0  0  0
  -25.5320  -36.2150   23.9000 C   0  0  0  0  0  3  0  0  0  0  0  0
  -27.6620  -37.0520   24.7910 C   0  0  0  0  0  1  0  0  0  0  0  0
  -26.6120  -37.2210   23.7910 N   0  0  0  0  0  0  0  0  0  0  0  0
  -26.2370  -38.1610   23.8790 H   0  0  0  0  0  0  0  0  0  0  0  0
  -26.2780  -31.6190   25.3550 C   0  0  1  0  0  0  0  0  0  0  0  0
  -25.1340  -31.4440   26.3810 C   0  0  0  0  0  1  0  0  0  0  0  0
  -26.8380  -30.2140   25.0270 C   0  0  0  0  0  1  0  0  0  0  0  0
  -27.4200  -32.4010   26.0450 C   0  0  0  0  0  1  0  0  0  0  0  0
  1 53  1  0
  2  1  1  0
  2  5  1  0
  2  4  1  0
  3  2  1  0
  5  6  1  0
  6  7  1  0
  7  8  1  0
  8  9  1  0
  9 10  1  0
  9 12  1  0
 11  9  1  0
 12 13  1  0
 13 14  1  0
 15 23  1  0
 16 21  1  0
 17 18  1  0
 17 16  1  0
 19 18  1  0
 19 28  1  0
 19 20  1  0
 21 15  1  0
 21 20  1  0
 22 15  2  0
 23 24  1  0
 23 14  1  0
 25 26  2  0
 26 45  1  0
 27 26  1  0
 27 30  1  0
 28 29  1  0
 28 25  1  0
 29 27  2  0
 30 31  1  0
 31 32  2  0
 33 36  1  0
 33 32  1  0
 34 33  2  0
 35 34  1  0
 35 30  2  0
 36 37  1  0
 37 38  1  0
 38 39  2  0
 40 39  1  0
 40 44  1  0
 41 40  2  0
 42 37  2  0
 42 41  1  0
 43 42  1  0
 45 46  1  0
 46 49  1  0
 46 48  1  0
 47 45  2  0
 50 25  1  0
 50 51  1  0
 52 50  1  0
 53 54  1  0
 54 55  1  0
 55 56  1  0
 56 57  1  0
 57 58  1  0
 59 57  1  0
 60 57  1  0
 61 60  1  0
 62 61  1  0
 63 74  2  0
 64 62  1  0
 64 69  1  0
 65 73  1  0
 65 75  1  0
 66 72  1  0
 66 68  1  0
 67 73  1  0
 68 69  2  0
 68 67  1  0
 70 64  2  0
 71 70  1  0
 71 66  2  0
 72 65  1  0
 73 63  1  0
 75 77  2  0
 76 75  1  0
 78 76  1  0
 79 88  2  0
 79 84  1  0
 80 76  1  0
 80 84  1  0
 81 80  1  0
 82 83  1  0
 82 81  1  0
 83 79  1  0
 84 85  2  0
 85 86  1  0
 87 86  2  0
 88 87  1  0
 89 63  1  0
 89 90  1  0
 89 99  1  0
 90 93  1  0
 91 95  1  0
 91 90  1  0
 92 91  2  0
 95 94  1  0
 97 98  1  0
 97 95  1  0
 97 96  1  0
 99102  1  1
 99100  1  0
101 99  1  0
M  ISO  4  15 100  23 100  61 101  62 101
M  END
>  <TORSDO>  (63) 
F 32

>  <SCORE>  (63) 
-10.124

>  <name>  (63) 
66

>  <ligand_id>  (63) 
66

>  <original_smiles>  (63) 
[H]c1c([H])c([H])c2c(c1[H])C([H])([H])C([H])([H])C([H])([H])C2([H])N([H])C(=O)C1([H])N(C(=O)C([H])(N([H])C(=O)C([H])(N([H])C([H])([H])[H])C([H])([H])[H])C(C([H])([H])[H])(C([H])([H])[H])C([H])([H])[H])C([H])([H])c2c([H])c(OC([H])([H])C([H])([H])[N+]([H])([H])C([H])([H])C([H])([H])C([H])([H])C([H])([H])C([H])([H])[N+]([H])([H])C([H])([H])C([H])([H])C([H])([H])C([H])([H])[N+]([H])([H])C([H])([H])C([H])([H])C([H])([H])N([H])C(=O)N3C([H])([H])C([H])([H])C([H])([H])C([H])(n4nc(-c5c([H])c([H])c(Oc6c([H])c([H])c(F)c([H])c6F)c([H])c5[H])c(C(=O)N([H])[H])c4N([H])[H])C3([H])[H])c([H])c([H])c2C1([H])[H]

>  <smiles>  (63) 
[H]c1c([H])c([H])c2c(c1[H])C([H])([H])C([H])([H])C([H])([H])C2([H])N([H])C(=O)C1([H])N(C(=O)C([H])(N([H])C(=O)C([H])(N([H])C([H])([H])[H])C([H])([H])[H])C(C([H])([H])[H])(C([H])([H])[H])C([H])([H])[H])C([H])([H])c2c([H])c(OC([H])([H])C([H])([H])[N+]([H])([H])C([H])([H])C([H])([H])C([H])([H])C([H])([H])C([H])([H])[N+]([H])([H])C([H])([H])C([H])([H])C([H])([H])C([H])([H])[N+]([H])([H])C([H])([H])C([H])([H])C([H])([H])N([H])C(=O)N3C([H])([H])C([H])([H])C([H])([H])C([H])(n4nc(-c5c([H])c([H])c(Oc6c([H])c([H])c(F)c([H])c6F)c([H])c5[H])c(C(=O)N([H])[H])c4N([H])[H])C3([H])[H])c([H])c([H])c2C1([H])[H]

$$$$
67:0:0
     RDKit          3D

 98105  0  0  1  0  0  0  0  0999 V2000
  -24.9860  -23.4670   18.8950 C   0  0  0  0  0  2  0  0  0  0  0  0
  -25.8960  -22.6600   19.7540 N   0  0  0  0  0  4  0  0  0  0  0  0
  -25.3870  -21.8270   20.0040 H   0  0  0  0  0  0  0  0  0  0  0  0
  -26.1030  -23.1360   20.6200 H   0  0  0  0  0  0  0  0  0  0  0  0
  -27.1470  -22.2100   19.0930 C   0  0  0  0  0  2  0  0  0  0  0  0
  -28.1890  -23.3230   18.8500 C   0  0  0  0  0  2  0  0  0  0  0  0
  -29.4830  -22.7270   18.6730 O   0  0  0  0  0  0  0  0  0  0  0  0
  -29.9060  -22.5980   17.3160 C   0  0  0  0  0  2  0  0  0  0  0  0
  -31.2830  -21.8840   17.1860 C   0  0  0  0  0  2  0  0  0  0  0  0
  -31.3380  -20.4860   17.4840 O   0  0  0  0  0  0  0  0  0  0  0  0
  -34.0560  -18.9530   11.1010 C   0  0  0  0  0  0  0  0  0  0  0  0
  -31.2730  -19.7190   16.3600 C   0  0  0  0  0  0  0  0  0  0  0  0
  -31.7660  -18.1310   11.5630 C   0  0  0  0  0  3  0  0  0  0  0  0
  -31.0050  -18.2480   13.9960 C   0  0  0  0  0  0  0  0  0  0  0  0
  -33.4440  -18.4660   13.4600 C   0  0  0  0  0  2  0  0  0  0  0  0
  -32.2620  -18.7460   14.3660 C   0  0  0  0  0  0  0  0  0  0  0  0
  -32.4060  -19.4830   15.5560 C   0  0  0  0  0  3  0  0  0  0  0  0
  -30.0210  -19.2010   15.9970 C   0  0  0  0  0  3  0  0  0  0  0  0
  -29.8810  -18.4570   14.8130 C   0  0  0  0  0  3  0  0  0  0  0  0
  -30.9260  -17.4870   12.7000 C   0  0  0  0  0  2  0  0  0  0  0  0
  -33.1320  -18.5550   12.0190 N   0  0  0  0  0  0  0  0  0  0  0  0
  -33.8090  -18.9290    9.8890 O   0  0  0  0  0  0  0  0  0  0  0  0
  -30.9440  -19.2760   10.9340 C   0  0  0  0  0  0  0  0  0  0  0  0
  -30.1190  -18.9380    9.9290 N   0  0  0  0  0  0  0  0  0  0  0  0
  -31.0280  -20.4260   11.3670 O   0  0  0  0  0  0  0  0  0  0  0  0
  -30.1370  -17.9760    9.6140 H   0  0  0  0  0  0  0  0  0  0  0  0
  -27.8530  -19.1390    7.1290 C   0  0  0  0  0  0  0  0  0  0  0  0
  -29.2140  -19.8330    9.2090 C   0  0  0  0  0  3  0  0  0  0  0  0
  -27.8560  -19.9490    9.9390 C   0  0  0  0  0  2  0  0  0  0  0  0
  -26.8220  -18.9370    9.4340 C   0  0  0  0  0  2  0  0  0  0  0  0
  -26.5640  -19.1270    7.9380 C   0  0  0  0  0  2  0  0  0  0  0  0
  -29.0990  -19.4470    7.7330 C   0  0  0  0  0  0  0  0  0  0  0  0
  -30.2750  -19.3940    6.9550 C   0  0  0  0  0  3  0  0  0  0  0  0
  -30.2190  -19.0340    5.5960 C   0  0  0  0  0  3  0  0  0  0  0  0
  -28.9830  -18.7590    4.9900 C   0  0  0  0  0  3  0  0  0  0  0  0
  -27.8010  -18.8200    5.7550 C   0  0  0  0  0  3  0  0  0  0  0  0
  -35.4790  -19.4390   11.5260 C   0  0  0  0  0  3  0  0  0  0  0  0
  -36.4580  -18.6770   10.7380 N   0  0  0  0  0  0  0  0  0  0  0  0
  -37.0370  -17.5370   11.1400 C   0  0  0  0  0  0  0  0  0  0  0  0
  -36.8460  -17.0500   12.2580 O   0  0  0  0  0  0  0  0  0  0  0  0
  -36.6160  -18.9850    9.7890 H   0  0  0  0  0  0  0  0  0  0  0  0
  -37.2650  -15.5730    9.5890 C   0  0  0  0  0  1  0  0  0  0  0  0
  -37.9660  -16.8240   10.1400 C   0  0  0  0  0  3  0  0  0  0  0  0
  -40.1610  -17.5930   10.9230 C   0  0  0  0  0  1  0  0  0  0  0  0
  -39.2730  -16.4510   10.7220 N   0  0  0  0  0  0  0  0  0  0  0  0
  -39.7530  -15.7790   10.1310 H   0  0  0  0  0  0  0  0  0  0  0  0
  -35.6900  -20.9900   11.3380 C   0  0  1  0  0  0  0  0  0  0  0  0
  -36.0350  -21.4040    9.8870 C   0  0  0  0  0  1  0  0  0  0  0  0
  -34.4170  -21.7620   11.7550 C   0  0  0  0  0  1  0  0  0  0  0  0
  -36.8250  -21.4810   12.2690 C   0  0  0  0  0  1  0  0  0  0  0  0
  -24.3690  -24.6450   19.6610 C   0  0  0  0  0  2  0  0  0  0  0  0
  -26.2150  -25.6770   20.9800 C   0  0  0  0  0  0  0  0  0  0  0  0
  -25.4350  -25.6030   19.9090 N   0  0  0  0  0  0  0  0  0  0  0  0
  -25.9830  -25.0950   22.0390 O   0  0  0  0  0  0  0  0  0  0  0  0
  -25.6230  -26.2760   19.1800 H   0  0  0  0  0  0  0  0  0  0  0  0
  -28.4810  -26.4410   21.4350 C   0  0  0  0  0  3  0  0  0  0  0  0
  -27.3870  -26.4520   20.6630 C   0  0  0  0  0  3  0  0  0  0  0  0
  -29.6630  -27.1250   20.9770 C   0  0  0  0  0  3  0  0  0  0  0  0
  -30.8880  -26.9490   21.4880 C   0  0  0  0  0  3  0  0  0  0  0  0
  -32.1130  -27.5310   20.8180 C   0  0  0  0  0  2  0  0  0  0  0  0
  -33.4860  -26.3310   19.0430 C   0  0  0  0  0  0  0  0  0  0  0  0
  -34.1880  -24.9460   17.1170 C   0  0  0  0  0  2  0  0  0  0  0  0
  -34.3130  -25.6900   15.7710 C   0  0  0  0  0  2  0  0  0  0  0  0
  -32.9510  -25.9210   15.0810 C   0  0  0  0  0  2  0  0  0  0  0  0
  -31.8650  -26.4420   16.0530 C   0  0  0  0  0  3  0  0  0  0  0  0
  -31.8350  -25.5640   17.3080 C   0  0  0  0  0  2  0  0  0  0  0  0
  -33.1740  -25.6070   17.9430 N   0  0  0  0  0  0  0  0  0  0  0  0
  -34.6350  -26.6250   19.4040 O   0  0  0  0  0  0  0  0  0  0  0  0
  -32.3870  -26.5880   19.7540 N   0  0  0  0  0  0  0  0  0  0  0  0
  -31.5630  -26.1980   19.3190 H   0  0  0  0  0  0  0  0  0  0  0  0
  -29.3880  -27.1110   15.8550 C   0  0  0  0  0  0  0  0  0  0  0  0
  -28.4690  -26.9260   14.8520 C   0  0  0  0  0  0  0  0  0  0  0  0
  -29.1420  -26.1890   13.8350 C   0  0  0  0  0  0  0  0  0  0  0  0
  -30.5520  -26.5000   15.4150 N   0  0  0  0  0  0  0  0  0  0  0  0
  -30.3820  -25.9040   14.2090 N   0  0  0  0  0  0  0  0  0  0  0  0
  -28.6970  -25.7950   12.4910 C   0  0  0  0  0  0  0  0  0  0  0  0
  -28.3140  -24.4680   12.2060 C   0  0  0  0  0  3  0  0  0  0  0  0
  -27.8730  -24.1110   10.9140 C   0  0  0  0  0  3  0  0  0  0  0  0
  -27.8140  -25.0880    9.8920 C   0  0  0  0  0  0  0  0  0  0  0  0
  -28.2130  -26.4070   10.1770 C   0  0  0  0  0  3  0  0  0  0  0  0
  -28.6560  -26.7570   11.4640 C   0  0  0  0  0  3  0  0  0  0  0  0
  -27.4300  -24.8280    8.5980 O   0  0  0  0  0  0  0  0  0  0  0  0
  -26.2280  -24.2350    8.3050 C   0  0  0  0  0  0  0  0  0  0  0  0
  -24.9980  -24.8910    8.5340 C   0  0  0  0  0  3  0  0  0  0  0  0
  -23.7880  -24.2730    8.1600 C   0  0  0  0  0  3  0  0  0  0  0  0
  -23.8040  -23.0050    7.5500 C   0  0  0  0  0  0  0  0  0  0  0  0
  -25.0260  -22.3520    7.3160 C   0  0  0  0  0  3  0  0  0  0  0  0
  -26.2350  -22.9640    7.6940 C   0  0  0  0  0  0  0  0  0  0  0  0
  -27.4100  -22.3390    7.4450 F   0  0  0  0  0  0  0  0  0  0  0  0
  -22.6430  -22.4150    7.1860 F   0  0  0  0  0  0  0  0  0  0  0  0
  -27.0800  -27.4910   14.8150 C   0  0  0  0  0  0  0  0  0  0  0  0
  -26.1020  -26.6770   14.4300 N   0  0  0  0  0  0  0  0  0  0  0  0
  -26.8420  -28.6460   15.1590 O   0  0  0  0  0  0  0  0  0  0  0  0
  -26.2920  -25.7190   14.1870 H   0  0  0  0  0  0  0  0  0  0  0  0
  -25.1490  -27.0120   14.4180 H   0  0  0  0  0  0  0  0  0  0  0  0
  -29.3310  -27.7620   17.0780 N   0  0  0  0  0  0  0  0  0  0  0  0
  -28.4580  -28.1470   17.4250 H   0  0  0  0  0  0  0  0  0  0  0  0
  -30.0910  -27.8030   17.7460 H   0  0  0  0  0  0  0  0  0  0  0  0
  1 51  1  0
  1  2  1  0
  2  3  1  0
  2  4  1  0
  5  2  1  0
  6  5  1  0
  7  6  1  0
  8  7  1  0
  9  8  1  0
  9 10  1  0
 11 21  1  0
 12 10  1  0
 13 23  1  0
 13 21  1  0
 13 20  1  0
 14 16  2  0
 14 19  1  0
 15 16  1  0
 16 17  1  0
 17 12  2  0
 18 12  1  0
 19 18  2  0
 20 14  1  0
 21 15  1  0
 22 11  2  0
 23 25  2  0
 24 23  1  0
 26 24  1  0
 27 32  1  0
 27 31  1  0
 28 24  1  0
 28 29  1  0
 30 29  1  0
 31 30  1  0
 32 28  1  0
 33 32  2  0
 34 33  1  0
 35 34  2  0
 35 36  1  0
 36 27  2  0
 37 11  1  0
 38 39  1  0
 38 37  1  0
 39 40  2  0
 41 38  1  0
 43 42  1  0
 43 45  1  0
 43 39  1  0
 45 44  1  0
 46 45  1  0
 47 37  1  0
 47 49  1  1
 47 50  1  0
 48 47  1  0
 51 53  1  0
 52 54  2  0
 53 52  1  0
 55 53  1  0
 57 52  1  0
 57 56  2  0
 58 56  1  0
 58 59  2  0
 60 59  1  0
 61 68  2  0
 61 69  1  0
 62 67  1  0
 63 62  1  0
 64 63  1  0
 65 64  1  0
 65 66  1  0
 66 67  1  0
 67 61  1  0
 69 60  1  0
 70 69  1  0
 71 96  1  0
 72 71  2  0
 73 75  2  0
 73 72  1  0
 74 71  1  0
 74 65  1  0
 75 74  1  0
 76 73  1  0
 77 76  1  0
 78 77  2  0
 79 80  2  0
 79 78  1  0
 80 81  1  0
 81 76  2  0
 82 79  1  0
 83 84  1  0
 83 82  1  0
 85 84  2  0
 86 85  1  0
 87 86  2  0
 87 88  1  0
 88 83  2  0
 89 88  1  0
 90 86  1  0
 91 72  1  0
 91 93  2  0
 92 91  1  0
 94 92  1  0
 95 92  1  0
 96 97  1  0
 96 98  1  0
M  ISO  4   9 101  10 101  61 100  69 100
M  END
>  <TORSDO>  (64) 
F 27

>  <SCORE>  (64) 
-2.844

>  <name>  (64) 
67

>  <ligand_id>  (64) 
67

>  <original_smiles>  (64) 
[H]C(C(=O)N([H])C([H])([H])C([H])([H])[N+]([H])([H])C([H])([H])C([H])([H])OC([H])([H])C([H])([H])Oc1c([H])c([H])c2c(c1[H])C([H])([H])N(C(=O)C([H])(N([H])C(=O)C([H])(N([H])C([H])([H])[H])C([H])([H])[H])C(C([H])([H])[H])(C([H])([H])[H])C([H])([H])[H])C([H])(C(=O)N([H])C1([H])c3c([H])c([H])c([H])c([H])c3C([H])([H])C([H])([H])C1([H])[H])C2([H])[H])=C([H])C([H])=C([H])C([H])([H])N([H])C(=O)N1C([H])([H])C([H])([H])C([H])([H])C([H])(n2nc(-c3c([H])c([H])c(Oc4c([H])c([H])c(F)c([H])c4F)c([H])c3[H])c(C(=O)N([H])[H])c2N([H])[H])C1([H])[H]

>  <smiles>  (64) 
[H]C(C(=O)N([H])C([H])([H])C([H])([H])[N+]([H])([H])C([H])([H])C([H])([H])OC([H])([H])C([H])([H])Oc1c([H])c([H])c2c(c1[H])C([H])([H])N(C(=O)C([H])(N([H])C(=O)C([H])(N([H])C([H])([H])[H])C([H])([H])[H])C(C([H])([H])[H])(C([H])([H])[H])C([H])([H])[H])C([H])(C(=O)N([H])C1([H])c3c([H])c([H])c([H])c([H])c3C([H])([H])C([H])([H])C1([H])[H])C2([H])[H])=C([H])C([H])=C([H])C([H])([H])N([H])C(=O)N1C([H])([H])C([H])([H])C([H])([H])C([H])(n2nc(-c3c([H])c([H])c(Oc4c([H])c([H])c(F)c([H])c4F)c([H])c3[H])c(C(=O)N([H])[H])c2N([H])[H])C1([H])[H]

$$$$
68:0:0
     RDKit          3D

101108  0  0  1  0  0  0  0  0999 V2000
  -22.6710  -22.9690   19.1440 C   0  0  0  0  0  2  0  0  0  0  0  0
  -23.8960  -22.6650   18.3760 N   0  0  0  0  0  4  0  0  0  0  0  0
  -24.5760  -22.2620   19.0050 H   0  0  0  0  0  0  0  0  0  0  0  0
  -24.2830  -23.5180   18.0020 H   0  0  0  0  0  0  0  0  0  0  0  0
  -23.7270  -21.6840   17.2830 C   0  0  0  0  0  2  0  0  0  0  0  0
  -25.0940  -21.1240   16.8770 C   0  0  0  0  0  2  0  0  0  0  0  0
  -25.6410  -20.5570   18.0610 O   0  0  0  0  0  0  0  0  0  0  0  0
  -26.9790  -20.1100   17.9160 C   0  0  0  0  0  2  0  0  0  0  0  0
  -27.3590  -19.4010   19.2220 C   0  0  0  0  0  2  0  0  0  0  0  0
  -28.8330  -18.9830   19.2920 C   0  0  0  0  0  2  0  0  0  0  0  0
  -29.1260  -18.1330   20.5380 C   0  0  0  0  0  2  0  0  0  0  0  0
  -30.6260  -17.8690   20.7460 C   0  0  0  0  0  2  0  0  0  0  0  0
  -30.9210  -16.8590   21.8720 C   0  0  0  0  0  2  0  0  0  0  0  0
  -30.9230  -14.6570   20.7170 C   0  0  0  0  0  0  0  0  0  0  0  0
  -30.6040  -12.5460   19.4870 C   0  0  0  0  0  2  0  0  0  0  0  0
  -29.7150  -12.7690   18.2490 C   0  0  0  0  0  2  0  0  0  0  0  0
  -28.2250  -12.6440   18.6200 C   0  0  0  0  0  2  0  0  0  0  0  0
  -27.8470  -13.4910   19.8630 C   0  0  0  0  0  3  0  0  0  0  0  0
  -28.8480  -13.2510   21.0160 C   0  0  0  0  0  2  0  0  0  0  0  0
  -30.2090  -13.5200   20.5140 N   0  0  0  0  0  0  0  0  0  0  0  0
  -31.9900  -14.8980   20.1460 O   0  0  0  0  0  0  0  0  0  0  0  0
  -30.3840  -15.5310   21.5730 N   0  0  0  0  0  0  0  0  0  0  0  0
  -29.5210  -15.2640   22.0220 H   0  0  0  0  0  0  0  0  0  0  0  0
  -25.4160  -14.1210   20.4360 C   0  0  0  0  0  0  0  0  0  0  0  0
  -24.3290  -13.3590   20.7750 C   0  0  0  0  0  0  0  0  0  0  0  0
  -24.7890  -12.0070   20.8000 C   0  0  0  0  0  0  0  0  0  0  0  0
  -26.4690  -13.2330   20.2800 N   0  0  0  0  0  0  0  0  0  0  0  0
  -26.0910  -11.9580   20.5540 N   0  0  0  0  0  0  0  0  0  0  0  0
  -24.0520  -10.7500   20.9910 C   0  0  0  0  0  0  0  0  0  0  0  0
  -24.4400   -9.8070   21.9670 C   0  0  0  0  0  3  0  0  0  0  0  0
  -23.7060   -8.6140   22.1420 C   0  0  0  0  0  3  0  0  0  0  0  0
  -22.5680   -8.3560   21.3410 C   0  0  0  0  0  0  0  0  0  0  0  0
  -22.1990   -9.2900   20.3560 C   0  0  0  0  0  3  0  0  0  0  0  0
  -22.9340  -10.4730   20.1780 C   0  0  0  0  0  3  0  0  0  0  0  0
  -21.8090   -7.2140   21.4230 O   0  0  0  0  0  0  0  0  0  0  0  0
  -21.6980   -6.5060   22.5930 C   0  0  0  0  0  0  0  0  0  0  0  0
  -21.2210   -7.1000   23.7820 C   0  0  0  0  0  3  0  0  0  0  0  0
  -21.0580   -6.3190   24.9430 C   0  0  0  0  0  3  0  0  0  0  0  0
  -21.3620   -4.9450   24.9170 C   0  0  0  0  0  0  0  0  0  0  0  0
  -21.8310   -4.3500   23.7320 C   0  0  0  0  0  3  0  0  0  0  0  0
  -21.9960   -5.1280   22.5730 C   0  0  0  0  0  0  0  0  0  0  0  0
  -22.4290   -4.5460   21.4290 F   0  0  0  0  0  0  0  0  0  0  0  0
  -21.1970   -4.1920   26.0290 F   0  0  0  0  0  0  0  0  0  0  0  0
  -22.9230  -13.8440   20.9720 C   0  0  0  0  0  0  0  0  0  0  0  0
  -22.1580  -13.1780   21.8300 N   0  0  0  0  0  0  0  0  0  0  0  0
  -22.5060  -14.8500   20.3990 O   0  0  0  0  0  0  0  0  0  0  0  0
  -22.5060  -12.3640   22.3150 H   0  0  0  0  0  0  0  0  0  0  0  0
  -21.2130  -13.4860   22.0050 H   0  0  0  0  0  0  0  0  0  0  0  0
  -25.5930  -15.4860   20.2310 N   0  0  0  0  0  0  0  0  0  0  0  0
  -24.8260  -16.1460   20.2890 H   0  0  0  0  0  0  0  0  0  0  0  0
  -26.4650  -15.9130   19.9460 H   0  0  0  0  0  0  0  0  0  0  0  0
  -22.9270  -24.0060   20.2540 C   0  0  0  0  0  2  0  0  0  0  0  0
  -23.9880  -23.5690   21.2830 C   0  0  0  0  0  2  0  0  0  0  0  0
  -24.2180  -24.6100   22.4010 C   0  0  0  0  0  2  0  0  0  0  0  0
  -25.6880  -24.7120   22.8500 C   0  0  0  0  0  2  0  0  0  0  0  0
  -27.7910  -24.9330   21.4900 C   0  0  0  0  0  0  0  0  0  0  0  0
  -26.5020  -25.1960   21.7410 N   0  0  0  0  0  0  0  0  0  0  0  0
  -28.5000  -24.2930   22.2690 O   0  0  0  0  0  0  0  0  0  0  0  0
  -26.0350  -25.7900   21.0680 H   0  0  0  0  0  0  0  0  0  0  0  0
  -28.3490  -25.4260   20.1370 C   0  0  0  0  0  2  0  0  0  0  0  0
  -28.3810  -26.8600   20.0520 O   0  0  0  0  0  0  0  0  0  0  0  0
  -24.5650  -31.9080   23.2210 C   0  0  0  0  0  0  0  0  0  0  0  0
  -27.1950  -27.5610   20.0150 C   0  0  0  0  0  0  0  0  0  0  0  0
  -23.3460  -30.5310   21.5660 C   0  0  0  0  0  3  0  0  0  0  0  0
  -24.7870  -29.0360   20.0890 C   0  0  0  0  0  0  0  0  0  0  0  0
  -25.8640  -30.9120   21.3460 C   0  0  0  0  0  2  0  0  0  0  0  0
  -25.9470  -29.5590   20.6750 C   0  0  0  0  0  0  0  0  0  0  0  0
  -27.1520  -28.8250   20.6380 C   0  0  0  0  0  3  0  0  0  0  0  0
  -26.0230  -27.0590   19.4010 C   0  0  0  0  0  3  0  0  0  0  0  0
  -24.8190  -27.7850   19.4490 C   0  0  0  0  0  3  0  0  0  0  0  0
  -23.5400  -29.8820   20.1690 C   0  0  0  0  0  2  0  0  0  0  0  0
  -24.6090  -31.1300   22.1040 N   0  0  0  0  0  0  0  0  0  0  0  0
  -23.4900  -32.1680   23.7790 O   0  0  0  0  0  0  0  0  0  0  0  0
  -22.7140  -29.4860   22.5120 C   0  0  0  0  0  0  0  0  0  0  0  0
  -21.3910  -29.2990   22.3950 N   0  0  0  0  0  0  0  0  0  0  0  0
  -23.4110  -28.8470   23.3050 O   0  0  0  0  0  0  0  0  0  0  0  0
  -20.8930  -29.8700   21.7270 H   0  0  0  0  0  0  0  0  0  0  0  0
  -18.0270  -28.0830   22.8950 C   0  0  0  0  0  0  0  0  0  0  0  0
  -20.5850  -28.3430   23.1520 C   0  0  0  0  0  3  0  0  0  0  0  0
  -20.6890  -26.9240   22.5430 C   0  0  0  0  0  2  0  0  0  0  0  0
  -19.5780  -26.6190   21.5340 C   0  0  0  0  0  2  0  0  0  0  0  0
  -18.2020  -26.7460   22.1940 C   0  0  0  0  0  2  0  0  0  0  0  0
  -19.1460  -28.8400   23.3300 C   0  0  0  0  0  0  0  0  0  0  0  0
  -18.9290  -30.0940   23.9420 C   0  0  0  0  0  3  0  0  0  0  0  0
  -17.6230  -30.5890   24.1260 C   0  0  0  0  0  3  0  0  0  0  0  0
  -16.5180  -29.8260   23.7090 C   0  0  0  0  0  3  0  0  0  0  0  0
  -16.7210  -28.5750   23.0980 C   0  0  0  0  0  3  0  0  0  0  0  0
  -25.8580  -32.5300   23.8370 C   0  0  0  0  0  3  0  0  0  0  0  0
  -26.3790  -31.7510   25.1070 C   0  0  1  0  0  0  0  0  0  0  0  0
  -25.2920  -31.5140   26.1800 C   0  0  0  0  0  1  0  0  0  0  0  0
  -26.9520  -30.3720   24.7040 C   0  0  0  0  0  1  0  0  0  0  0  0
  -27.5380  -32.5360   25.7650 C   0  0  0  0  0  1  0  0  0  0  0  0
  -25.5600  -33.9290   24.1700 N   0  0  0  0  0  0  0  0  0  0  0  0
  -25.9060  -34.9790   23.4140 C   0  0  0  0  0  0  0  0  0  0  0  0
  -26.5800  -34.8730   22.3850 O   0  0  0  0  0  0  0  0  0  0  0  0
  -24.9590  -34.0870   24.9660 H   0  0  0  0  0  0  0  0  0  0  0  0
  -24.1920  -36.7840   23.0490 C   0  0  0  0  0  1  0  0  0  0  0  0
  -25.4250  -36.3690   23.8690 C   0  0  0  0  0  3  0  0  0  0  0  0
  -27.5620  -37.2320   24.7110 C   0  0  0  0  0  1  0  0  0  0  0  0
  -26.4650  -37.4140   23.7650 N   0  0  0  0  0  0  0  0  0  0  0  0
  -26.0670  -38.3370   23.9150 H   0  0  0  0  0  0  0  0  0  0  0  0
  1 52  1  0
  2  3  1  0
  2  1  1  0
  4  2  1  0
  5  2  1  0
  6  5  1  0
  6  7  1  0
  8  7  1  0
  8  9  1  0
  9 10  1  0
 10 11  1  0
 11 12  1  0
 12 13  1  0
 14 22  1  0
 15 20  1  0
 16 17  1  0
 16 15  1  0
 18 17  1  0
 18 27  1  0
 18 19  1  0
 20 14  1  0
 20 19  1  0
 21 14  2  0
 22 13  1  0
 22 23  1  0
 24 25  2  0
 25 26  1  0
 25 44  1  0
 26 29  1  0
 27 24  1  0
 27 28  1  0
 28 26  2  0
 29 30  1  0
 30 31  2  0
 32 35  1  0
 32 31  1  0
 33 32  2  0
 34 33  1  0
 34 29  2  0
 35 36  1  0
 36 37  1  0
 37 38  2  0
 39 38  1  0
 39 43  1  0
 40 39  2  0
 41 36  2  0
 41 40  1  0
 42 41  1  0
 44 45  1  0
 45 48  1  0
 45 47  1  0
 46 44  2  0
 49 50  1  0
 49 24  1  0
 51 49  1  0
 52 53  1  0
 53 54  1  0
 54 55  1  0
 56 57  1  0
 56 58  2  0
 57 55  1  0
 59 57  1  0
 60 56  1  0
 61 60  1  0
 62 73  2  0
 63 61  1  0
 63 68  1  0
 64 72  1  0
 64 74  1  0
 65 71  1  0
 65 67  1  0
 66 72  1  0
 67 66  1  0
 68 67  2  0
 69 70  1  0
 69 63  2  0
 70 65  2  0
 71 64  1  0
 72 62  1  0
 74 76  2  0
 75 74  1  0
 77 75  1  0
 78 87  2  0
 78 83  1  0
 79 75  1  0
 79 83  1  0
 80 79  1  0
 81 82  1  0
 81 80  1  0
 82 78  1  0
 83 84  2  0
 84 85  1  0
 86 85  2  0
 87 86  1  0
 88 62  1  0
 88 93  1  0
 88 89  1  0
 89 92  1  1
 89 90  1  0
 91 89  1  0
 93 96  1  0
 94 98  1  0
 94 93  1  0
 95 94  2  0
 98 97  1  0
100 98  1  0
100101  1  0
100 99  1  0
M  ISO  4  14 100  22 100  60 101  61 101
M  END
>  <TORSDO>  (65) 
F 32

>  <SCORE>  (65) 
-10.280

>  <name>  (65) 
68

>  <ligand_id>  (65) 
68

>  <original_smiles>  (65) 
[H]c1c([H])c([H])c2c(c1[H])C([H])([H])C([H])([H])C([H])([H])C2([H])N([H])C(=O)C1([H])N(C(=O)C([H])(N([H])C(=O)C([H])(N([H])C([H])([H])[H])C([H])([H])[H])C(C([H])([H])[H])(C([H])([H])[H])C([H])([H])[H])C([H])([H])c2c([H])c(OC([H])([H])C(=O)N([H])C([H])([H])C([H])([H])C([H])([H])C([H])([H])C([H])([H])[N+]([H])([H])C([H])([H])C([H])([H])OC([H])([H])C([H])([H])C([H])([H])C([H])([H])C([H])([H])C([H])([H])N([H])C(=O)N3C([H])([H])C([H])([H])C([H])([H])C([H])(n4nc(-c5c([H])c([H])c(Oc6c([H])c([H])c(F)c([H])c6F)c([H])c5[H])c(C(=O)N([H])[H])c4N([H])[H])C3([H])[H])c([H])c([H])c2C1([H])[H]

>  <smiles>  (65) 
[H]c1c([H])c([H])c2c(c1[H])C([H])([H])C([H])([H])C([H])([H])C2([H])N([H])C(=O)C1([H])N(C(=O)C([H])(N([H])C(=O)C([H])(N([H])C([H])([H])[H])C([H])([H])[H])C(C([H])([H])[H])(C([H])([H])[H])C([H])([H])[H])C([H])([H])c2c([H])c(OC([H])([H])C(=O)N([H])C([H])([H])C([H])([H])C([H])([H])C([H])([H])C([H])([H])[N+]([H])([H])C([H])([H])C([H])([H])OC([H])([H])C([H])([H])C([H])([H])C([H])([H])C([H])([H])C([H])([H])N([H])C(=O)N3C([H])([H])C([H])([H])C([H])([H])C([H])(n4nc(-c5c([H])c([H])c(Oc6c([H])c([H])c(F)c([H])c6F)c([H])c5[H])c(C(=O)N([H])[H])c4N([H])[H])C3([H])[H])c([H])c([H])c2C1([H])[H]

$$$$
69:0:0
     RDKit          3D

 94101  0  0  1  0  0  0  0  0999 V2000
  -29.9080  -20.8770   23.5560 N   0  0  0  0  0  4  0  0  0  0  0  0
  -29.9660  -21.4420   24.3910 H   0  0  0  0  0  0  0  0  0  0  0  0
  -29.0310  -20.3790   23.6070 H   0  0  0  0  0  0  0  0  0  0  0  0
  -30.9690  -19.8520   23.6020 C   0  0  0  0  0  2  0  0  0  0  0  0
  -30.4530  -18.5960   24.3100 C   0  0  0  0  0  0  0  0  0  0  0  0
  -30.3240  -17.4430   23.6440 N   0  0  0  0  0  0  0  0  0  0  0  0
  -30.1550  -18.6670   25.5010 O   0  0  0  0  0  0  0  0  0  0  0  0
  -30.0200  -16.6460   24.1890 H   0  0  0  0  0  0  0  0  0  0  0  0
  -30.4370  -17.2180   22.2040 C   0  0  0  0  0  2  0  0  0  0  0  0
  -31.7950  -16.5970   21.7970 C   0  0  0  0  0  2  0  0  0  0  0  0
  -31.9960  -14.4810   20.4630 C   0  0  0  0  0  0  0  0  0  0  0  0
  -31.4720  -12.4840   19.1060 C   0  0  0  0  0  2  0  0  0  0  0  0
  -30.5860  -12.8600   17.9040 C   0  0  0  0  0  2  0  0  0  0  0  0
  -29.0980  -12.8620   18.2980 C   0  0  0  0  0  2  0  0  0  0  0  0
  -28.8290  -13.6920   19.5810 C   0  0  0  0  0  3  0  0  0  0  0  0
  -29.8060  -13.2670   20.6980 C   0  0  0  0  0  2  0  0  0  0  0  0
  -31.1920  -13.4190   20.2010 N   0  0  0  0  0  0  0  0  0  0  0  0
  -33.0070  -14.7690   19.8140 O   0  0  0  0  0  0  0  0  0  0  0  0
  -31.5870  -15.1860   21.5220 N   0  0  0  0  0  0  0  0  0  0  0  0
  -30.8500  -14.7460   22.0540 H   0  0  0  0  0  0  0  0  0  0  0  0
  -26.4940  -14.5730   20.2270 C   0  0  0  0  0  0  0  0  0  0  0  0
  -25.3370  -13.9280   20.5750 C   0  0  0  0  0  0  0  0  0  0  0  0
  -25.6440  -12.5340   20.5500 C   0  0  0  0  0  0  0  0  0  0  0  0
  -27.4380  -13.5790   20.0180 N   0  0  0  0  0  0  0  0  0  0  0  0
  -26.9260  -12.3470   20.2640 N   0  0  0  0  0  0  0  0  0  0  0  0
  -24.7760  -11.3620   20.7260 C   0  0  0  0  0  0  0  0  0  0  0  0
  -25.0720  -10.3650   21.6810 C   0  0  0  0  0  3  0  0  0  0  0  0
  -24.2160   -9.2560   21.8460 C   0  0  0  0  0  3  0  0  0  0  0  0
  -23.0500   -9.1350   21.0520 C   0  0  0  0  0  0  0  0  0  0  0  0
  -22.7720  -10.1200   20.0870 C   0  0  0  0  0  3  0  0  0  0  0  0
  -23.6290  -11.2220   19.9220 C   0  0  0  0  0  3  0  0  0  0  0  0
  -22.1750   -8.0800   21.1250 O   0  0  0  0  0  0  0  0  0  0  0  0
  -21.9510   -7.4080   22.3000 C   0  0  0  0  0  0  0  0  0  0  0  0
  -21.5070   -8.0700   23.4630 C   0  0  0  0  0  3  0  0  0  0  0  0
  -21.2210   -7.3310   24.6280 C   0  0  0  0  0  3  0  0  0  0  0  0
  -21.3680   -5.9310   24.6290 C   0  0  0  0  0  0  0  0  0  0  0  0
  -21.8020   -5.2690   23.4670 C   0  0  0  0  0  3  0  0  0  0  0  0
  -22.0910   -6.0050   22.3060 C   0  0  0  0  0  0  0  0  0  0  0  0
  -22.4900   -5.3590   21.1840 F   0  0  0  0  0  0  0  0  0  0  0  0
  -21.0840   -5.2200   25.7450 F   0  0  0  0  0  0  0  0  0  0  0  0
  -23.9990  -14.5610   20.8230 C   0  0  0  0  0  0  0  0  0  0  0  0
  -23.1910  -13.9660   21.6930 N   0  0  0  0  0  0  0  0  0  0  0  0
  -23.6800  -15.6180   20.2810 O   0  0  0  0  0  0  0  0  0  0  0  0
  -23.4650  -13.1160   22.1640 H   0  0  0  0  0  0  0  0  0  0  0  0
  -22.2900  -14.3740   21.9020 H   0  0  0  0  0  0  0  0  0  0  0  0
  -26.8140  -15.9170   20.0520 N   0  0  0  0  0  0  0  0  0  0  0  0
  -27.7020  -16.2500   19.6990 H   0  0  0  0  0  0  0  0  0  0  0  0
  -26.1090  -16.6440   20.1010 H   0  0  0  0  0  0  0  0  0  0  0  0
  -29.9240  -21.7170   22.3360 C   0  0  0  0  0  2  0  0  0  0  0  0
  -28.8150  -22.7750   22.3430 C   0  0  0  0  0  2  0  0  0  0  0  0
  -28.8140  -23.4220   21.0760 O   0  0  0  0  0  0  0  0  0  0  0  0
  -28.0300  -24.6070   21.0680 C   0  0  0  0  0  2  0  0  0  0  0  0
  -28.3090  -25.3830   19.7740 C   0  0  0  0  0  2  0  0  0  0  0  0
  -28.2610  -26.7850   20.0110 O   0  0  0  0  0  0  0  0  0  0  0  0
  -24.5230  -31.8870   23.2100 C   0  0  0  0  0  0  0  0  0  0  0  0
  -27.0500  -27.4370   20.0600 C   0  0  0  0  0  0  0  0  0  0  0  0
  -23.2550  -30.4880   21.6060 C   0  0  0  0  0  3  0  0  0  0  0  0
  -24.6540  -28.9330   20.1480 C   0  0  0  0  0  0  0  0  0  0  0  0
  -25.7730  -30.8330   21.3340 C   0  0  0  0  0  2  0  0  0  0  0  0
  -25.8300  -29.4610   20.6940 C   0  0  0  0  0  0  0  0  0  0  0  0
  -27.0260  -28.7190   20.6460 C   0  0  0  0  0  3  0  0  0  0  0  0
  -25.8500  -26.9050   19.5310 C   0  0  0  0  0  3  0  0  0  0  0  0
  -24.6580  -27.6520   19.5680 C   0  0  0  0  0  3  0  0  0  0  0  0
  -23.4170  -29.7950   20.2260 C   0  0  0  0  0  2  0  0  0  0  0  0
  -24.5360  -31.0850   22.1070 N   0  0  0  0  0  0  0  0  0  0  0  0
  -23.4600  -32.1740   23.7790 O   0  0  0  0  0  0  0  0  0  0  0  0
  -22.6220  -29.4790   22.5920 C   0  0  0  0  0  0  0  0  0  0  0  0
  -21.2990  -29.2800   22.4760 N   0  0  0  0  0  0  0  0  0  0  0  0
  -23.3180  -28.8750   23.4130 O   0  0  0  0  0  0  0  0  0  0  0  0
  -20.7990  -29.8230   21.7850 H   0  0  0  0  0  0  0  0  0  0  0  0
  -17.9510  -28.0220   22.9730 C   0  0  0  0  0  0  0  0  0  0  0  0
  -20.4970  -28.3470   23.2650 C   0  0  0  0  0  3  0  0  0  0  0  0
  -20.6390  -26.9030   22.7310 C   0  0  0  0  0  2  0  0  0  0  0  0
  -19.5560  -26.5240   21.7160 C   0  0  0  0  0  2  0  0  0  0  0  0
  -18.1660  -26.6570   22.3420 C   0  0  0  0  0  2  0  0  0  0  0  0
  -19.0460  -28.8220   23.3920 C   0  0  0  0  0  0  0  0  0  0  0  0
  -18.7940  -30.0990   23.9410 C   0  0  0  0  0  3  0  0  0  0  0  0
  -17.4760  -30.5750   24.0740 C   0  0  0  0  0  3  0  0  0  0  0  0
  -16.3940  -29.7720   23.6720 C   0  0  0  0  0  3  0  0  0  0  0  0
  -16.6330  -28.4980   23.1290 C   0  0  0  0  0  3  0  0  0  0  0  0
  -25.8350  -32.5030   23.7900 C   0  0  0  0  0  3  0  0  0  0  0  0
  -26.3820  -31.7310   25.0530 C   0  0  1  0  0  0  0  0  0  0  0  0
  -25.3180  -31.5090   26.1520 C   0  0  0  0  0  1  0  0  0  0  0  0
  -26.9400  -30.3460   24.6490 C   0  0  0  0  0  1  0  0  0  0  0  0
  -27.5580  -32.5160   25.6800 C   0  0  0  0  0  1  0  0  0  0  0  0
  -25.5540  -33.9060   24.1200 N   0  0  0  0  0  0  0  0  0  0  0  0
  -25.8820  -34.9490   23.3460 C   0  0  0  0  0  0  0  0  0  0  0  0
  -26.5230  -34.8310   22.2980 O   0  0  0  0  0  0  0  0  0  0  0  0
  -24.9850  -34.0760   24.9360 H   0  0  0  0  0  0  0  0  0  0  0  0
  -24.1630  -36.7560   23.0300 C   0  0  0  0  0  1  0  0  0  0  0  0
  -25.4230  -36.3440   23.8080 C   0  0  0  0  0  3  0  0  0  0  0  0
  -27.5910  -37.2090   24.5690 C   0  0  0  0  0  1  0  0  0  0  0  0
  -26.4640  -37.3850   23.6560 N   0  0  0  0  0  0  0  0  0  0  0  0
  -26.0730  -38.3090   23.8110 H   0  0  0  0  0  0  0  0  0  0  0  0
  1  4  1  0
  1  3  1  0
  1  2  1  0
  4  5  1  0
  5  7  2  0
  6  8  1  0
  6  5  1  0
  9  6  1  0
 10  9  1  0
 11 19  1  0
 12 17  1  0
 13 14  1  0
 13 12  1  0
 15 14  1  0
 15 24  1  0
 15 16  1  0
 17 11  1  0
 17 16  1  0
 18 11  2  0
 19 10  1  0
 19 20  1  0
 21 22  2  0
 22 41  1  0
 23 22  1  0
 23 26  1  0
 24 21  1  0
 24 25  1  0
 25 23  2  0
 26 27  1  0
 27 28  2  0
 29 32  1  0
 29 28  1  0
 30 29  2  0
 31 30  1  0
 31 26  2  0
 32 33  1  0
 33 38  2  0
 33 34  1  0
 34 35  2  0
 35 36  1  0
 36 40  1  0
 37 36  2  0
 38 37  1  0
 39 38  1  0
 41 42  1  0
 42 45  1  0
 42 44  1  0
 43 41  2  0
 46 48  1  0
 46 21  1  0
 47 46  1  0
 49 50  1  0
 49  1  1  0
 51 50  1  0
 52 51  1  0
 53 54  1  0
 53 52  1  0
 54 56  1  0
 55 66  2  0
 56 61  1  0
 57 65  1  0
 57 67  1  0
 58 64  1  0
 58 60  1  0
 59 65  1  0
 60 59  1  0
 61 60  2  0
 62 63  1  0
 62 56  2  0
 63 58  2  0
 64 57  1  0
 65 55  1  0
 67 69  2  0
 68 67  1  0
 70 68  1  0
 71 80  2  0
 71 76  1  0
 72 68  1  0
 72 76  1  0
 73 72  1  0
 74 75  1  0
 74 73  1  0
 75 71  1  0
 76 77  2  0
 77 78  1  0
 79 78  2  0
 80 79  1  0
 81 55  1  0
 81 86  1  0
 81 82  1  0
 82 85  1  1
 82 83  1  0
 84 82  1  0
 86 89  1  0
 87 91  1  0
 87 86  1  0
 88 87  2  0
 91 90  1  0
 93 91  1  0
 93 94  1  0
 93 92  1  0
M  ISO  4  11 100  19 100  53 101  54 101
M  END
>  <TORSDO>  (66) 
F 25

>  <SCORE>  (66) 
-8.508

>  <name>  (66) 
69

>  <ligand_id>  (66) 
69

>  <original_smiles>  (66) 
[H]c1c([H])c([H])c2c(c1[H])C([H])([H])C([H])([H])C([H])([H])C2([H])N([H])C(=O)C1([H])N(C(=O)C([H])(N([H])C(=O)C([H])(N([H])C([H])([H])[H])C([H])([H])[H])C(C([H])([H])[H])(C([H])([H])[H])C([H])([H])[H])C([H])([H])c2c([H])c(OC([H])([H])C([H])([H])OC([H])([H])C([H])([H])[N+]([H])([H])C([H])([H])C(=O)N([H])C([H])([H])C([H])([H])N([H])C(=O)N3C([H])([H])C([H])([H])C([H])([H])C([H])(n4nc(-c5c([H])c([H])c(Oc6c([H])c([H])c(F)c([H])c6F)c([H])c5[H])c(C(=O)N([H])[H])c4N([H])[H])C3([H])[H])c([H])c([H])c2C1([H])[H]

>  <smiles>  (66) 
[H]c1c([H])c([H])c2c(c1[H])C([H])([H])C([H])([H])C([H])([H])C2([H])N([H])C(=O)C1([H])N(C(=O)C([H])(N([H])C(=O)C([H])(N([H])C([H])([H])[H])C([H])([H])[H])C(C([H])([H])[H])(C([H])([H])[H])C([H])([H])[H])C([H])([H])c2c([H])c(OC([H])([H])C([H])([H])OC([H])([H])C([H])([H])[N+]([H])([H])C([H])([H])C(=O)N([H])C([H])([H])C([H])([H])N([H])C(=O)N3C([H])([H])C([H])([H])C([H])([H])C([H])(n4nc(-c5c([H])c([H])c(Oc6c([H])c([H])c(F)c([H])c6F)c([H])c5[H])c(C(=O)N([H])[H])c4N([H])[H])C3([H])[H])c([H])c([H])c2C1([H])[H]

$$$$
70:0:0
     RDKit          3D

 98105  0  0  1  0  0  0  0  0999 V2000
  -23.8330  -21.2080   18.5820 N   0  0  0  0  0  4  0  0  0  0  0  0
  -23.9370  -21.3830   17.5960 H   0  0  0  0  0  0  0  0  0  0  0  0
  -22.8470  -21.0780   18.7460 H   0  0  0  0  0  0  0  0  0  0  0  0
  -24.4980  -19.9300   18.9240 C   0  0  0  0  0  2  0  0  0  0  0  0
  -25.6560  -19.5520   17.9670 C   0  0  0  0  0  2  0  0  0  0  0  0
  -27.0660  -19.8150   18.5300 C   0  0  0  0  0  2  0  0  0  0  0  0
  -28.0980  -18.9700   17.8900 N   0  0  0  0  0  4  0  0  0  0  0  0
  -27.7240  -18.0370   17.7750 H   0  0  0  0  0  0  0  0  0  0  0  0
  -28.3000  -19.3370   16.9720 H   0  0  0  0  0  0  0  0  0  0  0  0
  -29.3530  -18.8880   18.6710 C   0  0  0  0  0  2  0  0  0  0  0  0
  -30.4350  -18.0450   17.9710 C   0  0  0  0  0  2  0  0  0  0  0  0
  -31.6770  -17.7890   18.8540 C   0  0  0  0  0  2  0  0  0  0  0  0
  -32.3100  -15.3930   19.1100 C   0  0  0  0  0  0  0  0  0  0  0  0
  -32.0760  -12.9790   18.7070 C   0  0  0  0  0  2  0  0  0  0  0  0
  -31.0010  -12.7550   17.6230 C   0  0  0  0  0  2  0  0  0  0  0  0
  -29.5840  -12.7250   18.2320 C   0  0  0  0  0  2  0  0  0  0  0  0
  -29.3190  -13.9040   19.2050 C   0  0  0  0  0  3  0  0  0  0  0  0
  -30.4880  -14.0480   20.2070 C   0  0  0  0  0  2  0  0  0  0  0  0
  -31.7340  -14.2090   19.4340 N   0  0  0  0  0  0  0  0  0  0  0  0
  -33.3180  -15.4900   18.4000 O   0  0  0  0  0  0  0  0  0  0  0  0
  -31.6040  -16.4680   19.4810 N   0  0  0  0  0  0  0  0  0  0  0  0
  -30.8370  -16.2890   20.1100 H   0  0  0  0  0  0  0  0  0  0  0  0
  -27.1960  -14.7310   20.4080 C   0  0  0  0  0  0  0  0  0  0  0  0
  -26.0840  -14.0700   20.8560 C   0  0  0  0  0  0  0  0  0  0  0  0
  -26.3090  -12.6870   20.5770 C   0  0  0  0  0  0  0  0  0  0  0  0
  -28.0350  -13.7560   19.8850 N   0  0  0  0  0  0  0  0  0  0  0  0
  -27.5100  -12.5160   20.0390 N   0  0  0  0  0  0  0  0  0  0  0  0
  -25.4310  -11.5220   20.7440 C   0  0  0  0  0  0  0  0  0  0  0  0
  -25.7340  -10.4950   21.6650 C   0  0  0  0  0  3  0  0  0  0  0  0
  -24.8670   -9.3920   21.8180 C   0  0  0  0  0  3  0  0  0  0  0  0
  -23.6810   -9.3110   21.0500 C   0  0  0  0  0  0  0  0  0  0  0  0
  -23.3950  -10.3250   20.1200 C   0  0  0  0  0  3  0  0  0  0  0  0
  -24.2600  -11.4200   19.9650 C   0  0  0  0  0  3  0  0  0  0  0  0
  -22.7910   -8.2650   21.1120 O   0  0  0  0  0  0  0  0  0  0  0  0
  -22.4170   -7.7090   22.3100 C   0  0  0  0  0  0  0  0  0  0  0  0
  -21.7480   -8.4580   23.3010 C   0  0  0  0  0  3  0  0  0  0  0  0
  -21.3190   -7.8300   24.4870 C   0  0  0  0  0  3  0  0  0  0  0  0
  -21.5490   -6.4540   24.6800 C   0  0  0  0  0  0  0  0  0  0  0  0
  -22.2080   -5.7050   23.6890 C   0  0  0  0  0  3  0  0  0  0  0  0
  -22.6380   -6.3310   22.5060 C   0  0  0  0  0  0  0  0  0  0  0  0
  -23.2550   -5.6000   21.5460 F   0  0  0  0  0  0  0  0  0  0  0  0
  -21.1300   -5.8490   25.8150 F   0  0  0  0  0  0  0  0  0  0  0  0
  -24.8520  -14.6900   21.4490 C   0  0  0  0  0  0  0  0  0  0  0  0
  -24.1730  -13.9760   22.3410 N   0  0  0  0  0  0  0  0  0  0  0  0
  -24.5170  -15.8380   21.1620 O   0  0  0  0  0  0  0  0  0  0  0  0
  -24.4640  -13.0440   22.5970 H   0  0  0  0  0  0  0  0  0  0  0  0
  -23.3480  -14.3670   22.7730 H   0  0  0  0  0  0  0  0  0  0  0  0
  -27.5750  -16.0700   20.4100 N   0  0  0  0  0  0  0  0  0  0  0  0
  -26.9160  -16.6070   20.9610 H   0  0  0  0  0  0  0  0  0  0  0  0
  -28.5020  -16.1130   20.8090 H   0  0  0  0  0  0  0  0  0  0  0  0
  -24.2470  -22.3910   19.3760 C   0  0  0  0  0  2  0  0  0  0  0  0
  -24.1720  -23.6940   18.5580 C   0  0  0  0  0  2  0  0  0  0  0  0
  -25.5110  -24.0800   17.8970 C   0  0  0  0  0  2  0  0  0  0  0  0
  -27.7070  -24.5130   18.5240 C   0  0  0  0  0  3  0  0  0  0  0  0
  -26.4950  -24.4320   18.9050 N   0  0  0  0  0  0  0  0  0  0  0  0
  -28.8160  -25.0930   19.3770 C   0  0  0  0  0  2  0  0  0  0  0  0
  -29.3640  -26.4370   18.8340 C   0  0  0  0  0  2  0  0  0  0  0  0
  -29.1350  -27.5490   19.7070 O   0  0  0  0  0  0  0  0  0  0  0  0
  -24.7120  -31.3880   23.7280 C   0  0  0  0  0  0  0  0  0  0  0  0
  -27.8910  -28.1430   19.7770 C   0  0  0  0  0  0  0  0  0  0  0  0
  -23.7250  -30.4270   21.6730 C   0  0  0  0  0  3  0  0  0  0  0  0
  -25.3810  -29.4310   20.0130 C   0  0  0  0  0  0  0  0  0  0  0  0
  -26.2250  -30.9610   21.7970 C   0  0  0  0  0  2  0  0  0  0  0  0
  -26.4520  -29.8270   20.8230 C   0  0  0  0  0  0  0  0  0  0  0  0
  -27.7020  -29.1800   20.7160 C   0  0  0  0  0  3  0  0  0  0  0  0
  -26.8080  -27.7900   18.9390 C   0  0  0  0  0  3  0  0  0  0  0  0
  -25.5520  -28.4060   19.0720 C   0  0  0  0  0  3  0  0  0  0  0  0
  -24.0760  -30.1720   20.1830 C   0  0  0  0  0  2  0  0  0  0  0  0
  -24.9000  -30.9250   22.4590 N   0  0  0  0  0  0  0  0  0  0  0  0
  -23.5800  -31.4390   24.2280 O   0  0  0  0  0  0  0  0  0  0  0  0
  -23.0980  -29.1430   22.2600 C   0  0  0  0  0  0  0  0  0  0  0  0
  -21.8090  -28.9150   21.9580 N   0  0  0  0  0  0  0  0  0  0  0  0
  -23.7680  -28.3660   22.9460 O   0  0  0  0  0  0  0  0  0  0  0  0
  -21.3250  -29.6040   21.3980 H   0  0  0  0  0  0  0  0  0  0  0  0
  -18.5290  -27.4190   21.7730 C   0  0  0  0  0  0  0  0  0  0  0  0
  -21.0200  -27.7570   22.3720 C   0  0  0  0  0  3  0  0  0  0  0  0
  -21.3000  -26.5390   21.4600 C   0  0  0  0  0  2  0  0  0  0  0  0
  -20.3210  -26.4260   20.2870 C   0  0  0  0  0  2  0  0  0  0  0  0
  -18.8830  -26.3090   20.7970 C   0  0  0  0  0  2  0  0  0  0  0  0
  -19.5340  -28.1090   22.5010 C   0  0  0  0  0  0  0  0  0  0  0  0
  -19.1530  -29.1590   23.3660 C   0  0  0  0  0  3  0  0  0  0  0  0
  -17.8000  -29.5160   23.5150 C   0  0  0  0  0  3  0  0  0  0  0  0
  -16.8080  -28.8170   22.8030 C   0  0  0  0  0  3  0  0  0  0  0  0
  -17.1720  -27.7700   21.9390 C   0  0  0  0  0  3  0  0  0  0  0  0
  -25.9040  -31.8930   24.5980 C   0  0  0  0  0  3  0  0  0  0  0  0
  -25.6200  -33.2850   24.9680 N   0  0  0  0  0  0  0  0  0  0  0  0
  -26.1530  -34.3560   24.3650 C   0  0  0  0  0  0  0  0  0  0  0  0
  -27.0030  -34.2690   23.4730 O   0  0  0  0  0  0  0  0  0  0  0  0
  -24.8930  -33.4330   25.6510 H   0  0  0  0  0  0  0  0  0  0  0  0
  -24.6570  -36.2980   23.8040 C   0  0  0  0  0  1  0  0  0  0  0  0
  -25.6650  -35.7430   24.8230 C   0  0  0  0  0  3  0  0  0  0  0  0
  -27.6090  -36.4060   26.1650 C   0  0  0  0  0  1  0  0  0  0  0  0
  -26.7580  -36.7180   25.0190 N   0  0  0  0  0  0  0  0  0  0  0  0
  -26.3860  -37.6560   25.1440 H   0  0  0  0  0  0  0  0  0  0  0  0
  -26.1550  -31.0130   25.8830 C   0  0  1  0  0  0  0  0  0  0  0  0
  -24.8900  -30.7930   26.7440 C   0  0  0  0  0  1  0  0  0  0  0  0
  -26.7070  -29.6220   25.4900 C   0  0  0  0  0  1  0  0  0  0  0  0
  -27.2270  -31.6810   26.7750 C   0  0  0  0  0  1  0  0  0  0  0  0
  1  3  1  0
  1  4  1  0
  1 51  1  0
  2  1  1  0
  5  6  1  0
  5  4  1  0
  7  6  1  0
  7 10  1  0
  8  7  1  0
  9  7  1  0
 11 10  1  0
 11 12  1  0
 12 21  1  0
 13 19  1  0
 13 21  1  0
 14 19  1  0
 15 16  1  0
 15 14  1  0
 17 16  1  0
 17 26  1  0
 17 18  1  0
 19 18  1  0
 20 13  2  0
 21 22  1  0
 23 48  1  0
 23 24  2  0
 24 43  1  0
 25 28  1  0
 25 24  1  0
 26 27  1  0
 26 23  1  0
 27 25  2  0
 28 29  1  0
 29 30  2  0
 31 34  1  0
 31 30  1  0
 32 31  2  0
 33 32  1  0
 33 28  2  0
 34 35  1  0
 35 40  2  0
 35 36  1  0
 36 37  2  0
 37 38  1  0
 38 42  1  0
 39 38  2  0
 40 39  1  0
 41 40  1  0
 43 44  1  0
 44 46  1  0
 44 47  1  0
 45 43  2  0
 48 50  1  0
 48 49  1  0
 52 51  1  0
 53 52  1  0
 53 55  1  0
 54 55  2  0
 54 56  1  0
 57 56  1  0
 57 58  1  0
 58 60  1  0
 59 70  2  0
 60 65  1  0
 61 71  1  0
 61 69  1  0
 62 68  1  0
 62 64  1  0
 63 69  1  0
 64 63  1  0
 65 64  2  0
 66 67  1  0
 66 60  2  0
 67 62  2  0
 68 61  1  0
 69 59  1  0
 71 73  2  0
 72 71  1  0
 74 72  1  0
 75 84  2  0
 75 80  1  0
 76 72  1  0
 76 80  1  0
 77 76  1  0
 78 79  1  0
 78 77  1  0
 79 75  1  0
 80 81  2  0
 81 82  1  0
 83 82  2  0
 84 83  1  0
 85 59  1  0
 85 86  1  0
 85 95  1  0
 86 89  1  0
 87 91  1  0
 87 86  1  0
 88 87  2  0
 91 90  1  0
 91 93  1  0
 93 94  1  0
 93 92  1  0
 95 96  1  1
 95 98  1  0
 97 95  1  0
M  ISO  4  13 100  21 100  57 101  58 101
M  END
>  <TORSDO>  (67) 
F 29

>  <SCORE>  (67) 
-5.316

>  <name>  (67) 
70

>  <ligand_id>  (67) 
70

>  <original_smiles>  (67) 
[H]C(=NC([H])([H])C([H])([H])C([H])([H])[N+]([H])([H])C([H])([H])C([H])([H])C([H])([H])[N+]([H])([H])C([H])([H])C([H])([H])C([H])([H])N([H])C(=O)N1C([H])([H])C([H])([H])C([H])([H])C([H])(n2nc(-c3c([H])c([H])c(Oc4c([H])c([H])c(F)c([H])c4F)c([H])c3[H])c(C(=O)N([H])[H])c2N([H])[H])C1([H])[H])C([H])([H])C([H])([H])Oc1c([H])c([H])c2c(c1[H])C([H])([H])N(C(=O)C([H])(N([H])C(=O)C([H])(N([H])C([H])([H])[H])C([H])([H])[H])C(C([H])([H])[H])(C([H])([H])[H])C([H])([H])[H])C([H])(C(=O)N([H])C1([H])c3c([H])c([H])c([H])c([H])c3C([H])([H])C([H])([H])C1([H])[H])C2([H])[H]

>  <smiles>  (67) 
[H]C(=NC([H])([H])C([H])([H])C([H])([H])[N+]([H])([H])C([H])([H])C([H])([H])C([H])([H])[N+]([H])([H])C([H])([H])C([H])([H])C([H])([H])N([H])C(=O)N1C([H])([H])C([H])([H])C([H])([H])C([H])(n2nc(-c3c([H])c([H])c(Oc4c([H])c([H])c(F)c([H])c4F)c([H])c3[H])c(C(=O)N([H])[H])c2N([H])[H])C1([H])[H])C([H])([H])C([H])([H])Oc1c([H])c([H])c2c(c1[H])C([H])([H])N(C(=O)C([H])(N([H])C(=O)C([H])(N([H])C([H])([H])[H])C([H])([H])[H])C(C([H])([H])[H])(C([H])([H])[H])C([H])([H])[H])C([H])(C(=O)N([H])C1([H])c3c([H])c([H])c([H])c([H])c3C([H])([H])C([H])([H])C1([H])[H])C2([H])[H]

$$$$
71:0:0
     RDKit          3D

 99106  0  0  1  0  0  0  0  0999 V2000
  -32.4420  -22.2530   18.8050 C   0  0  0  0  0  2  0  0  0  0  0  0
  -31.0300  -22.1830   18.9370 O   0  0  0  0  0  0  0  0  0  0  0  0
  -30.3360  -22.4750   17.7280 C   0  0  0  0  0  2  0  0  0  0  0  0
  -28.9270  -22.8770   18.1690 C   0  0  0  0  0  2  0  0  0  0  0  0
  -29.0150  -24.1110   18.9780 N   0  0  0  0  0  4  0  0  0  0  0  0
  -29.9710  -24.1710   19.3000 H   0  0  0  0  0  0  0  0  0  0  0  0
  -28.8530  -24.9190   18.3930 H   0  0  0  0  0  0  0  0  0  0  0  0
  -28.1330  -24.1680   20.1660 C   0  0  0  0  0  2  0  0  0  0  0  0
  -28.4360  -25.4220   21.0020 C   0  0  0  0  0  2  0  0  0  0  0  0
  -28.4710  -26.5930   20.1850 O   0  0  0  0  0  0  0  0  0  0  0  0
  -24.7390  -31.7880   23.2730 C   0  0  0  0  0  0  0  0  0  0  0  0
  -27.3120  -27.3240   20.1970 C   0  0  0  0  0  0  0  0  0  0  0  0
  -23.5100  -30.3950   21.6390 C   0  0  0  0  0  3  0  0  0  0  0  0
  -24.9380  -28.8380   20.2180 C   0  0  0  0  0  0  0  0  0  0  0  0
  -26.0350  -30.7280   21.4310 C   0  0  0  0  0  2  0  0  0  0  0  0
  -26.1020  -29.3550   20.8010 C   0  0  0  0  0  0  0  0  0  0  0  0
  -27.2950  -28.6030   20.7880 C   0  0  0  0  0  3  0  0  0  0  0  0
  -26.1390  -26.8170   19.6030 C   0  0  0  0  0  3  0  0  0  0  0  0
  -24.9490  -27.5660   19.6190 C   0  0  0  0  0  3  0  0  0  0  0  0
  -23.7040  -29.7080   20.2620 C   0  0  0  0  0  2  0  0  0  0  0  0
  -24.7800  -30.9840   22.1740 N   0  0  0  0  0  0  0  0  0  0  0  0
  -23.6620  -32.0760   23.8120 O   0  0  0  0  0  0  0  0  0  0  0  0
  -22.8500  -29.3830   22.6030 C   0  0  0  0  0  0  0  0  0  0  0  0
  -21.5220  -29.2200   22.4790 N   0  0  0  0  0  0  0  0  0  0  0  0
  -23.5270  -28.7500   23.4170 O   0  0  0  0  0  0  0  0  0  0  0  0
  -21.0380  -29.7840   21.7940 H   0  0  0  0  0  0  0  0  0  0  0  0
  -18.1330  -28.0820   22.9890 C   0  0  0  0  0  0  0  0  0  0  0  0
  -20.6950  -28.2970   23.2540 C   0  0  0  0  0  3  0  0  0  0  0  0
  -20.7720  -26.8630   22.6800 C   0  0  0  0  0  2  0  0  0  0  0  0
  -19.6620  -26.5560   21.6700 C   0  0  0  0  0  2  0  0  0  0  0  0
  -18.2840  -26.7270   22.3170 C   0  0  0  0  0  2  0  0  0  0  0  0
  -19.2650  -28.8250   23.4140 C   0  0  0  0  0  0  0  0  0  0  0  0
  -19.0690  -30.0940   24.0000 C   0  0  0  0  0  3  0  0  0  0  0  0
  -17.7740  -30.6190   24.1640 C   0  0  0  0  0  3  0  0  0  0  0  0
  -16.6570  -29.8720   23.7560 C   0  0  0  0  0  3  0  0  0  0  0  0
  -16.8360  -28.6060   23.1740 C   0  0  0  0  0  3  0  0  0  0  0  0
  -26.0350  -32.4020   23.8890 C   0  0  0  0  0  3  0  0  0  0  0  0
  -25.7500  -33.8050   24.2130 N   0  0  0  0  0  0  0  0  0  0  0  0
  -26.0910  -34.8480   23.4430 C   0  0  0  0  0  0  0  0  0  0  0  0
  -26.7520  -34.7280   22.4070 O   0  0  0  0  0  0  0  0  0  0  0  0
  -25.1640  -33.9740   25.0190 H   0  0  0  0  0  0  0  0  0  0  0  0
  -24.3790  -36.6540   23.0860 C   0  0  0  0  0  1  0  0  0  0  0  0
  -25.6210  -36.2450   23.8930 C   0  0  0  0  0  3  0  0  0  0  0  0
  -27.7710  -37.1070   24.7030 C   0  0  0  0  0  1  0  0  0  0  0  0
  -26.6630  -37.2850   23.7670 N   0  0  0  0  0  0  0  0  0  0  0  0
  -26.2680  -38.2100   23.9150 H   0  0  0  0  0  0  0  0  0  0  0  0
  -26.5490  -31.6250   25.1620 C   0  0  1  0  0  0  0  0  0  0  0  0
  -25.4600  -31.4020   26.2370 C   0  0  0  0  0  1  0  0  0  0  0  0
  -27.1130  -30.2420   24.7660 C   0  0  0  0  0  1  0  0  0  0  0  0
  -27.7130  -32.4090   25.8150 C   0  0  0  0  0  1  0  0  0  0  0  0
  -33.0680  -21.7840   20.1230 C   0  0  0  0  0  2  0  0  0  0  0  0
  -32.4770  -22.4580   21.3850 C   0  0  0  0  0  2  0  0  0  0  0  0
  -32.3160  -21.4840   22.5690 C   0  0  0  0  0  2  0  0  0  0  0  0
  -31.0220  -20.6360   22.5510 C   0  0  0  0  0  2  0  0  0  0  0  0
  -30.8850  -19.8060   21.3320 N   0  0  0  0  0  4  0  0  0  0  0  0
  -31.7510  -19.3260   21.1510 H   0  0  0  0  0  0  0  0  0  0  0  0
  -30.7070  -20.4130   20.5460 H   0  0  0  0  0  0  0  0  0  0  0  0
  -29.8100  -18.7950   21.3830 C   0  0  0  0  0  2  0  0  0  0  0  0
  -30.3240  -17.4470   21.9190 C   0  0  0  0  0  2  0  0  0  0  0  0
  -31.1480  -16.6600   20.8800 C   0  0  0  0  0  2  0  0  0  0  0  0
  -31.6920  -15.3240   21.4220 C   0  0  0  0  0  2  0  0  0  0  0  0
  -31.1090  -13.4290   19.9090 C   0  0  0  0  0  0  0  0  0  0  0  0
  -30.4710  -11.3600   18.7310 C   0  0  0  0  0  2  0  0  0  0  0  0
  -29.4480  -11.6010   17.6040 C   0  0  0  0  0  2  0  0  0  0  0  0
  -28.0070  -11.6150   18.1510 C   0  0  0  0  0  2  0  0  0  0  0  0
  -27.8500  -12.5260   19.3950 C   0  0  0  0  0  3  0  0  0  0  0  0
  -28.9560  -12.2290   20.4330 C   0  0  0  0  0  2  0  0  0  0  0  0
  -30.2710  -12.3710   19.7780 N   0  0  0  0  0  0  0  0  0  0  0  0
  -32.0560  -13.6480   19.1460 O   0  0  0  0  0  0  0  0  0  0  0  0
  -30.8860  -14.1870   20.9900 N   0  0  0  0  0  0  0  0  0  0  0  0
  -30.1220  -13.9030   21.5850 H   0  0  0  0  0  0  0  0  0  0  0  0
  -25.5800  -13.3850   20.2620 C   0  0  0  0  0  0  0  0  0  0  0  0
  -24.4720  -12.7270   20.7310 C   0  0  0  0  0  0  0  0  0  0  0  0
  -24.7970  -11.3370   20.6990 C   0  0  0  0  0  0  0  0  0  0  0  0
  -26.5150  -12.3990   19.9800 N   0  0  0  0  0  0  0  0  0  0  0  0
  -26.0500  -11.1640   20.2980 N   0  0  0  0  0  0  0  0  0  0  0  0
  -23.9670  -10.1540   20.9750 C   0  0  0  0  0  0  0  0  0  0  0  0
  -24.3740   -9.1720   21.9050 C   0  0  0  0  0  3  0  0  0  0  0  0
  -23.5570   -8.0510   22.1650 C   0  0  0  0  0  3  0  0  0  0  0  0
  -22.3170   -7.9080   21.4990 C   0  0  0  0  0  0  0  0  0  0  0  0
  -21.9280   -8.8750   20.5540 C   0  0  0  0  0  3  0  0  0  0  0  0
  -22.7460   -9.9870   20.2920 C   0  0  0  0  0  3  0  0  0  0  0  0
  -21.4670   -6.8440   21.6730 O   0  0  0  0  0  0  0  0  0  0  0  0
  -21.4310   -6.1340   22.8470 C   0  0  0  0  0  0  0  0  0  0  0  0
  -21.1500   -6.7530   24.0840 C   0  0  0  0  0  3  0  0  0  0  0  0
  -21.0570   -5.9740   25.2560 C   0  0  0  0  0  3  0  0  0  0  0  0
  -21.2300   -4.5780   25.1910 C   0  0  0  0  0  0  0  0  0  0  0  0
  -21.5040   -3.9600   23.9590 C   0  0  0  0  0  3  0  0  0  0  0  0
  -21.6010   -4.7360   22.7900 C   0  0  0  0  0  0  0  0  0  0  0  0
  -21.8440   -4.1330   21.6020 F   0  0  0  0  0  0  0  0  0  0  0  0
  -21.1320   -3.8280   26.3130 F   0  0  0  0  0  0  0  0  0  0  0  0
  -23.1530  -13.3410   21.0970 C   0  0  0  0  0  0  0  0  0  0  0  0
  -22.4400  -12.7400   22.0450 N   0  0  0  0  0  0  0  0  0  0  0  0
  -22.7670  -14.3880   20.5760 O   0  0  0  0  0  0  0  0  0  0  0  0
  -22.7700  -11.8990   22.4910 H   0  0  0  0  0  0  0  0  0  0  0  0
  -21.5460  -13.1220   22.3210 H   0  0  0  0  0  0  0  0  0  0  0  0
  -25.8680  -14.7270   20.0360 N   0  0  0  0  0  0  0  0  0  0  0  0
  -25.1910  -15.4670   20.1910 H   0  0  0  0  0  0  0  0  0  0  0  0
  -26.7410  -15.0580   19.6430 H   0  0  0  0  0  0  0  0  0  0  0  0
  1  2  1  0
  1 51  1  0
  3  4  1  0
  3  2  1  0
  4  5  1  0
  5  6  1  0
  5  8  1  0
  7  5  1  0
  8  9  1  0
 10 12  1  0
 10  9  1  0
 11 22  2  0
 12 17  1  0
 13 21  1  0
 13 23  1  0
 14 20  1  0
 14 16  1  0
 15 21  1  0
 16 15  1  0
 17 16  2  0
 18 19  1  0
 18 12  2  0
 19 14  2  0
 20 13  1  0
 21 11  1  0
 23 25  2  0
 24 23  1  0
 26 24  1  0
 27 36  2  0
 27 32  1  0
 28 24  1  0
 28 32  1  0
 29 28  1  0
 30 31  1  0
 30 29  1  0
 31 27  1  0
 32 33  2  0
 33 34  1  0
 35 34  2  0
 36 35  1  0
 37 11  1  0
 37 38  1  0
 37 47  1  0
 38 41  1  0
 39 43  1  0
 39 38  1  0
 40 39  2  0
 43 42  1  0
 45 43  1  0
 45 46  1  0
 45 44  1  0
 47 50  1  1
 47 48  1  0
 49 47  1  0
 51 52  1  0
 52 53  1  0
 54 53  1  0
 55 58  1  0
 55 54  1  0
 56 55  1  0
 57 55  1  0
 58 59  1  0
 60 61  1  0
 60 59  1  0
 62 70  1  0
 63 68  1  0
 64 65  1  0
 64 63  1  0
 66 65  1  0
 66 75  1  0
 66 67  1  0
 68 62  1  0
 68 67  1  0
 69 62  2  0
 70 61  1  0
 70 71  1  0
 72 73  2  0
 73 92  1  0
 74 73  1  0
 74 77  1  0
 75 72  1  0
 75 76  1  0
 76 74  2  0
 77 78  1  0
 78 79  2  0
 80 83  1  0
 80 79  1  0
 81 80  2  0
 82 81  1  0
 82 77  2  0
 83 84  1  0
 84 85  1  0
 85 86  2  0
 87 86  1  0
 87 91  1  0
 88 87  2  0
 89 84  2  0
 89 88  1  0
 90 89  1  0
 92 93  1  0
 93 96  1  0
 93 95  1  0
 94 92  2  0
 97 98  1  0
 97 72  1  0
 99 97  1  0
M  ISO  4   9 101  10 101  62 100  70 100
M  END
>  <TORSDO>  (68) 
F 31

>  <SCORE>  (68) 
-8.975

>  <name>  (68) 
71

>  <ligand_id>  (68) 
71

>  <original_smiles>  (68) 
[H]c1c([H])c([H])c2c(c1[H])C([H])([H])C([H])([H])C([H])([H])C2([H])N([H])C(=O)C1([H])N(C(=O)C([H])(N([H])C(=O)C([H])(N([H])C([H])([H])[H])C([H])([H])[H])C(C([H])([H])[H])(C([H])([H])[H])C([H])([H])[H])C([H])([H])c2c([H])c(OC([H])([H])C([H])([H])[N+]([H])([H])C([H])([H])C([H])([H])OC([H])([H])C([H])([H])C([H])([H])C([H])([H])C([H])([H])[N+]([H])([H])C([H])([H])C([H])([H])C([H])([H])C([H])([H])N([H])C(=O)N3C([H])([H])C([H])([H])C([H])([H])C([H])(n4nc(-c5c([H])c([H])c(Oc6c([H])c([H])c(F)c([H])c6F)c([H])c5[H])c(C(=O)N([H])[H])c4N([H])[H])C3([H])[H])c([H])c([H])c2C1([H])[H]

>  <smiles>  (68) 
[H]c1c([H])c([H])c2c(c1[H])C([H])([H])C([H])([H])C([H])([H])C2([H])N([H])C(=O)C1([H])N(C(=O)C([H])(N([H])C(=O)C([H])(N([H])C([H])([H])[H])C([H])([H])[H])C(C([H])([H])[H])(C([H])([H])[H])C([H])([H])[H])C([H])([H])c2c([H])c(OC([H])([H])C([H])([H])[N+]([H])([H])C([H])([H])C([H])([H])OC([H])([H])C([H])([H])C([H])([H])C([H])([H])C([H])([H])[N+]([H])([H])C([H])([H])C([H])([H])C([H])([H])C([H])([H])N([H])C(=O)N3C([H])([H])C([H])([H])C([H])([H])C([H])(n4nc(-c5c([H])c([H])c(Oc6c([H])c([H])c(F)c([H])c6F)c([H])c5[H])c(C(=O)N([H])[H])c4N([H])[H])C3([H])[H])c([H])c([H])c2C1([H])[H]

$$$$
72:0:0
     RDKit          3D

 89 96  0  0  1  0  0  0  0  0999 V2000
  -29.5330  -22.7050   21.0900 O   0  0  0  0  0  0  0  0  0  0  0  0
  -29.7590  -24.0700   20.7620 C   0  0  0  0  0  2  0  0  0  0  0  0
  -28.8720  -24.9520   21.6500 C   0  0  0  0  0  2  0  0  0  0  0  0
  -29.0120  -26.4500   21.3460 C   0  0  0  0  0  2  0  0  0  0  0  0
  -28.3660  -26.7290   20.1060 O   0  0  0  0  0  0  0  0  0  0  0  0
  -24.5690  -31.8880   23.2560 C   0  0  0  0  0  0  0  0  0  0  0  0
  -27.2120  -27.4670   20.1760 C   0  0  0  0  0  0  0  0  0  0  0  0
  -23.3540  -30.4810   21.6220 C   0  0  0  0  0  3  0  0  0  0  0  0
  -24.8050  -28.9390   20.1970 C   0  0  0  0  0  0  0  0  0  0  0  0
  -25.8730  -30.8490   21.4090 C   0  0  0  0  0  2  0  0  0  0  0  0
  -25.9600  -29.4750   20.7830 C   0  0  0  0  0  0  0  0  0  0  0  0
  -27.1650  -28.7440   20.7780 C   0  0  0  0  0  3  0  0  0  0  0  0
  -26.0490  -26.9410   19.5800 C   0  0  0  0  0  3  0  0  0  0  0  0
  -24.8420  -27.6660   19.5980 C   0  0  0  0  0  3  0  0  0  0  0  0
  -23.5580  -29.7910   20.2450 C   0  0  0  0  0  2  0  0  0  0  0  0
  -24.6170  -31.0870   22.1550 N   0  0  0  0  0  0  0  0  0  0  0  0
  -23.4910  -32.1620   23.8020 O   0  0  0  0  0  0  0  0  0  0  0  0
  -22.7080  -29.4630   22.5880 C   0  0  0  0  0  0  0  0  0  0  0  0
  -21.3840  -29.2790   22.4630 N   0  0  0  0  0  0  0  0  0  0  0  0
  -23.3930  -28.8420   23.4050 O   0  0  0  0  0  0  0  0  0  0  0  0
  -20.8930  -29.8300   21.7740 H   0  0  0  0  0  0  0  0  0  0  0  0
  -18.0160  -28.0700   22.9530 C   0  0  0  0  0  0  0  0  0  0  0  0
  -20.5710  -28.3420   23.2370 C   0  0  0  0  0  3  0  0  0  0  0  0
  -20.6840  -26.9070   22.6730 C   0  0  0  0  0  2  0  0  0  0  0  0
  -19.5890  -26.5700   21.6560 C   0  0  0  0  0  2  0  0  0  0  0  0
  -18.2030  -26.7140   22.2910 C   0  0  0  0  0  2  0  0  0  0  0  0
  -19.1290  -28.8400   23.3830 C   0  0  0  0  0  0  0  0  0  0  0  0
  -18.9010  -30.1080   23.9610 C   0  0  0  0  0  3  0  0  0  0  0  0
  -17.5930  -30.6050   24.1130 C   0  0  0  0  0  3  0  0  0  0  0  0
  -16.4950  -29.8320   23.7000 C   0  0  0  0  0  3  0  0  0  0  0  0
  -16.7070  -28.5660   23.1260 C   0  0  0  0  0  3  0  0  0  0  0  0
  -25.8590  -32.5180   23.8680 C   0  0  0  0  0  3  0  0  0  0  0  0
  -25.5580  -33.9190   24.1890 N   0  0  0  0  0  0  0  0  0  0  0  0
  -25.9000  -34.9640   23.4220 C   0  0  0  0  0  0  0  0  0  0  0  0
  -26.5720  -34.8480   22.3920 O   0  0  0  0  0  0  0  0  0  0  0  0
  -24.9620  -34.0840   24.9860 H   0  0  0  0  0  0  0  0  0  0  0  0
  -24.1830  -36.7620   23.0430 C   0  0  0  0  0  1  0  0  0  0  0  0
  -25.4160  -36.3570   23.8650 C   0  0  0  0  0  3  0  0  0  0  0  0
  -27.5530  -37.2330   24.6990 C   0  0  0  0  0  1  0  0  0  0  0  0
  -26.4570  -37.4030   23.7500 N   0  0  0  0  0  0  0  0  0  0  0  0
  -26.0560  -38.3260   23.8920 H   0  0  0  0  0  0  0  0  0  0  0  0
  -26.3800  -31.7520   25.1460 C   0  0  1  0  0  0  0  0  0  0  0  0
  -25.2920  -31.5230   26.2210 C   0  0  0  0  0  1  0  0  0  0  0  0
  -26.9560  -30.3710   24.7530 C   0  0  0  0  0  1  0  0  0  0  0  0
  -27.5390  -32.5450   25.7970 C   0  0  0  0  0  1  0  0  0  0  0  0
  -30.5900  -21.8520   20.6640 C   0  0  0  0  0  2  0  0  0  0  0  0
  -30.1950  -20.3880   20.9100 C   0  0  0  0  0  2  0  0  0  0  0  0
  -28.8050  -18.7610   19.9070 C   0  0  0  0  0  3  0  0  0  0  0  0
  -29.2770  -19.9450   19.8770 N   0  0  0  0  0  0  0  0  0  0  0  0
  -29.0410  -17.6790   20.9590 C   0  0  0  0  0  2  0  0  0  0  0  0
  -30.3030  -16.8190   20.7180 C   0  0  0  0  0  2  0  0  0  0  0  0
  -30.7150  -14.4000   20.3400 C   0  0  0  0  0  0  0  0  0  0  0  0
  -30.3720  -12.2720   19.1610 C   0  0  0  0  0  2  0  0  0  0  0  0
  -29.4190  -12.5150   17.9720 C   0  0  0  0  0  2  0  0  0  0  0  0
  -27.9470  -12.4040   18.4160 C   0  0  0  0  0  2  0  0  0  0  0  0
  -27.6390  -13.2300   19.6920 C   0  0  0  0  0  3  0  0  0  0  0  0
  -28.6990  -12.9580   20.7860 C   0  0  0  0  0  2  0  0  0  0  0  0
  -30.0280  -13.2360   20.2140 N   0  0  0  0  0  0  0  0  0  0  0  0
  -31.8180  -14.6030   19.8230 O   0  0  0  0  0  0  0  0  0  0  0  0
  -30.0230  -15.3940   20.9110 N   0  0  0  0  0  0  0  0  0  0  0  0
  -29.1350  -15.1400   21.3160 H   0  0  0  0  0  0  0  0  0  0  0  0
  -25.2490  -13.8750   20.4060 C   0  0  0  0  0  0  0  0  0  0  0  0
  -24.1740  -13.1200   20.7900 C   0  0  0  0  0  0  0  0  0  0  0  0
  -24.6170  -11.7620   20.7700 C   0  0  0  0  0  0  0  0  0  0  0  0
  -26.2830  -12.9780   20.1790 N   0  0  0  0  0  0  0  0  0  0  0  0
  -25.9050  -11.7030   20.4540 N   0  0  0  0  0  0  0  0  0  0  0  0
  -23.8760  -10.5120   20.9800 C   0  0  0  0  0  0  0  0  0  0  0  0
  -24.3150   -9.5430   21.9080 C   0  0  0  0  0  3  0  0  0  0  0  0
  -23.5790   -8.3540   22.1040 C   0  0  0  0  0  3  0  0  0  0  0  0
  -22.3890   -8.1270   21.3710 C   0  0  0  0  0  0  0  0  0  0  0  0
  -21.9690   -9.0860   20.4320 C   0  0  0  0  0  3  0  0  0  0  0  0
  -22.7050  -10.2660   20.2350 C   0  0  0  0  0  3  0  0  0  0  0  0
  -21.6230   -6.9930   21.4780 O   0  0  0  0  0  0  0  0  0  0  0  0
  -21.5980   -6.2460   22.6280 C   0  0  0  0  0  0  0  0  0  0  0  0
  -21.2260   -6.8030   23.8710 C   0  0  0  0  0  3  0  0  0  0  0  0
  -21.1480   -5.9830   25.0140 C   0  0  0  0  0  3  0  0  0  0  0  0
  -21.4310   -4.6080   24.9170 C   0  0  0  0  0  0  0  0  0  0  0  0
  -21.7970   -4.0500   23.6780 C   0  0  0  0  0  3  0  0  0  0  0  0
  -21.8770   -4.8680   22.5380 C   0  0  0  0  0  0  0  0  0  0  0  0
  -22.2090   -4.3230   21.3420 F   0  0  0  0  0  0  0  0  0  0  0  0
  -21.3480   -3.8170   26.0120 F   0  0  0  0  0  0  0  0  0  0  0  0
  -22.7840  -13.6160   21.0660 C   0  0  0  0  0  0  0  0  0  0  0  0
  -22.0560  -12.9370   21.9450 N   0  0  0  0  0  0  0  0  0  0  0  0
  -22.3530  -14.6400   20.5400 O   0  0  0  0  0  0  0  0  0  0  0  0
  -22.4200  -12.1100   22.3970 H   0  0  0  0  0  0  0  0  0  0  0  0
  -21.1240  -13.2500   22.1710 H   0  0  0  0  0  0  0  0  0  0  0  0
  -25.4290  -15.2420   20.2110 N   0  0  0  0  0  0  0  0  0  0  0  0
  -24.6670  -15.9050   20.3050 H   0  0  0  0  0  0  0  0  0  0  0  0
  -26.2730  -15.6580   19.8400 H   0  0  0  0  0  0  0  0  0  0  0  0
  2  1  1  0
  2  3  1  0
  4  3  1  0
  5  7  1  0
  5  4  1  0
  6 17  2  0
  7 12  1  0
  8 16  1  0
  8 18  1  0
  9 15  1  0
  9 11  1  0
 10 16  1  0
 11 10  1  0
 12 11  2  0
 13 14  1  0
 13  7  2  0
 14  9  2  0
 15  8  1  0
 16  6  1  0
 18 20  2  0
 19 18  1  0
 21 19  1  0
 22 31  2  0
 22 27  1  0
 23 19  1  0
 23 27  1  0
 24 23  1  0
 25 26  1  0
 25 24  1  0
 26 22  1  0
 27 28  2  0
 28 29  1  0
 30 29  2  0
 31 30  1  0
 32  6  1  0
 32 33  1  0
 32 42  1  0
 33 36  1  0
 34 38  1  0
 34 33  1  0
 35 34  2  0
 38 37  1  0
 40 38  1  0
 40 41  1  0
 40 39  1  0
 42 45  1  1
 42 43  1  0
 44 42  1  0
 46 47  1  0
 46  1  1  0
 48 50  1  0
 49 48  2  0
 49 47  1  0
 51 60  1  0
 51 50  1  0
 52 60  1  0
 53 58  1  0
 54 55  1  0
 54 53  1  0
 56 55  1  0
 56 65  1  0
 56 57  1  0
 58 52  1  0
 58 57  1  0
 59 52  2  0
 60 61  1  0
 62 63  2  0
 63 82  1  0
 64 63  1  0
 64 67  1  0
 65 62  1  0
 65 66  1  0
 66 64  2  0
 67 68  1  0
 68 69  2  0
 70 73  1  0
 70 69  1  0
 71 70  2  0
 72 71  1  0
 72 67  2  0
 73 74  1  0
 74 75  1  0
 75 76  2  0
 77 76  1  0
 77 81  1  0
 78 77  2  0
 79 74  2  0
 79 78  1  0
 80 79  1  0
 82 83  1  0
 83 86  1  0
 83 85  1  0
 84 82  2  0
 87 88  1  0
 87 62  1  0
 89 87  1  0
M  ISO  4   4 101   5 101  52 100  60 100
M  END
>  <TORSDO>  (69) 
F 24

>  <SCORE>  (69) 
-12.365

>  <name>  (69) 
72

>  <ligand_id>  (69) 
72

>  <original_smiles>  (69) 
[H]C(=NC([H])([H])C([H])([H])OC([H])([H])C([H])([H])C([H])([H])Oc1c([H])c([H])c2c(c1[H])C([H])([H])N(C(=O)C([H])(N([H])C(=O)C([H])(N([H])C([H])([H])[H])C([H])([H])[H])C(C([H])([H])[H])(C([H])([H])[H])C([H])([H])[H])C([H])(C(=O)N([H])C1([H])c3c([H])c([H])c([H])c([H])c3C([H])([H])C([H])([H])C1([H])[H])C2([H])[H])C([H])([H])C([H])([H])N([H])C(=O)N1C([H])([H])C([H])([H])C([H])([H])C([H])(n2nc(-c3c([H])c([H])c(Oc4c([H])c([H])c(F)c([H])c4F)c([H])c3[H])c(C(=O)N([H])[H])c2N([H])[H])C1([H])[H]

>  <smiles>  (69) 
[H]C(=NC([H])([H])C([H])([H])OC([H])([H])C([H])([H])C([H])([H])Oc1c([H])c([H])c2c(c1[H])C([H])([H])N(C(=O)C([H])(N([H])C(=O)C([H])(N([H])C([H])([H])[H])C([H])([H])[H])C(C([H])([H])[H])(C([H])([H])[H])C([H])([H])[H])C([H])(C(=O)N([H])C1([H])c3c([H])c([H])c([H])c([H])c3C([H])([H])C([H])([H])C1([H])[H])C2([H])[H])C([H])([H])C([H])([H])N([H])C(=O)N1C([H])([H])C([H])([H])C([H])([H])C([H])(n2nc(-c3c([H])c([H])c(Oc4c([H])c([H])c(F)c([H])c4F)c([H])c3[H])c(C(=O)N([H])[H])c2N([H])[H])C1([H])[H]

$$$$
73:0:0
     RDKit          3D

 97104  0  0  1  0  0  0  0  0999 V2000
  -27.4230  -20.6260   17.8460 C   0  0  0  0  0  0  0  0  0  0  0  0
  -27.5830  -19.3030   17.7620 N   0  0  0  0  0  0  0  0  0  0  0  0
  -27.8970  -21.4090   17.0240 O   0  0  0  0  0  0  0  0  0  0  0  0
  -27.0450  -18.7410   18.4130 H   0  0  0  0  0  0  0  0  0  0  0  0
  -28.6630  -18.6010   17.0730 C   0  0  0  0  0  2  0  0  0  0  0  0
  -30.0400  -18.8990   17.7200 C   0  0  0  0  0  2  0  0  0  0  0  0
  -30.9240  -17.7140   17.7000 N   0  0  0  0  0  4  0  0  0  0  0  0
  -31.8740  -17.9710   17.9260 H   0  0  0  0  0  0  0  0  0  0  0  0
  -30.9480  -17.3790   16.7490 H   0  0  0  0  0  0  0  0  0  0  0  0
  -30.5110  -16.6020   18.5960 C   0  0  0  0  0  2  0  0  0  0  0  0
  -30.3740  -16.9530   20.1190 C   0  0  0  0  0  2  0  0  0  0  0  0
  -30.8020  -14.6670   20.9120 C   0  0  0  0  0  0  0  0  0  0  0  0
  -30.5680  -12.4750   19.8680 C   0  0  0  0  0  2  0  0  0  0  0  0
  -29.7470  -12.6640   18.5770 C   0  0  0  0  0  2  0  0  0  0  0  0
  -28.2390  -12.5360   18.8620 C   0  0  0  0  0  2  0  0  0  0  0  0
  -27.7870  -13.3810   20.0850 C   0  0  0  0  0  3  0  0  0  0  0  0
  -28.7470  -13.2300   21.2860 C   0  0  0  0  0  2  0  0  0  0  0  0
  -30.1180  -13.4970   20.8210 N   0  0  0  0  0  0  0  0  0  0  0  0
  -31.9920  -14.7830   20.6230 O   0  0  0  0  0  0  0  0  0  0  0  0
  -30.0360  -15.7650   20.9210 N   0  0  0  0  0  0  0  0  0  0  0  0
  -29.1020  -15.6990   21.2980 H   0  0  0  0  0  0  0  0  0  0  0  0
  -25.3350  -13.9560   20.5930 C   0  0  0  0  0  0  0  0  0  0  0  0
  -24.2540  -13.1730   20.9120 C   0  0  0  0  0  0  0  0  0  0  0  0
  -24.7390  -11.8310   20.9430 C   0  0  0  0  0  0  0  0  0  0  0  0
  -26.4070  -13.0890   20.4620 N   0  0  0  0  0  0  0  0  0  0  0  0
  -26.0480  -11.8060   20.7220 N   0  0  0  0  0  0  0  0  0  0  0  0
  -24.0210  -10.5620   21.1150 C   0  0  0  0  0  0  0  0  0  0  0  0
  -24.4220   -9.6110   22.0780 C   0  0  0  0  0  3  0  0  0  0  0  0
  -23.7060   -8.4040   22.2330 C   0  0  0  0  0  3  0  0  0  0  0  0
  -22.5720   -8.1430   21.4300 C   0  0  0  0  0  0  0  0  0  0  0  0
  -22.1920   -9.0800   20.4560 C   0  0  0  0  0  3  0  0  0  0  0  0
  -22.9080  -10.2790   20.2990 C   0  0  0  0  0  3  0  0  0  0  0  0
  -21.8340   -6.9870   21.4920 O   0  0  0  0  0  0  0  0  0  0  0  0
  -21.7570   -6.2420   22.6410 C   0  0  0  0  0  0  0  0  0  0  0  0
  -21.3020   -6.7950   23.8570 C   0  0  0  0  0  3  0  0  0  0  0  0
  -21.1730   -5.9770   24.9980 C   0  0  0  0  0  3  0  0  0  0  0  0
  -21.4870   -4.6070   24.9220 C   0  0  0  0  0  0  0  0  0  0  0  0
  -21.9320   -4.0530   23.7100 C   0  0  0  0  0  3  0  0  0  0  0  0
  -22.0630   -4.8680   22.5720 C   0  0  0  0  0  0  0  0  0  0  0  0
  -22.4760   -4.3270   21.4010 F   0  0  0  0  0  0  0  0  0  0  0  0
  -21.3530   -3.8210   26.0160 F   0  0  0  0  0  0  0  0  0  0  0  0
  -22.8380  -13.6350   21.0790 C   0  0  0  0  0  0  0  0  0  0  0  0
  -22.0650  -12.9430   21.9160 N   0  0  0  0  0  0  0  0  0  0  0  0
  -22.4220  -14.6390   20.5070 O   0  0  0  0  0  0  0  0  0  0  0  0
  -22.4220  -12.1320   22.4000 H   0  0  0  0  0  0  0  0  0  0  0  0
  -21.1080  -13.2270   22.0690 H   0  0  0  0  0  0  0  0  0  0  0  0
  -25.4970  -15.3190   20.3870 N   0  0  0  0  0  0  0  0  0  0  0  0
  -24.7160  -15.9670   20.3830 H   0  0  0  0  0  0  0  0  0  0  0  0
  -26.3630  -15.7360   20.0700 H   0  0  0  0  0  0  0  0  0  0  0  0
  -26.7360  -21.1330   19.1180 C   0  0  0  0  0  2  0  0  0  0  0  0
  -27.1220  -22.5730   19.5380 C   0  0  0  0  0  2  0  0  0  0  0  0
  -28.5920  -22.8270   19.6500 N   0  0  0  0  0  4  0  0  0  0  0  0
  -28.9690  -22.7570   18.7140 H   0  0  0  0  0  0  0  0  0  0  0  0
  -29.0110  -22.0910   20.1950 H   0  0  0  0  0  0  0  0  0  0  0  0
  -29.0220  -24.1350   20.2420 C   0  0  0  0  0  2  0  0  0  0  0  0
  -28.0760  -25.2840   19.8430 C   0  0  0  0  0  2  0  0  0  0  0  0
  -28.3020  -26.6460   20.2470 O   0  0  0  0  0  0  0  0  0  0  0  0
  -24.5650  -31.9320   23.2600 C   0  0  0  0  0  0  0  0  0  0  0  0
  -27.1570  -27.4380   20.1950 C   0  0  0  0  0  0  0  0  0  0  0  0
  -23.3430  -30.5330   21.6320 C   0  0  0  0  0  3  0  0  0  0  0  0
  -24.7780  -28.9910   20.2020 C   0  0  0  0  0  0  0  0  0  0  0  0
  -25.8710  -30.8670   21.4220 C   0  0  0  0  0  2  0  0  0  0  0  0
  -25.9420  -29.4890   20.7980 C   0  0  0  0  0  0  0  0  0  0  0  0
  -27.1340  -28.7180   20.8000 C   0  0  0  0  0  3  0  0  0  0  0  0
  -25.9680  -26.9910   19.5590 C   0  0  0  0  0  3  0  0  0  0  0  0
  -24.7890  -27.7430   19.5710 C   0  0  0  0  0  3  0  0  0  0  0  0
  -23.5350  -29.8480   20.2540 C   0  0  0  0  0  2  0  0  0  0  0  0
  -24.6130  -31.1230   22.1650 N   0  0  0  0  0  0  0  0  0  0  0  0
  -23.4870  -32.2200   23.7970 O   0  0  0  0  0  0  0  0  0  0  0  0
  -22.6830  -29.5190   22.5970 C   0  0  0  0  0  0  0  0  0  0  0  0
  -21.3570  -29.3470   22.4700 N   0  0  0  0  0  0  0  0  0  0  0  0
  -23.3610  -28.8930   23.4180 O   0  0  0  0  0  0  0  0  0  0  0  0
  -20.8740  -29.9040   21.7780 H   0  0  0  0  0  0  0  0  0  0  0  0
  -17.9740  -28.1800   22.9690 C   0  0  0  0  0  0  0  0  0  0  0  0
  -20.5320  -28.4220   23.2460 C   0  0  0  0  0  3  0  0  0  0  0  0
  -20.6250  -26.9860   22.6830 C   0  0  0  0  0  2  0  0  0  0  0  0
  -19.5210  -26.6610   21.6680 C   0  0  0  0  0  2  0  0  0  0  0  0
  -18.1400  -26.8220   22.3080 C   0  0  0  0  0  2  0  0  0  0  0  0
  -19.0970  -28.9360   23.3960 C   0  0  0  0  0  0  0  0  0  0  0  0
  -18.8850  -30.2060   23.9740 C   0  0  0  0  0  3  0  0  0  0  0  0
  -17.5840  -30.7200   24.1300 C   0  0  0  0  0  3  0  0  0  0  0  0
  -16.4770  -29.9610   23.7190 C   0  0  0  0  0  3  0  0  0  0  0  0
  -16.6720  -28.6920   23.1470 C   0  0  0  0  0  3  0  0  0  0  0  0
  -25.8570  -32.5520   23.8740 C   0  0  0  0  0  3  0  0  0  0  0  0
  -26.3710  -31.7750   25.1490 C   0  0  1  0  0  0  0  0  0  0  0  0
  -25.2770  -31.5460   26.2180 C   0  0  0  0  0  1  0  0  0  0  0  0
  -26.9390  -30.3930   24.7500 C   0  0  0  0  0  1  0  0  0  0  0  0
  -27.5340  -32.5570   25.8010 C   0  0  0  0  0  1  0  0  0  0  0  0
  -25.5630  -33.9530   24.2020 N   0  0  0  0  0  0  0  0  0  0  0  0
  -25.8970  -35.0000   23.4320 C   0  0  0  0  0  0  0  0  0  0  0  0
  -26.5640  -34.8830   22.4000 O   0  0  0  0  0  0  0  0  0  0  0  0
  -24.9800  -34.1180   25.0090 H   0  0  0  0  0  0  0  0  0  0  0  0
  -24.1830  -36.7990   23.0580 C   0  0  0  0  0  1  0  0  0  0  0  0
  -25.4170  -36.3920   23.8800 C   0  0  0  0  0  3  0  0  0  0  0  0
  -27.5590  -37.2600   24.7070 C   0  0  0  0  0  1  0  0  0  0  0  0
  -26.4580  -37.4370   23.7630 N   0  0  0  0  0  0  0  0  0  0  0  0
  -26.0600  -38.3610   23.9070 H   0  0  0  0  0  0  0  0  0  0  0  0
  1 50  1  0
  2  1  1  0
  2  4  1  0
  3  1  2  0
  5  6  1  0
  5  2  1  0
  7  6  1  0
  7  8  1  0
  7 10  1  0
  9  7  1  0
 10 11  1  0
 11 20  1  0
 12 20  1  0
 13 18  1  0
 14 15  1  0
 14 13  1  0
 16 15  1  0
 16 25  1  0
 16 17  1  0
 18 12  1  0
 18 17  1  0
 19 12  2  0
 20 21  1  0
 22 23  2  0
 23 24  1  0
 23 42  1  0
 24 27  1  0
 25 22  1  0
 25 26  1  0
 26 24  2  0
 27 28  1  0
 28 29  2  0
 30 33  1  0
 30 29  1  0
 31 30  2  0
 32 31  1  0
 32 27  2  0
 33 34  1  0
 34 35  1  0
 35 36  2  0
 37 36  1  0
 37 41  1  0
 38 37  2  0
 39 34  2  0
 39 38  1  0
 40 39  1  0
 42 43  1  0
 43 46  1  0
 43 45  1  0
 44 42  2  0
 47 22  1  0
 48 47  1  0
 49 47  1  0
 50 51  1  0
 51 52  1  0
 52 54  1  0
 52 55  1  0
 53 52  1  0
 56 55  1  0
 56 57  1  0
 58 69  2  0
 59 57  1  0
 59 64  1  0
 60 68  1  0
 60 70  1  0
 61 67  1  0
 61 63  1  0
 62 68  1  0
 63 64  2  0
 63 62  1  0
 65 66  1  0
 65 59  2  0
 66 61  2  0
 67 60  1  0
 68 58  1  0
 70 72  2  0
 71 70  1  0
 73 71  1  0
 74 83  2  0
 74 79  1  0
 75 71  1  0
 75 79  1  0
 76 75  1  0
 77 78  1  0
 77 76  1  0
 78 74  1  0
 79 80  2  0
 80 81  1  0
 82 81  2  0
 83 82  1  0
 84 58  1  0
 84 89  1  0
 84 85  1  0
 85 88  1  1
 85 86  1  0
 87 85  1  0
 89 92  1  0
 90 94  1  0
 90 89  1  0
 91 90  2  0
 94 93  1  0
 96 94  1  0
 96 97  1  0
 96 95  1  0
M  ISO  4  12 100  20 100  56 101  57 101
M  END
>  <TORSDO>  (70) 
F 26

>  <SCORE>  (70) 
-11.806

>  <name>  (70) 
73

>  <ligand_id>  (70) 
73

>  <original_smiles>  (70) 
[H]c1c([H])c([H])c2c(c1[H])C([H])([H])C([H])([H])C([H])([H])C2([H])N([H])C(=O)C1([H])N(C(=O)C([H])(N([H])C(=O)C([H])(N([H])C([H])([H])[H])C([H])([H])[H])C(C([H])([H])[H])(C([H])([H])[H])C([H])([H])[H])C([H])([H])c2c([H])c(OC([H])([H])C([H])([H])[N+]([H])([H])C([H])([H])C([H])([H])C(=O)N([H])C([H])([H])C([H])([H])[N+]([H])([H])C([H])([H])C([H])([H])N([H])C(=O)N3C([H])([H])C([H])([H])C([H])([H])C([H])(n4nc(-c5c([H])c([H])c(Oc6c([H])c([H])c(F)c([H])c6F)c([H])c5[H])c(C(=O)N([H])[H])c4N([H])[H])C3([H])[H])c([H])c([H])c2C1([H])[H]

>  <smiles>  (70) 
[H]c1c([H])c([H])c2c(c1[H])C([H])([H])C([H])([H])C([H])([H])C2([H])N([H])C(=O)C1([H])N(C(=O)C([H])(N([H])C(=O)C([H])(N([H])C([H])([H])[H])C([H])([H])[H])C(C([H])([H])[H])(C([H])([H])[H])C([H])([H])[H])C([H])([H])c2c([H])c(OC([H])([H])C([H])([H])[N+]([H])([H])C([H])([H])C([H])([H])C(=O)N([H])C([H])([H])C([H])([H])[N+]([H])([H])C([H])([H])C([H])([H])N([H])C(=O)N3C([H])([H])C([H])([H])C([H])([H])C([H])(n4nc(-c5c([H])c([H])c(Oc6c([H])c([H])c(F)c([H])c6F)c([H])c5[H])c(C(=O)N([H])[H])c4N([H])[H])C3([H])[H])c([H])c([H])c2C1([H])[H]

$$$$
74:0:0
     RDKit          3D

 97104  0  0  1  0  0  0  0  0999 V2000
  -30.8120  -23.0460   17.3690 N   0  0  0  0  0  4  0  0  0  0  0  0
  -31.3830  -23.6800   16.8310 H   0  0  0  0  0  0  0  0  0  0  0  0
  -31.2730  -22.9310   18.2570 H   0  0  0  0  0  0  0  0  0  0  0  0
  -30.6940  -21.7360   16.6930 C   0  0  0  0  0  2  0  0  0  0  0  0
  -31.9760  -20.8950   16.8570 C   0  0  0  0  0  2  0  0  0  0  0  0
  -31.7110  -19.3990   17.1210 C   0  0  0  0  0  2  0  0  0  0  0  0
  -31.3320  -19.1050   18.5260 N   0  0  0  0  0  4  0  0  0  0  0  0
  -31.7180  -18.1940   18.7100 H   0  0  0  0  0  0  0  0  0  0  0  0
  -31.7820  -19.7330   19.1720 H   0  0  0  0  0  0  0  0  0  0  0  0
  -29.8810  -18.9870   18.8200 C   0  0  0  0  0  2  0  0  0  0  0  0
  -29.6080  -17.9940   19.9740 C   0  0  0  0  0  2  0  0  0  0  0  0
  -30.3600  -16.6740   19.7390 C   0  0  0  0  0  2  0  0  0  0  0  0
  -30.7060  -14.4260   20.5100 C   0  0  0  0  0  0  0  0  0  0  0  0
  -30.3600  -12.2900   19.3920 C   0  0  0  0  0  2  0  0  0  0  0  0
  -29.4300  -12.5230   18.1850 C   0  0  0  0  0  2  0  0  0  0  0  0
  -27.9590  -12.3810   18.6180 C   0  0  0  0  0  2  0  0  0  0  0  0
  -27.6230  -13.2430   19.8650 C   0  0  0  0  0  3  0  0  0  0  0  0
  -28.6660  -13.0270   20.9840 C   0  0  0  0  0  2  0  0  0  0  0  0
  -30.0010  -13.2750   20.4200 N   0  0  0  0  0  0  0  0  0  0  0  0
  -31.8930  -14.5150   20.1830 O   0  0  0  0  0  0  0  0  0  0  0  0
  -29.9590  -15.5360   20.5680 N   0  0  0  0  0  0  0  0  0  0  0  0
  -28.9840  -15.4280   20.8020 H   0  0  0  0  0  0  0  0  0  0  0  0
  -25.2180  -13.8740   20.5320 C   0  0  0  0  0  0  0  0  0  0  0  0
  -24.1420  -13.1100   20.8920 C   0  0  0  0  0  0  0  0  0  0  0  0
  -24.5980  -11.7570   20.8840 C   0  0  0  0  0  0  0  0  0  0  0  0
  -26.2640  -12.9850   20.3330 N   0  0  0  0  0  0  0  0  0  0  0  0
  -25.8920  -11.7080   20.6010 N   0  0  0  0  0  0  0  0  0  0  0  0
  -23.8650  -10.5000   21.0750 C   0  0  0  0  0  0  0  0  0  0  0  0
  -24.2970   -9.5320   22.0090 C   0  0  0  0  0  3  0  0  0  0  0  0
  -23.5690   -8.3350   22.1860 C   0  0  0  0  0  3  0  0  0  0  0  0
  -22.3960   -8.1010   21.4300 C   0  0  0  0  0  0  0  0  0  0  0  0
  -21.9860   -9.0570   20.4850 C   0  0  0  0  0  3  0  0  0  0  0  0
  -22.7120  -10.2460   20.3070 C   0  0  0  0  0  3  0  0  0  0  0  0
  -21.6350   -6.9610   21.5170 O   0  0  0  0  0  0  0  0  0  0  0  0
  -21.6020   -6.2050   22.6600 C   0  0  0  0  0  0  0  0  0  0  0  0
  -21.2140   -6.7520   23.9030 C   0  0  0  0  0  3  0  0  0  0  0  0
  -21.1260   -5.9240   25.0390 C   0  0  0  0  0  3  0  0  0  0  0  0
  -21.4160   -4.5510   24.9360 C   0  0  0  0  0  0  0  0  0  0  0  0
  -21.7980   -4.0030   23.6980 C   0  0  0  0  0  3  0  0  0  0  0  0
  -21.8890   -4.8270   22.5640 C   0  0  0  0  0  0  0  0  0  0  0  0
  -22.2360   -4.2910   21.3690 F   0  0  0  0  0  0  0  0  0  0  0  0
  -21.3240   -3.7560   26.0270 F   0  0  0  0  0  0  0  0  0  0  0  0
  -22.7430  -13.5940   21.1390 C   0  0  0  0  0  0  0  0  0  0  0  0
  -21.9980  -12.9110   21.9990 N   0  0  0  0  0  0  0  0  0  0  0  0
  -22.3180  -14.6160   20.6020 O   0  0  0  0  0  0  0  0  0  0  0  0
  -22.3490  -12.0800   22.4530 H   0  0  0  0  0  0  0  0  0  0  0  0
  -21.0570  -13.2200   22.2000 H   0  0  0  0  0  0  0  0  0  0  0  0
  -25.3910  -15.2420   20.3400 N   0  0  0  0  0  0  0  0  0  0  0  0
  -24.6170  -15.8900   20.4250 H   0  0  0  0  0  0  0  0  0  0  0  0
  -26.2400  -15.6850   20.0110 H   0  0  0  0  0  0  0  0  0  0  0  0
  -29.5330  -23.7060   17.6840 C   0  0  0  0  0  2  0  0  0  0  0  0
  -29.5660  -24.1990   19.1370 C   0  0  0  0  0  2  0  0  0  0  0  0
  -30.5710  -25.2540   19.2970 N   0  0  0  0  0  0  0  0  0  0  0  0
  -30.4130  -25.9870   18.6080 H   0  0  0  0  0  0  0  0  0  0  0  0
  -30.4850  -25.8820   20.6190 C   0  0  0  0  0  2  0  0  0  0  0  0
  -29.5520  -27.1070   20.6060 C   0  0  0  0  0  2  0  0  0  0  0  0
  -28.3130  -26.6470   20.1010 O   0  0  0  0  0  0  0  0  0  0  0  0
  -24.5740  -31.8420   23.2430 C   0  0  0  0  0  0  0  0  0  0  0  0
  -27.1980  -27.4360   20.1690 C   0  0  0  0  0  0  0  0  0  0  0  0
  -23.3520  -30.4440   21.6020 C   0  0  0  0  0  3  0  0  0  0  0  0
  -24.7970  -28.9040   20.1800 C   0  0  0  0  0  0  0  0  0  0  0  0
  -25.8700  -30.8130   21.3910 C   0  0  0  0  0  2  0  0  0  0  0  0
  -25.9520  -29.4430   20.7620 C   0  0  0  0  0  0  0  0  0  0  0  0
  -27.1580  -28.7170   20.7600 C   0  0  0  0  0  3  0  0  0  0  0  0
  -26.0280  -26.8970   19.5980 C   0  0  0  0  0  3  0  0  0  0  0  0
  -24.8250  -27.6270   19.5970 C   0  0  0  0  0  3  0  0  0  0  0  0
  -23.5520  -29.7590   20.2250 C   0  0  0  0  0  2  0  0  0  0  0  0
  -24.6160  -31.0450   22.1390 N   0  0  0  0  0  0  0  0  0  0  0  0
  -23.4950  -32.1190   23.7870 O   0  0  0  0  0  0  0  0  0  0  0  0
  -22.7030  -29.4260   22.5650 C   0  0  0  0  0  0  0  0  0  0  0  0
  -21.3780  -29.2490   22.4370 N   0  0  0  0  0  0  0  0  0  0  0  0
  -23.3860  -28.7940   23.3760 O   0  0  0  0  0  0  0  0  0  0  0  0
  -20.8890  -29.8100   21.7540 H   0  0  0  0  0  0  0  0  0  0  0  0
  -17.9960  -28.0860   22.9300 C   0  0  0  0  0  0  0  0  0  0  0  0
  -20.5540  -28.3190   23.2090 C   0  0  0  0  0  3  0  0  0  0  0  0
  -20.6470  -26.8870   22.6320 C   0  0  0  0  0  2  0  0  0  0  0  0
  -19.5450  -26.5730   21.6170 C   0  0  0  0  0  2  0  0  0  0  0  0
  -18.1620  -26.7330   22.2580 C   0  0  0  0  0  2  0  0  0  0  0  0
  -19.1210  -28.8380   23.3600 C   0  0  0  0  0  0  0  0  0  0  0  0
  -18.9140  -30.1060   23.9440 C   0  0  0  0  0  3  0  0  0  0  0  0
  -17.6150  -30.6230   24.1050 C   0  0  0  0  0  3  0  0  0  0  0  0
  -16.5030  -29.8670   23.6930 C   0  0  0  0  0  3  0  0  0  0  0  0
  -16.6960  -28.6010   23.1120 C   0  0  0  0  0  3  0  0  0  0  0  0
  -25.8680  -32.4630   23.8580 C   0  0  0  0  0  3  0  0  0  0  0  0
  -25.5730  -33.8620   24.1880 N   0  0  0  0  0  0  0  0  0  0  0  0
  -25.9150  -34.9100   23.4260 C   0  0  0  0  0  0  0  0  0  0  0  0
  -26.5860  -34.8000   22.3960 O   0  0  0  0  0  0  0  0  0  0  0  0
  -24.9810  -34.0230   24.9890 H   0  0  0  0  0  0  0  0  0  0  0  0
  -24.2000  -36.7120   23.0600 C   0  0  0  0  0  1  0  0  0  0  0  0
  -25.4340  -36.3010   23.8790 C   0  0  0  0  0  3  0  0  0  0  0  0
  -27.5740  -37.1660   24.7160 C   0  0  0  0  0  1  0  0  0  0  0  0
  -26.4750  -37.3480   23.7720 N   0  0  0  0  0  0  0  0  0  0  0  0
  -26.0740  -38.2690   23.9290 H   0  0  0  0  0  0  0  0  0  0  0  0
  -26.3880  -31.6840   25.1270 C   0  0  1  0  0  0  0  0  0  0  0  0
  -25.2990  -31.4470   26.1990 C   0  0  0  0  0  1  0  0  0  0  0  0
  -26.9640  -30.3060   24.7230 C   0  0  0  0  0  1  0  0  0  0  0  0
  -27.5440  -32.4700   25.7910 C   0  0  0  0  0  1  0  0  0  0  0  0
  1 51  1  0
  1  3  1  0
  2  1  1  0
  4  5  1  0
  4  1  1  0
  5  6  1  0
  6  7  1  0
  7  8  1  0
  7 10  1  0
  7  9  1  0
 10 11  1  0
 12 11  1  0
 12 21  1  0
 13 21  1  0
 14 19  1  0
 15 16  1  0
 15 14  1  0
 17 16  1  0
 17 26  1  0
 17 18  1  0
 19 13  1  0
 19 18  1  0
 20 13  2  0
 21 22  1  0
 23 24  2  0
 24 43  1  0
 25 24  1  0
 25 28  1  0
 26 23  1  0
 26 27  1  0
 27 25  2  0
 28 29  1  0
 29 30  2  0
 31 34  1  0
 31 30  1  0
 32 31  2  0
 33 32  1  0
 33 28  2  0
 34 35  1  0
 35 36  1  0
 36 37  2  0
 38 37  1  0
 38 42  1  0
 39 38  2  0
 40 35  2  0
 40 39  1  0
 41 40  1  0
 43 44  1  0
 44 47  1  0
 44 46  1  0
 45 43  2  0
 48 49  1  0
 48 23  1  0
 50 48  1  0
 51 52  1  0
 52 53  1  0
 53 55  1  0
 54 53  1  0
 56 55  1  0
 57 59  1  0
 57 56  1  0
 58 69  2  0
 59 64  1  0
 60 68  1  0
 60 70  1  0
 61 67  1  0
 61 63  1  0
 62 68  1  0
 63 62  1  0
 64 63  2  0
 65 59  2  0
 66 65  1  0
 66 61  2  0
 67 60  1  0
 68 58  1  0
 70 72  2  0
 71 70  1  0
 73 71  1  0
 74 83  2  0
 74 79  1  0
 75 71  1  0
 75 79  1  0
 76 75  1  0
 77 78  1  0
 77 76  1  0
 78 74  1  0
 79 80  2  0
 80 81  1  0
 82 81  2  0
 83 82  1  0
 84 58  1  0
 84 85  1  0
 84 94  1  0
 85 88  1  0
 86 90  1  0
 86 85  1  0
 87 86  2  0
 90 89  1  0
 92 90  1  0
 92 93  1  0
 92 91  1  0
 94 97  1  1
 94 95  1  0
 96 94  1  0
M  ISO  4  13 100  21 100  56 101  57 101
M  END
>  <TORSDO>  (71) 
F 28

>  <SCORE>  (71) 
-11.156

>  <name>  (71) 
74

>  <ligand_id>  (71) 
74

>  <original_smiles>  (71) 
[H]c1c([H])c([H])c2c(c1[H])C([H])([H])C([H])([H])C([H])([H])C2([H])N([H])C(=O)C1([H])N(C(=O)C([H])(N([H])C(=O)C([H])(N([H])C([H])([H])[H])C([H])([H])[H])C(C([H])([H])[H])(C([H])([H])[H])C([H])([H])[H])C([H])([H])c2c([H])c(OC([H])([H])C([H])([H])N([H])C([H])([H])C([H])([H])[N+]([H])([H])C([H])([H])C([H])([H])C([H])([H])[N+]([H])([H])C([H])([H])C([H])([H])C([H])([H])N([H])C(=O)N3C([H])([H])C([H])([H])C([H])([H])C([H])(n4nc(-c5c([H])c([H])c(Oc6c([H])c([H])c(F)c([H])c6F)c([H])c5[H])c(C(=O)N([H])[H])c4N([H])[H])C3([H])[H])c([H])c([H])c2C1([H])[H]

>  <smiles>  (71) 
[H]c1c([H])c([H])c2c(c1[H])C([H])([H])C([H])([H])C([H])([H])C2([H])N([H])C(=O)C1([H])N(C(=O)C([H])(N([H])C(=O)C([H])(N([H])C([H])([H])[H])C([H])([H])[H])C(C([H])([H])[H])(C([H])([H])[H])C([H])([H])[H])C([H])([H])c2c([H])c(OC([H])([H])C([H])([H])N([H])C([H])([H])C([H])([H])[N+]([H])([H])C([H])([H])C([H])([H])C([H])([H])[N+]([H])([H])C([H])([H])C([H])([H])C([H])([H])N([H])C(=O)N3C([H])([H])C([H])([H])C([H])([H])C([H])(n4nc(-c5c([H])c([H])c(Oc6c([H])c([H])c(F)c([H])c6F)c([H])c5[H])c(C(=O)N([H])[H])c4N([H])[H])C3([H])[H])c([H])c([H])c2C1([H])[H]

$$$$
75:0:0
     RDKit          3D

 94101  0  0  1  0  0  0  0  0999 V2000
  -29.9080  -20.8770   23.5560 N   0  0  0  0  0  4  0  0  0  0  0  0
  -29.9660  -21.4420   24.3910 H   0  0  0  0  0  0  0  0  0  0  0  0
  -29.0310  -20.3790   23.6070 H   0  0  0  0  0  0  0  0  0  0  0  0
  -30.9690  -19.8520   23.6020 C   0  0  0  0  0  2  0  0  0  0  0  0
  -30.4530  -18.5960   24.3100 C   0  0  0  0  0  0  0  0  0  0  0  0
  -30.3240  -17.4430   23.6440 N   0  0  0  0  0  0  0  0  0  0  0  0
  -30.1550  -18.6670   25.5010 O   0  0  0  0  0  0  0  0  0  0  0  0
  -30.0200  -16.6460   24.1890 H   0  0  0  0  0  0  0  0  0  0  0  0
  -30.4370  -17.2180   22.2040 C   0  0  0  0  0  2  0  0  0  0  0  0
  -31.7950  -16.5970   21.7970 C   0  0  0  0  0  2  0  0  0  0  0  0
  -31.9960  -14.4810   20.4630 C   0  0  0  0  0  0  0  0  0  0  0  0
  -31.4720  -12.4840   19.1060 C   0  0  0  0  0  2  0  0  0  0  0  0
  -30.5860  -12.8600   17.9040 C   0  0  0  0  0  2  0  0  0  0  0  0
  -29.0980  -12.8620   18.2980 C   0  0  0  0  0  2  0  0  0  0  0  0
  -28.8290  -13.6920   19.5810 C   0  0  0  0  0  3  0  0  0  0  0  0
  -29.8060  -13.2670   20.6980 C   0  0  0  0  0  2  0  0  0  0  0  0
  -31.1920  -13.4190   20.2010 N   0  0  0  0  0  0  0  0  0  0  0  0
  -33.0070  -14.7690   19.8140 O   0  0  0  0  0  0  0  0  0  0  0  0
  -31.5870  -15.1860   21.5220 N   0  0  0  0  0  0  0  0  0  0  0  0
  -30.8500  -14.7460   22.0540 H   0  0  0  0  0  0  0  0  0  0  0  0
  -26.4940  -14.5730   20.2270 C   0  0  0  0  0  0  0  0  0  0  0  0
  -25.3370  -13.9280   20.5750 C   0  0  0  0  0  0  0  0  0  0  0  0
  -25.6440  -12.5340   20.5500 C   0  0  0  0  0  0  0  0  0  0  0  0
  -27.4380  -13.5790   20.0180 N   0  0  0  0  0  0  0  0  0  0  0  0
  -26.9260  -12.3470   20.2640 N   0  0  0  0  0  0  0  0  0  0  0  0
  -24.7760  -11.3620   20.7260 C   0  0  0  0  0  0  0  0  0  0  0  0
  -25.0720  -10.3650   21.6810 C   0  0  0  0  0  3  0  0  0  0  0  0
  -24.2160   -9.2560   21.8460 C   0  0  0  0  0  3  0  0  0  0  0  0
  -23.0500   -9.1350   21.0520 C   0  0  0  0  0  0  0  0  0  0  0  0
  -22.7720  -10.1200   20.0870 C   0  0  0  0  0  3  0  0  0  0  0  0
  -23.6290  -11.2220   19.9220 C   0  0  0  0  0  3  0  0  0  0  0  0
  -22.1750   -8.0800   21.1250 O   0  0  0  0  0  0  0  0  0  0  0  0
  -21.9510   -7.4080   22.3000 C   0  0  0  0  0  0  0  0  0  0  0  0
  -21.5070   -8.0700   23.4630 C   0  0  0  0  0  3  0  0  0  0  0  0
  -21.2210   -7.3310   24.6280 C   0  0  0  0  0  3  0  0  0  0  0  0
  -21.3680   -5.9310   24.6290 C   0  0  0  0  0  0  0  0  0  0  0  0
  -21.8020   -5.2690   23.4670 C   0  0  0  0  0  3  0  0  0  0  0  0
  -22.0910   -6.0050   22.3060 C   0  0  0  0  0  0  0  0  0  0  0  0
  -22.4900   -5.3590   21.1840 F   0  0  0  0  0  0  0  0  0  0  0  0
  -21.0840   -5.2200   25.7450 F   0  0  0  0  0  0  0  0  0  0  0  0
  -23.9990  -14.5610   20.8230 C   0  0  0  0  0  0  0  0  0  0  0  0
  -23.1910  -13.9660   21.6930 N   0  0  0  0  0  0  0  0  0  0  0  0
  -23.6800  -15.6180   20.2810 O   0  0  0  0  0  0  0  0  0  0  0  0
  -23.4650  -13.1160   22.1640 H   0  0  0  0  0  0  0  0  0  0  0  0
  -22.2900  -14.3740   21.9020 H   0  0  0  0  0  0  0  0  0  0  0  0
  -26.8140  -15.9170   20.0520 N   0  0  0  0  0  0  0  0  0  0  0  0
  -27.7020  -16.2500   19.6990 H   0  0  0  0  0  0  0  0  0  0  0  0
  -26.1090  -16.6440   20.1010 H   0  0  0  0  0  0  0  0  0  0  0  0
  -29.9240  -21.7170   22.3360 C   0  0  0  0  0  2  0  0  0  0  0  0
  -28.8150  -22.7750   22.3430 C   0  0  0  0  0  2  0  0  0  0  0  0
  -28.8140  -23.4220   21.0760 O   0  0  0  0  0  0  0  0  0  0  0  0
  -28.0300  -24.6070   21.0680 C   0  0  0  0  0  2  0  0  0  0  0  0
  -28.3090  -25.3830   19.7740 C   0  0  0  0  0  2  0  0  0  0  0  0
  -28.2610  -26.7850   20.0110 O   0  0  0  0  0  0  0  0  0  0  0  0
  -24.5230  -31.8870   23.2100 C   0  0  0  0  0  0  0  0  0  0  0  0
  -27.0500  -27.4370   20.0600 C   0  0  0  0  0  0  0  0  0  0  0  0
  -23.2550  -30.4880   21.6060 C   0  0  0  0  0  3  0  0  0  0  0  0
  -24.6540  -28.9330   20.1480 C   0  0  0  0  0  0  0  0  0  0  0  0
  -25.7730  -30.8330   21.3340 C   0  0  0  0  0  2  0  0  0  0  0  0
  -25.8300  -29.4610   20.6940 C   0  0  0  0  0  0  0  0  0  0  0  0
  -27.0260  -28.7190   20.6460 C   0  0  0  0  0  3  0  0  0  0  0  0
  -25.8500  -26.9050   19.5310 C   0  0  0  0  0  3  0  0  0  0  0  0
  -24.6580  -27.6520   19.5680 C   0  0  0  0  0  3  0  0  0  0  0  0
  -23.4170  -29.7950   20.2260 C   0  0  0  0  0  2  0  0  0  0  0  0
  -24.5360  -31.0850   22.1070 N   0  0  0  0  0  0  0  0  0  0  0  0
  -23.4600  -32.1740   23.7790 O   0  0  0  0  0  0  0  0  0  0  0  0
  -22.6220  -29.4790   22.5920 C   0  0  0  0  0  0  0  0  0  0  0  0
  -21.2990  -29.2800   22.4760 N   0  0  0  0  0  0  0  0  0  0  0  0
  -23.3180  -28.8750   23.4130 O   0  0  0  0  0  0  0  0  0  0  0  0
  -20.7990  -29.8230   21.7850 H   0  0  0  0  0  0  0  0  0  0  0  0
  -17.9510  -28.0220   22.9730 C   0  0  0  0  0  0  0  0  0  0  0  0
  -20.4970  -28.3470   23.2650 C   0  0  0  0  0  3  0  0  0  0  0  0
  -20.6390  -26.9030   22.7310 C   0  0  0  0  0  2  0  0  0  0  0  0
  -19.5560  -26.5240   21.7160 C   0  0  0  0  0  2  0  0  0  0  0  0
  -18.1660  -26.6570   22.3420 C   0  0  0  0  0  2  0  0  0  0  0  0
  -19.0460  -28.8220   23.3920 C   0  0  0  0  0  0  0  0  0  0  0  0
  -18.7940  -30.0990   23.9410 C   0  0  0  0  0  3  0  0  0  0  0  0
  -17.4760  -30.5750   24.0740 C   0  0  0  0  0  3  0  0  0  0  0  0
  -16.3940  -29.7720   23.6720 C   0  0  0  0  0  3  0  0  0  0  0  0
  -16.6330  -28.4980   23.1290 C   0  0  0  0  0  3  0  0  0  0  0  0
  -25.8350  -32.5030   23.7900 C   0  0  0  0  0  3  0  0  0  0  0  0
  -26.3820  -31.7310   25.0530 C   0  0  1  0  0  0  0  0  0  0  0  0
  -25.3180  -31.5090   26.1520 C   0  0  0  0  0  1  0  0  0  0  0  0
  -26.9400  -30.3460   24.6490 C   0  0  0  0  0  1  0  0  0  0  0  0
  -27.5580  -32.5160   25.6800 C   0  0  0  0  0  1  0  0  0  0  0  0
  -25.5540  -33.9060   24.1200 N   0  0  0  0  0  0  0  0  0  0  0  0
  -25.8820  -34.9490   23.3460 C   0  0  0  0  0  0  0  0  0  0  0  0
  -26.5230  -34.8310   22.2980 O   0  0  0  0  0  0  0  0  0  0  0  0
  -24.9850  -34.0760   24.9360 H   0  0  0  0  0  0  0  0  0  0  0  0
  -24.1630  -36.7560   23.0300 C   0  0  0  0  0  1  0  0  0  0  0  0
  -25.4230  -36.3440   23.8080 C   0  0  0  0  0  3  0  0  0  0  0  0
  -27.5910  -37.2090   24.5690 C   0  0  0  0  0  1  0  0  0  0  0  0
  -26.4640  -37.3850   23.6560 N   0  0  0  0  0  0  0  0  0  0  0  0
  -26.0730  -38.3090   23.8110 H   0  0  0  0  0  0  0  0  0  0  0  0
  1  4  1  0
  1  3  1  0
  1  2  1  0
  4  5  1  0
  5  7  2  0
  6  8  1  0
  6  5  1  0
  9  6  1  0
 10  9  1  0
 11 19  1  0
 12 17  1  0
 13 14  1  0
 13 12  1  0
 15 14  1  0
 15 24  1  0
 15 16  1  0
 17 11  1  0
 17 16  1  0
 18 11  2  0
 19 10  1  0
 19 20  1  0
 21 22  2  0
 22 41  1  0
 23 22  1  0
 23 26  1  0
 24 21  1  0
 24 25  1  0
 25 23  2  0
 26 27  1  0
 27 28  2  0
 29 32  1  0
 29 28  1  0
 30 29  2  0
 31 30  1  0
 31 26  2  0
 32 33  1  0
 33 38  2  0
 33 34  1  0
 34 35  2  0
 35 36  1  0
 36 40  1  0
 37 36  2  0
 38 37  1  0
 39 38  1  0
 41 42  1  0
 42 45  1  0
 42 44  1  0
 43 41  2  0
 46 48  1  0
 46 21  1  0
 47 46  1  0
 49 50  1  0
 49  1  1  0
 51 50  1  0
 52 51  1  0
 53 54  1  0
 53 52  1  0
 54 56  1  0
 55 66  2  0
 56 61  1  0
 57 65  1  0
 57 67  1  0
 58 64  1  0
 58 60  1  0
 59 65  1  0
 60 59  1  0
 61 60  2  0
 62 63  1  0
 62 56  2  0
 63 58  2  0
 64 57  1  0
 65 55  1  0
 67 69  2  0
 68 67  1  0
 70 68  1  0
 71 80  2  0
 71 76  1  0
 72 68  1  0
 72 76  1  0
 73 72  1  0
 74 75  1  0
 74 73  1  0
 75 71  1  0
 76 77  2  0
 77 78  1  0
 79 78  2  0
 80 79  1  0
 81 55  1  0
 81 86  1  0
 81 82  1  0
 82 85  1  1
 82 83  1  0
 84 82  1  0
 86 89  1  0
 87 91  1  0
 87 86  1  0
 88 87  2  0
 91 90  1  0
 93 91  1  0
 93 94  1  0
 93 92  1  0
M  ISO  4  11 100  19 100  53 101  54 101
M  END
>  <TORSDO>  (72) 
F 25

>  <SCORE>  (72) 
-8.508

>  <name>  (72) 
75

>  <ligand_id>  (72) 
75

>  <original_smiles>  (72) 
[H]c1c([H])c([H])c2c(c1[H])C([H])([H])C([H])([H])C([H])([H])C2([H])N([H])C(=O)C1([H])N(C(=O)C([H])(N([H])C(=O)C([H])(N([H])C([H])([H])[H])C([H])([H])[H])C(C([H])([H])[H])(C([H])([H])[H])C([H])([H])[H])C([H])([H])c2c([H])c(OC([H])([H])C([H])([H])OC([H])([H])C([H])([H])[N+]([H])([H])C([H])([H])C(=O)N([H])C([H])([H])C([H])([H])N([H])C(=O)N3C([H])([H])C([H])([H])C([H])([H])C([H])(n4nc(-c5c([H])c([H])c(Oc6c([H])c([H])c(F)c([H])c6F)c([H])c5[H])c(C(=O)N([H])[H])c4N([H])[H])C3([H])[H])c([H])c([H])c2C1([H])[H]

>  <smiles>  (72) 
[H]c1c([H])c([H])c2c(c1[H])C([H])([H])C([H])([H])C([H])([H])C2([H])N([H])C(=O)C1([H])N(C(=O)C([H])(N([H])C(=O)C([H])(N([H])C([H])([H])[H])C([H])([H])[H])C(C([H])([H])[H])(C([H])([H])[H])C([H])([H])[H])C([H])([H])c2c([H])c(OC([H])([H])C([H])([H])OC([H])([H])C([H])([H])[N+]([H])([H])C([H])([H])C(=O)N([H])C([H])([H])C([H])([H])N([H])C(=O)N3C([H])([H])C([H])([H])C([H])([H])C([H])(n4nc(-c5c([H])c([H])c(Oc6c([H])c([H])c(F)c([H])c6F)c([H])c5[H])c(C(=O)N([H])[H])c4N([H])[H])C3([H])[H])c([H])c([H])c2C1([H])[H]

$$$$
76:0:0
     RDKit          3D

 98105  0  0  1  0  0  0  0  0999 V2000
  -27.8060  -21.6140   21.0610 C   0  0  0  0  0  0  0  0  0  0  0  0
  -27.6390  -22.8890   20.7030 N   0  0  0  0  0  0  0  0  0  0  0  0
  -28.3780  -21.2830   22.1020 O   0  0  0  0  0  0  0  0  0  0  0  0
  -27.0810  -23.0700   19.8790 H   0  0  0  0  0  0  0  0  0  0  0  0
  -28.0190  -19.7530   19.4420 C   0  0  0  0  0  3  0  0  0  0  0  0
  -27.2720  -20.6950   20.0720 C   0  0  0  0  0  3  0  0  0  0  0  0
  -29.4590  -19.6160   19.5960 C   0  0  0  0  0  0  0  0  0  0  0  0
  -29.8200  -18.3350   19.7350 N   0  0  0  0  0  0  0  0  0  0  0  0
  -30.2670  -20.5490   19.5920 O   0  0  0  0  0  0  0  0  0  0  0  0
  -29.0950  -17.6350   19.6760 H   0  0  0  0  0  0  0  0  0  0  0  0
  -31.1540  -17.8600   20.0860 C   0  0  0  0  0  2  0  0  0  0  0  0
  -31.1010  -17.0570   21.4020 C   0  0  0  0  0  2  0  0  0  0  0  0
  -31.1510  -14.7150   20.5720 C   0  0  0  0  0  0  0  0  0  0  0  0
  -30.7930  -12.5820   19.3990 C   0  0  0  0  0  2  0  0  0  0  0  0
  -29.8870  -12.8110   18.1750 C   0  0  0  0  0  2  0  0  0  0  0  0
  -28.4000  -12.7250   18.5700 C   0  0  0  0  0  2  0  0  0  0  0  0
  -28.0550  -13.5660   19.8280 C   0  0  0  0  0  3  0  0  0  0  0  0
  -29.0790  -13.3220   20.9600 C   0  0  0  0  0  2  0  0  0  0  0  0
  -30.4260  -13.5750   20.4200 N   0  0  0  0  0  0  0  0  0  0  0  0
  -32.2600  -14.8850   20.0670 O   0  0  0  0  0  0  0  0  0  0  0  0
  -30.5390  -15.7140   21.2230 N   0  0  0  0  0  0  0  0  0  0  0  0
  -29.6250  -15.5290   21.6050 H   0  0  0  0  0  0  0  0  0  0  0  0
  -25.6620  -14.2190   20.5200 C   0  0  0  0  0  0  0  0  0  0  0  0
  -24.5640  -13.4680   20.8450 C   0  0  0  0  0  0  0  0  0  0  0  0
  -24.9860  -12.1050   20.7790 C   0  0  0  0  0  0  0  0  0  0  0  0
  -26.6860  -13.3150   20.2740 N   0  0  0  0  0  0  0  0  0  0  0  0
  -26.2800  -12.0350   20.4880 N   0  0  0  0  0  0  0  0  0  0  0  0
  -24.2210  -10.8580   20.9200 C   0  0  0  0  0  0  0  0  0  0  0  0
  -24.5950   -9.8620   21.8490 C   0  0  0  0  0  3  0  0  0  0  0  0
  -23.8360   -8.6780   21.9750 C   0  0  0  0  0  3  0  0  0  0  0  0
  -22.6860   -8.4850   21.1720 C   0  0  0  0  0  0  0  0  0  0  0  0
  -22.3310   -9.4700   20.2310 C   0  0  0  0  0  3  0  0  0  0  0  0
  -23.0920  -10.6440   20.1040 C   0  0  0  0  0  3  0  0  0  0  0  0
  -21.9020   -7.3570   21.2070 O   0  0  0  0  0  0  0  0  0  0  0  0
  -21.7460   -6.6250   22.3570 C   0  0  0  0  0  0  0  0  0  0  0  0
  -21.2090   -7.1920   23.5340 C   0  0  0  0  0  3  0  0  0  0  0  0
  -21.0010   -6.3870   24.6710 C   0  0  0  0  0  3  0  0  0  0  0  0
  -21.3170   -5.0160   24.6310 C   0  0  0  0  0  0  0  0  0  0  0  0
  -21.8430   -4.4490   23.4560 C   0  0  0  0  0  3  0  0  0  0  0  0
  -22.0520   -5.2500   22.3210 C   0  0  0  0  0  0  0  0  0  0  0  0
  -22.5430   -4.6950   21.1860 F   0  0  0  0  0  0  0  0  0  0  0  0
  -21.1090   -4.2390   25.7190 F   0  0  0  0  0  0  0  0  0  0  0  0
  -23.1760  -13.9800   21.1110 C   0  0  0  0  0  0  0  0  0  0  0  0
  -22.4160  -13.2860   21.9520 N   0  0  0  0  0  0  0  0  0  0  0  0
  -22.7720  -15.0280   20.6080 O   0  0  0  0  0  0  0  0  0  0  0  0
  -22.7530  -12.4390   22.3820 H   0  0  0  0  0  0  0  0  0  0  0  0
  -21.4840  -13.6090   22.1700 H   0  0  0  0  0  0  0  0  0  0  0  0
  -25.8760  -15.5870   20.3940 N   0  0  0  0  0  0  0  0  0  0  0  0
  -25.1360  -16.2650   20.5350 H   0  0  0  0  0  0  0  0  0  0  0  0
  -26.7490  -16.0080   20.1080 H   0  0  0  0  0  0  0  0  0  0  0  0
  -28.1370  -24.0360   21.4660 C   0  0  0  0  0  2  0  0  0  0  0  0
  -29.6710  -24.1910   21.3760 C   0  0  0  0  0  2  0  0  0  0  0  0
  -30.1720  -24.1090   19.9860 N   0  0  0  0  0  4  0  0  0  0  0  0
  -29.5510  -23.5210   19.4520 H   0  0  0  0  0  0  0  0  0  0  0  0
  -31.0540  -23.6240   20.0290 H   0  0  0  0  0  0  0  0  0  0  0  0
  -30.4100  -25.4050   19.2960 C   0  0  0  0  0  2  0  0  0  0  0  0
  -29.1240  -26.1900   18.9720 C   0  0  0  0  0  2  0  0  0  0  0  0
  -28.7790  -27.0340   20.0770 O   0  0  0  0  0  0  0  0  0  0  0  0
  -24.6080  -31.8610   23.2490 C   0  0  0  0  0  0  0  0  0  0  0  0
  -27.5540  -27.6740   20.0600 C   0  0  0  0  0  0  0  0  0  0  0  0
  -23.5200  -30.4840   21.5050 C   0  0  0  0  0  3  0  0  0  0  0  0
  -25.0850  -29.0640   20.0790 C   0  0  0  0  0  0  0  0  0  0  0  0
  -26.0340  -30.9470   21.4190 C   0  0  0  0  0  2  0  0  0  0  0  0
  -26.1980  -29.6060   20.7310 C   0  0  0  0  0  0  0  0  0  0  0  0
  -27.4280  -28.9110   20.7320 C   0  0  0  0  0  3  0  0  0  0  0  0
  -26.4110  -27.1310   19.4210 C   0  0  0  0  0  3  0  0  0  0  0  0
  -25.1830  -27.8190   19.4340 C   0  0  0  0  0  3  0  0  0  0  0  0
  -23.8080  -29.8720   20.1090 C   0  0  0  0  0  2  0  0  0  0  0  0
  -24.7360  -31.1090   22.1180 N   0  0  0  0  0  0  0  0  0  0  0  0
  -23.4990  -32.0700   23.7580 O   0  0  0  0  0  0  0  0  0  0  0  0
  -22.8760  -29.3990   22.3990 C   0  0  0  0  0  0  0  0  0  0  0  0
  -21.5600  -29.1890   22.2320 N   0  0  0  0  0  0  0  0  0  0  0  0
  -23.5600  -28.7490   23.1950 O   0  0  0  0  0  0  0  0  0  0  0  0
  -21.0690  -29.7700   21.5670 H   0  0  0  0  0  0  0  0  0  0  0  0
  -18.2010  -27.9190   22.6300 C   0  0  0  0  0  0  0  0  0  0  0  0
  -20.7530  -28.1930   22.9380 C   0  0  0  0  0  3  0  0  0  0  0  0
  -20.8790  -26.8020   22.2740 C   0  0  0  0  0  2  0  0  0  0  0  0
  -19.7890  -26.5280   21.2330 C   0  0  0  0  0  2  0  0  0  0  0  0
  -18.4010  -26.6160   21.8740 C   0  0  0  0  0  2  0  0  0  0  0  0
  -19.3060  -28.6670   23.1160 C   0  0  0  0  0  0  0  0  0  0  0  0
  -19.0670  -29.8880   23.7820 C   0  0  0  0  0  3  0  0  0  0  0  0
  -17.7550  -30.3640   23.9650 C   0  0  0  0  0  3  0  0  0  0  0  0
  -16.6640  -29.6120   23.4960 C   0  0  0  0  0  3  0  0  0  0  0  0
  -16.8870  -28.3910   22.8350 C   0  0  0  0  0  3  0  0  0  0  0  0
  -25.8480  -32.5140   23.9390 C   0  0  0  0  0  3  0  0  0  0  0  0
  -26.3130  -31.7480   25.2360 C   0  0  1  0  0  0  0  0  0  0  0  0
  -25.1650  -31.4630   26.2340 C   0  0  0  0  0  1  0  0  0  0  0  0
  -26.9620  -30.3940   24.8660 C   0  0  0  0  0  1  0  0  0  0  0  0
  -27.3920  -32.5730   25.9750 C   0  0  0  0  0  1  0  0  0  0  0  0
  -25.4930  -33.9050   24.2540 N   0  0  0  0  0  0  0  0  0  0  0  0
  -25.8480  -34.9660   23.5170 C   0  0  0  0  0  0  0  0  0  0  0  0
  -26.5780  -34.8780   22.5250 O   0  0  0  0  0  0  0  0  0  0  0  0
  -24.8470  -34.0450   25.0160 H   0  0  0  0  0  0  0  0  0  0  0  0
  -24.1130  -36.7280   23.0580 C   0  0  0  0  0  1  0  0  0  0  0  0
  -25.3070  -36.3430   23.9460 C   0  0  0  0  0  3  0  0  0  0  0  0
  -27.3650  -37.2630   24.9180 C   0  0  0  0  0  1  0  0  0  0  0  0
  -26.3260  -37.4130   23.9030 N   0  0  0  0  0  0  0  0  0  0  0  0
  -25.8950  -38.3250   24.0260 H   0  0  0  0  0  0  0  0  0  0  0  0
  1  3  2  0
  2  1  1  0
  2 51  1  0
  4  2  1  0
  5  7  1  0
  5  6  2  0
  6  1  1  0
  7  8  1  0
  8 11  1  0
  9  7  2  0
 10  8  1  0
 11 12  1  0
 13 21  1  0
 14 19  1  0
 15 16  1  0
 15 14  1  0
 17 16  1  0
 17 26  1  0
 17 18  1  0
 19 13  1  0
 19 18  1  0
 20 13  2  0
 21 12  1  0
 21 22  1  0
 23 24  2  0
 24 43  1  0
 25 24  1  0
 25 28  1  0
 26 27  1  0
 26 23  1  0
 27 25  2  0
 28 29  1  0
 29 30  2  0
 31 34  1  0
 31 30  1  0
 32 31  2  0
 33 32  1  0
 33 28  2  0
 34 35  1  0
 35 36  1  0
 36 37  2  0
 38 37  1  0
 38 42  1  0
 39 38  2  0
 40 35  2  0
 40 39  1  0
 41 40  1  0
 43 44  1  0
 44 47  1  0
 44 46  1  0
 45 43  2  0
 48 23  1  0
 48 49  1  0
 50 48  1  0
 52 51  1  0
 53 55  1  0
 53 52  1  0
 54 53  1  0
 56 53  1  0
 57 56  1  0
 57 58  1  0
 59 70  2  0
 60 58  1  0
 60 65  1  0
 61 69  1  0
 61 71  1  0
 62 68  1  0
 62 64  1  0
 63 69  1  0
 64 65  2  0
 64 63  1  0
 66 67  1  0
 66 60  2  0
 67 62  2  0
 68 61  1  0
 69 59  1  0
 71 73  2  0
 72 71  1  0
 74 72  1  0
 75 84  2  0
 75 80  1  0
 76 72  1  0
 76 80  1  0
 77 76  1  0
 78 79  1  0
 78 77  1  0
 79 75  1  0
 80 81  2  0
 81 82  1  0
 83 82  2  0
 84 83  1  0
 85 59  1  0
 85 90  1  0
 85 86  1  0
 86 89  1  1
 86 87  1  0
 88 86  1  0
 90 93  1  0
 91 95  1  0
 91 90  1  0
 92 91  2  0
 95 94  1  0
 97 95  1  0
 97 98  1  0
 97 96  1  0
M  ISO  4  13 100  21 100  57 101  58 101
M  END
>  <TORSDO>  (73) 
F 25

>  <SCORE>  (73) 
-11.427

>  <name>  (73) 
76

>  <ligand_id>  (73) 
76

>  <original_smiles>  (73) 
[H]C(C(=O)N([H])C([H])([H])C([H])([H])N([H])C(=O)N1C([H])([H])C([H])([H])C([H])([H])C([H])(n2nc(-c3c([H])c([H])c(Oc4c([H])c([H])c(F)c([H])c4F)c([H])c3[H])c(C(=O)N([H])[H])c2N([H])[H])C1([H])[H])=C([H])C(=O)N([H])C([H])([H])C([H])([H])[N+]([H])([H])C([H])([H])C([H])([H])Oc1c([H])c([H])c2c(c1[H])C([H])([H])N(C(=O)C([H])(N([H])C(=O)C([H])(N([H])C([H])([H])[H])C([H])([H])[H])C(C([H])([H])[H])(C([H])([H])[H])C([H])([H])[H])C([H])(C(=O)N([H])C1([H])c3c([H])c([H])c([H])c([H])c3C([H])([H])C([H])([H])C1([H])[H])C2([H])[H]

>  <smiles>  (73) 
[H]C(C(=O)N([H])C([H])([H])C([H])([H])N([H])C(=O)N1C([H])([H])C([H])([H])C([H])([H])C([H])(n2nc(-c3c([H])c([H])c(Oc4c([H])c([H])c(F)c([H])c4F)c([H])c3[H])c(C(=O)N([H])[H])c2N([H])[H])C1([H])[H])=C([H])C(=O)N([H])C([H])([H])C([H])([H])[N+]([H])([H])C([H])([H])C([H])([H])Oc1c([H])c([H])c2c(c1[H])C([H])([H])N(C(=O)C([H])(N([H])C(=O)C([H])(N([H])C([H])([H])[H])C([H])([H])[H])C(C([H])([H])[H])(C([H])([H])[H])C([H])([H])[H])C([H])(C(=O)N([H])C1([H])c3c([H])c([H])c([H])c([H])c3C([H])([H])C([H])([H])C1([H])[H])C2([H])[H]

$$$$
77:0:0
     RDKit          3D

 99106  0  0  1  0  0  0  0  0999 V2000
  -29.3370  -18.9600   20.2470 C   0  0  0  0  0  0  0  0  0  0  0  0
  -28.2170  -19.3070   19.6930 N   0  0  0  0  0  0  0  0  0  0  0  0
  -30.5560  -19.6130   20.1410 N   0  0  0  0  0  0  0  0  0  0  0  0
  -30.6480  -20.3730   19.4720 H   0  0  0  0  0  0  0  0  0  0  0  0
  -31.3670  -19.9930   21.2870 C   0  0  0  0  0  2  0  0  0  0  0  0
  -32.2830  -21.1500   20.8770 C   0  0  0  0  0  2  0  0  0  0  0  0
  -31.5010  -22.0490   20.0890 O   0  0  0  0  0  0  0  0  0  0  0  0
  -32.2320  -23.1740   19.6110 C   0  0  0  0  0  2  0  0  0  0  0  0
  -32.0050  -24.4140   20.4920 C   0  0  0  0  0  2  0  0  0  0  0  0
  -30.8760  -25.1340   20.0050 O   0  0  0  0  0  0  0  0  0  0  0  0
  -30.6470  -26.3570   20.7000 C   0  0  0  0  0  2  0  0  0  0  0  0
  -29.6300  -27.2160   19.9280 C   0  0  0  0  0  2  0  0  0  0  0  0
  -28.3310  -26.6460   20.0680 O   0  0  0  0  0  0  0  0  0  0  0  0
  -24.5810  -31.8850   23.2070 C   0  0  0  0  0  0  0  0  0  0  0  0
  -27.2160  -27.4560   20.1110 C   0  0  0  0  0  0  0  0  0  0  0  0
  -23.3590  -30.4750   21.5790 C   0  0  0  0  0  3  0  0  0  0  0  0
  -24.8030  -28.9340   20.1490 C   0  0  0  0  0  0  0  0  0  0  0  0
  -25.8800  -30.8390   21.3600 C   0  0  0  0  0  2  0  0  0  0  0  0
  -25.9650  -29.4700   20.7210 C   0  0  0  0  0  0  0  0  0  0  0  0
  -27.1740  -28.7410   20.7030 C   0  0  0  0  0  3  0  0  0  0  0  0
  -26.0330  -26.9230   19.5630 C   0  0  0  0  0  3  0  0  0  0  0  0
  -24.8300  -27.6540   19.5680 C   0  0  0  0  0  3  0  0  0  0  0  0
  -23.5540  -29.7840   20.2030 C   0  0  0  0  0  2  0  0  0  0  0  0
  -24.6250  -31.0810   22.1060 N   0  0  0  0  0  0  0  0  0  0  0  0
  -23.5060  -32.1620   23.7540 O   0  0  0  0  0  0  0  0  0  0  0  0
  -22.7120  -29.4630   22.5500 C   0  0  0  0  0  0  0  0  0  0  0  0
  -21.3850  -29.2920   22.4370 N   0  0  0  0  0  0  0  0  0  0  0  0
  -23.4000  -28.8360   23.3590 O   0  0  0  0  0  0  0  0  0  0  0  0
  -20.8930  -29.8510   21.7550 H   0  0  0  0  0  0  0  0  0  0  0  0
  -18.0080  -28.1190   22.9640 C   0  0  0  0  0  0  0  0  0  0  0  0
  -20.5680  -28.3610   23.2160 C   0  0  0  0  0  3  0  0  0  0  0  0
  -20.6590  -26.9270   22.6450 C   0  0  0  0  0  2  0  0  0  0  0  0
  -19.5480  -26.6070   21.6400 C   0  0  0  0  0  2  0  0  0  0  0  0
  -18.1710  -26.7660   22.2930 C   0  0  0  0  0  2  0  0  0  0  0  0
  -19.1350  -28.8760   23.3810 C   0  0  0  0  0  0  0  0  0  0  0  0
  -18.9300  -30.1440   23.9660 C   0  0  0  0  0  3  0  0  0  0  0  0
  -17.6300  -30.6550   24.1380 C   0  0  0  0  0  3  0  0  0  0  0  0
  -16.5170  -29.8960   23.7370 C   0  0  0  0  0  3  0  0  0  0  0  0
  -16.7070  -28.6300   23.1570 C   0  0  0  0  0  3  0  0  0  0  0  0
  -25.8750  -32.5130   23.8150 C   0  0  0  0  0  3  0  0  0  0  0  0
  -25.5690  -33.9070   24.1640 N   0  0  0  0  0  0  0  0  0  0  0  0
  -25.8900  -34.9670   23.4120 C   0  0  0  0  0  0  0  0  0  0  0  0
  -26.5470  -34.8770   22.3700 O   0  0  0  0  0  0  0  0  0  0  0  0
  -24.9820  -34.0500   24.9730 H   0  0  0  0  0  0  0  0  0  0  0  0
  -24.1500  -36.7540   23.0990 C   0  0  0  0  0  1  0  0  0  0  0  0
  -25.4050  -36.3480   23.8890 C   0  0  0  0  0  3  0  0  0  0  0  0
  -27.5500  -37.2280   24.6950 C   0  0  0  0  0  1  0  0  0  0  0  0
  -26.4330  -37.4060   23.7720 N   0  0  0  0  0  0  0  0  0  0  0  0
  -26.0260  -38.3220   23.9390 H   0  0  0  0  0  0  0  0  0  0  0  0
  -26.4180  -31.7260   25.0700 C   0  0  1  0  0  0  0  0  0  0  0  0
  -25.3450  -31.4720   26.1540 C   0  0  0  0  0  1  0  0  0  0  0  0
  -26.9960  -30.3550   24.6480 C   0  0  0  0  0  1  0  0  0  0  0  0
  -27.5760  -32.5150   25.7270 C   0  0  0  0  0  1  0  0  0  0  0  0
  -28.1800  -20.5070   18.8650 C   0  0  0  0  0  2  0  0  0  0  0  0
  -26.7640  -21.1200   18.8480 C   0  0  0  0  0  2  0  0  0  0  0  0
  -25.4260  -23.0370   17.9930 C   0  0  0  0  0  1  0  0  0  0  0  0
  -26.7060  -22.3030   17.9640 N   0  0  0  0  0  4  0  0  0  0  0  0
  -27.4400  -22.9420   18.2240 H   0  0  0  0  0  0  0  0  0  0  0  0
  -26.8780  -22.0110   17.0140 H   0  0  0  0  0  0  0  0  0  0  0  0
  -29.3530  -17.6870   21.0950 C   0  0  0  0  0  2  0  0  0  0  0  0
  -30.5360  -16.7390   20.8000 C   0  0  0  0  0  2  0  0  0  0  0  0
  -30.7190  -14.3640   20.1960 C   0  0  0  0  0  0  0  0  0  0  0  0
  -30.2530  -12.3240   18.9160 C   0  0  0  0  0  2  0  0  0  0  0  0
  -29.2520  -12.6620   17.7940 C   0  0  0  0  0  2  0  0  0  0  0  0
  -27.8030  -12.5410   18.3020 C   0  0  0  0  0  2  0  0  0  0  0  0
  -27.5680  -13.2850   19.6440 C   0  0  0  0  0  3  0  0  0  0  0  0
  -28.6820  -12.9440   20.6610 C   0  0  0  0  0  2  0  0  0  0  0  0
  -29.9840  -13.2360   20.0340 N   0  0  0  0  0  0  0  0  0  0  0  0
  -31.7980  -14.5670   19.6290 O   0  0  0  0  0  0  0  0  0  0  0  0
  -30.1240  -15.3370   20.8880 N   0  0  0  0  0  0  0  0  0  0  0  0
  -29.2380  -15.1220   21.3150 H   0  0  0  0  0  0  0  0  0  0  0  0
  -25.2060  -13.8820   20.4780 C   0  0  0  0  0  0  0  0  0  0  0  0
  -24.1520  -13.1030   20.8720 C   0  0  0  0  0  0  0  0  0  0  0  0
  -24.6020  -11.7510   20.7720 C   0  0  0  0  0  0  0  0  0  0  0  0
  -26.2350  -13.0030   20.1740 N   0  0  0  0  0  0  0  0  0  0  0  0
  -25.8770  -11.7140   20.4040 N   0  0  0  0  0  0  0  0  0  0  0  0
  -23.8750  -10.4870   20.9510 C   0  0  0  0  0  0  0  0  0  0  0  0
  -24.3550   -9.4780   21.8160 C   0  0  0  0  0  3  0  0  0  0  0  0
  -23.6330   -8.2790   21.9850 C   0  0  0  0  0  3  0  0  0  0  0  0
  -22.4160   -8.0780   21.2930 C   0  0  0  0  0  0  0  0  0  0  0  0
  -21.9560   -9.0730   20.4130 C   0  0  0  0  0  3  0  0  0  0  0  0
  -22.6790  -10.2660   20.2420 C   0  0  0  0  0  3  0  0  0  0  0  0
  -21.6590   -6.9360   21.3790 O   0  0  0  0  0  0  0  0  0  0  0  0
  -21.6770   -6.1400   22.4970 C   0  0  0  0  0  0  0  0  0  0  0  0
  -21.3600   -6.6440   23.7780 C   0  0  0  0  0  3  0  0  0  0  0  0
  -21.3290   -5.7750   24.8870 C   0  0  0  0  0  3  0  0  0  0  0  0
  -21.6050   -4.4040   24.7180 C   0  0  0  0  0  0  0  0  0  0  0  0
  -21.9110   -3.9010   23.4410 C   0  0  0  0  0  3  0  0  0  0  0  0
  -21.9470   -4.7670   22.3340 C   0  0  0  0  0  0  0  0  0  0  0  0
  -22.2250   -4.2730   21.1030 F   0  0  0  0  0  0  0  0  0  0  0  0
  -21.5640   -3.5660   25.7800 F   0  0  0  0  0  0  0  0  0  0  0  0
  -22.7710  -13.5740   21.2290 C   0  0  0  0  0  0  0  0  0  0  0  0
  -22.0870  -12.8480   22.1050 N   0  0  0  0  0  0  0  0  0  0  0  0
  -22.3110  -14.6170   20.7670 O   0  0  0  0  0  0  0  0  0  0  0  0
  -22.4760  -12.0050   22.5000 H   0  0  0  0  0  0  0  0  0  0  0  0
  -21.1610  -13.1360   22.3870 H   0  0  0  0  0  0  0  0  0  0  0  0
  -25.3740  -15.2570   20.3340 N   0  0  0  0  0  0  0  0  0  0  0  0
  -24.6220  -15.9150   20.5020 H   0  0  0  0  0  0  0  0  0  0  0  0
  -26.2050  -15.6930   19.9560 H   0  0  0  0  0  0  0  0  0  0  0  0
  1 60  1  0
  2  1  2  0
  3  1  1  0
  3  5  1  0
  4  3  1  0
  6  5  1  0
  7  6  1  0
  8  7  1  0
  8  9  1  0
 10  9  1  0
 10 11  1  0
 12 13  1  0
 12 11  1  0
 13 15  1  0
 14 25  2  0
 15 20  1  0
 16 24  1  0
 16 26  1  0
 17 23  1  0
 17 19  1  0
 18 24  1  0
 19 18  1  0
 20 19  2  0
 21 22  1  0
 21 15  2  0
 22 17  2  0
 23 16  1  0
 24 14  1  0
 26 28  2  0
 27 26  1  0
 29 27  1  0
 30 39  2  0
 30 35  1  0
 31 27  1  0
 31 35  1  0
 32 31  1  0
 33 34  1  0
 33 32  1  0
 34 30  1  0
 35 36  2  0
 36 37  1  0
 38 37  2  0
 39 38  1  0
 40 14  1  0
 40 41  1  0
 40 50  1  0
 41 44  1  0
 42 46  1  0
 42 41  1  0
 43 42  2  0
 46 45  1  0
 48 46  1  0
 48 49  1  0
 48 47  1  0
 50 53  1  1
 50 51  1  0
 52 50  1  0
 54  2  1  0
 55 54  1  0
 57 56  1  0
 57 58  1  0
 57 55  1  0
 59 57  1  0
 61 70  1  0
 61 60  1  0
 62 70  1  0
 63 68  1  0
 64 65  1  0
 64 63  1  0
 66 65  1  0
 66 75  1  0
 66 67  1  0
 68 62  1  0
 68 67  1  0
 69 62  2  0
 70 71  1  0
 72 73  2  0
 73 92  1  0
 74 73  1  0
 74 77  1  0
 75 76  1  0
 75 72  1  0
 76 74  2  0
 77 78  1  0
 78 79  2  0
 80 83  1  0
 80 79  1  0
 81 80  2  0
 82 81  1  0
 82 77  2  0
 83 84  1  0
 84 85  1  0
 85 86  2  0
 87 86  1  0
 87 91  1  0
 88 87  2  0
 89 84  2  0
 89 88  1  0
 90 89  1  0
 92 93  1  0
 93 96  1  0
 93 95  1  0
 94 92  2  0
 97 72  1  0
 97 98  1  0
 99 97  1  0
M  ISO  4  12 101  13 101  62 100  70 100
M  END
>  <TORSDO>  (74) 
F 29

>  <SCORE>  (74) 
-11.094

>  <name>  (74) 
77

>  <ligand_id>  (74) 
77

>  <original_smiles>  (74) 
[H]c1c([H])c([H])c2c(c1[H])C([H])([H])C([H])([H])C([H])([H])C2([H])N([H])C(=O)C1([H])N(C(=O)C([H])(N([H])C(=O)C([H])(N([H])C([H])([H])[H])C([H])([H])[H])C(C([H])([H])[H])(C([H])([H])[H])C([H])([H])[H])C([H])([H])c2c([H])c(OC([H])([H])C([H])([H])OC([H])([H])C([H])([H])OC([H])([H])C([H])([H])N([H])C(=NC([H])([H])C([H])([H])[N+]([H])([H])C([H])([H])[H])C([H])([H])C([H])([H])N([H])C(=O)N3C([H])([H])C([H])([H])C([H])([H])C([H])(n4nc(-c5c([H])c([H])c(Oc6c([H])c([H])c(F)c([H])c6F)c([H])c5[H])c(C(=O)N([H])[H])c4N([H])[H])C3([H])[H])c([H])c([H])c2C1([H])[H]

>  <smiles>  (74) 
[H]c1c([H])c([H])c2c(c1[H])C([H])([H])C([H])([H])C([H])([H])C2([H])N([H])C(=O)C1([H])N(C(=O)C([H])(N([H])C(=O)C([H])(N([H])C([H])([H])[H])C([H])([H])[H])C(C([H])([H])[H])(C([H])([H])[H])C([H])([H])[H])C([H])([H])c2c([H])c(OC([H])([H])C([H])([H])OC([H])([H])C([H])([H])OC([H])([H])C([H])([H])N([H])C(=NC([H])([H])C([H])([H])[N+]([H])([H])C([H])([H])[H])C([H])([H])C([H])([H])N([H])C(=O)N3C([H])([H])C([H])([H])C([H])([H])C([H])(n4nc(-c5c([H])c([H])c(Oc6c([H])c([H])c(F)c([H])c6F)c([H])c5[H])c(C(=O)N([H])[H])c4N([H])[H])C3([H])[H])c([H])c([H])c2C1([H])[H]

$$$$
78:0:0
     RDKit          3D

 97104  0  0  1  0  0  0  0  0999 V2000
  -29.1010  -23.2100   24.7300 C   0  0  0  0  0  2  0  0  0  0  0  0
  -29.3130  -24.4430   23.9630 N   0  0  0  0  0  0  0  0  0  0  0  0
  -28.5970  -24.5200   23.2410 H   0  0  0  0  0  0  0  0  0  0  0  0
  -29.2990  -25.6380   24.8220 C   0  0  0  0  0  2  0  0  0  0  0  0
  -29.1330  -26.9670   24.0480 C   0  0  0  0  0  2  0  0  0  0  0  0
  -30.3470  -27.5480   23.5840 O   0  0  0  0  0  0  0  0  0  0  0  0
  -31.1300  -26.7060   22.7480 C   0  0  0  0  0  2  0  0  0  0  0  0
  -31.7050  -27.4970   21.5550 C   0  0  0  0  0  2  0  0  0  0  0  0
  -30.9420  -27.2690   20.3670 O   0  0  0  0  0  0  0  0  0  0  0  0
  -25.6000  -30.9670   23.3240 C   0  0  0  0  0  0  0  0  0  0  0  0
  -29.6300  -27.6810   20.3410 C   0  0  0  0  0  0  0  0  0  0  0  0
  -24.9710  -29.4190   21.4920 C   0  0  0  0  0  3  0  0  0  0  0  0
  -26.9150  -28.4380   20.1620 C   0  0  0  0  0  0  0  0  0  0  0  0
  -27.2950  -30.4710   21.5730 C   0  0  0  0  0  2  0  0  0  0  0  0
  -27.8150  -29.2240   20.8910 C   0  0  0  0  0  0  0  0  0  0  0  0
  -29.1710  -28.8530   20.9850 C   0  0  0  0  0  3  0  0  0  0  0  0
  -28.7180  -26.9020   19.6000 C   0  0  0  0  0  3  0  0  0  0  0  0
  -27.3580  -27.2700   19.5180 C   0  0  0  0  0  3  0  0  0  0  0  0
  -25.4790  -28.9140   20.1160 C   0  0  0  0  0  2  0  0  0  0  0  0
  -25.9610  -30.3030   22.1900 N   0  0  0  0  0  0  0  0  0  0  0  0
  -24.4450  -30.8950   23.7650 O   0  0  0  0  0  0  0  0  0  0  0  0
  -24.5490  -28.1930   22.3320 C   0  0  0  0  0  0  0  0  0  0  0  0
  -23.3750  -27.6290   22.0080 N   0  0  0  0  0  0  0  0  0  0  0  0
  -25.2780  -27.7520   23.2220 O   0  0  0  0  0  0  0  0  0  0  0  0
  -22.8380  -28.0510   21.2650 H   0  0  0  0  0  0  0  0  0  0  0  0
  -20.5140  -25.4260   21.9540 C   0  0  0  0  0  0  0  0  0  0  0  0
  -22.7920  -26.4430   22.6340 C   0  0  0  0  0  3  0  0  0  0  0  0
  -23.4230  -25.1520   22.0680 C   0  0  0  0  0  2  0  0  0  0  0  0
  -22.6410  -24.5630   20.8900 C   0  0  0  0  0  2  0  0  0  0  0  0
  -21.2030  -24.2360   21.3050 C   0  0  0  0  0  2  0  0  0  0  0  0
  -21.2620  -26.4670   22.5640 C   0  0  0  0  0  0  0  0  0  0  0  0
  -20.5730  -27.5650   23.1250 C   0  0  0  0  0  3  0  0  0  0  0  0
  -19.1670  -27.6320   23.0830 C   0  0  0  0  0  3  0  0  0  0  0  0
  -18.4320  -26.5900   22.4930 C   0  0  0  0  0  3  0  0  0  0  0  0
  -19.1050  -25.4880   21.9350 C   0  0  0  0  0  3  0  0  0  0  0  0
  -26.6110  -31.8660   24.1070 C   0  0  0  0  0  3  0  0  0  0  0  0
  -27.1320  -31.2050   25.4420 C   0  0  1  0  0  0  0  0  0  0  0  0
  -25.9990  -30.6730   26.3490 C   0  0  0  0  0  1  0  0  0  0  0  0
  -28.0860  -30.0250   25.1380 C   0  0  0  0  0  1  0  0  0  0  0  0
  -27.9520  -32.2340   26.2540 C   0  0  0  0  0  1  0  0  0  0  0  0
  -25.9470  -33.1480   24.3820 N   0  0  0  0  0  0  0  0  0  0  0  0
  -26.1320  -34.2670   23.6700 C   0  0  0  0  0  0  0  0  0  0  0  0
  -26.9500  -34.3490   22.7500 O   0  0  0  0  0  0  0  0  0  0  0  0
  -25.2240  -33.1440   25.0870 H   0  0  0  0  0  0  0  0  0  0  0  0
  -24.1060  -35.6150   23.0440 C   0  0  0  0  0  1  0  0  0  0  0  0
  -25.2680  -35.4900   24.0410 C   0  0  0  0  0  3  0  0  0  0  0  0
  -26.9890  -36.8090   25.1870 C   0  0  0  0  0  1  0  0  0  0  0  0
  -26.0320  -36.7540   24.0840 N   0  0  0  0  0  0  0  0  0  0  0  0
  -25.4080  -37.5520   24.1670 H   0  0  0  0  0  0  0  0  0  0  0  0
  -29.1650  -21.9380   23.8630 C   0  0  0  0  0  2  0  0  0  0  0  0
  -30.4790  -21.7650   23.2310 N   0  0  0  0  0  0  0  0  0  0  0  0
  -31.1860  -21.6710   23.9610 H   0  0  0  0  0  0  0  0  0  0  0  0
  -30.5290  -20.6190   22.3100 C   0  0  0  0  0  2  0  0  0  0  0  0
  -31.9180  -20.4230   21.6550 C   0  0  0  0  0  2  0  0  0  0  0  0
  -32.0520  -19.0690   21.0630 N   0  0  0  0  0  4  0  0  0  0  0  0
  -32.0630  -18.3990   21.8130 H   0  0  0  0  0  0  0  0  0  0  0  0
  -31.2440  -18.8830   20.4910 H   0  0  0  0  0  0  0  0  0  0  0  0
  -33.2660  -18.8620   20.2420 C   0  0  0  0  0  2  0  0  0  0  0  0
  -33.7960  -17.4110   20.3170 C   0  0  0  0  0  2  0  0  0  0  0  0
  -32.7830  -15.5180   19.0610 C   0  0  0  0  0  0  0  0  0  0  0  0
  -32.3480  -13.1400   18.5840 C   0  0  0  0  0  2  0  0  0  0  0  0
  -31.3270  -12.8870   17.4640 C   0  0  0  0  0  2  0  0  0  0  0  0
  -29.9000  -12.8730   18.0350 C   0  0  0  0  0  2  0  0  0  0  0  0
  -29.6030  -14.1240   18.8990 C   0  0  0  0  0  3  0  0  0  0  0  0
  -30.7220  -14.3710   19.9400 C   0  0  0  0  0  2  0  0  0  0  0  0
  -32.0300  -14.4080   19.2570 N   0  0  0  0  0  0  0  0  0  0  0  0
  -33.5890  -15.6470   18.1360 O   0  0  0  0  0  0  0  0  0  0  0  0
  -32.7770  -16.3760   20.0910 N   0  0  0  0  0  0  0  0  0  0  0  0
  -32.1990  -16.1120   20.8760 H   0  0  0  0  0  0  0  0  0  0  0  0
  -27.4140  -15.0360   19.9100 C   0  0  0  0  0  0  0  0  0  0  0  0
  -26.2900  -14.4070   20.3790 C   0  0  0  0  0  0  0  0  0  0  0  0
  -26.5380  -13.0080   20.2460 C   0  0  0  0  0  0  0  0  0  0  0  0
  -28.2850  -14.0270   19.5290 N   0  0  0  0  0  0  0  0  0  0  0  0
  -27.7640  -12.7990   19.7830 N   0  0  0  0  0  0  0  0  0  0  0  0
  -25.6570  -11.8550   20.4810 C   0  0  0  0  0  0  0  0  0  0  0  0
  -25.9380  -10.9070   21.4900 C   0  0  0  0  0  3  0  0  0  0  0  0
  -25.0680   -9.8180   21.7120 C   0  0  0  0  0  3  0  0  0  0  0  0
  -23.9030   -9.6680   20.9220 C   0  0  0  0  0  0  0  0  0  0  0  0
  -23.6400  -10.6030   19.9060 C   0  0  0  0  0  3  0  0  0  0  0  0
  -24.5080  -11.6830   19.6840 C   0  0  0  0  0  3  0  0  0  0  0  0
  -23.0150   -8.6270   21.0470 O   0  0  0  0  0  0  0  0  0  0  0  0
  -22.6600   -8.1250   22.2740 C   0  0  0  0  0  0  0  0  0  0  0  0
  -22.0890   -8.9420   23.2760 C   0  0  0  0  0  3  0  0  0  0  0  0
  -21.6760   -8.3730   24.4960 C   0  0  0  0  0  3  0  0  0  0  0  0
  -21.8210   -6.9900   24.7140 C   0  0  0  0  0  0  0  0  0  0  0  0
  -22.3820   -6.1750   23.7160 C   0  0  0  0  0  3  0  0  0  0  0  0
  -22.7980   -6.7410   22.4980 C   0  0  0  0  0  0  0  0  0  0  0  0
  -23.3190   -5.9480   21.5310 F   0  0  0  0  0  0  0  0  0  0  0  0
  -21.4150   -6.4410   25.8830 F   0  0  0  0  0  0  0  0  0  0  0  0
  -25.0210  -15.0670   20.8370 C   0  0  0  0  0  0  0  0  0  0  0  0
  -24.3330  -14.4660   21.8000 N   0  0  0  0  0  0  0  0  0  0  0  0
  -24.6580  -16.1470   20.3750 O   0  0  0  0  0  0  0  0  0  0  0  0
  -24.6430  -13.5900   22.1950 H   0  0  0  0  0  0  0  0  0  0  0  0
  -23.4850  -14.8880   22.1510 H   0  0  0  0  0  0  0  0  0  0  0  0
  -27.7590  -16.3750   19.7620 N   0  0  0  0  0  0  0  0  0  0  0  0
  -27.1160  -17.1280   19.9850 H   0  0  0  0  0  0  0  0  0  0  0  0
  -28.6290  -16.7050   19.3610 H   0  0  0  0  0  0  0  0  0  0  0  0
  2  1  1  0
  2  4  1  0
  3  2  1  0
  5  4  1  0
  6  5  1  0
  7  6  1  0
  8  7  1  0
  9  8  1  0
 10 21  2  0
 11  9  1  0
 11 16  1  0
 12 20  1  0
 12 22  1  0
 13 15  1  0
 14 20  1  0
 15 16  2  0
 15 14  1  0
 17 11  2  0
 18 17  1  0
 18 13  2  0
 19 13  1  0
 19 12  1  0
 20 10  1  0
 22 24  2  0
 23 22  1  0
 25 23  1  0
 26 31  1  0
 27 23  1  0
 28 27  1  0
 29 30  1  0
 29 28  1  0
 30 26  1  0
 31 27  1  0
 31 32  2  0
 33 32  1  0
 34 33  2  0
 35 26  2  0
 35 34  1  0
 36 10  1  0
 36 41  1  0
 36 37  1  0
 37 40  1  1
 37 38  1  0
 39 37  1  0
 41 44  1  0
 42 46  1  0
 42 41  1  0
 43 42  2  0
 46 45  1  0
 46 48  1  0
 48 49  1  0
 48 47  1  0
 50  1  1  0
 51 50  1  0
 51 52  1  0
 53 51  1  0
 54 53  1  0
 55 54  1  0
 55 56  1  0
 57 55  1  0
 58 59  1  0
 58 55  1  0
 60 66  1  0
 60 68  1  0
 61 66  1  0
 62 63  1  0
 62 61  1  0
 64 63  1  0
 64 73  1  0
 64 65  1  0
 66 65  1  0
 67 60  2  0
 68 59  1  0
 68 69  1  0
 70 71  2  0
 71 90  1  0
 72 71  1  0
 72 75  1  0
 73 74  1  0
 73 70  1  0
 74 72  2  0
 75 76  1  0
 76 77  2  0
 78 81  1  0
 78 77  1  0
 79 78  2  0
 80 79  1  0
 80 75  2  0
 81 82  1  0
 82 87  2  0
 82 83  1  0
 83 84  2  0
 84 85  1  0
 85 89  1  0
 86 85  2  0
 87 86  1  0
 88 87  1  0
 90 91  1  0
 91 94  1  0
 91 93  1  0
 92 90  2  0
 95 70  1  0
 95 96  1  0
 97 95  1  0
M  ISO  4   8 101   9 101  60 100  68 100
M  END
>  <TORSDO>  (75) 
F 29

>  <SCORE>  (75) 
-2.567

>  <name>  (75) 
78

>  <ligand_id>  (75) 
78

>  <original_smiles>  (75) 
[H]c1c([H])c([H])c2c(c1[H])C([H])([H])C([H])([H])C([H])([H])C2([H])N([H])C(=O)C1([H])N(C(=O)C([H])(N([H])C(=O)C([H])(N([H])C([H])([H])[H])C([H])([H])[H])C(C([H])([H])[H])(C([H])([H])[H])C([H])([H])[H])C([H])([H])c2c([H])c(OC([H])([H])C([H])([H])OC([H])([H])C([H])([H])N([H])C([H])([H])C([H])([H])N([H])C([H])([H])C([H])([H])[N+]([H])([H])C([H])([H])C([H])([H])N([H])C(=O)N3C([H])([H])C([H])([H])C([H])([H])C([H])(n4nc(-c5c([H])c([H])c(Oc6c([H])c([H])c(F)c([H])c6F)c([H])c5[H])c(C(=O)N([H])[H])c4N([H])[H])C3([H])[H])c([H])c([H])c2C1([H])[H]

>  <smiles>  (75) 
[H]c1c([H])c([H])c2c(c1[H])C([H])([H])C([H])([H])C([H])([H])C2([H])N([H])C(=O)C1([H])N(C(=O)C([H])(N([H])C(=O)C([H])(N([H])C([H])([H])[H])C([H])([H])[H])C(C([H])([H])[H])(C([H])([H])[H])C([H])([H])[H])C([H])([H])c2c([H])c(OC([H])([H])C([H])([H])OC([H])([H])C([H])([H])N([H])C([H])([H])C([H])([H])N([H])C([H])([H])C([H])([H])[N+]([H])([H])C([H])([H])C([H])([H])N([H])C(=O)N3C([H])([H])C([H])([H])C([H])([H])C([H])(n4nc(-c5c([H])c([H])c(Oc6c([H])c([H])c(F)c([H])c6F)c([H])c5[H])c(C(=O)N([H])[H])c4N([H])[H])C3([H])[H])c([H])c([H])c2C1([H])[H]

$$$$
79:0:0
     RDKit          3D

 98105  0  0  1  0  0  0  0  0999 V2000
  -32.1320  -22.6170   17.8660 C   0  0  0  0  0  2  0  0  0  0  0  0
  -31.7700  -22.4690   16.4940 O   0  0  0  0  0  0  0  0  0  0  0  0
  -31.0450  -21.2820   16.1980 C   0  0  0  0  0  2  0  0  0  0  0  0
  -28.9730  -20.3260   17.2370 C   0  0  0  0  0  3  0  0  0  0  0  0
  -29.6300  -21.3770   16.7260 C   0  0  0  0  0  3  0  0  0  0  0  0
  -27.6210  -20.4050   17.8950 C   0  0  0  0  0  2  0  0  0  0  0  0
  -26.6720  -21.1220   17.0360 N   0  0  0  0  0  4  0  0  0  0  0  0
  -26.8840  -20.9300   16.0710 H   0  0  0  0  0  0  0  0  0  0  0  0
  -26.7880  -22.1150   17.1730 H   0  0  0  0  0  0  0  0  0  0  0  0
  -25.2720  -20.7590   17.3080 C   0  0  0  0  0  2  0  0  0  0  0  0
  -24.3160  -21.9200   17.0050 C   0  0  0  0  0  2  0  0  0  0  0  0
  -23.9470  -22.7840   18.2300 C   0  0  0  0  0  2  0  0  0  0  0  0
  -23.5180  -25.2410   18.1070 C   0  0  0  0  0  0  0  0  0  0  0  0
  -22.2690  -26.8980   19.4360 C   0  0  0  0  0  2  0  0  0  0  0  0
  -22.7840  -28.3430   19.3500 C   0  0  0  0  0  2  0  0  0  0  0  0
  -23.9180  -28.5770   20.3640 C   0  0  0  0  0  2  0  0  0  0  0  0
  -25.0220  -27.4950   20.2720 C   0  0  0  0  0  3  0  0  0  0  0  0
  -24.3990  -26.0850   20.3160 C   0  0  0  0  0  2  0  0  0  0  0  0
  -23.4000  -25.9830   19.2340 N   0  0  0  0  0  0  0  0  0  0  0  0
  -22.8150  -25.3860   17.1020 O   0  0  0  0  0  0  0  0  0  0  0  0
  -24.3470  -24.1970   18.2350 N   0  0  0  0  0  0  0  0  0  0  0  0
  -25.0600  -24.3760   18.9280 H   0  0  0  0  0  0  0  0  0  0  0  0
  -27.4090  -27.7220   21.2060 C   0  0  0  0  0  0  0  0  0  0  0  0
  -27.8770  -27.9850   22.4670 C   0  0  0  0  0  0  0  0  0  0  0  0
  -26.7210  -28.0920   23.3010 C   0  0  0  0  0  0  0  0  0  0  0  0
  -26.0290  -27.6720   21.3150 N   0  0  0  0  0  0  0  0  0  0  0  0
  -25.6220  -27.8470   22.5990 N   0  0  0  0  0  0  0  0  0  0  0  0
  -26.5910  -28.4690   24.7140 C   0  0  0  0  0  0  0  0  0  0  0  0
  -26.3010  -27.5080   25.7070 C   0  0  0  0  0  3  0  0  0  0  0  0
  -26.2020  -27.8890   27.0620 C   0  0  0  0  0  3  0  0  0  0  0  0
  -26.3950  -29.2390   27.4370 C   0  0  0  0  0  0  0  0  0  0  0  0
  -26.6640  -30.1960   26.4400 C   0  0  0  0  0  3  0  0  0  0  0  0
  -26.7570  -29.8160   25.0910 C   0  0  0  0  0  3  0  0  0  0  0  0
  -26.2890  -29.7060   28.7240 O   0  0  0  0  0  0  0  0  0  0  0  0
  -27.0070  -29.1530   29.7530 C   0  0  0  0  0  0  0  0  0  0  0  0
  -28.4160  -29.0390   29.7010 C   0  0  0  0  0  3  0  0  0  0  0  0
  -29.1210  -28.5290   30.8070 C   0  0  0  0  0  3  0  0  0  0  0  0
  -28.4250  -28.1390   31.9690 C   0  0  0  0  0  0  0  0  0  0  0  0
  -27.0250  -28.2560   32.0240 C   0  0  0  0  0  3  0  0  0  0  0  0
  -26.3190  -28.7640   30.9190 C   0  0  0  0  0  0  0  0  0  0  0  0
  -24.9710  -28.8940   30.9850 F   0  0  0  0  0  0  0  0  0  0  0  0
  -29.1020  -27.6580   33.0360 F   0  0  0  0  0  0  0  0  0  0  0  0
  -29.3060  -28.2170   22.8630 C   0  0  0  0  0  0  0  0  0  0  0  0
  -29.6460  -27.9510   24.1190 N   0  0  0  0  0  0  0  0  0  0  0  0
  -30.1450  -28.5910   22.0420 O   0  0  0  0  0  0  0  0  0  0  0  0
  -28.9620  -27.6270   24.7890 H   0  0  0  0  0  0  0  0  0  0  0  0
  -30.6030  -28.0720   24.4170 H   0  0  0  0  0  0  0  0  0  0  0  0
  -28.0360  -27.5410   19.9770 N   0  0  0  0  0  0  0  0  0  0  0  0
  -29.0380  -27.6310   19.8530 H   0  0  0  0  0  0  0  0  0  0  0  0
  -27.5430  -27.3870   19.1050 H   0  0  0  0  0  0  0  0  0  0  0  0
  -32.4020  -24.1030   18.1110 C   0  0  0  0  0  2  0  0  0  0  0  0
  -32.0970  -24.5540   19.5540 C   0  0  0  0  0  2  0  0  0  0  0  0
  -31.1190  -25.6650   19.5930 N   0  0  0  0  0  4  0  0  0  0  0  0
  -30.7130  -25.6990   20.5160 H   0  0  0  0  0  0  0  0  0  0  0  0
  -30.3670  -25.4530   18.9540 H   0  0  0  0  0  0  0  0  0  0  0  0
  -31.6550  -27.0010   19.2530 C   0  0  0  0  0  2  0  0  0  0  0  0
  -30.8970  -27.6110   18.0640 C   0  0  0  0  0  2  0  0  0  0  0  0
  -31.2260  -26.8600   16.8910 O   0  0  0  0  0  0  0  0  0  0  0  0
  -26.5910  -27.5760   11.4750 C   0  0  0  0  0  0  0  0  0  0  0  0
  -30.8700  -27.4380   15.6970 C   0  0  0  0  0  0  0  0  0  0  0  0
  -28.7830  -28.6930   11.2000 C   0  0  0  0  0  3  0  0  0  0  0  0
  -30.2550  -28.7590   13.2810 C   0  0  0  0  0  0  0  0  0  0  0  0
  -27.8140  -28.2750   13.5270 C   0  0  0  0  0  2  0  0  0  0  0  0
  -29.2340  -28.1700   14.0380 C   0  0  0  0  0  0  0  0  0  0  0  0
  -29.5320  -27.5110   15.2470 C   0  0  0  0  0  3  0  0  0  0  0  0
  -31.8950  -27.9980   14.9060 C   0  0  0  0  0  3  0  0  0  0  0  0
  -31.5930  -28.6670   13.7050 C   0  0  0  0  0  3  0  0  0  0  0  0
  -29.8410  -29.4820   12.0180 C   0  0  0  0  0  2  0  0  0  0  0  0
  -27.6900  -28.1340   12.0590 N   0  0  0  0  0  0  0  0  0  0  0  0
  -26.4550  -27.5650   10.2440 O   0  0  0  0  0  0  0  0  0  0  0  0
  -29.5140  -27.6190   10.3620 C   0  0  0  0  0  0  0  0  0  0  0  0
  -30.1100  -28.0470    9.2370 N   0  0  0  0  0  0  0  0  0  0  0  0
  -29.5610  -26.4450   10.7370 O   0  0  0  0  0  0  0  0  0  0  0  0
  -30.0170  -29.0220    8.9920 H   0  0  0  0  0  0  0  0  0  0  0  0
  -31.9350  -28.1100    6.1220 C   0  0  0  0  0  0  0  0  0  0  0  0
  -30.8880  -27.2230    8.3130 C   0  0  0  0  0  3  0  0  0  0  0  0
  -32.3410  -27.0450    8.8130 C   0  0  0  0  0  2  0  0  0  0  0  0
  -33.3060  -28.0920    8.2490 C   0  0  0  0  0  2  0  0  0  0  0  0
  -33.3290  -28.0290    6.7180 C   0  0  0  0  0  2  0  0  0  0  0  0
  -30.7870  -27.7460    6.8750 C   0  0  0  0  0  0  0  0  0  0  0  0
  -29.5110  -27.8750    6.2850 C   0  0  0  0  0  3  0  0  0  0  0  0
  -29.3730  -28.3530    4.9680 C   0  0  0  0  0  3  0  0  0  0  0  0
  -30.5130  -28.6930    4.2200 C   0  0  0  0  0  3  0  0  0  0  0  0
  -31.7910  -28.5670    4.7950 C   0  0  0  0  0  3  0  0  0  0  0  0
  -25.4390  -26.9510   12.3260 C   0  0  0  0  0  3  0  0  0  0  0  0
  -24.1730  -27.2490   11.6450 N   0  0  0  0  0  0  0  0  0  0  0  0
  -23.2720  -28.1420   12.0730 C   0  0  0  0  0  0  0  0  0  0  0  0
  -23.3920  -28.7580   13.1360 O   0  0  0  0  0  0  0  0  0  0  0  0
  -24.0380  -26.8250   10.7380 H   0  0  0  0  0  0  0  0  0  0  0  0
  -22.2650  -29.6700   10.3490 C   0  0  0  0  0  1  0  0  0  0  0  0
  -22.0440  -28.3940   11.1780 C   0  0  0  0  0  3  0  0  0  0  0  0
  -20.3450  -27.2420   12.5260 C   0  0  0  0  0  1  0  0  0  0  0  0
  -20.7760  -28.5050   11.9350 N   0  0  0  0  0  0  0  0  0  0  0  0
  -20.0290  -28.8460   11.3370 H   0  0  0  0  0  0  0  0  0  0  0  0
  -25.6040  -25.3980   12.5510 C   0  0  1  0  0  0  0  0  0  0  0  0
  -25.8800  -24.6110   11.2490 C   0  0  0  0  0  1  0  0  0  0  0  0
  -26.7630  -25.1070   13.5320 C   0  0  0  0  0  1  0  0  0  0  0  0
  -24.3230  -24.8200   13.1960 C   0  0  0  0  0  1  0  0  0  0  0  0
  1 51  1  0
  2  1  1  0
  3  2  1  0
  3  5  1  0
  4  6  1  0
  5  4  2  0
  7  9  1  0
  7 10  1  0
  7  6  1  0
  8  7  1  0
 11 10  1  0
 11 12  1  0
 12 21  1  0
 13 21  1  0
 13 19  1  0
 15 14  1  0
 15 16  1  0
 17 18  1  0
 17 16  1  0
 17 26  1  0
 19 14  1  0
 19 18  1  0
 20 13  2  0
 21 22  1  0
 23 26  1  0
 23 24  2  0
 24 43  1  0
 24 25  1  0
 25 28  1  0
 26 27  1  0
 27 25  2  0
 28 33  2  0
 28 29  1  0
 29 30  2  0
 30 31  1  0
 31 34  1  0
 32 31  2  0
 33 32  1  0
 34 35  1  0
 35 40  1  0
 36 35  2  0
 36 37  1  0
 37 38  2  0
 38 39  1  0
 38 42  1  0
 40 41  1  0
 40 39  2  0
 43 44  1  0
 44 47  1  0
 44 46  1  0
 45 43  2  0
 48 23  1  0
 49 48  1  0
 50 48  1  0
 51 52  1  0
 52 53  1  0
 53 54  1  0
 55 53  1  0
 56 53  1  0
 57 56  1  0
 58 57  1  0
 59 69  1  0
 60 58  1  0
 61 71  1  0
 61 68  1  0
 61 69  1  0
 62 67  2  0
 62 64  1  0
 63 64  1  0
 64 65  2  0
 65 60  1  0
 66 60  2  0
 67 66  1  0
 68 62  1  0
 69 63  1  0
 70 59  2  0
 71 73  2  0
 72 71  1  0
 74 72  1  0
 75 79  1  0
 75 80  1  0
 76 77  1  0
 76 72  1  0
 78 77  1  0
 79 78  1  0
 80 76  1  0
 81 80  2  0
 82 81  1  0
 83 84  1  0
 83 82  2  0
 84 75  2  0
 85 59  1  0
 85 95  1  0
 86 87  1  0
 86 85  1  0
 87 88  2  0
 89 86  1  0
 91 90  1  0
 91 93  1  0
 91 87  1  0
 93 92  1  0
 94 93  1  0
 95 98  1  1
 95 97  1  0
 96 95  1  0
M  ISO  4  13 100  21 100  57 101  58 101
M  END
>  <TORSDO>  (76) 
F 29

>  <SCORE>  (76) 
-3.712

>  <name>  (76) 
79

>  <ligand_id>  (76) 
79

>  <original_smiles>  (76) 
[H]C(=C([H])C([H])([H])[N+]([H])([H])C([H])([H])C([H])([H])C([H])([H])N([H])C(=O)N1C([H])([H])C([H])([H])C([H])([H])C([H])(n2nc(-c3c([H])c([H])c(Oc4c([H])c([H])c(F)c([H])c4F)c([H])c3[H])c(C(=O)N([H])[H])c2N([H])[H])C1([H])[H])C([H])([H])OC([H])([H])C([H])([H])C([H])([H])[N+]([H])([H])C([H])([H])C([H])([H])Oc1c([H])c([H])c2c(c1[H])C([H])([H])N(C(=O)C([H])(N([H])C(=O)C([H])(N([H])C([H])([H])[H])C([H])([H])[H])C(C([H])([H])[H])(C([H])([H])[H])C([H])([H])[H])C([H])(C(=O)N([H])C1([H])c3c([H])c([H])c([H])c([H])c3C([H])([H])C([H])([H])C1([H])[H])C2([H])[H]

>  <smiles>  (76) 
[H]C(=C([H])C([H])([H])[N+]([H])([H])C([H])([H])C([H])([H])C([H])([H])N([H])C(=O)N1C([H])([H])C([H])([H])C([H])([H])C([H])(n2nc(-c3c([H])c([H])c(Oc4c([H])c([H])c(F)c([H])c4F)c([H])c3[H])c(C(=O)N([H])[H])c2N([H])[H])C1([H])[H])C([H])([H])OC([H])([H])C([H])([H])C([H])([H])[N+]([H])([H])C([H])([H])C([H])([H])Oc1c([H])c([H])c2c(c1[H])C([H])([H])N(C(=O)C([H])(N([H])C(=O)C([H])(N([H])C([H])([H])[H])C([H])([H])[H])C(C([H])([H])[H])(C([H])([H])[H])C([H])([H])[H])C([H])(C(=O)N([H])C1([H])c3c([H])c([H])c([H])c([H])c3C([H])([H])C([H])([H])C1([H])[H])C2([H])[H]

$$$$
80:0:0
     RDKit          3D

 99103  0  0  1  0  0  0  0  0999 V2000
  -27.0890  -17.7370   19.0040 C   0  0  0  0  0  2  0  0  0  0  0  0
  -27.9240  -16.5540   19.0110 O   0  0  0  0  0  0  0  0  0  0  0  0
  -27.1930  -15.3050   18.9320 C   0  0  0  0  0  2  0  0  0  0  0  0
  -27.8970  -14.1590   18.1200 C   0  0  0  0  0  3  0  0  0  0  0  0
  -27.7890  -12.6890   18.6880 C   0  0  0  0  0  3  0  0  0  0  0  0
  -28.2690  -11.6010   17.7620 N   0  0  0  0  0  4  0  0  0  0  0  0
  -27.6130  -11.5790   16.9960 H   0  0  0  0  0  0  0  0  0  0  0  0
  -29.1450  -11.8630   17.3410 H   0  0  0  0  0  0  0  0  0  0  0  0
  -28.3710  -10.1740   18.2550 C   0  0  0  0  0  2  0  0  0  0  0  0
  -29.6730   -9.9390   19.0590 C   0  0  0  0  0  3  0  0  0  0  0  0
  -30.0810   -8.7500   19.9620 C   0  0  0  0  0  3  0  0  0  0  0  0
  -31.4820   -8.9050   20.7020 C   0  0  0  0  0  2  0  0  0  0  0  0
  -32.8940  -11.2380   22.0360 C   0  0  2  0  0  0  0  0  0  0  0  0
  -33.9950  -10.3240   21.3090 C   0  0  0  0  0  1  0  0  0  0  0  0
  -33.1580  -10.9830   19.7120 C   0  0  0  0  0  1  0  0  0  0  0  0
  -31.6900  -11.9800   19.9020 C   0  0  0  0  0  2  0  0  0  0  0  0
  -30.8840  -12.3680   21.4540 C   0  0  0  0  0  2  0  0  0  0  0  0
  -31.7420  -11.8270   23.0250 C   0  0  0  0  0  1  0  0  0  0  0  0
  -33.1810  -10.7970   22.8630 N   0  0  0  0  0  1  0  0  0  0  0  0
  -33.5900  -12.4220   21.8060 O   0  0  0  0  0  1  0  0  0  0  0  0
  -31.8130  -10.0230   21.6940 N   0  0  0  0  0  2  0  0  0  0  0  0
  -31.5700   -9.6690   22.6030 H   0  0  0  0  0  0  0  0  0  0  0  0
  -28.4970  -13.2780   21.5060 C   0  0  0  0  0  0  0  0  0  0  0  0
  -27.2440  -12.7400   21.6110 C   0  0  0  0  0  0  0  0  0  0  0  0
  -27.4120  -11.3220   21.6530 C   0  0  0  0  0  0  0  0  0  0  0  0
  -29.3970  -12.2320   21.5240 N   0  0  0  0  0  0  0  0  0  0  0  0
  -28.7230  -11.0430   21.6800 N   0  0  0  0  0  0  0  0  0  0  0  0
  -26.3800  -10.2560   21.6440 C   0  0  0  0  0  0  0  0  0  0  0  0
  -26.2670   -9.3060   22.6860 C   0  0  0  0  0  3  0  0  0  0  0  0
  -25.2420   -8.3280   22.6720 C   0  0  0  0  0  3  0  0  0  0  0  0
  -24.3030   -8.2920   21.6140 C   0  0  0  0  0  0  0  0  0  0  0  0
  -24.4280   -9.2210   20.5680 C   0  0  0  0  0  3  0  0  0  0  0  0
  -25.4530  -10.1860   20.5770 C   0  0  0  0  0  3  0  0  0  0  0  0
  -23.2900   -7.3660   21.5030 O   0  0  0  0  0  0  0  0  0  0  0  0
  -22.4400   -7.0960   22.5440 C   0  0  0  0  0  0  0  0  0  0  0  0
  -21.6830   -8.1110   23.1660 C   0  0  0  0  0  3  0  0  0  0  0  0
  -20.7780   -7.7850   24.1960 C   0  0  0  0  0  3  0  0  0  0  0  0
  -20.6140   -6.4470   24.5930 C   0  0  0  0  0  0  0  0  0  0  0  0
  -21.3560   -5.4320   23.9670 C   0  0  0  0  0  3  0  0  0  0  0  0
  -22.2680   -5.7540   22.9440 C   0  0  0  0  0  0  0  0  0  0  0  0
  -22.9670   -4.7690   22.3300 F   0  0  0  0  0  0  0  0  0  0  0  0
  -19.7390   -6.1350   25.5790 F   0  0  0  0  0  0  0  0  0  0  0  0
  -25.9550  -13.5130   21.5940 C   0  0  0  0  0  0  0  0  0  0  0  0
  -24.9480  -13.0500   22.3240 N   0  0  0  0  0  0  0  0  0  0  0  0
  -25.8580  -14.5690   20.9700 O   0  0  0  0  0  0  0  0  0  0  0  0
  -25.0390  -12.2040   22.8690 H   0  0  0  0  0  0  0  0  0  0  0  0
  -24.0660  -13.5460   22.3350 H   0  0  0  0  0  0  0  0  0  0  0  0
  -28.9470  -14.5860   21.3860 N   0  0  0  0  0  0  0  0  0  0  0  0
  -28.3030  -15.3690   21.3390 H   0  0  0  0  0  0  0  0  0  0  0  0
  -29.9130  -14.8710   21.3130 H   0  0  0  0  0  0  0  0  0  0  0  0
  -27.7780  -19.0440   19.5280 C   0  0  0  0  0  2  0  0  0  0  0  0
  -26.9980  -20.3450   19.1390 C   0  0  0  0  0  2  0  0  0  0  0  0
  -27.5890  -21.6580   19.5710 N   0  0  0  0  0  4  0  0  0  0  0  0
  -27.7100  -21.6630   20.5730 H   0  0  0  0  0  0  0  0  0  0  0  0
  -28.5020  -21.7470   19.1550 H   0  0  0  0  0  0  0  0  0  0  0  0
  -26.7630  -22.8460   19.1560 C   0  0  0  0  0  2  0  0  0  0  0  0
  -27.2980  -24.2900   19.5480 C   0  0  0  0  0  3  0  0  0  0  0  0
  -27.5020  -25.5950   18.6660 C   0  0  0  0  0  3  0  0  0  0  0  0
  -27.7390  -26.8710   19.3280 O   0  0  0  0  0  0  0  0  0  0  0  0
  -24.9340  -31.6050   23.9170 C   0  0  0  0  0  0  0  0  0  0  0  0
  -26.6850  -27.7300   19.6150 C   0  0  0  0  0  0  0  0  0  0  0  0
  -23.4140  -30.7350   22.1740 C   0  0  0  0  0  3  0  0  0  0  0  0
  -24.5200  -29.4450   20.2770 C   0  0  0  0  0  0  0  0  0  0  0  0
  -25.9290  -30.8820   21.7470 C   0  0  0  0  0  2  0  0  0  0  0  0
  -25.7870  -29.6850   20.8240 C   0  0  0  0  0  0  0  0  0  0  0  0
  -26.8680  -28.8240   20.5050 C   0  0  0  0  0  3  0  0  0  0  0  0
  -25.4040  -27.5480   19.0460 C   0  0  0  0  0  3  0  0  0  0  0  0
  -24.3260  -28.3770   19.3910 C   0  0  0  0  0  3  0  0  0  0  0  0
  -23.4010  -30.3860   20.6600 C   0  0  0  0  0  2  0  0  0  0  0  0
  -24.7850  -31.0760   22.6690 N   0  0  0  0  0  0  0  0  0  0  0  0
  -23.9530  -31.8430   24.6360 O   0  0  0  0  0  0  0  0  0  0  0  0
  -22.7460  -29.5830   22.9620 C   0  0  0  0  0  0  0  0  0  0  0  0
  -21.4390  -29.3840   22.7400 N   0  0  0  0  0  0  0  0  0  0  0  0
  -23.4060  -28.8810   23.7340 O   0  0  0  0  0  0  0  0  0  0  0  0
  -20.9700  -30.0050   22.0970 H   0  0  0  0  0  0  0  0  0  0  0  0
  -18.1940  -27.8030   22.6170 C   0  0  0  0  0  0  0  0  0  0  0  0
  -20.6140  -28.3390   23.3490 C   0  0  0  0  0  3  0  0  0  0  0  0
  -20.9810  -26.9450   22.7940 C   0  0  0  0  0  2  0  0  0  0  0  0
  -20.1230  -26.5240   21.5960 C   0  0  0  0  0  2  0  0  0  0  0  0
  -18.6420  -26.5000   21.9780 C   0  0  0  0  0  2  0  0  0  0  0  0
  -19.1230  -28.6720   23.2460 C   0  0  0  0  0  0  0  0  0  0  0  0
  -18.6590  -29.8920   23.7830 C   0  0  0  0  0  3  0  0  0  0  0  0
  -17.2950  -30.2360   23.7240 C   0  0  0  0  0  3  0  0  0  0  0  0
  -16.3790  -29.3630   23.1150 C   0  0  0  0  0  3  0  0  0  0  0  0
  -16.8290  -28.1540   22.5600 C   0  0  0  0  0  3  0  0  0  0  0  0
  -26.3420  -31.9580   24.4900 C   0  0  0  0  0  3  0  0  0  0  0  0
  -26.3250  -33.3810   24.8490 N   0  0  0  0  0  0  0  0  0  0  0  0
  -26.9240  -34.3480   24.1410 C   0  0  0  0  0  0  0  0  0  0  0  0
  -27.6200  -34.1210   23.1460 O   0  0  0  0  0  0  0  0  0  0  0  0
  -25.7190  -33.6490   25.6080 H   0  0  0  0  0  0  0  0  0  0  0  0
  -25.6820  -36.5000   23.7350 C   0  0  0  0  0  1  0  0  0  0  0  0
  -26.7230  -35.7980   24.6170 C   0  0  0  0  0  3  0  0  0  0  0  0
  -28.9200  -36.1610   25.6530 C   0  0  0  0  0  1  0  0  0  0  0  0
  -27.9700  -36.5950   24.6330 N   0  0  0  0  0  0  0  0  0  0  0  0
  -27.7640  -37.5770   24.7900 H   0  0  0  0  0  0  0  0  0  0  0  0
  -26.7440  -31.0740   25.7330 C   0  0  1  0  0  0  0  0  0  0  0  0
  -25.6690  -31.0330   26.8430 C   0  0  0  0  0  1  0  0  0  0  0  0
  -27.0130  -29.6180   25.2880 C   0  0  0  0  0  1  0  0  0  0  0  0
  -28.0600  -31.5970   26.3540 C   0  0  0  0  0  1  0  0  0  0  0  0
  1  2  1  0
  1 51  1  0
  3  2  1  0
  4  5  2  0
  4  3  1  0
  6  9  1  0
  6  5  1  0
  7  6  1  0
  8  6  1  0
  9 10  1  0
 10 11  2  0
 11 12  1  0
 12 21  1  0
 13 19  1  0
 13 18  1  6
 14 13  1  0
 15 16  1  0
 16 17  1  0
 17 26  1  0
 20 13  1  0
 21 22  1  0
 23 26  1  0
 23 24  2  0
 24 25  1  0
 25 27  2  0
 26 27  1  0
 28 25  1  0
 28 29  1  0
 30 29  2  0
 31 30  1  0
 32 33  1  0
 32 31  2  0
 33 28  2  0
 34 31  1  0
 34 35  1  0
 35 40  2  0
 35 36  1  0
 36 37  2  0
 37 38  1  0
 38 42  1  0
 39 38  2  0
 40 39  1  0
 41 40  1  0
 43 24  1  0
 43 44  1  0
 44 47  1  0
 44 46  1  0
 45 43  2  0
 48 23  1  0
 49 48  1  0
 50 48  1  0
 52 51  1  0
 52 53  1  0
 53 54  1  0
 55 53  1  0
 56 57  1  0
 56 53  1  0
 58 59  1  0
 58 57  2  0
 59 61  1  0
 60 71  2  0
 61 66  1  0
 62 70  1  0
 62 72  1  0
 63 69  1  0
 63 65  1  0
 64 70  1  0
 65 64  1  0
 66 65  2  0
 67 68  1  0
 67 61  2  0
 68 63  2  0
 69 62  1  0
 70 60  1  0
 72 74  2  0
 73 72  1  0
 75 73  1  0
 76 81  1  0
 77 73  1  0
 78 77  1  0
 79 80  1  0
 79 78  1  0
 80 76  1  0
 81 77  1  0
 81 82  2  0
 83 82  1  0
 84 83  2  0
 85 76  2  0
 85 84  1  0
 86 60  1  0
 86 87  1  0
 86 96  1  0
 87 90  1  0
 88 92  1  0
 88 87  1  0
 89 88  2  0
 92 91  1  0
 92 94  1  0
 94 95  1  0
 94 93  1  0
 96 99  1  1
 96 97  1  0
 98 96  1  0
M  ISO  4  13 100  21 100  58 101  59 101
M  END
>  <TORSDO>  (77) 
F 31

>  <SCORE>  (77) 
-5.168

>  <name>  (77) 
80

>  <ligand_id>  (77) 
80

>  <original_smiles>  (77) 
[H]c1c([H])c([H])c2c(c1[H])C([H])([H])C([H])([H])C([H])([H])C2([H])N([H])C(=O)C1([H])N(C(=O)C([H])(N([H])C(=O)C([H])(N([H])C([H])([H])[H])C([H])([H])[H])C(C([H])([H])[H])(C([H])([H])[H])C([H])([H])[H])C([H])([H])c2c([H])c(OC([H])([H])C([H])([H])C([H])([H])[N+]([H])([H])C([H])([H])C([H])([H])C([H])([H])OC([H])([H])C([H])([H])C([H])([H])[N+]([H])([H])C([H])([H])C([H])([H])C([H])([H])C([H])([H])N([H])C(=O)N3C([H])([H])C([H])([H])C([H])([H])C([H])(n4nc(-c5c([H])c([H])c(Oc6c([H])c([H])c(F)c([H])c6F)c([H])c5[H])c(C(=O)N([H])[H])c4N([H])[H])C3([H])[H])c([H])c([H])c2C1([H])[H]

>  <smiles>  (77) 
[H]c1c([H])c([H])c2c(c1[H])C([H])([H])C([H])([H])C([H])([H])C2([H])N([H])C(=O)C1([H])N(C(=O)C([H])(N([H])C(=O)C([H])(N([H])C([H])([H])[H])C([H])([H])[H])C(C([H])([H])[H])(C([H])([H])[H])C([H])([H])[H])C([H])([H])c2c([H])c(OC([H])([H])C([H])([H])C([H])([H])[N+]([H])([H])C([H])([H])C([H])([H])C([H])([H])OC([H])([H])C([H])([H])C([H])([H])[N+]([H])([H])C([H])([H])C([H])([H])C([H])([H])C([H])([H])N([H])C(=O)N3C([H])([H])C([H])([H])C([H])([H])C([H])(n4nc(-c5c([H])c([H])c(Oc6c([H])c([H])c(F)c([H])c6F)c([H])c5[H])c(C(=O)N([H])[H])c4N([H])[H])C3([H])[H])c([H])c([H])c2C1([H])[H]

$$$$
81:0:0
     RDKit          3D

100107  0  0  1  0  0  0  0  0999 V2000
  -29.4500  -22.3660   14.3550 C   0  0  0  0  0  2  0  0  0  0  0  0
  -29.6890  -21.1100   15.1050 N   0  0  0  0  0  4  0  0  0  0  0  0
  -29.5060  -21.2510   16.0850 H   0  0  0  0  0  0  0  0  0  0  0  0
  -30.6640  -20.8670   15.0150 H   0  0  0  0  0  0  0  0  0  0  0  0
  -28.8670  -19.9640   14.6500 C   0  0  0  0  0  2  0  0  0  0  0  0
  -29.2860  -18.6470   15.3200 C   0  0  0  0  0  2  0  0  0  0  0  0
  -29.1520  -18.7200   16.7400 O   0  0  0  0  0  0  0  0  0  0  0  0
  -29.4610  -17.4680   17.3530 C   0  0  0  0  0  2  0  0  0  0  0  0
  -28.7900  -17.3180   18.7260 C   0  0  0  0  0  2  0  0  0  0  0  0
  -29.7210  -17.4570   19.7970 O   0  0  0  0  0  0  0  0  0  0  0  0
  -29.1500  -17.0690   21.0450 C   0  0  0  0  0  2  0  0  0  0  0  0
  -30.2170  -16.9520   22.1430 C   0  0  0  0  0  2  0  0  0  0  0  0
  -31.3380  -15.9320   21.8610 C   0  0  0  0  0  2  0  0  0  0  0  0
  -31.3920  -13.6850   20.8060 C   0  0  0  0  0  0  0  0  0  0  0  0
  -30.9470  -11.6940   19.4240 C   0  0  0  0  0  2  0  0  0  0  0  0
  -30.0670  -12.0770   18.2200 C   0  0  0  0  0  2  0  0  0  0  0  0
  -28.5750  -12.0270   18.5960 C   0  0  0  0  0  2  0  0  0  0  0  0
  -28.2660  -12.7980   19.9050 C   0  0  0  0  0  3  0  0  0  0  0  0
  -29.2490  -12.3760   21.0230 C   0  0  0  0  0  2  0  0  0  0  0  0
  -30.6220  -12.6010   20.5330 N   0  0  0  0  0  0  0  0  0  0  0  0
  -32.4910  -13.8870   20.2790 O   0  0  0  0  0  0  0  0  0  0  0  0
  -30.8420  -14.5720   21.6430 N   0  0  0  0  0  0  0  0  0  0  0  0
  -29.9750  -14.3050   22.0860 H   0  0  0  0  0  0  0  0  0  0  0  0
  -25.8800  -13.5680   20.5020 C   0  0  0  0  0  0  0  0  0  0  0  0
  -24.7480  -12.8700   20.8180 C   0  0  0  0  0  0  0  0  0  0  0  0
  -25.1150  -11.4910   20.7910 C   0  0  0  0  0  0  0  0  0  0  0  0
  -26.8740  -12.6210   20.3140 N   0  0  0  0  0  0  0  0  0  0  0  0
  -26.4140  -11.3660   20.5430 N   0  0  0  0  0  0  0  0  0  0  0  0
  -24.2980  -10.2810   20.9320 C   0  0  0  0  0  0  0  0  0  0  0  0
  -24.6260   -9.2740   21.8660 C   0  0  0  0  0  3  0  0  0  0  0  0
  -23.8140   -8.1280   21.9980 C   0  0  0  0  0  3  0  0  0  0  0  0
  -22.6580   -7.9820   21.1950 C   0  0  0  0  0  0  0  0  0  0  0  0
  -22.3460   -8.9770   20.2520 C   0  0  0  0  0  3  0  0  0  0  0  0
  -23.1590  -10.1150   20.1190 C   0  0  0  0  0  3  0  0  0  0  0  0
  -21.8240   -6.8910   21.2370 O   0  0  0  0  0  0  0  0  0  0  0  0
  -21.6540   -6.1600   22.3850 C   0  0  0  0  0  0  0  0  0  0  0  0
  -21.2130   -6.7520   23.5880 C   0  0  0  0  0  3  0  0  0  0  0  0
  -20.9840   -5.9500   24.7230 C   0  0  0  0  0  3  0  0  0  0  0  0
  -21.1880   -4.5570   24.6570 C   0  0  0  0  0  0  0  0  0  0  0  0
  -21.6220   -3.9680   23.4560 C   0  0  0  0  0  3  0  0  0  0  0  0
  -21.8520   -4.7670   22.3230 C   0  0  0  0  0  0  0  0  0  0  0  0
  -22.2510   -4.1910   21.1630 F   0  0  0  0  0  0  0  0  0  0  0  0
  -20.9590   -3.7850   25.7450 F   0  0  0  0  0  0  0  0  0  0  0  0
  -23.3760  -13.4420   21.0340 C   0  0  0  0  0  0  0  0  0  0  0  0
  -22.5770  -12.8110   21.8840 N   0  0  0  0  0  0  0  0  0  0  0  0
  -23.0240  -14.4840   20.4800 O   0  0  0  0  0  0  0  0  0  0  0  0
  -22.8760  -11.9670   22.3540 H   0  0  0  0  0  0  0  0  0  0  0  0
  -21.6540  -13.1790   22.0700 H   0  0  0  0  0  0  0  0  0  0  0  0
  -26.1360  -14.9230   20.3450 N   0  0  0  0  0  0  0  0  0  0  0  0
  -25.4000  -15.6150   20.4110 H   0  0  0  0  0  0  0  0  0  0  0  0
  -27.0210  -15.3040   20.0410 H   0  0  0  0  0  0  0  0  0  0  0  0
  -30.2740  -23.5520   14.9000 C   0  0  0  0  0  2  0  0  0  0  0  0
  -29.5850  -24.2880   16.0640 C   0  0  0  0  0  2  0  0  0  0  0  0
  -30.5400  -25.2020   16.8580 C   0  0  0  0  0  2  0  0  0  0  0  0
  -29.8100  -25.9710   17.8890 N   0  0  0  0  0  4  0  0  0  0  0  0
  -29.0150  -25.4300   18.1910 H   0  0  0  0  0  0  0  0  0  0  0  0
  -29.4530  -26.8170   17.4680 H   0  0  0  0  0  0  0  0  0  0  0  0
  -30.5820  -26.3100   19.1070 C   0  0  0  0  0  2  0  0  0  0  0  0
  -29.7360  -27.1740   20.0580 C   0  0  0  0  0  2  0  0  0  0  0  0
  -28.5170  -26.4640   20.2850 O   0  0  0  0  0  0  0  0  0  0  0  0
  -24.5600  -31.6520   23.2100 C   0  0  0  0  0  0  0  0  0  0  0  0
  -27.3580  -27.2050   20.3060 C   0  0  0  0  0  0  0  0  0  0  0  0
  -23.4120  -30.1910   21.5710 C   0  0  0  0  0  3  0  0  0  0  0  0
  -24.9250  -28.6340   20.2330 C   0  0  0  0  0  0  0  0  0  0  0  0
  -25.9330  -30.5880   21.4310 C   0  0  0  0  0  2  0  0  0  0  0  0
  -26.0570  -29.2050   20.8300 C   0  0  0  0  0  0  0  0  0  0  0  0
  -27.2760  -28.4990   20.8690 C   0  0  0  0  0  3  0  0  0  0  0  0
  -26.2060  -26.6280   19.7360 C   0  0  0  0  0  3  0  0  0  0  0  0
  -24.9940  -27.3400   19.6840 C   0  0  0  0  0  3  0  0  0  0  0  0
  -23.6670  -29.4700   20.2200 C   0  0  0  0  0  2  0  0  0  0  0  0
  -24.6510  -30.8250   22.1290 N   0  0  0  0  0  0  0  0  0  0  0  0
  -23.4630  -31.9270   23.7140 O   0  0  0  0  0  0  0  0  0  0  0  0
  -22.7470  -29.1910   22.5440 C   0  0  0  0  0  0  0  0  0  0  0  0
  -21.4250  -29.0110   22.4000 N   0  0  0  0  0  0  0  0  0  0  0  0
  -23.4170  -28.5780   23.3780 O   0  0  0  0  0  0  0  0  0  0  0  0
  -20.9490  -29.5540   21.6930 H   0  0  0  0  0  0  0  0  0  0  0  0
  -18.0380  -27.8520   22.8790 C   0  0  0  0  0  0  0  0  0  0  0  0
  -20.5930  -28.0900   23.1750 C   0  0  0  0  0  3  0  0  0  0  0  0
  -20.6900  -26.6510   22.6170 C   0  0  0  0  0  2  0  0  0  0  0  0
  -19.5950  -26.3250   21.5960 C   0  0  0  0  0  2  0  0  0  0  0  0
  -18.2090  -26.4920   22.2240 C   0  0  0  0  0  2  0  0  0  0  0  0
  -19.1570  -28.6090   23.3110 C   0  0  0  0  0  0  0  0  0  0  0  0
  -18.9460  -29.8850   23.8810 C   0  0  0  0  0  3  0  0  0  0  0  0
  -17.6450  -30.4000   24.0250 C   0  0  0  0  0  3  0  0  0  0  0  0
  -16.5380  -29.6390   23.6120 C   0  0  0  0  0  3  0  0  0  0  0  0
  -16.7350  -28.3680   23.0440 C   0  0  0  0  0  3  0  0  0  0  0  0
  -25.8270  -32.3090   23.8460 C   0  0  0  0  0  3  0  0  0  0  0  0
  -25.5230  -33.7270   24.0680 N   0  0  0  0  0  0  0  0  0  0  0  0
  -25.9100  -34.7230   23.2590 C   0  0  0  0  0  0  0  0  0  0  0  0
  -26.6330  -34.5440   22.2760 O   0  0  0  0  0  0  0  0  0  0  0  0
  -24.8930  -33.9420   24.8270 H   0  0  0  0  0  0  0  0  0  0  0  0
  -24.2340  -36.5060   22.6920 C   0  0  0  0  0  1  0  0  0  0  0  0
  -25.4190  -36.1430   23.6000 C   0  0  0  0  0  3  0  0  0  0  0  0
  -27.5150  -37.0550   24.4950 C   0  0  0  0  0  1  0  0  0  0  0  0
  -26.4730  -37.1740   23.4780 N   0  0  0  0  0  0  0  0  0  0  0  0
  -26.0740  -38.1060   23.5430 H   0  0  0  0  0  0  0  0  0  0  0  0
  -26.2780  -31.6170   25.1890 C   0  0  1  0  0  0  0  0  0  0  0  0
  -25.1340  -31.4540   26.2180 C   0  0  0  0  0  1  0  0  0  0  0  0
  -26.8670  -30.2140   24.9090 C   0  0  0  0  0  1  0  0  0  0  0  0
  -27.4050  -32.4420   25.8530 C   0  0  0  0  0  1  0  0  0  0  0  0
  1 52  1  0
  1  2  1  0
  2  3  1  0
  4  2  1  0
  5  2  1  0
  5  6  1  0
  6  7  1  0
  7  8  1  0
  8  9  1  0
  9 10  1  0
 10 11  1  0
 11 12  1  0
 13 12  1  0
 14 22  1  0
 15 20  1  0
 16 17  1  0
 16 15  1  0
 18 17  1  0
 18 27  1  0
 18 19  1  0
 20 14  1  0
 20 19  1  0
 21 14  2  0
 22 13  1  0
 22 23  1  0
 24 25  2  0
 25 44  1  0
 26 25  1  0
 26 29  1  0
 27 24  1  0
 27 28  1  0
 28 26  2  0
 29 30  1  0
 30 31  2  0
 32 35  1  0
 32 31  1  0
 33 32  2  0
 34 33  1  0
 34 29  2  0
 35 36  1  0
 36 37  1  0
 37 38  2  0
 39 38  1  0
 39 43  1  0
 40 39  2  0
 41 36  2  0
 41 40  1  0
 42 41  1  0
 44 45  1  0
 45 48  1  0
 45 47  1  0
 46 44  2  0
 49 50  1  0
 49 24  1  0
 51 49  1  0
 52 53  1  0
 53 54  1  0
 54 55  1  0
 55 56  1  0
 55 58  1  0
 57 55  1  0
 58 59  1  0
 59 60  1  0
 60 62  1  0
 61 72  2  0
 62 67  1  0
 63 71  1  0
 63 73  1  0
 64 66  1  0
 65 71  1  0
 66 67  2  0
 66 65  1  0
 68 62  2  0
 69 68  1  0
 69 64  2  0
 70 64  1  0
 70 63  1  0
 71 61  1  0
 73 75  2  0
 74 73  1  0
 76 74  1  0
 77 86  2  0
 77 82  1  0
 78 74  1  0
 78 82  1  0
 79 78  1  0
 80 81  1  0
 80 79  1  0
 81 77  1  0
 82 83  2  0
 83 84  1  0
 85 84  2  0
 86 85  1  0
 87 61  1  0
 87 88  1  0
 87 97  1  0
 88 91  1  0
 89 93  1  0
 89 88  1  0
 90 89  2  0
 93 92  1  0
 95 96  1  0
 95 93  1  0
 95 94  1  0
 97100  1  1
 97 98  1  0
 99 97  1  0
M  ISO  4  14 100  22 100  59 101  60 101
M  END
>  <TORSDO>  (78) 
F 32

>  <SCORE>  (78) 
-8.002

>  <name>  (78) 
81

>  <ligand_id>  (78) 
81

>  <original_smiles>  (78) 
[H]c1c([H])c([H])c2c(c1[H])C([H])([H])C([H])([H])C([H])([H])C2([H])N([H])C(=O)C1([H])N(C(=O)C([H])(N([H])C(=O)C([H])(N([H])C([H])([H])[H])C([H])([H])[H])C(C([H])([H])[H])(C([H])([H])[H])C([H])([H])[H])C([H])([H])c2c([H])c(OC([H])([H])C([H])([H])[N+]([H])([H])C([H])([H])C([H])([H])C([H])([H])C([H])([H])[N+]([H])([H])C([H])([H])C([H])([H])OC([H])([H])C([H])([H])OC([H])([H])C([H])([H])C([H])([H])N([H])C(=O)N3C([H])([H])C([H])([H])C([H])([H])C([H])(n4nc(-c5c([H])c([H])c(Oc6c([H])c([H])c(F)c([H])c6F)c([H])c5[H])c(C(=O)N([H])[H])c4N([H])[H])C3([H])[H])c([H])c([H])c2C1([H])[H]

>  <smiles>  (78) 
[H]c1c([H])c([H])c2c(c1[H])C([H])([H])C([H])([H])C([H])([H])C2([H])N([H])C(=O)C1([H])N(C(=O)C([H])(N([H])C(=O)C([H])(N([H])C([H])([H])[H])C([H])([H])[H])C(C([H])([H])[H])(C([H])([H])[H])C([H])([H])[H])C([H])([H])c2c([H])c(OC([H])([H])C([H])([H])[N+]([H])([H])C([H])([H])C([H])([H])C([H])([H])C([H])([H])[N+]([H])([H])C([H])([H])C([H])([H])OC([H])([H])C([H])([H])OC([H])([H])C([H])([H])C([H])([H])N([H])C(=O)N3C([H])([H])C([H])([H])C([H])([H])C([H])(n4nc(-c5c([H])c([H])c(Oc6c([H])c([H])c(F)c([H])c6F)c([H])c5[H])c(C(=O)N([H])[H])c4N([H])[H])C3([H])[H])c([H])c([H])c2C1([H])[H]

$$$$
82:0:0
     RDKit          3D

104111  0  0  1  0  0  0  0  0999 V2000
  -24.5480  -23.6020   22.6450 C   0  0  0  0  0  2  0  0  0  0  0  0
  -24.0160  -22.6440   21.5580 C   0  0  0  0  0  2  0  0  0  0  0  0
  -25.0800  -22.1690   20.5570 C   0  0  0  0  0  2  0  0  0  0  0  0
  -25.4340  -23.2170   19.6690 O   0  0  0  0  0  0  0  0  0  0  0  0
  -26.2230  -22.7480   18.5780 C   0  0  0  0  0  2  0  0  0  0  0  0
  -26.5930  -23.9640   17.7240 C   0  0  0  0  0  2  0  0  0  0  0  0
  -27.2850  -24.9570   18.5700 N   0  0  0  0  0  4  0  0  0  0  0  0
  -26.6730  -25.0890   19.3660 H   0  0  0  0  0  0  0  0  0  0  0  0
  -28.1470  -24.5600   18.9130 H   0  0  0  0  0  0  0  0  0  0  0  0
  -27.5670  -26.2640   17.9330 C   0  0  0  0  0  2  0  0  0  0  0  0
  -28.0150  -27.2880   18.9920 C   0  0  0  0  0  2  0  0  0  0  0  0
  -27.8290  -28.6360   18.5630 O   0  0  0  0  0  0  0  0  0  0  0  0
  -24.6670  -32.2530   23.7890 C   0  0  0  0  0  0  0  0  0  0  0  0
  -26.6720  -29.2300   19.0050 C   0  0  0  0  0  0  0  0  0  0  0  0
  -23.1690  -31.3680   22.0330 C   0  0  0  0  0  3  0  0  0  0  0  0
  -24.3190  -30.4620   19.9520 C   0  0  0  0  0  0  0  0  0  0  0  0
  -25.6020  -31.9530   21.4970 C   0  0  0  0  0  2  0  0  0  0  0  0
  -25.5670  -30.8640   20.4440 C   0  0  0  0  0  0  0  0  0  0  0  0
  -26.7460  -30.2620   19.9620 C   0  0  0  0  0  3  0  0  0  0  0  0
  -25.4040  -28.8220   18.5270 C   0  0  0  0  0  3  0  0  0  0  0  0
  -24.2320  -29.4340   18.9990 C   0  0  0  0  0  3  0  0  0  0  0  0
  -23.1050  -31.1780   20.4960 C   0  0  0  0  0  2  0  0  0  0  0  0
  -24.5100  -31.8520   22.4950 N   0  0  0  0  0  0  0  0  0  0  0  0
  -23.7100  -32.2650   24.5770 O   0  0  0  0  0  0  0  0  0  0  0  0
  -22.7210  -30.0520   22.7080 C   0  0  0  0  0  0  0  0  0  0  0  0
  -21.4280  -29.7160   22.5580 N   0  0  0  0  0  0  0  0  0  0  0  0
  -23.5260  -29.3470   23.3200 O   0  0  0  0  0  0  0  0  0  0  0  0
  -20.8310  -30.3510   22.0520 H   0  0  0  0  0  0  0  0  0  0  0  0
  -18.3460  -27.8310   22.5720 C   0  0  0  0  0  0  0  0  0  0  0  0
  -20.7900  -28.5040   23.0750 C   0  0  0  0  0  3  0  0  0  0  0  0
  -21.1960  -27.2640   22.2460 C   0  0  0  0  0  2  0  0  0  0  0  0
  -20.2150  -26.9460   21.1130 C   0  0  0  0  0  2  0  0  0  0  0  0
  -18.8090  -26.7010   21.6680 C   0  0  0  0  0  2  0  0  0  0  0  0
  -19.2760  -28.6880   23.2190 C   0  0  0  0  0  0  0  0  0  0  0  0
  -18.7910  -29.7450   24.0180 C   0  0  0  0  0  3  0  0  0  0  0  0
  -17.4080  -29.9480   24.1820 C   0  0  0  0  0  3  0  0  0  0  0  0
  -16.4930  -29.0870   23.5540 C   0  0  0  0  0  3  0  0  0  0  0  0
  -16.9610  -28.0310   22.7540 C   0  0  0  0  0  3  0  0  0  0  0  0
  -26.0470  -32.7340   24.3350 C   0  0  0  0  0  3  0  0  0  0  0  0
  -25.8490  -34.0650   24.9230 N   0  0  0  0  0  0  0  0  0  0  0  0
  -26.1720  -35.2180   24.3190 C   0  0  0  0  0  0  0  0  0  0  0  0
  -26.7400  -35.2650   23.2260 O   0  0  0  0  0  0  0  0  0  0  0  0
  -25.3410  -34.1060   25.7930 H   0  0  0  0  0  0  0  0  0  0  0  0
  -24.5230  -37.1140   24.4310 C   0  0  0  0  0  1  0  0  0  0  0  0
  -25.8020  -36.5250   25.0470 C   0  0  0  0  0  3  0  0  0  0  0  0
  -28.0500  -37.1550   25.8080 C   0  0  0  0  0  1  0  0  0  0  0  0
  -26.8820  -37.5350   25.0180 N   0  0  0  0  0  0  0  0  0  0  0  0
  -26.5460  -38.4290   25.3640 H   0  0  0  0  0  0  0  0  0  0  0  0
  -26.6770  -31.7480   25.3930 C   0  0  1  0  0  0  0  0  0  0  0  0
  -25.7010  -31.3450   26.5250 C   0  0  0  0  0  1  0  0  0  0  0  0
  -27.1670  -30.4520   24.7030 C   0  0  0  0  0  1  0  0  0  0  0  0
  -27.9190  -32.4010   26.0440 C   0  0  0  0  0  1  0  0  0  0  0  0
  -23.5150  -23.8620   23.7620 C   0  0  0  0  0  2  0  0  0  0  0  0
  -23.1250  -25.3380   23.9860 C   0  0  0  0  0  2  0  0  0  0  0  0
  -24.2870  -26.2090   24.2770 N   0  0  0  0  0  4  0  0  0  0  0  0
  -25.1230  -25.6460   24.3340 H   0  0  0  0  0  0  0  0  0  0  0  0
  -24.1510  -26.6340   25.1830 H   0  0  0  0  0  0  0  0  0  0  0  0
  -24.5100  -27.2840   23.2830 C   0  0  0  0  0  2  0  0  0  0  0  0
  -25.7560  -28.1100   23.6230 C   0  0  0  0  0  2  0  0  0  0  0  0
  -26.8970  -27.2700   23.4390 O   0  0  0  0  0  0  0  0  0  0  0  0
  -28.0950  -28.0000   23.2050 C   0  0  0  0  0  2  0  0  0  0  0  0
  -29.2910  -27.0530   22.9800 C   0  0  0  0  0  2  0  0  0  0  0  0
  -30.6200  -27.8350   23.0070 C   0  0  0  0  0  2  0  0  0  0  0  0
  -31.8710  -27.0760   22.5230 C   0  0  0  0  0  2  0  0  0  0  0  0
  -32.0450  -26.9350   20.9970 C   0  0  0  0  0  2  0  0  0  0  0  0
  -33.5260  -27.1310   20.5890 C   0  0  0  0  0  2  0  0  0  0  0  0
  -33.8540  -28.7450   18.6830 C   0  0  0  0  0  0  0  0  0  0  0  0
  -34.5090  -30.0440   16.6780 C   0  0  0  0  0  2  0  0  0  0  0  0
  -33.2990  -30.3890   15.7880 C   0  0  0  0  0  2  0  0  0  0  0  0
  -32.9870  -29.2340   14.8170 C   0  0  0  0  0  2  0  0  0  0  0  0
  -32.9150  -27.8600   15.5330 C   0  0  0  0  0  3  0  0  0  0  0  0
  -34.1470  -27.6500   16.4340 C   0  0  0  0  0  2  0  0  0  0  0  0
  -34.2290  -28.7800   17.3800 N   0  0  0  0  0  0  0  0  0  0  0  0
  -33.7340  -29.7610   19.3790 O   0  0  0  0  0  0  0  0  0  0  0  0
  -33.7000  -27.5060   19.1850 N   0  0  0  0  0  0  0  0  0  0  0  0
  -33.8520  -26.7540   18.5300 H   0  0  0  0  0  0  0  0  0  0  0  0
  -32.8660  -25.3980   14.7850 C   0  0  0  0  0  0  0  0  0  0  0  0
  -32.5600  -24.8140   13.5850 C   0  0  0  0  0  0  0  0  0  0  0  0
  -32.2620  -25.8860   12.6890 C   0  0  0  0  0  0  0  0  0  0  0  0
  -32.7560  -26.7640   14.5800 N   0  0  0  0  0  0  0  0  0  0  0  0
  -32.4410  -27.0550   13.2920 N   0  0  0  0  0  0  0  0  0  0  0  0
  -31.7620  -25.8670   11.3070 C   0  0  0  0  0  0  0  0  0  0  0  0
  -32.1470  -26.8510   10.3700 C   0  0  0  0  0  3  0  0  0  0  0  0
  -31.6700  -26.8030    9.0430 C   0  0  0  0  0  3  0  0  0  0  0  0
  -30.8020  -25.7610    8.6390 C   0  0  0  0  0  0  0  0  0  0  0  0
  -30.4040  -24.7960    9.5800 C   0  0  0  0  0  3  0  0  0  0  0  0
  -30.8740  -24.8480   10.9020 C   0  0  0  0  0  3  0  0  0  0  0  0
  -30.2670  -25.6480    7.3790 O   0  0  0  0  0  0  0  0  0  0  0  0
  -30.6620  -26.4690    6.3540 C   0  0  0  0  0  0  0  0  0  0  0  0
  -31.9680  -26.4190    5.8190 C   0  0  0  0  0  3  0  0  0  0  0  0
  -32.3100  -27.2310    4.7200 C   0  0  0  0  0  3  0  0  0  0  0  0
  -31.3480  -28.0860    4.1480 C   0  0  0  0  0  0  0  0  0  0  0  0
  -30.0460  -28.1320    4.6750 C   0  0  0  0  0  3  0  0  0  0  0  0
  -29.7030  -27.3230    5.7730 C   0  0  0  0  0  0  0  0  0  0  0  0
  -28.4410  -27.3560    6.2650 F   0  0  0  0  0  0  0  0  0  0  0  0
  -31.6740  -28.8590    3.0860 F   0  0  0  0  0  0  0  0  0  0  0  0
  -32.4550  -23.3430   13.3060 C   0  0  0  0  0  0  0  0  0  0  0  0
  -32.7700  -22.9250   12.0840 N   0  0  0  0  0  0  0  0  0  0  0  0
  -32.1360  -22.5470   14.1880 O   0  0  0  0  0  0  0  0  0  0  0  0
  -33.0460  -23.5800   11.3670 H   0  0  0  0  0  0  0  0  0  0  0  0
  -32.7270  -21.9400   11.8610 H   0  0  0  0  0  0  0  0  0  0  0  0
  -33.2100  -24.8890   16.0330 N   0  0  0  0  0  0  0  0  0  0  0  0
  -33.2310  -23.8950   16.2330 H   0  0  0  0  0  0  0  0  0  0  0  0
  -33.3760  -25.4620   16.8510 H   0  0  0  0  0  0  0  0  0  0  0  0
  1 53  1  0
  2  1  1  0
  3  2  1  0
  4  3  1  0
  5  4  1  0
  6  7  1  0
  6  5  1  0
  7  9  1  0
  7  8  1  0
 10  7  1  0
 10 11  1  0
 12 11  1  0
 12 14  1  0
 13 24  2  0
 14 19  1  0
 15 23  1  0
 15 25  1  0
 16 18  1  0
 16 22  1  0
 17 23  1  0
 18 17  1  0
 19 18  2  0
 20 21  1  0
 20 14  2  0
 21 16  2  0
 22 15  1  0
 23 13  1  0
 25 27  2  0
 26 25  1  0
 28 26  1  0
 29 38  2  0
 29 34  1  0
 30 26  1  0
 30 34  1  0
 31 30  1  0
 32 33  1  0
 32 31  1  0
 33 29  1  0
 34 35  2  0
 35 36  1  0
 37 36  2  0
 38 37  1  0
 39 13  1  0
 39 40  1  0
 39 49  1  0
 40 43  1  0
 41 40  1  0
 41 45  1  0
 42 41  2  0
 45 44  1  0
 47 45  1  0
 47 48  1  0
 47 46  1  0
 49 52  1  1
 49 50  1  0
 51 49  1  0
 53 54  1  0
 54 55  1  0
 55 56  1  0
 55 57  1  0
 58 59  1  0
 58 55  1  0
 60 59  1  0
 61 60  1  0
 62 63  1  0
 62 61  1  0
 64 63  1  0
 65 64  1  0
 66 65  1  0
 67 75  1  0
 67 74  2  0
 68 73  1  0
 69 68  1  0
 70 71  1  0
 70 69  1  0
 71 80  1  0
 71 72  1  0
 72 73  1  0
 73 67  1  0
 75 66  1  0
 76 75  1  0
 77102  1  0
 78 77  2  0
 79 81  2  0
 79 78  1  0
 80 77  1  0
 81 80  1  0
 82 79  1  0
 83 82  2  0
 84 83  1  0
 85 84  2  0
 85 86  1  0
 86 87  2  0
 87 82  1  0
 88 85  1  0
 89 88  1  0
 90 89  1  0
 91 90  2  0
 92 93  2  0
 92 91  1  0
 93 94  1  0
 94 95  1  0
 94 89  2  0
 96 92  1  0
 97 78  1  0
 97 99  2  0
 98 97  1  0
100 98  1  0
101 98  1  0
102103  1  0
102104  1  0
M  ISO  4  11 101  12 101  67 100  75 100
M  END
>  <TORSDO>  (79) 
F 36

>  <SCORE>  (79) 
1.456

>  <name>  (79) 
82

>  <ligand_id>  (79) 
82

>  <original_smiles>  (79) 
[H]c1c([H])c([H])c2c(c1[H])C([H])([H])C([H])([H])C([H])([H])C2([H])N([H])C(=O)C1([H])N(C(=O)C([H])(N([H])C(=O)C([H])(N([H])C([H])([H])[H])C([H])([H])[H])C(C([H])([H])[H])(C([H])([H])[H])C([H])([H])[H])C([H])([H])c2c([H])c(OC([H])([H])C([H])([H])[N+]([H])([H])C([H])([H])C([H])([H])OC([H])([H])C([H])([H])C([H])([H])C([H])([H])C([H])([H])[N+]([H])([H])C([H])([H])C([H])([H])OC([H])([H])C([H])([H])C([H])([H])C([H])([H])C([H])([H])C([H])([H])N([H])C(=O)N3C([H])([H])C([H])([H])C([H])([H])C([H])(n4nc(-c5c([H])c([H])c(Oc6c([H])c([H])c(F)c([H])c6F)c([H])c5[H])c(C(=O)N([H])[H])c4N([H])[H])C3([H])[H])c([H])c([H])c2C1([H])[H]

>  <smiles>  (79) 
[H]c1c([H])c([H])c2c(c1[H])C([H])([H])C([H])([H])C([H])([H])C2([H])N([H])C(=O)C1([H])N(C(=O)C([H])(N([H])C(=O)C([H])(N([H])C([H])([H])[H])C([H])([H])[H])C(C([H])([H])[H])(C([H])([H])[H])C([H])([H])[H])C([H])([H])c2c([H])c(OC([H])([H])C([H])([H])[N+]([H])([H])C([H])([H])C([H])([H])OC([H])([H])C([H])([H])C([H])([H])C([H])([H])C([H])([H])[N+]([H])([H])C([H])([H])C([H])([H])OC([H])([H])C([H])([H])C([H])([H])C([H])([H])C([H])([H])C([H])([H])N([H])C(=O)N3C([H])([H])C([H])([H])C([H])([H])C([H])(n4nc(-c5c([H])c([H])c(Oc6c([H])c([H])c(F)c([H])c6F)c([H])c5[H])c(C(=O)N([H])[H])c4N([H])[H])C3([H])[H])c([H])c([H])c2C1([H])[H]

$$$$
83:0:0
     RDKit          3D

 99106  0  0  1  0  0  0  0  0999 V2000
  -29.5750  -22.9860   23.0420 C   0  0  0  0  0  0  0  0  0  0  0  0
  -28.3570  -22.9460   22.4870 N   0  0  0  0  0  0  0  0  0  0  0  0
  -30.1210  -24.0500   23.3390 O   0  0  0  0  0  0  0  0  0  0  0  0
  -27.9610  -22.0340   22.2850 H   0  0  0  0  0  0  0  0  0  0  0  0
  -30.2970  -21.6640   23.2690 C   0  0  0  0  0  2  0  0  0  0  0  0
  -31.4710  -21.5520   22.3790 N   0  0  0  0  0  4  0  0  0  0  0  0
  -31.9710  -22.4230   22.4720 H   0  0  0  0  0  0  0  0  0  0  0  0
  -31.1690  -21.5100   21.4200 H   0  0  0  0  0  0  0  0  0  0  0  0
  -32.3910  -20.4350   22.6800 C   0  0  0  0  0  2  0  0  0  0  0  0
  -31.7350  -19.0350   22.6120 C   0  0  0  0  0  2  0  0  0  0  0  0
  -31.6890  -18.4070   21.2030 C   0  0  0  0  0  2  0  0  0  0  0  0
  -31.2040  -16.9470   21.2090 C   0  0  0  0  0  2  0  0  0  0  0  0
  -31.6160  -16.1700   19.9390 C   0  0  0  0  0  2  0  0  0  0  0  0
  -31.3500  -13.8130   19.1290 C   0  0  0  0  0  0  0  0  0  0  0  0
  -30.9540  -11.4100   18.6990 C   0  0  0  0  0  2  0  0  0  0  0  0
  -29.8950  -11.1580   17.6100 C   0  0  0  0  0  2  0  0  0  0  0  0
  -28.4740  -11.1790   18.2050 C   0  0  0  0  0  2  0  0  0  0  0  0
  -28.2230  -12.4330   19.0830 C   0  0  0  0  0  3  0  0  0  0  0  0
  -29.3650  -12.6110   20.1060 C   0  0  0  0  0  2  0  0  0  0  0  0
  -30.6520  -12.6770   19.3790 N   0  0  0  0  0  0  0  0  0  0  0  0
  -32.2280  -13.9030   18.2610 O   0  0  0  0  0  0  0  0  0  0  0  0
  -31.0710  -14.8170   19.9720 N   0  0  0  0  0  0  0  0  0  0  0  0
  -30.4070  -14.6090   20.7030 H   0  0  0  0  0  0  0  0  0  0  0  0
  -26.0930  -13.4070   20.1610 C   0  0  0  0  0  0  0  0  0  0  0  0
  -24.9630  -12.8080   20.6500 C   0  0  0  0  0  0  0  0  0  0  0  0
  -25.1580  -11.4030   20.4870 C   0  0  0  0  0  0  0  0  0  0  0  0
  -26.9170  -12.3740   19.7390 N   0  0  0  0  0  0  0  0  0  0  0  0
  -26.3620  -11.1600   19.9870 N   0  0  0  0  0  0  0  0  0  0  0  0
  -24.2470  -10.2770   20.7260 C   0  0  0  0  0  0  0  0  0  0  0  0
  -24.5600   -9.2570   21.6530 C   0  0  0  0  0  3  0  0  0  0  0  0
  -23.6600   -8.1940   21.8780 C   0  0  0  0  0  3  0  0  0  0  0  0
  -22.4320   -8.1440   21.1760 C   0  0  0  0  0  0  0  0  0  0  0  0
  -22.1350   -9.1490   20.2390 C   0  0  0  0  0  3  0  0  0  0  0  0
  -23.0340  -10.2050   20.0140 C   0  0  0  0  0  3  0  0  0  0  0  0
  -21.5060   -7.1360   21.3120 O   0  0  0  0  0  0  0  0  0  0  0  0
  -21.3300   -6.4750   22.5010 C   0  0  0  0  0  0  0  0  0  0  0  0
  -20.9770   -7.1560   23.6860 C   0  0  0  0  0  3  0  0  0  0  0  0
  -20.7370   -6.4310   24.8710 C   0  0  0  0  0  3  0  0  0  0  0  0
  -20.8380   -5.0270   24.8690 C   0  0  0  0  0  0  0  0  0  0  0  0
  -21.1840   -4.3450   23.6880 C   0  0  0  0  0  3  0  0  0  0  0  0
  -21.4260   -5.0690   22.5060 C   0  0  0  0  0  0  0  0  0  0  0  0
  -21.7370   -4.4070   21.3660 F   0  0  0  0  0  0  0  0  0  0  0  0
  -20.6010   -4.3290   26.0040 F   0  0  0  0  0  0  0  0  0  0  0  0
  -23.7280  -13.4990   21.1530 C   0  0  0  0  0  0  0  0  0  0  0  0
  -23.0520  -12.9140   22.1340 N   0  0  0  0  0  0  0  0  0  0  0  0
  -23.3820  -14.5940   20.7090 O   0  0  0  0  0  0  0  0  0  0  0  0
  -23.3470  -12.0260   22.5150 H   0  0  0  0  0  0  0  0  0  0  0  0
  -22.2270  -13.3610   22.5080 H   0  0  0  0  0  0  0  0  0  0  0  0
  -26.4830  -14.7380   20.0280 N   0  0  0  0  0  0  0  0  0  0  0  0
  -25.8720  -15.5070   20.2820 H   0  0  0  0  0  0  0  0  0  0  0  0
  -27.3530  -15.0430   19.6070 H   0  0  0  0  0  0  0  0  0  0  0  0
  -27.4830  -24.1040   22.2760 C   0  0  0  0  0  2  0  0  0  0  0  0
  -27.5450  -24.6890   20.8480 C   0  0  0  0  0  2  0  0  0  0  0  0
  -28.9180  -24.7010   20.2950 N   0  0  0  0  0  4  0  0  0  0  0  0
  -29.2240  -23.7430   20.2440 H   0  0  0  0  0  0  0  0  0  0  0  0
  -29.5350  -25.1680   20.9440 H   0  0  0  0  0  0  0  0  0  0  0  0
  -29.0390  -25.2950   18.9440 C   0  0  0  0  0  2  0  0  0  0  0  0
  -29.1740  -26.8280   18.9610 C   0  0  0  0  0  2  0  0  0  0  0  0
  -28.3050  -27.3470   17.9650 O   0  0  0  0  0  0  0  0  0  0  0  0
  -24.6190  -30.9490   22.9040 C   0  0  0  0  0  0  0  0  0  0  0  0
  -27.1000  -27.8100   18.4230 C   0  0  0  0  0  0  0  0  0  0  0  0
  -23.2800  -29.7750   21.1810 C   0  0  0  0  0  3  0  0  0  0  0  0
  -24.5960  -28.8270   19.2140 C   0  0  0  0  0  0  0  0  0  0  0  0
  -25.6560  -30.5580   20.6760 C   0  0  0  0  0  2  0  0  0  0  0  0
  -25.7720  -29.3890   19.7250 C   0  0  0  0  0  0  0  0  0  0  0  0
  -27.0290  -28.8810   19.3390 C   0  0  0  0  0  3  0  0  0  0  0  0
  -25.9140  -27.2480   17.9150 C   0  0  0  0  0  3  0  0  0  0  0  0
  -24.6590  -27.7490   18.3130 C   0  0  0  0  0  3  0  0  0  0  0  0
  -23.2920  -29.4480   19.6630 C   0  0  0  0  0  2  0  0  0  0  0  0
  -24.5440  -30.4340   21.6430 N   0  0  0  0  0  0  0  0  0  0  0  0
  -23.6430  -30.9230   23.6650 O   0  0  0  0  0  0  0  0  0  0  0  0
  -22.9470  -28.4810   21.9560 C   0  0  0  0  0  0  0  0  0  0  0  0
  -21.6980  -28.0100   21.8210 N   0  0  0  0  0  0  0  0  0  0  0  0
  -23.8080  -27.9070   22.6280 O   0  0  0  0  0  0  0  0  0  0  0  0
  -21.0490  -28.5450   21.2610 H   0  0  0  0  0  0  0  0  0  0  0  0
  -18.8090  -25.8500   21.9510 C   0  0  0  0  0  0  0  0  0  0  0  0
  -21.1710  -26.7870   22.4210 C   0  0  0  0  0  3  0  0  0  0  0  0
  -21.7010  -25.5320   21.6880 C   0  0  0  0  0  2  0  0  0  0  0  0
  -20.7720  -25.0450   20.5730 C   0  0  0  0  0  2  0  0  0  0  0  0
  -19.3890  -24.7050   21.1370 C   0  0  0  0  0  2  0  0  0  0  0  0
  -19.6430  -26.8360   22.5400 C   0  0  0  0  0  0  0  0  0  0  0  0
  -19.0490  -27.9000   23.2510 C   0  0  0  0  0  3  0  0  0  0  0  0
  -17.6500  -27.9840   23.3860 C   0  0  0  0  0  3  0  0  0  0  0  0
  -16.8300  -26.9940   22.8180 C   0  0  0  0  0  3  0  0  0  0  0  0
  -17.4090  -25.9300   22.1050 C   0  0  0  0  0  3  0  0  0  0  0  0
  -25.9250  -31.6150   23.4410 C   0  0  0  0  0  3  0  0  0  0  0  0
  -25.5630  -32.9400   23.9650 N   0  0  0  0  0  0  0  0  0  0  0  0
  -25.7750  -34.0960   23.3230 C   0  0  0  0  0  0  0  0  0  0  0  0
  -26.3710  -34.1640   22.2430 O   0  0  0  0  0  0  0  0  0  0  0  0
  -25.0240  -32.9550   24.8200 H   0  0  0  0  0  0  0  0  0  0  0  0
  -23.9210  -35.7930   23.3120 C   0  0  0  0  0  1  0  0  0  0  0  0
  -25.2430  -35.3840   23.9820 C   0  0  0  0  0  3  0  0  0  0  0  0
  -27.3780  -36.3040   24.7720 C   0  0  0  0  0  1  0  0  0  0  0  0
  -26.2020  -36.5100   23.9280 N   0  0  0  0  0  0  0  0  0  0  0  0
  -25.7570  -37.3780   24.2110 H   0  0  0  0  0  0  0  0  0  0  0  0
  -26.6510  -30.7550   24.5450 C   0  0  1  0  0  0  0  0  0  0  0  0
  -25.7200  -30.3020   25.6940 C   0  0  0  0  0  1  0  0  0  0  0  0
  -27.2810  -29.4900   23.9190 C   0  0  0  0  0  1  0  0  0  0  0  0
  -27.8150  -31.5650   25.1630 C   0  0  0  0  0  1  0  0  0  0  0  0
  1  5  1  0
  1  3  2  0
  2  1  1  0
  4  2  1  0
  6  7  1  0
  6  9  1  0
  6  5  1  0
  8  6  1  0
 10  9  1  0
 11 12  1  0
 11 10  1  0
 13 22  1  0
 13 12  1  0
 14 20  1  0
 14 22  1  0
 15 20  1  0
 16 17  1  0
 16 15  1  0
 18 17  1  0
 18 27  1  0
 18 19  1  0
 20 19  1  0
 21 14  2  0
 22 23  1  0
 24 25  2  0
 25 44  1  0
 26 25  1  0
 26 29  1  0
 27 28  1  0
 27 24  1  0
 28 26  2  0
 29 30  1  0
 30 31  2  0
 32 35  1  0
 32 31  1  0
 33 32  2  0
 34 33  1  0
 34 29  2  0
 35 36  1  0
 36 41  2  0
 36 37  1  0
 37 38  2  0
 39 38  1  0
 39 43  1  0
 40 39  2  0
 41 40  1  0
 42 41  1  0
 44 45  1  0
 45 48  1  0
 45 47  1  0
 46 44  2  0
 49 24  1  0
 49 50  1  0
 51 49  1  0
 52  2  1  0
 53 52  1  0
 54 53  1  0
 54 56  1  0
 55 54  1  0
 57 58  1  0
 57 54  1  0
 59 61  1  0
 59 58  1  0
 60 71  2  0
 61 66  1  0
 62 70  1  0
 62 72  1  0
 63 69  1  0
 63 65  1  0
 64 70  1  0
 65 64  1  0
 66 65  2  0
 67 68  1  0
 67 61  2  0
 68 63  2  0
 69 62  1  0
 70 60  1  0
 72 74  2  0
 73 72  1  0
 75 73  1  0
 76 85  2  0
 76 81  1  0
 77 73  1  0
 77 81  1  0
 78 77  1  0
 79 80  1  0
 79 78  1  0
 80 76  1  0
 81 82  2  0
 82 83  1  0
 84 83  2  0
 85 84  1  0
 86 60  1  0
 86 87  1  0
 86 96  1  0
 87 90  1  0
 88 87  1  0
 88 92  1  0
 89 88  2  0
 92 91  1  0
 94 92  1  0
 94 95  1  0
 94 93  1  0
 96 99  1  1
 96 97  1  0
 98 96  1  0
M  ISO  4  14 100  22 100  58 101  59 101
M  END
>  <TORSDO>  (80) 
F 28

>  <SCORE>  (80) 
-7.670

>  <name>  (80) 
83

>  <ligand_id>  (80) 
83

>  <original_smiles>  (80) 
[H]c1c([H])c([H])c2c(c1[H])C([H])([H])C([H])([H])C([H])([H])C2([H])N([H])C(=O)C1([H])N(C(=O)C([H])(N([H])C(=O)C([H])(N([H])C([H])([H])[H])C([H])([H])[H])C(C([H])([H])[H])(C([H])([H])[H])C([H])([H])[H])C([H])([H])c2c([H])c(OC([H])([H])C([H])([H])[N+]([H])([H])C([H])([H])C([H])([H])N([H])C(=O)C([H])([H])[N+]([H])([H])C([H])([H])C([H])([H])C([H])([H])C([H])([H])C([H])([H])N([H])C(=O)N3C([H])([H])C([H])([H])C([H])([H])C([H])(n4nc(-c5c([H])c([H])c(Oc6c([H])c([H])c(F)c([H])c6F)c([H])c5[H])c(C(=O)N([H])[H])c4N([H])[H])C3([H])[H])c([H])c([H])c2C1([H])[H]

>  <smiles>  (80) 
[H]c1c([H])c([H])c2c(c1[H])C([H])([H])C([H])([H])C([H])([H])C2([H])N([H])C(=O)C1([H])N(C(=O)C([H])(N([H])C(=O)C([H])(N([H])C([H])([H])[H])C([H])([H])[H])C(C([H])([H])[H])(C([H])([H])[H])C([H])([H])[H])C([H])([H])c2c([H])c(OC([H])([H])C([H])([H])[N+]([H])([H])C([H])([H])C([H])([H])N([H])C(=O)C([H])([H])[N+]([H])([H])C([H])([H])C([H])([H])C([H])([H])C([H])([H])C([H])([H])N([H])C(=O)N3C([H])([H])C([H])([H])C([H])([H])C([H])(n4nc(-c5c([H])c([H])c(Oc6c([H])c([H])c(F)c([H])c6F)c([H])c5[H])c(C(=O)N([H])[H])c4N([H])[H])C3([H])[H])c([H])c([H])c2C1([H])[H]

$$$$
84:0:0
     RDKit          3D

 97104  0  0  1  0  0  0  0  0999 V2000
  -26.6940  -20.7310   19.2450 C   0  0  0  0  0  0  0  0  0  0  0  0
  -26.2560  -21.9600   19.5340 N   0  0  0  0  0  0  0  0  0  0  0  0
  -26.0990  -19.9760   18.4750 O   0  0  0  0  0  0  0  0  0  0  0  0
  -26.7880  -22.5010   20.2000 H   0  0  0  0  0  0  0  0  0  0  0  0
  -27.9710  -20.4610   19.8780 C   0  0  0  0  0  3  0  0  0  0  0  0
  -28.7030  -19.3950   19.5090 C   0  0  0  0  0  3  0  0  0  0  0  0
  -30.0710  -19.0610   20.0700 C   0  0  0  0  0  2  0  0  0  0  0  0
  -30.0390  -17.7930   20.8220 N   0  0  0  0  0  4  0  0  0  0  0  0
  -29.6190  -17.0840   20.2460 H   0  0  0  0  0  0  0  0  0  0  0  0
  -29.4630  -17.9090   21.6400 H   0  0  0  0  0  0  0  0  0  0  0  0
  -31.3740  -17.3140   21.2390 C   0  0  0  0  0  2  0  0  0  0  0  0
  -31.3050  -15.9860   22.0180 C   0  0  0  0  0  2  0  0  0  0  0  0
  -30.7960  -14.2760   20.2710 C   0  0  0  0  0  0  0  0  0  0  0  0
  -30.3070  -12.2660   18.9280 C   0  0  0  0  0  2  0  0  0  0  0  0
  -29.3160  -12.5480   17.7840 C   0  0  0  0  0  2  0  0  0  0  0  0
  -27.8640  -12.4240   18.2770 C   0  0  0  0  0  2  0  0  0  0  0  0
  -27.6080  -13.2330   19.5730 C   0  0  0  0  0  3  0  0  0  0  0  0
  -28.6930  -12.9300   20.6300 C   0  0  0  0  0  2  0  0  0  0  0  0
  -30.0170  -13.1920   20.0320 N   0  0  0  0  0  0  0  0  0  0  0  0
  -31.7650  -14.5940   19.5760 O   0  0  0  0  0  0  0  0  0  0  0  0
  -30.4800  -14.9580   21.3780 N   0  0  0  0  0  0  0  0  0  0  0  0
  -29.6970  -14.6000   21.9080 H   0  0  0  0  0  0  0  0  0  0  0  0
  -25.2420  -13.8900   20.3570 C   0  0  0  0  0  0  0  0  0  0  0  0
  -24.1740  -13.1390   20.7680 C   0  0  0  0  0  0  0  0  0  0  0  0
  -24.6120  -11.7790   20.7300 C   0  0  0  0  0  0  0  0  0  0  0  0
  -26.2640  -12.9900   20.0960 N   0  0  0  0  0  0  0  0  0  0  0  0
  -25.8890  -11.7160   20.3760 N   0  0  0  0  0  0  0  0  0  0  0  0
  -23.8720  -10.5300   20.9520 C   0  0  0  0  0  0  0  0  0  0  0  0
  -24.3280   -9.5570   21.8680 C   0  0  0  0  0  3  0  0  0  0  0  0
  -23.5900   -8.3710   22.0780 C   0  0  0  0  0  3  0  0  0  0  0  0
  -22.3830   -8.1530   21.3730 C   0  0  0  0  0  0  0  0  0  0  0  0
  -21.9470   -9.1150   20.4460 C   0  0  0  0  0  3  0  0  0  0  0  0
  -22.6840  -10.2910   20.2330 C   0  0  0  0  0  3  0  0  0  0  0  0
  -21.6140   -7.0200   21.4940 O   0  0  0  0  0  0  0  0  0  0  0  0
  -21.6090   -6.2740   22.6440 C   0  0  0  0  0  0  0  0  0  0  0  0
  -21.2750   -6.8350   23.8960 C   0  0  0  0  0  3  0  0  0  0  0  0
  -21.2140   -6.0160   25.0420 C   0  0  0  0  0  3  0  0  0  0  0  0
  -21.4770   -4.6360   24.9370 C   0  0  0  0  0  0  0  0  0  0  0  0
  -21.8040   -4.0750   23.6900 C   0  0  0  0  0  3  0  0  0  0  0  0
  -21.8670   -4.8910   22.5460 C   0  0  0  0  0  0  0  0  0  0  0  0
  -22.1620   -4.3410   21.3440 F   0  0  0  0  0  0  0  0  0  0  0  0
  -21.4110   -3.8480   26.0340 F   0  0  0  0  0  0  0  0  0  0  0  0
  -22.7950  -13.6410   21.0860 C   0  0  0  0  0  0  0  0  0  0  0  0
  -22.0880  -12.9630   21.9830 N   0  0  0  0  0  0  0  0  0  0  0  0
  -22.3550  -14.6690   20.5740 O   0  0  0  0  0  0  0  0  0  0  0  0
  -22.4560  -12.1300   22.4180 H   0  0  0  0  0  0  0  0  0  0  0  0
  -21.1630  -13.2820   22.2390 H   0  0  0  0  0  0  0  0  0  0  0  0
  -25.4240  -15.2570   20.1630 N   0  0  0  0  0  0  0  0  0  0  0  0
  -24.6680  -15.9220   20.2820 H   0  0  0  0  0  0  0  0  0  0  0  0
  -26.2620  -15.6740   19.7800 H   0  0  0  0  0  0  0  0  0  0  0  0
  -25.1830  -22.6540   18.8260 C   0  0  0  0  0  2  0  0  0  0  0  0
  -25.6270  -23.1520   17.4300 C   0  0  0  0  0  2  0  0  0  0  0  0
  -26.5290  -24.2580   17.4940 O   0  0  0  0  0  0  0  0  0  0  0  0
  -27.8950  -23.9420   17.7580 C   0  0  0  0  0  2  0  0  0  0  0  0
  -28.3280  -24.6320   19.0630 C   0  0  0  0  0  2  0  0  0  0  0  0
  -28.6540  -26.1210   18.8660 C   0  0  0  0  0  2  0  0  0  0  0  0
  -28.4110  -26.8790   20.0520 O   0  0  0  0  0  0  0  0  0  0  0  0
  -24.6020  -31.9620   23.2540 C   0  0  0  0  0  0  0  0  0  0  0  0
  -27.2090  -27.5490   20.1170 C   0  0  0  0  0  0  0  0  0  0  0  0
  -23.3710  -30.5630   21.6260 C   0  0  0  0  0  3  0  0  0  0  0  0
  -24.8040  -29.0270   20.1880 C   0  0  0  0  0  0  0  0  0  0  0  0
  -25.8930  -30.9230   21.3980 C   0  0  0  0  0  2  0  0  0  0  0  0
  -25.9680  -29.5510   20.7640 C   0  0  0  0  0  0  0  0  0  0  0  0
  -27.1690  -28.8120   20.7420 C   0  0  0  0  0  3  0  0  0  0  0  0
  -26.0200  -27.0230   19.5600 C   0  0  0  0  0  3  0  0  0  0  0  0
  -24.8210  -27.7550   19.5930 C   0  0  0  0  0  3  0  0  0  0  0  0
  -23.5620  -29.8860   20.2440 C   0  0  0  0  0  2  0  0  0  0  0  0
  -24.6410  -31.1640   22.1510 N   0  0  0  0  0  0  0  0  0  0  0  0
  -23.5300  -32.2330   23.8110 O   0  0  0  0  0  0  0  0  0  0  0  0
  -22.7360  -29.5390   22.5920 C   0  0  0  0  0  0  0  0  0  0  0  0
  -21.4130  -29.3470   22.4720 N   0  0  0  0  0  0  0  0  0  0  0  0
  -23.4280  -28.9180   23.4040 O   0  0  0  0  0  0  0  0  0  0  0  0
  -20.9190  -29.8990   21.7840 H   0  0  0  0  0  0  0  0  0  0  0  0
  -18.0510  -28.1220   22.9730 C   0  0  0  0  0  0  0  0  0  0  0  0
  -20.6060  -28.4090   23.2490 C   0  0  0  0  0  3  0  0  0  0  0  0
  -20.7240  -26.9740   22.6880 C   0  0  0  0  0  2  0  0  0  0  0  0
  -19.6290  -26.6290   21.6730 C   0  0  0  0  0  2  0  0  0  0  0  0
  -18.2430  -26.7680   22.3090 C   0  0  0  0  0  2  0  0  0  0  0  0
  -19.1610  -28.8990   23.3990 C   0  0  0  0  0  0  0  0  0  0  0  0
  -18.9290  -30.1680   23.9750 C   0  0  0  0  0  3  0  0  0  0  0  0
  -17.6200  -30.6600   24.1300 C   0  0  0  0  0  3  0  0  0  0  0  0
  -16.5240  -29.8790   23.7220 C   0  0  0  0  0  3  0  0  0  0  0  0
  -16.7400  -28.6130   23.1500 C   0  0  0  0  0  3  0  0  0  0  0  0
  -25.8980  -32.5900   23.8560 C   0  0  0  0  0  3  0  0  0  0  0  0
  -25.5960  -33.9870   24.1920 N   0  0  0  0  0  0  0  0  0  0  0  0
  -25.9190  -35.0400   23.4300 C   0  0  0  0  0  0  0  0  0  0  0  0
  -26.5760  -34.9380   22.3890 O   0  0  0  0  0  0  0  0  0  0  0  0
  -25.0130  -34.1420   25.0010 H   0  0  0  0  0  0  0  0  0  0  0  0
  -24.1840  -36.8300   23.1020 C   0  0  0  0  0  1  0  0  0  0  0  0
  -25.4360  -36.4260   23.8960 C   0  0  0  0  0  3  0  0  0  0  0  0
  -27.5840  -37.3080   24.6930 C   0  0  0  0  0  1  0  0  0  0  0  0
  -26.4650  -37.4810   23.7710 N   0  0  0  0  0  0  0  0  0  0  0  0
  -26.0620  -38.4000   23.9300 H   0  0  0  0  0  0  0  0  0  0  0  0
  -26.4380  -31.8150   25.1190 C   0  0  1  0  0  0  0  0  0  0  0  0
  -25.3640  -31.5750   26.2050 C   0  0  0  0  0  1  0  0  0  0  0  0
  -27.0150  -30.4400   24.7110 C   0  0  0  0  0  1  0  0  0  0  0  0
  -27.5990  -32.6080   25.7630 C   0  0  0  0  0  1  0  0  0  0  0  0
  1  2  1  0
  1  5  1  0
  2  4  1  0
  3  1  2  0
  6  5  2  0
  6  7  1  0
  7  8  1  0
  8 11  1  0
  8 10  1  0
  9  8  1  0
 11 12  1  0
 13 21  1  0
 14 19  1  0
 15 16  1  0
 15 14  1  0
 17 16  1  0
 17 26  1  0
 17 18  1  0
 19 13  1  0
 19 18  1  0
 20 13  2  0
 21 22  1  0
 21 12  1  0
 23 24  2  0
 24 43  1  0
 25 24  1  0
 25 28  1  0
 26 23  1  0
 26 27  1  0
 27 25  2  0
 28 29  1  0
 29 30  2  0
 31 34  1  0
 31 30  1  0
 32 31  2  0
 33 32  1  0
 33 28  2  0
 34 35  1  0
 35 36  1  0
 36 37  2  0
 38 37  1  0
 38 42  1  0
 39 38  2  0
 40 35  2  0
 40 39  1  0
 41 40  1  0
 43 44  1  0
 44 47  1  0
 44 46  1  0
 45 43  2  0
 48 49  1  0
 48 23  1  0
 50 48  1  0
 51  2  1  0
 52 53  1  0
 52 51  1  0
 53 54  1  0
 54 55  1  0
 56 55  1  0
 56 57  1  0
 57 59  1  0
 58 69  2  0
 59 64  1  0
 60 68  1  0
 60 70  1  0
 61 67  1  0
 61 63  1  0
 62 68  1  0
 63 62  1  0
 64 63  2  0
 65 66  1  0
 65 59  2  0
 66 61  2  0
 67 60  1  0
 68 58  1  0
 70 72  2  0
 71 70  1  0
 73 71  1  0
 74 83  2  0
 74 79  1  0
 75 71  1  0
 75 79  1  0
 76 75  1  0
 77 78  1  0
 77 76  1  0
 78 74  1  0
 79 80  2  0
 80 81  1  0
 82 81  2  0
 83 82  1  0
 84 58  1  0
 84 85  1  0
 84 94  1  0
 85 88  1  0
 86 90  1  0
 86 85  1  0
 87 86  2  0
 90 89  1  0
 92 90  1  0
 92 93  1  0
 92 91  1  0
 94 97  1  1
 94 95  1  0
 96 94  1  0
M  ISO  4  13 100  21 100  56 101  57 101
M  END
>  <TORSDO>  (81) 
F 27

>  <SCORE>  (81) 
-11.184

>  <name>  (81) 
84

>  <ligand_id>  (81) 
84

>  <original_smiles>  (81) 
[H]C(C(=O)N([H])C([H])([H])C([H])([H])OC([H])([H])C([H])([H])C([H])([H])Oc1c([H])c([H])c2c(c1[H])C([H])([H])N(C(=O)C([H])(N([H])C(=O)C([H])(N([H])C([H])([H])[H])C([H])([H])[H])C(C([H])([H])[H])(C([H])([H])[H])C([H])([H])[H])C([H])(C(=O)N([H])C1([H])c3c([H])c([H])c([H])c([H])c3C([H])([H])C([H])([H])C1([H])[H])C2([H])[H])=C([H])C([H])([H])[N+]([H])([H])C([H])([H])C([H])([H])N([H])C(=O)N1C([H])([H])C([H])([H])C([H])([H])C([H])(n2nc(-c3c([H])c([H])c(Oc4c([H])c([H])c(F)c([H])c4F)c([H])c3[H])c(C(=O)N([H])[H])c2N([H])[H])C1([H])[H]

>  <smiles>  (81) 
[H]C(C(=O)N([H])C([H])([H])C([H])([H])OC([H])([H])C([H])([H])C([H])([H])Oc1c([H])c([H])c2c(c1[H])C([H])([H])N(C(=O)C([H])(N([H])C(=O)C([H])(N([H])C([H])([H])[H])C([H])([H])[H])C(C([H])([H])[H])(C([H])([H])[H])C([H])([H])[H])C([H])(C(=O)N([H])C1([H])c3c([H])c([H])c([H])c([H])c3C([H])([H])C([H])([H])C1([H])[H])C2([H])[H])=C([H])C([H])([H])[N+]([H])([H])C([H])([H])C([H])([H])N([H])C(=O)N1C([H])([H])C([H])([H])C([H])([H])C([H])(n2nc(-c3c([H])c([H])c(Oc4c([H])c([H])c(F)c([H])c4F)c([H])c3[H])c(C(=O)N([H])[H])c2N([H])[H])C1([H])[H]

$$$$
85:0:0
     RDKit          3D

102109  0  0  1  0  0  0  0  0999 V2000
  -22.9870  -21.9740   20.0190 C   0  0  0  0  0  2  0  0  0  0  0  0
  -24.9760  -23.4720   19.9640 C   0  0  0  0  0  0  0  0  0  0  0  0
  -24.1500  -22.6380   20.6050 N   0  0  0  0  0  0  0  0  0  0  0  0
  -24.8320  -23.7890   18.7800 O   0  0  0  0  0  0  0  0  0  0  0  0
  -24.3590  -22.4130   21.5670 H   0  0  0  0  0  0  0  0  0  0  0  0
  -26.1450  -24.0510   20.7540 C   0  0  0  0  0  2  0  0  0  0  0  0
  -27.1600  -24.5280   19.7980 N   0  0  0  0  0  4  0  0  0  0  0  0
  -26.5850  -24.9190   19.0610 H   0  0  0  0  0  0  0  0  0  0  0  0
  -27.6390  -23.7370   19.3960 H   0  0  0  0  0  0  0  0  0  0  0  0
  -28.1220  -25.5300   20.3140 C   0  0  0  0  0  2  0  0  0  0  0  0
  -28.7830  -26.3360   19.1710 C   0  0  0  0  0  2  0  0  0  0  0  0
  -28.6800  -27.7470   19.3670 O   0  0  0  0  0  0  0  0  0  0  0  0
  -24.6910  -31.9440   23.4400 C   0  0  0  0  0  0  0  0  0  0  0  0
  -27.4370  -28.3280   19.5090 C   0  0  0  0  0  0  0  0  0  0  0  0
  -23.4790  -30.7480   21.6430 C   0  0  0  0  0  3  0  0  0  0  0  0
  -24.9410  -29.5930   19.9050 C   0  0  0  0  0  0  0  0  0  0  0  0
  -25.9530  -31.3370   21.3810 C   0  0  0  0  0  2  0  0  0  0  0  0
  -26.0910  -30.1020   20.5180 C   0  0  0  0  0  0  0  0  0  0  0  0
  -27.3370  -29.4740   20.3250 C   0  0  0  0  0  3  0  0  0  0  0  0
  -26.2660  -27.8350   18.8810 C   0  0  0  0  0  3  0  0  0  0  0  0
  -25.0200  -28.4540   19.0870 C   0  0  0  0  0  3  0  0  0  0  0  0
  -23.6450  -30.3260   20.1590 C   0  0  0  0  0  2  0  0  0  0  0  0
  -24.7290  -31.3480   22.2150 N   0  0  0  0  0  0  0  0  0  0  0  0
  -23.6310  -32.0400   24.0740 O   0  0  0  0  0  0  0  0  0  0  0  0
  -22.9620  -29.5320   22.4450 C   0  0  0  0  0  0  0  0  0  0  0  0
  -21.7060  -29.1360   22.1820 N   0  0  0  0  0  0  0  0  0  0  0  0
  -23.6890  -28.9520   23.2560 O   0  0  0  0  0  0  0  0  0  0  0  0
  -21.1720  -29.6700   21.5090 H   0  0  0  0  0  0  0  0  0  0  0  0
  -18.6650  -27.1910   22.0910 C   0  0  0  0  0  0  0  0  0  0  0  0
  -21.0190  -27.9980   22.7860 C   0  0  0  0  0  3  0  0  0  0  0  0
  -21.5400  -26.6620   22.2050 C   0  0  0  0  0  2  0  0  0  0  0  0
  -20.7140  -26.1570   21.0180 C   0  0  0  0  0  2  0  0  0  0  0  0
  -19.2520  -25.9530   21.4310 C   0  0  0  0  0  2  0  0  0  0  0  0
  -19.4970  -28.1580   22.7150 C   0  0  0  0  0  0  0  0  0  0  0  0
  -18.9060  -29.3050   23.2870 C   0  0  0  0  0  3  0  0  0  0  0  0
  -17.5110  -29.4890   23.2490 C   0  0  0  0  0  3  0  0  0  0  0  0
  -16.6890  -28.5220   22.6420 C   0  0  0  0  0  3  0  0  0  0  0  0
  -17.2670  -27.3750   22.0670 C   0  0  0  0  0  3  0  0  0  0  0  0
  -25.9710  -32.5580   24.0910 C   0  0  0  0  0  3  0  0  0  0  0  0
  -25.6440  -33.9290   24.5030 N   0  0  0  0  0  0  0  0  0  0  0  0
  -25.9780  -35.0300   23.8130 C   0  0  0  0  0  0  0  0  0  0  0  0
  -26.6670  -34.9940   22.7880 O   0  0  0  0  0  0  0  0  0  0  0  0
  -25.0390  -34.0310   25.3050 H   0  0  0  0  0  0  0  0  0  0  0  0
  -24.2430  -36.8260   23.5280 C   0  0  0  0  0  1  0  0  0  0  0  0
  -25.4680  -36.3810   24.3440 C   0  0  0  0  0  3  0  0  0  0  0  0
  -27.5770  -37.2220   25.2780 C   0  0  0  0  0  1  0  0  0  0  0  0
  -26.4940  -37.4460   24.3240 N   0  0  0  0  0  0  0  0  0  0  0  0
  -26.0780  -38.3510   24.5240 H   0  0  0  0  0  0  0  0  0  0  0  0
  -26.5090  -31.7200   25.3150 C   0  0  1  0  0  0  0  0  0  0  0  0
  -25.4180  -31.3680   26.3530 C   0  0  0  0  0  1  0  0  0  0  0  0
  -27.1460  -30.3960   24.8310 C   0  0  0  0  0  1  0  0  0  0  0  0
  -27.6250  -32.5070   26.0410 C   0  0  0  0  0  1  0  0  0  0  0  0
  -23.2430  -20.4700   19.8150 C   0  0  0  0  0  2  0  0  0  0  0  0
  -24.6370  -20.2360   19.4470 N   0  0  0  0  0  0  0  0  0  0  0  0
  -24.8920  -20.9340   18.7530 H   0  0  0  0  0  0  0  0  0  0  0  0
  -24.7860  -18.9070   18.8600 C   0  0  0  0  0  2  0  0  0  0  0  0
  -26.2710  -18.6890   18.5500 C   0  0  0  0  0  2  0  0  0  0  0  0
  -26.9750  -18.4280   19.8160 N   0  0  0  0  0  4  0  0  0  0  0  0
  -26.5000  -19.0300   20.4750 H   0  0  0  0  0  0  0  0  0  0  0  0
  -26.8110  -17.4690   20.1070 H   0  0  0  0  0  0  0  0  0  0  0  0
  -28.4180  -18.7540   19.8460 C   0  0  0  0  0  2  0  0  0  0  0  0
  -29.2540  -17.5620   20.3540 C   0  0  0  0  0  2  0  0  0  0  0  0
  -30.6400  -17.9330   20.9070 C   0  0  0  0  0  2  0  0  0  0  0  0
  -31.6400  -16.7570   20.9670 C   0  0  0  0  0  2  0  0  0  0  0  0
  -31.6580  -14.3060   20.9500 C   0  0  0  0  0  0  0  0  0  0  0  0
  -31.1460  -12.5810   19.3100 C   0  0  0  0  0  2  0  0  0  0  0  0
  -30.3420  -13.2530   18.1760 C   0  0  0  0  0  2  0  0  0  0  0  0
  -28.8330  -13.2130   18.4870 C   0  0  0  0  0  2  0  0  0  0  0  0
  -28.4990  -13.7170   19.9180 C   0  0  0  0  0  3  0  0  0  0  0  0
  -29.4430  -13.0970   20.9770 C   0  0  0  0  0  2  0  0  0  0  0  0
  -30.8320  -13.3110   20.5440 N   0  0  0  0  0  0  0  0  0  0  0  0
  -32.8660  -14.3250   20.7130 O   0  0  0  0  0  0  0  0  0  0  0  0
  -31.0410  -15.4500   21.2870 N   0  0  0  0  0  0  0  0  0  0  0  0
  -30.0530  -15.4060   21.4740 H   0  0  0  0  0  0  0  0  0  0  0  0
  -26.0540  -14.4260   20.2920 C   0  0  0  0  0  0  0  0  0  0  0  0
  -24.9250  -13.7050   20.5560 C   0  0  0  0  0  0  0  0  0  0  0  0
  -25.3410  -12.3440   20.6580 C   0  0  0  0  0  0  0  0  0  0  0  0
  -27.0910  -13.5090   20.2460 N   0  0  0  0  0  0  0  0  0  0  0  0
  -26.6590  -12.2530   20.5260 N   0  0  0  0  0  0  0  0  0  0  0  0
  -24.5570  -11.1140   20.8230 C   0  0  0  0  0  0  0  0  0  0  0  0
  -24.8620  -10.1700   21.8280 C   0  0  0  0  0  3  0  0  0  0  0  0
  -24.0770   -9.0060   21.9750 C   0  0  0  0  0  3  0  0  0  0  0  0
  -22.9770   -8.7770   21.1140 C   0  0  0  0  0  0  0  0  0  0  0  0
  -22.6950   -9.7110   20.1000 C   0  0  0  0  0  3  0  0  0  0  0  0
  -23.4790  -10.8660   19.9530 C   0  0  0  0  0  3  0  0  0  0  0  0
  -22.1760   -7.6620   21.1650 O   0  0  0  0  0  0  0  0  0  0  0  0
  -21.9530   -6.9910   22.3400 C   0  0  0  0  0  0  0  0  0  0  0  0
  -21.4340   -7.6420   23.4830 C   0  0  0  0  0  3  0  0  0  0  0  0
  -21.1540   -6.9000   24.6480 C   0  0  0  0  0  3  0  0  0  0  0  0
  -21.3820   -5.5100   24.6710 C   0  0  0  0  0  0  0  0  0  0  0  0
  -21.8930   -4.8630   23.5350 C   0  0  0  0  0  3  0  0  0  0  0  0
  -22.1740   -5.6000   22.3720 C   0  0  0  0  0  0  0  0  0  0  0  0
  -22.6470   -4.9670   21.2710 F   0  0  0  0  0  0  0  0  0  0  0  0
  -21.1060   -4.7980   25.7900 F   0  0  0  0  0  0  0  0  0  0  0  0
  -23.5220  -14.2370   20.6270 C   0  0  0  0  0  0  0  0  0  0  0  0
  -22.6800  -13.6340   21.4580 N   0  0  0  0  0  0  0  0  0  0  0  0
  -23.1870  -15.2340   19.9880 O   0  0  0  0  0  0  0  0  0  0  0  0
  -22.9680  -12.8310   21.9980 H   0  0  0  0  0  0  0  0  0  0  0  0
  -21.7360  -13.9780   21.5570 H   0  0  0  0  0  0  0  0  0  0  0  0
  -26.2750  -15.7870   20.0920 N   0  0  0  0  0  0  0  0  0  0  0  0
  -25.4500  -16.2810   20.4200 H   0  0  0  0  0  0  0  0  0  0  0  0
  -27.0810  -16.0660   20.6380 H   0  0  0  0  0  0  0  0  0  0  0  0
  1  3  1  0
  2  3  1  0
  2  6  1  0
  3  5  1  0
  4  2  2  0
  7 10  1  0
  7  6  1  0
  8  7  1  0
  9  7  1  0
 11 12  1  0
 11 10  1  0
 12 14  1  0
 13 24  2  0
 14 19  1  0
 15 23  1  0
 15 25  1  0
 16 22  1  0
 16 18  1  0
 17 23  1  0
 18 17  1  0
 19 18  2  0
 20 21  1  0
 20 14  2  0
 21 16  2  0
 22 15  1  0
 23 13  1  0
 25 27  2  0
 26 25  1  0
 28 26  1  0
 29 34  1  0
 30 26  1  0
 31 30  1  0
 32 33  1  0
 32 31  1  0
 33 29  1  0
 34 30  1  0
 34 35  2  0
 36 35  1  0
 37 36  2  0
 38 29  2  0
 38 37  1  0
 39 13  1  0
 39 40  1  0
 39 49  1  0
 40 43  1  0
 41 45  1  0
 41 40  1  0
 42 41  2  0
 45 44  1  0
 47 45  1  0
 47 48  1  0
 47 46  1  0
 49 52  1  1
 49 50  1  0
 51 49  1  0
 53  1  1  0
 54 53  1  0
 55 54  1  0
 56 54  1  0
 57 56  1  0
 57 58  1  0
 58 61  1  0
 58 60  1  0
 58 59  1  0
 61 62  1  0
 62 63  1  0
 63 64  1  0
 64 73  1  0
 65 73  1  0
 66 71  1  0
 67 68  1  0
 67 66  1  0
 69 68  1  0
 69 78  1  0
 69 70  1  0
 71 65  1  0
 71 70  1  0
 72 65  2  0
 73 74  1  0
 75 76  2  0
 76 95  1  0
 76 77  1  0
 77 80  1  0
 78 75  1  0
 78 79  1  0
 79 77  2  0
 80 81  1  0
 81 82  2  0
 83 86  1  0
 83 82  1  0
 84 83  2  0
 85 84  1  0
 85 80  2  0
 86 87  1  0
 87 92  2  0
 87 88  1  0
 88 89  2  0
 89 90  1  0
 90 94  1  0
 91 90  2  0
 92 91  1  0
 93 92  1  0
 95 96  1  0
 96 99  1  0
 96 98  1  0
 97 95  2  0
100 75  1  0
100101  1  0
100102  1  0
M  ISO  4  11 101  12 101  65 100  73 100
M  END
>  <TORSDO>  (82) 
F 30

>  <SCORE>  (82) 
-2.686

>  <name>  (82) 
85

>  <ligand_id>  (82) 
85

>  <original_smiles>  (82) 
[H]c1c([H])c([H])c2c(c1[H])C([H])([H])C([H])([H])C([H])([H])C2([H])N([H])C(=O)C1([H])N(C(=O)C([H])(N([H])C(=O)C([H])(N([H])C([H])([H])[H])C([H])([H])[H])C(C([H])([H])[H])(C([H])([H])[H])C([H])([H])[H])C([H])([H])c2c([H])c(OC([H])([H])C([H])([H])[N+]([H])([H])C([H])([H])C(=O)N([H])C([H])([H])C([H])([H])N([H])C([H])([H])C([H])([H])[N+]([H])([H])C([H])([H])C([H])([H])C([H])([H])C([H])([H])N([H])C(=O)N3C([H])([H])C([H])([H])C([H])([H])C([H])(n4nc(-c5c([H])c([H])c(Oc6c([H])c([H])c(F)c([H])c6F)c([H])c5[H])c(C(=O)N([H])[H])c4N([H])[H])C3([H])[H])c([H])c([H])c2C1([H])[H]

>  <smiles>  (82) 
[H]c1c([H])c([H])c2c(c1[H])C([H])([H])C([H])([H])C([H])([H])C2([H])N([H])C(=O)C1([H])N(C(=O)C([H])(N([H])C(=O)C([H])(N([H])C([H])([H])[H])C([H])([H])[H])C(C([H])([H])[H])(C([H])([H])[H])C([H])([H])[H])C([H])([H])c2c([H])c(OC([H])([H])C([H])([H])[N+]([H])([H])C([H])([H])C(=O)N([H])C([H])([H])C([H])([H])N([H])C([H])([H])C([H])([H])[N+]([H])([H])C([H])([H])C([H])([H])C([H])([H])C([H])([H])N([H])C(=O)N3C([H])([H])C([H])([H])C([H])([H])C([H])(n4nc(-c5c([H])c([H])c(Oc6c([H])c([H])c(F)c([H])c6F)c([H])c5[H])c(C(=O)N([H])[H])c4N([H])[H])C3([H])[H])c([H])c([H])c2C1([H])[H]

$$$$
86:0:0
     RDKit          3D

 96103  0  0  1  0  0  0  0  0999 V2000
  -31.2940  -25.3440   12.1260 C   0  0  0  0  0  2  0  0  0  0  0  0
  -30.9140  -23.9370   11.6370 C   0  0  0  0  0  2  0  0  0  0  0  0
  -30.5020  -23.9300   10.1630 C   0  0  0  0  0  2  0  0  0  0  0  0
  -30.0590  -22.6150    9.8630 O   0  0  0  0  0  0  0  0  0  0  0  0
  -28.8150  -22.2700   10.4530 C   0  0  0  0  0  2  0  0  0  0  0  0
  -27.6880  -22.8240    9.5710 C   0  0  0  0  0  2  0  0  0  0  0  0
  -26.3730  -22.3720   10.0800 N   0  0  0  0  0  4  0  0  0  0  0  0
  -25.9470  -21.7780    9.3870 H   0  0  0  0  0  0  0  0  0  0  0  0
  -26.5300  -21.8110   10.9050 H   0  0  0  0  0  0  0  0  0  0  0  0
  -25.4080  -23.4410   10.4100 C   0  0  0  0  0  2  0  0  0  0  0  0
  -24.3420  -23.6110    9.3010 C   0  0  0  0  0  2  0  0  0  0  0  0
  -22.7710  -25.5250    9.2790 C   0  0  0  0  0  0  0  0  0  0  0  0
  -21.3890  -26.8850   10.8130 C   0  0  0  0  0  2  0  0  0  0  0  0
  -21.7860  -28.3750   10.7490 C   0  0  0  0  0  2  0  0  0  0  0  0
  -22.9610  -28.6710   11.6970 C   0  0  0  0  0  2  0  0  0  0  0  0
  -24.1270  -27.6610   11.5350 C   0  0  0  0  0  3  0  0  0  0  0  0
  -23.5990  -26.2100   11.5600 C   0  0  0  0  0  2  0  0  0  0  0  0
  -22.5780  -26.0720   10.5070 N   0  0  0  0  0  0  0  0  0  0  0  0
  -21.9390  -25.5940    8.3720 O   0  0  0  0  0  0  0  0  0  0  0  0
  -23.9880  -25.0130    9.0300 N   0  0  0  0  0  0  0  0  0  0  0  0
  -24.2170  -25.2210    8.0690 H   0  0  0  0  0  0  0  0  0  0  0  0
  -26.4400  -28.3810   12.4040 C   0  0  0  0  0  0  0  0  0  0  0  0
  -26.9670  -28.4250   13.6660 C   0  0  0  0  0  0  0  0  0  0  0  0
  -25.9470  -27.9360   14.5390 C   0  0  0  0  0  0  0  0  0  0  0  0
  -25.1570  -27.8750   12.5470 N   0  0  0  0  0  0  0  0  0  0  0  0
  -24.8870  -27.5580   13.8380 N   0  0  0  0  0  0  0  0  0  0  0  0
  -25.8960  -27.8600   16.0040 C   0  0  0  0  0  0  0  0  0  0  0  0
  -26.5060  -26.7990   16.7070 C   0  0  0  0  0  3  0  0  0  0  0  0
  -26.4580  -26.7550   18.1170 C   0  0  0  0  0  3  0  0  0  0  0  0
  -25.7990  -27.7760   18.8370 C   0  0  0  0  0  0  0  0  0  0  0  0
  -25.1720  -28.8180   18.1320 C   0  0  0  0  0  3  0  0  0  0  0  0
  -25.2150  -28.8590   16.7280 C   0  0  0  0  0  3  0  0  0  0  0  0
  -25.6830  -27.8040   20.2060 O   0  0  0  0  0  0  0  0  0  0  0  0
  -26.4430  -28.6470   20.9760 C   0  0  0  0  0  0  0  0  0  0  0  0
  -25.9550  -29.8940   21.4240 C   0  0  0  0  0  3  0  0  0  0  0  0
  -26.7440  -30.6970   22.2690 C   0  0  0  0  0  3  0  0  0  0  0  0
  -28.0170  -30.2520   22.6780 C   0  0  0  0  0  0  0  0  0  0  0  0
  -28.5020  -29.0090   22.2380 C   0  0  0  0  0  3  0  0  0  0  0  0
  -27.7170  -28.2070   21.3910 C   0  0  0  0  0  0  0  0  0  0  0  0
  -28.1820  -27.0010   20.9860 F   0  0  0  0  0  0  0  0  0  0  0  0
  -28.7730  -31.0200   23.4980 F   0  0  0  0  0  0  0  0  0  0  0  0
  -28.3080  -28.9790   14.0580 C   0  0  0  0  0  0  0  0  0  0  0  0
  -29.0720  -28.2330   14.8470 N   0  0  0  0  0  0  0  0  0  0  0  0
  -28.7020  -30.0590   13.6210 O   0  0  0  0  0  0  0  0  0  0  0  0
  -28.7570  -27.3340   15.1800 H   0  0  0  0  0  0  0  0  0  0  0  0
  -29.9890  -28.5630   15.1190 H   0  0  0  0  0  0  0  0  0  0  0  0
  -26.9310  -28.7410   11.1520 N   0  0  0  0  0  0  0  0  0  0  0  0
  -27.7920  -29.2700   11.0850 H   0  0  0  0  0  0  0  0  0  0  0  0
  -26.3100  -28.9070   10.3710 H   0  0  0  0  0  0  0  0  0  0  0  0
  -32.3760  -25.3140   13.2160 C   0  0  0  0  0  2  0  0  0  0  0  0
  -31.8160  -25.5250   14.5710 N   0  0  0  0  0  4  0  0  0  0  0  0
  -31.9210  -24.6730   15.0980 H   0  0  0  0  0  0  0  0  0  0  0  0
  -30.8300  -25.7220   14.4920 H   0  0  0  0  0  0  0  0  0  0  0  0
  -32.4630  -26.6500   15.2860 C   0  0  0  0  0  2  0  0  0  0  0  0
  -33.8360  -26.2940   15.8860 C   0  0  0  0  0  2  0  0  0  0  0  0
  -34.8580  -26.7670   15.0110 O   0  0  0  0  0  0  0  0  0  0  0  0
  -35.2500  -31.2220    9.5200 C   0  0  0  0  0  0  0  0  0  0  0  0
  -34.9760  -28.0910   14.6520 C   0  0  0  0  0  0  0  0  0  0  0  0
  -35.5730  -32.2550   11.7460 C   0  0  0  0  0  3  0  0  0  0  0  0
  -35.0320  -30.7730   13.7480 C   0  0  0  0  0  0  0  0  0  0  0  0
  -34.1750  -30.1310   11.4850 C   0  0  0  0  0  2  0  0  0  0  0  0
  -34.6010  -29.7570   12.8900 C   0  0  0  0  0  0  0  0  0  0  0  0
  -34.5670  -28.4220   13.3420 C   0  0  0  0  0  3  0  0  0  0  0  0
  -35.4310  -29.1270   15.5030 C   0  0  0  0  0  3  0  0  0  0  0  0
  -35.4500  -30.4650   15.0560 C   0  0  0  0  0  3  0  0  0  0  0  0
  -35.0240  -32.1810   13.1950 C   0  0  0  0  0  2  0  0  0  0  0  0
  -35.0210  -31.1770   10.8630 N   0  0  0  0  0  0  0  0  0  0  0  0
  -35.8700  -32.1640    9.0060 O   0  0  0  0  0  0  0  0  0  0  0  0
  -37.1150  -32.2700   11.8050 C   0  0  0  0  0  0  0  0  0  0  0  0
  -37.7020  -33.4740   11.7130 N   0  0  0  0  0  0  0  0  0  0  0  0
  -37.7540  -31.2260   11.9580 O   0  0  0  0  0  0  0  0  0  0  0  0
  -37.1050  -34.2790   11.5890 H   0  0  0  0  0  0  0  0  0  0  0  0
  -40.4270  -35.1570   10.0430 C   0  0  0  0  0  0  0  0  0  0  0  0
  -39.1390  -33.7360   11.7750 C   0  0  0  0  0  3  0  0  0  0  0  0
  -39.4530  -34.8660   12.7830 C   0  0  0  0  0  2  0  0  0  0  0  0
  -39.5170  -36.2520   12.1360 C   0  0  0  0  0  2  0  0  0  0  0  0
  -40.5930  -36.2850   11.0470 C   0  0  0  0  0  2  0  0  0  0  0  0
  -39.7300  -33.9660   10.3800 C   0  0  0  0  0  0  0  0  0  0  0  0
  -39.5720  -32.9650    9.3990 C   0  0  0  0  0  3  0  0  0  0  0  0
  -40.0970  -33.1350    8.1050 C   0  0  0  0  0  3  0  0  0  0  0  0
  -40.8010  -34.3080    7.7810 C   0  0  0  0  0  3  0  0  0  0  0  0
  -40.9680  -35.3130    8.7500 C   0  0  0  0  0  3  0  0  0  0  0  0
  -34.7210  -30.1060    8.5640 C   0  0  0  0  0  3  0  0  0  0  0  0
  -34.2020  -30.7670    7.3600 N   0  0  0  0  0  0  0  0  0  0  0  0
  -32.9570  -31.2480    7.2350 C   0  0  0  0  0  0  0  0  0  0  0  0
  -32.0960  -31.1120    8.1080 O   0  0  0  0  0  0  0  0  0  0  0  0
  -34.8710  -30.9640    6.6300 H   0  0  0  0  0  0  0  0  0  0  0  0
  -32.8050  -33.5100    6.1510 C   0  0  0  0  0  1  0  0  0  0  0  0
  -32.6120  -31.9990    5.9360 C   0  0  0  0  0  3  0  0  0  0  0  0
  -31.0970  -30.4220    4.8210 C   0  0  0  0  0  1  0  0  0  0  0  0
  -31.2410  -31.7330    5.4480 N   0  0  0  0  0  0  0  0  0  0  0  0
  -30.9520  -32.4390    4.7770 H   0  0  0  0  0  0  0  0  0  0  0  0
  -35.8210  -29.0400    8.1860 C   0  0  1  0  0  0  0  0  0  0  0  0
  -36.7360  -29.4750    7.0170 C   0  0  0  0  0  1  0  0  0  0  0  0
  -36.7270  -28.7380    9.4020 C   0  0  0  0  0  1  0  0  0  0  0  0
  -35.1450  -27.7030    7.8050 C   0  0  0  0  0  1  0  0  0  0  0  0
  1 50  1  0
  2  1  1  0
  3  2  1  0
  4  3  1  0
  4  5  1  0
  6  7  1  0
  6  5  1  0
  7 10  1  0
  7  9  1  0
  8  7  1  0
 11 10  1  0
 12 18  1  0
 14 13  1  0
 14 15  1  0
 16 17  1  0
 16 15  1  0
 16 25  1  0
 18 13  1  0
 18 17  1  0
 19 12  2  0
 20 12  1  0
 20 11  1  0
 21 20  1  0
 22 25  1  0
 22 23  2  0
 23 42  1  0
 23 24  1  0
 24 27  1  0
 25 26  1  0
 26 24  2  0
 27 28  2  0
 27 32  1  0
 28 29  1  0
 29 30  2  0
 30 33  1  0
 31 30  1  0
 32 31  2  0
 33 34  1  0
 34 39  2  0
 34 35  1  0
 35 36  2  0
 36 37  1  0
 37 41  1  0
 38 37  2  0
 39 38  1  0
 40 39  1  0
 42 43  1  0
 43 46  1  0
 43 45  1  0
 44 42  2  0
 47 22  1  0
 48 47  1  0
 49 47  1  0
 50 51  1  0
 51 52  1  0
 51 54  1  0
 53 51  1  0
 54 55  1  0
 56 55  1  0
 57 67  1  0
 58 56  1  0
 58 64  1  0
 59 69  1  0
 59 66  1  0
 60 65  1  0
 61 62  1  0
 62 63  1  0
 62 60  2  0
 63 58  2  0
 65 64  2  0
 66 60  1  0
 67 61  1  0
 67 59  1  0
 68 57  2  0
 69 71  2  0
 70 69  1  0
 72 70  1  0
 73 78  1  0
 73 77  1  0
 74 70  1  0
 74 75  1  0
 76 75  1  0
 77 76  1  0
 78 74  1  0
 79 78  2  0
 80 79  1  0
 81 80  2  0
 81 82  1  0
 82 73  2  0
 83 57  1  0
 84 83  1  0
 85 84  1  0
 85 86  2  0
 87 84  1  0
 89 88  1  0
 89 85  1  0
 90 91  1  0
 91 89  1  0
 92 91  1  0
 93 83  1  0
 93 95  1  1
 94 93  1  0
 96 93  1  0
M  ISO  4  12 100  20 100  55 101  56 101
M  END
>  <TORSDO>  (83) 
F 28

>  <SCORE>  (83) 
-3.985

>  <name>  (83) 
86

>  <ligand_id>  (83) 
86

>  <original_smiles>  (83) 
[H]c1c([H])c([H])c2c(c1[H])C([H])([H])C([H])([H])C([H])([H])C2([H])N([H])C(=O)C1([H])N(C(=O)C([H])(N([H])C(=O)C([H])(N([H])C([H])([H])[H])C([H])([H])[H])C(C([H])([H])[H])(C([H])([H])[H])C([H])([H])[H])C([H])([H])c2c([H])c(OC([H])([H])C([H])([H])[N+]([H])([H])C([H])([H])C([H])([H])C([H])([H])C([H])([H])OC([H])([H])C([H])([H])[N+]([H])([H])C([H])([H])C([H])([H])N([H])C(=O)N3C([H])([H])C([H])([H])C([H])([H])C([H])(n4nc(-c5c([H])c([H])c(Oc6c([H])c([H])c(F)c([H])c6F)c([H])c5[H])c(C(=O)N([H])[H])c4N([H])[H])C3([H])[H])c([H])c([H])c2C1([H])[H]

>  <smiles>  (83) 
[H]c1c([H])c([H])c2c(c1[H])C([H])([H])C([H])([H])C([H])([H])C2([H])N([H])C(=O)C1([H])N(C(=O)C([H])(N([H])C(=O)C([H])(N([H])C([H])([H])[H])C([H])([H])[H])C(C([H])([H])[H])(C([H])([H])[H])C([H])([H])[H])C([H])([H])c2c([H])c(OC([H])([H])C([H])([H])[N+]([H])([H])C([H])([H])C([H])([H])C([H])([H])C([H])([H])OC([H])([H])C([H])([H])[N+]([H])([H])C([H])([H])C([H])([H])N([H])C(=O)N3C([H])([H])C([H])([H])C([H])([H])C([H])(n4nc(-c5c([H])c([H])c(Oc6c([H])c([H])c(F)c([H])c6F)c([H])c5[H])c(C(=O)N([H])[H])c4N([H])[H])C3([H])[H])c([H])c([H])c2C1([H])[H]

$$$$
87:0:0
     RDKit          3D

 96103  0  0  1  0  0  0  0  0999 V2000
  -25.2500  -23.6280   21.3750 C   0  0  0  0  0  2  0  0  0  0  0  0
  -26.1470  -22.5400   21.7610 N   0  0  0  0  0  0  0  0  0  0  0  0
  -25.7700  -21.6620   21.4010 H   0  0  0  0  0  0  0  0  0  0  0  0
  -27.5070  -22.6940   21.2430 C   0  0  0  0  0  2  0  0  0  0  0  0
  -28.4100  -21.5560   21.7330 C   0  0  0  0  0  2  0  0  0  0  0  0
  -29.4290  -21.3080   20.7260 N   0  0  0  0  0  0  0  0  0  0  0  0
  -30.3450  -21.5360   21.1000 H   0  0  0  0  0  0  0  0  0  0  0  0
  -29.4290  -19.8850   20.5310 O   0  0  0  0  0  0  0  0  0  0  0  0
  -32.4960  -17.8600   14.4620 C   0  0  0  0  0  0  0  0  0  0  0  0
  -29.2780  -19.6200   19.1980 C   0  0  0  0  0  0  0  0  0  0  0  0
  -30.1840  -18.7260   14.2640 C   0  0  0  0  0  3  0  0  0  0  0  0
  -28.9340  -19.0480   16.4630 C   0  0  0  0  0  0  0  0  0  0  0  0
  -30.9850  -17.6130   16.4190 C   0  0  0  0  0  2  0  0  0  0  0  0
  -30.0180  -18.5040   17.1640 C   0  0  0  0  0  0  0  0  0  0  0  0
  -30.1960  -18.7860   18.5320 C   0  0  0  0  0  3  0  0  0  0  0  0
  -28.1910  -20.1720   18.4900 C   0  0  0  0  0  3  0  0  0  0  0  0
  -28.0170  -19.8890   17.1190 C   0  0  0  0  0  3  0  0  0  0  0  0
  -28.8170  -18.6840   15.0000 C   0  0  0  0  0  2  0  0  0  0  0  0
  -31.2840  -18.0740   15.0460 N   0  0  0  0  0  0  0  0  0  0  0  0
  -32.6940  -18.1550   13.2750 O   0  0  0  0  0  0  0  0  0  0  0  0
  -30.4910  -20.1930   13.8840 C   0  0  0  0  0  0  0  0  0  0  0  0
  -29.9890  -20.6220   12.7160 N   0  0  0  0  0  0  0  0  0  0  0  0
  -31.1380  -20.9210   14.6420 O   0  0  0  0  0  0  0  0  0  0  0  0
  -29.4770  -19.9620   12.1480 H   0  0  0  0  0  0  0  0  0  0  0  0
  -29.1490  -22.7050    9.8890 C   0  0  0  0  0  0  0  0  0  0  0  0
  -30.1170  -21.9720   12.1700 C   0  0  0  0  0  3  0  0  0  0  0  0
  -29.0820  -22.9300   12.8040 C   0  0  0  0  0  2  0  0  0  0  0  0
  -27.7850  -23.0350   11.9960 C   0  0  0  0  0  2  0  0  0  0  0  0
  -28.0750  -23.5320   10.5760 C   0  0  0  0  0  2  0  0  0  0  0  0
  -30.0980  -21.9590   10.6380 C   0  0  0  0  0  0  0  0  0  0  0  0
  -31.0520  -21.1790    9.9510 C   0  0  0  0  0  3  0  0  0  0  0  0
  -31.0700  -21.1380    8.5440 C   0  0  0  0  0  3  0  0  0  0  0  0
  -30.1390  -21.8900    7.8070 C   0  0  0  0  0  3  0  0  0  0  0  0
  -29.1840  -22.6750    8.4790 C   0  0  0  0  0  3  0  0  0  0  0  0
  -33.6810  -17.2130   15.2480 C   0  0  0  0  0  3  0  0  0  0  0  0
  -34.7440  -18.2650   15.7490 C   0  0  1  0  0  0  0  0  0  0  0  0
  -35.3790  -19.0940   14.6070 C   0  0  0  0  0  1  0  0  0  0  0  0
  -34.1070  -19.2530   16.7530 C   0  0  0  0  0  1  0  0  0  0  0  0
  -35.8850  -17.5430   16.5030 C   0  0  0  0  0  1  0  0  0  0  0  0
  -34.3060  -16.2230   14.3620 N   0  0  0  0  0  0  0  0  0  0  0  0
  -34.1080  -14.9000   14.4420 C   0  0  0  0  0  0  0  0  0  0  0  0
  -33.4250  -14.3770   15.3260 O   0  0  0  0  0  0  0  0  0  0  0  0
  -34.8340  -16.5830   13.5800 H   0  0  0  0  0  0  0  0  0  0  0  0
  -33.7220  -13.5900   12.3300 C   0  0  0  0  0  1  0  0  0  0  0  0
  -34.7720  -14.0180   13.3690 C   0  0  0  0  0  3  0  0  0  0  0  0
  -36.6420  -13.1360   14.6940 C   0  0  0  0  0  1  0  0  0  0  0  0
  -35.4420  -12.8210   13.9220 N   0  0  0  0  0  0  0  0  0  0  0  0
  -35.7030  -12.1800   13.1780 H   0  0  0  0  0  0  0  0  0  0  0  0
  -24.2810  -23.9750   22.5120 C   0  0  0  0  0  2  0  0  0  0  0  0
  -23.0120  -24.3960   21.9240 N   0  0  0  0  0  0  0  0  0  0  0  0
  -22.4420  -23.5580   21.7900 H   0  0  0  0  0  0  0  0  0  0  0  0
  -22.3000  -25.4120   22.7010 C   0  0  0  0  0  2  0  0  0  0  0  0
  -21.1820  -26.0740   21.8690 C   0  0  0  0  0  2  0  0  0  0  0  0
  -19.8540  -25.4560   22.0530 N   0  0  0  0  0  4  0  0  0  0  0  0
  -19.8730  -24.8340   22.8440 H   0  0  0  0  0  0  0  0  0  0  0  0
  -19.2250  -26.2020   22.2880 H   0  0  0  0  0  0  0  0  0  0  0  0
  -19.2960  -24.7500   20.8840 C   0  0  0  0  0  2  0  0  0  0  0  0
  -19.2770  -23.2280   21.1200 C   0  0  0  0  0  2  0  0  0  0  0  0
  -17.4070  -21.7850   21.9050 C   0  0  0  0  0  0  0  0  0  0  0  0
  -15.3810  -20.6370   22.7080 C   0  0  0  0  0  2  0  0  0  0  0  0
  -14.1130  -21.3080   22.1470 C   0  0  0  0  0  2  0  0  0  0  0  0
  -13.6640  -22.4740   23.0490 C   0  0  0  0  0  2  0  0  0  0  0  0
  -14.8270  -23.4420   23.3980 C   0  0  0  0  0  3  0  0  0  0  0  0
  -16.0770  -22.6600   23.8690 C   0  0  0  0  0  2  0  0  0  0  0  0
  -16.4260  -21.6640   22.8360 N   0  0  0  0  0  0  0  0  0  0  0  0
  -17.5460  -21.0100   20.9550 O   0  0  0  0  0  0  0  0  0  0  0  0
  -18.2300  -22.8260   22.0700 N   0  0  0  0  0  0  0  0  0  0  0  0
  -18.0570  -23.3770   22.8960 H   0  0  0  0  0  0  0  0  0  0  0  0
  -14.4760  -25.8250   24.3110 C   0  0  0  0  0  0  0  0  0  0  0  0
  -13.8900  -26.2910   25.4580 C   0  0  0  0  0  0  0  0  0  0  0  0
  -13.4670  -25.1340   26.1800 C   0  0  0  0  0  0  0  0  0  0  0  0
  -14.4080  -24.4430   24.3810 N   0  0  0  0  0  0  0  0  0  0  0  0
  -13.8380  -24.0300   25.5420 N   0  0  0  0  0  0  0  0  0  0  0  0
  -12.6820  -25.0140   27.4160 C   0  0  0  0  0  0  0  0  0  0  0  0
  -13.0730  -24.1430   28.4560 C   0  0  0  0  0  3  0  0  0  0  0  0
  -12.3110  -24.0600   29.6420 C   0  0  0  0  0  3  0  0  0  0  0  0
  -11.1510  -24.8520   29.7990 C   0  0  0  0  0  0  0  0  0  0  0  0
  -10.7540  -25.7000   28.7500 C   0  0  0  0  0  3  0  0  0  0  0  0
  -11.5090  -25.7800   27.5690 C   0  0  0  0  0  3  0  0  0  0  0  0
  -10.3370  -24.8190   30.9040 O   0  0  0  0  0  0  0  0  0  0  0  0
  -10.7300  -24.2100   32.0690 C   0  0  0  0  0  0  0  0  0  0  0  0
  -11.9110  -24.5870   32.7470 C   0  0  0  0  0  3  0  0  0  0  0  0
  -12.2380  -23.9820   33.9760 C   0  0  0  0  0  3  0  0  0  0  0  0
  -11.3860  -23.0100   34.5320 C   0  0  0  0  0  0  0  0  0  0  0  0
  -10.2070  -22.6380   33.8630 C   0  0  0  0  0  3  0  0  0  0  0  0
   -9.8790  -23.2420   32.6370 C   0  0  0  0  0  0  0  0  0  0  0  0
   -8.7300  -22.8970   32.0050 F   0  0  0  0  0  0  0  0  0  0  0  0
  -11.6980  -22.4340   35.7160 F   0  0  0  0  0  0  0  0  0  0  0  0
  -13.6400  -27.7280   25.8140 C   0  0  0  0  0  0  0  0  0  0  0  0
  -13.7050  -28.0630   27.0990 N   0  0  0  0  0  0  0  0  0  0  0  0
  -13.4340  -28.5750   24.9490 O   0  0  0  0  0  0  0  0  0  0  0  0
  -13.8990  -27.3740   27.8100 H   0  0  0  0  0  0  0  0  0  0  0  0
  -13.5540  -29.0230   27.3740 H   0  0  0  0  0  0  0  0  0  0  0  0
  -15.0430  -26.4600   23.2110 N   0  0  0  0  0  0  0  0  0  0  0  0
  -14.9860  -27.4670   23.0940 H   0  0  0  0  0  0  0  0  0  0  0  0
  -15.3840  -25.9830   22.3870 H   0  0  0  0  0  0  0  0  0  0  0  0
  1  2  1  0
  1 49  1  0
  3  2  1  0
  4  5  1  0
  4  2  1  0
  6  7  1  0
  6  5  1  0
  8  6  1  0
  9 19  1  0
 10  8  1  0
 11 21  1  0
 11 18  1  0
 11 19  1  0
 12 17  2  0
 12 14  1  0
 13 14  1  0
 14 15  2  0
 15 10  1  0
 16 10  2  0
 17 16  1  0
 18 12  1  0
 19 13  1  0
 20  9  2  0
 21 23  2  0
 22 21  1  0
 24 22  1  0
 25 29  1  0
 25 30  1  0
 26 22  1  0
 26 27  1  0
 28 27  1  0
 29 28  1  0
 30 26  1  0
 31 30  2  0
 32 31  1  0
 33 34  1  0
 33 32  2  0
 34 25  2  0
 35  9  1  0
 35 36  1  0
 36 39  1  1
 36 38  1  0
 37 36  1  0
 40 41  1  0
 40 35  1  0
 41 42  2  0
 43 40  1  0
 45 44  1  0
 45 47  1  0
 45 41  1  0
 47 46  1  0
 48 47  1  0
 50 49  1  0
 50 52  1  0
 51 50  1  0
 53 54  1  0
 53 52  1  0
 54 56  1  0
 54 55  1  0
 57 58  1  0
 57 54  1  0
 58 67  1  0
 59 67  1  0
 59 65  1  0
 60 65  1  0
 61 60  1  0
 61 62  1  0
 63 62  1  0
 63 64  1  0
 63 72  1  0
 65 64  1  0
 66 59  2  0
 67 68  1  0
 69 72  1  0
 69 70  2  0
 70 89  1  0
 70 71  1  0
 71 74  1  0
 72 73  1  0
 73 71  2  0
 74 79  2  0
 74 75  1  0
 75 76  2  0
 76 77  1  0
 77 80  1  0
 78 77  2  0
 79 78  1  0
 80 81  1  0
 81 86  2  0
 81 82  1  0
 82 83  2  0
 83 84  1  0
 84 88  1  0
 85 84  2  0
 86 85  1  0
 87 86  1  0
 89 90  1  0
 90 93  1  0
 90 92  1  0
 91 89  2  0
 94 69  1  0
 95 94  1  0
 96 94  1  0
M  ISO  4   6 101   8 101  59 100  67 100
M  END
>  <TORSDO>  (84) 
F 27

>  <SCORE>  (84) 
-2.133

>  <name>  (84) 
87

>  <ligand_id>  (84) 
87

>  <original_smiles>  (84) 
[H]c1c([H])c([H])c2c(c1[H])C([H])([H])C([H])([H])C([H])([H])C2([H])N([H])C(=O)C1([H])N(C(=O)C([H])(N([H])C(=O)C([H])(N([H])C([H])([H])[H])C([H])([H])[H])C(C([H])([H])[H])(C([H])([H])[H])C([H])([H])[H])C([H])([H])c2c([H])c(ON([H])C([H])([H])C([H])([H])N([H])C([H])([H])C([H])([H])N([H])C([H])([H])C([H])([H])[N+]([H])([H])C([H])([H])C([H])([H])N([H])C(=O)N3C([H])([H])C([H])([H])C([H])([H])C([H])(n4nc(-c5c([H])c([H])c(Oc6c([H])c([H])c(F)c([H])c6F)c([H])c5[H])c(C(=O)N([H])[H])c4N([H])[H])C3([H])[H])c([H])c([H])c2C1([H])[H]

>  <smiles>  (84) 
[H]c1c([H])c([H])c2c(c1[H])C([H])([H])C([H])([H])C([H])([H])C2([H])N([H])C(=O)C1([H])N(C(=O)C([H])(N([H])C(=O)C([H])(N([H])C([H])([H])[H])C([H])([H])[H])C(C([H])([H])[H])(C([H])([H])[H])C([H])([H])[H])C([H])([H])c2c([H])c(ON([H])C([H])([H])C([H])([H])N([H])C([H])([H])C([H])([H])N([H])C([H])([H])C([H])([H])[N+]([H])([H])C([H])([H])C([H])([H])N([H])C(=O)N3C([H])([H])C([H])([H])C([H])([H])C([H])(n4nc(-c5c([H])c([H])c(Oc6c([H])c([H])c(F)c([H])c6F)c([H])c5[H])c(C(=O)N([H])[H])c4N([H])[H])C3([H])[H])c([H])c([H])c2C1([H])[H]

$$$$
88:0:0
     RDKit          3D

 96103  0  0  1  0  0  0  0  0999 V2000
  -31.8780  -23.8130   22.4340 C   0  0  0  0  0  2  0  0  0  0  0  0
  -31.2210  -22.6140   21.7340 C   0  0  0  0  0  2  0  0  0  0  0  0
  -32.1200  -21.9270   20.6970 C   0  0  0  0  0  2  0  0  0  0  0  0
  -31.3720  -21.7130   19.3680 C   0  0  0  0  0  2  0  0  0  0  0  0
  -32.0800  -22.3240   18.2270 N   0  0  0  0  0  4  0  0  0  0  0  0
  -32.6450  -21.6240   17.7710 H   0  0  0  0  0  0  0  0  0  0  0  0
  -32.6970  -23.0300   18.5910 H   0  0  0  0  0  0  0  0  0  0  0  0
  -31.1870  -22.9510   17.2290 C   0  0  0  0  0  2  0  0  0  0  0  0
  -31.6380  -24.3850   16.9110 C   0  0  0  0  0  2  0  0  0  0  0  0
  -30.6280  -25.2090   16.0930 C   0  0  0  0  0  2  0  0  0  0  0  0
  -28.8030  -25.8150   17.6780 C   0  0  0  0  0  0  0  0  0  0  0  0
  -27.3610  -27.7510   18.1480 C   0  0  0  0  0  2  0  0  0  0  0  0
  -26.2470  -27.5300   19.1790 C   0  0  0  0  0  2  0  0  0  0  0  0
  -24.9930  -26.9670   18.4950 C   0  0  0  0  0  2  0  0  0  0  0  0
  -25.3080  -25.7260   17.6200 C   0  0  0  0  0  3  0  0  0  0  0  0
  -26.5020  -25.9880   16.6760 C   0  0  0  0  0  2  0  0  0  0  0  0
  -27.6440  -26.4800   17.4680 N   0  0  0  0  0  0  0  0  0  0  0  0
  -29.5410  -26.0080   18.6500 O   0  0  0  0  0  0  0  0  0  0  0  0
  -29.2410  -25.1940   16.5740 N   0  0  0  0  0  0  0  0  0  0  0  0
  -28.5380  -25.1000   15.8540 H   0  0  0  0  0  0  0  0  0  0  0  0
  -23.4060  -24.1040   16.9990 C   0  0  0  0  0  0  0  0  0  0  0  0
  -22.3450  -24.2230   16.1420 C   0  0  0  0  0  0  0  0  0  0  0  0
  -22.4670  -25.5130   15.5400 C   0  0  0  0  0  0  0  0  0  0  0  0
  -24.1220  -25.2860   16.8860 N   0  0  0  0  0  0  0  0  0  0  0  0
  -23.5750  -26.1140   15.9580 N   0  0  0  0  0  0  0  0  0  0  0  0
  -21.5660  -26.2310   14.6290 C   0  0  0  0  0  0  0  0  0  0  0  0
  -22.0170  -26.7350   13.3880 C   0  0  0  0  0  3  0  0  0  0  0  0
  -21.1270  -27.4060   12.5220 C   0  0  0  0  0  3  0  0  0  0  0  0
  -19.7710  -27.5770   12.8910 C   0  0  0  0  0  0  0  0  0  0  0  0
  -19.3340  -27.0940   14.1370 C   0  0  0  0  0  3  0  0  0  0  0  0
  -20.2210  -26.4300   14.9990 C   0  0  0  0  0  3  0  0  0  0  0  0
  -18.8410  -28.2390   12.1250 O   0  0  0  0  0  0  0  0  0  0  0  0
  -18.9370  -28.2850   10.7570 C   0  0  0  0  0  0  0  0  0  0  0  0
  -18.9590  -27.1120    9.9720 C   0  0  0  0  0  3  0  0  0  0  0  0
  -18.9860  -27.2070    8.5670 C   0  0  0  0  0  3  0  0  0  0  0  0
  -18.9840  -28.4690    7.9450 C   0  0  0  0  0  0  0  0  0  0  0  0
  -18.9570  -29.6390    8.7250 C   0  0  0  0  0  3  0  0  0  0  0  0
  -18.9320  -29.5470   10.1280 C   0  0  0  0  0  0  0  0  0  0  0  0
  -18.8850  -30.6750   10.8750 F   0  0  0  0  0  0  0  0  0  0  0  0
  -19.0040  -28.5620    6.5950 F   0  0  0  0  0  0  0  0  0  0  0  0
  -21.2260  -23.2370   15.9600 C   0  0  0  0  0  0  0  0  0  0  0  0
  -20.6770  -23.1500   14.7540 N   0  0  0  0  0  0  0  0  0  0  0  0
  -20.8670  -22.5030   16.8790 O   0  0  0  0  0  0  0  0  0  0  0  0
  -20.9820  -23.7430   13.9960 H   0  0  0  0  0  0  0  0  0  0  0  0
  -19.9380  -22.4820   14.5860 H   0  0  0  0  0  0  0  0  0  0  0  0
  -23.8140  -23.1030   17.8770 N   0  0  0  0  0  0  0  0  0  0  0  0
  -23.2810  -22.2520   18.0230 H   0  0  0  0  0  0  0  0  0  0  0  0
  -24.6250  -23.1690   18.4800 H   0  0  0  0  0  0  0  0  0  0  0  0
  -30.9270  -25.0180   22.4440 C   0  0  0  0  0  2  0  0  0  0  0  0
  -31.6440  -26.3720   22.3050 C   0  0  0  0  0  2  0  0  0  0  0  0
  -30.7390  -27.5040   22.5990 N   0  0  0  0  0  4  0  0  0  0  0  0
  -31.2770  -28.3540   22.5250 H   0  0  0  0  0  0  0  0  0  0  0  0
  -30.4340  -27.4250   23.5560 H   0  0  0  0  0  0  0  0  0  0  0  0
  -29.5540  -27.6210   21.7130 C   0  0  0  0  0  2  0  0  0  0  0  0
  -28.3630  -28.2390   22.4580 C   0  0  0  0  0  2  0  0  0  0  0  0
  -27.9470  -27.3190   23.4690 O   0  0  0  0  0  0  0  0  0  0  0  0
  -27.7640  -31.7010   29.0870 C   0  0  0  0  0  0  0  0  0  0  0  0
  -27.2330  -27.8530   24.5130 C   0  0  0  0  0  0  0  0  0  0  0  0
  -25.8480  -30.1480   28.8620 C   0  0  0  0  0  3  0  0  0  0  0  0
  -25.7030  -28.8900   26.6460 C   0  0  0  0  0  0  0  0  0  0  0  0
  -27.1460  -30.9290   26.8060 C   0  0  0  0  0  2  0  0  0  0  0  0
  -26.8070  -29.6010   26.1640 C   0  0  0  0  0  0  0  0  0  0  0  0
  -27.5780  -29.0870   25.1050 C   0  0  0  0  0  3  0  0  0  0  0  0
  -26.1380  -27.1270   25.0250 C   0  0  0  0  0  3  0  0  0  0  0  0
  -25.3660  -27.6430   26.0870 C   0  0  0  0  0  3  0  0  0  0  0  0
  -24.9250  -29.5270   27.7760 C   0  0  0  0  0  2  0  0  0  0  0  0
  -26.9770  -30.9410   28.2750 N   0  0  0  0  0  0  0  0  0  0  0  0
  -27.5380  -31.7860   30.3020 O   0  0  0  0  0  0  0  0  0  0  0  0
  -26.3180  -29.0220   29.8080 C   0  0  0  0  0  0  0  0  0  0  0  0
  -25.5030  -28.7250   30.8340 N   0  0  0  0  0  0  0  0  0  0  0  0
  -27.3750  -28.4200   29.6000 O   0  0  0  0  0  0  0  0  0  0  0  0
  -24.6590  -29.2710   30.9380 H   0  0  0  0  0  0  0  0  0  0  0  0
  -24.1400  -27.2290   33.8260 C   0  0  0  0  0  0  0  0  0  0  0  0
  -25.7200  -27.6760   31.8290 C   0  0  0  0  0  3  0  0  0  0  0  0
  -25.2690  -26.3000   31.2920 C   0  0  0  0  0  2  0  0  0  0  0  0
  -23.8230  -25.9520   31.6620 C   0  0  0  0  0  2  0  0  0  0  0  0
  -23.6430  -25.9440   33.1830 C   0  0  0  0  0  2  0  0  0  0  0  0
  -25.1030  -28.0510   33.1820 C   0  0  0  0  0  0  0  0  0  0  0  0
  -25.5040  -29.2520   33.8030 C   0  0  0  0  0  3  0  0  0  0  0  0
  -24.9630  -29.6360   35.0450 C   0  0  0  0  0  3  0  0  0  0  0  0
  -24.0240  -28.8100   35.6870 C   0  0  0  0  0  3  0  0  0  0  0  0
  -23.6170  -27.6080   35.0790 C   0  0  0  0  0  3  0  0  0  0  0  0
  -28.9730  -32.5180   28.5260 C   0  0  0  0  0  3  0  0  0  0  0  0
  -29.1650  -33.6810   29.4010 N   0  0  0  0  0  0  0  0  0  0  0  0
  -28.7190  -34.9150   29.1310 C   0  0  0  0  0  0  0  0  0  0  0  0
  -28.1610  -35.2090   28.0700 O   0  0  0  0  0  0  0  0  0  0  0  0
  -29.5620  -33.5030   30.3120 H   0  0  0  0  0  0  0  0  0  0  0  0
  -27.6040  -36.2320   30.9600 C   0  0  0  0  0  1  0  0  0  0  0  0
  -28.9240  -35.9980   30.2090 C   0  0  0  0  0  3  0  0  0  0  0  0
  -30.7650  -37.1780   29.0940 C   0  0  0  0  0  1  0  0  0  0  0  0
  -29.4260  -37.2800   29.6690 N   0  0  0  0  0  0  0  0  0  0  0  0
  -29.4460  -37.9930   30.3930 H   0  0  0  0  0  0  0  0  0  0  0  0
  -30.3010  -31.6730   28.4200 C   0  0  1  0  0  0  0  0  0  0  0  0
  -30.6770  -30.9430   29.7310 C   0  0  0  0  0  1  0  0  0  0  0  0
  -30.1830  -30.6090   27.3030 C   0  0  0  0  0  1  0  0  0  0  0  0
  -31.4800  -32.5940   28.0300 C   0  0  0  0  0  1  0  0  0  0  0  0
  1 49  1  0
  2  1  1  0
  3  2  1  0
  4  3  1  0
  5  7  1  0
  5  4  1  0
  6  5  1  0
  8  5  1  0
  9  8  1  0
 10 19  1  0
 10  9  1  0
 11 18  2  0
 12 13  1  0
 14 13  1  0
 15 16  1  0
 15 14  1  0
 16 17  1  0
 17 11  1  0
 17 12  1  0
 19 11  1  0
 20 19  1  0
 21 46  1  0
 22 21  2  0
 23 25  2  0
 23 22  1  0
 24 21  1  0
 24 15  1  0
 25 24  1  0
 26 31  1  0
 26 23  1  0
 27 26  2  0
 28 29  2  0
 28 27  1  0
 29 30  1  0
 30 31  2  0
 32 29  1  0
 33 32  1  0
 34 33  2  0
 35 34  1  0
 36 35  2  0
 36 37  1  0
 37 38  2  0
 38 33  1  0
 38 39  1  0
 40 36  1  0
 41 22  1  0
 41 43  2  0
 42 41  1  0
 44 42  1  0
 45 42  1  0
 46 47  1  0
 46 48  1  0
 50 49  1  0
 50 51  1  0
 51 53  1  0
 52 51  1  0
 54 55  1  0
 54 51  1  0
 55 56  1  0
 56 58  1  0
 57 68  2  0
 58 64  2  0
 58 63  1  0
 59 69  1  0
 60 66  1  0
 61 67  1  0
 62 60  1  0
 62 61  1  0
 63 62  2  0
 64 65  1  0
 65 60  2  0
 66 59  1  0
 67 59  1  0
 67 57  1  0
 69 70  1  0
 70 72  1  0
 71 69  2  0
 73 82  1  0
 74 70  1  0
 74 78  1  0
 75 76  1  0
 75 74  1  0
 76 77  1  0
 77 73  1  0
 78 79  1  0
 78 73  2  0
 79 80  2  0
 80 81  1  0
 82 81  2  0
 83 57  1  0
 83 84  1  0
 84 87  1  0
 85 84  1  0
 85 89  1  0
 86 85  2  0
 89 88  1  0
 90 91  1  0
 91 89  1  0
 91 92  1  0
 93 83  1  0
 93 94  1  1
 95 93  1  0
 96 93  1  0
M  ISO  4  11 100  19 100  55 101  56 101
M  END
>  <TORSDO>  (85) 
F 28

>  <SCORE>  (85) 
-0.045

>  <name>  (85) 
88

>  <ligand_id>  (85) 
88

>  <original_smiles>  (85) 
[H]c1c([H])c([H])c2c(c1[H])C([H])([H])C([H])([H])C([H])([H])C2([H])N([H])C(=O)C1([H])N(C(=O)C([H])(N([H])C(=O)C([H])(N([H])C([H])([H])[H])C([H])([H])[H])C(C([H])([H])[H])(C([H])([H])[H])C([H])([H])[H])C([H])([H])c2c([H])c(OC([H])([H])C([H])([H])[N+]([H])([H])C([H])([H])C([H])([H])C([H])([H])C([H])([H])C([H])([H])C([H])([H])[N+]([H])([H])C([H])([H])C([H])([H])C([H])([H])N([H])C(=O)N3C([H])([H])C([H])([H])C([H])([H])C([H])(n4nc(-c5c([H])c([H])c(Oc6c([H])c([H])c(F)c([H])c6F)c([H])c5[H])c(C(=O)N([H])[H])c4N([H])[H])C3([H])[H])c([H])c([H])c2C1([H])[H]

>  <smiles>  (85) 
[H]c1c([H])c([H])c2c(c1[H])C([H])([H])C([H])([H])C([H])([H])C2([H])N([H])C(=O)C1([H])N(C(=O)C([H])(N([H])C(=O)C([H])(N([H])C([H])([H])[H])C([H])([H])[H])C(C([H])([H])[H])(C([H])([H])[H])C([H])([H])[H])C([H])([H])c2c([H])c(OC([H])([H])C([H])([H])[N+]([H])([H])C([H])([H])C([H])([H])C([H])([H])C([H])([H])C([H])([H])C([H])([H])[N+]([H])([H])C([H])([H])C([H])([H])C([H])([H])N([H])C(=O)N3C([H])([H])C([H])([H])C([H])([H])C([H])(n4nc(-c5c([H])c([H])c(Oc6c([H])c([H])c(F)c([H])c6F)c([H])c5[H])c(C(=O)N([H])[H])c4N([H])[H])C3([H])[H])c([H])c([H])c2C1([H])[H]

$$$$
89:0:0
     RDKit          3D

102109  0  0  1  0  0  0  0  0999 V2000
  -31.5750  -21.9180   17.7190 C   0  0  0  0  0  2  0  0  0  0  0  0
  -32.7360  -21.9320   18.6370 N   0  0  0  0  0  4  0  0  0  0  0  0
  -33.0000  -20.9980   18.9010 H   0  0  0  0  0  0  0  0  0  0  0  0
  -33.5020  -22.2740   18.0770 H   0  0  0  0  0  0  0  0  0  0  0  0
  -32.6490  -22.8740   19.7860 C   0  0  0  0  0  2  0  0  0  0  0  0
  -31.7600  -22.3950   20.9520 C   0  0  0  0  0  2  0  0  0  0  0  0
  -32.4440  -21.4400   21.9580 C   0  0  0  0  0  2  0  0  0  0  0  0
  -31.5120  -20.4270   22.5120 N   0  0  0  0  0  4  0  0  0  0  0  0
  -31.8580  -20.1280   23.4140 H   0  0  0  0  0  0  0  0  0  0  0  0
  -30.6120  -20.8480   22.6740 H   0  0  0  0  0  0  0  0  0  0  0  0
  -31.3940  -19.2230   21.6600 C   0  0  0  0  0  2  0  0  0  0  0  0
  -30.1250  -18.3980   21.9220 C   0  0  0  0  0  2  0  0  0  0  0  0
  -30.0890  -17.0860   21.1160 C   0  0  0  0  0  2  0  0  0  0  0  0
  -31.0990  -16.0370   21.6170 C   0  0  0  0  0  2  0  0  0  0  0  0
  -31.0630  -13.9540   20.2240 C   0  0  0  0  0  0  0  0  0  0  0  0
  -30.5600  -11.9100   18.9270 C   0  0  0  0  0  2  0  0  0  0  0  0
  -29.5940  -12.2210   17.7670 C   0  0  0  0  0  2  0  0  0  0  0  0
  -28.1240  -12.1890   18.2300 C   0  0  0  0  0  2  0  0  0  0  0  0
  -27.8960  -13.0170   19.5220 C   0  0  0  0  0  3  0  0  0  0  0  0
  -28.9480  -12.6400   20.5880 C   0  0  0  0  0  2  0  0  0  0  0  0
  -30.2910  -12.8590   20.0150 N   0  0  0  0  0  0  0  0  0  0  0  0
  -32.0660  -14.2320   19.5570 O   0  0  0  0  0  0  0  0  0  0  0  0
  -30.6470  -14.7070   21.2430 N   0  0  0  0  0  0  0  0  0  0  0  0
  -29.8480  -14.3480   21.7470 H   0  0  0  0  0  0  0  0  0  0  0  0
  -25.5500  -13.8000   20.2570 C   0  0  0  0  0  0  0  0  0  0  0  0
  -24.4450  -13.1070   20.6720 C   0  0  0  0  0  0  0  0  0  0  0  0
  -24.8170  -11.7280   20.6630 C   0  0  0  0  0  0  0  0  0  0  0  0
  -26.5330  -12.8480   20.0290 N   0  0  0  0  0  0  0  0  0  0  0  0
  -26.0930  -11.5980   20.3270 N   0  0  0  0  0  0  0  0  0  0  0  0
  -24.0160  -10.5180   20.8990 C   0  0  0  0  0  0  0  0  0  0  0  0
  -24.4120   -9.5420   21.8390 C   0  0  0  0  0  3  0  0  0  0  0  0
  -23.6180   -8.3970   22.0600 C   0  0  0  0  0  3  0  0  0  0  0  0
  -22.4120   -8.2210   21.3430 C   0  0  0  0  0  0  0  0  0  0  0  0
  -22.0320   -9.1840   20.3920 C   0  0  0  0  0  3  0  0  0  0  0  0
  -22.8280  -10.3200   20.1670 C   0  0  0  0  0  3  0  0  0  0  0  0
  -21.5890   -7.1270   21.4750 O   0  0  0  0  0  0  0  0  0  0  0  0
  -21.5310   -6.4080   22.6410 C   0  0  0  0  0  0  0  0  0  0  0  0
  -21.2050   -7.0100   23.8770 C   0  0  0  0  0  3  0  0  0  0  0  0
  -21.0870   -6.2200   25.0370 C   0  0  0  0  0  3  0  0  0  0  0  0
  -21.2880   -4.8280   24.9650 C   0  0  0  0  0  0  0  0  0  0  0  0
  -21.6080   -4.2250   23.7360 C   0  0  0  0  0  3  0  0  0  0  0  0
  -21.7270   -5.0130   22.5770 C   0  0  0  0  0  0  0  0  0  0  0  0
  -22.0130   -4.4250   21.3900 F   0  0  0  0  0  0  0  0  0  0  0  0
  -21.1710   -4.0640   26.0760 F   0  0  0  0  0  0  0  0  0  0  0  0
  -23.0850  -13.6770   20.9680 C   0  0  0  0  0  0  0  0  0  0  0  0
  -22.3410  -13.0510   21.8720 N   0  0  0  0  0  0  0  0  0  0  0  0
  -22.6940  -14.7110   20.4290 O   0  0  0  0  0  0  0  0  0  0  0  0
  -22.6720  -12.2140   22.3300 H   0  0  0  0  0  0  0  0  0  0  0  0
  -21.4280  -13.4100   22.1150 H   0  0  0  0  0  0  0  0  0  0  0  0
  -25.8010  -15.1530   20.0410 N   0  0  0  0  0  0  0  0  0  0  0  0
  -25.0780  -15.8580   20.1300 H   0  0  0  0  0  0  0  0  0  0  0  0
  -26.6760  -15.5220   19.6890 H   0  0  0  0  0  0  0  0  0  0  0  0
  -30.6110  -20.7330   17.9550 C   0  0  0  0  0  2  0  0  0  0  0  0
  -29.3150  -20.9770   17.3130 N   0  0  0  0  0  0  0  0  0  0  0  0
  -29.1970  -20.3120   16.5470 H   0  0  0  0  0  0  0  0  0  0  0  0
  -28.1170  -20.9080   18.1680 C   0  0  0  0  0  2  0  0  0  0  0  0
  -28.1260  -21.8950   19.3550 C   0  0  0  0  0  2  0  0  0  0  0  0
  -28.5180  -23.2360   18.9170 N   0  0  0  0  0  0  0  0  0  0  0  0
  -28.0020  -23.4630   18.0670 H   0  0  0  0  0  0  0  0  0  0  0  0
  -28.3450  -24.2950   19.9130 C   0  0  0  0  0  2  0  0  0  0  0  0
  -28.7370  -25.6620   19.3170 C   0  0  0  0  0  2  0  0  0  0  0  0
  -28.5220  -26.7430   20.2230 O   0  0  0  0  0  0  0  0  0  0  0  0
  -24.6260  -31.8560   23.2460 C   0  0  0  0  0  0  0  0  0  0  0  0
  -27.3120  -27.4020   20.2220 C   0  0  0  0  0  0  0  0  0  0  0  0
  -23.4370  -30.4320   21.6100 C   0  0  0  0  0  3  0  0  0  0  0  0
  -24.9000  -28.8800   20.2190 C   0  0  0  0  0  0  0  0  0  0  0  0
  -25.9620  -30.7980   21.4270 C   0  0  0  0  0  2  0  0  0  0  0  0
  -26.0520  -29.4180   20.8080 C   0  0  0  0  0  0  0  0  0  0  0  0
  -27.2520  -28.6820   20.8170 C   0  0  0  0  0  3  0  0  0  0  0  0
  -26.1350  -26.8640   19.6490 C   0  0  0  0  0  3  0  0  0  0  0  0
  -24.9350  -27.5950   19.6510 C   0  0  0  0  0  3  0  0  0  0  0  0
  -23.6560  -29.7370   20.2390 C   0  0  0  0  0  2  0  0  0  0  0  0
  -24.6930  -31.0460   22.1510 N   0  0  0  0  0  0  0  0  0  0  0  0
  -23.5390  -32.1310   23.7720 O   0  0  0  0  0  0  0  0  0  0  0  0
  -22.7790  -29.4200   22.5750 C   0  0  0  0  0  0  0  0  0  0  0  0
  -21.4580  -29.2290   22.4370 N   0  0  0  0  0  0  0  0  0  0  0  0
  -23.4580  -28.8080   23.4070 O   0  0  0  0  0  0  0  0  0  0  0  0
  -20.9720  -29.7840   21.7450 H   0  0  0  0  0  0  0  0  0  0  0  0
  -18.0860  -28.0030   22.8880 C   0  0  0  0  0  0  0  0  0  0  0  0
  -20.6350  -28.2940   23.2050 C   0  0  0  0  0  3  0  0  0  0  0  0
  -20.7640  -26.8530   22.6560 C   0  0  0  0  0  2  0  0  0  0  0  0
  -19.6850  -26.5010   21.6270 C   0  0  0  0  0  2  0  0  0  0  0  0
  -18.2900  -26.6430   22.2410 C   0  0  0  0  0  2  0  0  0  0  0  0
  -19.1880  -28.7850   23.3260 C   0  0  0  0  0  0  0  0  0  0  0  0
  -18.9440  -30.0580   23.8840 C   0  0  0  0  0  3  0  0  0  0  0  0
  -17.6310  -30.5470   24.0130 C   0  0  0  0  0  3  0  0  0  0  0  0
  -16.5430  -29.7620   23.5900 C   0  0  0  0  0  3  0  0  0  0  0  0
  -16.7720  -28.4920   23.0340 C   0  0  0  0  0  3  0  0  0  0  0  0
  -25.9060  -32.4940   23.8730 C   0  0  0  0  0  3  0  0  0  0  0  0
  -25.5870  -33.8900   24.1980 N   0  0  0  0  0  0  0  0  0  0  0  0
  -25.9170  -34.9430   23.4370 C   0  0  0  0  0  0  0  0  0  0  0  0
  -26.5920  -34.8410   22.4080 O   0  0  0  0  0  0  0  0  0  0  0  0
  -24.9860  -34.0400   24.9950 H   0  0  0  0  0  0  0  0  0  0  0  0
  -24.1790  -36.7270   23.0710 C   0  0  0  0  0  1  0  0  0  0  0  0
  -25.4200  -36.3300   23.8870 C   0  0  0  0  0  3  0  0  0  0  0  0
  -27.5500  -37.2300   24.7160 C   0  0  0  0  0  1  0  0  0  0  0  0
  -26.4460  -37.3890   23.7720 N   0  0  0  0  0  0  0  0  0  0  0  0
  -26.0360  -38.3080   23.9150 H   0  0  0  0  0  0  0  0  0  0  0  0
  -26.4250  -31.7270   25.1500 C   0  0  1  0  0  0  0  0  0  0  0  0
  -25.3340  -31.4850   26.2200 C   0  0  0  0  0  1  0  0  0  0  0  0
  -27.0150  -30.3520   24.7570 C   0  0  0  0  0  1  0  0  0  0  0  0
  -27.5700  -32.5290   25.8110 C   0  0  0  0  0  1  0  0  0  0  0  0
  1 53  1  0
  1  2  1  0
  2  3  1  0
  2  5  1  0
  4  2  1  0
  5  6  1  0
  6  7  1  0
  7  8  1  0
  8 10  1  0
  8  9  1  0
 11 12  1  0
 11  8  1  0
 13 14  1  0
 13 12  1  0
 15 23  1  0
 16 21  1  0
 17 18  1  0
 17 16  1  0
 19 18  1  0
 19 28  1  0
 19 20  1  0
 21 15  1  0
 21 20  1  0
 22 15  2  0
 23 14  1  0
 23 24  1  0
 25 26  2  0
 26 45  1  0
 27 26  1  0
 27 30  1  0
 28 25  1  0
 28 29  1  0
 29 27  2  0
 30 31  1  0
 31 32  2  0
 33 36  1  0
 33 32  1  0
 34 33  2  0
 35 34  1  0
 35 30  2  0
 36 37  1  0
 37 38  1  0
 38 39  2  0
 40 39  1  0
 40 44  1  0
 41 40  2  0
 42 37  2  0
 42 41  1  0
 43 42  1  0
 45 46  1  0
 46 49  1  0
 46 48  1  0
 47 45  2  0
 50 51  1  0
 50 25  1  0
 52 50  1  0
 54 53  1  0
 54 56  1  0
 55 54  1  0
 56 57  1  0
 58 57  1  0
 58 60  1  0
 59 58  1  0
 61 60  1  0
 61 62  1  0
 63 74  2  0
 64 62  1  0
 64 69  1  0
 65 73  1  0
 65 75  1  0
 66 72  1  0
 66 68  1  0
 67 73  1  0
 68 69  2  0
 68 67  1  0
 70 71  1  0
 70 64  2  0
 71 66  2  0
 72 65  1  0
 73 63  1  0
 75 77  2  0
 76 75  1  0
 78 76  1  0
 79 88  2  0
 79 84  1  0
 80 76  1  0
 80 84  1  0
 81 80  1  0
 82 83  1  0
 82 81  1  0
 83 79  1  0
 84 85  2  0
 85 86  1  0
 87 86  2  0
 88 87  1  0
 89 63  1  0
 89 90  1  0
 89 99  1  0
 90 93  1  0
 91 95  1  0
 91 90  1  0
 92 91  2  0
 95 94  1  0
 97 95  1  0
 97 98  1  0
 97 96  1  0
 99102  1  1
 99100  1  0
101 99  1  0
M  ISO  4  15 100  23 100  61 101  62 101
M  END
>  <TORSDO>  (86) 
F 32

>  <SCORE>  (86) 
-10.115

>  <name>  (86) 
89

>  <ligand_id>  (86) 
89

>  <original_smiles>  (86) 
[H]c1c([H])c([H])c2c(c1[H])C([H])([H])C([H])([H])C([H])([H])C2([H])N([H])C(=O)C1([H])N(C(=O)C([H])(N([H])C(=O)C([H])(N([H])C([H])([H])[H])C([H])([H])[H])C(C([H])([H])[H])(C([H])([H])[H])C([H])([H])[H])C([H])([H])c2c([H])c(OC([H])([H])C([H])([H])N([H])C([H])([H])C([H])([H])N([H])C([H])([H])C([H])([H])[N+]([H])([H])C([H])([H])C([H])([H])C([H])([H])[N+]([H])([H])C([H])([H])C([H])([H])C([H])([H])C([H])([H])N([H])C(=O)N3C([H])([H])C([H])([H])C([H])([H])C([H])(n4nc(-c5c([H])c([H])c(Oc6c([H])c([H])c(F)c([H])c6F)c([H])c5[H])c(C(=O)N([H])[H])c4N([H])[H])C3([H])[H])c([H])c([H])c2C1([H])[H]

>  <smiles>  (86) 
[H]c1c([H])c([H])c2c(c1[H])C([H])([H])C([H])([H])C([H])([H])C2([H])N([H])C(=O)C1([H])N(C(=O)C([H])(N([H])C(=O)C([H])(N([H])C([H])([H])[H])C([H])([H])[H])C(C([H])([H])[H])(C([H])([H])[H])C([H])([H])[H])C([H])([H])c2c([H])c(OC([H])([H])C([H])([H])N([H])C([H])([H])C([H])([H])N([H])C([H])([H])C([H])([H])[N+]([H])([H])C([H])([H])C([H])([H])C([H])([H])[N+]([H])([H])C([H])([H])C([H])([H])C([H])([H])C([H])([H])N([H])C(=O)N3C([H])([H])C([H])([H])C([H])([H])C([H])(n4nc(-c5c([H])c([H])c(Oc6c([H])c([H])c(F)c([H])c6F)c([H])c5[H])c(C(=O)N([H])[H])c4N([H])[H])C3([H])[H])c([H])c([H])c2C1([H])[H]

$$$$
90:0:0
     RDKit          3D

 97104  0  0  1  0  0  0  0  0999 V2000
  -29.5280  -24.3770   25.4400 C   0  0  0  0  0  2  0  0  0  0  0  0
  -28.6070  -23.1420   25.5410 C   0  0  0  0  0  2  0  0  0  0  0  0
  -28.6960  -22.1750   24.3510 C   0  0  0  0  0  2  0  0  0  0  0  0
  -30.0090  -21.6350   24.2980 O   0  0  0  0  0  0  0  0  0  0  0  0
  -30.3240  -21.0850   23.0280 C   0  0  0  0  0  2  0  0  0  0  0  0
  -31.4450  -20.0530   23.1980 C   0  0  0  0  0  2  0  0  0  0  0  0
  -31.6590  -19.2710   21.9560 N   0  0  0  0  0  4  0  0  0  0  0  0
  -31.0560  -19.6330   21.2340 H   0  0  0  0  0  0  0  0  0  0  0  0
  -32.6090  -19.4160   21.6520 H   0  0  0  0  0  0  0  0  0  0  0  0
  -31.4070  -17.8180   22.0690 C   0  0  0  0  0  2  0  0  0  0  0  0
  -31.8140  -17.0760   20.7780 C   0  0  0  0  0  2  0  0  0  0  0  0
  -31.8590  -14.7040   20.0390 C   0  0  0  0  0  0  0  0  0  0  0  0
  -31.3760  -12.5260   18.9780 C   0  0  0  0  0  2  0  0  0  0  0  0
  -30.4730  -12.7270   17.7450 C   0  0  0  0  0  2  0  0  0  0  0  0
  -28.9870  -12.7480   18.1530 C   0  0  0  0  0  2  0  0  0  0  0  0
  -28.7110  -13.7080   19.3400 C   0  0  0  0  0  3  0  0  0  0  0  0
  -29.7160  -13.4540   20.4860 C   0  0  0  0  0  2  0  0  0  0  0  0
  -31.0780  -13.5960   19.9420 N   0  0  0  0  0  0  0  0  0  0  0  0
  -32.9370  -14.8350   19.4520 O   0  0  0  0  0  0  0  0  0  0  0  0
  -31.3360  -15.6960   20.7680 N   0  0  0  0  0  0  0  0  0  0  0  0
  -30.4540  -15.5020   21.2160 H   0  0  0  0  0  0  0  0  0  0  0  0
  -26.3570  -14.5850   19.9100 C   0  0  0  0  0  0  0  0  0  0  0  0
  -25.2170  -13.9470   20.3210 C   0  0  0  0  0  0  0  0  0  0  0  0
  -25.5610  -12.5650   20.4330 C   0  0  0  0  0  0  0  0  0  0  0  0
  -27.3280  -13.6020   19.7990 N   0  0  0  0  0  0  0  0  0  0  0  0
  -26.8490  -12.3870   20.1680 N   0  0  0  0  0  0  0  0  0  0  0  0
  -24.7280  -11.3920   20.7230 C   0  0  0  0  0  0  0  0  0  0  0  0
  -25.0640  -10.4800   21.7490 C   0  0  0  0  0  3  0  0  0  0  0  0
  -24.2360   -9.3690   22.0200 C   0  0  0  0  0  3  0  0  0  0  0  0
  -23.0580   -9.1600   21.2640 C   0  0  0  0  0  0  0  0  0  0  0  0
  -22.7400  -10.0570   20.2310 C   0  0  0  0  0  3  0  0  0  0  0  0
  -23.5660  -11.1600   19.9580 C   0  0  0  0  0  3  0  0  0  0  0  0
  -22.2080   -8.0960   21.4410 O   0  0  0  0  0  0  0  0  0  0  0  0
  -22.0410   -7.5030   22.6670 C   0  0  0  0  0  0  0  0  0  0  0  0
  -21.6470   -8.2430   23.8030 C   0  0  0  0  0  3  0  0  0  0  0  0
  -21.4190   -7.5830   25.0280 C   0  0  0  0  0  3  0  0  0  0  0  0
  -21.5750   -6.1870   25.1160 C   0  0  0  0  0  0  0  0  0  0  0  0
  -21.9630   -5.4490   23.9840 C   0  0  0  0  0  3  0  0  0  0  0  0
  -22.1920   -6.1060   22.7630 C   0  0  0  0  0  0  0  0  0  0  0  0
  -22.5450   -5.3860   21.6700 F   0  0  0  0  0  0  0  0  0  0  0  0
  -21.3490   -5.5510   26.2900 F   0  0  0  0  0  0  0  0  0  0  0  0
  -23.8610  -14.5610   20.5110 C   0  0  0  0  0  0  0  0  0  0  0  0
  -23.0730  -14.0320   21.4410 N   0  0  0  0  0  0  0  0  0  0  0  0
  -23.5100  -15.5500   19.8690 O   0  0  0  0  0  0  0  0  0  0  0  0
  -23.3710  -13.2270   21.9760 H   0  0  0  0  0  0  0  0  0  0  0  0
  -22.1640  -14.4330   21.6230 H   0  0  0  0  0  0  0  0  0  0  0  0
  -26.6520  -15.9110   19.6020 N   0  0  0  0  0  0  0  0  0  0  0  0
  -25.9600  -16.6520   19.6240 H   0  0  0  0  0  0  0  0  0  0  0  0
  -27.5460  -16.2130   19.2370 H   0  0  0  0  0  0  0  0  0  0  0  0
  -29.3690  -25.2290   24.1580 C   0  0  0  0  0  2  0  0  0  0  0  0
  -30.3550  -26.4200   24.1380 C   0  0  0  0  0  2  0  0  0  0  0  0
  -30.8160  -26.8520   22.7960 N   0  0  0  0  0  4  0  0  0  0  0  0
  -31.4890  -27.5840   22.9700 H   0  0  0  0  0  0  0  0  0  0  0  0
  -31.3320  -26.1060   22.3520 H   0  0  0  0  0  0  0  0  0  0  0  0
  -29.8190  -27.4130   21.8510 C   0  0  0  0  0  2  0  0  0  0  0  0
  -29.0910  -26.3290   21.0300 C   0  0  0  0  0  2  0  0  0  0  0  0
  -28.6000  -26.8350   19.7910 O   0  0  0  0  0  0  0  0  0  0  0  0
  -24.6510  -31.7050   23.1390 C   0  0  0  0  0  0  0  0  0  0  0  0
  -27.4150  -27.5140   19.8770 C   0  0  0  0  0  0  0  0  0  0  0  0
  -23.4680  -30.3150   21.4650 C   0  0  0  0  0  3  0  0  0  0  0  0
  -24.9570  -28.8800   19.9740 C   0  0  0  0  0  0  0  0  0  0  0  0
  -25.9670  -30.7890   21.2370 C   0  0  0  0  0  2  0  0  0  0  0  0
  -26.0960  -29.4430   20.5630 C   0  0  0  0  0  0  0  0  0  0  0  0
  -27.3290  -28.7660   20.5190 C   0  0  0  0  0  3  0  0  0  0  0  0
  -26.2680  -26.9570   19.2770 C   0  0  0  0  0  3  0  0  0  0  0  0
  -25.0340  -27.6320   19.3290 C   0  0  0  0  0  3  0  0  0  0  0  0
  -23.6780  -29.6810   20.0620 C   0  0  0  0  0  2  0  0  0  0  0  0
  -24.7130  -30.9490   22.0060 N   0  0  0  0  0  0  0  0  0  0  0  0
  -23.5710  -31.9140   23.7090 O   0  0  0  0  0  0  0  0  0  0  0  0
  -22.8730  -29.2380   22.4010 C   0  0  0  0  0  0  0  0  0  0  0  0
  -21.5560  -29.0040   22.2770 N   0  0  0  0  0  0  0  0  0  0  0  0
  -23.5920  -28.6160   23.1880 O   0  0  0  0  0  0  0  0  0  0  0  0
  -21.0360  -29.5570   21.6110 H   0  0  0  0  0  0  0  0  0  0  0  0
  -18.2470  -27.6480   22.7570 C   0  0  0  0  0  0  0  0  0  0  0  0
  -20.7900  -28.0100   23.0270 C   0  0  0  0  0  3  0  0  0  0  0  0
  -20.9530  -26.6020   22.4090 C   0  0  0  0  0  2  0  0  0  0  0  0
  -19.8620  -26.2590   21.3910 C   0  0  0  0  0  2  0  0  0  0  0  0
  -18.4790  -26.3260   22.0450 C   0  0  0  0  0  2  0  0  0  0  0  0
  -19.3310  -28.4450   23.2050 C   0  0  0  0  0  0  0  0  0  0  0  0
  -19.0590  -29.6830   23.8280 C   0  0  0  0  0  3  0  0  0  0  0  0
  -17.7350  -30.1210   24.0120 C   0  0  0  0  0  3  0  0  0  0  0  0
  -16.6640  -29.3200   23.5800 C   0  0  0  0  0  3  0  0  0  0  0  0
  -16.9210  -28.0860   22.9570 C   0  0  0  0  0  3  0  0  0  0  0  0
  -25.9270  -32.3620   23.7590 C   0  0  0  0  0  3  0  0  0  0  0  0
  -26.4660  -31.5860   25.0240 C   0  0  1  0  0  0  0  0  0  0  0  0
  -25.3700  -31.3030   26.0780 C   0  0  0  0  0  1  0  0  0  0  0  0
  -27.0970  -30.2330   24.6120 C   0  0  0  0  0  1  0  0  0  0  0  0
  -27.5890  -32.4050   25.7010 C   0  0  0  0  0  1  0  0  0  0  0  0
  -25.5830  -33.7480   24.1060 N   0  0  0  0  0  0  0  0  0  0  0  0
  -25.9060  -34.8210   23.3730 C   0  0  0  0  0  0  0  0  0  0  0  0
  -26.5980  -34.7510   22.3540 O   0  0  0  0  0  0  0  0  0  0  0  0
  -24.9780  -33.8740   24.9040 H   0  0  0  0  0  0  0  0  0  0  0  0
  -24.1430  -36.5830   23.0160 C   0  0  0  0  0  1  0  0  0  0  0  0
  -25.3780  -36.1900   23.8440 C   0  0  0  0  0  3  0  0  0  0  0  0
  -27.4850  -37.1040   24.7170 C   0  0  0  0  0  1  0  0  0  0  0  0
  -26.3850  -37.2710   23.7700 N   0  0  0  0  0  0  0  0  0  0  0  0
  -25.9520  -38.1750   23.9410 H   0  0  0  0  0  0  0  0  0  0  0  0
  1  2  1  0
  3  2  1  0
  4  3  1  0
  5  6  1  0
  5  4  1  0
  7 10  1  0
  7  6  1  0
  8  7  1  0
  9  7  1  0
 11 10  1  0
 12 20  1  0
 13 18  1  0
 14 15  1  0
 14 13  1  0
 16 15  1  0
 16 25  1  0
 16 17  1  0
 18 12  1  0
 18 17  1  0
 19 12  2  0
 20 11  1  0
 20 21  1  0
 22 23  2  0
 23 24  1  0
 23 42  1  0
 24 27  1  0
 25 22  1  0
 25 26  1  0
 26 24  2  0
 27 28  1  0
 28 29  2  0
 30 33  1  0
 30 29  1  0
 31 30  2  0
 32 31  1  0
 32 27  2  0
 33 34  1  0
 34 39  2  0
 34 35  1  0
 35 36  2  0
 36 37  1  0
 37 41  1  0
 38 37  2  0
 39 38  1  0
 40 39  1  0
 42 43  1  0
 43 46  1  0
 43 45  1  0
 44 42  2  0
 47 48  1  0
 47 22  1  0
 49 47  1  0
 50  1  1  0
 51 50  1  0
 52 53  1  0
 52 51  1  0
 54 52  1  0
 55 52  1  0
 56 55  1  0
 57 59  1  0
 57 56  1  0
 58 69  2  0
 59 64  1  0
 60 68  1  0
 60 70  1  0
 61 67  1  0
 61 63  1  0
 62 68  1  0
 63 62  1  0
 64 63  2  0
 65 66  1  0
 65 59  2  0
 66 61  2  0
 67 60  1  0
 68 58  1  0
 70 72  2  0
 71 70  1  0
 73 71  1  0
 74 83  2  0
 74 79  1  0
 75 71  1  0
 75 79  1  0
 76 75  1  0
 77 78  1  0
 77 76  1  0
 78 74  1  0
 79 80  2  0
 80 81  1  0
 82 81  2  0
 83 82  1  0
 84 58  1  0
 84 89  1  0
 84 85  1  0
 85 88  1  1
 85 86  1  0
 87 85  1  0
 89 92  1  0
 90 94  1  0
 90 89  1  0
 91 90  2  0
 94 93  1  0
 96 94  1  0
 96 97  1  0
 96 95  1  0
M  ISO  4  12 100  20 100  56 101  57 101
M  END
>  <TORSDO>  (87) 
F 29

>  <SCORE>  (87) 
-2.198

>  <name>  (87) 
90

>  <ligand_id>  (87) 
90

>  <original_smiles>  (87) 
[H]c1c([H])c([H])c2c(c1[H])C([H])([H])C([H])([H])C([H])([H])C2([H])N([H])C(=O)C1([H])N(C(=O)C([H])(N([H])C(=O)C([H])(N([H])C([H])([H])[H])C([H])([H])[H])C(C([H])([H])[H])(C([H])([H])[H])C([H])([H])[H])C([H])([H])c2c([H])c(OC([H])([H])C([H])([H])[N+]([H])([H])C([H])([H])C([H])([H])C([H])([H])C([H])([H])C([H])([H])OC([H])([H])C([H])([H])[N+]([H])([H])C([H])([H])C([H])([H])N([H])C(=O)N3C([H])([H])C([H])([H])C([H])([H])C([H])(n4nc(-c5c([H])c([H])c(Oc6c([H])c([H])c(F)c([H])c6F)c([H])c5[H])c(C(=O)N([H])[H])c4N([H])[H])C3([H])[H])c([H])c([H])c2C1([H])[H]

>  <smiles>  (87) 
[H]c1c([H])c([H])c2c(c1[H])C([H])([H])C([H])([H])C([H])([H])C2([H])N([H])C(=O)C1([H])N(C(=O)C([H])(N([H])C(=O)C([H])(N([H])C([H])([H])[H])C([H])([H])[H])C(C([H])([H])[H])(C([H])([H])[H])C([H])([H])[H])C([H])([H])c2c([H])c(OC([H])([H])C([H])([H])[N+]([H])([H])C([H])([H])C([H])([H])C([H])([H])C([H])([H])C([H])([H])OC([H])([H])C([H])([H])[N+]([H])([H])C([H])([H])C([H])([H])N([H])C(=O)N3C([H])([H])C([H])([H])C([H])([H])C([H])(n4nc(-c5c([H])c([H])c(Oc6c([H])c([H])c(F)c([H])c6F)c([H])c5[H])c(C(=O)N([H])[H])c4N([H])[H])C3([H])[H])c([H])c([H])c2C1([H])[H]

$$$$
91:0:0
     RDKit          3D

 99106  0  0  1  0  0  0  0  0999 V2000
  -31.2560  -20.7890   21.6260 C   0  0  0  0  0  2  0  0  0  0  0  0
  -31.4000  -22.2170   21.8700 N   0  0  0  0  0  0  0  0  0  0  0  0
  -31.6470  -22.3610   22.8510 H   0  0  0  0  0  0  0  0  0  0  0  0
  -30.2150  -23.0000   21.5790 C   0  0  0  0  0  2  0  0  0  0  0  0
  -30.3080  -24.3420   22.3100 C   0  0  0  0  0  2  0  0  0  0  0  0
  -29.4350  -25.3190   21.6850 N   0  0  0  0  0  0  0  0  0  0  0  0
  -29.2180  -26.0640   22.3460 H   0  0  0  0  0  0  0  0  0  0  0  0
  -29.9730  -25.9230   20.4620 C   0  0  0  0  0  2  0  0  0  0  0  0
  -29.0950  -27.1170   20.0950 C   0  0  0  0  0  2  0  0  0  0  0  0
  -27.8160  -26.6560   19.6450 O   0  0  0  0  0  0  0  0  0  0  0  0
  -24.4990  -31.8050   23.3260 C   0  0  0  0  0  0  0  0  0  0  0  0
  -26.7230  -27.4800   19.8120 C   0  0  0  0  0  0  0  0  0  0  0  0
  -23.1140  -30.6020   21.6560 C   0  0  0  0  0  3  0  0  0  0  0  0
  -24.3930  -29.0670   20.0670 C   0  0  0  0  0  0  0  0  0  0  0  0
  -25.6380  -30.8320   21.3420 C   0  0  0  0  0  2  0  0  0  0  0  0
  -25.6020  -29.5070   20.6120 C   0  0  0  0  0  0  0  0  0  0  0  0
  -26.7670  -28.7300   20.4800 C   0  0  0  0  0  3  0  0  0  0  0  0
  -25.4900  -27.0420   19.2840 C   0  0  0  0  0  3  0  0  0  0  0  0
  -24.3280  -27.8270   19.4050 C   0  0  0  0  0  3  0  0  0  0  0  0
  -23.2070  -29.9890   20.2280 C   0  0  0  0  0  2  0  0  0  0  0  0
  -24.4380  -31.0910   22.1680 N   0  0  0  0  0  0  0  0  0  0  0  0
  -23.4700  -32.1080   23.9430 O   0  0  0  0  0  0  0  0  0  0  0  0
  -22.4450  -29.5670   22.5870 C   0  0  0  0  0  0  0  0  0  0  0  0
  -21.1160  -29.4310   22.4660 N   0  0  0  0  0  0  0  0  0  0  0  0
  -23.1180  -28.8890   23.3680 O   0  0  0  0  0  0  0  0  0  0  0  0
  -20.6400  -30.0260   21.8010 H   0  0  0  0  0  0  0  0  0  0  0  0
  -17.7250  -28.2510   22.8760 C   0  0  0  0  0  0  0  0  0  0  0  0
  -20.2770  -28.4870   23.2050 C   0  0  0  0  0  3  0  0  0  0  0  0
  -20.3820  -27.0620   22.6140 C   0  0  0  0  0  2  0  0  0  0  0  0
  -19.3010  -26.7610   21.5710 C   0  0  0  0  0  2  0  0  0  0  0  0
  -17.9080  -26.9090   22.1870 C   0  0  0  0  0  2  0  0  0  0  0  0
  -18.8390  -28.9980   23.3400 C   0  0  0  0  0  0  0  0  0  0  0  0
  -18.6170  -30.2550   23.9430 C   0  0  0  0  0  3  0  0  0  0  0  0
  -17.3130  -30.7650   24.0870 C   0  0  0  0  0  3  0  0  0  0  0  0
  -16.2130  -30.0120   23.6390 C   0  0  0  0  0  3  0  0  0  0  0  0
  -16.4190  -28.7570   23.0410 C   0  0  0  0  0  3  0  0  0  0  0  0
  -25.8590  -32.3000   23.9170 C   0  0  0  0  0  3  0  0  0  0  0  0
  -25.6570  -33.6790   24.3770 N   0  0  0  0  0  0  0  0  0  0  0  0
  -26.0470  -34.7710   23.7060 C   0  0  0  0  0  0  0  0  0  0  0  0
  -26.6870  -34.7170   22.6510 O   0  0  0  0  0  0  0  0  0  0  0  0
  -25.0850  -33.8010   25.1980 H   0  0  0  0  0  0  0  0  0  0  0  0
  -24.4590  -36.7180   23.5520 C   0  0  0  0  0  1  0  0  0  0  0  0
  -25.6700  -36.1420   24.3020 C   0  0  0  0  0  3  0  0  0  0  0  0
  -27.8700  -36.7800   25.1880 C   0  0  0  0  0  1  0  0  0  0  0  0
  -26.7790  -37.1190   24.2790 N   0  0  0  0  0  0  0  0  0  0  0  0
  -26.4440  -38.0480   24.5190 H   0  0  0  0  0  0  0  0  0  0  0  0
  -26.4020  -31.3910   25.0880 C   0  0  1  0  0  0  0  0  0  0  0  0
  -25.3630  -31.1300   26.2030 C   0  0  0  0  0  1  0  0  0  0  0  0
  -26.8660  -30.0200   24.5460 C   0  0  0  0  0  1  0  0  0  0  0  0
  -27.6350  -32.0610   25.7390 C   0  0  0  0  0  1  0  0  0  0  0  0
  -32.6160  -20.1130   21.8390 C   0  0  0  0  0  2  0  0  0  0  0  0
  -33.4390  -20.1620   20.6230 N   0  0  0  0  0  4  0  0  0  0  0  0
  -32.8560  -20.3120   19.8150 H   0  0  0  0  0  0  0  0  0  0  0  0
  -34.0570  -20.9570   20.7070 H   0  0  0  0  0  0  0  0  0  0  0  0
  -34.2180  -18.9280   20.4150 C   0  0  0  0  0  2  0  0  0  0  0  0
  -33.5320  -17.8970   19.4750 C   0  0  0  0  0  2  0  0  0  0  0  0
  -30.9550  -17.6900   19.6460 C   0  0  0  0  0  0  0  0  0  0  0  0
  -32.1170  -18.1060   19.1030 N   0  0  0  0  0  0  0  0  0  0  0  0
  -29.9140  -17.8350   19.0100 O   0  0  0  0  0  0  0  0  0  0  0  0
  -31.9840  -18.4190   18.1460 H   0  0  0  0  0  0  0  0  0  0  0  0
  -30.8610  -17.0610   21.0450 C   0  0  0  0  0  2  0  0  0  0  0  0
  -30.7560  -14.6580   20.4540 C   0  0  0  0  0  0  0  0  0  0  0  0
  -30.3510  -12.4660   19.3900 C   0  0  0  0  0  2  0  0  0  0  0  0
  -29.4400  -12.5520   18.1430 C   0  0  0  0  0  2  0  0  0  0  0  0
  -27.9600  -12.8460   18.4680 C   0  0  0  0  0  2  0  0  0  0  0  0
  -27.6820  -12.8150   19.9660 C   0  0  0  0  0  3  0  0  0  0  0  0
  -28.6770  -13.3830   20.9690 C   0  0  0  0  0  2  0  0  0  0  0  0
  -29.9910  -13.5430   20.3310 N   0  0  0  0  0  0  0  0  0  0  0  0
  -31.8810  -14.7340   19.9760 O   0  0  0  0  0  0  0  0  0  0  0  0
  -30.1920  -15.7500   21.0000 N   0  0  0  0  0  0  0  0  0  0  0  0
  -29.2160  -15.7060   21.2770 H   0  0  0  0  0  0  0  0  0  0  0  0
  -25.2980  -13.8150   20.5590 C   0  0  0  0  0  0  0  0  0  0  0  0
  -24.1750  -13.1090   20.9150 C   0  0  0  0  0  0  0  0  0  0  0  0
  -24.5660  -11.7370   20.8900 C   0  0  0  0  0  0  0  0  0  0  0  0
  -26.2870  -12.8470   20.3600 N   0  0  0  0  0  0  0  0  0  0  0  0
  -25.8240  -11.6140   20.5910 N   0  0  0  0  0  0  0  0  0  0  0  0
  -23.8390  -10.4920   21.0640 C   0  0  0  0  0  0  0  0  0  0  0  0
  -24.2830   -9.5220   21.9920 C   0  0  0  0  0  3  0  0  0  0  0  0
  -23.5790   -8.3150   22.1400 C   0  0  0  0  0  3  0  0  0  0  0  0
  -22.4250   -8.0730   21.3580 C   0  0  0  0  0  0  0  0  0  0  0  0
  -22.0100   -9.0280   20.4110 C   0  0  0  0  0  3  0  0  0  0  0  0
  -22.7160  -10.2290   20.2590 C   0  0  0  0  0  3  0  0  0  0  0  0
  -21.6900   -6.9160   21.4210 O   0  0  0  0  0  0  0  0  0  0  0  0
  -21.5960   -6.1920   22.5790 C   0  0  0  0  0  0  0  0  0  0  0  0
  -21.0990   -6.7550   23.7770 C   0  0  0  0  0  3  0  0  0  0  0  0
  -20.9570   -5.9490   24.9230 C   0  0  0  0  0  3  0  0  0  0  0  0
  -21.3040   -4.5860   24.8740 C   0  0  0  0  0  0  0  0  0  0  0  0
  -21.8020   -4.0260   23.6840 C   0  0  0  0  0  3  0  0  0  0  0  0
  -21.9460   -4.8270   22.5390 C   0  0  0  0  0  0  0  0  0  0  0  0
  -22.4030   -4.2810   21.3860 F   0  0  0  0  0  0  0  0  0  0  0  0
  -21.1620   -3.8110   25.9750 F   0  0  0  0  0  0  0  0  0  0  0  0
  -22.7930  -13.6170   21.2030 C   0  0  0  0  0  0  0  0  0  0  0  0
  -22.0580  -12.9150   22.0560 N   0  0  0  0  0  0  0  0  0  0  0  0
  -22.3670  -14.6580   20.7000 O   0  0  0  0  0  0  0  0  0  0  0  0
  -22.4260  -12.0690   22.4630 H   0  0  0  0  0  0  0  0  0  0  0  0
  -21.1290  -13.2210   22.3060 H   0  0  0  0  0  0  0  0  0  0  0  0
  -25.5520  -15.1730   20.3810 N   0  0  0  0  0  0  0  0  0  0  0  0
  -24.8520  -15.8980   20.4730 H   0  0  0  0  0  0  0  0  0  0  0  0
  -26.4530  -15.5190   20.0750 H   0  0  0  0  0  0  0  0  0  0  0  0
  1 51  1  0
  1  2  1  0
  2  3  1  0
  4  2  1  0
  4  5  1  0
  6  5  1  0
  6  7  1  0
  8  6  1  0
  9  8  1  0
 10 12  1  0
 10  9  1  0
 11 22  2  0
 12 17  1  0
 13 21  1  0
 13 23  1  0
 14 20  1  0
 14 16  1  0
 15 21  1  0
 16 15  1  0
 17 16  2  0
 18 19  1  0
 18 12  2  0
 19 14  2  0
 20 13  1  0
 21 11  1  0
 23 25  2  0
 24 23  1  0
 26 24  1  0
 27 36  2  0
 27 32  1  0
 28 24  1  0
 28 32  1  0
 29 28  1  0
 30 31  1  0
 30 29  1  0
 31 27  1  0
 32 33  2  0
 33 34  1  0
 35 34  2  0
 36 35  1  0
 37 11  1  0
 37 38  1  0
 37 47  1  0
 38 41  1  0
 39 43  1  0
 39 38  1  0
 40 39  2  0
 43 42  1  0
 45 43  1  0
 45 46  1  0
 45 44  1  0
 47 50  1  1
 47 48  1  0
 49 47  1  0
 52 54  1  0
 52 51  1  0
 53 52  1  0
 55 52  1  0
 56 55  1  0
 57 61  1  0
 58 56  1  0
 58 57  1  0
 59 57  2  0
 60 58  1  0
 62 70  1  0
 63 68  1  0
 64 65  1  0
 64 63  1  0
 66 65  1  0
 66 75  1  0
 66 67  1  0
 68 62  1  0
 68 67  1  0
 69 62  2  0
 70 61  1  0
 70 71  1  0
 72 73  2  0
 73 92  1  0
 74 73  1  0
 74 77  1  0
 75 72  1  0
 75 76  1  0
 76 74  2  0
 77 78  1  0
 78 79  2  0
 80 83  1  0
 80 79  1  0
 81 80  2  0
 82 81  1  0
 82 77  2  0
 83 84  1  0
 84 85  1  0
 85 86  2  0
 87 86  1  0
 87 91  1  0
 88 87  2  0
 89 84  2  0
 89 88  1  0
 90 89  1  0
 92 93  1  0
 93 96  1  0
 93 95  1  0
 94 92  2  0
 97 98  1  0
 97 72  1  0
 99 97  1  0
M  ISO  4   9 101  10 101  62 100  70 100
M  END
>  <TORSDO>  (88) 
F 28

>  <SCORE>  (88) 
-11.057

>  <name>  (88) 
91

>  <ligand_id>  (88) 
91

>  <original_smiles>  (88) 
[H]c1c([H])c([H])c2c(c1[H])C([H])([H])C([H])([H])C([H])([H])C2([H])N([H])C(=O)C1([H])N(C(=O)C([H])(N([H])C(=O)C([H])(N([H])C([H])([H])[H])C([H])([H])[H])C(C([H])([H])[H])(C([H])([H])[H])C([H])([H])[H])C([H])([H])c2c([H])c(OC([H])([H])C([H])([H])N([H])C([H])([H])C([H])([H])N([H])C([H])([H])C([H])([H])[N+]([H])([H])C([H])([H])C([H])([H])N([H])C(=O)C([H])([H])N([H])C(=O)N3C([H])([H])C([H])([H])C([H])([H])C([H])(n4nc(-c5c([H])c([H])c(Oc6c([H])c([H])c(F)c([H])c6F)c([H])c5[H])c(C(=O)N([H])[H])c4N([H])[H])C3([H])[H])c([H])c([H])c2C1([H])[H]

>  <smiles>  (88) 
[H]c1c([H])c([H])c2c(c1[H])C([H])([H])C([H])([H])C([H])([H])C2([H])N([H])C(=O)C1([H])N(C(=O)C([H])(N([H])C(=O)C([H])(N([H])C([H])([H])[H])C([H])([H])[H])C(C([H])([H])[H])(C([H])([H])[H])C([H])([H])[H])C([H])([H])c2c([H])c(OC([H])([H])C([H])([H])N([H])C([H])([H])C([H])([H])N([H])C([H])([H])C([H])([H])[N+]([H])([H])C([H])([H])C([H])([H])N([H])C(=O)C([H])([H])N([H])C(=O)N3C([H])([H])C([H])([H])C([H])([H])C([H])(n4nc(-c5c([H])c([H])c(Oc6c([H])c([H])c(F)c([H])c6F)c([H])c5[H])c(C(=O)N([H])[H])c4N([H])[H])C3([H])[H])c([H])c([H])c2C1([H])[H]

$$$$
92:0:0
     RDKit          3D

 96103  0  0  1  0  0  0  0  0999 V2000
  -28.8130  -22.6870   23.9780 C   0  0  0  0  0  0  0  0  0  0  0  0
  -27.8160  -22.5610   23.0920 N   0  0  0  0  0  0  0  0  0  0  0  0
  -29.1050  -23.7580   24.5120 O   0  0  0  0  0  0  0  0  0  0  0  0
  -27.6130  -21.6400   22.7250 H   0  0  0  0  0  0  0  0  0  0  0  0
  -29.6230  -21.4400   24.2890 C   0  0  0  0  0  2  0  0  0  0  0  0
  -30.6350  -21.2410   23.2360 N   0  0  0  0  0  4  0  0  0  0  0  0
  -31.0740  -22.1330   23.0630 H   0  0  0  0  0  0  0  0  0  0  0  0
  -30.1620  -20.9710   22.3880 H   0  0  0  0  0  0  0  0  0  0  0  0
  -31.6770  -20.2540   23.5840 C   0  0  0  0  0  2  0  0  0  0  0  0
  -32.1820  -19.4810   22.3540 C   0  0  0  0  0  2  0  0  0  0  0  0
  -31.4490  -18.1460   22.1430 C   0  0  0  0  0  2  0  0  0  0  0  0
  -32.0330  -17.3790   20.9550 C   0  0  0  0  0  2  0  0  0  0  0  0
  -31.9510  -15.0950   20.0520 C   0  0  0  0  0  0  0  0  0  0  0  0
  -31.5460  -12.9100   18.9980 C   0  0  0  0  0  2  0  0  0  0  0  0
  -30.6420  -13.0930   17.7660 C   0  0  0  0  0  2  0  0  0  0  0  0
  -29.1530  -13.0530   18.1690 C   0  0  0  0  0  2  0  0  0  0  0  0
  -28.8350  -13.9900   19.3660 C   0  0  0  0  0  3  0  0  0  0  0  0
  -29.8520  -13.7730   20.5100 C   0  0  0  0  0  2  0  0  0  0  0  0
  -31.2090  -13.9630   19.9630 N   0  0  0  0  0  0  0  0  0  0  0  0
  -33.0200  -15.2620   19.4570 O   0  0  0  0  0  0  0  0  0  0  0  0
  -31.4280  -16.0620   20.8110 N   0  0  0  0  0  0  0  0  0  0  0  0
  -30.5500  -15.8700   21.2700 H   0  0  0  0  0  0  0  0  0  0  0  0
  -26.4530  -14.7580   19.9810 C   0  0  0  0  0  0  0  0  0  0  0  0
  -25.3390  -14.0630   20.3670 C   0  0  0  0  0  0  0  0  0  0  0  0
  -25.7270  -12.6890   20.4160 C   0  0  0  0  0  0  0  0  0  0  0  0
  -27.4570  -13.8140   19.8240 N   0  0  0  0  0  0  0  0  0  0  0  0
  -27.0200  -12.5670   20.1380 N   0  0  0  0  0  0  0  0  0  0  0  0
  -24.9320  -11.4770   20.6580 C   0  0  0  0  0  0  0  0  0  0  0  0
  -25.2800  -10.5600   21.6720 C   0  0  0  0  0  3  0  0  0  0  0  0
  -24.4930   -9.4110   21.9040 C   0  0  0  0  0  3  0  0  0  0  0  0
  -23.3420   -9.1730   21.1160 C   0  0  0  0  0  0  0  0  0  0  0  0
  -23.0100  -10.0790   20.0930 C   0  0  0  0  0  3  0  0  0  0  0  0
  -23.7970  -11.2190   19.8630 C   0  0  0  0  0  3  0  0  0  0  0  0
  -22.5330   -8.0710   21.2480 O   0  0  0  0  0  0  0  0  0  0  0  0
  -22.3080   -7.4840   22.4660 C   0  0  0  0  0  0  0  0  0  0  0  0
  -21.7830   -8.2090   23.5580 C   0  0  0  0  0  3  0  0  0  0  0  0
  -21.5060   -7.5490   24.7710 C   0  0  0  0  0  3  0  0  0  0  0  0
  -21.7460   -6.1670   24.8950 C   0  0  0  0  0  0  0  0  0  0  0  0
  -22.2610   -5.4430   23.8040 C   0  0  0  0  0  3  0  0  0  0  0  0
  -22.5410   -6.1000   22.5940 C   0  0  0  0  0  0  0  0  0  0  0  0
  -23.0220   -5.3950   21.5420 F   0  0  0  0  0  0  0  0  0  0  0  0
  -21.4680   -5.5300   26.0570 F   0  0  0  0  0  0  0  0  0  0  0  0
  -23.9640  -14.6240   20.5890 C   0  0  0  0  0  0  0  0  0  0  0  0
  -23.1950  -14.0230   21.4890 N   0  0  0  0  0  0  0  0  0  0  0  0
  -23.5800  -15.6320   19.9960 O   0  0  0  0  0  0  0  0  0  0  0  0
  -23.5190  -13.2120   21.9960 H   0  0  0  0  0  0  0  0  0  0  0  0
  -22.2710  -14.3810   21.6800 H   0  0  0  0  0  0  0  0  0  0  0  0
  -26.6940  -16.1070   19.7350 N   0  0  0  0  0  0  0  0  0  0  0  0
  -25.9600  -16.8060   19.7810 H   0  0  0  0  0  0  0  0  0  0  0  0
  -27.5790  -16.4820   19.4180 H   0  0  0  0  0  0  0  0  0  0  0  0
  -26.9640  -23.6570   22.6320 C   0  0  0  0  0  2  0  0  0  0  0  0
  -27.4520  -24.2750   21.3060 C   0  0  0  0  0  2  0  0  0  0  0  0
  -28.8570  -24.5100   21.3450 O   0  0  0  0  0  0  0  0  0  0  0  0
  -29.3300  -25.3360   20.2860 C   0  0  0  0  0  2  0  0  0  0  0  0
  -29.2670  -26.8220   20.6770 C   0  0  0  0  0  2  0  0  0  0  0  0
  -28.9560  -27.6160   19.5340 O   0  0  0  0  0  0  0  0  0  0  0  0
  -24.4390  -31.8260   23.0540 C   0  0  0  0  0  0  0  0  0  0  0  0
  -27.7120  -28.1830   19.5870 C   0  0  0  0  0  0  0  0  0  0  0  0
  -23.4680  -30.4950   21.2050 C   0  0  0  0  0  3  0  0  0  0  0  0
  -25.1450  -29.3330   19.6780 C   0  0  0  0  0  0  0  0  0  0  0  0
  -25.9270  -31.1930   21.1600 C   0  0  0  0  0  2  0  0  0  0  0  0
  -26.2050  -29.9320   20.3730 C   0  0  0  0  0  0  0  0  0  0  0  0
  -27.4920  -29.3600   20.3330 C   0  0  0  0  0  3  0  0  0  0  0  0
  -26.6470  -27.5890   18.8860 C   0  0  0  0  0  3  0  0  0  0  0  0
  -25.3580  -28.1540   18.9360 C   0  0  0  0  0  3  0  0  0  0  0  0
  -23.8000  -30.0140   19.7670 C   0  0  0  0  0  2  0  0  0  0  0  0
  -24.6270  -31.1800   21.8680 N   0  0  0  0  0  0  0  0  0  0  0  0
  -23.3170  -31.8940   23.5760 O   0  0  0  0  0  0  0  0  0  0  0  0
  -22.9270  -29.2910   22.0080 C   0  0  0  0  0  0  0  0  0  0  0  0
  -21.6420  -28.9620   21.7930 N   0  0  0  0  0  0  0  0  0  0  0  0
  -23.6570  -28.6660   22.7820 O   0  0  0  0  0  0  0  0  0  0  0  0
  -21.1100  -29.5310   21.1490 H   0  0  0  0  0  0  0  0  0  0  0  0
  -18.4440  -27.2890   21.9380 C   0  0  0  0  0  0  0  0  0  0  0  0
  -20.9250  -27.8430   22.4040 C   0  0  0  0  0  3  0  0  0  0  0  0
  -21.2520  -26.5130   21.6860 C   0  0  0  0  0  2  0  0  0  0  0  0
  -20.2580  -26.1670   20.5740 C   0  0  0  0  0  2  0  0  0  0  0  0
  -18.8380  -26.0570   21.1380 C   0  0  0  0  0  2  0  0  0  0  0  0
  -19.4260  -28.1360   22.5180 C   0  0  0  0  0  0  0  0  0  0  0  0
  -19.0080  -29.2850   23.2220 C   0  0  0  0  0  3  0  0  0  0  0  0
  -17.6410  -29.5920   23.3550 C   0  0  0  0  0  3  0  0  0  0  0  0
  -16.6730  -28.7410   22.7950 C   0  0  0  0  0  3  0  0  0  0  0  0
  -17.0750  -27.5910   22.0920 C   0  0  0  0  0  3  0  0  0  0  0  0
  -25.6190  -32.5260   23.8000 C   0  0  0  0  0  3  0  0  0  0  0  0
  -25.1780  -33.8820   24.1520 N   0  0  0  0  0  0  0  0  0  0  0  0
  -25.5090  -34.9870   23.4710 C   0  0  0  0  0  0  0  0  0  0  0  0
  -26.2830  -34.9770   22.5090 O   0  0  0  0  0  0  0  0  0  0  0  0
  -24.5000  -33.9600   24.8950 H   0  0  0  0  0  0  0  0  0  0  0  0
  -23.6950  -36.6660   23.0050 C   0  0  0  0  0  1  0  0  0  0  0  0
  -24.8760  -36.3160   23.9260 C   0  0  0  0  0  3  0  0  0  0  0  0
  -26.8490  -37.3050   25.0020 C   0  0  0  0  0  1  0  0  0  0  0  0
  -25.8350  -37.4430   23.9590 N   0  0  0  0  0  0  0  0  0  0  0  0
  -25.3520  -38.3260   24.1010 H   0  0  0  0  0  0  0  0  0  0  0  0
  -26.0960  -31.7420   25.0860 C   0  0  1  0  0  0  0  0  0  0  0  0
  -24.9450  -31.3770   26.0530 C   0  0  0  0  0  1  0  0  0  0  0  0
  -26.8170  -30.4320   24.6890 C   0  0  0  0  0  1  0  0  0  0  0  0
  -27.1240  -32.5940   25.8670 C   0  0  0  0  0  1  0  0  0  0  0  0
  1  5  1  0
  1  3  2  0
  2  1  1  0
  4  2  1  0
  6  9  1  0
  6  5  1  0
  7  6  1  0
  8  6  1  0
 10  9  1  0
 11 10  1  0
 12 11  1  0
 13 21  1  0
 14 19  1  0
 15 16  1  0
 15 14  1  0
 17 16  1  0
 17 26  1  0
 17 18  1  0
 19 13  1  0
 19 18  1  0
 20 13  2  0
 21 12  1  0
 21 22  1  0
 23 24  2  0
 24 25  1  0
 24 43  1  0
 25 28  1  0
 26 23  1  0
 26 27  1  0
 27 25  2  0
 28 29  1  0
 29 30  2  0
 31 34  1  0
 31 30  1  0
 32 31  2  0
 33 32  1  0
 33 28  2  0
 34 35  1  0
 35 40  2  0
 35 36  1  0
 36 37  2  0
 37 38  1  0
 38 42  1  0
 39 38  2  0
 40 39  1  0
 41 40  1  0
 43 44  1  0
 44 47  1  0
 44 46  1  0
 45 43  2  0
 48 49  1  0
 48 23  1  0
 50 48  1  0
 51  2  1  0
 52 53  1  0
 52 51  1  0
 54 55  1  0
 54 53  1  0
 56 58  1  0
 56 55  1  0
 57 68  2  0
 58 63  1  0
 59 67  1  0
 59 69  1  0
 60 66  1  0
 60 62  1  0
 61 67  1  0
 62 61  1  0
 63 62  2  0
 64 65  1  0
 64 58  2  0
 65 60  2  0
 66 59  1  0
 67 57  1  0
 69 71  2  0
 70 69  1  0
 72 70  1  0
 73 82  2  0
 73 78  1  0
 74 70  1  0
 74 78  1  0
 75 74  1  0
 76 77  1  0
 76 75  1  0
 77 73  1  0
 78 79  2  0
 79 80  1  0
 81 80  2  0
 82 81  1  0
 83 57  1  0
 83 84  1  0
 83 93  1  0
 84 87  1  0
 85 89  1  0
 85 84  1  0
 86 85  2  0
 89 88  1  0
 89 91  1  0
 91 92  1  0
 91 90  1  0
 93 96  1  1
 93 94  1  0
 95 93  1  0
M  ISO  4  13 100  21 100  55 101  56 101
M  END
>  <TORSDO>  (89) 
F 27

>  <SCORE>  (89) 
-4.239

>  <name>  (89) 
92

>  <ligand_id>  (89) 
92

>  <original_smiles>  (89) 
[H]c1c([H])c([H])c2c(c1[H])C([H])([H])C([H])([H])C([H])([H])C2([H])N([H])C(=O)C1([H])N(C(=O)C([H])(N([H])C(=O)C([H])(N([H])C([H])([H])[H])C([H])([H])[H])C(C([H])([H])[H])(C([H])([H])[H])C([H])([H])[H])C([H])([H])c2c([H])c(OC([H])([H])C([H])([H])OC([H])([H])C([H])([H])N([H])C(=O)C([H])([H])[N+]([H])([H])C([H])([H])C([H])([H])C([H])([H])C([H])([H])N([H])C(=O)N3C([H])([H])C([H])([H])C([H])([H])C([H])(n4nc(-c5c([H])c([H])c(Oc6c([H])c([H])c(F)c([H])c6F)c([H])c5[H])c(C(=O)N([H])[H])c4N([H])[H])C3([H])[H])c([H])c([H])c2C1([H])[H]

>  <smiles>  (89) 
[H]c1c([H])c([H])c2c(c1[H])C([H])([H])C([H])([H])C([H])([H])C2([H])N([H])C(=O)C1([H])N(C(=O)C([H])(N([H])C(=O)C([H])(N([H])C([H])([H])[H])C([H])([H])[H])C(C([H])([H])[H])(C([H])([H])[H])C([H])([H])[H])C([H])([H])c2c([H])c(OC([H])([H])C([H])([H])OC([H])([H])C([H])([H])N([H])C(=O)C([H])([H])[N+]([H])([H])C([H])([H])C([H])([H])C([H])([H])C([H])([H])N([H])C(=O)N3C([H])([H])C([H])([H])C([H])([H])C([H])(n4nc(-c5c([H])c([H])c(Oc6c([H])c([H])c(F)c([H])c6F)c([H])c5[H])c(C(=O)N([H])[H])c4N([H])[H])C3([H])[H])c([H])c([H])c2C1([H])[H]

$$$$
93:0:0
     RDKit          3D

106111  0  0  1  0  0  0  0  0999 V2000
  -23.3140  -27.3630   25.6330 C   0  0  0  0  0  3  0  0  0  0  0  0
  -24.4110  -28.2350   25.6740 C   0  0  0  0  0  3  0  0  0  0  0  0
  -25.0470  -29.1730   26.7180 C   0  0  0  0  0  2  0  0  0  0  0  0
  -26.0460  -30.1540   26.4790 C   0  0  0  0  0  2  0  0  0  0  0  0
  -27.1770  -30.6580   27.4230 C   0  0  0  0  0  0  0  0  0  0  0  0
  -28.4800  -30.8500   26.8470 N   0  0  0  0  0  0  0  0  0  0  0  0
  -27.0100  -30.7940   28.6290 O   0  0  0  0  0  0  0  0  0  0  0  0
  -28.3880  -30.7430   25.8410 H   0  0  0  0  0  0  0  0  0  0  0  0
  -30.0250  -30.9080   27.2730 C   0  0  0  0  0  2  0  0  0  0  0  0
  -31.5490  -30.8540   26.3040 C   0  0  0  0  0  2  0  0  0  0  0  0
  -32.3720  -29.8800   25.3570 O   0  0  0  0  0  0  0  0  0  0  0  0
  -32.7530  -29.6160   23.8460 C   0  0  0  0  0  2  0  0  0  0  0  0
  -32.4990  -28.5680   22.4840 C   0  0  0  0  0  2  0  0  0  0  0  0
  -32.9060  -26.9640   21.8700 C   0  0  0  0  0  2  0  0  0  0  0  0
  -33.1280  -26.2990   20.3800 O   0  0  0  0  0  0  0  0  0  0  0  0
  -27.5410  -28.3700   21.6870 C   0  0  0  0  0  0  0  0  0  0  0  0
  -32.2020  -26.5370   19.3570 C   0  0  0  0  0  0  0  0  0  0  0  0
  -27.4120  -27.7170   19.2760 C   0  0  0  0  0  3  0  0  0  0  0  0
  -29.7120  -27.2120   18.2780 C   0  0  0  0  0  0  0  0  0  0  0  0
  -29.4320  -28.8620   20.1490 C   0  0  0  0  0  2  0  0  0  0  0  0
  -30.2630  -27.8900   19.3560 C   0  0  0  0  0  0  0  0  0  0  0  0
  -31.5750  -27.7000   19.6620 C   0  0  0  0  0  3  0  0  0  0  0  0
  -31.7560  -25.8530   18.1640 C   0  0  0  0  0  3  0  0  0  0  0  0
  -30.4960  -26.2400   17.5860 C   0  0  0  0  0  3  0  0  0  0  0  0
  -28.2950  -27.6570   17.9780 C   0  0  0  0  0  2  0  0  0  0  0  0
  -28.1270  -28.2850   20.4690 N   0  0  0  0  0  0  0  0  0  0  0  0
  -26.3200  -28.2010   21.8050 O   0  0  0  0  0  0  0  0  0  0  0  0
  -26.8230  -26.3180   19.4620 C   0  0  0  0  0  0  0  0  0  0  0  0
  -25.6150  -26.1360   18.9120 N   0  0  0  0  0  0  0  0  0  0  0  0
  -27.4650  -25.4170   20.0020 O   0  0  0  0  0  0  0  0  0  0  0  0
  -25.1450  -26.9270   18.4910 H   0  0  0  0  0  0  0  0  0  0  0  0
  -22.4430  -24.6940   18.1010 C   0  0  0  0  0  0  0  0  0  0  0  0
  -24.9000  -24.8810   18.8430 C   0  0  0  0  0  3  0  0  0  0  0  0
  -25.2440  -24.1090   17.5480 C   0  0  0  0  0  2  0  0  0  0  0  0
  -24.2770  -24.3790   16.3970 C   0  0  0  0  0  2  0  0  0  0  0  0
  -22.8550  -24.0070   16.8120 C   0  0  0  0  0  2  0  0  0  0  0  0
  -23.4070  -25.1050   19.0590 C   0  0  0  0  0  0  0  0  0  0  0  0
  -22.9730  -25.7480   20.2400 C   0  0  0  0  0  3  0  0  0  0  0  0
  -21.6050  -25.9820   20.4700 C   0  0  0  0  0  3  0  0  0  0  0  0
  -20.6550  -25.5900   19.5110 C   0  0  0  0  0  3  0  0  0  0  0  0
  -21.0750  -24.9460   18.3340 C   0  0  0  0  0  3  0  0  0  0  0  0
  -28.3820  -28.6260   22.9900 C   0  0  0  0  0  3  0  0  0  0  0  0
  -27.6340  -29.7840   23.6040 N   0  0  0  0  0  0  0  0  0  0  0  0
  -27.7590  -31.1130   23.3980 C   0  0  0  0  0  0  0  0  0  0  0  0
  -28.6380  -31.5840   22.6810 O   0  0  0  0  0  0  0  0  0  0  0  0
  -27.2100  -29.5840   24.4970 H   0  0  0  0  0  0  0  0  0  0  0  0
  -25.6470  -32.5540   23.1770 C   0  0  0  0  0  1  0  0  0  0  0  0
  -26.8030  -32.0960   24.1130 C   0  0  0  0  0  3  0  0  0  0  0  0
  -28.2690  -33.1740   25.8630 C   0  0  0  0  0  1  0  0  0  0  0  0
  -27.4300  -33.3170   24.6740 N   0  0  0  0  0  0  0  0  0  0  0  0
  -26.7250  -34.0280   24.8080 H   0  0  0  0  0  0  0  0  0  0  0  0
  -28.6470  -27.1230   23.7250 C   0  0  1  0  0  0  0  0  0  0  0  0
  -27.5740  -26.0640   23.7780 C   0  0  0  0  0  1  0  0  0  0  0  0
  -29.5460  -26.3400   22.7600 C   0  0  0  0  0  1  0  0  0  0  0  0
  -29.2740  -26.7450   25.1030 C   0  0  0  0  0  1  0  0  0  0  0  0
  -21.9420  -25.5910   24.1390 C   0  0  0  0  0  3  0  0  0  0  0  0
  -23.0790  -26.2630   24.5870 C   0  0  0  0  0  3  0  0  0  0  0  0
  -21.9150  -24.4310   23.1540 C   0  0  0  0  0  3  0  0  0  0  0  0
  -20.9070  -23.5390   22.8110 C   0  0  0  0  0  3  0  0  0  0  0  0
  -21.0710  -22.3790   21.8710 C   0  0  0  0  0  3  0  0  0  0  0  0
  -20.5250  -21.1160   21.9410 C   0  0  0  0  0  3  0  0  0  0  0  0
  -20.8870  -19.9800   21.0250 C   0  0  0  0  0  3  0  0  0  0  0  0
  -20.8980  -18.6220   21.2470 C   0  0  0  0  0  3  0  0  0  0  0  0
  -21.5000  -17.5970   20.2830 C   0  0  0  0  0  3  0  0  0  0  0  0
  -21.4500  -16.3010   20.3470 N   0  0  0  0  0  0  0  0  0  0  0  0
  -22.5900  -14.1590   19.7550 C   0  0  0  0  0  3  0  0  0  0  0  0
  -22.3660  -15.5060   19.5760 C   0  0  0  0  0  3  0  0  0  0  0  0
  -23.7630  -13.2730   19.2170 C   0  0  0  0  0  2  0  0  0  0  0  0
  -27.4760  -12.9430   21.4580 C   0  0  0  0  0  2  0  0  0  0  0  0
  -30.0780  -12.8480   19.9570 C   0  0  0  0  0  3  0  0  0  0  0  0
  -29.8340  -12.6380   18.2870 C   0  0  0  0  0  3  0  0  0  0  0  0
  -28.3650  -12.2370   17.8340 C   0  0  0  0  0  2  0  0  0  0  0  0
  -27.8430  -12.5620   19.0590 C   0  0  0  0  0  3  0  0  0  0  0  0
  -28.6160  -11.5250   20.0920 C   0  0  0  0  0  2  0  0  0  0  0  0
  -28.8220  -12.4590   20.9190 N   0  0  2  0  0  4  0  0  0  0  0  0
  -28.2980  -14.0160   21.3520 O   0  0  0  0  0  0  0  0  0  0  0  0
  -24.6710  -12.4960   20.2260 N   0  0  0  0  0  2  0  0  0  0  0  0
  -24.5090  -11.4940   20.2290 H   0  0  0  0  0  0  0  0  0  0  0  0
  -25.7550  -13.9220   21.0980 C   0  0  0  0  0  2  0  0  0  0  0  0
  -25.0070  -12.6750   22.1780 C   0  0  0  0  0  3  0  0  0  0  0  0
  -25.2520  -10.9640   21.5270 C   0  0  0  0  0  3  0  0  0  0  0  0
  -26.5740  -12.8240   19.4220 N   0  0  0  0  0  1  0  0  0  0  0  0
  -26.1370  -10.9300   20.0080 N   0  0  0  0  0  1  0  0  0  0  0  0
  -24.1430   -9.8390   21.3460 C   0  0  0  0  0  0  0  0  0  0  0  0
  -24.4710   -8.5110   21.6740 C   0  0  0  0  0  3  0  0  0  0  0  0
  -23.5970   -7.4060   21.4830 C   0  0  0  0  0  3  0  0  0  0  0  0
  -22.3070   -7.5540   20.9410 C   0  0  0  0  0  0  0  0  0  0  0  0
  -21.9280   -8.8640   20.5630 C   0  0  0  0  0  3  0  0  0  0  0  0
  -22.8210   -9.9700   20.7510 C   0  0  0  0  0  3  0  0  0  0  0  0
  -21.4360   -6.4800   20.7510 O   0  0  0  0  0  0  0  0  0  0  0  0
  -21.6800   -5.2390   21.3160 C   0  0  0  0  0  0  0  0  0  0  0  0
  -21.7290   -5.0690   22.7160 C   0  0  0  0  0  3  0  0  0  0  0  0
  -21.9600   -3.7970   23.2830 C   0  0  0  0  0  3  0  0  0  0  0  0
  -22.1170   -2.6730   22.4510 C   0  0  0  0  0  0  0  0  0  0  0  0
  -22.0480   -2.8240   21.0560 C   0  0  0  0  0  3  0  0  0  0  0  0
  -21.8270   -4.0950   20.4890 C   0  0  0  0  0  0  0  0  0  0  0  0
  -21.7490   -4.2120   19.1430 F   0  0  0  0  0  0  0  0  0  0  0  0
  -22.3370   -1.4500   22.9940 F   0  0  0  0  0  0  0  0  0  0  0  0
  -23.4710  -12.9140   22.5720 C   0  0  0  0  0  0  0  0  0  0  0  0
  -22.6270  -11.9150   22.8800 N   0  0  0  0  0  0  0  0  0  0  0  0
  -22.9180  -14.0020   22.5390 O   0  0  0  0  0  0  0  0  0  0  0  0
  -22.9110  -10.9470   22.8230 H   0  0  0  0  0  0  0  0  0  0  0  0
  -21.6590  -12.1280   23.0710 H   0  0  0  0  0  0  0  0  0  0  0  0
  -25.7660  -15.2680   21.2010 N   0  0  0  0  0  0  0  0  0  0  0  0
  -25.3050  -15.7900   21.9340 H   0  0  0  0  0  0  0  0  0  0  0  0
  -26.0860  -15.8410   20.4290 H   0  0  0  0  0  0  0  0  0  0  0  0
  1  2  2  0
  2  3  1  0
  4  3  1  0
  4  5  1  0
  5  7  2  0
  6  9  1  0
  6  5  1  0
  8  6  1  0
 10  9  1  0
 11 10  1  0
 12 11  1  0
 13 12  1  0
 14 13  1  0
 15 14  1  0
 16 27  2  0
 17 22  1  0
 17 15  1  0
 18 28  1  0
 18 26  1  0
 19 21  1  0
 20 26  1  0
 21 22  2  0
 21 20  1  0
 23 17  2  0
 24 23  1  0
 24 19  2  0
 25 19  1  0
 25 18  1  0
 26 16  1  0
 28 30  2  0
 29 28  1  0
 31 29  1  0
 32 41  2  0
 32 37  1  0
 33 29  1  0
 33 37  1  0
 34 33  1  0
 35 36  1  0
 35 34  1  0
 36 32  1  0
 37 38  2  0
 38 39  1  0
 40 39  2  0
 41 40  1  0
 42 16  1  0
 42 43  1  0
 42 52  1  0
 43 46  1  0
 44 43  1  0
 44 48  1  0
 45 44  2  0
 48 47  1  0
 48 50  1  0
 50 51  1  0
 50 49  1  0
 52 53  1  1
 52 55  1  0
 54 52  1  0
 56 57  2  0
 57  1  1  0
 58 56  1  0
 59 58  2  0
 60 61  2  0
 60 59  1  0
 62 63  2  0
 62 61  1  0
 64 65  2  0
 64 63  1  0
 67 66  2  0
 67 65  1  0
 68 66  1  0
 68 77  1  0
 70 75  1  0
 71 70  2  0
 72 71  1  0
 72 73  1  0
 73 82  1  0
 73 74  1  0
 75 74  1  6
 75 76  1  0
 75 69  1  0
 76 69  1  0
 77 78  1  0
 79104  1  0
 80 79  1  0
 80 99  1  0
 81 83  1  0
 81 80  1  0
 84 81  1  0
 84 85  1  0
 86 85  2  0
 87 86  1  0
 88 89  1  0
 88 87  2  0
 89 84  2  0
 90 87  1  0
 90 91  1  0
 91 92  1  0
 92 93  2  0
 94 98  1  0
 94 93  1  0
 95 94  2  0
 96 95  1  0
 96 91  2  0
 97 96  1  0
 99100  1  0
100103  1  0
101 99  2  0
102100  1  0
104105  1  0
106104  1  0
M  ISO  4  14 101  15 101  69 100  77 100
M  END
>  <TORSDO>  (90) 
F 31

>  <SCORE>  (90) 
30.570

>  <name>  (90) 
93

>  <ligand_id>  (90) 
93

>  <original_smiles>  (90) 
[H]C(=NC([H])=C([H])C([H])([H])N([H])C(=O)N1C([H])([H])C([H])([H])C([H])([H])C([H])(n2nc(-c3c([H])c([H])c(Oc4c([H])c([H])c(F)c([H])c4F)c([H])c3[H])c(C(=O)N([H])[H])c2N([H])[H])C1([H])[H])C([H])=C([H])C([H])=C([H])C([H])=C([H])C([H])=C([H])C([H])=C([H])C([H])=C([H])C(=O)N([H])C([H])([H])C([H])([H])OC([H])([H])C([H])([H])C([H])([H])Oc1c([H])c([H])c2c(c1[H])C([H])([H])N(C(=O)C([H])(N([H])C(=O)C([H])(N([H])C([H])([H])[H])C([H])([H])[H])C(C([H])([H])[H])(C([H])([H])[H])C([H])([H])[H])C([H])(C(=O)N([H])C1([H])c3c([H])c([H])c([H])c([H])c3C([H])([H])C([H])([H])C1([H])[H])C2([H])[H]

>  <smiles>  (90) 
[H]C(=NC([H])=C([H])C([H])([H])N([H])C(=O)N1C([H])([H])C([H])([H])C([H])([H])C([H])(n2nc(-c3c([H])c([H])c(Oc4c([H])c([H])c(F)c([H])c4F)c([H])c3[H])c(C(=O)N([H])[H])c2N([H])[H])C1([H])[H])C([H])=C([H])C([H])=C([H])C([H])=C([H])C([H])=C([H])C([H])=C([H])C([H])=C([H])C(=O)N([H])C([H])([H])C([H])([H])OC([H])([H])C([H])([H])C([H])([H])Oc1c([H])c([H])c2c(c1[H])C([H])([H])N(C(=O)C([H])(N([H])C(=O)C([H])(N([H])C([H])([H])[H])C([H])([H])[H])C(C([H])([H])[H])(C([H])([H])[H])C([H])([H])[H])C([H])(C(=O)N([H])C1([H])c3c([H])c([H])c([H])c([H])c3C([H])([H])C([H])([H])C1([H])[H])C2([H])[H]

$$$$
95:0:0
     RDKit          3D

 98105  0  0  1  0  0  0  0  0999 V2000
  -28.6520  -23.3550   18.0530 C   0  0  0  0  0  2  0  0  0  0  0  0
  -28.2150  -24.7510   17.8530 N   0  0  0  0  0  4  0  0  0  0  0  0
  -28.2940  -25.2700   18.7180 H   0  0  0  0  0  0  0  0  0  0  0  0
  -27.2390  -24.7180   17.5980 H   0  0  0  0  0  0  0  0  0  0  0  0
  -28.9240  -25.4810   16.7760 C   0  0  0  0  0  2  0  0  0  0  0  0
  -30.3800  -25.8590   17.1230 C   0  0  0  0  0  2  0  0  0  0  0  0
  -30.3870  -26.9330   18.0590 O   0  0  0  0  0  0  0  0  0  0  0  0
  -30.6610  -26.5870   19.4130 C   0  0  0  0  0  2  0  0  0  0  0  0
  -29.6440  -27.3380   20.2770 C   0  0  0  0  0  2  0  0  0  0  0  0
  -28.3980  -26.6580   20.1390 O   0  0  0  0  0  0  0  0  0  0  0  0
  -24.5590  -31.8300   23.2750 C   0  0  0  0  0  0  0  0  0  0  0  0
  -27.2500  -27.4140   20.2270 C   0  0  0  0  0  0  0  0  0  0  0  0
  -23.3730  -30.4330   21.6090 C   0  0  0  0  0  3  0  0  0  0  0  0
  -24.8420  -28.8850   20.2200 C   0  0  0  0  0  0  0  0  0  0  0  0
  -25.8980  -30.7890   21.4540 C   0  0  0  0  0  2  0  0  0  0  0  0
  -25.9870  -29.4170   20.8260 C   0  0  0  0  0  0  0  0  0  0  0  0
  -27.1910  -28.6870   20.8390 C   0  0  0  0  0  3  0  0  0  0  0  0
  -26.0820  -26.8760   19.6500 C   0  0  0  0  0  3  0  0  0  0  0  0
  -24.8800  -27.6060   19.6360 C   0  0  0  0  0  3  0  0  0  0  0  0
  -23.5950  -29.7360   20.2400 C   0  0  0  0  0  2  0  0  0  0  0  0
  -24.6260  -31.0330   22.1710 N   0  0  0  0  0  0  0  0  0  0  0  0
  -23.4720  -32.1090   23.7980 O   0  0  0  0  0  0  0  0  0  0  0  0
  -22.6990  -29.4220   22.5620 C   0  0  0  0  0  0  0  0  0  0  0  0
  -21.3810  -29.2320   22.3910 N   0  0  0  0  0  0  0  0  0  0  0  0
  -23.3620  -28.8050   23.4000 O   0  0  0  0  0  0  0  0  0  0  0  0
  -20.9110  -29.7760   21.6800 H   0  0  0  0  0  0  0  0  0  0  0  0
  -18.0070  -28.0050   22.7720 C   0  0  0  0  0  0  0  0  0  0  0  0
  -20.5470  -28.2970   23.1420 C   0  0  0  0  0  3  0  0  0  0  0  0
  -20.6920  -26.8610   22.5900 C   0  0  0  0  0  2  0  0  0  0  0  0
  -19.6340  -26.5090   21.5380 C   0  0  0  0  0  2  0  0  0  0  0  0
  -18.2250  -26.6490   22.1230 C   0  0  0  0  0  2  0  0  0  0  0  0
  -19.0980  -28.7860   23.2350 C   0  0  0  0  0  0  0  0  0  0  0  0
  -18.8440  -30.0550   23.7970 C   0  0  0  0  0  3  0  0  0  0  0  0
  -17.5290  -30.5430   23.9060 C   0  0  0  0  0  3  0  0  0  0  0  0
  -16.4500  -29.7600   23.4600 C   0  0  0  0  0  3  0  0  0  0  0  0
  -16.6900  -28.4930   22.9000 C   0  0  0  0  0  3  0  0  0  0  0  0
  -25.8400  -32.4470   23.9220 C   0  0  0  0  0  3  0  0  0  0  0  0
  -25.5370  -33.8480   24.2440 N   0  0  0  0  0  0  0  0  0  0  0  0
  -25.8960  -34.8960   23.4910 C   0  0  0  0  0  0  0  0  0  0  0  0
  -26.5880  -34.7850   22.4760 O   0  0  0  0  0  0  0  0  0  0  0  0
  -24.9240  -34.0100   25.0300 H   0  0  0  0  0  0  0  0  0  0  0  0
  -24.1870  -36.7040   23.0980 C   0  0  0  0  0  1  0  0  0  0  0  0
  -25.4080  -36.2890   23.9350 C   0  0  0  0  0  3  0  0  0  0  0  0
  -27.5370  -37.1540   24.8020 C   0  0  0  0  0  1  0  0  0  0  0  0
  -26.4490  -37.3350   23.8460 N   0  0  0  0  0  0  0  0  0  0  0  0
  -26.0460  -38.2570   23.9960 H   0  0  0  0  0  0  0  0  0  0  0  0
  -26.3310  -31.6710   25.2060 C   0  0  1  0  0  0  0  0  0  0  0  0
  -25.2210  -31.4370   26.2560 C   0  0  0  0  0  1  0  0  0  0  0  0
  -26.9170  -30.2910   24.8280 C   0  0  0  0  0  1  0  0  0  0  0  0
  -27.4720  -32.4630   25.8900 C   0  0  0  0  0  1  0  0  0  0  0  0
  -27.9840  -22.6990   19.2730 C   0  0  0  0  0  2  0  0  0  0  0  0
  -28.3440  -21.2090   19.3570 C   0  0  0  0  0  2  0  0  0  0  0  0
  -27.8170  -20.5310   20.6310 C   0  0  0  0  0  2  0  0  0  0  0  0
  -28.0670  -19.0110   20.6510 C   0  0  0  0  0  2  0  0  0  0  0  0
  -29.5060  -18.6960   20.7820 N   0  0  0  0  0  4  0  0  0  0  0  0
  -29.8970  -19.2670   21.5140 H   0  0  0  0  0  0  0  0  0  0  0  0
  -29.9670  -18.9380   19.9210 H   0  0  0  0  0  0  0  0  0  0  0  0
  -29.8060  -17.2830   21.0830 C   0  0  0  0  0  2  0  0  0  0  0  0
  -31.3180  -17.0050   20.9710 C   0  0  0  0  0  2  0  0  0  0  0  0
  -31.7680  -15.6480   21.5440 C   0  0  0  0  0  2  0  0  0  0  0  0
  -31.2780  -13.7250   20.0010 C   0  0  0  0  0  0  0  0  0  0  0  0
  -30.7440  -11.5590   18.9400 C   0  0  0  0  0  2  0  0  0  0  0  0
  -29.7710  -11.6990   17.7560 C   0  0  0  0  0  2  0  0  0  0  0  0
  -28.3100  -11.6980   18.2420 C   0  0  0  0  0  2  0  0  0  0  0  0
  -28.0710  -12.6940   19.4060 C   0  0  0  0  0  3  0  0  0  0  0  0
  -29.1340  -12.5030   20.5090 C   0  0  0  0  0  2  0  0  0  0  0  0
  -30.4730  -12.6390   19.8990 N   0  0  0  0  0  0  0  0  0  0  0  0
  -32.2530  -13.9300   19.2700 O   0  0  0  0  0  0  0  0  0  0  0  0
  -30.9890  -14.5170   21.0420 N   0  0  0  0  0  0  0  0  0  0  0  0
  -30.2020  -14.2220   21.6030 H   0  0  0  0  0  0  0  0  0  0  0  0
  -25.7820  -13.5680   20.2020 C   0  0  0  0  0  0  0  0  0  0  0  0
  -24.6550  -12.9200   20.6260 C   0  0  0  0  0  0  0  0  0  0  0  0
  -24.9630  -11.5240   20.5890 C   0  0  0  0  0  0  0  0  0  0  0  0
  -26.7160  -12.5760   19.9390 N   0  0  0  0  0  0  0  0  0  0  0  0
  -26.2270  -11.3430   20.2260 N   0  0  0  0  0  0  0  0  0  0  0  0
  -24.1140  -10.3500   20.8240 C   0  0  0  0  0  0  0  0  0  0  0  0
  -24.4720   -9.3550   21.7620 C   0  0  0  0  0  3  0  0  0  0  0  0
  -23.6290   -8.2440   21.9820 C   0  0  0  0  0  3  0  0  0  0  0  0
  -22.4150   -8.1200   21.2670 C   0  0  0  0  0  0  0  0  0  0  0  0
  -22.0750   -9.1020   20.3190 C   0  0  0  0  0  3  0  0  0  0  0  0
  -22.9160  -10.2040   20.0960 C   0  0  0  0  0  3  0  0  0  0  0  0
  -21.5470   -7.0620   21.3960 O   0  0  0  0  0  0  0  0  0  0  0  0
  -21.4610   -6.3430   22.5610 C   0  0  0  0  0  0  0  0  0  0  0  0
  -21.1340   -6.9540   23.7920 C   0  0  0  0  0  3  0  0  0  0  0  0
  -20.9860   -6.1670   24.9520 C   0  0  0  0  0  3  0  0  0  0  0  0
  -21.1510   -4.7700   24.8820 C   0  0  0  0  0  0  0  0  0  0  0  0
  -21.4720   -4.1600   23.6560 C   0  0  0  0  0  3  0  0  0  0  0  0
  -21.6210   -4.9440   22.4990 C   0  0  0  0  0  0  0  0  0  0  0  0
  -21.9080   -4.3480   21.3160 F   0  0  0  0  0  0  0  0  0  0  0  0
  -21.0020   -4.0130   25.9930 F   0  0  0  0  0  0  0  0  0  0  0  0
  -23.3300  -13.5460   20.9540 C   0  0  0  0  0  0  0  0  0  0  0  0
  -22.5790  -12.9490   21.8730 N   0  0  0  0  0  0  0  0  0  0  0  0
  -22.9740  -14.6010   20.4300 O   0  0  0  0  0  0  0  0  0  0  0  0
  -22.8780  -12.0920   22.3160 H   0  0  0  0  0  0  0  0  0  0  0  0
  -21.6920  -13.3540   22.1370 H   0  0  0  0  0  0  0  0  0  0  0  0
  -26.0870  -14.9110   20.0010 N   0  0  0  0  0  0  0  0  0  0  0  0
  -25.3920  -15.6410   20.1120 H   0  0  0  0  0  0  0  0  0  0  0  0
  -26.9540  -15.2440   19.5990 H   0  0  0  0  0  0  0  0  0  0  0  0
  1 51  1  0
  2  1  1  0
  2  3  1  0
  4  2  1  0
  5  6  1  0
  5  2  1  0
  6  7  1  0
  7  8  1  0
  8  9  1  0
 10 12  1  0
 10  9  1  0
 11 22  2  0
 12 17  1  0
 13 21  1  0
 13 23  1  0
 14 20  1  0
 14 16  1  0
 15 21  1  0
 16 17  2  0
 16 15  1  0
 18 12  2  0
 19 18  1  0
 19 14  2  0
 20 13  1  0
 21 11  1  0
 23 25  2  0
 24 23  1  0
 26 24  1  0
 27 36  2  0
 27 32  1  0
 28 24  1  0
 28 32  1  0
 29 28  1  0
 30 31  1  0
 30 29  1  0
 31 27  1  0
 32 33  2  0
 33 34  1  0
 35 34  2  0
 36 35  1  0
 37 11  1  0
 37 38  1  0
 37 47  1  0
 38 41  1  0
 39 43  1  0
 39 38  1  0
 40 39  2  0
 43 42  1  0
 45 43  1  0
 45 46  1  0
 45 44  1  0
 47 50  1  1
 47 48  1  0
 49 47  1  0
 51 52  1  0
 52 53  1  0
 53 54  1  0
 54 55  1  0
 55 58  1  0
 55 56  1  0
 57 55  1  0
 59 58  1  0
 59 60  1  0
 61 69  1  0
 62 67  1  0
 63 64  1  0
 63 62  1  0
 65 64  1  0
 65 74  1  0
 65 66  1  0
 67 61  1  0
 67 66  1  0
 68 61  2  0
 69 60  1  0
 69 70  1  0
 71 72  2  0
 72 91  1  0
 73 72  1  0
 73 76  1  0
 74 71  1  0
 74 75  1  0
 75 73  2  0
 76 77  1  0
 77 78  2  0
 79 82  1  0
 79 78  1  0
 80 79  2  0
 81 80  1  0
 81 76  2  0
 82 83  1  0
 83 84  1  0
 84 85  2  0
 86 85  1  0
 86 90  1  0
 87 86  2  0
 88 83  2  0
 88 87  1  0
 89 88  1  0
 91 92  1  0
 92 95  1  0
 92 94  1  0
 93 91  2  0
 96 97  1  0
 96 71  1  0
 98 96  1  0
M  ISO  4   9 101  10 101  61 100  69 100
M  END
>  <TORSDO>  (91) 
F 30

>  <SCORE>  (91) 
-10.061

>  <name>  (91) 
95

>  <ligand_id>  (91) 
95

>  <original_smiles>  (91) 
[H]c1c([H])c([H])c2c(c1[H])C([H])([H])C([H])([H])C([H])([H])C2([H])N([H])C(=O)C1([H])N(C(=O)C([H])(N([H])C(=O)C([H])(N([H])C([H])([H])[H])C([H])([H])[H])C(C([H])([H])[H])(C([H])([H])[H])C([H])([H])[H])C([H])([H])c2c([H])c(OC([H])([H])C([H])([H])OC([H])([H])C([H])([H])[N+]([H])([H])C([H])([H])C([H])([H])C([H])([H])C([H])([H])C([H])([H])[N+]([H])([H])C([H])([H])C([H])([H])C([H])([H])N([H])C(=O)N3C([H])([H])C([H])([H])C([H])([H])C([H])(n4nc(-c5c([H])c([H])c(Oc6c([H])c([H])c(F)c([H])c6F)c([H])c5[H])c(C(=O)N([H])[H])c4N([H])[H])C3([H])[H])c([H])c([H])c2C1([H])[H]

>  <smiles>  (91) 
[H]c1c([H])c([H])c2c(c1[H])C([H])([H])C([H])([H])C([H])([H])C2([H])N([H])C(=O)C1([H])N(C(=O)C([H])(N([H])C(=O)C([H])(N([H])C([H])([H])[H])C([H])([H])[H])C(C([H])([H])[H])(C([H])([H])[H])C([H])([H])[H])C([H])([H])c2c([H])c(OC([H])([H])C([H])([H])OC([H])([H])C([H])([H])[N+]([H])([H])C([H])([H])C([H])([H])C([H])([H])C([H])([H])C([H])([H])[N+]([H])([H])C([H])([H])C([H])([H])C([H])([H])N([H])C(=O)N3C([H])([H])C([H])([H])C([H])([H])C([H])(n4nc(-c5c([H])c([H])c(Oc6c([H])c([H])c(F)c([H])c6F)c([H])c5[H])c(C(=O)N([H])[H])c4N([H])[H])C3([H])[H])c([H])c([H])c2C1([H])[H]

$$$$
