0:0:0
     RDKit          3D

110116  0  0  1  0  0  0  0  0999 V2000
  -27.5460  -17.3530   26.2690 C   0  0  0  0  0  3  0  0  0  0  0  0
  -28.4230  -17.8840   25.3910 C   0  0  0  0  0  3  0  0  0  0  0  0
  -28.8970  -19.2490   25.4890 C   0  0  0  0  0  0  0  0  0  0  0  0
  -30.2250  -19.3630   25.4000 N   0  0  0  0  0  0  0  0  0  0  0  0
  -28.1590  -20.2190   25.6520 O   0  0  0  0  0  0  0  0  0  0  0  0
  -30.7550  -18.5130   25.2860 H   0  0  0  0  0  0  0  0  0  0  0  0
  -30.9850  -20.6050   25.3990 C   0  0  0  0  0  2  0  0  0  0  0  0
  -31.2260  -21.0910   23.9590 C   0  0  0  0  0  2  0  0  0  0  0  0
  -30.5090  -22.2810   23.7020 O   0  0  0  0  0  0  0  0  0  0  0  0
  -29.3270  -22.0860   22.9380 C   0  0  0  0  0  2  0  0  0  0  0  0
  -28.8030  -23.4690   22.5420 C   0  0  0  0  0  2  0  0  0  0  0  0
  -29.1870  -23.7580   21.2110 O   0  0  0  0  0  0  0  0  0  0  0  0
  -28.5070  -24.8860   20.6910 C   0  0  0  0  0  2  0  0  0  0  0  0
  -29.4260  -25.5910   19.6700 C   0  0  0  0  0  2  0  0  0  0  0  0
  -28.7210  -26.1980   18.5870 O   0  0  0  0  0  0  0  0  0  0  0  0
  -25.5340  -30.2450   23.5360 C   0  0  0  0  0  0  0  0  0  0  0  0
  -27.6360  -26.9500   18.9640 C   0  0  0  0  0  0  0  0  0  0  0  0
  -24.1200  -29.4670   21.6650 C   0  0  0  0  0  3  0  0  0  0  0  0
  -25.3550  -28.4170   19.7010 C   0  0  0  0  0  0  0  0  0  0  0  0
  -26.6430  -29.7760   21.3610 C   0  0  0  0  0  2  0  0  0  0  0  0
  -26.5870  -28.6860   20.3130 C   0  0  0  0  0  0  0  0  0  0  0  0
  -27.7350  -27.9480   19.9550 C   0  0  0  0  0  3  0  0  0  0  0  0
  -26.4000  -26.6940   18.3460 C   0  0  0  0  0  3  0  0  0  0  0  0
  -25.2480  -27.4110   18.7260 C   0  0  0  0  0  3  0  0  0  0  0  0
  -24.1770  -29.2570   20.1310 C   0  0  0  0  0  2  0  0  0  0  0  0
  -25.4540  -29.8270   22.2450 N   0  0  0  0  0  0  0  0  0  0  0  0
  -24.5160  -30.3700   24.2340 O   0  0  0  0  0  0  0  0  0  0  0  0
  -23.4870  -28.2160   22.3140 C   0  0  0  0  0  0  0  0  0  0  0  0
  -22.2120  -27.9520   21.9890 N   0  0  0  0  0  0  0  0  0  0  0  0
  -24.1460  -27.4970   23.0700 O   0  0  0  0  0  0  0  0  0  0  0  0
  -21.7420  -28.5960   21.3690 H   0  0  0  0  0  0  0  0  0  0  0  0
  -19.1040  -26.1710   21.5030 C   0  0  0  0  0  0  0  0  0  0  0  0
  -21.4240  -26.8100   22.4490 C   0  0  0  0  0  3  0  0  0  0  0  0
  -21.9320  -25.4930   21.8160 C   0  0  0  0  0  2  0  0  0  0  0  0
  -21.1870  -25.1130   20.5330 C   0  0  0  0  0  2  0  0  0  0  0  0
  -19.6900  -24.9550   20.8050 C   0  0  0  0  0  2  0  0  0  0  0  0
  -19.9210  -27.0510   22.2620 C   0  0  0  0  0  0  0  0  0  0  0  0
  -19.3330  -28.1860   22.8610 C   0  0  0  0  0  3  0  0  0  0  0  0
  -17.9570  -28.4440   22.7170 C   0  0  0  0  0  3  0  0  0  0  0  0
  -17.1490  -27.5600   21.9800 C   0  0  0  0  0  3  0  0  0  0  0  0
  -17.7240  -26.4260   21.3780 C   0  0  0  0  0  3  0  0  0  0  0  0
  -26.9010  -30.6080   24.1970 C   0  0  0  0  0  3  0  0  0  0  0  0
  -26.7550  -31.9260   24.8280 N   0  0  0  0  0  0  0  0  0  0  0  0
  -27.2760  -33.0630   24.3450 C   0  0  0  0  0  0  0  0  0  0  0  0
  -28.0010  -33.0950   23.3460 O   0  0  0  0  0  0  0  0  0  0  0  0
  -26.1330  -31.9830   25.6220 H   0  0  0  0  0  0  0  0  0  0  0  0
  -25.9090  -35.1700   24.2730 C   0  0  0  0  0  1  0  0  0  0  0  0
  -26.9420  -34.3720   25.0860 C   0  0  0  0  0  3  0  0  0  0  0  0
  -29.0300  -34.6350   26.3500 C   0  0  0  0  0  1  0  0  0  0  0  0
  -28.1280  -35.2130   25.3560 N   0  0  0  0  0  0  0  0  0  0  0  0
  -27.8510  -36.1370   25.6770 H   0  0  0  0  0  0  0  0  0  0  0  0
  -27.3880  -29.5380   25.2510 C   0  0  1  0  0  0  0  0  0  0  0  0
  -26.3420  -29.2270   26.3500 C   0  0  0  0  0  1  0  0  0  0  0  0
  -27.7470  -28.2060   24.5560 C   0  0  0  0  0  1  0  0  0  0  0  0
  -28.6820  -30.0340   25.9390 C   0  0  0  0  0  1  0  0  0  0  0  0
  -27.7170  -14.9570   25.9490 C   0  0  0  0  0  3  0  0  0  0  0  0
  -26.9360  -16.0520   26.0650 C   0  0  0  0  0  0  0  0  0  0  0  0
  -27.2790  -13.5250   25.6790 C   0  0  0  0  0  1  0  0  0  0  0  0
  -25.4160  -16.0200   25.9340 C   0  0  0  0  0  2  0  0  0  0  0  0
  -24.9050  -16.9840   25.0000 O   0  0  0  0  0  0  0  0  0  0  0  0
  -25.3190  -16.8840   23.6370 C   0  0  0  0  0  2  0  0  0  0  0  0
  -25.1480  -15.4990   22.9900 C   0  0  0  0  0  2  0  0  0  0  0  0
  -26.4660  -14.9410   22.4340 C   0  0  0  0  0  2  0  0  0  0  0  0
  -26.3130  -13.5230   21.7190 C   0  0  0  0  0  1  0  0  0  0  0  0
  -27.2240  -12.6450   18.7260 O   0  0  0  0  0  1  0  0  0  0  0  0
  -28.4860  -12.7980   17.9050 C   0  0  0  0  0  2  0  0  0  0  0  0
  -29.6780  -11.7650   17.9740 C   0  0  0  0  0  2  0  0  0  0  0  0
  -31.0820  -12.2870   18.3520 C   0  0  0  0  0  2  0  0  0  0  0  0
  -31.4450  -11.8030   19.6580 O   0  0  0  0  0  0  0  0  0  0  0  0
  -32.1400  -12.7110   20.5210 C   0  0  0  0  0  2  0  0  0  0  0  0
  -32.6060  -12.0220   21.8340 C   0  0  0  0  0  2  0  0  0  0  0  0
  -31.6220  -11.0400   22.5460 C   0  0  0  0  0  2  0  0  0  0  0  0
  -32.1700   -8.6960   23.4830 C   0  0  0  0  0  0  0  0  0  0  0  0
  -31.2550   -6.5000   22.8530 C   0  0  0  0  0  2  0  0  0  0  0  0
  -30.9080   -6.5450   21.3540 C   0  0  0  0  0  2  0  0  0  0  0  0
  -29.4790   -7.0400   21.2240 C   0  0  0  0  0  2  0  0  0  0  0  0
  -29.3600   -8.4280   21.9270 C   0  0  0  0  0  3  0  0  0  0  0  0
  -29.7150   -8.3010   23.4200 C   0  0  0  0  0  2  0  0  0  0  0  0
  -31.1010   -7.8730   23.3700 N   0  0  0  0  0  0  0  0  0  0  0  0
  -33.2760   -8.2760   23.7990 O   0  0  0  0  0  0  0  0  0  0  0  0
  -32.2220   -9.7000   22.5860 N   0  0  0  0  0  0  0  0  0  0  0  0
  -33.1830   -9.7590   22.2810 H   0  0  0  0  0  0  0  0  0  0  0  0
  -27.3780  -10.4120   21.2780 C   0  0  0  0  0  0  0  0  0  0  0  0
  -25.7370  -10.2060   21.2660 C   0  0  0  0  0  0  0  0  0  0  0  0
  -25.3730   -8.5750   21.7520 C   0  0  0  0  0  0  0  0  0  0  0  0
  -28.0800   -8.8820   21.7870 N   0  0  0  0  0  0  0  0  0  0  0  0
  -26.7880   -7.7610   22.0870 N   0  0  0  0  0  0  0  0  0  0  0  0
  -24.1770   -7.8710   21.9100 C   0  0  0  0  0  0  0  0  0  0  0  0
  -23.9560   -7.1450   23.0890 C   0  0  0  0  0  3  0  0  0  0  0  0
  -22.7560   -6.4410   23.2100 C   0  0  0  0  0  3  0  0  0  0  0  0
  -21.8170   -6.4790   22.1480 C   0  0  0  0  0  0  0  0  0  0  0  0
  -22.0880   -7.2000   20.9700 C   0  0  0  0  0  3  0  0  0  0  0  0
  -23.2770   -7.9060   20.8500 C   0  0  0  0  0  3  0  0  0  0  0  0
  -20.6340   -5.8000   22.1630 O   0  0  0  0  0  0  0  0  0  0  0  0
  -19.9410   -5.6390   23.3250 C   0  0  0  0  0  0  0  0  0  0  0  0
  -19.4880   -6.7390   24.0900 C   0  0  0  0  0  3  0  0  0  0  0  0
  -18.6950   -6.5140   25.2330 C   0  0  0  0  0  3  0  0  0  0  0  0
  -18.3640   -5.2010   25.6090 C   0  0  0  0  0  0  0  0  0  0  0  0
  -18.8250   -4.1070   24.8580 C   0  0  0  0  0  3  0  0  0  0  0  0
  -19.6100   -4.3260   23.7140 C   0  0  0  0  0  0  0  0  0  0  0  0
  -20.0340   -3.2800   22.9710 F   0  0  0  0  0  0  0  0  0  0  0  0
  -17.5980   -4.9820   26.7070 F   0  0  0  0  0  0  0  0  0  0  0  0
  -24.7250  -11.1350   20.7710 C   0  0  0  0  0  0  0  0  0  0  0  0
  -23.5170  -11.0140   21.2990 N   0  0  0  0  0  0  0  0  0  0  0  0
  -25.0260  -11.9710   19.9280 O   0  0  0  0  0  0  0  0  0  0  0  0
  -23.3030  -10.3270   22.0080 H   0  0  0  0  0  0  0  0  0  0  0  0
  -22.7950  -11.6370   20.9730 H   0  0  0  0  0  0  0  0  0  0  0  0
  -28.2230  -11.4650   20.9730 N   0  0  0  0  0  0  0  0  0  0  0  0
  -27.9300  -12.4030   20.7370 H   0  0  0  0  0  0  0  0  0  0  0  0
  -29.1980  -11.3140   20.7610 H   0  0  0  0  0  0  0  0  0  0  0  0
  2  3  1  0
  2  1  2  0
  3  5  2  0
  4  3  1  0
  6  4  1  0
  7  4  1  0
  8  7  1  0
  9  8  1  0
 10  9  1  0
 11 10  1  0
 12 11  1  0
 13 12  1  0
 14 13  1  0
 15 17  1  0
 15 14  1  0
 16 27  2  0
 17 22  1  0
 18 26  1  0
 18 28  1  0
 19 25  1  0
 19 21  1  0
 20 26  1  0
 21 20  1  0
 22 21  2  0
 23 24  1  0
 23 17  2  0
 24 19  2  0
 25 18  1  0
 26 16  1  0
 28 30  2  0
 29 28  1  0
 31 29  1  0
 32 37  1  0
 33 29  1  0
 34 33  1  0
 35 36  1  0
 35 34  1  0
 36 32  1  0
 37 33  1  0
 37 38  2  0
 39 38  1  0
 40 39  2  0
 41 32  2  0
 41 40  1  0
 42 16  1  0
 42 43  1  0
 42 52  1  0
 43 46  1  0
 44 43  1  0
 44 48  1  0
 45 44  2  0
 48 47  1  0
 48 50  1  0
 50 51  1  0
 50 49  1  0
 52 55  1  1
 52 53  1  0
 54 52  1  0
 56 57  2  0
 57  1  1  0
 58 56  1  0
 59 57  1  0
 60 59  1  0
 61 60  1  0
 62 61  1  0
 63 62  1  0
 64 63  1  0
 66 67  1  0
 66 65  1  0
 67 68  1  0
 68 69  1  0
 69 70  1  0
 70 71  1  0
 71 72  1  0
 72 81  1  0
 73 80  2  0
 74 79  1  0
 75 74  1  0
 76 75  1  0
 77 76  1  0
 77 78  1  0
 79 78  1  0
 79 73  1  0
 81 73  1  0
 82 81  1  0
 83 86  1  0
 84 83  2  0
 84 85  1  0
 85 88  1  0
 85 87  2  0
 86 77  1  0
 86 87  1  0
 88 89  1  0
 89 90  2  0
 91 94  1  0
 91 90  1  0
 92 91  2  0
 93 92  1  0
 93 88  2  0
 94 95  1  0
 95100  2  0
 95 96  1  0
 96 97  2  0
 97 98  1  0
 98102  1  0
 99 98  2  0
100 99  1  0
101100  1  0
103 84  1  0
103104  1  0
104106  1  0
105103  2  0
107104  1  0
108 83  1  0
109108  1  0
110108  1  0
M  ISO  4  14 101  15 101  73 100  81 100
M  END
>  <TORSDO>  (1) 
F 40

>  <SCORE>  (1) 
35.676

>  <name>  (1) 
0

>  <ligand_id>  (1) 
0

>  <original_smiles>  (1) 
[H]C(C(=O)N([H])C([H])([H])C([H])([H])OC([H])([H])C([H])([H])OC([H])([H])C([H])([H])Oc1c([H])c([H])c2c(c1[H])C([H])([H])N(C(=O)C([H])(N([H])C(=O)C([H])(N([H])C([H])([H])[H])C([H])([H])[H])C(C([H])([H])[H])(C([H])([H])[H])C([H])([H])[H])C([H])(C(=O)N([H])C1([H])c3c([H])c([H])c([H])c([H])c3C([H])([H])C([H])([H])C1([H])[H])C2([H])[H])=C([H])C(=C([H])C([H])([H])[H])C([H])([H])OC([H])([H])C([H])([H])C([H])([H])C([H])([H])OC([H])([H])C([H])([H])C([H])([H])OC([H])([H])C([H])([H])C([H])([H])N([H])C(=O)N1C([H])([H])C([H])([H])C([H])([H])C([H])(n2nc(-c3c([H])c([H])c(Oc4c([H])c([H])c(F)c([H])c4F)c([H])c3[H])c(C(=O)N([H])[H])c2N([H])[H])C1([H])[H]

>  <smiles>  (1) 
[H]C(C(=O)N([H])C([H])([H])C([H])([H])OC([H])([H])C([H])([H])OC([H])([H])C([H])([H])Oc1c([H])c([H])c2c(c1[H])C([H])([H])N(C(=O)C([H])(N([H])C(=O)C([H])(N([H])C([H])([H])[H])C([H])([H])[H])C(C([H])([H])[H])(C([H])([H])[H])C([H])([H])[H])C([H])(C(=O)N([H])C1([H])c3c([H])c([H])c([H])c([H])c3C([H])([H])C([H])([H])C1([H])[H])C2([H])[H])=C([H])C(=C([H])C([H])([H])[H])C([H])([H])OC([H])([H])C([H])([H])C([H])([H])C([H])([H])OC([H])([H])C([H])([H])C([H])([H])OC([H])([H])C([H])([H])C([H])([H])N([H])C(=O)N1C([H])([H])C([H])([H])C([H])([H])C([H])(n2nc(-c3c([H])c([H])c(Oc4c([H])c([H])c(F)c([H])c4F)c([H])c3[H])c(C(=O)N([H])[H])c2N([H])[H])C1([H])[H]

$$$$
1:0:0
     RDKit          3D

 95102  0  0  1  0  0  0  0  0999 V2000
  -25.1100  -22.0360   18.8570 N   0  0  0  0  0  4  0  0  0  0  0  0
  -24.5770  -21.2660   18.4850 H   0  0  0  0  0  0  0  0  0  0  0  0
  -24.8360  -22.8590   18.3440 H   0  0  0  0  0  0  0  0  0  0  0  0
  -24.7280  -22.1690   20.2900 C   0  0  0  0  0  2  0  0  0  0  0  0
  -24.9730  -23.5730   20.8830 C   0  0  0  0  0  2  0  0  0  0  0  0
  -26.3740  -23.8100   20.8260 O   0  0  0  0  0  0  0  0  0  0  0  0
  -26.8340  -24.9000   21.6090 C   0  0  0  0  0  2  0  0  0  0  0  0
  -28.3120  -25.0990   21.2560 C   0  0  0  0  0  2  0  0  0  0  0  0
  -28.5450  -25.6870   19.8500 C   0  0  0  0  0  2  0  0  0  0  0  0
  -28.4700  -27.1130   19.8350 O   0  0  0  0  0  0  0  0  0  0  0  0
  -24.5740  -31.9780   23.1900 C   0  0  0  0  0  0  0  0  0  0  0  0
  -27.2450  -27.7420   19.8740 C   0  0  0  0  0  0  0  0  0  0  0  0
  -23.3570  -30.6160   21.5240 C   0  0  0  0  0  3  0  0  0  0  0  0
  -24.8080  -29.1740   19.9990 C   0  0  0  0  0  0  0  0  0  0  0  0
  -25.8650  -31.0500   21.2730 C   0  0  0  0  0  2  0  0  0  0  0  0
  -25.9640  -29.7090   20.5790 C   0  0  0  0  0  0  0  0  0  0  0  0
  -27.1790  -28.9970   20.5160 C   0  0  0  0  0  3  0  0  0  0  0  0
  -26.0740  -27.2200   19.2790 C   0  0  0  0  0  3  0  0  0  0  0  0
  -24.8590  -27.9300   19.3450 C   0  0  0  0  0  3  0  0  0  0  0  0
  -23.5420  -29.9920   20.1130 C   0  0  0  0  0  2  0  0  0  0  0  0
  -24.6190  -31.2260   22.0540 N   0  0  0  0  0  0  0  0  0  0  0  0
  -23.5040  -32.2010   23.7730 O   0  0  0  0  0  0  0  0  0  0  0  0
  -22.7570  -29.5430   22.4610 C   0  0  0  0  0  0  0  0  0  0  0  0
  -21.4390  -29.3180   22.3460 N   0  0  0  0  0  0  0  0  0  0  0  0
  -23.4770  -28.9110   23.2400 O   0  0  0  0  0  0  0  0  0  0  0  0
  -20.9220  -29.8790   21.6840 H   0  0  0  0  0  0  0  0  0  0  0  0
  -18.1180  -27.9900   22.8320 C   0  0  0  0  0  0  0  0  0  0  0  0
  -20.6670  -28.3280   23.0950 C   0  0  0  0  0  3  0  0  0  0  0  0
  -20.8150  -26.9220   22.4710 C   0  0  0  0  0  2  0  0  0  0  0  0
  -19.7170  -26.5910   21.4560 C   0  0  0  0  0  2  0  0  0  0  0  0
  -18.3360  -26.6700   22.1130 C   0  0  0  0  0  2  0  0  0  0  0  0
  -19.2120  -28.7770   23.2790 C   0  0  0  0  0  0  0  0  0  0  0  0
  -18.9520  -30.0140   23.9080 C   0  0  0  0  0  3  0  0  0  0  0  0
  -17.6310  -30.4680   24.0890 C   0  0  0  0  0  3  0  0  0  0  0  0
  -16.5520  -29.6760   23.6610 C   0  0  0  0  0  3  0  0  0  0  0  0
  -16.7960  -28.4390   23.0390 C   0  0  0  0  0  3  0  0  0  0  0  0
  -25.8640  -32.6070   23.8020 C   0  0  0  0  0  3  0  0  0  0  0  0
  -25.5510  -33.9990   24.1560 N   0  0  0  0  0  0  0  0  0  0  0  0
  -25.8770  -35.0640   23.4070 C   0  0  0  0  0  0  0  0  0  0  0  0
  -26.5400  -34.9740   22.3690 O   0  0  0  0  0  0  0  0  0  0  0  0
  -24.9490  -34.1340   24.9550 H   0  0  0  0  0  0  0  0  0  0  0  0
  -24.1400  -36.8520   23.0800 C   0  0  0  0  0  1  0  0  0  0  0  0
  -25.3850  -36.4430   23.8850 C   0  0  0  0  0  3  0  0  0  0  0  0
  -27.5240  -37.3280   24.7070 C   0  0  0  0  0  1  0  0  0  0  0  0
  -26.4130  -37.5000   23.7750 N   0  0  0  0  0  0  0  0  0  0  0  0
  -26.0070  -38.4200   23.9220 H   0  0  0  0  0  0  0  0  0  0  0  0
  -26.4050  -31.8190   25.0590 C   0  0  1  0  0  0  0  0  0  0  0  0
  -25.3280  -31.5580   26.1400 C   0  0  0  0  0  1  0  0  0  0  0  0
  -26.9900  -30.4540   24.6280 C   0  0  0  0  0  1  0  0  0  0  0  0
  -27.5600  -32.6110   25.7110 C   0  0  0  0  0  1  0  0  0  0  0  0
  -26.5440  -21.7350   18.6160 C   0  0  0  0  0  2  0  0  0  0  0  0
  -26.8250  -21.0990   17.2370 C   0  0  0  0  0  2  0  0  0  0  0  0
  -28.2600  -20.5480   17.1490 C   0  0  0  0  0  2  0  0  0  0  0  0
  -28.3840  -19.4450   18.0420 O   0  0  0  0  0  0  0  0  0  0  0  0
  -29.6610  -19.3180   18.6630 C   0  0  0  0  0  2  0  0  0  0  0  0
  -30.1410  -17.8620   18.5470 C   0  0  0  0  0  2  0  0  0  0  0  0
  -29.6210  -17.0280   19.5710 O   0  0  0  0  0  0  0  0  0  0  0  0
  -30.2850  -17.1650   20.8280 C   0  0  0  0  0  2  0  0  0  0  0  0
  -30.0810  -15.8570   21.5950 C   0  0  0  0  0  2  0  0  0  0  0  0
  -30.8900  -14.7010   20.9720 C   0  0  0  0  0  0  0  0  0  0  0  0
  -30.7280  -12.6120   19.6770 C   0  0  0  0  0  2  0  0  0  0  0  0
  -29.8860  -12.8960   18.4170 C   0  0  0  0  0  2  0  0  0  0  0  0
  -28.3770  -12.7320   18.7000 C   0  0  0  0  0  2  0  0  0  0  0  0
  -27.9480  -13.5150   19.9680 C   0  0  0  0  0  3  0  0  0  0  0  0
  -28.8930  -13.1940   21.1440 C   0  0  0  0  0  2  0  0  0  0  0  0
  -30.2640  -13.5230   20.7290 N   0  0  0  0  0  0  0  0  0  0  0  0
  -32.0530  -14.9170   20.6050 O   0  0  0  0  0  0  0  0  0  0  0  0
  -25.4950  -14.1210   20.4370 C   0  0  0  0  0  0  0  0  0  0  0  0
  -24.4070  -13.3500   20.7330 C   0  0  0  0  0  0  0  0  0  0  0  0
  -24.8800  -12.0020   20.7840 C   0  0  0  0  0  0  0  0  0  0  0  0
  -26.5620  -13.2450   20.3250 N   0  0  0  0  0  0  0  0  0  0  0  0
  -26.1920  -11.9670   20.5910 N   0  0  0  0  0  0  0  0  0  0  0  0
  -24.1560  -10.7360   20.9470 C   0  0  0  0  0  0  0  0  0  0  0  0
  -24.5230   -9.8020   21.9400 C   0  0  0  0  0  3  0  0  0  0  0  0
  -23.8040   -8.5960   22.0860 C   0  0  0  0  0  3  0  0  0  0  0  0
  -22.7070   -8.3200   21.2380 C   0  0  0  0  0  0  0  0  0  0  0  0
  -22.3640   -9.2420   20.2340 C   0  0  0  0  0  3  0  0  0  0  0  0
  -23.0820  -10.4380   20.0850 C   0  0  0  0  0  3  0  0  0  0  0  0
  -21.9630   -7.1690   21.2870 O   0  0  0  0  0  0  0  0  0  0  0  0
  -21.8210   -6.4560   22.4500 C   0  0  0  0  0  0  0  0  0  0  0  0
  -21.2800   -7.0330   23.6190 C   0  0  0  0  0  3  0  0  0  0  0  0
  -21.0890   -6.2430   24.7700 C   0  0  0  0  0  3  0  0  0  0  0  0
  -21.4290   -4.8760   24.7500 C   0  0  0  0  0  0  0  0  0  0  0  0
  -21.9610   -4.3000   23.5830 C   0  0  0  0  0  3  0  0  0  0  0  0
  -22.1550   -5.0870   22.4370 C   0  0  0  0  0  0  0  0  0  0  0  0
  -22.6500   -4.5220   21.3090 F   0  0  0  0  0  0  0  0  0  0  0  0
  -21.2380   -4.1140   25.8520 F   0  0  0  0  0  0  0  0  0  0  0  0
  -22.9860  -13.8140   20.8710 C   0  0  0  0  0  0  0  0  0  0  0  0
  -22.1930  -13.1310   21.6860 N   0  0  0  0  0  0  0  0  0  0  0  0
  -22.5850  -14.8180   20.2810 O   0  0  0  0  0  0  0  0  0  0  0  0
  -22.5300  -12.3200   22.1870 H   0  0  0  0  0  0  0  0  0  0  0  0
  -21.2320  -13.4170   21.8130 H   0  0  0  0  0  0  0  0  0  0  0  0
  -25.6690  -15.4890   20.2370 N   0  0  0  0  0  0  0  0  0  0  0  0
  -24.8910  -16.1420   20.2380 H   0  0  0  0  0  0  0  0  0  0  0  0
  -26.5470  -15.9140   19.9690 H   0  0  0  0  0  0  0  0  0  0  0  0
  1  4  1  0
  2  1  1  0
  3  1  1  0
  4  5  1  0
  6  5  1  0
  6  7  1  0
  8  7  1  0
  9  8  1  0
 10  9  1  0
 10 12  1  0
 11 22  2  0
 12 17  1  0
 13 21  1  0
 13 23  1  0
 14 20  1  0
 14 16  1  0
 15 21  1  0
 16 15  1  0
 17 16  2  0
 18 19  1  0
 18 12  2  0
 19 14  2  0
 20 13  1  0
 21 11  1  0
 23 25  2  0
 24 23  1  0
 26 24  1  0
 27 36  2  0
 27 32  1  0
 28 24  1  0
 28 32  1  0
 29 28  1  0
 30 31  1  0
 30 29  1  0
 31 27  1  0
 32 33  2  0
 33 34  1  0
 35 34  2  0
 36 35  1  0
 37 11  1  0
 37 38  1  0
 37 47  1  0
 38 41  1  0
 39 43  1  0
 39 38  1  0
 40 39  2  0
 43 42  1  0
 45 43  1  0
 45 46  1  0
 45 44  1  0
 47 50  1  1
 47 48  1  0
 49 47  1  0
 51  1  1  0
 52 51  1  0
 53 52  1  0
 53 54  1  0
 54 55  1  0
 56 55  1  0
 56 57  1  0
 57 58  1  0
 58 59  1  0
 60 59  1  0
 61 66  1  0
 62 63  1  0
 62 61  1  0
 64 63  1  0
 64 71  1  0
 64 65  1  0
 66 60  1  0
 66 65  1  0
 67 60  2  0
 68 69  2  0
 69 70  1  0
 69 88  1  0
 70 73  1  0
 71 68  1  0
 71 72  1  0
 72 70  2  0
 73 74  1  0
 74 75  2  0
 76 79  1  0
 76 75  1  0
 77 76  2  0
 78 77  1  0
 78 73  2  0
 79 80  1  0
 80 81  1  0
 81 82  2  0
 83 82  1  0
 83 87  1  0
 84 83  2  0
 85 80  2  0
 85 84  1  0
 86 85  1  0
 88 89  1  0
 89 92  1  0
 89 91  1  0
 90 88  2  0
 93 94  1  0
 93 68  1  0
 95 93  1  0
M  ISO  4   9 101  10 101  59 100  60 100
M  END
>  <TORSDO>  (2) 
F 31

>  <SCORE>  (2) 
-9.582

>  <name>  (2) 
1

>  <ligand_id>  (2) 
1

>  <original_smiles>  (2) 
[H]c1c([H])c([H])c2c(c1[H])C([H])([H])C([H])([H])C([H])([H])C2([H])N([H])C(=O)C1([H])N(C(=O)C([H])(N([H])C(=O)C([H])(N([H])C([H])([H])[H])C([H])([H])[H])C(C([H])([H])[H])(C([H])([H])[H])C([H])([H])[H])C([H])([H])c2c([H])c(OC([H])([H])C([H])([H])C([H])([H])OC([H])([H])C([H])([H])[N+]([H])([H])C([H])([H])C([H])([H])C([H])([H])OC([H])([H])C([H])([H])OC([H])([H])C([H])([H])C(=O)N3C([H])([H])C([H])([H])C([H])([H])C([H])(n4nc(-c5c([H])c([H])c(Oc6c([H])c([H])c(F)c([H])c6F)c([H])c5[H])c(C(=O)N([H])[H])c4N([H])[H])C3([H])[H])c([H])c([H])c2C1([H])[H]

>  <smiles>  (2) 
[H]c1c([H])c([H])c2c(c1[H])C([H])([H])C([H])([H])C([H])([H])C2([H])N([H])C(=O)C1([H])N(C(=O)C([H])(N([H])C(=O)C([H])(N([H])C([H])([H])[H])C([H])([H])[H])C(C([H])([H])[H])(C([H])([H])[H])C([H])([H])[H])C([H])([H])c2c([H])c(OC([H])([H])C([H])([H])C([H])([H])OC([H])([H])C([H])([H])[N+]([H])([H])C([H])([H])C([H])([H])C([H])([H])OC([H])([H])C([H])([H])OC([H])([H])C([H])([H])C(=O)N3C([H])([H])C([H])([H])C([H])([H])C([H])(n4nc(-c5c([H])c([H])c(Oc6c([H])c([H])c(F)c([H])c6F)c([H])c5[H])c(C(=O)N([H])[H])c4N([H])[H])C3([H])[H])c([H])c([H])c2C1([H])[H]

$$$$
2:0:0
     RDKit          3D

105112  0  0  1  0  0  0  0  0999 V2000
  -28.9380  -28.4910   23.7100 C   0  0  0  0  0  0  0  0  0  0  0  0
  -28.8530  -28.6090   22.3820 N   0  0  0  0  0  0  0  0  0  0  0  0
  -29.6380  -29.2340   24.4020 O   0  0  0  0  0  0  0  0  0  0  0  0
  -28.2510  -27.9630   21.8870 H   0  0  0  0  0  0  0  0  0  0  0  0
  -28.1140  -27.4030   24.2050 C   0  0  0  0  0  3  0  0  0  0  0  0
  -27.9500  -27.2140   25.5240 C   0  0  0  0  0  3  0  0  0  0  0  0
  -27.1680  -26.1960   26.0030 O   0  0  0  0  0  0  0  0  0  0  0  0
  -27.6150  -25.6230   27.2270 C   0  0  0  0  0  2  0  0  0  0  0  0
  -28.0000  -24.1640   26.9520 C   0  0  0  0  0  2  0  0  0  0  0  0
  -28.6520  -24.1150   25.6910 O   0  0  0  0  0  0  0  0  0  0  0  0
  -29.4520  -22.9580   25.5060 C   0  0  0  0  0  2  0  0  0  0  0  0
  -29.5870  -22.7370   23.9940 C   0  0  0  0  0  2  0  0  0  0  0  0
  -30.4440  -21.5200   23.6250 C   0  0  0  0  0  2  0  0  0  0  0  0
  -30.0630  -21.1050   22.3220 O   0  0  0  0  0  0  0  0  0  0  0  0
  -30.3960  -19.7550   22.0400 C   0  0  0  0  0  2  0  0  0  0  0  0
  -30.1950  -19.5380   20.5350 C   0  0  0  0  0  2  0  0  0  0  0  0
  -31.0760  -18.4380   19.9160 C   0  0  0  0  0  2  0  0  0  0  0  0
  -30.9660  -16.0150   19.3420 C   0  0  0  0  0  0  0  0  0  0  0  0
  -31.3400  -13.6130   19.7300 C   0  0  0  0  0  2  0  0  0  0  0  0
  -30.6100  -12.6940   18.7400 C   0  0  0  0  0  2  0  0  0  0  0  0
  -29.1820  -12.4050   19.2310 C   0  0  0  0  0  2  0  0  0  0  0  0
  -28.4100  -13.6960   19.5960 C   0  0  0  0  0  3  0  0  0  0  0  0
  -29.2460  -14.6070   20.5200 C   0  0  0  0  0  2  0  0  0  0  0  0
  -30.5620  -14.8490   19.8960 N   0  0  0  0  0  0  0  0  0  0  0  0
  -31.8680  -16.0960   18.5000 O   0  0  0  0  0  0  0  0  0  0  0  0
  -30.4750  -17.1030   19.9500 N   0  0  0  0  0  0  0  0  0  0  0  0
  -29.7910  -16.9200   20.6690 H   0  0  0  0  0  0  0  0  0  0  0  0
  -26.0920  -14.2420   20.5820 C   0  0  0  0  0  0  0  0  0  0  0  0
  -25.0590  -13.4400   20.9890 C   0  0  0  0  0  0  0  0  0  0  0  0
  -25.5080  -12.0960   20.8040 C   0  0  0  0  0  0  0  0  0  0  0  0
  -27.1050  -13.3850   20.1810 N   0  0  0  0  0  0  0  0  0  0  0  0
  -26.7620  -12.0850   20.3690 N   0  0  0  0  0  0  0  0  0  0  0  0
  -24.7950  -10.8210   20.9610 C   0  0  0  0  0  0  0  0  0  0  0  0
  -25.0310   -9.9770   22.0680 C   0  0  0  0  0  3  0  0  0  0  0  0
  -24.3220   -8.7640   22.2080 C   0  0  0  0  0  3  0  0  0  0  0  0
  -23.3630   -8.3870   21.2390 C   0  0  0  0  0  0  0  0  0  0  0  0
  -23.1480   -9.2210   20.1260 C   0  0  0  0  0  3  0  0  0  0  0  0
  -23.8580  -10.4240   19.9860 C   0  0  0  0  0  3  0  0  0  0  0  0
  -22.6450   -7.2160   21.2780 O   0  0  0  0  0  0  0  0  0  0  0  0
  -21.9910   -6.8110   22.4130 C   0  0  0  0  0  0  0  0  0  0  0  0
  -20.9290   -7.5600   22.9680 C   0  0  0  0  0  3  0  0  0  0  0  0
  -20.2370   -7.0730   24.0950 C   0  0  0  0  0  3  0  0  0  0  0  0
  -20.5960   -5.8360   24.6620 C   0  0  0  0  0  0  0  0  0  0  0  0
  -21.6480   -5.0860   24.1070 C   0  0  0  0  0  3  0  0  0  0  0  0
  -22.3400   -5.5710   22.9850 C   0  0  0  0  0  0  0  0  0  0  0  0
  -23.3400   -4.8340   22.4410 F   0  0  0  0  0  0  0  0  0  0  0  0
  -19.9270   -5.3650   25.7400 F   0  0  0  0  0  0  0  0  0  0  0  0
  -23.6980  -13.8890   21.4360 C   0  0  0  0  0  0  0  0  0  0  0  0
  -23.0830  -13.1610   22.3600 N   0  0  0  0  0  0  0  0  0  0  0  0
  -23.1930  -14.9250   21.0000 O   0  0  0  0  0  0  0  0  0  0  0  0
  -23.5100  -12.3270   22.7350 H   0  0  0  0  0  0  0  0  0  0  0  0
  -22.1740  -13.4430   22.7020 H   0  0  0  0  0  0  0  0  0  0  0  0
  -26.2480  -15.6210   20.5030 N   0  0  0  0  0  0  0  0  0  0  0  0
  -25.5000  -16.2660   20.7400 H   0  0  0  0  0  0  0  0  0  0  0  0
  -27.0730  -16.0880   20.1440 H   0  0  0  0  0  0  0  0  0  0  0  0
  -29.5380  -29.6110   21.5670 C   0  0  0  0  0  2  0  0  0  0  0  0
  -30.8430  -29.0930   20.9220 C   0  0  0  0  0  2  0  0  0  0  0  0
  -30.6380  -28.1970   19.6900 C   0  0  0  0  0  2  0  0  0  0  0  0
  -30.7630  -28.9970   18.5230 O   0  0  0  0  0  0  0  0  0  0  0  0
  -31.4690  -28.3630   17.4630 C   0  0  0  0  0  2  0  0  0  0  0  0
  -31.6540  -29.4020   16.3530 C   0  0  0  0  0  2  0  0  0  0  0  0
  -30.5900  -29.2310   15.4200 O   0  0  0  0  0  0  0  0  0  0  0  0
  -30.8960  -29.6820   14.1090 C   0  0  0  0  0  2  0  0  0  0  0  0
  -29.7100  -29.3880   13.1760 C   0  0  0  0  0  2  0  0  0  0  0  0
  -30.1410  -29.4650   11.8160 O   0  0  0  0  0  0  0  0  0  0  0  0
  -24.2750  -26.1030    9.5090 C   0  0  0  0  0  0  0  0  0  0  0  0
  -29.2260  -29.2120   10.8120 C   0  0  0  0  0  0  0  0  0  0  0  0
  -25.6140  -27.2520    7.7730 C   0  0  0  0  0  3  0  0  0  0  0  0
  -27.4500  -28.7960    8.6450 C   0  0  0  0  0  0  0  0  0  0  0  0
  -25.6060  -28.0960   10.1830 C   0  0  0  0  0  2  0  0  0  0  0  0
  -27.0280  -28.5570    9.9590 C   0  0  0  0  0  0  0  0  0  0  0  0
  -27.9070  -28.7550   11.0410 C   0  0  0  0  0  3  0  0  0  0  0  0
  -29.6400  -29.4520    9.4850 C   0  0  0  0  0  3  0  0  0  0  0  0
  -28.7610  -29.2420    8.4000 C   0  0  0  0  0  3  0  0  0  0  0  0
  -26.4370  -28.5530    7.5490 C   0  0  0  0  0  2  0  0  0  0  0  0
  -25.1480  -27.0990    9.1890 N   0  0  0  0  0  0  0  0  0  0  0  0
  -23.8200  -25.3470    8.6390 O   0  0  0  0  0  0  0  0  0  0  0  0
  -26.4530  -26.0560    7.2740 C   0  0  0  0  0  0  0  0  0  0  0  0
  -26.1910  -25.6220    6.0300 N   0  0  0  0  0  0  0  0  0  0  0  0
  -27.3330  -25.5620    7.9820 O   0  0  0  0  0  0  0  0  0  0  0  0
  -25.4550  -26.0870    5.5150 H   0  0  0  0  0  0  0  0  0  0  0  0
  -25.9890  -23.3820    3.2030 C   0  0  0  0  0  0  0  0  0  0  0  0
  -26.8780  -24.5340    5.3390 C   0  0  0  0  0  3  0  0  0  0  0  0
  -28.0200  -25.0750    4.4510 C   0  0  0  0  0  2  0  0  0  0  0  0
  -27.5850  -25.3360    3.0060 C   0  0  0  0  0  2  0  0  0  0  0  0
  -27.0610  -24.0500    2.3600 C   0  0  0  0  0  2  0  0  0  0  0  0
  -25.8930  -23.6220    4.6000 C   0  0  0  0  0  0  0  0  0  0  0  0
  -24.8580  -23.0010    5.3330 C   0  0  0  0  0  3  0  0  0  0  0  0
  -23.9320  -22.1580    4.6940 C   0  0  0  0  0  3  0  0  0  0  0  0
  -24.0370  -21.9170    3.3140 C   0  0  0  0  0  3  0  0  0  0  0  0
  -25.0670  -22.5210    2.5730 C   0  0  0  0  0  3  0  0  0  0  0  0
  -23.7830  -25.8820   10.9750 C   0  0  0  0  0  3  0  0  0  0  0  0
  -24.1100  -24.4420   11.5320 C   0  0  1  0  0  0  0  0  0  0  0  0
  -23.6240  -23.2920   10.6180 C   0  0  0  0  0  1  0  0  0  0  0  0
  -25.6330  -24.2670   11.7390 C   0  0  0  0  0  1  0  0  0  0  0  0
  -23.4560  -24.2600   12.9210 C   0  0  0  0  0  1  0  0  0  0  0  0
  -22.3370  -26.1380   10.9960 N   0  0  0  0  0  0  0  0  0  0  0  0
  -21.7800  -27.3560   10.9380 C   0  0  0  0  0  0  0  0  0  0  0  0
  -22.4420  -28.3970   10.9340 O   0  0  0  0  0  0  0  0  0  0  0  0
  -21.7360  -25.3290   10.9270 H   0  0  0  0  0  0  0  0  0  0  0  0
  -19.7760  -27.3160    9.4120 C   0  0  0  0  0  1  0  0  0  0  0  0
  -20.2400  -27.4320   10.8740 C   0  0  0  0  0  3  0  0  0  0  0  0
  -20.2310  -28.9580   12.7990 C   0  0  0  0  0  1  0  0  0  0  0  0
  -19.6860  -28.6660   11.4750 N   0  0  0  0  0  0  0  0  0  0  0  0
  -18.6740  -28.6030   11.5510 H   0  0  0  0  0  0  0  0  0  0  0  0
  1  5  1  0
  1  3  2  0
  2  1  1  0
  4  2  1  0
  5  6  2  0
  6  7  1  0
  7  8  1  0
  9  8  1  0
 10  9  1  0
 11 10  1  0
 12 11  1  0
 13 12  1  0
 14 13  1  0
 15 14  1  0
 16 15  1  0
 17 26  1  0
 17 16  1  0
 18 24  1  0
 18 26  1  0
 19 24  1  0
 20 21  1  0
 20 19  1  0
 22 21  1  0
 22 31  1  0
 22 23  1  0
 24 23  1  0
 25 18  2  0
 26 27  1  0
 28 29  2  0
 29 48  1  0
 30 33  1  0
 30 29  1  0
 31 32  1  0
 31 28  1  0
 32 30  2  0
 33 34  1  0
 34 35  2  0
 36 39  1  0
 36 35  1  0
 37 36  2  0
 38 37  1  0
 38 33  2  0
 39 40  1  0
 40 41  2  0
 40 45  1  0
 41 42  1  0
 42 43  2  0
 43 47  1  0
 44 43  1  0
 45 44  2  0
 46 45  1  0
 48 49  1  0
 49 52  1  0
 49 51  1  0
 50 48  2  0
 53 28  1  0
 53 54  1  0
 55 53  1  0
 56  2  1  0
 57 56  1  0
 58 57  1  0
 59 58  1  0
 60 59  1  0
 61 60  1  0
 62 61  1  0
 63 62  1  0
 64 63  1  0
 65 64  1  0
 67 72  1  0
 67 65  1  0
 68 78  1  0
 68 76  1  0
 69 71  1  0
 71 70  1  0
 71 72  2  0
 73 67  2  0
 74 69  2  0
 74 73  1  0
 75 68  1  0
 75 69  1  0
 76 66  1  0
 76 70  1  0
 77 66  2  0
 78 80  2  0
 79 78  1  0
 81 79  1  0
 82 87  1  0
 83 79  1  0
 84 83  1  0
 85 84  1  0
 86 85  1  0
 86 82  1  0
 87 88  2  0
 87 83  1  0
 89 88  1  0
 90 89  2  0
 91 82  2  0
 91 90  1  0
 92 66  1  0
 92 97  1  0
 92 93  1  0
 93 95  1  1
 93 96  1  0
 94 93  1  0
 98 97  1  0
 99 98  2  0
100 97  1  0
102101  1  0
102 98  1  0
102104  1  0
104105  1  0
104103  1  0
M  ISO  4  18 100  26 100  64 101  65 101
M  END
>  <TORSDO>  (3) 
F 37

>  <SCORE>  (3) 
0.110

>  <name>  (3) 
2

>  <ligand_id>  (3) 
2

>  <original_smiles>  (3) 
[H]C(OC([H])([H])C([H])([H])OC([H])([H])C([H])([H])C([H])([H])OC([H])([H])C([H])([H])C([H])([H])N([H])C(=O)N1C([H])([H])C([H])([H])C([H])([H])C([H])(n2nc(-c3c([H])c([H])c(Oc4c([H])c([H])c(F)c([H])c4F)c([H])c3[H])c(C(=O)N([H])[H])c2N([H])[H])C1([H])[H])=C([H])C(=O)N([H])C([H])([H])C([H])([H])C([H])([H])OC([H])([H])C([H])([H])OC([H])([H])C([H])([H])Oc1c([H])c([H])c2c(c1[H])C([H])([H])N(C(=O)C([H])(N([H])C(=O)C([H])(N([H])C([H])([H])[H])C([H])([H])[H])C(C([H])([H])[H])(C([H])([H])[H])C([H])([H])[H])C([H])(C(=O)N([H])C1([H])c3c([H])c([H])c([H])c([H])c3C([H])([H])C([H])([H])C1([H])[H])C2([H])[H]

>  <smiles>  (3) 
[H]C(OC([H])([H])C([H])([H])OC([H])([H])C([H])([H])C([H])([H])OC([H])([H])C([H])([H])C([H])([H])N([H])C(=O)N1C([H])([H])C([H])([H])C([H])([H])C([H])(n2nc(-c3c([H])c([H])c(Oc4c([H])c([H])c(F)c([H])c4F)c([H])c3[H])c(C(=O)N([H])[H])c2N([H])[H])C1([H])[H])=C([H])C(=O)N([H])C([H])([H])C([H])([H])C([H])([H])OC([H])([H])C([H])([H])OC([H])([H])C([H])([H])Oc1c([H])c([H])c2c(c1[H])C([H])([H])N(C(=O)C([H])(N([H])C(=O)C([H])(N([H])C([H])([H])[H])C([H])([H])[H])C(C([H])([H])[H])(C([H])([H])[H])C([H])([H])[H])C([H])(C(=O)N([H])C1([H])c3c([H])c([H])c([H])c([H])c3C([H])([H])C([H])([H])C1([H])[H])C2([H])[H]

$$$$
3:0:0
     RDKit          3D

114121  0  0  1  0  0  0  0  0999 V2000
  -33.6330  -17.8080   19.2530 C   0  0  0  0  0  0  0  0  0  0  0  0
  -32.4090  -18.3520   19.1850 N   0  0  0  0  0  0  0  0  0  0  0  0
  -34.5450  -18.2930   19.9280 O   0  0  0  0  0  0  0  0  0  0  0  0
  -31.7280  -17.8530   18.6300 H   0  0  0  0  0  0  0  0  0  0  0  0
  -31.9330  -19.4930   19.9630 C   0  0  0  0  0  2  0  0  0  0  0  0
  -30.1720  -21.2150   19.6620 C   0  0  0  0  0  0  0  0  0  0  0  0
  -31.1290  -20.4170   19.1650 N   0  0  0  0  0  0  0  0  0  0  0  0
  -29.8660  -21.2140   20.8580 O   0  0  0  0  0  0  0  0  0  0  0  0
  -31.3320  -20.4910   18.1780 H   0  0  0  0  0  0  0  0  0  0  0  0
  -28.3550  -21.3070   17.9480 C   0  0  0  0  0  1  0  0  0  0  0  0
  -29.4330  -22.1350   18.6690 C   0  0  0  0  0  3  0  0  0  0  0  0
  -29.1340  -24.4940   19.4650 C   0  0  0  0  0  0  0  0  0  0  0  0
  -28.7630  -23.2090   19.4080 N   0  0  0  0  0  0  0  0  0  0  0  0
  -30.0450  -24.9560   18.7720 O   0  0  0  0  0  0  0  0  0  0  0  0
  -28.0510  -22.9110   20.0620 H   0  0  0  0  0  0  0  0  0  0  0  0
  -28.3720  -25.3810   20.4630 C   0  0  0  0  0  2  0  0  0  0  0  0
  -28.4250  -26.7570   20.0650 O   0  0  0  0  0  0  0  0  0  0  0  0
  -24.6130  -31.8690   23.2110 C   0  0  0  0  0  0  0  0  0  0  0  0
  -27.2400  -27.4560   20.0900 C   0  0  0  0  0  0  0  0  0  0  0  0
  -23.3990  -30.4920   21.5510 C   0  0  0  0  0  3  0  0  0  0  0  0
  -24.8460  -28.9560   20.1190 C   0  0  0  0  0  0  0  0  0  0  0  0
  -25.9250  -30.8410   21.3600 C   0  0  0  0  0  2  0  0  0  0  0  0
  -26.0040  -29.4750   20.7100 C   0  0  0  0  0  0  0  0  0  0  0  0
  -27.2050  -28.7320   20.6910 C   0  0  0  0  0  3  0  0  0  0  0  0
  -26.0660  -26.9470   19.4920 C   0  0  0  0  0  3  0  0  0  0  0  0
  -24.8700  -27.6880   19.5100 C   0  0  0  0  0  3  0  0  0  0  0  0
  -23.6070  -29.8200   20.1660 C   0  0  0  0  0  2  0  0  0  0  0  0
  -24.6640  -31.0810   22.0990 N   0  0  0  0  0  0  0  0  0  0  0  0
  -23.5330  -32.1420   23.7520 O   0  0  0  0  0  0  0  0  0  0  0  0
  -22.7390  -29.4660   22.5000 C   0  0  0  0  0  0  0  0  0  0  0  0
  -21.4120  -29.3030   22.3730 N   0  0  0  0  0  0  0  0  0  0  0  0
  -23.4180  -28.8210   23.3030 O   0  0  0  0  0  0  0  0  0  0  0  0
  -20.9280  -29.8750   21.6960 H   0  0  0  0  0  0  0  0  0  0  0  0
  -18.0270  -28.1370   22.8490 C   0  0  0  0  0  0  0  0  0  0  0  0
  -20.5860  -28.3660   23.1320 C   0  0  0  0  0  3  0  0  0  0  0  0
  -20.6760  -26.9400   22.5410 C   0  0  0  0  0  2  0  0  0  0  0  0
  -19.5740  -26.6390   21.5210 C   0  0  0  0  0  2  0  0  0  0  0  0
  -18.1920  -26.7920   22.1620 C   0  0  0  0  0  2  0  0  0  0  0  0
  -19.1520  -28.8830   23.2910 C   0  0  0  0  0  0  0  0  0  0  0  0
  -18.9450  -30.1430   23.8920 C   0  0  0  0  0  3  0  0  0  0  0  0
  -17.6450  -30.6580   24.0560 C   0  0  0  0  0  3  0  0  0  0  0  0
  -16.5340  -29.9080   23.6320 C   0  0  0  0  0  3  0  0  0  0  0  0
  -16.7260  -28.6500   23.0340 C   0  0  0  0  0  3  0  0  0  0  0  0
  -25.9030  -32.4820   23.8390 C   0  0  0  0  0  3  0  0  0  0  0  0
  -25.5900  -33.8620   24.2330 N   0  0  0  0  0  0  0  0  0  0  0  0
  -25.9030  -34.9470   23.5130 C   0  0  0  0  0  0  0  0  0  0  0  0
  -26.5590  -34.8930   22.4690 O   0  0  0  0  0  0  0  0  0  0  0  0
  -25.0070  -33.9770   25.0490 H   0  0  0  0  0  0  0  0  0  0  0  0
  -24.1490  -36.7310   23.2640 C   0  0  0  0  0  1  0  0  0  0  0  0
  -25.4110  -36.3110   24.0340 C   0  0  0  0  0  3  0  0  0  0  0  0
  -27.5580  -37.1810   24.8460 C   0  0  0  0  0  1  0  0  0  0  0  0
  -26.4290  -37.3790   23.9410 N   0  0  0  0  0  0  0  0  0  0  0  0
  -26.0180  -38.2870   24.1420 H   0  0  0  0  0  0  0  0  0  0  0  0
  -26.4480  -31.6580   25.0700 C   0  0  1  0  0  0  0  0  0  0  0  0
  -25.3760  -31.3670   26.1470 C   0  0  0  0  0  1  0  0  0  0  0  0
  -27.0290  -30.3030   24.6050 C   0  0  0  0  0  1  0  0  0  0  0  0
  -27.6060  -32.4290   25.7470 C   0  0  0  0  0  1  0  0  0  0  0  0
  -33.8600  -16.5130   18.4600 C   0  0  0  0  0  2  0  0  0  0  0  0
  -34.4590  -15.5300   19.3040 O   0  0  0  0  0  0  0  0  0  0  0  0
  -34.4670  -14.2380   18.7070 C   0  0  0  0  0  2  0  0  0  0  0  0
  -35.0340  -13.1960   19.6830 C   0  0  0  0  0  2  0  0  0  0  0  0
  -34.1340  -12.9740   20.7680 O   0  0  0  0  0  0  0  0  0  0  0  0
  -34.5760  -11.9430   21.6450 C   0  0  0  0  0  2  0  0  0  0  0  0
  -33.8550  -12.0400   22.9970 C   0  0  0  0  0  2  0  0  0  0  0  0
  -32.5720  -11.4120   22.9950 O   0  0  0  0  0  0  0  0  0  0  0  0
  -31.9890  -11.4990   24.2910 C   0  0  0  0  0  2  0  0  0  0  0  0
  -30.6190  -10.8120   24.4080 C   0  0  0  0  0  2  0  0  0  0  0  0
  -30.1300  -10.9120   25.8630 C   0  0  0  0  0  2  0  0  0  0  0  0
  -28.7300  -10.6830   26.0130 O   0  0  0  0  0  0  0  0  0  0  0  0
  -28.2940  -10.8700   27.3630 C   0  0  0  0  0  2  0  0  0  0  0  0
  -27.6040  -12.2300   27.6250 C   0  0  0  0  0  2  0  0  0  0  0  0
  -28.4480  -13.4820   27.3350 C   0  0  0  0  0  2  0  0  0  0  0  0
  -28.3930  -13.6980   25.9380 O   0  0  0  0  0  0  0  0  0  0  0  0
  -29.3310  -14.6240   25.4150 C   0  0  0  0  0  2  0  0  0  0  0  0
  -29.1840  -14.4490   23.9040 C   0  0  0  0  0  2  0  0  0  0  0  0
  -30.1170  -15.2750   22.9950 C   0  0  0  0  0  2  0  0  0  0  0  0
  -30.8110  -14.2600   20.8090 C   0  0  0  0  0  0  0  0  0  0  0  0
  -30.4120  -12.3030   19.3620 C   0  0  0  0  0  2  0  0  0  0  0  0
  -29.4760  -12.5570   18.1690 C   0  0  0  0  0  2  0  0  0  0  0  0
  -28.0050  -12.3710   18.5790 C   0  0  0  0  0  2  0  0  0  0  0  0
  -27.6590  -13.1910   19.8440 C   0  0  0  0  0  3  0  0  0  0  0  0
  -28.6860  -12.9360   20.9600 C   0  0  0  0  0  2  0  0  0  0  0  0
  -30.0490  -13.1920   20.4730 N   0  0  0  0  0  0  0  0  0  0  0  0
  -31.6450  -14.7530   20.0530 O   0  0  0  0  0  0  0  0  0  0  0  0
  -30.9590  -14.4380   22.1310 N   0  0  0  0  0  0  0  0  0  0  0  0
  -31.9330  -14.6060   22.3320 H   0  0  0  0  0  0  0  0  0  0  0  0
  -25.2590  -13.8140   20.5550 C   0  0  0  0  0  0  0  0  0  0  0  0
  -24.1840  -13.0450   20.9120 C   0  0  0  0  0  0  0  0  0  0  0  0
  -24.6370  -11.6910   20.8640 C   0  0  0  0  0  0  0  0  0  0  0  0
  -26.2990  -12.9280   20.3100 N   0  0  0  0  0  0  0  0  0  0  0  0
  -25.9260  -11.6460   20.5540 N   0  0  0  0  0  0  0  0  0  0  0  0
  -23.9030  -10.4300   21.0350 C   0  0  0  0  0  0  0  0  0  0  0  0
  -24.3600   -9.4220   21.9130 C   0  0  0  0  0  3  0  0  0  0  0  0
  -23.6300   -8.2250   22.0730 C   0  0  0  0  0  3  0  0  0  0  0  0
  -22.4270   -8.0280   21.3550 C   0  0  0  0  0  0  0  0  0  0  0  0
  -21.9880   -9.0230   20.4640 C   0  0  0  0  0  3  0  0  0  0  0  0
  -22.7180  -10.2120   20.3020 C   0  0  0  0  0  3  0  0  0  0  0  0
  -21.6650   -6.8870   21.4240 O   0  0  0  0  0  0  0  0  0  0  0  0
  -21.6850   -6.0720   22.5280 C   0  0  0  0  0  0  0  0  0  0  0  0
  -21.4010   -6.5640   23.8210 C   0  0  0  0  0  3  0  0  0  0  0  0
  -21.3640   -5.6790   24.9170 C   0  0  0  0  0  3  0  0  0  0  0  0
  -21.6050   -4.3050   24.7220 C   0  0  0  0  0  0  0  0  0  0  0  0
  -21.8810   -3.8130   23.4340 C   0  0  0  0  0  3  0  0  0  0  0  0
  -21.9200   -4.6950   22.3400 C   0  0  0  0  0  0  0  0  0  0  0  0
  -22.1660   -4.2130   21.0980 F   0  0  0  0  0  0  0  0  0  0  0  0
  -21.5650   -3.4560   25.7730 F   0  0  0  0  0  0  0  0  0  0  0  0
  -22.7850  -13.5230   21.1860 C   0  0  0  0  0  0  0  0  0  0  0  0
  -22.0490  -12.8190   22.0380 N   0  0  0  0  0  0  0  0  0  0  0  0
  -22.3520  -14.5550   20.6730 O   0  0  0  0  0  0  0  0  0  0  0  0
  -22.4140  -11.9840   22.4710 H   0  0  0  0  0  0  0  0  0  0  0  0
  -21.1100  -13.1170   22.2650 H   0  0  0  0  0  0  0  0  0  0  0  0
  -25.4410  -15.1860   20.4020 N   0  0  0  0  0  0  0  0  0  0  0  0
  -24.6860  -15.8540   20.5170 H   0  0  0  0  0  0  0  0  0  0  0  0
  -26.3100  -15.6120   20.1050 H   0  0  0  0  0  0  0  0  0  0  0  0
  1  3  2  0
  2  1  1  0
  2  5  1  0
  4  2  1  0
  6  8  2  0
  7  6  1  0
  7  5  1  0
  9  7  1  0
 11 10  1  0
 11 13  1  0
 11  6  1  0
 12 16  1  0
 13 12  1  0
 13 15  1  0
 14 12  2  0
 17 19  1  0
 17 16  1  0
 18 29  2  0
 19 24  1  0
 20 28  1  0
 20 30  1  0
 21 27  1  0
 21 23  1  0
 22 28  1  0
 23 22  1  0
 24 23  2  0
 25 26  1  0
 25 19  2  0
 26 21  2  0
 27 20  1  0
 28 18  1  0
 30 32  2  0
 31 30  1  0
 33 31  1  0
 34 43  2  0
 34 39  1  0
 35 31  1  0
 35 39  1  0
 36 35  1  0
 37 38  1  0
 37 36  1  0
 38 34  1  0
 39 40  2  0
 40 41  1  0
 42 41  2  0
 43 42  1  0
 44 18  1  0
 44 45  1  0
 44 54  1  0
 45 48  1  0
 46 50  1  0
 46 45  1  0
 47 46  2  0
 50 49  1  0
 52 50  1  0
 52 53  1  0
 52 51  1  0
 54 57  1  1
 54 55  1  0
 56 54  1  0
 58  1  1  0
 58 59  1  0
 60 59  1  0
 60 61  1  0
 61 62  1  0
 62 63  1  0
 63 64  1  0
 65 64  1  0
 65 66  1  0
 66 67  1  0
 67 68  1  0
 68 69  1  0
 69 70  1  0
 70 71  1  0
 72 71  1  0
 73 72  1  0
 74 73  1  0
 75 74  1  0
 76 75  1  0
 77 85  1  0
 78 83  1  0
 79 80  1  0
 79 78  1  0
 81 80  1  0
 81 90  1  0
 81 82  1  0
 83 77  1  0
 83 82  1  0
 84 77  2  0
 85 86  1  0
 85 76  1  0
 87 88  2  0
 88107  1  0
 89 88  1  0
 89 92  1  0
 90 91  1  0
 90 87  1  0
 91 89  2  0
 92 93  1  0
 93 94  2  0
 95 98  1  0
 95 94  1  0
 96 95  2  0
 97 96  1  0
 97 92  2  0
 98 99  1  0
 99100  1  0
100101  2  0
102101  1  0
102106  1  0
103102  2  0
104 99  2  0
104103  1  0
105104  1  0
107108  1  0
108111  1  0
108110  1  0
109107  2  0
112113  1  0
112 87  1  0
114112  1  0
M  ISO  4  16 101  17 101  77 100  85 100
M  END
>  <TORSDO>  (4) 
F 40

>  <SCORE>  (4) 
28.944

>  <name>  (4) 
3

>  <ligand_id>  (4) 
3

>  <original_smiles>  (4) 
[H]c1c([H])c([H])c2c(c1[H])C([H])([H])C([H])([H])C([H])([H])C2([H])N([H])C(=O)C1([H])N(C(=O)C([H])(N([H])C(=O)C([H])(N([H])C([H])([H])[H])C([H])([H])[H])C(C([H])([H])[H])(C([H])([H])[H])C([H])([H])[H])C([H])([H])c2c([H])c(OC([H])([H])C(=O)N([H])C([H])(C(=O)N([H])C([H])([H])N([H])C(=O)C([H])([H])OC([H])([H])C([H])([H])OC([H])([H])C([H])([H])OC([H])([H])C([H])([H])C([H])([H])OC([H])([H])C([H])([H])C([H])([H])OC([H])([H])C([H])([H])C([H])([H])N([H])C(=O)N3C([H])([H])C([H])([H])C([H])([H])C([H])(n4nc(-c5c([H])c([H])c(Oc6c([H])c([H])c(F)c([H])c6F)c([H])c5[H])c(C(=O)N([H])[H])c4N([H])[H])C3([H])[H])C([H])([H])[H])c([H])c([H])c2C1([H])[H]

>  <smiles>  (4) 
[H]c1c([H])c([H])c2c(c1[H])C([H])([H])C([H])([H])C([H])([H])C2([H])N([H])C(=O)C1([H])N(C(=O)C([H])(N([H])C(=O)C([H])(N([H])C([H])([H])[H])C([H])([H])[H])C(C([H])([H])[H])(C([H])([H])[H])C([H])([H])[H])C([H])([H])c2c([H])c(OC([H])([H])C(=O)N([H])C([H])(C(=O)N([H])C([H])([H])N([H])C(=O)C([H])([H])OC([H])([H])C([H])([H])OC([H])([H])C([H])([H])OC([H])([H])C([H])([H])C([H])([H])OC([H])([H])C([H])([H])C([H])([H])OC([H])([H])C([H])([H])C([H])([H])N([H])C(=O)N3C([H])([H])C([H])([H])C([H])([H])C([H])(n4nc(-c5c([H])c([H])c(Oc6c([H])c([H])c(F)c([H])c6F)c([H])c5[H])c(C(=O)N([H])[H])c4N([H])[H])C3([H])[H])C([H])([H])[H])c([H])c([H])c2C1([H])[H]

$$$$
4:0:0
     RDKit          3D

 96103  0  0  1  0  0  0  0  0999 V2000
  -25.0570  -24.7580   19.7030 C   0  0  0  0  0  0  0  0  0  0  0  0
  -25.8790  -25.1830   18.7390 N   0  0  0  0  0  0  0  0  0  0  0  0
  -25.1270  -23.6190   20.1730 O   0  0  0  0  0  0  0  0  0  0  0  0
  -25.7720  -26.1340   18.4100 H   0  0  0  0  0  0  0  0  0  0  0  0
  -24.0090  -25.7610   20.2030 C   0  0  0  0  0  2  0  0  0  0  0  0
  -21.5570  -25.3090   20.2470 C   0  0  0  0  0  0  0  0  0  0  0  0
  -22.7030  -25.5190   19.5940 N   0  0  0  0  0  0  0  0  0  0  0  0
  -21.4530  -25.4160   21.4710 O   0  0  0  0  0  0  0  0  0  0  0  0
  -22.6970  -25.3850   18.5930 H   0  0  0  0  0  0  0  0  0  0  0  0
  -19.7880  -26.0830   18.5560 C   0  0  0  0  0  1  0  0  0  0  0  0
  -20.3490  -24.9110   19.3900 C   0  0  0  0  0  3  0  0  0  0  0  0
  -17.9600  -24.2620   20.1970 C   0  0  0  0  0  0  0  0  0  0  0  0
  -15.7260  -24.8860   19.3630 C   0  0  0  0  0  2  0  0  0  0  0  0
  -15.2990  -23.9700   18.1970 C   0  0  0  0  0  2  0  0  0  0  0  0
  -15.8240  -24.4990   16.8480 C   0  0  0  0  0  2  0  0  0  0  0  0
  -17.3270  -24.8770   16.9050 C   0  0  0  0  0  3  0  0  0  0  0  0
  -17.5850  -25.7700   18.1380 C   0  0  0  0  0  2  0  0  0  0  0  0
  -17.1980  -25.0190   19.3490 N   0  0  0  0  0  0  0  0  0  0  0  0
  -17.4510  -23.5140   21.0330 O   0  0  0  0  0  0  0  0  0  0  0  0
  -19.2980  -24.3760   20.2500 N   0  0  0  0  0  0  0  0  0  0  0  0
  -19.6960  -23.7660   20.9520 H   0  0  0  0  0  0  0  0  0  0  0  0
  -18.6170  -26.5970   15.4860 C   0  0  0  0  0  0  0  0  0  0  0  0
  -18.7360  -26.7570   14.1320 C   0  0  0  0  0  0  0  0  0  0  0  0
  -17.9360  -25.7340   13.5410 C   0  0  0  0  0  0  0  0  0  0  0  0
  -17.7620  -25.5200   15.6670 N   0  0  0  0  0  0  0  0  0  0  0  0
  -17.3170  -25.0330   14.4810 N   0  0  0  0  0  0  0  0  0  0  0  0
  -17.7660  -25.3430   12.1360 C   0  0  0  0  0  0  0  0  0  0  0  0
  -16.4980  -25.3560   11.5130 C   0  0  0  0  0  3  0  0  0  0  0  0
  -16.3630  -24.9920   10.1560 C   0  0  0  0  0  3  0  0  0  0  0  0
  -17.5020  -24.6160    9.4050 C   0  0  0  0  0  0  0  0  0  0  0  0
  -18.7580  -24.5830   10.0380 C   0  0  0  0  0  3  0  0  0  0  0  0
  -18.8900  -24.9400   11.3900 C   0  0  0  0  0  3  0  0  0  0  0  0
  -17.4630  -24.2240    8.0890 O   0  0  0  0  0  0  0  0  0  0  0  0
  -17.1980  -25.1160    7.0810 C   0  0  0  0  0  0  0  0  0  0  0  0
  -15.9090  -25.2410    6.5170 C   0  0  0  0  0  3  0  0  0  0  0  0
  -15.6640  -26.2200    5.5340 C   0  0  0  0  0  3  0  0  0  0  0  0
  -16.7000  -27.0770    5.1190 C   0  0  0  0  0  0  0  0  0  0  0  0
  -17.9830  -26.9560    5.6820 C   0  0  0  0  0  3  0  0  0  0  0  0
  -18.2300  -25.9800    6.6640 C   0  0  0  0  0  0  0  0  0  0  0  0
  -19.4610  -25.8830    7.2190 F   0  0  0  0  0  0  0  0  0  0  0  0
  -16.4630  -28.0240    4.1810 F   0  0  0  0  0  0  0  0  0  0  0  0
  -19.6230  -27.7400   13.4200 C   0  0  0  0  0  0  0  0  0  0  0  0
  -20.9010  -27.4170   13.2650 N   0  0  0  0  0  0  0  0  0  0  0  0
  -19.1720  -28.7880   12.9580 O   0  0  0  0  0  0  0  0  0  0  0  0
  -21.2730  -26.5540   13.6330 H   0  0  0  0  0  0  0  0  0  0  0  0
  -21.5220  -28.0510   12.7830 H   0  0  0  0  0  0  0  0  0  0  0  0
  -19.1730  -27.2630   16.5750 N   0  0  0  0  0  0  0  0  0  0  0  0
  -19.8110  -28.0430   16.4650 H   0  0  0  0  0  0  0  0  0  0  0  0
  -19.0220  -27.0150   17.5440 H   0  0  0  0  0  0  0  0  0  0  0  0
  -26.9730  -24.4060   18.1660 C   0  0  0  0  0  2  0  0  0  0  0  0
  -28.2930  -24.7240   18.8790 C   0  0  0  0  0  2  0  0  0  0  0  0
  -28.0300  -25.7350   19.8400 O   0  0  0  0  0  0  0  0  0  0  0  0
  -28.8380  -26.8850   19.6700 C   0  0  0  0  0  2  0  0  0  0  0  0
  -28.9460  -27.5800   21.0280 C   0  0  0  0  0  2  0  0  0  0  0  0
  -30.3740  -27.5380   21.6030 C   0  0  0  0  0  2  0  0  0  0  0  0
  -31.2240  -28.4440   20.9030 O   0  0  0  0  0  0  0  0  0  0  0  0
  -36.7690  -29.9760   16.7500 C   0  0  0  0  0  0  0  0  0  0  0  0
  -32.3510  -27.9410   20.2820 C   0  0  0  0  0  0  0  0  0  0  0  0
  -36.4040  -27.5710   17.1920 C   0  0  0  0  0  3  0  0  0  0  0  0
  -34.7040  -27.0260   19.0090 C   0  0  0  0  0  0  0  0  0  0  0  0
  -35.6460  -29.3380   18.8800 C   0  0  0  0  0  2  0  0  0  0  0  0
  -34.5410  -28.3890   19.2870 C   0  0  0  0  0  0  0  0  0  0  0  0
  -33.3700  -28.8490   19.9260 C   0  0  0  0  0  3  0  0  0  0  0  0
  -32.5290  -26.5680   19.9840 C   0  0  0  0  0  3  0  0  0  0  0  0
  -33.6970  -26.1110   19.3490 C   0  0  0  0  0  3  0  0  0  0  0  0
  -35.9920  -26.6100   18.3370 C   0  0  0  0  0  2  0  0  0  0  0  0
  -36.2640  -29.0130   17.5730 N   0  0  0  0  0  0  0  0  0  0  0  0
  -37.3780  -29.6790   15.7130 O   0  0  0  0  0  0  0  0  0  0  0  0
  -35.6060  -27.1930   15.9240 C   0  0  0  0  0  0  0  0  0  0  0  0
  -35.1770  -28.2120   15.1620 N   0  0  0  0  0  0  0  0  0  0  0  0
  -35.4130  -26.0120   15.6270 O   0  0  0  0  0  0  0  0  0  0  0  0
  -35.3690  -29.1530   15.4780 H   0  0  0  0  0  0  0  0  0  0  0  0
  -32.8340  -29.9030   12.9940 C   0  0  0  0  0  0  0  0  0  0  0  0
  -34.4400  -28.0950   13.9040 C   0  0  0  0  0  3  0  0  0  0  0  0
  -35.3440  -28.4330   12.6960 C   0  0  0  0  0  2  0  0  0  0  0  0
  -35.2600  -29.9040   12.2710 C   0  0  0  0  0  2  0  0  0  0  0  0
  -33.8220  -30.2750   11.9000 C   0  0  0  0  0  2  0  0  0  0  0  0
  -33.1320  -28.8920   13.9450 C   0  0  0  0  0  0  0  0  0  0  0  0
  -32.1960  -28.6110   14.9640 C   0  0  0  0  0  3  0  0  0  0  0  0
  -30.9820  -29.3180   15.0400 C   0  0  0  0  0  3  0  0  0  0  0  0
  -30.6850  -30.3070   14.0860 C   0  0  0  0  0  3  0  0  0  0  0  0
  -31.6070  -30.5950   13.0640 C   0  0  0  0  0  3  0  0  0  0  0  0
  -36.6310  -31.4940   17.0870 C   0  0  0  0  0  3  0  0  0  0  0  0
  -35.2360  -32.0990   16.6650 C   0  0  1  0  0  0  0  0  0  0  0  0
  -35.2540  -32.7990   15.2850 C   0  0  0  0  0  1  0  0  0  0  0  0
  -34.1520  -30.9970   16.6240 C   0  0  0  0  0  1  0  0  0  0  0  0
  -34.7730  -33.1330   17.7170 C   0  0  0  0  0  1  0  0  0  0  0  0
  -37.7280  -32.2000   16.4120 N   0  0  0  0  0  0  0  0  0  0  0  0
  -38.7360  -32.8200   17.0420 C   0  0  0  0  0  0  0  0  0  0  0  0
  -38.7940  -32.9200   18.2720 O   0  0  0  0  0  0  0  0  0  0  0  0
  -37.7680  -32.1200   15.4060 H   0  0  0  0  0  0  0  0  0  0  0  0
  -39.6890  -34.9520   16.1150 C   0  0  0  0  0  1  0  0  0  0  0  0
  -39.8540  -33.4250   16.1730 C   0  0  0  0  0  3  0  0  0  0  0  0
  -39.4220  -33.8190   13.7880 C   0  0  0  0  0  1  0  0  0  0  0  0
  -39.8930  -32.8760   14.7990 N   0  0  0  0  0  0  0  0  0  0  0  0
  -39.3330  -32.0310   14.7320 H   0  0  0  0  0  0  0  0  0  0  0  0
  1  3  2  0
  1  5  1  0
  2  1  1  0
  4  2  1  0
  6  8  2  0
  7  5  1  0
  7  6  1  0
  9  7  1  0
 11 10  1  0
 11  6  1  0
 11 20  1  0
 12 20  1  0
 12 19  2  0
 14 13  1  0
 15 16  1  0
 15 14  1  0
 16 25  1  0
 16 17  1  0
 17 18  1  0
 18 13  1  0
 18 12  1  0
 20 21  1  0
 22 25  1  0
 22 47  1  0
 23 22  2  0
 24 23  1  0
 24 26  2  0
 26 25  1  0
 27 24  1  0
 28 27  1  0
 29 28  2  0
 30 31  2  0
 30 29  1  0
 31 32  1  0
 32 27  2  0
 33 30  1  0
 34 33  1  0
 35 34  2  0
 36 35  1  0
 37 36  2  0
 37 38  1  0
 38 39  2  0
 39 34  1  0
 39 40  1  0
 41 37  1  0
 42 23  1  0
 43 42  1  0
 43 45  1  0
 44 42  2  0
 46 43  1  0
 47 49  1  0
 48 47  1  0
 50  2  1  0
 50 51  1  0
 51 52  1  0
 53 52  1  0
 53 54  1  0
 54 55  1  0
 56 55  1  0
 57 67  1  0
 58 56  1  0
 59 69  1  0
 59 67  1  0
 59 66  1  0
 60 62  2  0
 60 65  1  0
 61 62  1  0
 62 63  1  0
 63 58  2  0
 64 58  1  0
 65 64  2  0
 66 60  1  0
 67 61  1  0
 68 57  2  0
 70 72  1  0
 70 69  1  0
 71 69  2  0
 73 82  2  0
 73 78  1  0
 74 78  1  0
 74 70  1  0
 75 74  1  0
 76 75  1  0
 77 76  1  0
 77 73  1  0
 78 79  2  0
 79 80  1  0
 81 80  2  0
 82 81  1  0
 83 57  1  0
 84 83  1  0
 84 87  1  1
 85 84  1  0
 86 84  1  0
 88 89  1  0
 88 83  1  0
 89 90  2  0
 91 88  1  0
 93 92  1  0
 93 89  1  0
 94 95  1  0
 95 93  1  0
 96 95  1  0
M  ISO  4  12 100  20 100  55 101  56 101
M  END
>  <TORSDO>  (5) 
F 25

>  <SCORE>  (5) 
-4.619

>  <name>  (5) 
4

>  <ligand_id>  (5) 
4

>  <original_smiles>  (5) 
[H]c1c([H])c([H])c2c(c1[H])C([H])([H])C([H])([H])C([H])([H])C2([H])N([H])C(=O)C1([H])N(C(=O)C([H])(N([H])C(=O)C([H])(N([H])C([H])([H])[H])C([H])([H])[H])C(C([H])([H])[H])(C([H])([H])[H])C([H])([H])[H])C([H])([H])c2c([H])c(OC([H])([H])C([H])([H])C([H])([H])OC([H])([H])C([H])([H])N([H])C(=O)C([H])([H])N([H])C(=O)C([H])(N([H])C(=O)N3C([H])([H])C([H])([H])C([H])([H])C([H])(n4nc(-c5c([H])c([H])c(Oc6c([H])c([H])c(F)c([H])c6F)c([H])c5[H])c(C(=O)N([H])[H])c4N([H])[H])C3([H])[H])C([H])([H])[H])c([H])c([H])c2C1([H])[H]

>  <smiles>  (5) 
[H]c1c([H])c([H])c2c(c1[H])C([H])([H])C([H])([H])C([H])([H])C2([H])N([H])C(=O)C1([H])N(C(=O)C([H])(N([H])C(=O)C([H])(N([H])C([H])([H])[H])C([H])([H])[H])C(C([H])([H])[H])(C([H])([H])[H])C([H])([H])[H])C([H])([H])c2c([H])c(OC([H])([H])C([H])([H])C([H])([H])OC([H])([H])C([H])([H])N([H])C(=O)C([H])([H])N([H])C(=O)C([H])(N([H])C(=O)N3C([H])([H])C([H])([H])C([H])([H])C([H])(n4nc(-c5c([H])c([H])c(Oc6c([H])c([H])c(F)c([H])c6F)c([H])c5[H])c(C(=O)N([H])[H])c4N([H])[H])C3([H])[H])C([H])([H])[H])c([H])c([H])c2C1([H])[H]

$$$$
5:0:0
     RDKit          3D

114121  0  0  1  0  0  0  0  0999 V2000
  -25.9350  -25.3090   14.7310 C   0  0  0  0  0  1  0  0  0  0  0  0
  -27.4160  -25.6390   14.4030 C   0  0  2  0  0  0  0  0  0  0  0  0
  -27.5100  -26.2770   13.0810 N   0  0  0  0  0  4  0  0  0  0  0  0
  -28.4110  -26.0160   12.7100 H   0  0  0  0  0  0  0  0  0  0  0  0
  -27.4270  -27.2760   13.1500 H   0  0  0  0  0  0  0  0  0  0  0  0
  -26.8080  -25.9120   12.4650 H   0  0  0  0  0  0  0  0  0  0  0  0
  -28.3160  -24.3790   14.3720 C   0  0  0  0  0  0  0  0  0  0  0  0
  -28.1080  -23.4250   15.2870 N   0  0  0  0  0  0  0  0  0  0  0  0
  -29.2010  -24.2780   13.5130 O   0  0  0  0  0  0  0  0  0  0  0  0
  -27.3700  -23.5680   15.9650 H   0  0  0  0  0  0  0  0  0  0  0  0
  -28.9650  -22.2760   15.5330 C   0  0  0  0  0  2  0  0  0  0  0  0
  -28.4210  -21.4900   16.7330 C   0  0  0  0  0  2  0  0  0  0  0  0
  -28.2100  -22.3940   17.8110 O   0  0  0  0  0  0  0  0  0  0  0  0
  -27.9620  -21.7430   19.0510 C   0  0  0  0  0  2  0  0  0  0  0  0
  -27.3990  -22.7580   20.0550 C   0  0  0  0  0  2  0  0  0  0  0  0
  -28.3490  -23.7790   20.3340 O   0  0  0  0  0  0  0  0  0  0  0  0
  -27.8700  -24.7020   21.3080 C   0  0  0  0  0  2  0  0  0  0  0  0
  -28.6750  -26.0110   21.2470 C   0  0  0  0  0  2  0  0  0  0  0  0
  -28.3970  -26.7390   20.0530 O   0  0  0  0  0  0  0  0  0  0  0  0
  -24.6100  -31.8720   23.2110 C   0  0  0  0  0  0  0  0  0  0  0  0
  -27.2390  -27.4720   20.0930 C   0  0  0  0  0  0  0  0  0  0  0  0
  -23.3950  -30.4940   21.5520 C   0  0  0  0  0  3  0  0  0  0  0  0
  -24.8440  -28.9610   20.1160 C   0  0  0  0  0  0  0  0  0  0  0  0
  -25.9190  -30.8460   21.3580 C   0  0  0  0  0  2  0  0  0  0  0  0
  -26.0000  -29.4790   20.7170 C   0  0  0  0  0  0  0  0  0  0  0  0
  -27.1990  -28.7400   20.7120 C   0  0  0  0  0  3  0  0  0  0  0  0
  -26.0800  -26.9640   19.4790 C   0  0  0  0  0  3  0  0  0  0  0  0
  -24.8780  -27.6980   19.4970 C   0  0  0  0  0  3  0  0  0  0  0  0
  -23.6040  -29.8230   20.1670 C   0  0  0  0  0  2  0  0  0  0  0  0
  -24.6600  -31.0840   22.1000 N   0  0  0  0  0  0  0  0  0  0  0  0
  -23.5310  -32.1490   23.7530 O   0  0  0  0  0  0  0  0  0  0  0  0
  -22.7390  -29.4660   22.5010 C   0  0  0  0  0  0  0  0  0  0  0  0
  -21.4130  -29.3010   22.3750 N   0  0  0  0  0  0  0  0  0  0  0  0
  -23.4190  -28.8210   23.3050 O   0  0  0  0  0  0  0  0  0  0  0  0
  -20.9290  -29.8760   21.6990 H   0  0  0  0  0  0  0  0  0  0  0  0
  -18.0270  -28.1370   22.8490 C   0  0  0  0  0  0  0  0  0  0  0  0
  -20.5850  -28.3640   23.1330 C   0  0  0  0  0  3  0  0  0  0  0  0
  -20.6760  -26.9390   22.5430 C   0  0  0  0  0  2  0  0  0  0  0  0
  -19.5740  -26.6380   21.5220 C   0  0  0  0  0  2  0  0  0  0  0  0
  -18.1920  -26.7910   22.1630 C   0  0  0  0  0  2  0  0  0  0  0  0
  -19.1520  -28.8830   23.2910 C   0  0  0  0  0  0  0  0  0  0  0  0
  -18.9450  -30.1430   23.8910 C   0  0  0  0  0  3  0  0  0  0  0  0
  -17.6460  -30.6580   24.0560 C   0  0  0  0  0  3  0  0  0  0  0  0
  -16.5350  -29.9070   23.6320 C   0  0  0  0  0  3  0  0  0  0  0  0
  -16.7260  -28.6490   23.0330 C   0  0  0  0  0  3  0  0  0  0  0  0
  -25.9030  -32.4830   23.8410 C   0  0  0  0  0  3  0  0  0  0  0  0
  -25.5930  -33.8630   24.2370 N   0  0  0  0  0  0  0  0  0  0  0  0
  -25.9030  -34.9480   23.5140 C   0  0  0  0  0  0  0  0  0  0  0  0
  -26.5560  -34.8910   22.4690 O   0  0  0  0  0  0  0  0  0  0  0  0
  -25.0180  -33.9790   25.0580 H   0  0  0  0  0  0  0  0  0  0  0  0
  -24.1480  -36.7310   23.2630 C   0  0  0  0  0  1  0  0  0  0  0  0
  -25.4100  -36.3110   24.0340 C   0  0  0  0  0  3  0  0  0  0  0  0
  -27.5570  -37.1820   24.8480 C   0  0  0  0  0  1  0  0  0  0  0  0
  -26.4300  -37.3780   23.9410 N   0  0  0  0  0  0  0  0  0  0  0  0
  -26.0180  -38.2850   24.1400 H   0  0  0  0  0  0  0  0  0  0  0  0
  -26.4480  -31.6580   25.0700 C   0  0  1  0  0  0  0  0  0  0  0  0
  -25.3790  -31.3680   26.1470 C   0  0  0  0  0  1  0  0  0  0  0  0
  -27.0280  -30.3020   24.6010 C   0  0  0  0  0  1  0  0  0  0  0  0
  -27.6080  -32.4260   25.7470 C   0  0  0  0  0  1  0  0  0  0  0  0
  -28.0380  -26.5780   15.4790 C   0  0  0  0  0  0  0  0  0  0  0  0
  -29.1770  -27.2390   15.2010 N   0  0  0  0  0  0  0  0  0  0  0  0
  -27.4490  -26.7500   16.5500 O   0  0  0  0  0  0  0  0  0  0  0  0
  -29.6710  -27.0420   14.3410 H   0  0  0  0  0  0  0  0  0  0  0  0
  -29.7950  -28.2450   16.0660 C   0  0  0  0  0  2  0  0  0  0  0  0
  -31.2390  -27.8760   16.4320 C   0  0  0  0  0  2  0  0  0  0  0  0
  -31.2450  -26.8490   17.4150 O   0  0  0  0  0  0  0  0  0  0  0  0
  -32.5520  -26.6030   17.9250 C   0  0  0  0  0  2  0  0  0  0  0  0
  -32.4800  -25.6970   19.1620 C   0  0  0  0  0  2  0  0  0  0  0  0
  -32.2890  -24.3390   18.7830 O   0  0  0  0  0  0  0  0  0  0  0  0
  -32.2220  -23.4850   19.9170 C   0  0  0  0  0  2  0  0  0  0  0  0
  -31.9400  -22.0440   19.4790 C   0  0  0  0  0  2  0  0  0  0  0  0
  -31.8310  -21.1060   20.6880 C   0  0  0  0  0  2  0  0  0  0  0  0
  -31.3920  -19.8180   20.2800 O   0  0  0  0  0  0  0  0  0  0  0  0
  -31.4050  -18.8880   21.3550 C   0  0  0  0  0  2  0  0  0  0  0  0
  -30.7640  -17.5730   20.8970 C   0  0  0  0  0  2  0  0  0  0  0  0
  -30.8400  -16.4740   21.9750 C   0  0  0  0  0  2  0  0  0  0  0  0
  -30.7570  -14.3640   20.6560 C   0  0  0  0  0  0  0  0  0  0  0  0
  -30.4120  -12.2770   19.3920 C   0  0  0  0  0  2  0  0  0  0  0  0
  -29.4810  -12.5170   18.1890 C   0  0  0  0  0  2  0  0  0  0  0  0
  -28.0050  -12.3800   18.6060 C   0  0  0  0  0  2  0  0  0  0  0  0
  -27.6650  -13.2010   19.8780 C   0  0  0  0  0  3  0  0  0  0  0  0
  -28.7030  -12.9370   20.9910 C   0  0  0  0  0  2  0  0  0  0  0  0
  -30.0430  -13.2290   20.4500 N   0  0  0  0  0  0  0  0  0  0  0  0
  -31.8140  -14.6190   20.0700 O   0  0  0  0  0  0  0  0  0  0  0  0
  -30.2320  -15.2160   21.5430 N   0  0  0  0  0  0  0  0  0  0  0  0
  -29.3630  -14.9420   21.9780 H   0  0  0  0  0  0  0  0  0  0  0  0
  -25.2600  -13.8150   20.5670 C   0  0  0  0  0  0  0  0  0  0  0  0
  -24.1830  -13.0440   20.9160 C   0  0  0  0  0  0  0  0  0  0  0  0
  -24.6370  -11.6910   20.8720 C   0  0  0  0  0  0  0  0  0  0  0  0
  -26.3030  -12.9320   20.3380 N   0  0  0  0  0  0  0  0  0  0  0  0
  -25.9300  -11.6480   20.5750 N   0  0  0  0  0  0  0  0  0  0  0  0
  -23.9040  -10.4300   21.0400 C   0  0  0  0  0  0  0  0  0  0  0  0
  -24.3600   -9.4210   21.9180 C   0  0  0  0  0  3  0  0  0  0  0  0
  -23.6280   -8.2250   22.0750 C   0  0  0  0  0  3  0  0  0  0  0  0
  -22.4270   -8.0280   21.3540 C   0  0  0  0  0  0  0  0  0  0  0  0
  -21.9890   -9.0250   20.4650 C   0  0  0  0  0  3  0  0  0  0  0  0
  -22.7210  -10.2130   20.3050 C   0  0  0  0  0  3  0  0  0  0  0  0
  -21.6630   -6.8870   21.4240 O   0  0  0  0  0  0  0  0  0  0  0  0
  -21.6850   -6.0730   22.5280 C   0  0  0  0  0  0  0  0  0  0  0  0
  -21.4010   -6.5640   23.8210 C   0  0  0  0  0  3  0  0  0  0  0  0
  -21.3660   -5.6790   24.9180 C   0  0  0  0  0  3  0  0  0  0  0  0
  -21.6050   -4.3050   24.7230 C   0  0  0  0  0  0  0  0  0  0  0  0
  -21.8820   -3.8140   23.4350 C   0  0  0  0  0  3  0  0  0  0  0  0
  -21.9200   -4.6960   22.3400 C   0  0  0  0  0  0  0  0  0  0  0  0
  -22.1660   -4.2150   21.0980 F   0  0  0  0  0  0  0  0  0  0  0  0
  -21.5630   -3.4540   25.7740 F   0  0  0  0  0  0  0  0  0  0  0  0
  -22.7860  -13.5240   21.1830 C   0  0  0  0  0  0  0  0  0  0  0  0
  -22.0500  -12.8240   22.0400 N   0  0  0  0  0  0  0  0  0  0  0  0
  -22.3550  -14.5560   20.6690 O   0  0  0  0  0  0  0  0  0  0  0  0
  -22.4100  -11.9900   22.4780 H   0  0  0  0  0  0  0  0  0  0  0  0
  -21.1120  -13.1290   22.2610 H   0  0  0  0  0  0  0  0  0  0  0  0
  -25.4350  -15.1860   20.4080 N   0  0  0  0  0  0  0  0  0  0  0  0
  -24.6750  -15.8490   20.5190 H   0  0  0  0  0  0  0  0  0  0  0  0
  -26.2980  -15.6220   20.1070 H   0  0  0  0  0  0  0  0  0  0  0  0
  2  1  1  1
  2 60  1  0
  3  5  1  0
  3  2  1  0
  4  3  1  0
  6  3  1  0
  7  2  1  0
  7  8  1  0
  8 11  1  0
  8 10  1  0
  9  7  2  0
 11 12  1  0
 12 13  1  0
 13 14  1  0
 14 15  1  0
 15 16  1  0
 16 17  1  0
 18 17  1  0
 19 21  1  0
 19 18  1  0
 20 31  2  0
 21 26  1  0
 22 30  1  0
 22 32  1  0
 23 29  1  0
 23 25  1  0
 24 30  1  0
 25 24  1  0
 26 25  2  0
 27 28  1  0
 27 21  2  0
 28 23  2  0
 29 22  1  0
 30 20  1  0
 32 34  2  0
 33 32  1  0
 35 33  1  0
 36 45  2  0
 36 41  1  0
 37 33  1  0
 37 41  1  0
 38 37  1  0
 39 40  1  0
 39 38  1  0
 40 36  1  0
 41 42  2  0
 42 43  1  0
 44 43  2  0
 45 44  1  0
 46 20  1  0
 46 47  1  0
 46 56  1  0
 47 50  1  0
 48 52  1  0
 48 47  1  0
 49 48  2  0
 52 51  1  0
 54 52  1  0
 54 55  1  0
 54 53  1  0
 56 59  1  1
 56 57  1  0
 58 56  1  0
 60 62  2  0
 61 60  1  0
 61 64  1  0
 63 61  1  0
 64 65  1  0
 65 66  1  0
 66 67  1  0
 67 68  1  0
 69 68  1  0
 69 70  1  0
 71 70  1  0
 71 72  1  0
 73 72  1  0
 73 74  1  0
 75 74  1  0
 75 76  1  0
 77 85  1  0
 78 83  1  0
 79 80  1  0
 79 78  1  0
 81 80  1  0
 81 90  1  0
 81 82  1  0
 83 77  1  0
 83 82  1  0
 84 77  2  0
 85 76  1  0
 85 86  1  0
 87 88  2  0
 88107  1  0
 89 88  1  0
 89 92  1  0
 90 87  1  0
 90 91  1  0
 91 89  2  0
 92 93  1  0
 93 94  2  0
 95 98  1  0
 95 94  1  0
 96 95  2  0
 97 96  1  0
 97 92  2  0
 98 99  1  0
 99100  1  0
100101  2  0
102101  1  0
102106  1  0
103102  2  0
104 99  2  0
104103  1  0
105104  1  0
107108  1  0
108111  1  0
108110  1  0
109107  2  0
112113  1  0
112 87  1  0
114112  1  0
M  ISO  4  18 101  19 101  77 100  85 100
M  END
>  <TORSDO>  (6) 
F 40

>  <SCORE>  (6) 
-7.230

>  <name>  (6) 
5

>  <ligand_id>  (6) 
5

>  <original_smiles>  (6) 
[H]c1c([H])c([H])c2c(c1[H])C([H])([H])C([H])([H])C([H])([H])C2([H])N([H])C(=O)C1([H])N(C(=O)C([H])(N([H])C(=O)C([H])(N([H])C([H])([H])[H])C([H])([H])[H])C(C([H])([H])[H])(C([H])([H])[H])C([H])([H])[H])C([H])([H])c2c([H])c(OC([H])([H])C([H])([H])OC([H])([H])C([H])([H])OC([H])([H])C([H])([H])N([H])C(=O)C(C(=O)N([H])C([H])([H])C([H])([H])OC([H])([H])C([H])([H])OC([H])([H])C([H])([H])C([H])([H])OC([H])([H])C([H])([H])C([H])([H])N([H])C(=O)N3C([H])([H])C([H])([H])C([H])([H])C([H])(n4nc(-c5c([H])c([H])c(Oc6c([H])c([H])c(F)c([H])c6F)c([H])c5[H])c(C(=O)N([H])[H])c4N([H])[H])C3([H])[H])(C([H])([H])[H])[N+]([H])([H])[H])c([H])c([H])c2C1([H])[H]

>  <smiles>  (6) 
[H]c1c([H])c([H])c2c(c1[H])C([H])([H])C([H])([H])C([H])([H])C2([H])N([H])C(=O)C1([H])N(C(=O)C([H])(N([H])C(=O)C([H])(N([H])C([H])([H])[H])C([H])([H])[H])C(C([H])([H])[H])(C([H])([H])[H])C([H])([H])[H])C([H])([H])c2c([H])c(OC([H])([H])C([H])([H])OC([H])([H])C([H])([H])OC([H])([H])C([H])([H])N([H])C(=O)C(C(=O)N([H])C([H])([H])C([H])([H])OC([H])([H])C([H])([H])OC([H])([H])C([H])([H])C([H])([H])OC([H])([H])C([H])([H])C([H])([H])N([H])C(=O)N3C([H])([H])C([H])([H])C([H])([H])C([H])(n4nc(-c5c([H])c([H])c(Oc6c([H])c([H])c(F)c([H])c6F)c([H])c5[H])c(C(=O)N([H])[H])c4N([H])[H])C3([H])[H])(C([H])([H])[H])[N+]([H])([H])[H])c([H])c([H])c2C1([H])[H]

$$$$
6:0:0
     RDKit          3D

101108  0  0  1  0  0  0  0  0999 V2000
  -30.8150  -18.8490   16.9030 C   0  0  0  0  0  2  0  0  0  0  0  0
  -32.1150  -19.3370   17.2310 O   0  0  0  0  0  0  0  0  0  0  0  0
  -32.3720  -20.6750   16.8010 C   0  0  0  0  0  2  0  0  0  0  0  0
  -32.8180  -21.5490   17.9800 C   0  0  0  0  0  2  0  0  0  0  0  0
  -31.7150  -21.7100   18.8590 O   0  0  0  0  0  0  0  0  0  0  0  0
  -32.0160  -22.5260   19.9790 C   0  0  0  0  0  2  0  0  0  0  0  0
  -30.7850  -22.5760   20.8980 C   0  0  0  0  0  2  0  0  0  0  0  0
  -29.6810  -23.2580   20.3070 O   0  0  0  0  0  0  0  0  0  0  0  0
  -29.8180  -24.6750   20.2410 C   0  0  0  0  0  2  0  0  0  0  0  0
  -28.4460  -25.2930   19.9470 C   0  0  0  0  0  2  0  0  0  0  0  0
  -28.4840  -26.6910   20.2180 O   0  0  0  0  0  0  0  0  0  0  0  0
  -24.5690  -31.7120   23.3530 C   0  0  0  0  0  0  0  0  0  0  0  0
  -27.2910  -27.3790   20.1980 C   0  0  0  0  0  0  0  0  0  0  0  0
  -23.4100  -30.3830   21.6170 C   0  0  0  0  0  3  0  0  0  0  0  0
  -24.8980  -28.8860   20.1920 C   0  0  0  0  0  0  0  0  0  0  0  0
  -25.9430  -30.7280   21.5240 C   0  0  0  0  0  2  0  0  0  0  0  0
  -26.0390  -29.3850   20.8330 C   0  0  0  0  0  0  0  0  0  0  0  0
  -27.2360  -28.6400   20.8300 C   0  0  0  0  0  3  0  0  0  0  0  0
  -26.1270  -26.8850   19.5610 C   0  0  0  0  0  3  0  0  0  0  0  0
  -24.9360  -27.6340   19.5560 C   0  0  0  0  0  3  0  0  0  0  0  0
  -23.6610  -29.7530   20.2230 C   0  0  0  0  0  2  0  0  0  0  0  0
  -24.6570  -30.9540   22.2240 N   0  0  0  0  0  0  0  0  0  0  0  0
  -23.4720  -31.9750   23.8650 O   0  0  0  0  0  0  0  0  0  0  0  0
  -22.7210  -29.3320   22.5160 C   0  0  0  0  0  0  0  0  0  0  0  0
  -21.4000  -29.1710   22.3380 N   0  0  0  0  0  0  0  0  0  0  0  0
  -23.3710  -28.6670   23.3270 O   0  0  0  0  0  0  0  0  0  0  0  0
  -20.9410  -29.7600   21.6580 H   0  0  0  0  0  0  0  0  0  0  0  0
  -17.9980  -27.9990   22.6660 C   0  0  0  0  0  0  0  0  0  0  0  0
  -20.5460  -28.2150   23.0410 C   0  0  0  0  0  3  0  0  0  0  0  0
  -20.6550  -26.8060   22.4140 C   0  0  0  0  0  2  0  0  0  0  0  0
  -19.5860  -26.5330   21.3510 C   0  0  0  0  0  2  0  0  0  0  0  0
  -18.1840  -26.6720   21.9500 C   0  0  0  0  0  2  0  0  0  0  0  0
  -19.1080  -28.7310   23.1640 C   0  0  0  0  0  0  0  0  0  0  0  0
  -18.8830  -29.9760   23.7910 C   0  0  0  0  0  3  0  0  0  0  0  0
  -17.5790  -30.4870   23.9290 C   0  0  0  0  0  3  0  0  0  0  0  0
  -16.4820  -29.7530   23.4460 C   0  0  0  0  0  3  0  0  0  0  0  0
  -16.6920  -28.5110   22.8190 C   0  0  0  0  0  3  0  0  0  0  0  0
  -25.8390  -32.3050   24.0400 C   0  0  0  0  0  3  0  0  0  0  0  0
  -25.5470  -33.7060   24.3690 N   0  0  0  0  0  0  0  0  0  0  0  0
  -25.9470  -34.7560   23.6410 C   0  0  0  0  0  0  0  0  0  0  0  0
  -26.6710  -34.6480   22.6470 O   0  0  0  0  0  0  0  0  0  0  0  0
  -24.9120  -33.8670   25.1380 H   0  0  0  0  0  0  0  0  0  0  0  0
  -24.2850  -36.5930   23.2090 C   0  0  0  0  0  1  0  0  0  0  0  0
  -25.4660  -36.1500   24.0880 C   0  0  0  0  0  3  0  0  0  0  0  0
  -27.5690  -36.9730   25.0550 C   0  0  0  0  0  1  0  0  0  0  0  0
  -26.5290  -37.1790   24.0500 N   0  0  0  0  0  0  0  0  0  0  0  0
  -26.1360  -38.1070   24.1820 H   0  0  0  0  0  0  0  0  0  0  0  0
  -26.2770  -31.5090   25.3300 C   0  0  1  0  0  0  0  0  0  0  0  0
  -25.1290  -31.2930   26.3430 C   0  0  0  0  0  1  0  0  0  0  0  0
  -26.8420  -30.1200   24.9500 C   0  0  0  0  0  1  0  0  0  0  0  0
  -27.4140  -32.2680   26.0520 C   0  0  0  0  0  1  0  0  0  0  0  0
  -29.7790  -19.3130   17.9390 C   0  0  0  0  0  2  0  0  0  0  0  0
  -29.6240  -18.0200   20.0620 C   0  0  0  0  0  0  0  0  0  0  0  0
  -30.2140  -18.9320   19.2810 N   0  0  0  0  0  0  0  0  0  0  0  0
  -28.5770  -17.4460   19.7460 O   0  0  0  0  0  0  0  0  0  0  0  0
  -31.0830  -19.3410   19.6000 H   0  0  0  0  0  0  0  0  0  0  0  0
  -30.3130  -17.6780   21.3930 C   0  0  0  0  0  3  0  0  0  0  0  0
  -30.8760  -15.2790   21.0810 C   0  0  0  0  0  0  0  0  0  0  0  0
  -30.8780  -12.9430   20.2970 C   0  0  0  0  0  2  0  0  0  0  0  0
  -30.1070  -12.8320   18.9680 C   0  0  0  0  0  2  0  0  0  0  0  0
  -28.5980  -12.6460   19.2180 C   0  0  0  0  0  2  0  0  0  0  0  0
  -28.0290  -13.6820   20.2250 C   0  0  0  0  0  3  0  0  0  0  0  0
  -28.9170  -13.7470   21.4880 C   0  0  0  0  0  2  0  0  0  0  0  0
  -30.2990  -14.0510   21.0690 N   0  0  0  0  0  0  0  0  0  0  0  0
  -31.9760  -15.5250   20.5760 O   0  0  0  0  0  0  0  0  0  0  0  0
  -30.1270  -16.2430   21.6260 N   0  0  0  0  0  0  0  0  0  0  0  0
  -29.2260  -15.9500   21.9690 H   0  0  0  0  0  0  0  0  0  0  0  0
  -25.5670  -14.2590   20.7230 C   0  0  0  0  0  0  0  0  0  0  0  0
  -24.4740  -13.4700   20.9600 C   0  0  0  0  0  0  0  0  0  0  0  0
  -24.9450  -12.1200   20.9170 C   0  0  0  0  0  0  0  0  0  0  0  0
  -26.6360  -13.3890   20.5590 N   0  0  0  0  0  0  0  0  0  0  0  0
  -26.2570  -12.0970   20.7280 N   0  0  0  0  0  0  0  0  0  0  0  0
  -24.2130  -10.8490   20.9900 C   0  0  0  0  0  0  0  0  0  0  0  0
  -24.6080   -9.8200   21.8750 C   0  0  0  0  0  3  0  0  0  0  0  0
  -23.8780   -8.6130   21.9380 C   0  0  0  0  0  3  0  0  0  0  0  0
  -22.7420   -8.4260   21.1170 C   0  0  0  0  0  0  0  0  0  0  0  0
  -22.3660   -9.4440   20.2230 C   0  0  0  0  0  3  0  0  0  0  0  0
  -23.0960  -10.6430   20.1570 C   0  0  0  0  0  3  0  0  0  0  0  0
  -21.9880   -7.2770   21.0930 O   0  0  0  0  0  0  0  0  0  0  0  0
  -21.8880   -6.4580   22.1880 C   0  0  0  0  0  0  0  0  0  0  0  0
  -21.4210   -6.9340   23.4340 C   0  0  0  0  0  3  0  0  0  0  0  0
  -21.2680   -6.0420   24.5140 C   0  0  0  0  0  3  0  0  0  0  0  0
  -21.5730   -4.6770   24.3510 C   0  0  0  0  0  0  0  0  0  0  0  0
  -22.0330   -4.2020   23.1110 C   0  0  0  0  0  3  0  0  0  0  0  0
  -22.1880   -5.0900   22.0320 C   0  0  0  0  0  0  0  0  0  0  0  0
  -22.6110   -4.6230   20.8330 F   0  0  0  0  0  0  0  0  0  0  0  0
  -21.4190   -3.8200   25.3880 F   0  0  0  0  0  0  0  0  0  0  0  0
  -23.0530  -13.9290   21.1260 C   0  0  0  0  0  0  0  0  0  0  0  0
  -22.2630  -13.2090   21.9130 N   0  0  0  0  0  0  0  0  0  0  0  0
  -22.6490  -14.9610   20.5920 O   0  0  0  0  0  0  0  0  0  0  0  0
  -22.5980  -12.3720   22.3680 H   0  0  0  0  0  0  0  0  0  0  0  0
  -21.3070  -13.4980   22.0660 H   0  0  0  0  0  0  0  0  0  0  0  0
  -25.7430  -15.6360   20.6180 N   0  0  0  0  0  0  0  0  0  0  0  0
  -24.9720  -16.2910   20.6870 H   0  0  0  0  0  0  0  0  0  0  0  0
  -26.6340  -16.0900   20.4430 H   0  0  0  0  0  0  0  0  0  0  0  0
  -29.6420  -18.5050   22.5180 C   0  0  0  0  0  2  0  0  0  0  0  0
  -30.5990  -18.8680   23.6560 C   0  0  0  0  0  0  0  0  0  0  0  0
  -30.5440  -18.1520   24.7730 N   0  0  0  0  0  0  0  0  0  0  0  0
  -31.3970  -19.7950   23.5310 O   0  0  0  0  0  0  0  0  0  0  0  0
  -29.8850  -17.3920   24.8740 H   0  0  0  0  0  0  0  0  0  0  0  0
  -31.1640  -18.3630   25.5430 H   0  0  0  0  0  0  0  0  0  0  0  0
  1  2  1  0
  1 52  1  0
  3  2  1  0
  3  4  1  0
  4  5  1  0
  5  6  1  0
  6  7  1  0
  8  7  1  0
  9  8  1  0
 10 11  1  0
 10  9  1  0
 12 23  2  0
 13 11  1  0
 13 18  1  0
 14 22  1  0
 14 24  1  0
 15 21  1  0
 15 17  1  0
 16 22  1  0
 17 16  1  0
 18 17  2  0
 19 13  2  0
 20 19  1  0
 20 15  2  0
 21 14  1  0
 22 12  1  0
 24 26  2  0
 25 24  1  0
 27 25  1  0
 28 37  2  0
 28 33  1  0
 29 25  1  0
 29 33  1  0
 30 29  1  0
 31 32  1  0
 31 30  1  0
 32 28  1  0
 33 34  2  0
 34 35  1  0
 36 35  2  0
 37 36  1  0
 38 12  1  0
 38 39  1  0
 38 48  1  0
 39 42  1  0
 40 44  1  0
 40 39  1  0
 41 40  2  0
 44 43  1  0
 46 44  1  0
 46 47  1  0
 46 45  1  0
 48 51  1  1
 48 49  1  0
 50 48  1  0
 52 54  1  0
 53 57  1  0
 54 56  1  0
 54 53  1  0
 55 53  2  0
 57 66  1  0
 57 96  1  0
 58 66  1  0
 59 64  1  0
 60 61  1  0
 60 59  1  0
 62 61  1  0
 62 71  1  0
 62 63  1  0
 64 58  1  0
 64 63  1  0
 65 58  2  0
 66 67  1  0
 68 69  2  0
 69 88  1  0
 70 69  1  0
 70 73  1  0
 71 68  1  0
 71 72  1  0
 72 70  2  0
 73 74  1  0
 74 75  2  0
 76 75  1  0
 77 76  2  0
 78 77  1  0
 78 73  2  0
 79 76  1  0
 79 80  1  0
 80 81  1  0
 81 82  2  0
 83 82  1  0
 83 87  1  0
 84 83  2  0
 85 80  2  0
 85 84  1  0
 86 85  1  0
 88 89  1  0
 89 92  1  0
 89 91  1  0
 90 88  2  0
 93 94  1  0
 93 68  1  0
 95 93  1  0
 96 97  1  0
 97 98  1  0
 98100  1  0
 98101  1  0
 99 97  2  0
M  ISO  4  10 101  11 101  58 100  66 100
M  END
>  <TORSDO>  (7) 
F 30

>  <SCORE>  (7) 
-8.674

>  <name>  (7) 
6

>  <ligand_id>  (7) 
6

>  <original_smiles>  (7) 
[H]c1c([H])c([H])c2c(c1[H])C([H])([H])C([H])([H])C([H])([H])C2([H])N([H])C(=O)C1([H])N(C(=O)C([H])(N([H])C(=O)C([H])(N([H])C([H])([H])[H])C([H])([H])[H])C(C([H])([H])[H])(C([H])([H])[H])C([H])([H])[H])C([H])([H])c2c([H])c(OC([H])([H])C([H])([H])OC([H])([H])C([H])([H])OC([H])([H])C([H])([H])OC([H])([H])C([H])([H])N([H])C(=O)C([H])(N([H])C(=O)N3C([H])([H])C([H])([H])C([H])([H])C([H])(n4nc(-c5c([H])c([H])c(Oc6c([H])c([H])c(F)c([H])c6F)c([H])c5[H])c(C(=O)N([H])[H])c4N([H])[H])C3([H])[H])C([H])([H])C(=O)N([H])[H])c([H])c([H])c2C1([H])[H]

>  <smiles>  (7) 
[H]c1c([H])c([H])c2c(c1[H])C([H])([H])C([H])([H])C([H])([H])C2([H])N([H])C(=O)C1([H])N(C(=O)C([H])(N([H])C(=O)C([H])(N([H])C([H])([H])[H])C([H])([H])[H])C(C([H])([H])[H])(C([H])([H])[H])C([H])([H])[H])C([H])([H])c2c([H])c(OC([H])([H])C([H])([H])OC([H])([H])C([H])([H])OC([H])([H])C([H])([H])OC([H])([H])C([H])([H])N([H])C(=O)C([H])(N([H])C(=O)N3C([H])([H])C([H])([H])C([H])([H])C([H])(n4nc(-c5c([H])c([H])c(Oc6c([H])c([H])c(F)c([H])c6F)c([H])c5[H])c(C(=O)N([H])[H])c4N([H])[H])C3([H])[H])C([H])([H])C(=O)N([H])[H])c([H])c([H])c2C1([H])[H]

$$$$
7:0:0
     RDKit          3D

 99100  0  0  1  0  0  0  0  0999 V2000
  -32.3200  -19.8000   16.4140 N   0  0  0  0  0  4  0  0  0  0  0  0
  -31.6590  -19.9510   15.6670 H   0  0  0  0  0  0  0  0  0  0  0  0
  -31.8150  -19.3830   17.1820 H   0  0  0  0  0  0  0  0  0  0  0  0
  -33.3400  -18.8280   15.9650 C   0  0  0  0  0  2  0  0  0  0  0  0
  -32.6840  -17.5210   15.5120 C   0  0  0  0  0  2  0  0  0  0  0  0
  -32.0500  -16.9400   16.6440 O   0  0  0  0  0  0  0  0  0  0  0  0
  -31.4380  -15.6920   16.3490 C   0  0  0  0  0  2  0  0  0  0  0  0
  -30.9910  -15.0410   17.6640 C   0  0  0  0  0  2  0  0  0  0  0  0
  -30.4150  -13.6310   17.4710 C   0  0  0  0  0  2  0  0  0  0  0  0
  -30.1100  -13.0610   18.8230 O   0  0  0  0  0  0  0  0  0  0  0  0
  -29.3050  -11.1290   20.2550 C   0  0  0  0  0 15  0  0  0  0  0  0
  -29.1160  -11.9420   22.1220 C   0  0  0  0  0  1  0  0  0  0  0  0
  -31.3290  -13.6580   21.3050 C   0  0  0  0  0  3  0  0  0  0  0  0
  -31.7780  -11.2760   19.1480 C   0  0  0  0  0  1  0  0  0  0  0  0
  -30.1470  -10.9790   18.0140 C   0  0  0  0  0 15  0  0  0  0  0  0
  -28.4970  -12.1010   18.3380 C   0  0  0  0  0 15  0  0  0  0  0  0
  -28.7060  -13.2220   20.0380 C   0  0  0  0  0  2  0  0  0  0  0  0
  -31.0340  -12.3600   20.8840 C   0  0  0  0  0  2  0  0  0  0  0  0
  -32.0080  -12.6030   20.3830 N   0  0  0  0  0  2  0  0  0  0  0  0
  -32.1340  -14.6090   21.2230 O   0  0  0  0  0  0  0  0  0  0  0  0
  -30.0040  -13.4920   22.3300 N   0  0  0  0  0  2  0  0  0  0  0  0
  -29.6870  -14.2310   22.9410 H   0  0  0  0  0  0  0  0  0  0  0  0
  -26.3330  -14.0060   20.7090 C   0  0  0  0  0  0  0  0  0  0  0  0
  -25.1590  -13.3500   20.9810 C   0  0  0  0  0  0  0  0  0  0  0  0
  -25.4260  -11.9540   20.8960 C   0  0  0  0  0  0  0  0  0  0  0  0
  -27.2870  -13.0400   20.5220 N   0  0  0  0  0  0  0  0  0  0  0  0
  -26.6940  -11.8010   20.6090 N   0  0  0  0  0  0  0  0  0  0  0  0
  -24.5540  -10.7700   21.0010 C   0  0  0  0  0  0  0  0  0  0  0  0
  -24.8380   -9.7010   21.8840 C   0  0  0  0  0  3  0  0  0  0  0  0
  -23.9540   -8.6030   21.9940 C   0  0  0  0  0  3  0  0  0  0  0  0
  -22.7720   -8.5610   21.2150 C   0  0  0  0  0  0  0  0  0  0  0  0
  -22.5140   -9.6080   20.3130 C   0  0  0  0  0  3  0  0  0  0  0  0
  -23.3950  -10.6970   20.2040 C   0  0  0  0  0  3  0  0  0  0  0  0
  -21.8660   -7.5270   21.2330 O   0  0  0  0  0  0  0  0  0  0  0  0
  -21.6750   -6.7490   22.3470 C   0  0  0  0  0  0  0  0  0  0  0  0
  -21.3220   -7.3080   23.5960 C   0  0  0  0  0  3  0  0  0  0  0  0
  -21.0710   -6.4660   24.6980 C   0  0  0  0  0  3  0  0  0  0  0  0
  -21.1640   -5.0690   24.5520 C   0  0  0  0  0  0  0  0  0  0  0  0
  -21.5050   -4.5110   23.3080 C   0  0  0  0  0  3  0  0  0  0  0  0
  -21.7570   -5.3490   22.2070 C   0  0  0  0  0  0  0  0  0  0  0  0
  -22.0660   -4.8060   21.0050 F   0  0  0  0  0  0  0  0  0  0  0  0
  -20.9150   -4.2580   25.6070 F   0  0  0  0  0  0  0  0  0  0  0  0
  -23.8300  -13.9850   21.2100 C   0  0  0  0  0  0  0  0  0  0  0  0
  -22.9930  -13.3610   22.0300 N   0  0  0  0  0  0  0  0  0  0  0  0
  -23.5500  -15.0660   20.6970 O   0  0  0  0  0  0  0  0  0  0  0  0
  -23.2390  -12.4800   22.4560 H   0  0  0  0  0  0  0  0  0  0  0  0
  -22.0910  -13.7690   22.2360 H   0  0  0  0  0  0  0  0  0  0  0  0
  -26.6740  -15.3450   20.5800 N   0  0  0  0  0  0  0  0  0  0  0  0
  -25.9990  -16.0960   20.6810 H   0  0  0  0  0  0  0  0  0  0  0  0
  -27.6030  -15.6760   20.3510 H   0  0  0  0  0  0  0  0  0  0  0  0
  -32.8730  -21.1040   16.8320 C   0  0  0  0  0  2  0  0  0  0  0  0
  -31.7750  -22.0650   17.3170 C   0  0  0  0  0  2  0  0  0  0  0  0
  -32.3230  -23.4660   17.6130 C   0  0  0  0  0  2  0  0  0  0  0  0
  -31.2560  -24.3020   18.0380 O   0  0  0  0  0  0  0  0  0  0  0  0
  -31.6360  -25.6360   18.1600 C   0  0  0  0  0  2  0  0  0  0  0  0
  -30.6040  -26.3870   18.7080 O   0  0  0  0  0  0  0  0  0  0  0  0
  -30.4060  -26.1490   20.0980 C   0  0  0  0  0  2  0  0  0  0  0  0
  -29.2840  -27.0640   20.6000 C   0  0  0  0  0  2  0  0  0  0  0  0
  -28.0390  -26.5340   20.1570 O   0  0  0  0  0  0  0  0  0  0  0  0
  -24.4020  -31.8820   23.2260 C   0  0  0  0  0  0  0  0  0  0  0  0
  -26.9190  -27.3320   20.2320 C   0  0  0  0  0  0  0  0  0  0  0  0
  -23.1400  -30.4730   21.6290 C   0  0  0  0  0  3  0  0  0  0  0  0
  -24.5410  -28.8600   20.2360 C   0  0  0  0  0  0  0  0  0  0  0  0
  -25.6660  -30.7710   21.3960 C   0  0  0  0  0  2  0  0  0  0  0  0
  -25.7110  -29.3810   20.8010 C   0  0  0  0  0  0  0  0  0  0  0  0
  -26.8990  -28.6250   20.8080 C   0  0  0  0  0  3  0  0  0  0  0  0
  -25.7300  -26.8130   19.6830 C   0  0  0  0  0  3  0  0  0  0  0  0
  -24.5410  -27.5680   19.6800 C   0  0  0  0  0  3  0  0  0  0  0  0
  -23.3170  -29.7470   20.2660 C   0  0  0  0  0  2  0  0  0  0  0  0
  -24.4210  -31.0570   22.1420 N   0  0  0  0  0  0  0  0  0  0  0  0
  -23.3350  -32.1970   23.7710 O   0  0  0  0  0  0  0  0  0  0  0  0
  -22.4720  -29.4960   22.6220 C   0  0  0  0  0  0  0  0  0  0  0  0
  -21.1450  -29.3350   22.4970 N   0  0  0  0  0  0  0  0  0  0  0  0
  -23.1440  -28.8830   23.4550 O   0  0  0  0  0  0  0  0  0  0  0  0
  -20.6670  -29.8780   21.7910 H   0  0  0  0  0  0  0  0  0  0  0  0
  -17.7520  -28.2030   22.9980 C   0  0  0  0  0  0  0  0  0  0  0  0
  -20.3090  -28.4400   23.2960 C   0  0  0  0  0  3  0  0  0  0  0  0
  -20.4010  -26.9850   22.7790 C   0  0  0  0  0  2  0  0  0  0  0  0
  -19.3090  -26.6360   21.7630 C   0  0  0  0  0  2  0  0  0  0  0  0
  -17.9210  -26.8240   22.3820 C   0  0  0  0  0  2  0  0  0  0  0  0
  -18.8750  -28.9680   23.4130 C   0  0  0  0  0  0  0  0  0  0  0  0
  -18.6660  -30.2580   23.9470 C   0  0  0  0  0  3  0  0  0  0  0  0
  -17.3660  -30.7820   24.0730 C   0  0  0  0  0  3  0  0  0  0  0  0
  -16.2570  -30.0150   23.6760 C   0  0  0  0  0  3  0  0  0  0  0  0
  -16.4520  -28.7270   23.1450 C   0  0  0  0  0  3  0  0  0  0  0  0
  -25.7140  -32.4880   23.8180 C   0  0  0  0  0  3  0  0  0  0  0  0
  -25.4460  -33.8980   24.1310 N   0  0  0  0  0  0  0  0  0  0  0  0
  -25.8060  -34.9300   23.3550 C   0  0  0  0  0  0  0  0  0  0  0  0
  -26.4700  -34.7930   22.3240 O   0  0  0  0  0  0  0  0  0  0  0  0
  -24.8590  -34.0810   24.9310 H   0  0  0  0  0  0  0  0  0  0  0  0
  -24.1280  -36.7620   22.9760 C   0  0  0  0  0  1  0  0  0  0  0  0
  -25.3590  -36.3370   23.7930 C   0  0  0  0  0  3  0  0  0  0  0  0
  -27.5200  -37.1710   24.6050 C   0  0  0  0  0  1  0  0  0  0  0  0
  -26.4190  -37.3590   23.6620 N   0  0  0  0  0  0  0  0  0  0  0  0
  -26.0400  -38.2920   23.7980 H   0  0  0  0  0  0  0  0  0  0  0  0
  -26.2340  -31.7200   25.0950 C   0  0  1  0  0  0  0  0  0  0  0  0
  -25.1550  -31.5240   26.1840 C   0  0  0  0  0  1  0  0  0  0  0  0
  -26.7750  -30.3240   24.7070 C   0  0  0  0  0  1  0  0  0  0  0  0
  -27.4170  -32.4930   25.7250 C   0  0  0  0  0  1  0  0  0  0  0  0
  1 51  1  0
  1  3  1  0
  2  1  1  0
  4  1  1  0
  5  4  1  0
  5  6  1  0
  7  6  1  0
  7  8  1  0
  9  8  1  0
  9 10  1  0
 10 17  1  0
 12 21  1  0
 14 19  1  0
 17 26  1  0
 18 13  1  0
 19 18  1  0
 20 13  2  0
 21 22  1  0
 23 24  2  0
 24 43  1  0
 25 24  1  0
 25 28  1  0
 26 27  1  0
 26 23  1  0
 27 25  2  0
 28 29  1  0
 29 30  2  0
 31 34  1  0
 31 30  1  0
 32 31  2  0
 33 32  1  0
 33 28  2  0
 34 35  1  0
 35 36  1  0
 36 37  2  0
 38 37  1  0
 38 42  1  0
 39 38  2  0
 40 35  2  0
 40 39  1  0
 41 40  1  0
 43 44  1  0
 44 47  1  0
 44 46  1  0
 45 43  2  0
 48 49  1  0
 48 23  1  0
 50 48  1  0
 51 52  1  0
 52 53  1  0
 53 54  1  0
 54 55  1  0
 55 56  1  0
 56 57  1  0
 57 58  1  0
 59 61  1  0
 59 58  1  0
 60 71  2  0
 61 66  1  0
 62 70  1  0
 62 72  1  0
 63 69  1  0
 63 65  1  0
 64 70  1  0
 65 66  2  0
 65 64  1  0
 67 61  2  0
 68 67  1  0
 68 63  2  0
 69 62  1  0
 70 60  1  0
 72 74  2  0
 73 72  1  0
 75 73  1  0
 76 85  2  0
 76 81  1  0
 77 73  1  0
 77 81  1  0
 78 77  1  0
 79 80  1  0
 79 78  1  0
 80 76  1  0
 81 82  2  0
 82 83  1  0
 84 83  2  0
 85 84  1  0
 86 60  1  0
 86 87  1  0
 86 96  1  0
 87 90  1  0
 88 92  1  0
 88 87  1  0
 89 88  2  0
 92 91  1  0
 94 92  1  0
 94 95  1  0
 94 93  1  0
 96 99  1  1
 96 97  1  0
 98 96  1  0
M  ISO  4  13 100  21 100  58 101  59 101
M  END
>  <TORSDO>  (8) 
F 33

>  <SCORE>  (8) 
-7.629

>  <name>  (8) 
7

>  <ligand_id>  (8) 
7

>  <original_smiles>  (8) 
[H]c1c([H])c([H])c2c(c1[H])C([H])([H])C([H])([H])C([H])([H])C2([H])N([H])C(=O)C1([H])N(C(=O)C([H])(N([H])C(=O)C([H])(N([H])C([H])([H])[H])C([H])([H])[H])C(C([H])([H])[H])(C([H])([H])[H])C([H])([H])[H])C([H])([H])c2c([H])c(OC([H])([H])C([H])([H])OC([H])([H])OC([H])([H])C([H])([H])C([H])([H])[N+]([H])([H])C([H])([H])C([H])([H])OC([H])([H])C([H])([H])C([H])([H])OC([H])([H])C([H])([H])N([H])C(=O)N3C([H])([H])C([H])([H])C([H])([H])C([H])(n4nc(-c5c([H])c([H])c(Oc6c([H])c([H])c(F)c([H])c6F)c([H])c5[H])c(C(=O)N([H])[H])c4N([H])[H])C3([H])[H])c([H])c([H])c2C1([H])[H]

>  <smiles>  (8) 
[H]c1c([H])c([H])c2c(c1[H])C([H])([H])C([H])([H])C([H])([H])C2([H])N([H])C(=O)C1([H])N(C(=O)C([H])(N([H])C(=O)C([H])(N([H])C([H])([H])[H])C([H])([H])[H])C(C([H])([H])[H])(C([H])([H])[H])C([H])([H])[H])C([H])([H])c2c([H])c(OC([H])([H])C([H])([H])OC([H])([H])OC([H])([H])C([H])([H])C([H])([H])[N+]([H])([H])C([H])([H])C([H])([H])OC([H])([H])C([H])([H])C([H])([H])OC([H])([H])C([H])([H])N([H])C(=O)N3C([H])([H])C([H])([H])C([H])([H])C([H])(n4nc(-c5c([H])c([H])c(Oc6c([H])c([H])c(F)c([H])c6F)c([H])c5[H])c(C(=O)N([H])[H])c4N([H])[H])C3([H])[H])c([H])c([H])c2C1([H])[H]

$$$$
8:0:0
     RDKit          3D

 99106  0  0  1  0  0  0  0  0999 V2000
  -33.5830  -28.8110   20.5150 C   0  0  0  0  0  0  0  0  0  0  0  0
  -33.4930  -28.8320   21.8510 N   0  0  0  0  0  0  0  0  0  0  0  0
  -32.8550  -29.4880   19.7860 O   0  0  0  0  0  0  0  0  0  0  0  0
  -34.1290  -28.2400   22.3680 H   0  0  0  0  0  0  0  0  0  0  0  0
  -32.5970  -29.6820   22.6340 C   0  0  0  0  0  2  0  0  0  0  0  0
  -31.2660  -28.9840   22.9630 C   0  0  0  0  0  2  0  0  0  0  0  0
  -30.5160  -28.7970   21.7690 O   0  0  0  0  0  0  0  0  0  0  0  0
  -30.2160  -27.4390   21.4770 C   0  0  0  0  0  2  0  0  0  0  0  0
  -29.6620  -27.3320   20.0460 C   0  0  0  0  0  2  0  0  0  0  0  0
  -28.3850  -26.7010   20.0030 O   0  0  0  0  0  0  0  0  0  0  0  0
  -24.6120  -31.8710   23.2140 C   0  0  0  0  0  0  0  0  0  0  0  0
  -27.2530  -27.4800   20.0900 C   0  0  0  0  0  0  0  0  0  0  0  0
  -23.3980  -30.4930   21.5550 C   0  0  0  0  0  3  0  0  0  0  0  0
  -24.8470  -28.9610   20.1250 C   0  0  0  0  0  0  0  0  0  0  0  0
  -25.9220  -30.8530   21.3590 C   0  0  0  0  0  2  0  0  0  0  0  0
  -26.0040  -29.4890   20.7110 C   0  0  0  0  0  0  0  0  0  0  0  0
  -27.2100  -28.7580   20.6940 C   0  0  0  0  0  3  0  0  0  0  0  0
  -26.0730  -26.9490   19.5310 C   0  0  0  0  0  3  0  0  0  0  0  0
  -24.8730  -27.6850   19.5350 C   0  0  0  0  0  3  0  0  0  0  0  0
  -23.6050  -29.8230   20.1700 C   0  0  0  0  0  2  0  0  0  0  0  0
  -24.6620  -31.0850   22.1020 N   0  0  0  0  0  0  0  0  0  0  0  0
  -23.5320  -32.1420   23.7570 O   0  0  0  0  0  0  0  0  0  0  0  0
  -22.7400  -29.4670   22.5050 C   0  0  0  0  0  0  0  0  0  0  0  0
  -21.4130  -29.3030   22.3770 N   0  0  0  0  0  0  0  0  0  0  0  0
  -23.4180  -28.8220   23.3080 O   0  0  0  0  0  0  0  0  0  0  0  0
  -20.9300  -29.8730   21.6980 H   0  0  0  0  0  0  0  0  0  0  0  0
  -18.0260  -28.1390   22.8510 C   0  0  0  0  0  0  0  0  0  0  0  0
  -20.5850  -28.3660   23.1360 C   0  0  0  0  0  3  0  0  0  0  0  0
  -20.6770  -26.9400   22.5440 C   0  0  0  0  0  2  0  0  0  0  0  0
  -19.5740  -26.6390   21.5250 C   0  0  0  0  0  2  0  0  0  0  0  0
  -18.1910  -26.7940   22.1640 C   0  0  0  0  0  2  0  0  0  0  0  0
  -19.1510  -28.8840   23.2930 C   0  0  0  0  0  0  0  0  0  0  0  0
  -18.9440  -30.1460   23.8920 C   0  0  0  0  0  3  0  0  0  0  0  0
  -17.6440  -30.6600   24.0570 C   0  0  0  0  0  3  0  0  0  0  0  0
  -16.5330  -29.9100   23.6330 C   0  0  0  0  0  3  0  0  0  0  0  0
  -16.7260  -28.6520   23.0340 C   0  0  0  0  0  3  0  0  0  0  0  0
  -25.9040  -32.4850   23.8410 C   0  0  0  0  0  3  0  0  0  0  0  0
  -26.4500  -31.6610   25.0720 C   0  0  1  0  0  0  0  0  0  0  0  0
  -25.3750  -31.3680   26.1440 C   0  0  0  0  0  1  0  0  0  0  0  0
  -27.0370  -30.3080   24.6060 C   0  0  0  0  0  1  0  0  0  0  0  0
  -27.6070  -32.4340   25.7490 C   0  0  0  0  0  1  0  0  0  0  0  0
  -25.5910  -33.8650   24.2340 N   0  0  0  0  0  0  0  0  0  0  0  0
  -25.9030  -34.9490   23.5120 C   0  0  0  0  0  0  0  0  0  0  0  0
  -26.5600  -34.8930   22.4680 O   0  0  0  0  0  0  0  0  0  0  0  0
  -25.0050  -33.9830   25.0480 H   0  0  0  0  0  0  0  0  0  0  0  0
  -24.1480  -36.7320   23.2640 C   0  0  0  0  0  1  0  0  0  0  0  0
  -25.4110  -36.3130   24.0320 C   0  0  0  0  0  3  0  0  0  0  0  0
  -27.5580  -37.1780   24.8440 C   0  0  0  0  0  1  0  0  0  0  0  0
  -26.4290  -37.3810   23.9410 N   0  0  0  0  0  0  0  0  0  0  0  0
  -26.0180  -38.2880   24.1450 H   0  0  0  0  0  0  0  0  0  0  0  0
  -34.6480  -27.8930   19.8940 C   0  0  0  0  0  2  0  0  0  0  0  0
  -34.0730  -26.6570   19.4700 O   0  0  0  0  0  0  0  0  0  0  0  0
  -33.9070  -25.7020   20.5100 C   0  0  0  0  0  2  0  0  0  0  0  0
  -33.2650  -24.4390   19.9220 C   0  0  0  0  0  2  0  0  0  0  0  0
  -33.0840  -23.3380   20.9780 C   0  0  0  0  0  2  0  0  0  0  0  0
  -32.4340  -22.0590   20.4240 C   0  0  0  0  0  2  0  0  0  0  0  0
  -32.2540  -20.9930   21.5140 C   0  0  0  0  0  2  0  0  0  0  0  0
  -31.6450  -19.8300   20.9670 O   0  0  0  0  0  0  0  0  0  0  0  0
  -31.4970  -18.8010   21.9390 C   0  0  0  0  0  2  0  0  0  0  0  0
  -30.9050  -17.5390   21.2940 C   0  0  0  0  0  2  0  0  0  0  0  0
  -30.9400  -16.3260   22.2460 C   0  0  0  0  0  2  0  0  0  0  0  0
  -30.7710  -14.3610   20.6970 C   0  0  0  0  0  0  0  0  0  0  0  0
  -30.4210  -12.2990   19.3860 C   0  0  0  0  0  2  0  0  0  0  0  0
  -29.4830  -12.5350   18.1880 C   0  0  0  0  0  2  0  0  0  0  0  0
  -28.0090  -12.3860   18.6080 C   0  0  0  0  0  2  0  0  0  0  0  0
  -27.6690  -13.2030   19.8820 C   0  0  0  0  0  3  0  0  0  0  0  0
  -28.7080  -12.9400   20.9940 C   0  0  0  0  0  2  0  0  0  0  0  0
  -30.0500  -13.2360   20.4570 N   0  0  0  0  0  0  0  0  0  0  0  0
  -31.8020  -14.6510   20.0810 O   0  0  0  0  0  0  0  0  0  0  0  0
  -30.3060  -15.1310   21.6900 N   0  0  0  0  0  0  0  0  0  0  0  0
  -29.4710  -14.7980   22.1510 H   0  0  0  0  0  0  0  0  0  0  0  0
  -25.2630  -13.8160   20.5680 C   0  0  0  0  0  0  0  0  0  0  0  0
  -24.1870  -13.0450   20.9170 C   0  0  0  0  0  0  0  0  0  0  0  0
  -24.6400  -11.6910   20.8730 C   0  0  0  0  0  0  0  0  0  0  0  0
  -26.3060  -12.9310   20.3390 N   0  0  0  0  0  0  0  0  0  0  0  0
  -25.9320  -11.6480   20.5760 N   0  0  0  0  0  0  0  0  0  0  0  0
  -23.9050  -10.4300   21.0390 C   0  0  0  0  0  0  0  0  0  0  0  0
  -24.3610   -9.4230   21.9180 C   0  0  0  0  0  3  0  0  0  0  0  0
  -23.6290   -8.2260   22.0750 C   0  0  0  0  0  3  0  0  0  0  0  0
  -22.4280   -8.0290   21.3540 C   0  0  0  0  0  0  0  0  0  0  0  0
  -21.9900   -9.0260   20.4650 C   0  0  0  0  0  3  0  0  0  0  0  0
  -22.7220  -10.2140   20.3050 C   0  0  0  0  0  3  0  0  0  0  0  0
  -21.6650   -6.8880   21.4240 O   0  0  0  0  0  0  0  0  0  0  0  0
  -21.6860   -6.0740   22.5280 C   0  0  0  0  0  0  0  0  0  0  0  0
  -21.4010   -6.5640   23.8210 C   0  0  0  0  0  3  0  0  0  0  0  0
  -21.3660   -5.6790   24.9170 C   0  0  0  0  0  3  0  0  0  0  0  0
  -21.6040   -4.3050   24.7220 C   0  0  0  0  0  0  0  0  0  0  0  0
  -21.8830   -3.8140   23.4340 C   0  0  0  0  0  3  0  0  0  0  0  0
  -21.9200   -4.6970   22.3400 C   0  0  0  0  0  0  0  0  0  0  0  0
  -22.1670   -4.2150   21.0980 F   0  0  0  0  0  0  0  0  0  0  0  0
  -21.5620   -3.4530   25.7730 F   0  0  0  0  0  0  0  0  0  0  0  0
  -22.7890  -13.5260   21.1830 C   0  0  0  0  0  0  0  0  0  0  0  0
  -22.0520  -12.8270   22.0380 N   0  0  0  0  0  0  0  0  0  0  0  0
  -22.3590  -14.5570   20.6670 O   0  0  0  0  0  0  0  0  0  0  0  0
  -22.4100  -11.9930   22.4790 H   0  0  0  0  0  0  0  0  0  0  0  0
  -21.1140  -13.1320   22.2550 H   0  0  0  0  0  0  0  0  0  0  0  0
  -25.4400  -15.1880   20.4100 N   0  0  0  0  0  0  0  0  0  0  0  0
  -24.6790  -15.8510   20.5150 H   0  0  0  0  0  0  0  0  0  0  0  0
  -26.3060  -15.6200   20.1130 H   0  0  0  0  0  0  0  0  0  0  0  0
  1  2  1  0
  2  4  1  0
  2  5  1  0
  3  1  2  0
  5  6  1  0
  7  6  1  0
  8  7  1  0
  9  8  1  0
 10  9  1  0
 10 12  1  0
 11 22  2  0
 12 17  1  0
 13 21  1  0
 13 23  1  0
 14 20  1  0
 14 16  1  0
 15 21  1  0
 16 15  1  0
 17 16  2  0
 18 19  1  0
 18 12  2  0
 19 14  2  0
 20 13  1  0
 21 11  1  0
 23 25  2  0
 24 23  1  0
 26 24  1  0
 27 36  2  0
 27 32  1  0
 28 24  1  0
 28 32  1  0
 29 28  1  0
 30 31  1  0
 30 29  1  0
 31 27  1  0
 32 33  2  0
 33 34  1  0
 35 34  2  0
 36 35  1  0
 37 11  1  0
 37 42  1  0
 37 38  1  0
 38 41  1  1
 38 39  1  0
 40 38  1  0
 42 45  1  0
 43 47  1  0
 43 42  1  0
 44 43  2  0
 47 46  1  0
 49 47  1  0
 49 50  1  0
 49 48  1  0
 51  1  1  0
 52 51  1  0
 52 53  1  0
 54 53  1  0
 54 55  1  0
 56 55  1  0
 56 57  1  0
 58 57  1  0
 58 59  1  0
 60 59  1  0
 60 61  1  0
 62 70  1  0
 63 68  1  0
 64 65  1  0
 64 63  1  0
 66 65  1  0
 66 75  1  0
 66 67  1  0
 68 62  1  0
 68 67  1  0
 69 62  2  0
 70 71  1  0
 70 61  1  0
 72 73  2  0
 73 92  1  0
 74 73  1  0
 74 77  1  0
 75 72  1  0
 75 76  1  0
 76 74  2  0
 77 78  1  0
 78 79  2  0
 80 83  1  0
 80 79  1  0
 81 80  2  0
 82 81  1  0
 82 77  2  0
 83 84  1  0
 84 85  1  0
 85 86  2  0
 87 86  1  0
 87 91  1  0
 88 87  2  0
 89 84  2  0
 89 88  1  0
 90 89  1  0
 92 93  1  0
 93 96  1  0
 93 95  1  0
 94 92  2  0
 97 98  1  0
 97 72  1  0
 99 97  1  0
M  ISO  4   9 101  10 101  62 100  70 100
M  END
>  <TORSDO>  (9) 
F 32

>  <SCORE>  (9) 
-9.053

>  <name>  (9) 
8

>  <ligand_id>  (9) 
8

>  <original_smiles>  (9) 
[H]c1c([H])c([H])c2c(c1[H])C([H])([H])C([H])([H])C([H])([H])C2([H])N([H])C(=O)C1([H])N(C(=O)C([H])(N([H])C(=O)C([H])(N([H])C([H])([H])[H])C([H])([H])[H])C(C([H])([H])[H])(C([H])([H])[H])C([H])([H])[H])C([H])([H])c2c([H])c(OC([H])([H])C([H])([H])OC([H])([H])C([H])([H])N([H])C(=O)C([H])([H])OC([H])([H])C([H])([H])C([H])([H])C([H])([H])C([H])([H])OC([H])([H])C([H])([H])C([H])([H])N([H])C(=O)N3C([H])([H])C([H])([H])C([H])([H])C([H])(n4nc(-c5c([H])c([H])c(Oc6c([H])c([H])c(F)c([H])c6F)c([H])c5[H])c(C(=O)N([H])[H])c4N([H])[H])C3([H])[H])c([H])c([H])c2C1([H])[H]

>  <smiles>  (9) 
[H]c1c([H])c([H])c2c(c1[H])C([H])([H])C([H])([H])C([H])([H])C2([H])N([H])C(=O)C1([H])N(C(=O)C([H])(N([H])C(=O)C([H])(N([H])C([H])([H])[H])C([H])([H])[H])C(C([H])([H])[H])(C([H])([H])[H])C([H])([H])[H])C([H])([H])c2c([H])c(OC([H])([H])C([H])([H])OC([H])([H])C([H])([H])N([H])C(=O)C([H])([H])OC([H])([H])C([H])([H])C([H])([H])C([H])([H])C([H])([H])OC([H])([H])C([H])([H])C([H])([H])N([H])C(=O)N3C([H])([H])C([H])([H])C([H])([H])C([H])(n4nc(-c5c([H])c([H])c(Oc6c([H])c([H])c(F)c([H])c6F)c([H])c5[H])c(C(=O)N([H])[H])c4N([H])[H])C3([H])[H])c([H])c([H])c2C1([H])[H]

$$$$
9:0:0
     RDKit          3D

121128  0  0  1  0  0  0  0  0999 V2000
  -30.8530  -17.3080   21.2730 C   0  0  0  0  0  0  0  0  0  0  0  0
  -31.3980  -18.4700   21.6450 N   0  0  0  0  0  0  0  0  0  0  0  0
  -29.7430  -16.9530   21.6840 O   0  0  0  0  0  0  0  0  0  0  0  0
  -32.3530  -18.6600   21.3700 H   0  0  0  0  0  0  0  0  0  0  0  0
  -31.6400  -16.4170   20.2960 C   0  0  0  0  0  3  0  0  0  0  0  0
  -32.0350  -13.9920   20.7530 C   0  0  0  0  0  0  0  0  0  0  0  0
  -31.7080  -11.5700   20.5500 C   0  0  0  0  0  2  0  0  0  0  0  0
  -30.9360  -11.3040   19.2400 C   0  0  0  0  0  2  0  0  0  0  0  0
  -29.4110  -11.4370   19.4400 C   0  0  0  0  0  2  0  0  0  0  0  0
  -29.0200  -12.7450   20.1780 C   0  0  0  0  0  3  0  0  0  0  0  0
  -29.8850  -12.9100   21.4480 C   0  0  0  0  0  2  0  0  0  0  0  0
  -31.3020  -12.8910   21.0360 N   0  0  0  0  0  0  0  0  0  0  0  0
  -33.2350  -13.9940   20.4660 O   0  0  0  0  0  0  0  0  0  0  0  0
  -31.2660  -15.0590   20.6030 N   0  0  0  0  0  0  0  0  0  0  0  0
  -30.2820  -14.9390   20.7910 H   0  0  0  0  0  0  0  0  0  0  0  0
  -26.7200  -13.8610   20.4980 C   0  0  0  0  0  0  0  0  0  0  0  0
  -25.4880  -13.3370   20.7720 C   0  0  0  0  0  0  0  0  0  0  0  0
  -25.6790  -11.9260   20.9080 C   0  0  0  0  0  0  0  0  0  0  0  0
  -27.5950  -12.7860   20.4840 N   0  0  0  0  0  0  0  0  0  0  0  0
  -26.9630  -11.6230   20.7840 N   0  0  0  0  0  0  0  0  0  0  0  0
  -24.7120  -10.8400   21.0840 C   0  0  0  0  0  0  0  0  0  0  0  0
  -24.9160   -9.8130   22.0330 C   0  0  0  0  0  3  0  0  0  0  0  0
  -23.9590   -8.7890   22.1950 C   0  0  0  0  0  3  0  0  0  0  0  0
  -22.7830   -8.7860   21.4060 C   0  0  0  0  0  0  0  0  0  0  0  0
  -22.5960   -9.7970   20.4470 C   0  0  0  0  0  3  0  0  0  0  0  0
  -23.5530  -10.8120   20.2840 C   0  0  0  0  0  3  0  0  0  0  0  0
  -21.8120   -7.8170   21.4770 O   0  0  0  0  0  0  0  0  0  0  0  0
  -21.6460   -7.0460   22.5980 C   0  0  0  0  0  0  0  0  0  0  0  0
  -21.3740   -7.6160   23.8610 C   0  0  0  0  0  3  0  0  0  0  0  0
  -21.1380   -6.7830   24.9730 C   0  0  0  0  0  3  0  0  0  0  0  0
  -21.1670   -5.3830   24.8230 C   0  0  0  0  0  0  0  0  0  0  0  0
  -21.4320   -4.8140   23.5660 C   0  0  0  0  0  3  0  0  0  0  0  0
  -21.6650   -5.6440   22.4550 C   0  0  0  0  0  0  0  0  0  0  0  0
  -21.8990   -5.0890   21.2410 F   0  0  0  0  0  0  0  0  0  0  0  0
  -20.9310   -4.5830   25.8890 F   0  0  0  0  0  0  0  0  0  0  0  0
  -24.1860  -14.0820   20.8160 C   0  0  0  0  0  0  0  0  0  0  0  0
  -23.2600  -13.6510   21.6650 N   0  0  0  0  0  0  0  0  0  0  0  0
  -23.9990  -15.0870   20.1290 O   0  0  0  0  0  0  0  0  0  0  0  0
  -23.4200  -12.8360   22.2400 H   0  0  0  0  0  0  0  0  0  0  0  0
  -22.3850  -14.1480   21.7450 H   0  0  0  0  0  0  0  0  0  0  0  0
  -27.1680  -15.1570   20.2410 N   0  0  0  0  0  0  0  0  0  0  0  0
  -26.5270  -15.9380   20.1670 H   0  0  0  0  0  0  0  0  0  0  0  0
  -28.1210  -15.4110   20.0060 H   0  0  0  0  0  0  0  0  0  0  0  0
  -31.1420  -16.7570   18.8750 C   0  0  0  0  0  0  0  0  0  0  0  0
  -31.9170  -17.5600   18.1350 N   0  0  0  0  0  0  0  0  0  0  0  0
  -30.0830  -16.2860   18.4440 O   0  0  0  0  0  0  0  0  0  0  0  0
  -32.8060  -17.8450   18.5240 H   0  0  0  0  0  0  0  0  0  0  0  0
  -31.5870  -18.0740   16.8120 C   0  0  0  0  0  2  0  0  0  0  0  0
  -32.8660  -18.2460   15.9780 C   0  0  0  0  0  2  0  0  0  0  0  0
  -32.5640  -18.7100   14.5440 C   0  0  0  0  0  2  0  0  0  0  0  0
  -33.6900  -18.6130   13.6810 O   0  0  0  0  0  0  0  0  0  0  0  0
  -34.7690  -19.4840   14.0020 C   0  0  0  0  0  2  0  0  0  0  0  0
  -35.5380  -19.8170   12.7160 C   0  0  0  0  0  2  0  0  0  0  0  0
  -34.8840  -20.8920   12.0550 O   0  0  0  0  0  0  0  0  0  0  0  0
  -35.4570  -21.2060   10.7920 C   0  0  0  0  0  2  0  0  0  0  0  0
  -34.8430  -22.5250   10.3010 C   0  0  0  0  0  2  0  0  0  0  0  0
  -35.4850  -23.0830    9.0170 C   0  0  0  0  0  2  0  0  0  0  0  0
  -34.9280  -24.4760    8.6660 C   0  0  0  0  0  2  0  0  0  0  0  0
  -35.5580  -25.1340    7.4230 C   0  0  0  0  0  2  0  0  0  0  0  0
  -36.9550  -25.5520    7.6370 N   0  0  0  0  0  4  0  0  0  0  0  0
  -37.0230  -26.2130    8.3900 H   0  0  0  0  0  0  0  0  0  0  0  0
  -37.3070  -25.9950    6.8070 H   0  0  0  0  0  0  0  0  0  0  0  0
  -37.5440  -24.7650    7.8380 H   0  0  0  0  0  0  0  0  0  0  0  0
  -30.7020  -19.5260   22.3770 C   0  0  0  0  0  2  0  0  0  0  0  0
  -29.7550  -20.3490   21.4680 C   0  0  0  0  0  2  0  0  0  0  0  0
  -30.3140  -21.6310   21.2140 O   0  0  0  0  0  0  0  0  0  0  0  0
  -30.0940  -22.5830   22.2480 C   0  0  0  0  0  2  0  0  0  0  0  0
  -30.2930  -23.9890   21.6680 C   0  0  0  0  0  2  0  0  0  0  0  0
  -29.0400  -24.5910   21.3520 O   0  0  0  0  0  0  0  0  0  0  0  0
  -29.1550  -25.7930   20.5960 C   0  0  0  0  0  2  0  0  0  0  0  0
  -28.6730  -25.6250   19.1400 C   0  0  0  0  0  2  0  0  0  0  0  0
  -27.3030  -25.9760   18.9890 O   0  0  0  0  0  0  0  0  0  0  0  0
  -26.3660  -24.8960   19.0420 C   0  0  0  0  0  2  0  0  0  0  0  0
  -26.2670  -24.1300   17.7020 C   0  0  0  0  0  2  0  0  0  0  0  0
  -26.4600  -25.0290   16.6090 O   0  0  0  0  0  0  0  0  0  0  0  0
  -25.3080  -25.3170   15.8200 C   0  0  0  0  0  2  0  0  0  0  0  0
  -24.2440  -26.1310   16.5720 C   0  0  0  0  0  2  0  0  0  0  0  0
  -24.8590  -27.2400   17.2140 O   0  0  0  0  0  0  0  0  0  0  0  0
  -23.9130  -28.1840   17.6970 C   0  0  0  0  0  2  0  0  0  0  0  0
  -24.4420  -28.8500   18.9800 C   0  0  0  0  0  2  0  0  0  0  0  0
  -23.3400  -28.9480   19.8680 O   0  0  0  0  0  0  0  0  0  0  0  0
  -27.5080  -31.3090   25.2290 C   0  0  0  0  0  0  0  0  0  0  0  0
  -23.5120  -29.4630   21.1320 C   0  0  0  0  0  0  0  0  0  0  0  0
  -25.1260  -30.9100   25.7610 C   0  0  0  0  0  3  0  0  0  0  0  0
  -23.6020  -30.4910   23.7610 C   0  0  0  0  0  0  0  0  0  0  0  0
  -25.8490  -31.5220   23.3880 C   0  0  0  0  0  2  0  0  0  0  0  0
  -24.6690  -30.7190   22.8820 C   0  0  0  0  0  0  0  0  0  0  0  0
  -24.6340  -30.2070   21.5660 C   0  0  0  0  0  3  0  0  0  0  0  0
  -22.4550  -29.2300   22.0340 C   0  0  0  0  0  3  0  0  0  0  0  0
  -22.4940  -29.7350   23.3450 C   0  0  0  0  0  3  0  0  0  0  0  0
  -23.7140  -31.0890   25.1460 C   0  0  0  0  0  2  0  0  0  0  0  0
  -26.2210  -31.2270   24.7900 N   0  0  0  0  0  0  0  0  0  0  0  0
  -27.7860  -31.1640   26.4270 O   0  0  0  0  0  0  0  0  0  0  0  0
  -25.2270  -29.4860   26.3540 C   0  0  0  0  0  0  0  0  0  0  0  0
  -25.2160  -29.3930   27.6940 N   0  0  0  0  0  0  0  0  0  0  0  0
  -25.2810  -28.4980   25.6150 O   0  0  0  0  0  0  0  0  0  0  0  0
  -25.1760  -30.2520   28.2280 H   0  0  0  0  0  0  0  0  0  0  0  0
  -25.9850  -28.0280   30.9470 C   0  0  0  0  0  0  0  0  0  0  0  0
  -25.2680  -28.1540   28.4690 C   0  0  0  0  0  3  0  0  0  0  0  0
  -23.8600  -27.7490   28.9600 C   0  0  0  0  0  2  0  0  0  0  0  0
  -23.5340  -28.2790   30.3590 C   0  0  0  0  0  2  0  0  0  0  0  0
  -24.5530  -27.7580   31.3790 C   0  0  0  0  0  2  0  0  0  0  0  0
  -26.3180  -28.2300   29.5820 C   0  0  0  0  0  0  0  0  0  0  0  0
  -27.6560  -28.5110   29.2360 C   0  0  0  0  0  3  0  0  0  0  0  0
  -28.6530  -28.5960   30.2260 C   0  0  0  0  0  3  0  0  0  0  0  0
  -28.3230  -28.3780   31.5730 C   0  0  0  0  0  3  0  0  0  0  0  0
  -26.9940  -28.0900   31.9330 C   0  0  0  0  0  3  0  0  0  0  0  0
  -28.6850  -31.6100   24.2500 C   0  0  0  0  0  3  0  0  0  0  0  0
  -29.5220  -30.3270   23.8720 C   0  0  1  0  0  0  0  0  0  0  0  0
  -30.0780  -29.5690   25.0980 C   0  0  0  0  0  1  0  0  0  0  0  0
  -28.6680  -29.3330   23.0500 C   0  0  0  0  0  1  0  0  0  0  0  0
  -30.7200  -30.7240   22.9760 C   0  0  0  0  0  1  0  0  0  0  0  0
  -29.5410  -32.6210   24.8840 N   0  0  0  0  0  0  0  0  0  0  0  0
  -29.3660  -33.9450   24.7680 C   0  0  0  0  0  0  0  0  0  0  0  0
  -28.5030  -34.4460   24.0420 O   0  0  0  0  0  0  0  0  0  0  0  0
  -30.2330  -32.2840   25.5370 H   0  0  0  0  0  0  0  0  0  0  0  0
  -29.5910  -35.2940   26.8760 C   0  0  0  0  0  1  0  0  0  0  0  0
  -30.2990  -34.8570   25.5850 C   0  0  0  0  0  3  0  0  0  0  0  0
  -31.6860  -35.7310   23.7550 C   0  0  0  0  0  1  0  0  0  0  0  0
  -30.7570  -36.0490   24.8360 N   0  0  0  0  0  0  0  0  0  0  0  0
  -31.2160  -36.7100   25.4590 H   0  0  0  0  0  0  0  0  0  0  0  0
  1  2  1  0
  1  3  2  0
  2 64  1  0
  4  2  1  0
  5 44  1  0
  5 14  1  0
  5  1  1  0
  6 12  1  0
  7 12  1  0
  8  9  1  0
  8  7  1  0
 10  9  1  0
 10 19  1  0
 10 11  1  0
 12 11  1  0
 13  6  2  0
 14  6  1  0
 14 15  1  0
 16 17  2  0
 17 36  1  0
 17 18  1  0
 18 21  1  0
 19 16  1  0
 19 20  1  0
 20 18  2  0
 21 22  1  0
 22 23  2  0
 24 27  1  0
 24 23  1  0
 25 24  2  0
 26 25  1  0
 26 21  2  0
 27 28  1  0
 28 29  1  0
 29 30  2  0
 31 30  1  0
 31 35  1  0
 32 31  2  0
 33 28  2  0
 33 32  1  0
 34 33  1  0
 36 37  1  0
 37 40  1  0
 37 39  1  0
 38 36  2  0
 41 16  1  0
 42 41  1  0
 43 41  1  0
 45 47  1  0
 45 44  1  0
 46 44  2  0
 48 45  1  0
 49 48  1  0
 50 49  1  0
 51 52  1  0
 51 50  1  0
 53 52  1  0
 54 53  1  0
 55 54  1  0
 56 55  1  0
 57 56  1  0
 58 57  1  0
 59 60  1  0
 59 58  1  0
 60 63  1  0
 60 61  1  0
 62 60  1  0
 65 64  1  0
 66 65  1  0
 66 67  1  0
 68 67  1  0
 69 68  1  0
 70 69  1  0
 71 70  1  0
 72 73  1  0
 72 71  1  0
 74 73  1  0
 75 74  1  0
 76 77  1  0
 76 75  1  0
 77 78  1  0
 78 79  1  0
 79 80  1  0
 80 81  1  0
 81 83  1  0
 82 93  2  0
 83 88  2  0
 83 89  1  0
 84 94  1  0
 85 91  1  0
 86 92  1  0
 87 86  1  0
 87 85  2  0
 88 87  1  0
 89 90  2  0
 90 85  1  0
 91 84  1  0
 92 82  1  0
 92 84  1  0
 94 95  1  0
 95 97  1  0
 96 94  2  0
 98102  1  0
 98107  1  0
 99 95  1  0
 99100  1  0
 99103  1  0
100101  1  0
101102  1  0
103 98  2  0
104103  1  0
104105  2  0
105106  1  0
106107  2  0
108113  1  0
108 82  1  0
109108  1  0
109110  1  1
111109  1  0
112109  1  0
113116  1  0
114113  1  0
114118  1  0
115114  2  0
118117  1  0
119120  1  0
120121  1  0
120118  1  0
M  ISO  4   6 100  14 100  80 101  81 101
M  END
>  <TORSDO>  (10) 
F 48

>  <SCORE>  (10) 
-6.086

>  <name>  (10) 
9

>  <ligand_id>  (10) 
9

>  <original_smiles>  (10) 
[H]c1c([H])c([H])c2c(c1[H])C([H])([H])C([H])([H])C([H])([H])C2([H])N([H])C(=O)C1([H])N(C(=O)C([H])(N([H])C(=O)C([H])(N([H])C([H])([H])[H])C([H])([H])[H])C(C([H])([H])[H])(C([H])([H])[H])C([H])([H])[H])C([H])([H])c2c([H])c(OC([H])([H])C([H])([H])OC([H])([H])C([H])([H])OC([H])([H])C([H])([H])OC([H])([H])C([H])([H])OC([H])([H])C([H])([H])OC([H])([H])C([H])([H])N([H])C(=O)C([H])(C(=O)N([H])C([H])([H])C([H])([H])C([H])([H])OC([H])([H])C([H])([H])OC([H])([H])C([H])([H])C([H])([H])C([H])([H])C([H])([H])[N+]([H])([H])[H])N([H])C(=O)N3C([H])([H])C([H])([H])C([H])([H])C([H])(n4nc(-c5c([H])c([H])c(Oc6c([H])c([H])c(F)c([H])c6F)c([H])c5[H])c(C(=O)N([H])[H])c4N([H])[H])C3([H])[H])c([H])c([H])c2C1([H])[H]

>  <smiles>  (10) 
[H]c1c([H])c([H])c2c(c1[H])C([H])([H])C([H])([H])C([H])([H])C2([H])N([H])C(=O)C1([H])N(C(=O)C([H])(N([H])C(=O)C([H])(N([H])C([H])([H])[H])C([H])([H])[H])C(C([H])([H])[H])(C([H])([H])[H])C([H])([H])[H])C([H])([H])c2c([H])c(OC([H])([H])C([H])([H])OC([H])([H])C([H])([H])OC([H])([H])C([H])([H])OC([H])([H])C([H])([H])OC([H])([H])C([H])([H])OC([H])([H])C([H])([H])N([H])C(=O)C([H])(C(=O)N([H])C([H])([H])C([H])([H])C([H])([H])OC([H])([H])C([H])([H])OC([H])([H])C([H])([H])C([H])([H])C([H])([H])C([H])([H])[N+]([H])([H])[H])N([H])C(=O)N3C([H])([H])C([H])([H])C([H])([H])C([H])(n4nc(-c5c([H])c([H])c(Oc6c([H])c([H])c(F)c([H])c6F)c([H])c5[H])c(C(=O)N([H])[H])c4N([H])[H])C3([H])[H])c([H])c([H])c2C1([H])[H]

$$$$
10:0:0
     RDKit          3D

 99106  0  0  1  0  0  0  0  0999 V2000
  -30.1710  -26.1150   23.7940 O   0  0  0  0  0  0  0  0  0  0  0  0
  -29.2610  -26.0660   24.8910 C   0  0  0  0  0  2  0  0  0  0  0  0
  -27.8090  -26.0160   24.3840 C   0  0  0  0  0  2  0  0  0  0  0  0
  -27.5250  -24.8070   23.4720 C   0  0  0  0  0  2  0  0  0  0  0  0
  -27.7530  -24.6270   20.9950 C   0  0  0  0  0  0  0  0  0  0  0  0
  -28.1890  -25.0130   22.1940 N   0  0  0  0  0  0  0  0  0  0  0  0
  -26.8520  -23.8010   20.8400 O   0  0  0  0  0  0  0  0  0  0  0  0
  -28.9830  -25.6460   22.2080 H   0  0  0  0  0  0  0  0  0  0  0  0
  -28.3910  -25.3510   19.7990 C   0  0  0  0  0  2  0  0  0  0  0  0
  -28.4190  -26.7650   20.0410 O   0  0  0  0  0  0  0  0  0  0  0  0
  -24.6140  -31.8690   23.2150 C   0  0  0  0  0  0  0  0  0  0  0  0
  -27.2260  -27.4610   20.0570 C   0  0  0  0  0  0  0  0  0  0  0  0
  -23.3970  -30.4990   21.5570 C   0  0  0  0  0  3  0  0  0  0  0  0
  -24.8360  -28.9690   20.1160 C   0  0  0  0  0  0  0  0  0  0  0  0
  -25.9250  -30.8380   21.3670 C   0  0  0  0  0  2  0  0  0  0  0  0
  -25.9970  -29.4760   20.7090 C   0  0  0  0  0  0  0  0  0  0  0  0
  -27.1960  -28.7270   20.6800 C   0  0  0  0  0  3  0  0  0  0  0  0
  -26.0380  -26.9630   19.4670 C   0  0  0  0  0  3  0  0  0  0  0  0
  -24.8480  -27.7090   19.5000 C   0  0  0  0  0  3  0  0  0  0  0  0
  -23.6020  -29.8390   20.1690 C   0  0  0  0  0  2  0  0  0  0  0  0
  -24.6630  -31.0830   22.1040 N   0  0  0  0  0  0  0  0  0  0  0  0
  -23.5350  -32.1440   23.7560 O   0  0  0  0  0  0  0  0  0  0  0  0
  -22.7370  -29.4680   22.5010 C   0  0  0  0  0  0  0  0  0  0  0  0
  -21.4110  -29.3060   22.3750 N   0  0  0  0  0  0  0  0  0  0  0  0
  -23.4150  -28.8220   23.3040 O   0  0  0  0  0  0  0  0  0  0  0  0
  -20.9230  -29.8800   21.7020 H   0  0  0  0  0  0  0  0  0  0  0  0
  -18.0260  -28.1360   22.8490 C   0  0  0  0  0  0  0  0  0  0  0  0
  -20.5860  -28.3650   23.1320 C   0  0  0  0  0  3  0  0  0  0  0  0
  -20.6790  -26.9390   22.5400 C   0  0  0  0  0  2  0  0  0  0  0  0
  -19.5770  -26.6370   21.5210 C   0  0  0  0  0  2  0  0  0  0  0  0
  -18.1940  -26.7920   22.1610 C   0  0  0  0  0  2  0  0  0  0  0  0
  -19.1510  -28.8820   23.2920 C   0  0  0  0  0  0  0  0  0  0  0  0
  -18.9450  -30.1430   23.8920 C   0  0  0  0  0  3  0  0  0  0  0  0
  -17.6450  -30.6590   24.0570 C   0  0  0  0  0  3  0  0  0  0  0  0
  -16.5350  -29.9070   23.6350 C   0  0  0  0  0  3  0  0  0  0  0  0
  -16.7250  -28.6490   23.0360 C   0  0  0  0  0  3  0  0  0  0  0  0
  -25.9060  -32.4820   23.8410 C   0  0  0  0  0  3  0  0  0  0  0  0
  -26.4490  -31.6580   25.0720 C   0  0  1  0  0  0  0  0  0  0  0  0
  -25.3760  -31.3660   26.1470 C   0  0  0  0  0  1  0  0  0  0  0  0
  -27.0320  -30.3020   24.6050 C   0  0  0  0  0  1  0  0  0  0  0  0
  -27.6080  -32.4270   25.7480 C   0  0  0  0  0  1  0  0  0  0  0  0
  -25.5940  -33.8620   24.2340 N   0  0  0  0  0  0  0  0  0  0  0  0
  -25.9040  -34.9470   23.5120 C   0  0  0  0  0  0  0  0  0  0  0  0
  -26.5570  -34.8920   22.4660 O   0  0  0  0  0  0  0  0  0  0  0  0
  -25.0240  -33.9810   25.0580 H   0  0  0  0  0  0  0  0  0  0  0  0
  -24.1490  -36.7320   23.2630 C   0  0  0  0  0  1  0  0  0  0  0  0
  -25.4100  -36.3110   24.0330 C   0  0  0  0  0  3  0  0  0  0  0  0
  -27.5580  -37.1810   24.8460 C   0  0  0  0  0  1  0  0  0  0  0  0
  -26.4290  -37.3800   23.9400 N   0  0  0  0  0  0  0  0  0  0  0  0
  -26.0190  -38.2880   24.1410 H   0  0  0  0  0  0  0  0  0  0  0  0
  -31.5000  -25.7760   24.1650 C   0  0  0  0  0  2  0  0  0  0  0  0
  -32.3640  -25.5780   22.9140 C   0  0  0  0  0  2  0  0  0  0  0  0
  -31.8680  -24.4670   22.1740 O   0  0  0  0  0  0  0  0  0  0  0  0
  -32.7830  -24.0000   21.1910 C   0  0  0  0  0  2  0  0  0  0  0  0
  -32.0430  -23.1370   20.1580 C   0  0  0  0  0  2  0  0  0  0  0  0
  -31.6600  -21.8730   20.6940 O   0  0  0  0  0  0  0  0  0  0  0  0
  -30.6910  -21.2080   19.8810 C   0  0  0  0  0  2  0  0  0  0  0  0
  -31.0590  -19.7320   19.6580 C   0  0  0  0  0  2  0  0  0  0  0  0
  -30.7180  -18.9100   20.7720 O   0  0  0  0  0  0  0  0  0  0  0  0
  -30.7230  -17.5260   20.4340 C   0  0  0  0  0  2  0  0  0  0  0  0
  -30.6260  -16.6560   21.7050 C   0  0  0  0  0  2  0  0  0  0  0  0
  -30.7440  -14.3920   20.6370 C   0  0  0  0  0  0  0  0  0  0  0  0
  -30.4180  -12.2840   19.4010 C   0  0  0  0  0  2  0  0  0  0  0  0
  -29.4870  -12.5090   18.1940 C   0  0  0  0  0  2  0  0  0  0  0  0
  -28.0100  -12.3680   18.6110 C   0  0  0  0  0  2  0  0  0  0  0  0
  -27.6640  -13.2000   19.8750 C   0  0  0  0  0  3  0  0  0  0  0  0
  -28.7040  -12.9450   20.9900 C   0  0  0  0  0  2  0  0  0  0  0  0
  -30.0430  -13.2430   20.4500 N   0  0  0  0  0  0  0  0  0  0  0  0
  -31.8110  -14.6360   20.0750 O   0  0  0  0  0  0  0  0  0  0  0  0
  -30.1630  -15.2910   21.4390 N   0  0  0  0  0  0  0  0  0  0  0  0
  -29.2950  -15.0080   21.8700 H   0  0  0  0  0  0  0  0  0  0  0  0
  -25.2600  -13.8140   20.5670 C   0  0  0  0  0  0  0  0  0  0  0  0
  -24.1850  -13.0410   20.9180 C   0  0  0  0  0  0  0  0  0  0  0  0
  -24.6400  -11.6890   20.8730 C   0  0  0  0  0  0  0  0  0  0  0  0
  -26.3020  -12.9300   20.3360 N   0  0  0  0  0  0  0  0  0  0  0  0
  -25.9310  -11.6460   20.5760 N   0  0  0  0  0  0  0  0  0  0  0  0
  -23.9070  -10.4270   21.0410 C   0  0  0  0  0  0  0  0  0  0  0  0
  -24.3620   -9.4200   21.9190 C   0  0  0  0  0  3  0  0  0  0  0  0
  -23.6290   -8.2240   22.0750 C   0  0  0  0  0  3  0  0  0  0  0  0
  -22.4270   -8.0270   21.3550 C   0  0  0  0  0  0  0  0  0  0  0  0
  -21.9910   -9.0240   20.4650 C   0  0  0  0  0  3  0  0  0  0  0  0
  -22.7240  -10.2120   20.3060 C   0  0  0  0  0  3  0  0  0  0  0  0
  -21.6640   -6.8870   21.4240 O   0  0  0  0  0  0  0  0  0  0  0  0
  -21.6860   -6.0740   22.5280 C   0  0  0  0  0  0  0  0  0  0  0  0
  -21.4010   -6.5640   23.8210 C   0  0  0  0  0  3  0  0  0  0  0  0
  -21.3660   -5.6800   24.9180 C   0  0  0  0  0  3  0  0  0  0  0  0
  -21.6050   -4.3060   24.7240 C   0  0  0  0  0  0  0  0  0  0  0  0
  -21.8820   -3.8150   23.4360 C   0  0  0  0  0  3  0  0  0  0  0  0
  -21.9190   -4.6960   22.3420 C   0  0  0  0  0  0  0  0  0  0  0  0
  -22.1660   -4.2160   21.0990 F   0  0  0  0  0  0  0  0  0  0  0  0
  -21.5630   -3.4540   25.7760 F   0  0  0  0  0  0  0  0  0  0  0  0
  -22.7880  -13.5230   21.1840 C   0  0  0  0  0  0  0  0  0  0  0  0
  -22.0520  -12.8230   22.0410 N   0  0  0  0  0  0  0  0  0  0  0  0
  -22.3570  -14.5520   20.6680 O   0  0  0  0  0  0  0  0  0  0  0  0
  -22.4150  -11.9880   22.4770 H   0  0  0  0  0  0  0  0  0  0  0  0
  -21.1120  -13.1230   22.2570 H   0  0  0  0  0  0  0  0  0  0  0  0
  -25.4340  -15.1860   20.4040 N   0  0  0  0  0  0  0  0  0  0  0  0
  -24.6730  -15.8470   20.5110 H   0  0  0  0  0  0  0  0  0  0  0  0
  -26.2940  -15.6230   20.0940 H   0  0  0  0  0  0  0  0  0  0  0  0
  1 51  1  0
  1  2  1  0
  3  2  1  0
  4  3  1  0
  5  6  1  0
  6  8  1  0
  6  4  1  0
  7  5  2  0
  9 10  1  0
  9  5  1  0
 10 12  1  0
 11 22  2  0
 12 17  1  0
 13 21  1  0
 13 23  1  0
 14 20  1  0
 14 16  1  0
 15 21  1  0
 16 15  1  0
 17 16  2  0
 18 19  1  0
 18 12  2  0
 19 14  2  0
 20 13  1  0
 21 11  1  0
 23 25  2  0
 24 23  1  0
 26 24  1  0
 27 36  2  0
 27 32  1  0
 28 24  1  0
 28 32  1  0
 29 28  1  0
 30 31  1  0
 30 29  1  0
 31 27  1  0
 32 33  2  0
 33 34  1  0
 35 34  2  0
 36 35  1  0
 37 11  1  0
 37 42  1  0
 37 38  1  0
 38 41  1  1
 38 39  1  0
 40 38  1  0
 42 45  1  0
 43 47  1  0
 43 42  1  0
 44 43  2  0
 47 46  1  0
 49 47  1  0
 49 50  1  0
 49 48  1  0
 52 51  1  0
 53 52  1  0
 54 53  1  0
 55 56  1  0
 55 54  1  0
 57 56  1  0
 58 57  1  0
 58 59  1  0
 60 59  1  0
 60 61  1  0
 62 70  1  0
 63 68  1  0
 64 65  1  0
 64 63  1  0
 66 65  1  0
 66 75  1  0
 66 67  1  0
 68 62  1  0
 68 67  1  0
 69 62  2  0
 70 61  1  0
 70 71  1  0
 72 73  2  0
 73 92  1  0
 74 73  1  0
 74 77  1  0
 75 72  1  0
 75 76  1  0
 76 74  2  0
 77 78  1  0
 78 79  2  0
 80 83  1  0
 80 79  1  0
 81 80  2  0
 82 81  1  0
 82 77  2  0
 83 84  1  0
 84 85  1  0
 85 86  2  0
 87 86  1  0
 87 91  1  0
 88 87  2  0
 89 84  2  0
 89 88  1  0
 90 89  1  0
 92 93  1  0
 93 96  1  0
 93 95  1  0
 94 92  2  0
 97 98  1  0
 97 72  1  0
 99 97  1  0
M  ISO  4   9 101  10 101  62 100  70 100
M  END
>  <TORSDO>  (11) 
F 32

>  <SCORE>  (11) 
-1.516

>  <name>  (11) 
10

>  <ligand_id>  (11) 
10

>  <original_smiles>  (11) 
[H]c1c([H])c([H])c2c(c1[H])C([H])([H])C([H])([H])C([H])([H])C2([H])N([H])C(=O)C1([H])N(C(=O)C([H])(N([H])C(=O)C([H])(N([H])C([H])([H])[H])C([H])([H])[H])C(C([H])([H])[H])(C([H])([H])[H])C([H])([H])[H])C([H])([H])c2c([H])c(OC([H])([H])C(=O)N([H])C([H])([H])C([H])([H])C([H])([H])OC([H])([H])C([H])([H])OC([H])([H])C([H])([H])OC([H])([H])C([H])([H])OC([H])([H])C([H])([H])N([H])C(=O)N3C([H])([H])C([H])([H])C([H])([H])C([H])(n4nc(-c5c([H])c([H])c(Oc6c([H])c([H])c(F)c([H])c6F)c([H])c5[H])c(C(=O)N([H])[H])c4N([H])[H])C3([H])[H])c([H])c([H])c2C1([H])[H]

>  <smiles>  (11) 
[H]c1c([H])c([H])c2c(c1[H])C([H])([H])C([H])([H])C([H])([H])C2([H])N([H])C(=O)C1([H])N(C(=O)C([H])(N([H])C(=O)C([H])(N([H])C([H])([H])[H])C([H])([H])[H])C(C([H])([H])[H])(C([H])([H])[H])C([H])([H])[H])C([H])([H])c2c([H])c(OC([H])([H])C(=O)N([H])C([H])([H])C([H])([H])C([H])([H])OC([H])([H])C([H])([H])OC([H])([H])C([H])([H])OC([H])([H])C([H])([H])OC([H])([H])C([H])([H])N([H])C(=O)N3C([H])([H])C([H])([H])C([H])([H])C([H])(n4nc(-c5c([H])c([H])c(Oc6c([H])c([H])c(F)c([H])c6F)c([H])c5[H])c(C(=O)N([H])[H])c4N([H])[H])C3([H])[H])c([H])c([H])c2C1([H])[H]

$$$$
11:0:0
     RDKit          3D

115122  0  0  1  0  0  0  0  0999 V2000
  -25.6750  -20.9140   19.4900 C   0  0  0  0  0  0  0  0  0  0  0  0
  -25.4260  -22.0360   18.8130 N   0  0  0  0  0  0  0  0  0  0  0  0
  -24.8140  -20.3330   20.1540 O   0  0  0  0  0  0  0  0  0  0  0  0
  -26.1800  -22.4430   18.2770 H   0  0  0  0  0  0  0  0  0  0  0  0
  -27.0450  -20.4790   19.3190 C   0  0  0  0  0  3  0  0  0  0  0  0
  -27.4890  -19.3690   19.9420 C   0  0  0  0  0  3  0  0  0  0  0  0
  -28.8540  -18.9230   19.7560 C   0  0  0  0  0  0  0  0  0  0  0  0
  -29.1240  -17.8480   20.5050 N   0  0  0  0  0  0  0  0  0  0  0  0
  -29.6830  -19.4500   19.0090 O   0  0  0  0  0  0  0  0  0  0  0  0
  -28.3790  -17.4820   21.0810 H   0  0  0  0  0  0  0  0  0  0  0  0
  -30.4330  -17.2140   20.6340 C   0  0  0  0  0  2  0  0  0  0  0  0
  -31.2020  -17.8110   21.8230 C   0  0  0  0  0  2  0  0  0  0  0  0
  -31.5000  -19.1700   21.5360 O   0  0  0  0  0  0  0  0  0  0  0  0
  -32.0500  -19.8820   22.6340 C   0  0  0  0  0  2  0  0  0  0  0  0
  -32.4220  -21.2880   22.1470 C   0  0  0  0  0  2  0  0  0  0  0  0
  -31.2350  -22.0400   21.9400 O   0  0  0  0  0  0  0  0  0  0  0  0
  -31.4830  -23.2900   21.3120 C   0  0  0  0  0  2  0  0  0  0  0  0
  -30.1780  -24.0910   21.2390 C   0  0  0  0  0  2  0  0  0  0  0  0
  -29.8680  -24.5980   22.5360 O   0  0  0  0  0  0  0  0  0  0  0  0
  -25.8320  -28.4840   26.9110 C   0  0  0  0  0  0  0  0  0  0  0  0
  -28.9360  -25.6090   22.6330 C   0  0  0  0  0  0  0  0  0  0  0  0
  -25.4010  -28.7990   24.4960 C   0  0  0  0  0  3  0  0  0  0  0  0
  -27.1040  -27.7460   22.9210 C   0  0  0  0  0  0  0  0  0  0  0  0
  -27.7080  -28.0690   25.3240 C   0  0  0  0  0  2  0  0  0  0  0  0
  -27.8780  -27.3340   24.0130 C   0  0  0  0  0  0  0  0  0  0  0  0
  -28.7910  -26.2660   23.8730 C   0  0  0  0  0  3  0  0  0  0  0  0
  -28.1320  -26.0240   21.5430 C   0  0  0  0  0  3  0  0  0  0  0  0
  -27.2230  -27.0890   21.6850 C   0  0  0  0  0  3  0  0  0  0  0  0
  -26.1580  -28.9050   23.1470 C   0  0  0  0  0  2  0  0  0  0  0  0
  -26.3020  -28.4240   25.6340 N   0  0  0  0  0  0  0  0  0  0  0  0
  -24.6840  -28.8850   27.1530 O   0  0  0  0  0  0  0  0  0  0  0  0
  -24.2080  -27.8340   24.3160 C   0  0  0  0  0  0  0  0  0  0  0  0
  -23.1220  -28.3350   23.7080 N   0  0  0  0  0  0  0  0  0  0  0  0
  -24.2800  -26.6610   24.6930 O   0  0  0  0  0  0  0  0  0  0  0  0
  -23.1400  -29.3070   23.4320 H   0  0  0  0  0  0  0  0  0  0  0  0
  -19.8380  -28.6480   22.2440 C   0  0  0  0  0  0  0  0  0  0  0  0
  -21.8970  -27.6010   23.4000 C   0  0  0  0  0  3  0  0  0  0  0  0
  -22.0620  -26.7560   22.1160 C   0  0  0  0  0  2  0  0  0  0  0  0
  -21.6020  -27.4860   20.8500 C   0  0  0  0  0  2  0  0  0  0  0  0
  -20.1280  -27.8820   20.9630 C   0  0  0  0  0  2  0  0  0  0  0  0
  -20.6770  -28.5290   23.3820 C   0  0  0  0  0  0  0  0  0  0  0  0
  -20.3850  -29.2920   24.5320 C   0  0  0  0  0  3  0  0  0  0  0  0
  -19.2760  -30.1570   24.5590 C   0  0  0  0  0  3  0  0  0  0  0  0
  -18.4390  -30.2610   23.4350 C   0  0  0  0  0  3  0  0  0  0  0  0
  -18.7180  -29.5060   22.2830 C   0  0  0  0  0  3  0  0  0  0  0  0
  -26.7170  -28.0770   28.1310 C   0  0  0  0  0  3  0  0  0  0  0  0
  -26.4620  -29.0480   29.2020 N   0  0  0  0  0  0  0  0  0  0  0  0
  -27.2510  -30.0920   29.4850 C   0  0  0  0  0  0  0  0  0  0  0  0
  -28.3210  -30.3000   28.9080 O   0  0  0  0  0  0  0  0  0  0  0  0
  -25.5730  -28.9750   29.6730 H   0  0  0  0  0  0  0  0  0  0  0  0
  -26.1410  -32.3070   29.9370 C   0  0  0  0  0  1  0  0  0  0  0  0
  -26.7750  -31.0640   30.5840 C   0  0  0  0  0  3  0  0  0  0  0  0
  -28.3380  -30.3940   32.3550 C   0  0  0  0  0  1  0  0  0  0  0  0
  -27.8520  -31.4800   31.5070 N   0  0  0  0  0  0  0  0  0  0  0  0
  -27.5390  -32.2380   32.1090 H   0  0  0  0  0  0  0  0  0  0  0  0
  -26.4480  -26.6050   28.6320 C   0  0  1  0  0  0  0  0  0  0  0  0
  -24.9550  -26.3030   28.8990 C   0  0  0  0  0  1  0  0  0  0  0  0
  -26.9640  -25.5740   27.6010 C   0  0  0  0  0  1  0  0  0  0  0  0
  -27.2280  -26.3490   29.9430 C   0  0  0  0  0  1  0  0  0  0  0  0
  -24.1150  -22.6560   18.6650 C   0  0  0  0  0  2  0  0  0  0  0  0
  -23.7580  -22.8070   17.1810 C   0  0  0  0  0  2  0  0  0  0  0  0
  -24.6910  -23.6840   16.5600 O   0  0  0  0  0  0  0  0  0  0  0  0
  -24.2610  -24.0950   15.2700 C   0  0  0  0  0  2  0  0  0  0  0  0
  -25.2430  -25.1230   14.6960 C   0  0  0  0  0  2  0  0  0  0  0  0
  -26.5270  -24.4940   14.1310 C   0  0  0  0  0  2  0  0  0  0  0  0
  -27.6500  -25.5260   13.9150 C   0  0  0  0  0  2  0  0  0  0  0  0
  -28.7020  -25.0690   12.8930 C   0  0  0  0  0  2  0  0  0  0  0  0
  -29.0450  -23.7180   13.1600 O   0  0  0  0  0  0  0  0  0  0  0  0
  -29.7190  -23.0700   12.0870 C   0  0  0  0  0  2  0  0  0  0  0  0
  -29.6240  -21.5600   12.3410 C   0  0  0  0  0  2  0  0  0  0  0  0
  -29.9160  -20.6580   11.1300 C   0  0  0  0  0  2  0  0  0  0  0  0
  -28.9520  -20.8510   10.0940 O   0  0  0  0  0  0  0  0  0  0  0  0
  -28.7120  -19.6510    9.3610 C   0  0  0  0  0  2  0  0  0  0  0  0
  -27.7690  -19.8660    8.1660 C   0  0  0  0  0  2  0  0  0  0  0  0
  -28.4070  -20.6190    6.9820 C   0  0  0  0  0  2  0  0  0  0  0  0
  -27.3670  -20.9990    5.8910 C   0  0  0  0  0  2  0  0  0  0  0  0
  -27.8540  -21.9610    4.7670 C   0  0  0  0  0  2  0  0  0  0  0  0
  -28.8170  -23.7150    6.3670 C   0  0  0  0  0  0  0  0  0  0  0  0
  -31.0840  -24.0580    5.7230 C   0  0  0  0  0  2  0  0  0  0  0  0
  -32.0710  -23.7310    6.8480 C   0  0  0  0  0  2  0  0  0  0  0  0
  -32.4520  -25.0230    7.5710 C   0  0  0  0  0  2  0  0  0  0  0  0
  -31.2140  -25.8010    8.0790 C   0  0  0  0  0  3  0  0  0  0  0  0
  -30.0500  -25.8680    7.0380 C   0  0  0  0  0  2  0  0  0  0  0  0
  -29.8480  -24.5910    6.3090 N   0  0  0  0  0  0  0  0  0  0  0  0
  -28.3250  -23.2480    7.3670 O   0  0  0  0  0  0  0  0  0  0  0  0
  -28.4630  -23.2530    5.1530 N   0  0  0  0  0  0  0  0  0  0  0  0
  -28.8610  -23.7730    4.3820 H   0  0  0  0  0  0  0  0  0  0  0  0
  -31.2870  -27.7560    9.7740 C   0  0  0  0  0  0  0  0  0  0  0  0
  -32.0220  -28.9140    9.8180 C   0  0  0  0  0  0  0  0  0  0  0  0
  -32.8100  -28.9240    8.6270 C   0  0  0  0  0  0  0  0  0  0  0  0
  -31.6270  -27.1230    8.5860 N   0  0  0  0  0  0  0  0  0  0  0  0
  -32.5180  -27.8680    7.8740 N   0  0  0  0  0  0  0  0  0  0  0  0
  -33.8650  -29.8560    8.1900 C   0  0  0  0  0  0  0  0  0  0  0  0
  -33.8520  -30.4380    6.9010 C   0  0  0  0  0  3  0  0  0  0  0  0
  -34.8630  -31.3430    6.5120 C   0  0  0  0  0  3  0  0  0  0  0  0
  -35.9010  -31.6810    7.4110 C   0  0  0  0  0  0  0  0  0  0  0  0
  -35.9220  -31.0840    8.6840 C   0  0  0  0  0  3  0  0  0  0  0  0
  -34.9180  -30.1790    9.0700 C   0  0  0  0  0  3  0  0  0  0  0  0
  -36.9380  -32.5320    7.1100 O   0  0  0  0  0  0  0  0  0  0  0  0
  -36.8160  -33.5070    6.1530 C   0  0  0  0  0  0  0  0  0  0  0  0
  -35.7780  -34.4640    6.1920 C   0  0  0  0  0  3  0  0  0  0  0  0
  -35.7300  -35.4920    5.2280 C   0  0  0  0  0  3  0  0  0  0  0  0
  -36.7200  -35.5690    4.2300 C   0  0  0  0  0  0  0  0  0  0  0  0
  -37.7550  -34.6190    4.1900 C   0  0  0  0  0  3  0  0  0  0  0  0
  -37.8050  -33.5930    5.1510 C   0  0  0  0  0  0  0  0  0  0  0  0
  -38.8200  -32.6960    5.1240 F   0  0  0  0  0  0  0  0  0  0  0  0
  -36.6750  -36.5570    3.3060 F   0  0  0  0  0  0  0  0  0  0  0  0
  -32.0600  -29.9080   10.9440 C   0  0  0  0  0  0  0  0  0  0  0  0
  -32.3010  -31.1810   10.6370 N   0  0  0  0  0  0  0  0  0  0  0  0
  -31.8280  -29.5720   12.1040 O   0  0  0  0  0  0  0  0  0  0  0  0
  -32.4740  -31.4710    9.6860 H   0  0  0  0  0  0  0  0  0  0  0  0
  -32.3080  -31.8800   11.3660 H   0  0  0  0  0  0  0  0  0  0  0  0
  -30.3790  -27.1830   10.6570 N   0  0  0  0  0  0  0  0  0  0  0  0
  -30.1370  -27.6120   11.5440 H   0  0  0  0  0  0  0  0  0  0  0  0
  -29.9000  -26.3050   10.4980 H   0  0  0  0  0  0  0  0  0  0  0  0
  1  3  2  0
  2  1  1  0
  4  2  1  0
  5  1  1  0
  5  6  2  0
  7  6  1  0
  7  8  1  0
  8 11  1  0
  8 10  1  0
  9  7  2  0
 11 12  1  0
 13 12  1  0
 13 14  1  0
 15 14  1  0
 16 15  1  0
 17 16  1  0
 18 17  1  0
 18 19  1  0
 19 21  1  0
 20 31  2  0
 21 26  1  0
 22 32  1  0
 22 30  1  0
 23 29  1  0
 23 25  1  0
 24 30  1  0
 25 24  1  0
 26 25  2  0
 27 28  1  0
 27 21  2  0
 28 23  2  0
 29 22  1  0
 30 20  1  0
 32 34  2  0
 33 32  1  0
 35 33  1  0
 36 45  2  0
 36 41  1  0
 37 33  1  0
 38 37  1  0
 39 40  1  0
 39 38  1  0
 40 36  1  0
 41 37  1  0
 41 42  2  0
 42 43  1  0
 44 43  2  0
 45 44  1  0
 46 20  1  0
 46 56  1  0
 46 47  1  0
 47 48  1  0
 47 50  1  0
 48 52  1  0
 49 48  2  0
 52 51  1  0
 52 54  1  0
 54 55  1  0
 54 53  1  0
 56 57  1  1
 56 59  1  0
 58 56  1  0
 60  2  1  0
 61 60  1  0
 62 61  1  0
 63 62  1  0
 64 63  1  0
 65 64  1  0
 66 65  1  0
 67 68  1  0
 67 66  1  0
 69 70  1  0
 69 68  1  0
 71 70  1  0
 72 71  1  0
 73 72  1  0
 74 73  1  0
 75 74  1  0
 76 75  1  0
 77 86  1  0
 77 76  1  0
 78 85  2  0
 79 84  1  0
 79 80  1  0
 80 81  1  0
 81 82  1  0
 82 83  1  0
 82 91  1  0
 84 78  1  0
 84 83  1  0
 86 78  1  0
 87 86  1  0
 88 89  2  0
 88113  1  0
 89108  1  0
 90 89  1  0
 91 88  1  0
 92 91  1  0
 92 90  2  0
 93 90  1  0
 93 98  1  0
 94 93  2  0
 95 94  1  0
 95 96  2  0
 96 97  1  0
 97 98  2  0
 99 96  1  0
100101  1  0
100 99  1  0
102101  2  0
103102  1  0
104103  2  0
104105  1  0
105100  2  0
106105  1  0
107103  1  0
108110  2  0
109108  1  0
109112  1  0
111109  1  0
113114  1  0
115113  1  0
M  ISO  4  18 101  19 101  78 100  86 100
M  END
>  <TORSDO>  (12) 
F 44

>  <SCORE>  (12) 
2.740

>  <name>  (12) 
11

>  <ligand_id>  (12) 
11

>  <original_smiles>  (12) 
[H]C(C(=O)N([H])C([H])([H])C([H])([H])OC([H])([H])C([H])([H])OC([H])([H])C([H])([H])Oc1c([H])c([H])c2c(c1[H])C([H])([H])N(C(=O)C([H])(N([H])C(=O)C([H])(N([H])C([H])([H])[H])C([H])([H])[H])C(C([H])([H])[H])(C([H])([H])[H])C([H])([H])[H])C([H])(C(=O)N([H])C1([H])c3c([H])c([H])c([H])c([H])c3C([H])([H])C([H])([H])C1([H])[H])C2([H])[H])=C([H])C(=O)N([H])C([H])([H])C([H])([H])OC([H])([H])C([H])([H])C([H])([H])C([H])([H])C([H])([H])OC([H])([H])C([H])([H])C([H])([H])OC([H])([H])C([H])([H])C([H])([H])C([H])([H])C([H])([H])N([H])C(=O)N1C([H])([H])C([H])([H])C([H])([H])C([H])(n2nc(-c3c([H])c([H])c(Oc4c([H])c([H])c(F)c([H])c4F)c([H])c3[H])c(C(=O)N([H])[H])c2N([H])[H])C1([H])[H]

>  <smiles>  (12) 
[H]C(C(=O)N([H])C([H])([H])C([H])([H])OC([H])([H])C([H])([H])OC([H])([H])C([H])([H])Oc1c([H])c([H])c2c(c1[H])C([H])([H])N(C(=O)C([H])(N([H])C(=O)C([H])(N([H])C([H])([H])[H])C([H])([H])[H])C(C([H])([H])[H])(C([H])([H])[H])C([H])([H])[H])C([H])(C(=O)N([H])C1([H])c3c([H])c([H])c([H])c([H])c3C([H])([H])C([H])([H])C1([H])[H])C2([H])[H])=C([H])C(=O)N([H])C([H])([H])C([H])([H])OC([H])([H])C([H])([H])C([H])([H])C([H])([H])C([H])([H])OC([H])([H])C([H])([H])C([H])([H])OC([H])([H])C([H])([H])C([H])([H])C([H])([H])C([H])([H])N([H])C(=O)N1C([H])([H])C([H])([H])C([H])([H])C([H])(n2nc(-c3c([H])c([H])c(Oc4c([H])c([H])c(F)c([H])c4F)c([H])c3[H])c(C(=O)N([H])[H])c2N([H])[H])C1([H])[H]

$$$$
12:0:0
     RDKit          3D

101108  0  0  1  0  0  0  0  0999 V2000
  -29.1920  -22.4510   24.2550 C   0  0  0  0  0  0  0  0  0  0  0  0
  -28.9630  -23.1710   25.3640 N   0  0  0  0  0  0  0  0  0  0  0  0
  -28.4530  -22.4230   23.2700 O   0  0  0  0  0  0  0  0  0  0  0  0
  -29.6450  -23.0180   26.0970 H   0  0  0  0  0  0  0  0  0  0  0  0
  -30.4370  -21.7150   24.3820 C   0  0  0  0  0  3  0  0  0  0  0  0
  -30.8690  -20.8960   23.4040 C   0  0  0  0  0  3  0  0  0  0  0  0
  -32.1600  -20.1080   23.4680 C   0  0  0  0  0  2  0  0  0  0  0  0
  -32.9850  -20.4070   22.3500 O   0  0  0  0  0  0  0  0  0  0  0  0
  -33.2380  -19.3170   21.4660 C   0  0  0  0  0  2  0  0  0  0  0  0
  -31.9700  -18.6130   20.9430 C   0  0  0  0  0  2  0  0  0  0  0  0
  -31.7030  -17.4660   21.7400 O   0  0  0  0  0  0  0  0  0  0  0  0
  -30.7090  -16.6030   21.2070 C   0  0  0  0  0  2  0  0  0  0  0  0
  -30.8400  -15.2490   21.9240 C   0  0  0  0  0  2  0  0  0  0  0  0
  -30.2640  -13.6940   20.0830 C   0  0  0  0  0  0  0  0  0  0  0  0
  -29.5260  -12.1050   18.3520 C   0  0  0  0  0  2  0  0  0  0  0  0
  -28.4420  -12.7250   17.4520 C   0  0  0  0  0  2  0  0  0  0  0  0
  -27.0420  -12.5300   18.0630 C   0  0  0  0  0  2  0  0  0  0  0  0
  -26.9780  -12.9420   19.5580 C   0  0  0  0  0  3  0  0  0  0  0  0
  -28.1540  -12.3330   20.3520 C   0  0  0  0  0  2  0  0  0  0  0  0
  -29.4160  -12.7110   19.6870 N   0  0  0  0  0  0  0  0  0  0  0  0
  -31.2040  -14.0990   19.3960 O   0  0  0  0  0  0  0  0  0  0  0  0
  -30.0350  -14.2020   21.2960 N   0  0  0  0  0  0  0  0  0  0  0  0
  -29.2590  -13.8230   21.8200 H   0  0  0  0  0  0  0  0  0  0  0  0
  -24.6550  -13.4340   20.5560 C   0  0  0  0  0  0  0  0  0  0  0  0
  -23.6450  -12.6100   20.9740 C   0  0  0  0  0  0  0  0  0  0  0  0
  -24.1210  -11.2770   20.7880 C   0  0  0  0  0  0  0  0  0  0  0  0
  -25.6860  -12.5980   20.1510 N   0  0  0  0  0  0  0  0  0  0  0  0
  -25.3710  -11.2910   20.3410 N   0  0  0  0  0  0  0  0  0  0  0  0
  -23.4390   -9.9860   20.9550 C   0  0  0  0  0  0  0  0  0  0  0  0
  -23.8820   -9.0330   21.8960 C   0  0  0  0  0  3  0  0  0  0  0  0
  -23.1960   -7.8090   22.0510 C   0  0  0  0  0  3  0  0  0  0  0  0
  -22.0540   -7.5300   21.2640 C   0  0  0  0  0  0  0  0  0  0  0  0
  -21.6310   -8.4730   20.3110 C   0  0  0  0  0  3  0  0  0  0  0  0
  -22.3180   -9.6890   20.1540 C   0  0  0  0  0  3  0  0  0  0  0  0
  -21.3410   -6.3570   21.3280 O   0  0  0  0  0  0  0  0  0  0  0  0
  -21.1870   -5.6700   22.5070 C   0  0  0  0  0  0  0  0  0  0  0  0
  -20.5140   -6.2320   23.6130 C   0  0  0  0  0  3  0  0  0  0  0  0
  -20.3170   -5.4670   24.7810 C   0  0  0  0  0  3  0  0  0  0  0  0
  -20.7810   -4.1400   24.8400 C   0  0  0  0  0  0  0  0  0  0  0  0
  -21.4450   -3.5760   23.7370 C   0  0  0  0  0  3  0  0  0  0  0  0
  -21.6450   -4.3370   22.5730 C   0  0  0  0  0  0  0  0  0  0  0  0
  -22.2690   -3.7820   21.5060 F   0  0  0  0  0  0  0  0  0  0  0  0
  -20.5830   -3.4030   25.9590 F   0  0  0  0  0  0  0  0  0  0  0  0
  -22.2790  -13.0330   21.4330 C   0  0  0  0  0  0  0  0  0  0  0  0
  -21.6750  -12.2740   22.3420 N   0  0  0  0  0  0  0  0  0  0  0  0
  -21.7570  -14.0690   21.0230 O   0  0  0  0  0  0  0  0  0  0  0  0
  -22.1130  -11.4390   22.7010 H   0  0  0  0  0  0  0  0  0  0  0  0
  -20.7620  -12.5340   22.6870 H   0  0  0  0  0  0  0  0  0  0  0  0
  -24.7710  -14.8180   20.4680 N   0  0  0  0  0  0  0  0  0  0  0  0
  -23.9970  -15.4320   20.6990 H   0  0  0  0  0  0  0  0  0  0  0  0
  -25.5740  -15.3140   20.1030 H   0  0  0  0  0  0  0  0  0  0  0  0
  -27.9890  -24.2260   25.6830 C   0  0  0  0  0  2  0  0  0  0  0  0
  -26.9140  -24.6030   24.6340 C   0  0  0  0  0  2  0  0  0  0  0  0
  -27.0850  -26.0230   24.0690 C   0  0  0  0  0  2  0  0  0  0  0  0
  -27.8140  -26.0000   22.8490 O   0  0  0  0  0  0  0  0  0  0  0  0
  -28.4900  -27.2240   22.5890 C   0  0  0  0  0  2  0  0  0  0  0  0
  -29.1420  -27.1790   21.2060 C   0  0  0  0  0  2  0  0  0  0  0  0
  -30.1190  -26.1420   21.1780 O   0  0  0  0  0  0  0  0  0  0  0  0
  -31.2320  -26.3870   20.3250 C   0  0  0  0  0  2  0  0  0  0  0  0
  -30.9370  -26.2150   18.8140 C   0  0  0  0  0  2  0  0  0  0  0  0
  -30.4410  -27.4320   18.2540 O   0  0  0  0  0  0  0  0  0  0  0  0
  -25.6790  -29.9870   22.8580 C   0  0  0  0  0  0  0  0  0  0  0  0
  -29.1150  -27.7100   18.4900 C   0  0  0  0  0  0  0  0  0  0  0  0
  -24.7460  -28.8560   20.8650 C   0  0  0  0  0  3  0  0  0  0  0  0
  -26.4140  -28.3250   19.0110 C   0  0  0  0  0  0  0  0  0  0  0  0
  -27.0320  -29.9970   20.7670 C   0  0  0  0  0  2  0  0  0  0  0  0
  -27.4280  -28.9760   19.7220 C   0  0  0  0  0  0  0  0  0  0  0  0
  -28.7810  -28.6750   19.4620 C   0  0  0  0  0  3  0  0  0  0  0  0
  -28.0840  -27.0640   17.7720 C   0  0  0  0  0  3  0  0  0  0  0  0
  -26.7340  -27.3640   18.0360 C   0  0  0  0  0  3  0  0  0  0  0  0
  -24.9900  -28.7180   19.3390 C   0  0  0  0  0  2  0  0  0  0  0  0
  -25.8400  -29.6110   21.5570 N   0  0  0  0  0  0  0  0  0  0  0  0
  -24.6290  -29.7480   23.4690 O   0  0  0  0  0  0  0  0  0  0  0  0
  -24.5100  -27.4470   21.4530 C   0  0  0  0  0  0  0  0  0  0  0  0
  -23.3600  -26.8410   21.1130 N   0  0  0  0  0  0  0  0  0  0  0  0
  -25.3580  -26.9100   22.1710 O   0  0  0  0  0  0  0  0  0  0  0  0
  -22.7130  -27.3500   20.5260 H   0  0  0  0  0  0  0  0  0  0  0  0
  -20.7540  -24.3730   20.7310 C   0  0  0  0  0  0  0  0  0  0  0  0
  -22.9440  -25.4990   21.5150 C   0  0  0  0  0  3  0  0  0  0  0  0
  -23.6770  -24.4150   20.6910 C   0  0  0  0  0  2  0  0  0  0  0  0
  -22.8980  -23.9740   19.4480 C   0  0  0  0  0  2  0  0  0  0  0  0
  -21.5290  -23.4140   19.8430 C   0  0  0  0  0  2  0  0  0  0  0  0
  -21.4160  -25.3620   21.5050 C   0  0  0  0  0  0  0  0  0  0  0  0
  -20.6460  -26.2510   22.2840 C   0  0  0  0  0  3  0  0  0  0  0  0
  -19.2420  -26.1620   22.3030 C   0  0  0  0  0  3  0  0  0  0  0  0
  -18.5910  -25.1690   21.5500 C   0  0  0  0  0  3  0  0  0  0  0  0
  -19.3470  -24.2760   20.7690 C   0  0  0  0  0  3  0  0  0  0  0  0
  -26.7960  -30.7530   23.6330 C   0  0  0  0  0  3  0  0  0  0  0  0
  -27.4170  -29.9120   24.8160 C   0  0  1  0  0  0  0  0  0  0  0  0
  -26.3630  -29.2300   25.7190 C   0  0  0  0  0  1  0  0  0  0  0  0
  -28.3490  -28.8090   24.2660 C   0  0  0  0  0  1  0  0  0  0  0  0
  -28.2860  -30.8300   25.7070 C   0  0  0  0  0  1  0  0  0  0  0  0
  -26.2100  -32.0040   24.1300 N   0  0  0  0  0  0  0  0  0  0  0  0
  -26.3700  -33.2020   23.5530 C   0  0  0  0  0  0  0  0  0  0  0  0
  -27.0950  -33.3800   22.5690 O   0  0  0  0  0  0  0  0  0  0  0  0
  -25.5580  -31.9240   24.8960 H   0  0  0  0  0  0  0  0  0  0  0  0
  -24.3540  -34.6870   23.3170 C   0  0  0  0  0  1  0  0  0  0  0  0
  -25.6040  -34.3920   24.1620 C   0  0  0  0  0  3  0  0  0  0  0  0
  -27.4770  -35.5110   25.2880 C   0  0  0  0  0  1  0  0  0  0  0  0
  -26.4220  -35.6180   24.2840 N   0  0  0  0  0  0  0  0  0  0  0  0
  -25.8410  -36.4180   24.5180 H   0  0  0  0  0  0  0  0  0  0  0  0
  1  5  1  0
  1  2  1  0
  2 52  1  0
  2  4  1  0
  3  1  2  0
  6  7  1  0
  6  5  2  0
  8  7  1  0
  9  8  1  0
 10  9  1  0
 10 11  1  0
 12 11  1  0
 12 13  1  0
 14 22  1  0
 15 20  1  0
 16 17  1  0
 16 15  1  0
 18 17  1  0
 18 27  1  0
 18 19  1  0
 20 14  1  0
 20 19  1  0
 21 14  2  0
 22 23  1  0
 22 13  1  0
 24 25  2  0
 25 44  1  0
 26 29  1  0
 26 25  1  0
 27 28  1  0
 27 24  1  0
 28 26  2  0
 29 30  1  0
 30 31  2  0
 32 35  1  0
 32 31  1  0
 33 32  2  0
 34 33  1  0
 34 29  2  0
 35 36  1  0
 36 41  2  0
 36 37  1  0
 37 38  2  0
 38 39  1  0
 39 43  1  0
 40 39  2  0
 41 40  1  0
 42 41  1  0
 44 45  1  0
 45 48  1  0
 45 47  1  0
 46 44  2  0
 49 24  1  0
 49 50  1  0
 51 49  1  0
 53 52  1  0
 54 53  1  0
 55 54  1  0
 56 55  1  0
 57 56  1  0
 58 57  1  0
 59 58  1  0
 60 59  1  0
 61 63  1  0
 61 60  1  0
 62 73  2  0
 63 68  1  0
 64 74  1  0
 64 72  1  0
 65 71  1  0
 65 67  1  0
 66 72  1  0
 67 66  1  0
 68 67  2  0
 69 70  1  0
 69 63  2  0
 70 65  2  0
 71 64  1  0
 72 62  1  0
 74 76  2  0
 75 74  1  0
 77 75  1  0
 78 87  2  0
 78 83  1  0
 79 75  1  0
 80 79  1  0
 81 82  1  0
 81 80  1  0
 82 78  1  0
 83 79  1  0
 83 84  2  0
 84 85  1  0
 86 85  2  0
 87 86  1  0
 88 62  1  0
 88 93  1  0
 88 89  1  0
 89 92  1  1
 89 90  1  0
 91 89  1  0
 93 96  1  0
 94 93  1  0
 94 98  1  0
 95 94  2  0
 98 97  1  0
 98100  1  0
100101  1  0
100 99  1  0
M  ISO  4  14 100  22 100  60 101  61 101
M  END
>  <TORSDO>  (13) 
F 33

>  <SCORE>  (13) 
1.366

>  <name>  (13) 
12

>  <ligand_id>  (13) 
12

>  <original_smiles>  (13) 
[H]C(C(=O)N([H])C([H])([H])C([H])([H])C([H])([H])OC([H])([H])C([H])([H])OC([H])([H])C([H])([H])Oc1c([H])c([H])c2c(c1[H])C([H])([H])N(C(=O)C([H])(N([H])C(=O)C([H])(N([H])C([H])([H])[H])C([H])([H])[H])C(C([H])([H])[H])(C([H])([H])[H])C([H])([H])[H])C([H])(C(=O)N([H])C1([H])c3c([H])c([H])c([H])c([H])c3C([H])([H])C([H])([H])C1([H])[H])C2([H])[H])=C([H])C([H])([H])OC([H])([H])C([H])([H])OC([H])([H])C([H])([H])N([H])C(=O)N1C([H])([H])C([H])([H])C([H])([H])C([H])(n2nc(-c3c([H])c([H])c(Oc4c([H])c([H])c(F)c([H])c4F)c([H])c3[H])c(C(=O)N([H])[H])c2N([H])[H])C1([H])[H]

>  <smiles>  (13) 
[H]C(C(=O)N([H])C([H])([H])C([H])([H])C([H])([H])OC([H])([H])C([H])([H])OC([H])([H])C([H])([H])Oc1c([H])c([H])c2c(c1[H])C([H])([H])N(C(=O)C([H])(N([H])C(=O)C([H])(N([H])C([H])([H])[H])C([H])([H])[H])C(C([H])([H])[H])(C([H])([H])[H])C([H])([H])[H])C([H])(C(=O)N([H])C1([H])c3c([H])c([H])c([H])c([H])c3C([H])([H])C([H])([H])C1([H])[H])C2([H])[H])=C([H])C([H])([H])OC([H])([H])C([H])([H])OC([H])([H])C([H])([H])N([H])C(=O)N1C([H])([H])C([H])([H])C([H])([H])C([H])(n2nc(-c3c([H])c([H])c(Oc4c([H])c([H])c(F)c([H])c4F)c([H])c3[H])c(C(=O)N([H])[H])c2N([H])[H])C1([H])[H]

$$$$
13:0:0
     RDKit          3D

 95102  0  0  1  0  0  0  0  0999 V2000
  -26.9860  -23.8710   19.3190 C   0  0  0  0  0  0  0  0  0  0  0  0
  -25.6790  -23.5850   19.3480 N   0  0  0  0  0  0  0  0  0  0  0  0
  -27.6130  -24.2480   20.3110 O   0  0  0  0  0  0  0  0  0  0  0  0
  -25.2560  -23.2690   18.4850 H   0  0  0  0  0  0  0  0  0  0  0  0
  -27.5250  -23.7350   17.9780 C   0  0  0  0  0  3  0  0  0  0  0  0
  -28.8490  -23.6130   17.7590 C   0  0  0  0  0  3  0  0  0  0  0  0
  -29.4940  -23.5270   16.3850 C   0  0  0  0  0  2  0  0  0  0  0  0
  -30.6540  -24.3560   16.2820 O   0  0  0  0  0  0  0  0  0  0  0  0
  -34.9150  -28.5230   20.1400 C   0  0  0  0  0  0  0  0  0  0  0  0
  -30.7330  -25.5020   17.0470 C   0  0  0  0  0  0  0  0  0  0  0  0
  -32.4970  -29.0170   20.3100 C   0  0  0  0  0  3  0  0  0  0  0  0
  -31.0050  -27.8460   18.6110 C   0  0  0  0  0  0  0  0  0  0  0  0
  -33.4660  -27.9560   18.1950 C   0  0  0  0  0  2  0  0  0  0  0  0
  -32.1260  -27.2800   17.9960 C   0  0  0  0  0  0  0  0  0  0  0  0
  -31.9960  -26.1100   17.2170 C   0  0  0  0  0  3  0  0  0  0  0  0
  -29.6080  -26.0980   17.6670 C   0  0  0  0  0  3  0  0  0  0  0  0
  -29.7410  -27.2560   18.4520 C   0  0  0  0  0  3  0  0  0  0  0  0
  -31.2220  -29.0970   19.4300 C   0  0  0  0  0  2  0  0  0  0  0  0
  -33.6790  -28.4720   19.5670 N   0  0  0  0  0  0  0  0  0  0  0  0
  -35.0860  -29.0520   21.2470 O   0  0  0  0  0  0  0  0  0  0  0  0
  -32.1590  -28.2240   21.5930 C   0  0  0  0  0  0  0  0  0  0  0  0
  -31.4130  -28.8620   22.5100 N   0  0  0  0  0  0  0  0  0  0  0  0
  -32.5390  -27.0590   21.7340 O   0  0  0  0  0  0  0  0  0  0  0  0
  -31.1510  -29.8190   22.3200 H   0  0  0  0  0  0  0  0  0  0  0  0
  -29.6250  -29.6420   25.5480 C   0  0  0  0  0  0  0  0  0  0  0  0
  -30.9430  -28.3030   23.7750 C   0  0  0  0  0  3  0  0  0  0  0  0
  -29.6460  -27.4860   23.5750 C   0  0  0  0  0  2  0  0  0  0  0  0
  -28.3750  -28.3100   23.7970 C   0  0  0  0  0  2  0  0  0  0  0  0
  -28.3490  -28.8860   25.2160 C   0  0  0  0  0  2  0  0  0  0  0  0
  -30.8390  -29.3790   24.8610 C   0  0  0  0  0  0  0  0  0  0  0  0
  -31.9880  -30.1330   25.1840 C   0  0  0  0  0  3  0  0  0  0  0  0
  -31.9370  -31.1330   26.1740 C   0  0  0  0  0  3  0  0  0  0  0  0
  -30.7380  -31.3780   26.8650 C   0  0  0  0  0  3  0  0  0  0  0  0
  -29.5880  -30.6300   26.5560 C   0  0  0  0  0  3  0  0  0  0  0  0
  -36.1740  -27.9410   19.4230 C   0  0  0  0  0  3  0  0  0  0  0  0
  -36.7310  -26.6340   20.1100 C   0  0  1  0  0  0  0  0  0  0  0  0
  -36.9510  -26.7800   21.6340 C   0  0  0  0  0  1  0  0  0  0  0  0
  -35.7700  -25.4460   19.8830 C   0  0  0  0  0  1  0  0  0  0  0  0
  -38.0790  -26.2370   19.4630 C   0  0  0  0  0  1  0  0  0  0  0  0
  -37.1980  -28.9940   19.4050 N   0  0  0  0  0  0  0  0  0  0  0  0
  -37.4700  -29.7670   18.3450 C   0  0  0  0  0  0  0  0  0  0  0  0
  -36.9280  -29.6150   17.2470 O   0  0  0  0  0  0  0  0  0  0  0  0
  -37.6380  -29.2120   20.2850 H   0  0  0  0  0  0  0  0  0  0  0  0
  -37.7850  -32.2320   18.7210 C   0  0  0  0  0  1  0  0  0  0  0  0
  -38.5100  -30.8900   18.5330 C   0  0  0  0  0  3  0  0  0  0  0  0
  -40.3970  -29.8590   17.3500 C   0  0  0  0  0  1  0  0  0  0  0  0
  -39.4750  -30.9910   17.4160 N   0  0  0  0  0  0  0  0  0  0  0  0
  -40.0250  -31.8440   17.4870 H   0  0  0  0  0  0  0  0  0  0  0  0
  -24.7760  -23.7920   20.4770 C   0  0  0  0  0  2  0  0  0  0  0  0
  -23.2970  -23.6160   20.0900 C   0  0  0  0  0  2  0  0  0  0  0  0
  -23.1850  -23.0980   18.7710 O   0  0  0  0  0  0  0  0  0  0  0  0
  -24.2020  -23.6020   17.9130 C   0  0  0  0  0  2  0  0  0  0  0  0
  -23.6970  -24.8360   17.1550 C   0  0  0  0  0  2  0  0  0  0  0  0
  -22.8730  -24.4620   16.0540 O   0  0  0  0  0  0  0  0  0  0  0  0
  -23.6080  -24.4350   14.8370 C   0  0  0  0  0  2  0  0  0  0  0  0
  -22.7310  -24.0020   13.6540 C   0  0  0  0  0  2  0  0  0  0  0  0
  -21.2190  -24.1470   13.9150 C   0  0  0  0  0  2  0  0  0  0  0  0
  -20.4370  -22.2990   12.3910 C   0  0  0  0  0  0  0  0  0  0  0  0
  -19.3180  -22.2110   10.1940 C   0  0  0  0  0  2  0  0  0  0  0  0
  -20.2450  -22.7170    9.0730 C   0  0  0  0  0  2  0  0  0  0  0  0
  -20.1560  -24.2500    8.9330 C   0  0  0  0  0  2  0  0  0  0  0  0
  -20.3160  -24.9750   10.2940 C   0  0  0  0  0  3  0  0  0  0  0  0
  -19.3710  -24.3470   11.3420 C   0  0  0  0  0  2  0  0  0  0  0  0
  -19.6790  -22.9110   11.4410 N   0  0  0  0  0  0  0  0  0  0  0  0
  -20.8300  -21.1350   12.2890 O   0  0  0  0  0  0  0  0  0  0  0  0
  -20.5240  -22.8970   13.5870 N   0  0  0  0  0  0  0  0  0  0  0  0
  -20.6680  -22.2070   14.3100 H   0  0  0  0  0  0  0  0  0  0  0  0
  -20.8070  -27.4660   10.7250 C   0  0  0  0  0  0  0  0  0  0  0  0
  -20.2450  -28.6080   10.2180 C   0  0  0  0  0  0  0  0  0  0  0  0
  -19.2060  -28.1800    9.3370 C   0  0  0  0  0  0  0  0  0  0  0  0
  -20.1030  -26.4140   10.1580 N   0  0  0  0  0  0  0  0  0  0  0  0
  -19.1010  -26.8580    9.3570 N   0  0  0  0  0  0  0  0  0  0  0  0
  -18.3440  -28.9500    8.4310 C   0  0  0  0  0  0  0  0  0  0  0  0
  -16.9520  -29.0520    8.6490 C   0  0  0  0  0  3  0  0  0  0  0  0
  -16.1460  -29.8130    7.7760 C   0  0  0  0  0  3  0  0  0  0  0  0
  -16.7290  -30.4830    6.6730 C   0  0  0  0  0  0  0  0  0  0  0  0
  -18.1110  -30.3560    6.4480 C   0  0  0  0  0  3  0  0  0  0  0  0
  -18.9120  -29.5950    7.3150 C   0  0  0  0  0  3  0  0  0  0  0  0
  -16.0220  -31.2250    5.7580 O   0  0  0  0  0  0  0  0  0  0  0  0
  -14.9930  -32.0480    6.1420 C   0  0  0  0  0  0  0  0  0  0  0  0
  -15.1870  -33.1100    7.0510 C   0  0  0  0  0  3  0  0  0  0  0  0
  -14.1180  -33.9730    7.3630 C   0  0  0  0  0  3  0  0  0  0  0  0
  -12.8590  -33.7840    6.7610 C   0  0  0  0  0  0  0  0  0  0  0  0
  -12.6670  -32.7310    5.8490 C   0  0  0  0  0  3  0  0  0  0  0  0
  -13.7310  -31.8670    5.5400 C   0  0  0  0  0  0  0  0  0  0  0  0
  -13.5450  -30.8660    4.6460 F   0  0  0  0  0  0  0  0  0  0  0  0
  -11.8350  -34.6200    7.0530 F   0  0  0  0  0  0  0  0  0  0  0  0
  -20.7030  -30.0160   10.4670 C   0  0  0  0  0  0  0  0  0  0  0  0
  -19.7820  -30.9730   10.4510 N   0  0  0  0  0  0  0  0  0  0  0  0
  -21.8780  -30.2690   10.7280 O   0  0  0  0  0  0  0  0  0  0  0  0
  -18.8130  -30.7590   10.2610 H   0  0  0  0  0  0  0  0  0  0  0  0
  -20.0490  -31.9290   10.6360 H   0  0  0  0  0  0  0  0  0  0  0  0
  -21.8620  -27.2420   11.6030 N   0  0  0  0  0  0  0  0  0  0  0  0
  -22.4470  -28.0000   11.9310 H   0  0  0  0  0  0  0  0  0  0  0  0
  -22.2120  -26.3270   11.8610 H   0  0  0  0  0  0  0  0  0  0  0  0
  1  2  1  0
  1  3  2  0
  2 49  1  0
  4  2  1  0
  5  1  1  0
  6  5  2  0
  7  6  1  0
  8  7  1  0
  8 10  1  0
  9 20  2  0
 10 15  2  0
 10 16  1  0
 11 21  1  0
 12 18  1  0
 13 19  1  0
 14 13  1  0
 14 12  2  0
 15 14  1  0
 16 17  2  0
 17 12  1  0
 18 11  1  0
 19  9  1  0
 19 11  1  0
 21 23  2  0
 21 22  1  0
 24 22  1  0
 25 34  1  0
 26 22  1  0
 26 30  1  0
 27 26  1  0
 27 28  1  0
 28 29  1  0
 29 25  1  0
 30 31  1  0
 30 25  2  0
 31 32  2  0
 32 33  1  0
 34 33  2  0
 35 36  1  0
 35  9  1  0
 36 37  1  1
 38 36  1  0
 39 36  1  0
 40 35  1  0
 40 43  1  0
 41 45  1  0
 41 40  1  0
 42 41  2  0
 45 44  1  0
 46 47  1  0
 47 48  1  0
 47 45  1  0
 50 49  1  0
 51 50  1  0
 52 51  1  0
 53 52  1  0
 54 53  1  0
 55 54  1  0
 56 57  1  0
 56 55  1  0
 58 66  1  0
 59 64  1  0
 60 59  1  0
 61 60  1  0
 62 61  1  0
 62 63  1  0
 63 64  1  0
 64 58  1  0
 65 58  2  0
 66 57  1  0
 66 67  1  0
 68 93  1  0
 69 88  1  0
 69 68  2  0
 70 72  2  0
 70 69  1  0
 71 62  1  0
 71 68  1  0
 72 71  1  0
 73 74  1  0
 73 70  1  0
 75 74  2  0
 76 75  1  0
 77 76  2  0
 77 78  1  0
 78 73  2  0
 79 80  1  0
 79 76  1  0
 80 81  1  0
 81 82  2  0
 83 87  1  0
 83 82  1  0
 84 83  2  0
 85 84  1  0
 85 80  2  0
 86 85  1  0
 88 90  2  0
 89 88  1  0
 89 92  1  0
 91 89  1  0
 93 95  1  0
 93 94  1  0
M  ISO  4   7 101   8 101  58 100  66 100
M  END
>  <TORSDO>  (14) 
F 27

>  <SCORE>  (14) 
13.587

>  <name>  (14) 
13

>  <ligand_id>  (14) 
13

>  <original_smiles>  (14) 
[H]C(C(=O)N([H])C([H])([H])C([H])([H])OC([H])([H])C([H])([H])OC([H])([H])C([H])([H])C([H])([H])N([H])C(=O)N1C([H])([H])C([H])([H])C([H])([H])C([H])(n2nc(-c3c([H])c([H])c(Oc4c([H])c([H])c(F)c([H])c4F)c([H])c3[H])c(C(=O)N([H])[H])c2N([H])[H])C1([H])[H])=C([H])C([H])([H])Oc1c([H])c([H])c2c(c1[H])C([H])([H])N(C(=O)C([H])(N([H])C(=O)C([H])(N([H])C([H])([H])[H])C([H])([H])[H])C(C([H])([H])[H])(C([H])([H])[H])C([H])([H])[H])C([H])(C(=O)N([H])C1([H])c3c([H])c([H])c([H])c([H])c3C([H])([H])C([H])([H])C1([H])[H])C2([H])[H]

>  <smiles>  (14) 
[H]C(C(=O)N([H])C([H])([H])C([H])([H])OC([H])([H])C([H])([H])OC([H])([H])C([H])([H])C([H])([H])N([H])C(=O)N1C([H])([H])C([H])([H])C([H])([H])C([H])(n2nc(-c3c([H])c([H])c(Oc4c([H])c([H])c(F)c([H])c4F)c([H])c3[H])c(C(=O)N([H])[H])c2N([H])[H])C1([H])[H])=C([H])C([H])([H])Oc1c([H])c([H])c2c(c1[H])C([H])([H])N(C(=O)C([H])(N([H])C(=O)C([H])(N([H])C([H])([H])[H])C([H])([H])[H])C(C([H])([H])[H])(C([H])([H])[H])C([H])([H])[H])C([H])(C(=O)N([H])C1([H])c3c([H])c([H])c([H])c([H])c3C([H])([H])C([H])([H])C1([H])[H])C2([H])[H]

$$$$
14:0:0
     RDKit          3D

108115  0  0  1  0  0  0  0  0999 V2000
  -27.8770  -16.9640   26.6140 C   0  0  0  0  0  2  0  0  0  0  0  0
  -26.4970  -16.4700   26.1720 C   0  0  0  0  0  2  0  0  0  0  0  0
  -26.6270  -15.7570   24.9490 O   0  0  0  0  0  0  0  0  0  0  0  0
  -25.3840  -15.3340   24.4000 C   0  0  0  0  0  2  0  0  0  0  0  0
  -25.6000  -15.2250   22.8850 C   0  0  0  0  0  2  0  0  0  0  0  0
  -26.1560  -16.4970   22.3640 N   0  0  0  0  0  4  0  0  0  0  0  0
  -25.4460  -17.2050   22.4880 H   0  0  0  0  0  0  0  0  0  0  0  0
  -26.9310  -16.7660   22.9550 H   0  0  0  0  0  0  0  0  0  0  0  0
  -26.5580  -16.5130   20.9350 C   0  0  0  0  0  2  0  0  0  0  0  0
  -27.8780  -15.7800   20.6300 C   0  0  0  0  0  2  0  0  0  0  0  0
  -28.5620  -16.5400   19.6410 O   0  0  0  0  0  0  0  0  0  0  0  0
  -29.6300  -15.8700   18.9790 C   0  0  0  0  0  2  0  0  0  0  0  0
  -30.4360  -16.9630   18.2560 C   0  0  0  0  0  2  0  0  0  0  0  0
  -31.4360  -16.4530   17.1950 C   0  0  0  0  0  2  0  0  0  0  0  0
  -32.1860  -17.5380   16.6380 O   0  0  0  0  0  0  0  0  0  0  0  0
  -32.0300  -24.6110   17.2360 C   0  0  0  0  0  0  0  0  0  0  0  0
  -31.5330  -18.6950   16.2660 C   0  0  0  0  0  0  0  0  0  0  0  0
  -30.0670  -23.5900   16.1300 C   0  0  0  0  0  3  0  0  0  0  0  0
  -30.2940  -21.1260   15.5180 C   0  0  0  0  0  0  0  0  0  0  0  0
  -32.3520  -22.4480   16.0380 C   0  0  0  0  0  2  0  0  0  0  0  0
  -31.6190  -21.1250   15.9720 C   0  0  0  0  0  0  0  0  0  0  0  0
  -32.2410  -19.9150   16.3450 C   0  0  0  0  0  3  0  0  0  0  0  0
  -30.1960  -18.7120   15.7960 C   0  0  0  0  0  3  0  0  0  0  0  0
  -29.5780  -19.9200   15.4300 C   0  0  0  0  0  3  0  0  0  0  0  0
  -29.7070  -22.4610   15.1270 C   0  0  0  0  0  2  0  0  0  0  0  0
  -31.5150  -23.5710   16.5210 N   0  0  0  0  0  0  0  0  0  0  0  0
  -31.3330  -25.5920   17.5310 O   0  0  0  0  0  0  0  0  0  0  0  0
  -29.1040  -23.5030   17.3350 C   0  0  0  0  0  0  0  0  0  0  0  0
  -27.8170  -23.7970   17.0940 N   0  0  0  0  0  0  0  0  0  0  0  0
  -29.5120  -23.1530   18.4470 O   0  0  0  0  0  0  0  0  0  0  0  0
  -27.5680  -24.0930   16.1600 H   0  0  0  0  0  0  0  0  0  0  0  0
  -24.2410  -24.1330   17.4640 C   0  0  0  0  0  0  0  0  0  0  0  0
  -26.7250  -23.7440   18.0650 C   0  0  0  0  0  3  0  0  0  0  0  0
  -26.3160  -22.2820   18.3640 C   0  0  0  0  0  2  0  0  0  0  0  0
  -25.1710  -21.7810   17.4790 C   0  0  0  0  0  2  0  0  0  0  0  0
  -23.9300  -22.6600   17.6590 C   0  0  0  0  0  2  0  0  0  0  0  0
  -25.5560  -24.6390   17.6400 C   0  0  0  0  0  0  0  0  0  0  0  0
  -25.7950  -26.0120   17.4120 C   0  0  0  0  0  3  0  0  0  0  0  0
  -24.7520  -26.8710   17.0230 C   0  0  0  0  0  3  0  0  0  0  0  0
  -23.4490  -26.3680   16.8690 C   0  0  0  0  0  3  0  0  0  0  0  0
  -23.1950  -25.0030   17.0930 C   0  0  0  0  0  3  0  0  0  0  0  0
  -33.5200  -24.6300   17.7000 C   0  0  0  0  0  3  0  0  0  0  0  0
  -33.7070  -24.2270   19.2150 C   0  0  1  0  0  0  0  0  0  0  0  0
  -32.7860  -25.0060   20.1830 C   0  0  0  0  0  1  0  0  0  0  0  0
  -33.4310  -22.7190   19.4070 C   0  0  0  0  0  1  0  0  0  0  0  0
  -35.1720  -24.4720   19.6460 C   0  0  0  0  0  1  0  0  0  0  0  0
  -34.0440  -25.9790   17.4510 N   0  0  0  0  0  0  0  0  0  0  0  0
  -34.8100  -26.3140   16.4030 C   0  0  0  0  0  0  0  0  0  0  0  0
  -35.2100  -25.4920   15.5750 O   0  0  0  0  0  0  0  0  0  0  0  0
  -33.7050  -26.7160   18.0500 H   0  0  0  0  0  0  0  0  0  0  0  0
  -34.2960  -28.4550   15.1870 C   0  0  0  0  0  1  0  0  0  0  0  0
  -35.1910  -27.7990   16.2500 C   0  0  0  0  0  3  0  0  0  0  0  0
  -37.5310  -27.6490   16.9800 C   0  0  0  0  0  1  0  0  0  0  0  0
  -36.6130  -28.0070   15.9010 N   0  0  0  0  0  0  0  0  0  0  0  0
  -36.7850  -28.9770   15.6480 H   0  0  0  0  0  0  0  0  0  0  0  0
  -28.2370  -18.1020   25.8410 O   0  0  0  0  0  0  0  0  0  0  0  0
  -29.5220  -18.6060   26.1850 C   0  0  0  0  0  2  0  0  0  0  0  0
  -29.9720  -19.6420   25.1480 C   0  0  0  0  0  2  0  0  0  0  0  0
  -28.9520  -20.7740   24.9300 C   0  0  0  0  0  2  0  0  0  0  0  0
  -29.5660  -22.0060   24.3860 N   0  0  0  0  0  4  0  0  0  0  0  0
  -30.4870  -22.1400   24.7760 H   0  0  0  0  0  0  0  0  0  0  0  0
  -29.0010  -22.7650   24.7390 H   0  0  0  0  0  0  0  0  0  0  0  0
  -29.5830  -22.1470   22.9050 C   0  0  0  0  0  2  0  0  0  0  0  0
  -30.8780  -21.6470   22.2380 C   0  0  0  0  0  2  0  0  0  0  0  0
  -30.7890  -20.2550   21.9410 O   0  0  0  0  0  0  0  0  0  0  0  0
  -32.0010  -19.7590   21.3780 C   0  0  0  0  0  2  0  0  0  0  0  0
  -31.8920  -18.2720   21.0040 C   0  0  0  0  0  2  0  0  0  0  0  0
  -31.6380  -17.3430   22.2050 C   0  0  0  0  0  2  0  0  0  0  0  0
  -31.0020  -15.9850   21.8390 C   0  0  0  0  0  2  0  0  0  0  0  0
  -31.8690  -15.0780   20.9400 C   0  0  0  0  0  2  0  0  0  0  0  0
  -31.4950  -12.9360   19.6870 C   0  0  0  0  0  0  0  0  0  0  0  0
  -30.8320  -10.8020   18.6240 C   0  0  0  0  0  2  0  0  0  0  0  0
  -29.8670  -11.0220   17.4450 C   0  0  0  0  0  2  0  0  0  0  0  0
  -28.4090  -11.1300   17.9350 C   0  0  0  0  0  2  0  0  0  0  0  0
  -28.2500  -12.1230   19.1150 C   0  0  0  0  0  3  0  0  0  0  0  0
  -29.2940  -11.8280   20.2100 C   0  0  0  0  0  2  0  0  0  0  0  0
  -30.6360  -11.8890   19.5970 N   0  0  0  0  0  0  0  0  0  0  0  0
  -32.5200  -13.0430   19.0030 O   0  0  0  0  0  0  0  0  0  0  0  0
  -31.1550  -13.8510   20.6080 N   0  0  0  0  0  0  0  0  0  0  0  0
  -30.3100  -13.6570   21.1230 H   0  0  0  0  0  0  0  0  0  0  0  0
  -26.0230  -13.1610   19.8880 C   0  0  0  0  0  0  0  0  0  0  0  0
  -24.8580  -12.5940   20.3300 C   0  0  0  0  0  0  0  0  0  0  0  0
  -25.0810  -11.1840   20.3350 C   0  0  0  0  0  0  0  0  0  0  0  0
  -26.8910  -12.1060   19.6510 N   0  0  0  0  0  0  0  0  0  0  0  0
  -26.3290  -10.9140   19.9780 N   0  0  0  0  0  0  0  0  0  0  0  0
  -24.1620  -10.0710   20.6060 C   0  0  0  0  0  0  0  0  0  0  0  0
  -24.4690   -9.0770   21.5610 C   0  0  0  0  0  3  0  0  0  0  0  0
  -23.5630   -8.0260   21.8180 C   0  0  0  0  0  3  0  0  0  0  0  0
  -22.3330   -7.9640   21.1210 C   0  0  0  0  0  0  0  0  0  0  0  0
  -22.0420   -8.9430   20.1540 C   0  0  0  0  0  3  0  0  0  0  0  0
  -22.9480   -9.9850   19.8960 C   0  0  0  0  0  3  0  0  0  0  0  0
  -21.4040   -6.9660   21.2850 O   0  0  0  0  0  0  0  0  0  0  0  0
  -21.2750   -6.2890   22.4700 C   0  0  0  0  0  0  0  0  0  0  0  0
  -21.0000   -6.9570   23.6830 C   0  0  0  0  0  3  0  0  0  0  0  0
  -20.8080   -6.2160   24.8670 C   0  0  0  0  0  3  0  0  0  0  0  0
  -20.8820   -4.8100   24.8390 C   0  0  0  0  0  0  0  0  0  0  0  0
  -21.1500   -4.1440   23.6300 C   0  0  0  0  0  3  0  0  0  0  0  0
  -21.3440   -4.8810   22.4490 C   0  0  0  0  0  0  0  0  0  0  0  0
  -21.5810   -4.2330   21.2820 F   0  0  0  0  0  0  0  0  0  0  0  0
  -20.6890   -4.0970   25.9730 F   0  0  0  0  0  0  0  0  0  0  0  0
  -23.5760  -13.3110   20.6410 C   0  0  0  0  0  0  0  0  0  0  0  0
  -22.7840  -12.7780   21.5650 N   0  0  0  0  0  0  0  0  0  0  0  0
  -23.2920  -14.3770   20.0960 O   0  0  0  0  0  0  0  0  0  0  0  0
  -23.0280  -11.9150   22.0260 H   0  0  0  0  0  0  0  0  0  0  0  0
  -21.9220  -13.2410   21.8140 H   0  0  0  0  0  0  0  0  0  0  0  0
  -26.4110  -14.4760   19.6480 N   0  0  0  0  0  0  0  0  0  0  0  0
  -25.7540  -15.2450   19.6970 H   0  0  0  0  0  0  0  0  0  0  0  0
  -27.2960  -14.7350   19.2310 H   0  0  0  0  0  0  0  0  0  0  0  0
  2  1  1  0
  3  2  1  0
  4  3  1  0
  5  4  1  0
  6  7  1  0
  6  5  1  0
  6  8  1  0
  9  6  1  0
 10  9  1  0
 11 10  1  0
 12 11  1  0
 13 12  1  0
 14 13  1  0
 15 14  1  0
 16 27  2  0
 17 22  1  0
 17 15  1  0
 18 26  1  0
 18 28  1  0
 19 21  1  0
 20 26  1  0
 21 20  1  0
 21 22  2  0
 23 17  2  0
 24 19  2  0
 24 23  1  0
 25 19  1  0
 25 18  1  0
 26 16  1  0
 28 30  2  0
 29 28  1  0
 31 29  1  0
 32 37  1  0
 32 36  1  0
 33 29  1  0
 33 34  1  0
 35 36  1  0
 35 34  1  0
 37 33  1  0
 38 37  2  0
 39 38  1  0
 40 39  2  0
 40 41  1  0
 41 32  2  0
 42 16  1  0
 42 43  1  0
 43 45  1  6
 43 46  1  0
 43 44  1  0
 47 42  1  0
 47 50  1  0
 48 47  1  0
 49 48  2  0
 52 51  1  0
 52 48  1  0
 54 52  1  0
 54 53  1  0
 55 54  1  0
 56 57  1  0
 56  1  1  0
 58 57  1  0
 59 58  1  0
 60 62  1  0
 60 61  1  0
 60 59  1  0
 63 60  1  0
 64 63  1  0
 65 64  1  0
 66 65  1  0
 67 66  1  0
 67 68  1  0
 69 68  1  0
 70 69  1  0
 71 79  1  0
 72 77  1  0
 73 74  1  0
 73 72  1  0
 75 74  1  0
 75 84  1  0
 75 76  1  0
 77 71  1  0
 77 76  1  0
 78 71  2  0
 79 70  1  0
 79 80  1  0
 81 82  2  0
 82 83  1  0
 82101  1  0
 83 86  1  0
 84 81  1  0
 84 85  1  0
 85 83  2  0
 86 87  1  0
 87 88  2  0
 89 92  1  0
 89 88  1  0
 90 89  2  0
 91 90  1  0
 91 86  2  0
 92 93  1  0
 93 94  1  0
 94 95  2  0
 96 95  1  0
 96100  1  0
 97 96  2  0
 98 93  2  0
 98 97  1  0
 99 98  1  0
101102  1  0
102105  1  0
102104  1  0
103101  2  0
106107  1  0
106 81  1  0
108106  1  0
M  ISO  4  14 101  15 101  71 100  79 100
M  END
>  <TORSDO>  (15) 
F 40

>  <SCORE>  (15) 
20.481

>  <name>  (15) 
14

>  <ligand_id>  (15) 
14

>  <original_smiles>  (15) 
[H]c1c([H])c([H])c2c(c1[H])C([H])([H])C([H])([H])C([H])([H])C2([H])N([H])C(=O)C1([H])N(C(=O)C([H])(N([H])C(=O)C([H])(N([H])C([H])([H])[H])C([H])([H])[H])C(C([H])([H])[H])(C([H])([H])[H])C([H])([H])[H])C([H])([H])c2c([H])c(OC([H])([H])C([H])([H])C([H])([H])OC([H])([H])C([H])([H])[N+]([H])([H])C([H])([H])C([H])([H])OC([H])([H])C([H])([H])OC([H])([H])C([H])([H])C([H])([H])[N+]([H])([H])C([H])([H])C([H])([H])OC([H])([H])C([H])([H])C([H])([H])C([H])([H])C([H])([H])N([H])C(=O)N3C([H])([H])C([H])([H])C([H])([H])C([H])(n4nc(-c5c([H])c([H])c(Oc6c([H])c([H])c(F)c([H])c6F)c([H])c5[H])c(C(=O)N([H])[H])c4N([H])[H])C3([H])[H])c([H])c([H])c2C1([H])[H]

>  <smiles>  (15) 
[H]c1c([H])c([H])c2c(c1[H])C([H])([H])C([H])([H])C([H])([H])C2([H])N([H])C(=O)C1([H])N(C(=O)C([H])(N([H])C(=O)C([H])(N([H])C([H])([H])[H])C([H])([H])[H])C(C([H])([H])[H])(C([H])([H])[H])C([H])([H])[H])C([H])([H])c2c([H])c(OC([H])([H])C([H])([H])C([H])([H])OC([H])([H])C([H])([H])[N+]([H])([H])C([H])([H])C([H])([H])OC([H])([H])C([H])([H])OC([H])([H])C([H])([H])C([H])([H])[N+]([H])([H])C([H])([H])C([H])([H])OC([H])([H])C([H])([H])C([H])([H])C([H])([H])C([H])([H])N([H])C(=O)N3C([H])([H])C([H])([H])C([H])([H])C([H])(n4nc(-c5c([H])c([H])c(Oc6c([H])c([H])c(F)c([H])c6F)c([H])c5[H])c(C(=O)N([H])[H])c4N([H])[H])C3([H])[H])c([H])c([H])c2C1([H])[H]

$$$$
16:0:0
     RDKit          3D

106113  0  0  1  0  0  0  0  0999 V2000
  -24.8640  -20.9850   20.2180 C   0  0  0  0  0  0  0  0  0  0  0  0
  -24.0650  -20.3880   21.1150 N   0  0  0  0  0  0  0  0  0  0  0  0
  -25.4530  -20.3600   19.3330 O   0  0  0  0  0  0  0  0  0  0  0  0
  -23.6190  -20.9900   21.7940 H   0  0  0  0  0  0  0  0  0  0  0  0
  -25.0020  -22.5160   20.3280 C   0  0  0  0  0  3  0  0  0  0  0  0
  -26.9000  -24.2280   20.0500 C   0  0  0  0  0  3  0  0  0  0  0  0
  -26.4490  -23.0080   20.4010 C   0  0  0  0  0  3  0  0  0  0  0  0
  -28.3500  -24.6710   20.1190 C   0  0  0  0  0  2  0  0  0  0  0  0
  -28.5440  -26.0190   20.8440 C   0  0  0  0  0  2  0  0  0  0  0  0
  -28.4790  -27.1180   19.9330 O   0  0  0  0  0  0  0  0  0  0  0  0
  -24.5150  -31.8680   23.4290 C   0  0  0  0  0  0  0  0  0  0  0  0
  -27.3040  -27.8210   19.9860 C   0  0  0  0  0  0  0  0  0  0  0  0
  -23.3680  -30.6150   21.6300 C   0  0  0  0  0  3  0  0  0  0  0  0
  -24.8810  -29.2550   20.0890 C   0  0  0  0  0  0  0  0  0  0  0  0
  -25.8890  -31.0360   21.5300 C   0  0  0  0  0  2  0  0  0  0  0  0
  -26.0120  -29.7370   20.7630 C   0  0  0  0  0  0  0  0  0  0  0  0
  -27.2270  -29.0210   20.7200 C   0  0  0  0  0  3  0  0  0  0  0  0
  -26.1720  -27.3590   19.2840 C   0  0  0  0  0  3  0  0  0  0  0  0
  -24.9550  -28.0640   19.3470 C   0  0  0  0  0  3  0  0  0  0  0  0
  -23.6160  -30.0770   20.1950 C   0  0  0  0  0  2  0  0  0  0  0  0
  -24.6060  -31.1820   22.2560 N   0  0  0  0  0  0  0  0  0  0  0  0
  -23.4200  -32.0730   23.9670 O   0  0  0  0  0  0  0  0  0  0  0  0
  -22.7180  -29.4940   22.4700 C   0  0  0  0  0  0  0  0  0  0  0  0
  -21.4040  -29.2920   22.2780 N   0  0  0  0  0  0  0  0  0  0  0  0
  -23.3910  -28.8120   23.2450 O   0  0  0  0  0  0  0  0  0  0  0  0
  -20.9210  -29.8990   21.6290 H   0  0  0  0  0  0  0  0  0  0  0  0
  -18.0470  -27.9840   22.5480 C   0  0  0  0  0  0  0  0  0  0  0  0
  -20.5880  -28.2630   22.9240 C   0  0  0  0  0  3  0  0  0  0  0  0
  -20.7380  -26.9040   22.2000 C   0  0  0  0  0  2  0  0  0  0  0  0
  -19.6680  -26.6850   21.1250 C   0  0  0  0  0  2  0  0  0  0  0  0
  -18.2720  -26.7140   21.7480 C   0  0  0  0  0  2  0  0  0  0  0  0
  -19.1350  -28.7220   23.0850 C   0  0  0  0  0  0  0  0  0  0  0  0
  -18.8710  -29.9190   23.7860 C   0  0  0  0  0  3  0  0  0  0  0  0
  -17.5520  -30.3810   23.9470 C   0  0  0  0  0  3  0  0  0  0  0  0
  -16.4770  -29.6390   23.4280 C   0  0  0  0  0  3  0  0  0  0  0  0
  -16.7250  -28.4400   22.7380 C   0  0  0  0  0  3  0  0  0  0  0  0
  -25.7800  -32.4510   24.1340 C   0  0  0  0  0  3  0  0  0  0  0  0
  -26.2670  -31.5800   25.3560 C   0  0  1  0  0  0  0  0  0  0  0  0
  -25.1400  -31.2310   26.3550 C   0  0  0  0  0  1  0  0  0  0  0  0
  -26.8930  -30.2510   24.8670 C   0  0  0  0  0  1  0  0  0  0  0  0
  -27.3800  -32.3320   26.1240 C   0  0  0  0  0  1  0  0  0  0  0  0
  -25.4540  -33.8140   24.5660 N   0  0  0  0  0  0  0  0  0  0  0  0
  -25.8160  -34.9250   23.9100 C   0  0  0  0  0  0  0  0  0  0  0  0
  -26.5290  -34.9050   22.9030 O   0  0  0  0  0  0  0  0  0  0  0  0
  -24.8150  -33.9020   25.3420 H   0  0  0  0  0  0  0  0  0  0  0  0
  -24.0970  -36.7380   23.6270 C   0  0  0  0  0  1  0  0  0  0  0  0
  -25.3040  -36.2680   24.4570 C   0  0  0  0  0  3  0  0  0  0  0  0
  -27.3990  -37.0820   25.4460 C   0  0  0  0  0  1  0  0  0  0  0  0
  -26.3340  -37.3290   24.4770 N   0  0  0  0  0  0  0  0  0  0  0  0
  -25.9190  -38.2330   24.6840 H   0  0  0  0  0  0  0  0  0  0  0  0
  -24.1870  -23.1810   19.1920 C   0  0  0  0  0  2  0  0  0  0  0  0
  -22.8000  -22.9270   19.3710 O   0  0  0  0  0  0  0  0  0  0  0  0
  -20.5470  -23.1510   18.6400 C   0  0  0  0  0  1  0  0  0  0  0  0
  -22.0130  -23.4300   18.3080 C   0  0  0  0  0  2  0  0  0  0  0  0
  -23.6310  -18.9940   21.0920 C   0  0  0  0  0  2  0  0  0  0  0  0
  -24.4610  -18.0940   22.0210 C   0  0  0  0  0  2  0  0  0  0  0  0
  -24.7210  -18.6820   23.4180 C   0  0  0  0  0  2  0  0  0  0  0  0
  -25.7260  -17.8460   24.2220 C   0  0  0  0  0  2  0  0  0  0  0  0
  -26.3410  -18.6690   25.2010 O   0  0  0  0  0  0  0  0  0  0  0  0
  -27.4820  -18.0580   25.7910 C   0  0  0  0  0  2  0  0  0  0  0  0
  -28.3710  -19.1270   26.4470 C   0  0  0  0  0  2  0  0  0  0  0  0
  -28.9770  -20.1070   25.4340 C   0  0  0  0  0  2  0  0  0  0  0  0
  -29.9520  -19.4220   24.6600 O   0  0  0  0  0  0  0  0  0  0  0  0
  -30.4720  -20.2000   23.5930 C   0  0  0  0  0  2  0  0  0  0  0  0
  -31.5150  -19.3600   22.8470 C   0  0  0  0  0  2  0  0  0  0  0  0
  -30.8810  -18.1880   22.0730 C   0  0  0  0  0  2  0  0  0  0  0  0
  -31.8610  -17.5210   21.0970 C   0  0  0  0  0  2  0  0  0  0  0  0
  -31.1670  -16.6000   20.0800 C   0  0  0  0  0  2  0  0  0  0  0  0
  -31.5210  -14.1710   20.4610 C   0  0  0  0  0  0  0  0  0  0  0  0
  -31.3130  -11.7410   20.1330 C   0  0  0  0  0  2  0  0  0  0  0  0
  -30.4800  -11.4700   18.8650 C   0  0  0  0  0  2  0  0  0  0  0  0
  -28.9760  -11.4470   19.1960 C   0  0  0  0  0  2  0  0  0  0  0  0
  -28.5300  -12.6740   20.0320 C   0  0  0  0  0  3  0  0  0  0  0  0
  -29.4810  -12.9020   21.2300 C   0  0  0  0  0  2  0  0  0  0  0  0
  -30.8550  -13.0140   20.7090 N   0  0  0  0  0  0  0  0  0  0  0  0
  -32.6550  -14.2070   19.9750 O   0  0  0  0  0  0  0  0  0  0  0  0
  -30.8110  -15.2930   20.6420 N   0  0  0  0  0  0  0  0  0  0  0  0
  -29.8880  -15.1900   21.0360 H   0  0  0  0  0  0  0  0  0  0  0  0
  -26.1990  -13.5350   20.7070 C   0  0  0  0  0  0  0  0  0  0  0  0
  -25.0330  -12.8840   21.0150 C   0  0  0  0  0  0  0  0  0  0  0  0
  -25.3280  -11.4910   20.9190 C   0  0  0  0  0  0  0  0  0  0  0  0
  -27.1380  -12.5470   20.4600 N   0  0  0  0  0  0  0  0  0  0  0  0
  -26.6120  -11.3080   20.6390 N   0  0  0  0  0  0  0  0  0  0  0  0
  -24.4490  -10.3190   21.0180 C   0  0  0  0  0  0  0  0  0  0  0  0
  -24.7470   -9.2440   21.8850 C   0  0  0  0  0  3  0  0  0  0  0  0
  -23.8770   -8.1350   21.9760 C   0  0  0  0  0  3  0  0  0  0  0  0
  -22.6940   -8.0960   21.1990 C   0  0  0  0  0  0  0  0  0  0  0  0
  -22.4140   -9.1580   20.3210 C   0  0  0  0  0  3  0  0  0  0  0  0
  -23.2820  -10.2570   20.2280 C   0  0  0  0  0  3  0  0  0  0  0  0
  -21.8030   -7.0510   21.2050 O   0  0  0  0  0  0  0  0  0  0  0  0
  -21.6390   -6.2480   22.3060 C   0  0  0  0  0  0  0  0  0  0  0  0
  -21.2770   -6.7760   23.5650 C   0  0  0  0  0  3  0  0  0  0  0  0
  -21.0530   -5.9090   24.6530 C   0  0  0  0  0  3  0  0  0  0  0  0
  -21.1810   -4.5190   24.4850 C   0  0  0  0  0  0  0  0  0  0  0  0
  -21.5380   -3.9900   23.2310 C   0  0  0  0  0  3  0  0  0  0  0  0
  -21.7640   -4.8530   22.1440 C   0  0  0  0  0  0  0  0  0  0  0  0
  -22.0860   -4.3400   20.9330 F   0  0  0  0  0  0  0  0  0  0  0  0
  -20.9600   -3.6840   25.5260 F   0  0  0  0  0  0  0  0  0  0  0  0
  -23.6990  -13.5150   21.2890 C   0  0  0  0  0  0  0  0  0  0  0  0
  -22.8780  -12.8780   22.1160 N   0  0  0  0  0  0  0  0  0  0  0  0
  -23.3980  -14.6050   20.8060 O   0  0  0  0  0  0  0  0  0  0  0  0
  -23.1360  -11.9930   22.5260 H   0  0  0  0  0  0  0  0  0  0  0  0
  -21.9780  -13.2790   22.3390 H   0  0  0  0  0  0  0  0  0  0  0  0
  -26.5350  -14.8780   20.5910 N   0  0  0  0  0  0  0  0  0  0  0  0
  -25.8330  -15.6060   20.6530 H   0  0  0  0  0  0  0  0  0  0  0  0
  -27.4260  -15.2150   20.2500 H   0  0  0  0  0  0  0  0  0  0  0  0
  1  5  1  0
  1  2  1  0
  2  4  1  0
  3  1  2  0
  5 51  1  0
  5  7  1  0
  6  8  1  0
  6  7  2  0
  8  9  1  0
 10 12  1  0
 10  9  1  0
 11 22  2  0
 12 17  1  0
 13 21  1  0
 13 23  1  0
 14 20  1  0
 14 16  1  0
 15 21  1  0
 16 15  1  0
 17 16  2  0
 18 19  1  0
 18 12  2  0
 19 14  2  0
 20 13  1  0
 21 11  1  0
 23 25  2  0
 24 23  1  0
 26 24  1  0
 27 36  2  0
 27 32  1  0
 28 24  1  0
 28 32  1  0
 29 28  1  0
 30 31  1  0
 30 29  1  0
 31 27  1  0
 32 33  2  0
 33 34  1  0
 35 34  2  0
 36 35  1  0
 37 11  1  0
 37 42  1  0
 37 38  1  0
 38 41  1  1
 38 39  1  0
 40 38  1  0
 42 45  1  0
 43 47  1  0
 43 42  1  0
 44 43  2  0
 47 46  1  0
 47 49  1  0
 49 50  1  0
 49 48  1  0
 51 52  1  0
 54 53  1  0
 54 52  1  0
 55  2  1  0
 55 56  1  0
 56 57  1  0
 57 58  1  0
 58 59  1  0
 59 60  1  0
 60 61  1  0
 62 61  1  0
 63 62  1  0
 64 63  1  0
 65 64  1  0
 66 65  1  0
 67 66  1  0
 68 77  1  0
 68 67  1  0
 69 77  1  0
 69 75  1  0
 70 75  1  0
 71 72  1  0
 71 70  1  0
 73 72  1  0
 73 82  1  0
 73 74  1  0
 75 74  1  0
 76 69  2  0
 77 78  1  0
 79 80  2  0
 80 99  1  0
 81 80  1  0
 81 84  1  0
 82 83  1  0
 82 79  1  0
 83 81  2  0
 84 85  1  0
 85 86  2  0
 87 90  1  0
 87 86  1  0
 88 87  2  0
 89 88  1  0
 89 84  2  0
 90 91  1  0
 91 92  1  0
 92 93  2  0
 94 93  1  0
 94 98  1  0
 95 94  2  0
 96 91  2  0
 96 95  1  0
 97 96  1  0
 99100  1  0
100103  1  0
100102  1  0
101 99  2  0
104105  1  0
104 79  1  0
106104  1  0
M  ISO  4   9 101  10 101  69 100  77 100
M  END
>  <TORSDO>  (16) 
F 37

>  <SCORE>  (16) 
31.531

>  <name>  (16) 
16

>  <ligand_id>  (16) 
16

>  <original_smiles>  (16) 
[H]C(=C([H])C([H])(C(=O)N([H])C([H])([H])C([H])([H])C([H])([H])C([H])([H])OC([H])([H])C([H])([H])C([H])([H])OC([H])([H])C([H])([H])C([H])([H])C([H])([H])C([H])([H])N([H])C(=O)N1C([H])([H])C([H])([H])C([H])([H])C([H])(n2nc(-c3c([H])c([H])c(Oc4c([H])c([H])c(F)c([H])c4F)c([H])c3[H])c(C(=O)N([H])[H])c2N([H])[H])C1([H])[H])C([H])([H])OC([H])([H])C([H])([H])[H])C([H])([H])C([H])([H])Oc1c([H])c([H])c2c(c1[H])C([H])([H])N(C(=O)C([H])(N([H])C(=O)C([H])(N([H])C([H])([H])[H])C([H])([H])[H])C(C([H])([H])[H])(C([H])([H])[H])C([H])([H])[H])C([H])(C(=O)N([H])C1([H])c3c([H])c([H])c([H])c([H])c3C([H])([H])C([H])([H])C1([H])[H])C2([H])[H]

>  <smiles>  (16) 
[H]C(=C([H])C([H])(C(=O)N([H])C([H])([H])C([H])([H])C([H])([H])C([H])([H])OC([H])([H])C([H])([H])C([H])([H])OC([H])([H])C([H])([H])C([H])([H])C([H])([H])C([H])([H])N([H])C(=O)N1C([H])([H])C([H])([H])C([H])([H])C([H])(n2nc(-c3c([H])c([H])c(Oc4c([H])c([H])c(F)c([H])c4F)c([H])c3[H])c(C(=O)N([H])[H])c2N([H])[H])C1([H])[H])C([H])([H])OC([H])([H])C([H])([H])[H])C([H])([H])C([H])([H])Oc1c([H])c([H])c2c(c1[H])C([H])([H])N(C(=O)C([H])(N([H])C(=O)C([H])(N([H])C([H])([H])[H])C([H])([H])[H])C(C([H])([H])[H])(C([H])([H])[H])C([H])([H])[H])C([H])(C(=O)N([H])C1([H])c3c([H])c([H])c([H])c([H])c3C([H])([H])C([H])([H])C1([H])[H])C2([H])[H]

$$$$
17:0:0
     RDKit          3D

102110  0  0  1  0  0  0  0  0999 V2000
  -28.8520  -20.6020   22.4780 C   0  0  0  0  0  3  0  0  0  0  0  0
  -28.6690  -19.6610   21.2370 C   0  0  0  0  0  3  0  0  0  0  0  0
  -30.3600  -20.8020   22.7810 C   0  0  0  0  0  3  0  0  0  0  0  0
  -29.9950  -19.5050   20.4400 C   0  0  0  0  0  3  0  0  0  0  0  0
  -31.1110  -21.3500   21.5090 C   0  0  0  0  0  3  0  0  0  0  0  0
  -30.6050  -20.7830   20.2770 O   0  0  0  0  0  0  0  0  0  0  0  0
  -26.5520  -19.0820   20.2410 C   0  0  0  0  0  1  0  0  0  0  0  0
  -27.5970  -20.0400   20.3710 O   0  0  0  0  0  0  0  0  0  0  0  0
  -28.0480  -22.7450   21.5310 C   0  0  0  0  0  1  0  0  0  0  0  0
  -28.1080  -21.8240   22.6140 O   0  0  0  0  0  0  0  0  0  0  0  0
  -30.7540  -19.4890   23.2540 O   0  0  0  0  0  0  0  0  0  0  0  0
  -31.9000  -18.7970   22.7530 C   0  0  0  0  0  2  0  0  0  0  0  0
  -31.7370  -17.2690   23.0060 C   0  0  0  0  0  2  0  0  0  0  0  0
  -31.7460  -16.4200   21.7160 C   0  0  0  0  0  2  0  0  0  0  0  0
  -31.9800  -13.9520   21.4020 C   0  0  0  0  0  0  0  0  0  0  0  0
  -31.6930  -11.7090   20.4110 C   0  0  0  0  0  2  0  0  0  0  0  0
  -30.9400  -11.8310   19.0690 C   0  0  0  0  0  2  0  0  0  0  0  0
  -29.4170  -11.7940   19.2940 C   0  0  0  0  0  2  0  0  0  0  0  0
  -28.9540  -12.7760   20.4020 C   0  0  0  0  0  3  0  0  0  0  0  0
  -29.8340  -12.6390   21.6670 C   0  0  0  0  0  2  0  0  0  0  0  0
  -31.2470  -12.8130   21.2780 N   0  0  0  0  0  0  0  0  0  0  0  0
  -33.1270  -14.0620   20.9700 O   0  0  0  0  0  0  0  0  0  0  0  0
  -31.3400  -15.0160   21.9160 N   0  0  0  0  0  0  0  0  0  0  0  0
  -30.4080  -14.8470   22.2560 H   0  0  0  0  0  0  0  0  0  0  0  0
  -26.5140  -13.5460   20.7120 C   0  0  0  0  0  0  0  0  0  0  0  0
  -25.3600  -12.8650   20.9740 C   0  0  0  0  0  0  0  0  0  0  0  0
  -25.7290  -11.4880   21.0680 C   0  0  0  0  0  0  0  0  0  0  0  0
  -27.5300  -12.6050   20.6940 N   0  0  0  0  0  0  0  0  0  0  0  0
  -27.0480  -11.3600   20.9550 N   0  0  0  0  0  0  0  0  0  0  0  0
  -24.9010  -10.2840   21.2020 C   0  0  0  0  0  0  0  0  0  0  0  0
  -25.1240   -9.3430   22.2310 C   0  0  0  0  0  3  0  0  0  0  0  0
  -24.2990   -8.2060   22.3500 C   0  0  0  0  0  3  0  0  0  0  0  0
  -23.2330   -7.9990   21.4450 C   0  0  0  0  0  0  0  0  0  0  0  0
  -23.0260   -8.9240   20.4060 C   0  0  0  0  0  3  0  0  0  0  0  0
  -23.8540  -10.0540   20.2850 C   0  0  0  0  0  3  0  0  0  0  0  0
  -22.4050   -6.9050   21.4690 O   0  0  0  0  0  0  0  0  0  0  0  0
  -22.1130   -6.2460   22.6350 C   0  0  0  0  0  0  0  0  0  0  0  0
  -21.5460   -6.9110   23.7430 C   0  0  0  0  0  3  0  0  0  0  0  0
  -21.2020   -6.1810   24.8990 C   0  0  0  0  0  3  0  0  0  0  0  0
  -21.4110   -4.7890   24.9410 C   0  0  0  0  0  0  0  0  0  0  0  0
  -21.9690   -4.1270   23.8340 C   0  0  0  0  0  3  0  0  0  0  0  0
  -22.3170   -4.8530   22.6840 C   0  0  0  0  0  0  0  0  0  0  0  0
  -22.8350   -4.2050   21.6140 F   0  0  0  0  0  0  0  0  0  0  0  0
  -21.0650   -4.0850   26.0460 F   0  0  0  0  0  0  0  0  0  0  0  0
  -23.9740  -13.4410   21.0390 C   0  0  0  0  0  0  0  0  0  0  0  0
  -23.1040  -12.8490   21.8460 N   0  0  0  0  0  0  0  0  0  0  0  0
  -23.6760  -14.4590   20.4140 O   0  0  0  0  0  0  0  0  0  0  0  0
  -23.3560  -12.0250   22.3740 H   0  0  0  0  0  0  0  0  0  0  0  0
  -22.1700  -13.2230   21.9360 H   0  0  0  0  0  0  0  0  0  0  0  0
  -26.7860  -14.8910   20.4720 N   0  0  0  0  0  0  0  0  0  0  0  0
  -26.0560  -15.5920   20.4280 H   0  0  0  0  0  0  0  0  0  0  0  0
  -27.6990  -15.2650   20.2540 H   0  0  0  0  0  0  0  0  0  0  0  0
  -31.1260  -22.9030   21.3100 C   0  0  0  0  0  2  0  0  0  0  0  0
  -31.3490  -23.7250   22.4660 O   0  0  0  0  0  0  0  0  0  0  0  0
  -31.5450  -25.1110   22.1230 C   0  0  0  0  0  2  0  0  0  0  0  0
  -31.7100  -26.0440   23.3540 C   0  0  0  0  0  2  0  0  0  0  0  0
  -31.8880  -27.4420   23.0450 O   0  0  0  0  0  0  0  0  0  0  0  0
  -27.3020  -32.5660   24.8620 C   0  0  0  0  0  0  0  0  0  0  0  0
  -30.7320  -28.1160   22.7410 C   0  0  0  0  0  0  0  0  0  0  0  0
  -26.5310  -30.9870   23.1190 C   0  0  0  0  0  3  0  0  0  0  0  0
  -28.3260  -29.4590   22.1350 C   0  0  0  0  0  0  0  0  0  0  0  0
  -29.0210  -31.5020   23.4030 C   0  0  0  0  0  2  0  0  0  0  0  0
  -29.3060  -30.1000   22.9040 C   0  0  0  0  0  0  0  0  0  0  0  0
  -30.5180  -29.4360   23.2040 C   0  0  0  0  0  3  0  0  0  0  0  0
  -29.7500  -27.4910   21.9430 C   0  0  0  0  0  3  0  0  0  0  0  0
  -28.5450  -28.1560   21.6520 C   0  0  0  0  0  3  0  0  0  0  0  0
  -27.0520  -30.2320   21.8670 C   0  0  0  0  0  2  0  0  0  0  0  0
  -27.6230  -31.7020   23.8560 N   0  0  0  0  0  0  0  0  0  0  0  0
  -26.1200  -32.8010   25.1550 O   0  0  0  0  0  0  0  0  0  0  0  0
  -25.7520  -29.9890   24.0050 C   0  0  0  0  0  0  0  0  0  0  0  0
  -24.5510  -29.6000   23.5510 N   0  0  0  0  0  0  0  0  0  0  0  0
  -26.2390  -29.5610   25.0540 O   0  0  0  0  0  0  0  0  0  0  0  0
  -24.2180  -30.0010   22.6840 H   0  0  0  0  0  0  0  0  0  0  0  0
  -21.3440  -27.9670   23.2700 C   0  0  0  0  0  0  0  0  0  0  0  0
  -23.6600  -28.6360   24.1960 C   0  0  0  0  0  3  0  0  0  0  0  0
  -24.0900  -27.1840   23.8870 C   0  0  0  0  0  2  0  0  0  0  0  0
  -23.3810  -26.5910   22.6670 C   0  0  0  0  0  2  0  0  0  0  0  0
  -21.8640  -26.5930   22.8760 C   0  0  0  0  0  2  0  0  0  0  0  0
  -22.1910  -28.9320   23.8760 C   0  0  0  0  0  0  0  0  0  0  0  0
  -21.6680  -30.2060   24.1880 C   0  0  0  0  0  3  0  0  0  0  0  0
  -20.3250  -30.5200   23.9120 C   0  0  0  0  0  3  0  0  0  0  0  0
  -19.4840  -29.5560   23.3300 C   0  0  0  0  0  3  0  0  0  0  0  0
  -19.9920  -28.2830   23.0130 C   0  0  0  0  0  3  0  0  0  0  0  0
  -28.4020  -33.3170   25.6770 C   0  0  0  0  0  3  0  0  0  0  0  0
  -28.2840  -34.7450   25.3630 N   0  0  0  0  0  0  0  0  0  0  0  0
  -29.0660  -35.4010   24.4950 C   0  0  0  0  0  0  0  0  0  0  0  0
  -30.0200  -34.8710   23.9190 O   0  0  0  0  0  0  0  0  0  0  0  0
  -27.4870  -35.2290   25.7500 H   0  0  0  0  0  0  0  0  0  0  0  0
  -27.9810  -37.0040   22.8870 C   0  0  0  0  0  1  0  0  0  0  0  0
  -28.7350  -36.8800   24.2190 C   0  0  0  0  0  3  0  0  0  0  0  0
  -30.5680  -37.8940   25.5010 C   0  0  0  0  0  1  0  0  0  0  0  0
  -29.9270  -37.7550   24.1980 N   0  0  0  0  0  0  0  0  0  0  0  0
  -29.6850  -38.6820   23.8600 H   0  0  0  0  0  0  0  0  0  0  0  0
  -28.2970  -33.0750   27.2340 C   0  0  1  0  0  0  0  0  0  0  0  0
  -26.8750  -33.2760   27.8060 C   0  0  0  0  0  1  0  0  0  0  0  0
  -28.7500  -31.6400   27.5950 C   0  0  0  0  0  1  0  0  0  0  0  0
  -29.2440  -34.0440   27.9820 C   0  0  0  0  0  1  0  0  0  0  0  0
  -29.9200  -18.5970   19.2070 C   0  0  0  0  0  2  0  0  0  0  0  0
  -30.8940  -17.5940   19.4920 O   0  0  0  0  0  0  0  0  0  0  0  0
  -31.3940  -16.8240   18.4160 C   0  0  0  0  0  2  0  0  0  0  0  0
  -33.5570  -15.5120   17.8890 C   0  0  0  0  0  1  0  0  0  0  0  0
  -32.7600  -16.3320   18.9110 C   0  0  0  0  0  2  0  0  0  0  0  0
  1 10  1  0
  1  3  1  0
  2  8  1  0
  2  1  1  0
  3 11  1  0
  4 98  1  0
  4  2  1  0
  5 53  1  0
  5  3  1  0
  6  4  1  0
  6  5  1  0
  7  8  1  0
  9 10  1  0
 12 13  1  0
 12 11  1  0
 14 23  1  0
 14 13  1  0
 15 23  1  0
 16 21  1  0
 17 18  1  0
 17 16  1  0
 19 18  1  0
 19 28  1  0
 19 20  1  0
 21 15  1  0
 21 20  1  0
 22 15  2  0
 23 24  1  0
 25 26  2  0
 26 45  1  0
 26 27  1  0
 27 30  1  0
 28 25  1  0
 28 29  1  0
 29 27  2  0
 30 31  1  0
 31 32  2  0
 33 36  1  0
 33 32  1  0
 34 33  2  0
 35 34  1  0
 35 30  2  0
 36 37  1  0
 37 42  2  0
 37 38  1  0
 38 39  2  0
 39 40  1  0
 40 44  1  0
 41 40  2  0
 42 41  1  0
 43 42  1  0
 45 46  1  0
 46 49  1  0
 46 48  1  0
 47 45  2  0
 50 25  1  0
 51 50  1  0
 52 50  1  0
 53 54  1  0
 55 54  1  0
 55 56  1  0
 57 56  1  0
 58 69  2  0
 59 57  1  0
 59 64  1  0
 60 68  1  0
 60 70  1  0
 61 63  1  0
 62 68  1  0
 63 64  2  0
 63 62  1  0
 65 59  2  0
 66 65  1  0
 66 61  2  0
 67 61  1  0
 67 60  1  0
 68 58  1  0
 70 72  2  0
 71 70  1  0
 73 71  1  0
 74 79  1  0
 75 71  1  0
 76 75  1  0
 77 78  1  0
 77 76  1  0
 78 74  1  0
 79 80  2  0
 79 75  1  0
 81 80  1  0
 82 81  2  0
 83 74  2  0
 83 82  1  0
 84 58  1  0
 84 94  1  0
 85 84  1  0
 85 88  1  0
 86 85  1  0
 87 86  2  0
 90 89  1  0
 90 86  1  0
 92 90  1  0
 92 91  1  0
 93 92  1  0
 94 96  1  6
 94 95  1  0
 94 97  1  0
 98 99  1  0
100102  1  0
100 99  1  0
101102  1  0
M  ISO  4  15 100  23 100  56 101  57 101
M  END
>  <TORSDO>  (17) 
F 30

>  <SCORE>  (17) 
1.868

>  <name>  (17) 
17

>  <ligand_id>  (17) 
17

>  <original_smiles>  (17) 
[H]c1c([H])c([H])c2c(c1[H])C([H])([H])C([H])([H])C([H])([H])C2([H])N([H])C(=O)C1([H])N(C(=O)C([H])(N([H])C(=O)C([H])(N([H])C([H])([H])[H])C([H])([H])[H])C(C([H])([H])[H])(C([H])([H])[H])C([H])([H])[H])C([H])([H])c2c([H])c(OC([H])([H])C([H])([H])OC([H])([H])C3([H])OC([H])(C([H])([H])OC([H])([H])C([H])([H])C([H])([H])[H])C([H])(OC([H])([H])[H])C([H])(OC([H])([H])[H])C3([H])OC([H])([H])C([H])([H])C([H])([H])N([H])C(=O)N3C([H])([H])C([H])([H])C([H])([H])C([H])(n4nc(-c5c([H])c([H])c(Oc6c([H])c([H])c(F)c([H])c6F)c([H])c5[H])c(C(=O)N([H])[H])c4N([H])[H])C3([H])[H])c([H])c([H])c2C1([H])[H]

>  <smiles>  (17) 
[H]c1c([H])c([H])c2c(c1[H])C([H])([H])C([H])([H])C([H])([H])C2([H])N([H])C(=O)C1([H])N(C(=O)C([H])(N([H])C(=O)C([H])(N([H])C([H])([H])[H])C([H])([H])[H])C(C([H])([H])[H])(C([H])([H])[H])C([H])([H])[H])C([H])([H])c2c([H])c(OC([H])([H])C([H])([H])OC([H])([H])C3([H])OC([H])(C([H])([H])OC([H])([H])C([H])([H])C([H])([H])[H])C([H])(OC([H])([H])[H])C([H])(OC([H])([H])[H])C3([H])OC([H])([H])C([H])([H])C([H])([H])N([H])C(=O)N3C([H])([H])C([H])([H])C([H])([H])C([H])(n4nc(-c5c([H])c([H])c(Oc6c([H])c([H])c(F)c([H])c6F)c([H])c5[H])c(C(=O)N([H])[H])c4N([H])[H])C3([H])[H])c([H])c([H])c2C1([H])[H]

$$$$
18:0:0
     RDKit          3D

 96103  0  0  1  0  0  0  0  0999 V2000
  -31.5380  -20.7880   23.3350 C   0  0  0  0  0  3  0  0  0  0  0  0
  -30.7440  -19.6500   22.6340 C   0  0  0  0  0  0  0  0  0  0  0  0
  -31.4350  -18.5940   22.1840 N   0  0  0  0  0  0  0  0  0  0  0  0
  -29.5220  -19.7340   22.4870 O   0  0  0  0  0  0  0  0  0  0  0  0
  -32.4350  -18.6200   22.3290 H   0  0  0  0  0  0  0  0  0  0  0  0
  -30.8950  -17.4070   21.5340 C   0  0  0  0  0  2  0  0  0  0  0  0
  -31.1280  -16.1440   22.3830 C   0  0  0  0  0  2  0  0  0  0  0  0
  -30.7900  -14.3210   20.7220 C   0  0  0  0  0  0  0  0  0  0  0  0
  -30.4180  -12.2950   19.3690 C   0  0  0  0  0  2  0  0  0  0  0  0
  -29.4680  -12.5260   18.1810 C   0  0  0  0  0  2  0  0  0  0  0  0
  -27.9970  -12.3780   18.6090 C   0  0  0  0  0  2  0  0  0  0  0  0
  -27.6660  -13.1980   19.8830 C   0  0  0  0  0  3  0  0  0  0  0  0
  -28.7100  -12.9180   20.9870 C   0  0  0  0  0  2  0  0  0  0  0  0
  -30.0520  -13.2160   20.4530 N   0  0  0  0  0  0  0  0  0  0  0  0
  -31.7750  -14.6580   20.0590 O   0  0  0  0  0  0  0  0  0  0  0  0
  -30.4290  -14.9890   21.8240 N   0  0  0  0  0  0  0  0  0  0  0  0
  -29.6210  -14.6450   22.3230 H   0  0  0  0  0  0  0  0  0  0  0  0
  -25.2600  -13.8140   20.5720 C   0  0  0  0  0  0  0  0  0  0  0  0
  -24.1850  -13.0450   20.9170 C   0  0  0  0  0  0  0  0  0  0  0  0
  -24.6390  -11.6910   20.8740 C   0  0  0  0  0  0  0  0  0  0  0  0
  -26.3060  -12.9320   20.3450 N   0  0  0  0  0  0  0  0  0  0  0  0
  -25.9320  -11.6490   20.5790 N   0  0  0  0  0  0  0  0  0  0  0  0
  -23.9050  -10.4300   21.0400 C   0  0  0  0  0  0  0  0  0  0  0  0
  -24.3600   -9.4210   21.9180 C   0  0  0  0  0  3  0  0  0  0  0  0
  -23.6280   -8.2230   22.0760 C   0  0  0  0  0  3  0  0  0  0  0  0
  -22.4260   -8.0260   21.3550 C   0  0  0  0  0  0  0  0  0  0  0  0
  -21.9870   -9.0230   20.4650 C   0  0  0  0  0  3  0  0  0  0  0  0
  -22.7210  -10.2110   20.3060 C   0  0  0  0  0  3  0  0  0  0  0  0
  -21.6630   -6.8860   21.4250 O   0  0  0  0  0  0  0  0  0  0  0  0
  -21.6860   -6.0720   22.5290 C   0  0  0  0  0  0  0  0  0  0  0  0
  -21.4010   -6.5630   23.8220 C   0  0  0  0  0  3  0  0  0  0  0  0
  -21.3660   -5.6790   24.9190 C   0  0  0  0  0  3  0  0  0  0  0  0
  -21.6040   -4.3050   24.7240 C   0  0  0  0  0  0  0  0  0  0  0  0
  -21.8830   -3.8140   23.4360 C   0  0  0  0  0  3  0  0  0  0  0  0
  -21.9190   -4.6950   22.3410 C   0  0  0  0  0  0  0  0  0  0  0  0
  -22.1660   -4.2140   21.0990 F   0  0  0  0  0  0  0  0  0  0  0  0
  -21.5620   -3.4530   25.7760 F   0  0  0  0  0  0  0  0  0  0  0  0
  -22.7860  -13.5210   21.1830 C   0  0  0  0  0  0  0  0  0  0  0  0
  -22.0500  -12.8220   22.0400 N   0  0  0  0  0  0  0  0  0  0  0  0
  -22.3530  -14.5510   20.6670 O   0  0  0  0  0  0  0  0  0  0  0  0
  -22.4180  -11.9920   22.4830 H   0  0  0  0  0  0  0  0  0  0  0  0
  -21.1100  -13.1200   22.2590 H   0  0  0  0  0  0  0  0  0  0  0  0
  -25.4260  -15.1880   20.4180 N   0  0  0  0  0  0  0  0  0  0  0  0
  -24.6560  -15.8380   20.5450 H   0  0  0  0  0  0  0  0  0  0  0  0
  -26.2890  -15.6380   20.1390 H   0  0  0  0  0  0  0  0  0  0  0  0
  -33.8430  -19.7390   23.9410 C   0  0  0  0  0  1  0  0  0  0  0  0
  -32.8190  -21.4240   25.4880 C   0  0  0  0  0  1  0  0  0  0  0  0
  -32.5010  -20.3040   24.4700 C   0  0  0  0  0  3  0  0  0  0  0  0
  -30.6110  -21.7140   23.9150 O   0  0  0  0  0  0  0  0  0  0  0  0
  -30.1500  -22.7470   23.0450 C   0  0  0  0  0  2  0  0  0  0  0  0
  -29.3350  -23.7570   23.8590 C   0  0  0  0  0  2  0  0  0  0  0  0
  -29.3370  -25.0320   23.2160 O   0  0  0  0  0  0  0  0  0  0  0  0
  -28.0470  -25.5220   22.8640 C   0  0  0  0  0  2  0  0  0  0  0  0
  -27.5410  -24.9110   21.5460 C   0  0  0  0  0  2  0  0  0  0  0  0
  -28.3190  -25.3460   20.2800 C   0  0  0  0  0  2  0  0  0  0  0  0
  -28.4030  -26.7640   20.1220 O   0  0  0  0  0  0  0  0  0  0  0  0
  -24.6070  -31.8730   23.2140 C   0  0  0  0  0  0  0  0  0  0  0  0
  -27.2250  -27.4680   20.0880 C   0  0  0  0  0  0  0  0  0  0  0  0
  -23.3940  -30.4970   21.5530 C   0  0  0  0  0  3  0  0  0  0  0  0
  -24.8400  -28.9740   20.1100 C   0  0  0  0  0  0  0  0  0  0  0  0
  -25.9210  -30.8480   21.3670 C   0  0  0  0  0  2  0  0  0  0  0  0
  -25.9950  -29.4880   20.7080 C   0  0  0  0  0  0  0  0  0  0  0  0
  -27.1920  -28.7410   20.6900 C   0  0  0  0  0  3  0  0  0  0  0  0
  -26.0540  -26.9620   19.4810 C   0  0  0  0  0  3  0  0  0  0  0  0
  -24.8620  -27.7080   19.4970 C   0  0  0  0  0  3  0  0  0  0  0  0
  -23.5990  -29.8340   20.1660 C   0  0  0  0  0  2  0  0  0  0  0  0
  -24.6580  -31.0870   22.1030 N   0  0  0  0  0  0  0  0  0  0  0  0
  -23.5270  -32.1490   23.7540 O   0  0  0  0  0  0  0  0  0  0  0  0
  -22.7350  -29.4660   22.5000 C   0  0  0  0  0  0  0  0  0  0  0  0
  -21.4090  -29.2990   22.3730 N   0  0  0  0  0  0  0  0  0  0  0  0
  -23.4140  -28.8200   23.3010 O   0  0  0  0  0  0  0  0  0  0  0  0
  -20.9190  -29.8720   21.7010 H   0  0  0  0  0  0  0  0  0  0  0  0
  -18.0260  -28.1350   22.8490 C   0  0  0  0  0  0  0  0  0  0  0  0
  -20.5840  -28.3610   23.1340 C   0  0  0  0  0  3  0  0  0  0  0  0
  -20.6740  -26.9350   22.5440 C   0  0  0  0  0  2  0  0  0  0  0  0
  -19.5740  -26.6380   21.5210 C   0  0  0  0  0  2  0  0  0  0  0  0
  -18.1910  -26.7910   22.1600 C   0  0  0  0  0  2  0  0  0  0  0  0
  -19.1510  -28.8790   23.2920 C   0  0  0  0  0  0  0  0  0  0  0  0
  -18.9460  -30.1410   23.8910 C   0  0  0  0  0  3  0  0  0  0  0  0
  -17.6470  -30.6580   24.0510 C   0  0  0  0  0  3  0  0  0  0  0  0
  -16.5350  -29.9060   23.6310 C   0  0  0  0  0  3  0  0  0  0  0  0
  -16.7250  -28.6490   23.0320 C   0  0  0  0  0  3  0  0  0  0  0  0
  -25.8990  -32.4830   23.8420 C   0  0  0  0  0  3  0  0  0  0  0  0
  -25.5910  -33.8640   24.2360 N   0  0  0  0  0  0  0  0  0  0  0  0
  -25.9040  -34.9470   23.5150 C   0  0  0  0  0  0  0  0  0  0  0  0
  -26.5590  -34.8900   22.4700 O   0  0  0  0  0  0  0  0  0  0  0  0
  -24.9960  -33.9830   25.0430 H   0  0  0  0  0  0  0  0  0  0  0  0
  -24.1510  -36.7330   23.2650 C   0  0  0  0  0  1  0  0  0  0  0  0
  -25.4100  -36.3090   24.0340 C   0  0  0  0  0  3  0  0  0  0  0  0
  -27.5570  -37.1780   24.8450 C   0  0  0  0  0  1  0  0  0  0  0  0
  -26.4290  -37.3760   23.9410 N   0  0  0  0  0  0  0  0  0  0  0  0
  -26.0170  -38.2850   24.1390 H   0  0  0  0  0  0  0  0  0  0  0  0
  -26.4470  -31.6580   25.0720 C   0  0  1  0  0  0  0  0  0  0  0  0
  -25.3760  -31.3640   26.1480 C   0  0  0  0  0  1  0  0  0  0  0  0
  -27.0300  -30.3020   24.6080 C   0  0  0  0  0  1  0  0  0  0  0  0
  -27.6080  -32.4280   25.7450 C   0  0  0  0  0  1  0  0  0  0  0  0
  1  2  1  0
  1 49  1  0
  1 48  1  0
  3  5  1  0
  3  2  1  0
  4  2  2  0
  6  3  1  0
  6  7  1  0
  8 16  1  0
  9 14  1  0
 10 11  1  0
 10  9  1  0
 12 11  1  0
 12 21  1  0
 12 13  1  0
 14  8  1  0
 14 13  1  0
 15  8  2  0
 16 17  1  0
 16  7  1  0
 18 19  2  0
 19 38  1  0
 20 19  1  0
 20 23  1  0
 21 18  1  0
 21 22  1  0
 22 20  2  0
 23 24  1  0
 24 25  2  0
 26 29  1  0
 26 25  1  0
 27 26  2  0
 28 27  1  0
 28 23  2  0
 29 30  1  0
 30 31  1  0
 31 32  2  0
 33 32  1  0
 33 37  1  0
 34 33  2  0
 35 30  2  0
 35 34  1  0
 36 35  1  0
 38 39  1  0
 39 42  1  0
 39 41  1  0
 40 38  2  0
 43 44  1  0
 43 18  1  0
 45 43  1  0
 46 48  1  0
 48 47  1  0
 50 51  1  0
 50 49  1  0
 52 51  1  0
 53 52  1  0
 54 53  1  0
 55 54  1  0
 56 55  1  0
 57 68  2  0
 58 56  1  0
 58 63  1  0
 59 67  1  0
 59 69  1  0
 60 66  1  0
 60 62  1  0
 61 67  1  0
 62 61  1  0
 63 62  2  0
 64 65  1  0
 64 58  2  0
 65 60  2  0
 66 59  1  0
 67 57  1  0
 69 71  2  0
 70 69  1  0
 72 70  1  0
 73 82  2  0
 73 78  1  0
 74 70  1  0
 74 78  1  0
 75 74  1  0
 76 77  1  0
 76 75  1  0
 77 73  1  0
 78 79  2  0
 79 80  1  0
 81 80  2  0
 82 81  1  0
 83 57  1  0
 83 84  1  0
 83 93  1  0
 84 87  1  0
 85 89  1  0
 85 84  1  0
 86 85  2  0
 89 88  1  0
 91 89  1  0
 91 92  1  0
 91 90  1  0
 93 96  1  1
 93 94  1  0
 95 93  1  0
M  ISO  4   8 100  16 100  55 101  56 101
M  END
>  <TORSDO>  (18) 
F 27

>  <SCORE>  (18) 
-5.560

>  <name>  (18) 
18

>  <ligand_id>  (18) 
18

>  <original_smiles>  (18) 
[H]c1c([H])c([H])c2c(c1[H])C([H])([H])C([H])([H])C([H])([H])C2([H])N([H])C(=O)C1([H])N(C(=O)C([H])(N([H])C(=O)C([H])(N([H])C([H])([H])[H])C([H])([H])[H])C(C([H])([H])[H])(C([H])([H])[H])C([H])([H])[H])C([H])([H])c2c([H])c(OC([H])([H])C([H])([H])C([H])([H])OC([H])([H])C([H])([H])OC([H])(C(=O)N([H])C([H])([H])C([H])([H])N([H])C(=O)N3C([H])([H])C([H])([H])C([H])([H])C([H])(n4nc(-c5c([H])c([H])c(Oc6c([H])c([H])c(F)c([H])c6F)c([H])c5[H])c(C(=O)N([H])[H])c4N([H])[H])C3([H])[H])C([H])(C([H])([H])[H])C([H])([H])[H])c([H])c([H])c2C1([H])[H]

>  <smiles>  (18) 
[H]c1c([H])c([H])c2c(c1[H])C([H])([H])C([H])([H])C([H])([H])C2([H])N([H])C(=O)C1([H])N(C(=O)C([H])(N([H])C(=O)C([H])(N([H])C([H])([H])[H])C([H])([H])[H])C(C([H])([H])[H])(C([H])([H])[H])C([H])([H])[H])C([H])([H])c2c([H])c(OC([H])([H])C([H])([H])C([H])([H])OC([H])([H])C([H])([H])OC([H])(C(=O)N([H])C([H])([H])C([H])([H])N([H])C(=O)N3C([H])([H])C([H])([H])C([H])([H])C([H])(n4nc(-c5c([H])c([H])c(Oc6c([H])c([H])c(F)c([H])c6F)c([H])c5[H])c(C(=O)N([H])[H])c4N([H])[H])C3([H])[H])C([H])(C([H])([H])[H])C([H])([H])[H])c([H])c([H])c2C1([H])[H]

$$$$
19:0:0
     RDKit          3D

 99106  0  0  1  0  0  0  0  0999 V2000
  -24.1880  -22.1970   20.1840 C   0  0  0  0  0  2  0  0  0  0  0  0
  -24.1790  -22.8100   18.8980 O   0  0  0  0  0  0  0  0  0  0  0  0
  -24.3440  -21.9040   17.8080 C   0  0  0  0  0  2  0  0  0  0  0  0
  -25.8180  -21.6910   17.4170 C   0  0  0  0  0  2  0  0  0  0  0  0
  -27.4980  -20.4360   18.7770 C   0  0  0  0  0  0  0  0  0  0  0  0
  -26.3840  -20.4980   18.0380 N   0  0  0  0  0  0  0  0  0  0  0  0
  -28.1830  -21.4240   19.0480 O   0  0  0  0  0  0  0  0  0  0  0  0
  -25.8870  -19.6320   17.8710 H   0  0  0  0  0  0  0  0  0  0  0  0
  -27.8760  -19.0440   19.2760 C   0  0  0  0  0  2  0  0  0  0  0  0
  -29.0180  -18.9880   20.3150 C   0  0  0  0  0  2  0  0  0  0  0  0
  -29.3380  -17.5250   20.6350 C   0  0  0  0  0  2  0  0  0  0  0  0
  -30.4620  -17.2660   21.6510 C   0  0  0  0  0  2  0  0  0  0  0  0
  -31.1980  -14.9680   21.0920 C   0  0  0  0  0  0  0  0  0  0  0  0
  -30.9580  -12.9220   19.7420 C   0  0  0  0  0  2  0  0  0  0  0  0
  -30.0820  -13.2210   18.5100 C   0  0  0  0  0  2  0  0  0  0  0  0
  -28.5820  -13.0900   18.8420 C   0  0  0  0  0  2  0  0  0  0  0  0
  -28.1840  -13.8430   20.1370 C   0  0  0  0  0  3  0  0  0  0  0  0
  -29.1630  -13.4910   21.2830 C   0  0  0  0  0  2  0  0  0  0  0  0
  -30.5370  -13.8100   20.8340 N   0  0  0  0  0  0  0  0  0  0  0  0
  -32.2760  -15.2740   20.5750 O   0  0  0  0  0  0  0  0  0  0  0  0
  -30.5180  -15.8240   21.8640 N   0  0  0  0  0  0  0  0  0  0  0  0
  -29.7210  -15.4220   22.3350 H   0  0  0  0  0  0  0  0  0  0  0  0
  -25.7470  -14.4570   20.7240 C   0  0  0  0  0  0  0  0  0  0  0  0
  -24.6470  -13.6840   20.9760 C   0  0  0  0  0  0  0  0  0  0  0  0
  -25.0870  -12.3300   20.8760 C   0  0  0  0  0  0  0  0  0  0  0  0
  -26.7940  -13.5730   20.5030 N   0  0  0  0  0  0  0  0  0  0  0  0
  -26.3910  -12.2830   20.6450 N   0  0  0  0  0  0  0  0  0  0  0  0
  -24.3280  -11.0730   20.9340 C   0  0  0  0  0  0  0  0  0  0  0  0
  -24.6710  -10.0440   21.8390 C   0  0  0  0  0  3  0  0  0  0  0  0
  -23.9160   -8.8540   21.8870 C   0  0  0  0  0  3  0  0  0  0  0  0
  -22.8030   -8.6820   21.0290 C   0  0  0  0  0  0  0  0  0  0  0  0
  -22.4800   -9.6990   20.1140 C   0  0  0  0  0  3  0  0  0  0  0  0
  -23.2370  -10.8820   20.0640 C   0  0  0  0  0  3  0  0  0  0  0  0
  -22.0290   -7.5480   20.9890 O   0  0  0  0  0  0  0  0  0  0  0  0
  -21.8160   -6.7840   22.1070 C   0  0  0  0  0  0  0  0  0  0  0  0
  -21.2230   -7.3180   23.2720 C   0  0  0  0  0  3  0  0  0  0  0  0
  -20.9580   -6.4790   24.3740 C   0  0  0  0  0  3  0  0  0  0  0  0
  -21.2750   -5.1100   24.3120 C   0  0  0  0  0  0  0  0  0  0  0  0
  -21.8620   -4.5770   23.1510 C   0  0  0  0  0  3  0  0  0  0  0  0
  -22.1310   -5.4110   22.0530 C   0  0  0  0  0  0  0  0  0  0  0  0
  -22.6770   -4.8890   20.9280 F   0  0  0  0  0  0  0  0  0  0  0  0
  -21.0120   -4.3030   25.3680 F   0  0  0  0  0  0  0  0  0  0  0  0
  -23.2430  -14.1700   21.2010 C   0  0  0  0  0  0  0  0  0  0  0  0
  -22.4600  -13.4350   21.9810 N   0  0  0  0  0  0  0  0  0  0  0  0
  -22.8510  -15.2340   20.7240 O   0  0  0  0  0  0  0  0  0  0  0  0
  -22.7930  -12.5750   22.3930 H   0  0  0  0  0  0  0  0  0  0  0  0
  -21.5130  -13.7350   22.1690 H   0  0  0  0  0  0  0  0  0  0  0  0
  -25.9360  -15.8330   20.6430 N   0  0  0  0  0  0  0  0  0  0  0  0
  -25.1620  -16.4800   20.7270 H   0  0  0  0  0  0  0  0  0  0  0  0
  -26.7960  -16.2720   20.3450 H   0  0  0  0  0  0  0  0  0  0  0  0
  -24.1940  -23.2750   21.2750 C   0  0  0  0  0  2  0  0  0  0  0  0
  -25.3780  -24.0570   21.1720 O   0  0  0  0  0  0  0  0  0  0  0  0
  -25.4070  -25.1240   22.1120 C   0  0  0  0  0  2  0  0  0  0  0  0
  -26.6890  -25.9390   21.9110 C   0  0  0  0  0  2  0  0  0  0  0  0
  -27.8220  -25.1100   22.1570 O   0  0  0  0  0  0  0  0  0  0  0  0
  -29.0770  -25.7300   21.8950 C   0  0  0  0  0  2  0  0  0  0  0  0
  -29.6720  -25.2680   20.5510 C   0  0  0  0  0  2  0  0  0  0  0  0
  -28.8850  -25.7130   19.3120 C   0  0  0  0  0  2  0  0  0  0  0  0
  -28.7890  -27.1430   19.2990 O   0  0  0  0  0  0  0  0  0  0  0  0
  -24.5670  -31.4640   23.0340 C   0  0  0  0  0  0  0  0  0  0  0  0
  -27.5410  -27.7170   19.3920 C   0  0  0  0  0  0  0  0  0  0  0  0
  -23.4560  -30.1370   21.2690 C   0  0  0  0  0  3  0  0  0  0  0  0
  -25.0060  -28.9440   19.6360 C   0  0  0  0  0  0  0  0  0  0  0  0
  -25.9230  -30.7850   21.0570 C   0  0  0  0  0  2  0  0  0  0  0  0
  -26.1240  -29.5170   20.2560 C   0  0  0  0  0  0  0  0  0  0  0  0
  -27.3920  -28.9090   20.1340 C   0  0  0  0  0  3  0  0  0  0  0  0
  -26.4070  -27.1660   18.7530 C   0  0  0  0  0  3  0  0  0  0  0  0
  -25.1440  -27.7680   18.8820 C   0  0  0  0  0  3  0  0  0  0  0  0
  -23.6830  -29.6500   19.8130 C   0  0  0  0  0  2  0  0  0  0  0  0
  -24.6680  -30.8060   21.8450 N   0  0  0  0  0  0  0  0  0  0  0  0
  -23.4830  -31.5560   23.6290 O   0  0  0  0  0  0  0  0  0  0  0  0
  -22.9570  -28.9440   22.1150 C   0  0  0  0  0  0  0  0  0  0  0  0
  -21.6720  -28.5930   21.9500 N   0  0  0  0  0  0  0  0  0  0  0  0
  -23.7200  -28.3440   22.8770 O   0  0  0  0  0  0  0  0  0  0  0  0
  -21.1120  -29.1420   21.3120 H   0  0  0  0  0  0  0  0  0  0  0  0
  -18.5140  -26.8600   22.2090 C   0  0  0  0  0  0  0  0  0  0  0  0
  -20.9900  -27.4830   22.6140 C   0  0  0  0  0  3  0  0  0  0  0  0
  -21.3350  -26.1360   21.9380 C   0  0  0  0  0  2  0  0  0  0  0  0
  -20.3290  -25.7300   20.8550 C   0  0  0  0  0  2  0  0  0  0  0  0
  -18.9210  -25.6100   21.4470 C   0  0  0  0  0  2  0  0  0  0  0  0
  -19.4860  -27.7480   22.7410 C   0  0  0  0  0  0  0  0  0  0  0  0
  -19.0540  -28.9130   23.4100 C   0  0  0  0  0  3  0  0  0  0  0  0
  -17.6830  -29.1960   23.5550 C   0  0  0  0  0  3  0  0  0  0  0  0
  -16.7260  -28.3030   23.0410 C   0  0  0  0  0  3  0  0  0  0  0  0
  -17.1410  -27.1380   22.3710 C   0  0  0  0  0  3  0  0  0  0  0  0
  -25.8020  -32.1570   23.6890 C   0  0  0  0  0  3  0  0  0  0  0  0
  -26.3510  -31.3840   24.9510 C   0  0  1  0  0  0  0  0  0  0  0  0
  -25.2640  -31.0450   25.9980 C   0  0  0  0  0  1  0  0  0  0  0  0
  -27.0230  -30.0560   24.5270 C   0  0  0  0  0  1  0  0  0  0  0  0
  -27.4410  -32.2300   25.6500 C   0  0  0  0  0  1  0  0  0  0  0  0
  -25.4020  -33.5230   24.0490 N   0  0  0  0  0  0  0  0  0  0  0  0
  -25.7110  -34.6190   23.3420 C   0  0  0  0  0  0  0  0  0  0  0  0
  -26.4330  -34.5890   22.3410 O   0  0  0  0  0  0  0  0  0  0  0  0
  -24.7600  -33.6170   24.8230 H   0  0  0  0  0  0  0  0  0  0  0  0
  -23.9120  -36.3310   22.9520 C   0  0  0  0  0  1  0  0  0  0  0  0
  -25.1270  -35.9610   23.8160 C   0  0  0  0  0  3  0  0  0  0  0  0
  -27.1610  -36.9240   24.7990 C   0  0  0  0  0  1  0  0  0  0  0  0
  -26.1060  -37.0700   23.8010 N   0  0  0  0  0  0  0  0  0  0  0  0
  -25.6420  -37.9610   23.9560 H   0  0  0  0  0  0  0  0  0  0  0  0
  1 51  1  0
  2  1  1  0
  3  2  1  0
  4  3  1  0
  4  6  1  0
  5  7  2  0
  5  9  1  0
  6  5  1  0
  8  6  1  0
  9 10  1  0
 10 11  1  0
 11 12  1  0
 12 21  1  0
 13 21  1  0
 14 19  1  0
 15 16  1  0
 15 14  1  0
 17 16  1  0
 17 26  1  0
 17 18  1  0
 19 13  1  0
 19 18  1  0
 20 13  2  0
 21 22  1  0
 23 24  2  0
 24 43  1  0
 25 28  1  0
 25 24  1  0
 26 27  1  0
 26 23  1  0
 27 25  2  0
 28 29  1  0
 29 30  2  0
 31 30  1  0
 32 31  2  0
 33 32  1  0
 33 28  2  0
 34 31  1  0
 34 35  1  0
 35 36  1  0
 36 37  2  0
 38 37  1  0
 38 42  1  0
 39 38  2  0
 40 35  2  0
 40 39  1  0
 41 40  1  0
 43 44  1  0
 44 47  1  0
 44 46  1  0
 45 43  2  0
 48 23  1  0
 48 49  1  0
 50 48  1  0
 52 51  1  0
 52 53  1  0
 54 53  1  0
 54 55  1  0
 56 55  1  0
 57 56  1  0
 58 57  1  0
 59 58  1  0
 59 61  1  0
 60 71  2  0
 61 66  1  0
 62 70  1  0
 62 72  1  0
 63 69  1  0
 63 65  1  0
 64 70  1  0
 65 64  1  0
 66 65  2  0
 67 68  1  0
 67 61  2  0
 68 63  2  0
 69 62  1  0
 70 60  1  0
 72 74  2  0
 73 72  1  0
 75 73  1  0
 76 85  2  0
 76 81  1  0
 77 73  1  0
 77 81  1  0
 78 77  1  0
 79 80  1  0
 79 78  1  0
 80 76  1  0
 81 82  2  0
 82 83  1  0
 84 83  2  0
 85 84  1  0
 86 60  1  0
 86 91  1  0
 86 87  1  0
 87 90  1  1
 87 88  1  0
 89 87  1  0
 91 94  1  0
 92 96  1  0
 92 91  1  0
 93 92  2  0
 96 95  1  0
 98 96  1  0
 98 99  1  0
 98 97  1  0
M  ISO  4  13 100  21 100  58 101  59 101
M  END
>  <TORSDO>  (19) 
F 32

>  <SCORE>  (19) 
-7.903

>  <name>  (19) 
19

>  <ligand_id>  (19) 
19

>  <original_smiles>  (19) 
[H]c1c([H])c([H])c2c(c1[H])C([H])([H])C([H])([H])C([H])([H])C2([H])N([H])C(=O)C1([H])N(C(=O)C([H])(N([H])C(=O)C([H])(N([H])C([H])([H])[H])C([H])([H])[H])C(C([H])([H])[H])(C([H])([H])[H])C([H])([H])[H])C([H])([H])c2c([H])c(OC([H])([H])C([H])([H])C([H])([H])OC([H])([H])C([H])([H])OC([H])([H])C([H])([H])OC([H])([H])C([H])([H])N([H])C(=O)C([H])([H])C([H])([H])C([H])([H])C([H])([H])N([H])C(=O)N3C([H])([H])C([H])([H])C([H])([H])C([H])(n4nc(-c5c([H])c([H])c(Oc6c([H])c([H])c(F)c([H])c6F)c([H])c5[H])c(C(=O)N([H])[H])c4N([H])[H])C3([H])[H])c([H])c([H])c2C1([H])[H]

>  <smiles>  (19) 
[H]c1c([H])c([H])c2c(c1[H])C([H])([H])C([H])([H])C([H])([H])C2([H])N([H])C(=O)C1([H])N(C(=O)C([H])(N([H])C(=O)C([H])(N([H])C([H])([H])[H])C([H])([H])[H])C(C([H])([H])[H])(C([H])([H])[H])C([H])([H])[H])C([H])([H])c2c([H])c(OC([H])([H])C([H])([H])C([H])([H])OC([H])([H])C([H])([H])OC([H])([H])C([H])([H])OC([H])([H])C([H])([H])N([H])C(=O)C([H])([H])C([H])([H])C([H])([H])C([H])([H])N([H])C(=O)N3C([H])([H])C([H])([H])C([H])([H])C([H])(n4nc(-c5c([H])c([H])c(Oc6c([H])c([H])c(F)c([H])c6F)c([H])c5[H])c(C(=O)N([H])[H])c4N([H])[H])C3([H])[H])c([H])c([H])c2C1([H])[H]

$$$$
20:0:0
     RDKit          3D

 97104  0  0  1  0  0  0  0  0999 V2000
  -28.5080  -18.0190   17.9450 C   0  0  0  0  0  2  0  0  0  0  0  0
  -29.9590  -16.7950   19.5090 C   0  0  0  0  0  0  0  0  0  0  0  0
  -28.9270  -16.7680   18.6220 N   0  0  0  0  0  0  0  0  0  0  0  0
  -31.0700  -16.3440   19.2010 O   0  0  0  0  0  0  0  0  0  0  0  0
  -29.6600  -17.2940   20.9660 C   0  0  0  0  0  0  0  0  0  0  0  0
  -28.9430  -18.6160   21.1350 C   0  0  0  0  0  1  0  0  0  0  0  0
  -30.0250  -16.7870   22.0970 N   0  0  0  0  0  0  0  0  0  0  0  0
  -30.9020  -15.7270   22.1020 C   0  0  0  0  0  0  0  0  0  0  0  0
  -31.0990  -13.3760   21.4230 C   0  0  0  0  0  2  0  0  0  0  0  0
  -30.5290  -13.1470   20.0170 C   0  0  0  0  0  2  0  0  0  0  0  0
  -29.0190  -12.8650   20.0940 C   0  0  0  0  0  2  0  0  0  0  0  0
  -28.2400  -13.9080   20.9390 C   0  0  0  0  0  3  0  0  0  0  0  0
  -28.9420  -14.1520   22.2910 C   0  0  0  0  0  2  0  0  0  0  0  0
  -30.3550  -14.4850   22.0360 N   0  0  0  0  0  0  0  0  0  0  0  0
  -32.1110  -15.9210   22.0170 O   0  0  0  0  0  0  0  0  0  0  0  0
  -25.7010  -14.3080   21.0890 C   0  0  0  0  0  0  0  0  0  0  0  0
  -24.6450  -13.4520   21.2120 C   0  0  0  0  0  0  0  0  0  0  0  0
  -25.2150  -12.1410   21.3100 C   0  0  0  0  0  0  0  0  0  0  0  0
  -26.8420  -13.5240   21.1180 N   0  0  0  0  0  0  0  0  0  0  0  0
  -26.5410  -12.2140   21.3060 N   0  0  0  0  0  0  0  0  0  0  0  0
  -24.5780  -10.8190   21.3360 C   0  0  0  0  0  0  0  0  0  0  0  0
  -24.8790   -9.8660   22.3360 C   0  0  0  0  0  3  0  0  0  0  0  0
  -24.2260   -8.6140   22.3530 C   0  0  0  0  0  3  0  0  0  0  0  0
  -23.2670   -8.2970   21.3630 C   0  0  0  0  0  0  0  0  0  0  0  0
  -22.9870   -9.2420   20.3570 C   0  0  0  0  0  3  0  0  0  0  0  0
  -23.6380  -10.4860   20.3410 C   0  0  0  0  0  3  0  0  0  0  0  0
  -22.6130   -7.0930   21.2840 O   0  0  0  0  0  0  0  0  0  0  0  0
  -22.2500   -6.3970   22.4100 C   0  0  0  0  0  0  0  0  0  0  0  0
  -21.4830   -6.9970   23.4330 C   0  0  0  0  0  3  0  0  0  0  0  0
  -21.0770   -6.2330   24.5440 C   0  0  0  0  0  3  0  0  0  0  0  0
  -21.4250   -4.8700   24.6280 C   0  0  0  0  0  0  0  0  0  0  0  0
  -22.1800   -4.2710   23.6060 C   0  0  0  0  0  3  0  0  0  0  0  0
  -22.5830   -5.0310   22.4950 C   0  0  0  0  0  0  0  0  0  0  0  0
  -23.3010   -4.4440   21.5020 F   0  0  0  0  0  0  0  0  0  0  0  0
  -21.0240   -4.1390   25.6900 F   0  0  0  0  0  0  0  0  0  0  0  0
  -23.1870  -13.8080   21.1350 C   0  0  0  0  0  0  0  0  0  0  0  0
  -22.3260  -13.0830   21.8400 N   0  0  0  0  0  0  0  0  0  0  0  0
  -22.8080  -14.7760   20.4740 O   0  0  0  0  0  0  0  0  0  0  0  0
  -21.3470  -13.3280   21.8230 H   0  0  0  0  0  0  0  0  0  0  0  0
  -22.6230  -12.2990   22.4030 H   0  0  0  0  0  0  0  0  0  0  0  0
  -25.7960  -15.6880   20.9290 N   0  0  0  0  0  0  0  0  0  0  0  0
  -24.9850  -16.2880   20.8460 H   0  0  0  0  0  0  0  0  0  0  0  0
  -26.6730  -16.1900   20.9210 H   0  0  0  0  0  0  0  0  0  0  0  0
  -28.7890  -15.5720   17.7460 C   0  0  0  0  0  2  0  0  0  0  0  0
  -27.4920  -14.7760   18.0140 C   0  0  0  0  0  2  0  0  0  0  0  0
  -27.4940  -13.2970   17.5800 C   0  0  0  0  0  2  0  0  0  0  0  0
  -28.3280  -12.5070   18.4130 O   0  0  0  0  0  0  0  0  0  0  0  0
  -28.3240  -10.3100   17.2850 C   0  0  0  0  0  1  0  0  0  0  0  0
  -27.9320  -11.1400   18.5100 C   0  0  0  0  0  2  0  0  0  0  0  0
  -27.1220  -18.5110   18.4310 C   0  0  0  0  0  2  0  0  0  0  0  0
  -26.9870  -19.9190   18.2990 O   0  0  0  0  0  0  0  0  0  0  0  0
  -27.1980  -20.6530   19.5020 C   0  0  0  0  0  2  0  0  0  0  0  0
  -27.3590  -22.1070   19.0760 C   0  0  0  0  0  2  0  0  0  0  0  0
  -27.8490  -22.9550   20.1100 O   0  0  0  0  0  0  0  0  0  0  0  0
  -27.5040  -24.2850   19.7670 C   0  0  0  0  0  2  0  0  0  0  0  0
  -28.1720  -25.3800   20.6070 C   0  0  0  0  0  2  0  0  0  0  0  0
  -28.2200  -26.6300   19.9090 O   0  0  0  0  0  0  0  0  0  0  0  0
  -24.5340  -31.6910   23.2630 C   0  0  0  0  0  0  0  0  0  0  0  0
  -27.0610  -27.3670   19.9590 C   0  0  0  0  0  0  0  0  0  0  0  0
  -23.2840  -30.3790   21.5770 C   0  0  0  0  0  3  0  0  0  0  0  0
  -24.6970  -28.8980   20.0660 C   0  0  0  0  0  0  0  0  0  0  0  0
  -25.8120  -30.7140   21.3700 C   0  0  0  0  0  2  0  0  0  0  0  0
  -25.8650  -29.3690   20.6790 C   0  0  0  0  0  0  0  0  0  0  0  0
  -27.0500  -28.6030   20.6360 C   0  0  0  0  0  3  0  0  0  0  0  0
  -25.8850  -26.9320   19.3070 C   0  0  0  0  0  3  0  0  0  0  0  0
  -24.6990  -27.6720   19.3840 C   0  0  0  0  0  3  0  0  0  0  0  0
  -23.4700  -29.7700   20.1640 C   0  0  0  0  0  2  0  0  0  0  0  0
  -24.5620  -30.9390   22.1300 N   0  0  0  0  0  0  0  0  0  0  0  0
  -23.4630  -31.9570   23.8280 O   0  0  0  0  0  0  0  0  0  0  0  0
  -22.6280  -29.3260   22.4960 C   0  0  0  0  0  0  0  0  0  0  0  0
  -21.3010  -29.1600   22.3620 N   0  0  0  0  0  0  0  0  0  0  0  0
  -23.3080  -28.6640   23.2850 O   0  0  0  0  0  0  0  0  0  0  0  0
  -20.8160  -29.7440   21.6980 H   0  0  0  0  0  0  0  0  0  0  0  0
  -17.9220  -27.9470   22.7740 C   0  0  0  0  0  0  0  0  0  0  0  0
  -20.4750  -28.2050   23.0970 C   0  0  0  0  0  3  0  0  0  0  0  0
  -20.5930  -26.7870   22.4940 C   0  0  0  0  0  2  0  0  0  0  0  0
  -19.5100  -26.4840   21.4540 C   0  0  0  0  0  2  0  0  0  0  0  0
  -18.1150  -26.6100   22.0760 C   0  0  0  0  0  2  0  0  0  0  0  0
  -19.0320  -28.7020   23.2400 C   0  0  0  0  0  0  0  0  0  0  0  0
  -18.7990  -29.9530   23.8540 C   0  0  0  0  0  3  0  0  0  0  0  0
  -17.4930  -30.4510   24.0040 C   0  0  0  0  0  3  0  0  0  0  0  0
  -16.3970  -29.6940   23.5540 C   0  0  0  0  0  3  0  0  0  0  0  0
  -16.6130  -28.4440   22.9480 C   0  0  0  0  0  3  0  0  0  0  0  0
  -25.8410  -32.2710   23.8890 C   0  0  0  0  0  3  0  0  0  0  0  0
  -25.5880  -33.6770   24.2280 N   0  0  0  0  0  0  0  0  0  0  0  0
  -25.9600  -34.7190   23.4740 C   0  0  0  0  0  0  0  0  0  0  0  0
  -26.6260  -34.5940   22.4420 O   0  0  0  0  0  0  0  0  0  0  0  0
  -25.0030  -33.8460   25.0340 H   0  0  0  0  0  0  0  0  0  0  0  0
  -24.2970  -36.5710   23.1180 C   0  0  0  0  0  1  0  0  0  0  0  0
  -25.5200  -36.1210   23.9330 C   0  0  0  0  0  3  0  0  0  0  0  0
  -27.6810  -36.9240   24.7770 C   0  0  0  0  0  1  0  0  0  0  0  0
  -26.5890  -37.1400   23.8300 N   0  0  0  0  0  0  0  0  0  0  0  0
  -26.2130  -38.0720   23.9830 H   0  0  0  0  0  0  0  0  0  0  0  0
  -26.3340  -31.4670   25.1540 C   0  0  1  0  0  0  0  0  0  0  0  0
  -25.2390  -31.2700   26.2300 C   0  0  0  0  0  1  0  0  0  0  0  0
  -26.8510  -30.0690   24.7430 C   0  0  0  0  0  1  0  0  0  0  0  0
  -27.5250  -32.2030   25.8120 C   0  0  0  0  0  1  0  0  0  0  0  0
  1 50  1  0
  1  3  1  0
  2  5  1  0
  3  2  1  0
  4  2  2  0
  5  6  1  0
  5  7  2  0
  7  8  1  0
  9 14  1  0
 10 11  1  0
 10  9  1  0
 12 11  1  0
 12 19  1  0
 12 13  1  0
 14  8  1  0
 14 13  1  0
 15  8  2  0
 16 19  1  0
 16 17  2  0
 17 18  1  0
 18 21  1  0
 19 20  1  0
 20 18  2  0
 21 22  1  0
 22 23  2  0
 24 23  1  0
 25 24  2  0
 26 25  1  0
 26 21  2  0
 27 24  1  0
 27 28  1  0
 28 33  2  0
 28 29  1  0
 29 30  2  0
 30 31  1  0
 31 35  1  0
 32 31  2  0
 33 32  1  0
 34 33  1  0
 36 17  1  0
 36 37  1  0
 37 40  1  0
 38 36  2  0
 39 37  1  0
 41 16  1  0
 42 41  1  0
 43 41  1  0
 44 45  1  0
 44  3  1  0
 46 45  1  0
 46 47  1  0
 47 49  1  0
 48 49  1  0
 51 50  1  0
 51 52  1  0
 53 52  1  0
 53 54  1  0
 55 54  1  0
 55 56  1  0
 57 59  1  0
 57 56  1  0
 58 69  2  0
 59 64  1  0
 60 68  1  0
 60 70  1  0
 61 67  1  0
 61 63  1  0
 62 68  1  0
 63 62  1  0
 64 63  2  0
 65 66  1  0
 65 59  2  0
 66 61  2  0
 67 60  1  0
 68 58  1  0
 70 72  2  0
 71 70  1  0
 73 71  1  0
 74 83  2  0
 74 79  1  0
 75 71  1  0
 75 79  1  0
 76 75  1  0
 77 78  1  0
 77 76  1  0
 78 74  1  0
 79 80  2  0
 80 81  1  0
 82 81  2  0
 83 82  1  0
 84 58  1  0
 84 85  1  0
 84 94  1  0
 85 88  1  0
 86 90  1  0
 86 85  1  0
 87 86  2  0
 90 89  1  0
 92 90  1  0
 92 93  1  0
 92 91  1  0
 94 97  1  1
 94 95  1  0
 96 94  1  0
M  ISO  4   7 100   8 100  56 101  57 101
M  END
>  <TORSDO>  (20) 
F 30

>  <SCORE>  (20) 
-2.477

>  <name>  (20) 
20

>  <ligand_id>  (20) 
20

>  <original_smiles>  (20) 
[H]c1c([H])c([H])c2c(c1[H])C([H])([H])C([H])([H])C([H])([H])C2([H])N([H])C(=O)C1([H])N(C(=O)C([H])(N([H])C(=O)C([H])(N([H])C([H])([H])[H])C([H])([H])[H])C(C([H])([H])[H])(C([H])([H])[H])C([H])([H])[H])C([H])([H])c2c([H])c(OC([H])([H])C([H])([H])OC([H])([H])C([H])([H])OC([H])([H])C([H])([H])N(C(=O)C(=NC(=O)N3C([H])([H])C([H])([H])C([H])([H])C([H])(n4nc(-c5c([H])c([H])c(Oc6c([H])c([H])c(F)c([H])c6F)c([H])c5[H])c(C(=O)N([H])[H])c4N([H])[H])C3([H])[H])C([H])([H])[H])C([H])([H])C([H])([H])C([H])([H])OC([H])([H])C([H])([H])[H])c([H])c([H])c2C1([H])[H]

>  <smiles>  (20) 
[H]c1c([H])c([H])c2c(c1[H])C([H])([H])C([H])([H])C([H])([H])C2([H])N([H])C(=O)C1([H])N(C(=O)C([H])(N([H])C(=O)C([H])(N([H])C([H])([H])[H])C([H])([H])[H])C(C([H])([H])[H])(C([H])([H])[H])C([H])([H])[H])C([H])([H])c2c([H])c(OC([H])([H])C([H])([H])OC([H])([H])C([H])([H])OC([H])([H])C([H])([H])N(C(=O)C(=NC(=O)N3C([H])([H])C([H])([H])C([H])([H])C([H])(n4nc(-c5c([H])c([H])c(Oc6c([H])c([H])c(F)c([H])c6F)c([H])c5[H])c(C(=O)N([H])[H])c4N([H])[H])C3([H])[H])C([H])([H])[H])C([H])([H])C([H])([H])C([H])([H])OC([H])([H])C([H])([H])[H])c([H])c([H])c2C1([H])[H]

$$$$
21:0:0
     RDKit          3D

106112  0  0  1  0  0  0  0  0999 V2000
  -31.9540  -20.7840   23.2790 C   0  0  0  0  0  2  0  0  0  0  0  0
  -31.6340  -23.2050   22.7450 C   0  0  0  0  0  0  0  0  0  0  0  0
  -31.2380  -21.9270   22.7140 N   0  0  0  0  0  0  0  0  0  0  0  0
  -32.7420  -23.5520   23.1590 O   0  0  0  0  0  0  0  0  0  0  0  0
  -30.3260  -21.7430   22.3210 H   0  0  0  0  0  0  0  0  0  0  0  0
  -30.9850  -24.6050   20.7860 C   0  0  0  0  0  1  0  0  0  0  0  0
  -30.6200  -24.2500   22.2370 C   0  0  0  0  0  3  0  0  0  0  0  0
  -29.9830  -25.6930   24.1720 C   0  0  0  0  0  0  0  0  0  0  0  0
  -30.6640  -25.4770   23.0380 N   0  0  0  0  0  0  0  0  0  0  0  0
  -29.2340  -24.8460   24.6660 O   0  0  0  0  0  0  0  0  0  0  0  0
  -31.2900  -26.2080   22.7300 H   0  0  0  0  0  0  0  0  0  0  0  0
  -30.1410  -27.0710   24.8290 C   0  0  0  0  0  2  0  0  0  0  0  0
  -29.6900  -28.0610   23.9040 O   0  0  0  0  0  0  0  0  0  0  0  0
  -24.1490  -29.3220   28.2510 C   0  0  0  0  0  0  0  0  0  0  0  0
  -28.4620  -28.6350   24.1300 C   0  0  0  0  0  0  0  0  0  0  0  0
  -23.8530  -29.9700   25.8790 C   0  0  0  0  0  3  0  0  0  0  0  0
  -25.9630  -29.9120   24.4470 C   0  0  0  0  0  0  0  0  0  0  0  0
  -26.1780  -29.9130   26.9390 C   0  0  0  0  0  2  0  0  0  0  0  0
  -26.7250  -29.5710   25.5710 C   0  0  0  0  0  0  0  0  0  0  0  0
  -27.9720  -28.9280   25.4220 C   0  0  0  0  0  3  0  0  0  0  0  0
  -27.6910  -28.9930   23.0050 C   0  0  0  0  0  3  0  0  0  0  0  0
  -26.4380  -29.6180   23.1570 C   0  0  0  0  0  3  0  0  0  0  0  0
  -24.6440  -30.6050   24.7030 C   0  0  0  0  0  2  0  0  0  0  0  0
  -24.7190  -29.6960   27.0710 N   0  0  0  0  0  0  0  0  0  0  0  0
  -22.9190  -29.2430   28.3700 O   0  0  0  0  0  0  0  0  0  0  0  0
  -23.1170  -28.7160   25.3590 C   0  0  0  0  0  0  0  0  0  0  0  0
  -22.1060  -28.9300   24.5010 N   0  0  0  0  0  0  0  0  0  0  0  0
  -23.4700  -27.5860   25.7060 O   0  0  0  0  0  0  0  0  0  0  0  0
  -21.8730  -29.8860   24.2730 H   0  0  0  0  0  0  0  0  0  0  0  0
  -19.5470  -28.3780   22.0130 C   0  0  0  0  0  0  0  0  0  0  0  0
  -21.2940  -27.8990   23.8550 C   0  0  0  0  0  3  0  0  0  0  0  0
  -22.1000  -27.1640   22.7580 C   0  0  0  0  0  2  0  0  0  0  0  0
  -21.9180  -27.7740   21.3650 C   0  0  0  0  0  2  0  0  0  0  0  0
  -20.4420  -27.7510   20.9570 C   0  0  0  0  0  2  0  0  0  0  0  0
  -19.9550  -28.4610   23.3710 C   0  0  0  0  0  0  0  0  0  0  0  0
  -19.1000  -29.0840   24.3050 C   0  0  0  0  0  3  0  0  0  0  0  0
  -17.8600  -29.6150   23.9060 C   0  0  0  0  0  3  0  0  0  0  0  0
  -17.4540  -29.5160   22.5630 C   0  0  0  0  0  3  0  0  0  0  0  0
  -18.2940  -28.8950   21.6220 C   0  0  0  0  0  3  0  0  0  0  0  0
  -25.0130  -28.9980   29.5110 C   0  0  0  0  0  3  0  0  0  0  0  0
  -24.3220  -29.5660   30.6760 N   0  0  0  0  0  0  0  0  0  0  0  0
  -24.6690  -30.7080   31.2820 C   0  0  0  0  0  0  0  0  0  0  0  0
  -25.6640  -31.3650   30.9600 O   0  0  0  0  0  0  0  0  0  0  0  0
  -23.4670  -29.1110   30.9600 H   0  0  0  0  0  0  0  0  0  0  0  0
  -22.8330  -32.3050   31.9180 C   0  0  0  0  0  1  0  0  0  0  0  0
  -23.7710  -31.2020   32.4320 C   0  0  0  0  0  3  0  0  0  0  0  0
  -25.2490  -30.6450   34.3120 C   0  0  0  0  0  1  0  0  0  0  0  0
  -24.5300  -31.6990   33.6020 N   0  0  0  0  0  0  0  0  0  0  0  0
  -23.9090  -32.1600   34.2610 H   0  0  0  0  0  0  0  0  0  0  0  0
  -25.2700  -27.4540   29.7100 C   0  0  1  0  0  0  0  0  0  0  0  0
  -23.9820  -26.6000   29.6730 C   0  0  0  0  0  1  0  0  0  0  0  0
  -26.2270  -26.9120   28.6210 C   0  0  0  0  0  1  0  0  0  0  0  0
  -25.9650  -27.2080   31.0700 C   0  0  0  0  0  1  0  0  0  0  0  0
  -32.7510  -19.9950   22.2250 C   0  0  0  0  0  2  0  0  0  0  0  0
  -31.9180  -19.6580   21.0940 O   0  0  0  0  0  0  0  0  0  0  0  0
  -32.2720  -19.9620   19.6770 C   0  0  0  0  0  1  0  0  0  0  0  0
  -32.5400  -18.5980   17.7440 C   0  0  0  0  0  1  0  0  0  0  0  0
  -31.1390  -17.9370   16.8450 O   0  0  0  0  0  0  0  0  0  0  0  0
  -29.4120  -18.3170   16.7190 C   0  0  0  0  0  2  0  0  0  0  0  0
  -28.3930  -19.6440   17.6830 C   0  0  0  0  0  2  0  0  0  0  0  0
  -28.8190  -21.3390   17.9370 O   0  0  0  0  0  0  0  0  0  0  0  0
  -30.2290  -22.3870   18.0590 C   0  0  0  0  0  2  0  0  0  0  0  0
  -31.7380  -22.9350   16.9780 C   0  0  0  0  0  2  0  0  0  0  0  0
  -32.8940  -22.4830   15.4890 C   0  0  0  0  0  2  0  0  0  0  0  0
  -33.3930  -21.0420   14.6070 O   0  0  0  0  0  0  0  0  0  0  0  0
  -32.7950  -19.4530   14.1730 C   0  0  0  0  0  3  0  0  0  0  0  0
  -30.9500  -18.9650   13.8900 C   0  0  0  0  0  3  0  0  0  0  0  0
  -29.4900  -20.2320   13.8840 C   0  0  0  0  0  2  0  0  0  0  0  0
  -29.8320  -23.1400   12.3010 C   0  0  0  0  0  0  0  0  0  0  0  0
  -29.2510  -24.7130   10.4320 C   0  0  0  0  0  2  0  0  0  0  0  0
  -29.5080  -26.2030   10.7540 C   0  0  0  0  0  2  0  0  0  0  0  0
  -28.2390  -26.8480   11.3330 C   0  0  0  0  0  2  0  0  0  0  0  0
  -27.6510  -25.9870   12.4690 C   0  0  0  0  0  3  0  0  0  0  0  0
  -27.5430  -24.5270   12.0300 C   0  0  0  0  0  2  0  0  0  0  0  0
  -28.8760  -23.9660   11.6880 N   0  0  0  0  0  0  0  0  0  0  0  0
  -30.9230  -23.3550   11.8070 O   0  0  0  0  0  0  0  0  0  0  0  0
  -29.6710  -22.0700   13.3870 N   0  0  0  0  0  0  0  0  0  0  0  0
  -28.9980  -22.5700   13.9900 H   0  0  0  0  0  0  0  0  0  0  0  0
  -25.9310  -26.8250   14.1920 C   0  0  0  0  0  0  0  0  0  0  0  0
  -24.6360  -27.2480   14.0590 C   0  0  0  0  0  0  0  0  0  0  0  0
  -24.3160  -27.1090   12.6740 C   0  0  0  0  0  0  0  0  0  0  0  0
  -26.3450  -26.4690   12.9160 N   0  0  0  0  0  0  0  0  0  0  0  0
  -25.3380  -26.5850   12.0120 N   0  0  0  0  0  0  0  0  0  0  0  0
  -23.1140  -27.5030   11.9280 C   0  0  0  0  0  0  0  0  0  0  0  0
  -22.4360  -26.5970   11.0840 C   0  0  0  0  0  3  0  0  0  0  0  0
  -21.2770  -27.0010   10.3880 C   0  0  0  0  0  3  0  0  0  0  0  0
  -20.7840  -28.3180   10.5350 C   0  0  0  0  0  0  0  0  0  0  0  0
  -21.4730  -29.2210   11.3640 C   0  0  0  0  0  3  0  0  0  0  0  0
  -22.6280  -28.8200   12.0520 C   0  0  0  0  0  3  0  0  0  0  0  0
  -19.6770  -28.8060    9.8800 O   0  0  0  0  0  0  0  0  0  0  0  0
  -18.6670  -27.9800    9.4530 C   0  0  0  0  0  0  0  0  0  0  0  0
  -17.9820  -27.1240   10.3410 C   0  0  0  0  0  3  0  0  0  0  0  0
  -16.9010  -26.3470    9.8780 C   0  0  0  0  0  3  0  0  0  0  0  0
  -16.5030  -26.4260    8.5310 C   0  0  0  0  0  0  0  0  0  0  0  0
  -17.1810  -27.2820    7.6440 C   0  0  0  0  0  3  0  0  0  0  0  0
  -18.2590  -28.0570    8.1050 C   0  0  0  0  0  0  0  0  0  0  0  0
  -18.8950  -28.8990    7.2530 F   0  0  0  0  0  0  0  0  0  0  0  0
  -15.4630  -25.6840    8.0860 F   0  0  0  0  0  0  0  0  0  0  0  0
  -23.7750  -27.8380   15.1370 C   0  0  0  0  0  0  0  0  0  0  0  0
  -22.4630  -27.6500   15.0490 N   0  0  0  0  0  0  0  0  0  0  0  0
  -24.2670  -28.4340   16.0940 O   0  0  0  0  0  0  0  0  0  0  0  0
  -22.0550  -27.1460   14.2760 H   0  0  0  0  0  0  0  0  0  0  0  0
  -21.8560  -28.0200   15.7670 H   0  0  0  0  0  0  0  0  0  0  0  0
  -26.7930  -26.7350   15.2820 N   0  0  0  0  0  0  0  0  0  0  0  0
  -26.5260  -27.0220   16.2180 H   0  0  0  0  0  0  0  0  0  0  0  0
  -27.7250  -26.3400   15.2440 H   0  0  0  0  0  0  0  0  0  0  0  0
  2  4  2  0
  3  2  1  0
  3  1  1  0
  5  3  1  0
  7  6  1  0
  7  2  1  0
  7  9  1  0
  8 10  2  0
  8 12  1  0
  9  8  1  0
 11  9  1  0
 13 15  1  0
 13 12  1  0
 14 25  2  0
 15 20  1  0
 16 26  1  0
 16 24  1  0
 17 23  1  0
 17 19  1  0
 18 24  1  0
 19 18  1  0
 20 19  2  0
 21 22  1  0
 21 15  2  0
 22 17  2  0
 23 16  1  0
 24 14  1  0
 26 28  2  0
 27 26  1  0
 29 27  1  0
 30 35  1  0
 31 27  1  0
 32 31  1  0
 33 32  1  0
 34 33  1  0
 34 30  1  0
 35 31  1  0
 35 36  2  0
 37 36  1  0
 38 37  2  0
 39 30  2  0
 39 38  1  0
 40 14  1  0
 40 50  1  0
 40 41  1  0
 41 44  1  0
 41 42  1  0
 42 46  1  0
 43 42  2  0
 46 45  1  0
 46 48  1  0
 48 49  1  0
 48 47  1  0
 50 53  1  1
 51 50  1  0
 52 50  1  0
 54  1  1  0
 55 54  1  0
 56 55  1  0
 58 57  1  0
 59 58  1  0
 59 60  1  0
 60 61  1  0
 61 62  1  0
 63 62  1  0
 64 63  1  0
 65 64  1  0
 66 65  1  0
 67 66  2  0
 68 67  1  0
 69 77  1  0
 70 71  1  0
 70 75  1  0
 71 72  1  0
 73 72  1  0
 73 82  1  0
 74 73  1  0
 75 74  1  0
 75 69  1  0
 76 69  2  0
 77 68  1  0
 77 78  1  0
 79104  1  0
 80 79  2  0
 80 99  1  0
 81 80  1  0
 82 79  1  0
 83 81  2  0
 83 82  1  0
 84 89  1  0
 84 81  1  0
 85 84  2  0
 86 87  2  0
 86 85  1  0
 87 88  1  0
 88 89  2  0
 90 87  1  0
 91 90  1  0
 91 92  1  0
 93 92  2  0
 94 93  1  0
 95 96  1  0
 95 94  2  0
 96 91  2  0
 97 96  1  0
 98 94  1  0
 99101  2  0
100 99  1  0
100103  1  0
102100  1  0
104105  1  0
106104  1  0
M  ISO  4  12 101  13 101  69 100  77 100
M  END
>  <TORSDO>  (21) 
F 35

>  <SCORE>  (21) 
8.742

>  <name>  (21) 
21

>  <ligand_id>  (21) 
21

>  <original_smiles>  (21) 
[H]c1c([H])c([H])c2c(c1[H])C([H])([H])C([H])([H])C([H])([H])C2([H])N([H])C(=O)C1([H])N(C(=O)C([H])(N([H])C(=O)C([H])(N([H])C([H])([H])[H])C([H])([H])[H])C(C([H])([H])[H])(C([H])([H])[H])C([H])([H])[H])C([H])([H])c2c([H])c(OC([H])([H])C(=O)N([H])C([H])(C(=O)N([H])C([H])([H])C([H])([H])OC([H])([H])C([H])([H])OC([H])([H])C([H])([H])OC([H])([H])C([H])([H])C([H])([H])OC([H])([H])C([H])([H])C([H])([H])N([H])C(=O)N3C([H])([H])C([H])([H])C([H])([H])C([H])(n4nc(-c5c([H])c([H])c(Oc6c([H])c([H])c(F)c([H])c6F)c([H])c5[H])c(C(=O)N([H])[H])c4N([H])[H])C3([H])[H])C([H])([H])[H])c([H])c([H])c2C1([H])[H]

>  <smiles>  (21) 
[H]c1c([H])c([H])c2c(c1[H])C([H])([H])C([H])([H])C([H])([H])C2([H])N([H])C(=O)C1([H])N(C(=O)C([H])(N([H])C(=O)C([H])(N([H])C([H])([H])[H])C([H])([H])[H])C(C([H])([H])[H])(C([H])([H])[H])C([H])([H])[H])C([H])([H])c2c([H])c(OC([H])([H])C(=O)N([H])C([H])(C(=O)N([H])C([H])([H])C([H])([H])OC([H])([H])C([H])([H])OC([H])([H])C([H])([H])OC([H])([H])C([H])([H])C([H])([H])OC([H])([H])C([H])([H])C([H])([H])N([H])C(=O)N3C([H])([H])C([H])([H])C([H])([H])C([H])(n4nc(-c5c([H])c([H])c(Oc6c([H])c([H])c(F)c([H])c6F)c([H])c5[H])c(C(=O)N([H])[H])c4N([H])[H])C3([H])[H])C([H])([H])[H])c([H])c([H])c2C1([H])[H]

$$$$
22:0:0
     RDKit          3D

106113  0  0  1  0  0  0  0  0999 V2000
  -24.3610  -22.1140   24.2540 C   0  0  0  0  0  3  0  0  0  0  0  0
  -24.3790  -23.2030   22.0050 C   0  0  0  0  0  0  0  0  0  0  0  0
  -24.9980  -22.6300   23.0430 N   0  0  0  0  0  0  0  0  0  0  0  0
  -23.2040  -23.5720   22.0560 O   0  0  0  0  0  0  0  0  0  0  0  0
  -25.9620  -22.3410   22.9320 H   0  0  0  0  0  0  0  0  0  0  0  0
  -25.2230  -23.2640   20.8230 C   0  0  0  0  0  3  0  0  0  0  0  0
  -25.5050  -24.4480   20.2490 C   0  0  0  0  0  3  0  0  0  0  0  0
  -26.2810  -24.6170   18.9480 C   0  0  0  0  0  2  0  0  0  0  0  0
  -26.6250  -25.9830   18.6730 O   0  0  0  0  0  0  0  0  0  0  0  0
  -24.8700  -31.1230   23.2010 C   0  0  0  0  0  0  0  0  0  0  0  0
  -25.6880  -26.9480   18.9680 C   0  0  0  0  0  0  0  0  0  0  0  0
  -23.0740  -30.4040   21.6580 C   0  0  0  0  0  3  0  0  0  0  0  0
  -23.8050  -28.9100   19.7250 C   0  0  0  0  0  0  0  0  0  0  0  0
  -25.5320  -30.2170   20.9780 C   0  0  0  0  0  2  0  0  0  0  0  0
  -25.1410  -29.0300   20.1240 C   0  0  0  0  0  0  0  0  0  0  0  0
  -26.0890  -28.0600   19.7360 C   0  0  0  0  0  3  0  0  0  0  0  0
  -24.3390  -26.8460   18.5570 C   0  0  0  0  0  3  0  0  0  0  0  0
  -23.3990  -27.8200   18.9340 C   0  0  0  0  0  3  0  0  0  0  0  0
  -22.8560  -29.9950   20.1770 C   0  0  0  0  0  2  0  0  0  0  0  0
  -24.5230  -30.5780   22.0010 N   0  0  0  0  0  0  0  0  0  0  0  0
  -24.0080  -31.5180   23.9970 O   0  0  0  0  0  0  0  0  0  0  0  0
  -22.3480  -29.3820   22.5620 C   0  0  0  0  0  0  0  0  0  0  0  0
  -21.0080  -29.3740   22.4930 N   0  0  0  0  0  0  0  0  0  0  0  0
  -22.9860  -28.6070   23.2810 O   0  0  0  0  0  0  0  0  0  0  0  0
  -20.5620  -30.0460   21.8830 H   0  0  0  0  0  0  0  0  0  0  0  0
  -17.5570  -28.3710   22.8710 C   0  0  0  0  0  0  0  0  0  0  0  0
  -20.1160  -28.4750   23.2230 C   0  0  0  0  0  3  0  0  0  0  0  0
  -20.1530  -27.0480   22.6270 C   0  0  0  0  0  2  0  0  0  0  0  0
  -19.0640  -26.8050   21.5760 C   0  0  0  0  0  2  0  0  0  0  0  0
  -17.6750  -27.0230   22.1810 C   0  0  0  0  0  2  0  0  0  0  0  0
  -18.7050  -29.0600   23.3460 C   0  0  0  0  0  0  0  0  0  0  0  0
  -18.5430  -30.3270   23.9470 C   0  0  0  0  0  3  0  0  0  0  0  0
  -17.2660  -30.9030   24.0820 C   0  0  0  0  0  3  0  0  0  0  0  0
  -16.1320  -30.2110   23.6240 C   0  0  0  0  0  3  0  0  0  0  0  0
  -16.2780  -28.9460   23.0240 C   0  0  0  0  0  3  0  0  0  0  0  0
  -26.3620  -31.2970   23.6210 C   0  0  0  0  0  3  0  0  0  0  0  0
  -26.8760  -30.1570   24.5830 C   0  0  1  0  0  0  0  0  0  0  0  0
  -25.9630  -29.9150   25.8050 C   0  0  0  0  0  1  0  0  0  0  0  0
  -27.0080  -28.8170   23.8180 C   0  0  0  0  0  1  0  0  0  0  0  0
  -28.2890  -30.5110   25.1070 C   0  0  0  0  0  1  0  0  0  0  0  0
  -26.4890  -32.6150   24.2610 N   0  0  0  0  0  0  0  0  0  0  0  0
  -27.0190  -33.6960   23.6750 C   0  0  0  0  0  0  0  0  0  0  0  0
  -27.5250  -33.6680   22.5500 O   0  0  0  0  0  0  0  0  0  0  0  0
  -26.0510  -32.7240   25.1630 H   0  0  0  0  0  0  0  0  0  0  0  0
  -25.8330  -35.8970   23.9410 C   0  0  0  0  0  1  0  0  0  0  0  0
  -26.9820  -35.0190   24.4630 C   0  0  0  0  0  3  0  0  0  0  0  0
  -29.3460  -35.1180   25.1140 C   0  0  0  0  0  1  0  0  0  0  0  0
  -28.2520  -35.7740   24.4030 N   0  0  0  0  0  0  0  0  0  0  0  0
  -28.1360  -36.7070   24.7900 H   0  0  0  0  0  0  0  0  0  0  0  0
  -25.2990  -21.1280   24.9760 C   0  0  0  0  0  0  0  0  0  0  0  0
  -25.8230  -21.5280   26.1480 N   0  0  0  0  0  0  0  0  0  0  0  0
  -25.5420  -20.0280   24.4680 O   0  0  0  0  0  0  0  0  0  0  0  0
  -25.6170  -22.4580   26.4870 H   0  0  0  0  0  0  0  0  0  0  0  0
  -26.7940  -20.7580   26.8940 C   0  0  0  0  0  2  0  0  0  0  0  0
  -27.8470  -20.3790   26.0610 O   0  0  0  0  0  0  0  0  0  0  0  0
  -29.0840  -21.0670   26.2570 C   0  0  0  0  0  2  0  0  0  0  0  0
  -29.6840  -21.3630   24.8770 C   0  0  0  0  0  2  0  0  0  0  0  0
  -29.6820  -20.1670   24.1100 O   0  0  0  0  0  0  0  0  0  0  0  0
  -30.3620  -20.2900   22.8700 C   0  0  0  0  0  2  0  0  0  0  0  0
  -30.1090  -19.0120   22.0570 C   0  0  0  0  0  2  0  0  0  0  0  0
  -31.1250  -18.8650   21.0740 O   0  0  0  0  0  0  0  0  0  0  0  0
  -31.4890  -17.5140   20.8330 C   0  0  0  0  0  2  0  0  0  0  0  0
  -31.1590  -17.0790   19.3930 C   0  0  0  0  0  2  0  0  0  0  0  0
  -32.0010  -15.0180   18.2390 C   0  0  0  0  0  0  0  0  0  0  0  0
  -31.8670  -12.5820   18.5100 C   0  0  0  0  0  2  0  0  0  0  0  0
  -30.7830  -11.9180   17.6440 C   0  0  0  0  0  2  0  0  0  0  0  0
  -29.4240  -11.9280   18.3600 C   0  0  0  0  0  2  0  0  0  0  0  0
  -29.0570  -13.3300   18.9090 C   0  0  0  0  0  3  0  0  0  0  0  0
  -30.2350  -13.9280   19.7120 C   0  0  0  0  0  2  0  0  0  0  0  0
  -31.4480  -13.9470   18.8730 N   0  0  0  0  0  0  0  0  0  0  0  0
  -32.7210  -14.9170   17.2470 O   0  0  0  0  0  0  0  0  0  0  0  0
  -32.1690  -16.1310   18.9560 N   0  0  0  0  0  0  0  0  0  0  0  0
  -32.9930  -16.6180   18.6330 H   0  0  0  0  0  0  0  0  0  0  0  0
  -27.1320  -14.3000   20.3270 C   0  0  0  0  0  0  0  0  0  0  0  0
  -26.0040  -13.7280   20.8530 C   0  0  0  0  0  0  0  0  0  0  0  0
  -26.0600  -12.3470   20.4890 C   0  0  0  0  0  0  0  0  0  0  0  0
  -27.8210  -13.2770   19.6940 N   0  0  0  0  0  0  0  0  0  0  0  0
  -27.1900  -12.0840   19.8440 N   0  0  0  0  0  0  0  0  0  0  0  0
  -25.0810  -11.2670   20.6790 C   0  0  0  0  0  0  0  0  0  0  0  0
  -25.3720  -10.1400   21.4750 C   0  0  0  0  0  3  0  0  0  0  0  0
  -24.4080   -9.1260   21.6620 C   0  0  0  0  0  3  0  0  0  0  0  0
  -23.1370   -9.2340   21.0480 C   0  0  0  0  0  0  0  0  0  0  0  0
  -22.8620  -10.3470   20.2350 C   0  0  0  0  0  3  0  0  0  0  0  0
  -23.8250  -11.3520   20.0490 C   0  0  0  0  0  3  0  0  0  0  0  0
  -22.1450   -8.2900   21.1500 O   0  0  0  0  0  0  0  0  0  0  0  0
  -21.9980   -7.5190   22.2730 C   0  0  0  0  0  0  0  0  0  0  0  0
  -21.7530   -8.0880   23.5420 C   0  0  0  0  0  3  0  0  0  0  0  0
  -21.5380   -7.2550   24.6560 C   0  0  0  0  0  3  0  0  0  0  0  0
  -21.5580   -5.8570   24.5030 C   0  0  0  0  0  0  0  0  0  0  0  0
  -21.7960   -5.2890   23.2390 C   0  0  0  0  0  3  0  0  0  0  0  0
  -22.0160   -6.1180   22.1270 C   0  0  0  0  0  0  0  0  0  0  0  0
  -22.2250   -5.5670   20.9080 F   0  0  0  0  0  0  0  0  0  0  0  0
  -21.3430   -5.0540   25.5710 F   0  0  0  0  0  0  0  0  0  0  0  0
  -24.8890  -14.4240   21.5840 C   0  0  0  0  0  0  0  0  0  0  0  0
  -24.1960  -13.7210   22.4750 N   0  0  0  0  0  0  0  0  0  0  0  0
  -24.6550  -15.6190   21.4010 O   0  0  0  0  0  0  0  0  0  0  0  0
  -24.3750  -12.7380   22.6310 H   0  0  0  0  0  0  0  0  0  0  0  0
  -23.4370  -14.1610   22.9780 H   0  0  0  0  0  0  0  0  0  0  0  0
  -27.6340  -15.5980   20.3190 N   0  0  0  0  0  0  0  0  0  0  0  0
  -27.1440  -16.3830   20.7300 H   0  0  0  0  0  0  0  0  0  0  0  0
  -28.5160  -15.8530   19.8900 H   0  0  0  0  0  0  0  0  0  0  0  0
  -23.7990  -23.2430   25.1500 C   0  0  0  0  0  2  0  0  0  0  0  0
  -24.8540  -24.1410   25.8220 C   0  0  0  0  0  2  0  0  0  0  0  0
  -24.2000  -25.2690   26.6290 C   0  0  0  0  0  2  0  0  0  0  0  0
  -24.6790  -27.1260   27.9930 C   0  0  0  0  0  1  0  0  0  0  0  0
  -25.2020  -26.1590   27.0950 O   0  0  0  0  0  0  0  0  0  0  0  0
  1 50  1  0
  1102  1  0
  2  4  2  0
  2  3  1  0
  3  1  1  0
  5  3  1  0
  6  2  1  0
  7  6  2  0
  8  7  1  0
  9  8  1  0
  9 11  1  0
 10 21  2  0
 11 16  1  0
 12 20  1  0
 12 22  1  0
 13 15  1  0
 13 19  1  0
 14 20  1  0
 15 14  1  0
 16 15  2  0
 17 18  1  0
 17 11  2  0
 18 13  2  0
 19 12  1  0
 20 10  1  0
 22 24  2  0
 23 22  1  0
 25 23  1  0
 26 35  2  0
 26 31  1  0
 27 23  1  0
 27 31  1  0
 28 27  1  0
 29 30  1  0
 29 28  1  0
 30 26  1  0
 31 32  2  0
 32 33  1  0
 34 33  2  0
 35 34  1  0
 36 10  1  0
 36 41  1  0
 36 37  1  0
 37 40  1  1
 37 38  1  0
 39 37  1  0
 41 44  1  0
 42 41  1  0
 42 46  1  0
 43 42  2  0
 46 45  1  0
 48 46  1  0
 48 49  1  0
 48 47  1  0
 50 51  1  0
 51 53  1  0
 51 54  1  0
 52 50  2  0
 55 56  1  0
 55 54  1  0
 57 56  1  0
 58 57  1  0
 59 58  1  0
 60 59  1  0
 61 60  1  0
 62 61  1  0
 63 62  1  0
 64 70  1  0
 64 72  1  0
 65 70  1  0
 66 67  1  0
 66 65  1  0
 68 67  1  0
 68 77  1  0
 68 69  1  0
 70 69  1  0
 71 64  2  0
 72 63  1  0
 73 72  1  0
 74 75  2  0
 75 94  1  0
 76 79  1  0
 76 75  1  0
 77 78  1  0
 77 74  1  0
 78 76  2  0
 79 80  1  0
 80 81  2  0
 82 85  1  0
 82 81  1  0
 83 82  2  0
 84 83  1  0
 84 79  2  0
 85 86  1  0
 86 87  1  0
 87 88  2  0
 89 88  1  0
 89 93  1  0
 90 89  2  0
 91 86  2  0
 91 90  1  0
 92 91  1  0
 94 95  1  0
 95 97  1  0
 95 98  1  0
 96 94  2  0
 99 74  1  0
 99100  1  0
101 99  1  0
102103  1  0
103104  1  0
104106  1  0
106105  1  0
M  ISO  4   8 101   9 101  64 100  72 100
M  END
>  <TORSDO>  (22) 
F 34

>  <SCORE>  (22) 
30.721

>  <name>  (22) 
22

>  <ligand_id>  (22) 
22

>  <original_smiles>  (22) 
[H]C(C(=O)N([H])C([H])(C(=O)N([H])C([H])([H])OC([H])([H])C([H])([H])OC([H])([H])C([H])([H])OC([H])([H])C([H])([H])N([H])C(=O)N1C([H])([H])C([H])([H])C([H])([H])C([H])(n2nc(-c3c([H])c([H])c(Oc4c([H])c([H])c(F)c([H])c4F)c([H])c3[H])c(C(=O)N([H])[H])c2N([H])[H])C1([H])[H])C([H])([H])C([H])([H])C([H])([H])OC([H])([H])[H])=C([H])C([H])([H])Oc1c([H])c([H])c2c(c1[H])C([H])([H])N(C(=O)C([H])(N([H])C(=O)C([H])(N([H])C([H])([H])[H])C([H])([H])[H])C(C([H])([H])[H])(C([H])([H])[H])C([H])([H])[H])C([H])(C(=O)N([H])C1([H])c3c([H])c([H])c([H])c([H])c3C([H])([H])C([H])([H])C1([H])[H])C2([H])[H]

>  <smiles>  (22) 
[H]C(C(=O)N([H])C([H])(C(=O)N([H])C([H])([H])OC([H])([H])C([H])([H])OC([H])([H])C([H])([H])OC([H])([H])C([H])([H])N([H])C(=O)N1C([H])([H])C([H])([H])C([H])([H])C([H])(n2nc(-c3c([H])c([H])c(Oc4c([H])c([H])c(F)c([H])c4F)c([H])c3[H])c(C(=O)N([H])[H])c2N([H])[H])C1([H])[H])C([H])([H])C([H])([H])C([H])([H])OC([H])([H])[H])=C([H])C([H])([H])Oc1c([H])c([H])c2c(c1[H])C([H])([H])N(C(=O)C([H])(N([H])C(=O)C([H])(N([H])C([H])([H])[H])C([H])([H])[H])C(C([H])([H])[H])(C([H])([H])[H])C([H])([H])[H])C([H])(C(=O)N([H])C1([H])c3c([H])c([H])c([H])c([H])c3C([H])([H])C([H])([H])C1([H])[H])C2([H])[H]

$$$$
23:0:0
     RDKit          3D

115122  0  0  1  0  0  0  0  0999 V2000
  -35.5100  -16.3990   18.7290 C   0  0  0  0  0  3  0  0  0  0  0  0
  -35.8910  -13.8750   18.3140 C   0  0  0  0  0  0  0  0  0  0  0  0
  -36.2440  -15.1340   18.6130 N   0  0  0  0  0  0  0  0  0  0  0  0
  -34.7510  -13.5620   17.9610 O   0  0  0  0  0  0  0  0  0  0  0  0
  -37.2290  -15.2370   18.8040 H   0  0  0  0  0  0  0  0  0  0  0  0
  -37.0670  -12.8520   18.2950 C   0  0  0  0  0  3  0  0  0  0  0  0
  -36.4660  -12.8960   15.9370 C   0  0  0  0  0  1  0  0  0  0  0  0
  -37.1300  -12.2230   17.0040 O   0  0  0  0  0  0  0  0  0  0  0  0
  -37.1320  -11.6810   19.3550 C   0  0  0  0  0  2  0  0  0  0  0  0
  -36.4430  -10.4190   19.1640 O   0  0  0  0  0  0  0  0  0  0  0  0
  -35.2560  -10.5430   18.3450 C   0  0  0  0  0  2  0  0  0  0  0  0
  -34.7040   -9.4050   17.3890 C   0  0  0  0  0  2  0  0  0  0  0  0
  -35.5220   -8.3200   16.5290 C   0  0  0  0  0  2  0  0  0  0  0  0
  -36.4490   -7.8930   17.6340 O   0  0  0  0  0  0  0  0  0  0  0  0
  -37.7260   -7.1410   17.5360 C   0  0  0  0  0  2  0  0  0  0  0  0
  -38.3000   -6.4720   16.2060 C   0  0  0  0  0  2  0  0  0  0  0  0
  -37.4970   -5.8120   14.9830 C   0  0  0  0  0  2  0  0  0  0  0  0
  -36.7920   -3.0000   14.1140 C   0  0  0  0  0  3  0  0  0  0  0  0
  -37.2400   -3.8400   12.9250 C   0  0  0  0  0  2  0  0  0  0  0  0
  -38.9460   -3.8110   13.5300 C   0  0  0  0  0  3  0  0  0  0  0  0
  -39.2180   -3.1650   15.0690 C   0  0  0  0  0  3  0  0  0  0  0  0
  -38.0330   -2.5070   16.1030 C   0  0  0  0  0  3  0  0  0  0  0  0
  -36.3300   -2.4960   15.7340 C   0  0  0  0  0  2  0  0  0  0  0  0
  -35.9430   -3.4070   14.2380 N   0  0  0  0  0  0  0  0  0  0  0  0
  -36.2730   -1.9020   13.5020 O   0  0  0  0  0  1  0  0  0  0  0  0
  -36.6980   -4.4990   14.9200 N   0  0  0  0  0  0  0  0  0  0  0  0
  -35.7300   -4.6450   15.1650 H   0  0  0  0  0  0  0  0  0  0  0  0
  -39.7100   -2.7010   18.3820 C   0  0  0  0  0  0  0  0  0  0  0  0
  -39.5240   -3.5330   19.8720 C   0  0  0  0  0  0  0  0  0  0  0  0
  -37.8670   -4.3060   19.9270 C   0  0  0  0  0  0  0  0  0  0  0  0
  -38.1850   -2.8790   17.4120 N   0  0  0  0  0  0  0  0  0  0  0  0
  -36.9920   -3.8760   18.4150 N   0  0  0  0  0  0  0  0  0  0  0  0
  -37.3280   -5.2100   20.8250 C   0  0  0  0  0  0  0  0  0  0  0  0
  -36.2730   -6.0160   20.4000 C   0  0  0  0  0  3  0  0  0  0  0  0
  -35.7280   -6.9060   21.3250 C   0  0  0  0  0  3  0  0  0  0  0  0
  -36.2550   -6.9610   22.6360 C   0  0  0  0  0  0  0  0  0  0  0  0
  -37.3400   -6.1620   23.0190 C   0  0  0  0  0  3  0  0  0  0  0  0
  -37.8810   -5.2660   22.1070 C   0  0  0  0  0  3  0  0  0  0  0  0
  -35.7730   -7.7890   23.6000 O   0  0  0  0  0  0  0  0  0  0  0  0
  -35.0260   -8.8750   23.2500 C   0  0  0  0  0  0  0  0  0  0  0  0
  -33.6630   -8.7640   22.9000 C   0  0  0  0  0  3  0  0  0  0  0  0
  -32.9230   -9.9280   22.6160 C   0  0  0  0  0  3  0  0  0  0  0  0
  -33.5420  -11.1900   22.6960 C   0  0  0  0  0  0  0  0  0  0  0  0
  -34.9030  -11.2930   23.0350 C   0  0  0  0  0  3  0  0  0  0  0  0
  -35.6440  -10.1330   23.3110 C   0  0  0  0  0  0  0  0  0  0  0  0
  -36.9520  -10.2250   23.6530 F   0  0  0  0  0  0  0  0  0  0  0  0
  -32.8270  -12.3110   22.4470 F   0  0  0  0  0  0  0  0  0  0  0  0
  -40.4230   -3.4650   21.0180 C   0  0  0  0  0  0  0  0  0  0  0  0
  -41.6000   -4.0480   20.8690 N   0  0  0  0  0  0  0  0  0  0  0  0
  -40.0730   -2.9570   22.0630 O   0  0  0  0  0  0  0  0  0  0  0  0
  -41.8680   -4.5190   20.0190 H   0  0  0  0  0  0  0  0  0  0  0  0
  -42.2510   -4.0280   21.6410 H   0  0  0  0  0  0  0  0  0  0  0  0
  -40.6550   -1.9430   17.7820 N   0  0  0  0  0  0  0  0  0  0  0  0
  -41.5500   -2.3530   18.0290 H   0  0  0  0  0  0  0  0  0  0  0  0
  -40.5840   -1.7920   16.7870 H   0  0  0  0  0  0  0  0  0  0  0  0
  -35.9020  -17.5030   16.5110 C   0  0  0  0  0  3  0  0  0  0  0  0
  -35.1450  -16.7190   17.2970 C   0  0  0  0  0  3  0  0  0  0  0  0
  -35.4520  -17.9030   15.1960 C   0  0  0  0  0  0  0  0  0  0  0  0
  -36.2660  -18.8250   14.6780 N   0  0  0  0  0  0  0  0  0  0  0  0
  -34.4300  -17.5140   14.6280 O   0  0  0  0  0  0  0  0  0  0  0  0
  -37.0960  -19.0610   15.2020 H   0  0  0  0  0  0  0  0  0  0  0  0
  -36.0530  -19.5620   13.4380 C   0  0  0  0  0  2  0  0  0  0  0  0
  -35.2480  -20.8470   13.6710 C   0  0  0  0  0  2  0  0  0  0  0  0
  -34.8840  -21.3870   12.4090 O   0  0  0  0  0  0  0  0  0  0  0  0
  -35.9870  -21.5230   11.5230 C   0  0  0  0  0  2  0  0  0  0  0  0
  -35.4470  -21.5450   10.0900 C   0  0  0  0  0  2  0  0  0  0  0  0
  -34.9140  -20.2690    9.7580 O   0  0  0  0  0  0  0  0  0  0  0  0
  -33.9140  -20.3610    8.7520 C   0  0  0  0  0  2  0  0  0  0  0  0
  -34.2960  -19.5200    7.5280 C   0  0  0  0  0  2  0  0  0  0  0  0
  -34.9920  -20.3580    6.6060 O   0  0  0  0  0  0  0  0  0  0  0  0
  -37.1910  -26.6660    9.1570 C   0  0  0  0  0  0  0  0  0  0  0  0
  -34.8530  -21.7260    6.6870 C   0  0  0  0  0  0  0  0  0  0  0  0
  -34.9480  -26.6330    8.1080 C   0  0  0  0  0  3  0  0  0  0  0  0
  -34.3660  -24.5100    6.8190 C   0  0  0  0  0  0  0  0  0  0  0  0
  -36.7590  -24.9900    7.3700 C   0  0  0  0  0  2  0  0  0  0  0  0
  -35.6530  -24.0100    7.0470 C   0  0  0  0  0  0  0  0  0  0  0  0
  -35.9050  -22.6280    6.9750 C   0  0  0  0  0  3  0  0  0  0  0  0
  -33.5590  -22.2430    6.4720 C   0  0  0  0  0  3  0  0  0  0  0  0
  -33.3080  -23.6290    6.5320 C   0  0  0  0  0  3  0  0  0  0  0  0
  -34.1950  -26.0110    6.9010 C   0  0  0  0  0  2  0  0  0  0  0  0
  -36.3380  -26.0920    8.2630 N   0  0  0  0  0  0  0  0  0  0  0  0
  -36.8550  -27.6610    9.8130 O   0  0  0  0  0  0  0  0  0  0  0  0
  -34.0780  -26.4570    9.3710 C   0  0  0  0  0  0  0  0  0  0  0  0
  -33.4570  -27.5580    9.8240 N   0  0  0  0  0  0  0  0  0  0  0  0
  -33.9480  -25.3510    9.9020 O   0  0  0  0  0  0  0  0  0  0  0  0
  -33.6200  -28.4280    9.3370 H   0  0  0  0  0  0  0  0  0  0  0  0
  -31.7530  -29.8320   12.0530 C   0  0  0  0  0  0  0  0  0  0  0  0
  -32.5560  -27.6250   10.9730 C   0  0  0  0  0  3  0  0  0  0  0  0
  -31.0850  -27.4220   10.5390 C   0  0  0  0  0  2  0  0  0  0  0  0
  -30.3530  -28.7360   10.2510 C   0  0  0  0  0  2  0  0  0  0  0  0
  -30.3540  -29.6340   11.4920 C   0  0  0  0  0  2  0  0  0  0  0  0
  -32.7900  -28.8970   11.7960 C   0  0  0  0  0  0  0  0  0  0  0  0
  -34.0810  -29.1480   12.3100 C   0  0  0  0  0  3  0  0  0  0  0  0
  -34.3410  -30.3020   13.0710 C   0  0  0  0  0  3  0  0  0  0  0  0
  -33.3070  -31.2170   13.3350 C   0  0  0  0  0  3  0  0  0  0  0  0
  -32.0160  -30.9790   12.8320 C   0  0  0  0  0  3  0  0  0  0  0  0
  -38.6360  -26.1170    9.3800 C   0  0  0  0  0  3  0  0  0  0  0  0
  -38.8000  -25.3280   10.7370 C   0  0  1  0  0  0  0  0  0  0  0  0
  -37.4570  -24.9270   11.3880 C   0  0  0  0  0  1  0  0  0  0  0  0
  -39.6270  -24.0400   10.5210 C   0  0  0  0  0  1  0  0  0  0  0  0
  -39.5840  -26.1910   11.7540 C   0  0  0  0  0  1  0  0  0  0  0  0
  -39.5560  -27.2600    9.3270 N   0  0  0  0  0  0  0  0  0  0  0  0
  -40.8720  -27.1650    9.0900 C   0  0  0  0  0  0  0  0  0  0  0  0
  -41.4540  -26.0830    8.9650 O   0  0  0  0  0  0  0  0  0  0  0  0
  -39.1400  -28.1790    9.3660 H   0  0  0  0  0  0  0  0  0  0  0  0
  -40.9850  -29.4060    7.9580 C   0  0  0  0  0  1  0  0  0  0  0  0
  -41.6680  -28.4780    8.9730 C   0  0  0  0  0  3  0  0  0  0  0  0
  -44.0240  -28.6310    9.6500 C   0  0  0  0  0  1  0  0  0  0  0  0
  -43.0830  -28.2770    8.5900 N   0  0  0  0  0  0  0  0  0  0  0  0
  -43.3140  -28.8240    7.7650 H   0  0  0  0  0  0  0  0  0  0  0  0
  -36.2160  -17.5710   19.4700 C   0  0  0  0  0  2  0  0  0  0  0  0
  -37.5960  -17.9860   18.9070 C   0  0  0  0  0  2  0  0  0  0  0  0
  -38.5500  -18.5230   19.9850 C   0  0  0  0  0  2  0  0  0  0  0  0
  -39.0260  -20.6030   21.0070 C   0  0  0  0  0  1  0  0  0  0  0  0
  -38.0150  -19.7210   20.5310 O   0  0  0  0  0  0  0  0  0  0  0  0
  1 57  1  0
  1111  1  0
  2  3  1  0
  3  1  1  0
  3  5  1  0
  4  2  2  0
  6  2  1  0
  6  9  1  0
  7  8  1  0
  8  6  1  0
 10  9  1  0
 11 10  1  0
 12 11  1  0
 13 12  1  0
 13 14  1  0
 15 14  1  0
 16 15  1  0
 17 16  1  0
 18 25  1  0
 18 24  1  0
 19 20  1  0
 19 18  1  0
 20 21  2  0
 22 21  1  0
 22 31  1  0
 23 22  1  0
 24 26  1  0
 24 23  1  0
 26 17  1  0
 26 27  1  0
 28 29  2  0
 29 30  1  0
 29 48  1  0
 30 33  1  0
 31 28  1  0
 31 32  1  0
 32 30  2  0
 33 38  1  0
 34 33  2  0
 34 35  1  0
 35 36  2  0
 36 37  1  0
 36 39  1  0
 38 37  2  0
 40 45  1  0
 40 39  1  0
 41 40  2  0
 42 43  2  0
 42 41  1  0
 43 44  1  0
 44 45  2  0
 45 46  1  0
 47 43  1  0
 48 50  2  0
 49 48  1  0
 49 52  1  0
 51 49  1  0
 53 54  1  0
 53 28  1  0
 55 53  1  0
 56 57  2  0
 58 56  1  0
 59 58  1  0
 59 61  1  0
 60 58  2  0
 62 63  1  0
 62 59  1  0
 64 63  1  0
 65 64  1  0
 66 65  1  0
 67 66  1  0
 68 67  1  0
 69 68  1  0
 70 72  1  0
 70 69  1  0
 71 82  2  0
 72 77  1  0
 73 81  1  0
 73 83  1  0
 74 80  1  0
 74 76  1  0
 75 81  1  0
 76 75  1  0
 77 76  2  0
 78 79  1  0
 78 72  2  0
 79 74  2  0
 80 73  1  0
 81 71  1  0
 83 84  1  0
 83 85  2  0
 86 84  1  0
 87 96  1  0
 88 84  1  0
 88 92  1  0
 89 88  1  0
 90 89  1  0
 90 91  1  0
 91 87  1  0
 92 87  2  0
 92 93  1  0
 93 94  2  0
 94 95  1  0
 96 95  2  0
 97 71  1  0
 97 98  1  0
 98 99  1  1
 98101  1  0
100 98  1  0
102105  1  0
102 97  1  0
103102  1  0
104103  2  0
107106  1  0
107103  1  0
109107  1  0
109108  1  0
110109  1  0
112111  1  0
112113  1  0
113115  1  0
115114  1  0
M  ISO  4  18 100  26 100  69 101  70 101
M  END
>  <TORSDO>  (23) 
F 42

>  <SCORE>  (23) 
-1.503

>  <name>  (23) 
23

>  <ligand_id>  (23) 
23

>  <original_smiles>  (23) 
[H]C(C(=O)N([H])C([H])([H])C([H])([H])OC([H])([H])C([H])([H])OC([H])([H])C([H])([H])Oc1c([H])c([H])c2c(c1[H])C([H])([H])N(C(=O)C([H])(N([H])C(=O)C([H])(N([H])C([H])([H])[H])C([H])([H])[H])C(C([H])([H])[H])(C([H])([H])[H])C([H])([H])[H])C([H])(C(=O)N([H])C1([H])c3c([H])c([H])c([H])c([H])c3C([H])([H])C([H])([H])C1([H])[H])C2([H])[H])=C([H])C([H])(N([H])C(=O)C([H])(OC([H])([H])[H])C([H])([H])OC([H])([H])C([H])([H])C([H])([H])OC([H])([H])C([H])([H])C([H])([H])N([H])C(=O)N1C([H])([H])C([H])([H])C([H])([H])C([H])(n2nc(-c3c([H])c([H])c(Oc4c([H])c([H])c(F)c([H])c4F)c([H])c3[H])c(C(=O)N([H])[H])c2N([H])[H])C1([H])[H])C([H])([H])C([H])([H])C([H])([H])OC([H])([H])[H]

>  <smiles>  (23) 
[H]C(C(=O)N([H])C([H])([H])C([H])([H])OC([H])([H])C([H])([H])OC([H])([H])C([H])([H])Oc1c([H])c([H])c2c(c1[H])C([H])([H])N(C(=O)C([H])(N([H])C(=O)C([H])(N([H])C([H])([H])[H])C([H])([H])[H])C(C([H])([H])[H])(C([H])([H])[H])C([H])([H])[H])C([H])(C(=O)N([H])C1([H])c3c([H])c([H])c([H])c([H])c3C([H])([H])C([H])([H])C1([H])[H])C2([H])[H])=C([H])C([H])(N([H])C(=O)C([H])(OC([H])([H])[H])C([H])([H])OC([H])([H])C([H])([H])C([H])([H])OC([H])([H])C([H])([H])C([H])([H])N([H])C(=O)N1C([H])([H])C([H])([H])C([H])([H])C([H])(n2nc(-c3c([H])c([H])c(Oc4c([H])c([H])c(F)c([H])c4F)c([H])c3[H])c(C(=O)N([H])[H])c2N([H])[H])C1([H])[H])C([H])([H])C([H])([H])C([H])([H])OC([H])([H])[H]

$$$$
24:0:0
     RDKit          3D

118125  0  0  1  0  0  0  0  0999 V2000
  -23.5560  -24.0030   18.5340 N   0  0  2  0  0  4  0  0  0  0  0  0
  -24.2070  -24.7570   18.3350 H   0  0  0  0  0  0  0  0  0  0  0  0
  -23.9930  -22.9120   17.6060 C   0  0  0  0  0  2  0  0  0  0  0  0
  -24.4540  -23.4460   16.2300 C   0  0  0  0  0  2  0  0  0  0  0  0
  -25.0070  -24.7470   16.4060 O   0  0  0  0  0  0  0  0  0  0  0  0
  -25.6230  -25.2540   15.2250 C   0  0  0  0  0  2  0  0  0  0  0  0
  -27.1030  -25.5760   15.4980 C   0  0  0  0  0  2  0  0  0  0  0  0
  -27.8360  -24.3590   15.6130 O   0  0  0  0  0  0  0  0  0  0  0  0
  -28.0530  -23.9440   16.9580 C   0  0  0  0  0  2  0  0  0  0  0  0
  -28.2330  -22.4200   17.0020 C   0  0  0  0  0  2  0  0  0  0  0  0
  -28.4040  -22.0100   18.3480 O   0  0  0  0  0  0  0  0  0  0  0  0
  -28.2270  -20.6120   18.5070 C   0  0  0  0  0  2  0  0  0  0  0  0
  -28.9040  -20.1910   19.8110 C   0  0  0  0  0  2  0  0  0  0  0  0
  -28.7730  -18.6890   20.0730 C   0  0  0  0  0  2  0  0  0  0  0  0
  -29.8790  -18.2600   20.8490 O   0  0  0  0  0  0  0  0  0  0  0  0
  -29.8100  -16.8840   21.1830 C   0  0  0  0  0  2  0  0  0  0  0  0
  -31.2440  -16.3780   21.3730 C   0  0  0  0  0  2  0  0  0  0  0  0
  -31.3430  -14.9800   22.0090 C   0  0  0  0  0  2  0  0  0  0  0  0
  -30.7480  -13.4270   20.1340 C   0  0  0  0  0  0  0  0  0  0  0  0
  -30.0560  -11.6640   18.5540 C   0  0  0  0  0  2  0  0  0  0  0  0
  -29.0070  -12.1570   17.5410 C   0  0  0  0  0  2  0  0  0  0  0  0
  -27.5850  -12.0390   18.1190 C   0  0  0  0  0  2  0  0  0  0  0  0
  -27.4680  -12.6550   19.5370 C   0  0  0  0  0  3  0  0  0  0  0  0
  -28.6020  -12.1390   20.4480 C   0  0  0  0  0  2  0  0  0  0  0  0
  -29.8960  -12.4270   19.7990 N   0  0  0  0  0  0  0  0  0  0  0  0
  -31.6990  -13.7790   19.4270 O   0  0  0  0  0  0  0  0  0  0  0  0
  -30.5240  -13.9720   21.3340 N   0  0  0  0  0  0  0  0  0  0  0  0
  -29.7330  -13.6060   21.8460 H   0  0  0  0  0  0  0  0  0  0  0  0
  -25.1360  -13.2990   20.4180 C   0  0  0  0  0  0  0  0  0  0  0  0
  -24.0930  -12.5440   20.8810 C   0  0  0  0  0  0  0  0  0  0  0  0
  -24.5380  -11.1870   20.8350 C   0  0  0  0  0  0  0  0  0  0  0  0
  -26.1510  -12.4050   20.1210 N   0  0  0  0  0  0  0  0  0  0  0  0
  -25.7980  -11.1290   20.4260 N   0  0  0  0  0  0  0  0  0  0  0  0
  -23.8180   -9.9350   21.1010 C   0  0  0  0  0  0  0  0  0  0  0  0
  -24.3240   -8.9700   21.9990 C   0  0  0  0  0  3  0  0  0  0  0  0
  -23.6060   -7.7810   22.2530 C   0  0  0  0  0  3  0  0  0  0  0  0
  -22.3670   -7.5490   21.6070 C   0  0  0  0  0  0  0  0  0  0  0  0
  -21.8790   -8.5040   20.6970 C   0  0  0  0  0  3  0  0  0  0  0  0
  -22.5990   -9.6830   20.4430 C   0  0  0  0  0  3  0  0  0  0  0  0
  -21.6130   -6.4140   21.7720 O   0  0  0  0  0  0  0  0  0  0  0  0
  -21.6480   -5.6880   22.9360 C   0  0  0  0  0  0  0  0  0  0  0  0
  -21.3760   -6.2780   24.1900 C   0  0  0  0  0  3  0  0  0  0  0  0
  -21.3550   -5.4820   25.3520 C   0  0  0  0  0  3  0  0  0  0  0  0
  -21.5950   -4.0980   25.2640 C   0  0  0  0  0  0  0  0  0  0  0  0
  -21.8600   -3.5080   24.0150 C   0  0  0  0  0  3  0  0  0  0  0  0
  -21.8830   -4.3000   22.8550 C   0  0  0  0  0  0  0  0  0  0  0  0
  -22.1180   -3.7250   21.6520 F   0  0  0  0  0  0  0  0  0  0  0  0
  -21.5670   -3.3310   26.3780 F   0  0  0  0  0  0  0  0  0  0  0  0
  -22.7250  -13.0370   21.2590 C   0  0  0  0  0  0  0  0  0  0  0  0
  -22.0740  -12.3750   22.2050 N   0  0  0  0  0  0  0  0  0  0  0  0
  -22.2470  -14.0480   20.7450 O   0  0  0  0  0  0  0  0  0  0  0  0
  -22.4750  -11.5580   22.6420 H   0  0  0  0  0  0  0  0  0  0  0  0
  -21.1580  -12.6850   22.4990 H   0  0  0  0  0  0  0  0  0  0  0  0
  -25.2990  -14.6660   20.2070 N   0  0  0  0  0  0  0  0  0  0  0  0
  -24.5520  -15.3330   20.3650 H   0  0  0  0  0  0  0  0  0  0  0  0
  -26.1300  -15.0850   19.8130 H   0  0  0  0  0  0  0  0  0  0  0  0
  -23.6600  -23.6750   19.9990 C   0  0  0  0  0  2  0  0  0  0  0  0
  -24.9290  -22.9410   20.5080 C   0  0  0  0  0  2  0  0  0  0  0  0
  -26.1110  -23.5680   20.0260 O   0  0  0  0  0  0  0  0  0  0  0  0
  -27.1370  -23.7790   21.0020 C   0  0  0  0  0  2  0  0  0  0  0  0
  -28.2770  -24.6670   20.4280 C   0  0  0  0  0  2  0  0  0  0  0  0
  -28.2840  -26.0360   20.8750 O   0  0  0  0  0  0  0  0  0  0  0  0
  -24.4800  -31.5190   23.3520 C   0  0  0  0  0  0  0  0  0  0  0  0
  -27.1580  -26.8150   20.7030 C   0  0  0  0  0  0  0  0  0  0  0  0
  -23.3430  -30.0750   21.7040 C   0  0  0  0  0  3  0  0  0  0  0  0
  -24.8320  -28.4110   20.4880 C   0  0  0  0  0  0  0  0  0  0  0  0
  -25.8930  -30.3160   21.6920 C   0  0  0  0  0  2  0  0  0  0  0  0
  -25.9640  -28.9090   21.1380 C   0  0  0  0  0  0  0  0  0  0  0  0
  -27.1230  -28.1110   21.2630 C   0  0  0  0  0  3  0  0  0  0  0  0
  -26.0270  -26.3710   19.9860 C   0  0  0  0  0  3  0  0  0  0  0  0
  -24.8580  -27.1330   19.9200 C   0  0  0  0  0  3  0  0  0  0  0  0
  -23.6320  -29.3170   20.3850 C   0  0  0  0  0  2  0  0  0  0  0  0
  -24.5870  -30.6530   22.3080 N   0  0  0  0  0  0  0  0  0  0  0  0
  -23.3740  -31.8610   23.7910 O   0  0  0  0  0  0  0  0  0  0  0  0
  -22.5760  -29.1300   22.6580 C   0  0  0  0  0  0  0  0  0  0  0  0
  -21.2530  -29.0170   22.4510 N   0  0  0  0  0  0  0  0  0  0  0  0
  -23.1700  -28.5010   23.5360 O   0  0  0  0  0  0  0  0  0  0  0  0
  -20.8330  -29.6020   21.7430 H   0  0  0  0  0  0  0  0  0  0  0  0
  -17.7780  -28.0780   22.8170 C   0  0  0  0  0  0  0  0  0  0  0  0
  -20.3330  -28.1650   23.2070 C   0  0  0  0  0  3  0  0  0  0  0  0
  -20.3610  -26.7090   22.6930 C   0  0  0  0  0  2  0  0  0  0  0  0
  -19.2830  -26.4230   21.6410 C   0  0  0  0  0  2  0  0  0  0  0  0
  -17.8860  -26.6890   22.2090 C   0  0  0  0  0  2  0  0  0  0  0  0
  -18.9290  -28.7730   23.2760 C   0  0  0  0  0  0  0  0  0  0  0  0
  -18.7790  -30.0690   23.8090 C   0  0  0  0  0  3  0  0  0  0  0  0
  -17.5100  -30.6670   23.9010 C   0  0  0  0  0  3  0  0  0  0  0  0
  -16.3720  -29.9700   23.4620 C   0  0  0  0  0  3  0  0  0  0  0  0
  -16.5070  -28.6810   22.9170 C   0  0  0  0  0  3  0  0  0  0  0  0
  -25.7410  -32.1370   24.0300 C   0  0  0  0  0  3  0  0  0  0  0  0
  -25.4570  -33.5560   24.2820 N   0  0  0  0  0  0  0  0  0  0  0  0
  -25.8670  -34.5640   23.5010 C   0  0  0  0  0  0  0  0  0  0  0  0
  -26.5940  -34.3960   22.5180 O   0  0  0  0  0  0  0  0  0  0  0  0
  -24.8180  -33.7630   25.0350 H   0  0  0  0  0  0  0  0  0  0  0  0
  -24.2130  -36.3840   22.9680 C   0  0  0  0  0  1  0  0  0  0  0  0
  -25.3950  -35.9870   23.8670 C   0  0  0  0  0  3  0  0  0  0  0  0
  -27.5020  -36.8460   24.7840 C   0  0  0  0  0  1  0  0  0  0  0  0
  -26.4610  -37.0070   23.7720 N   0  0  0  0  0  0  0  0  0  0  0  0
  -26.0760  -37.9440   23.8630 H   0  0  0  0  0  0  0  0  0  0  0  0
  -26.1460  -31.4010   25.3660 C   0  0  1  0  0  0  0  0  0  0  0  0
  -24.9750  -31.2280   26.3600 C   0  0  0  0  0  1  0  0  0  0  0  0
  -26.7190  -29.9940   25.0720 C   0  0  0  0  0  1  0  0  0  0  0  0
  -27.2660  -32.1950   26.0800 C   0  0  0  0  0  1  0  0  0  0  0  0
  -22.1950  -24.5240   18.1830 C   0  0  0  0  0  2  0  0  0  0  0  0
  -22.0530  -26.0570   18.2180 C   0  0  0  0  0  2  0  0  0  0  0  0
  -23.0580  -26.7000   17.4340 O   0  0  0  0  0  0  0  0  0  0  0  0
  -22.7420  -28.0700   17.1880 C   0  0  0  0  0  2  0  0  0  0  0  0
  -24.0050  -28.9200   16.9680 C   0  0  0  0  0  2  0  0  0  0  0  0
  -25.6810  -28.2830   15.2490 C   0  0  0  0  0  0  0  0  0  0  0  0
  -24.5120  -28.8170   15.6060 N   0  0  0  0  0  0  0  0  0  0  0  0
  -26.4380  -27.7300   16.0480 O   0  0  0  0  0  0  0  0  0  0  0  0
  -23.9540  -29.2450   14.8800 H   0  0  0  0  0  0  0  0  0  0  0  0
  -27.0620  -27.9880   13.2800 C   0  0  0  0  0  3  0  0  0  0  0  0
  -25.9370  -28.4720   13.8370 C   0  0  0  0  0  3  0  0  0  0  0  0
  -27.3260  -28.1890   11.8700 C   0  0  0  0  0  0  0  0  0  0  0  0
  -28.4380  -27.5890   11.4740 N   0  0  0  0  0  0  0  0  0  0  0  0
  -26.6300  -28.8320   11.0850 O   0  0  0  0  0  0  0  0  0  0  0  0
  -29.0060  -27.0680   12.1280 H   0  0  0  0  0  0  0  0  0  0  0  0
  -28.7330  -27.6450   10.5080 H   0  0  0  0  0  0  0  0  0  0  0  0
  1 57  1  0
  1  2  1  1
  3  1  1  0
  4  5  1  0
  4  3  1  0
  6  7  1  0
  6  5  1  0
  7  8  1  0
  8  9  1  0
  9 10  1  0
 10 11  1  0
 11 12  1  0
 12 13  1  0
 13 14  1  0
 14 15  1  0
 15 16  1  0
 16 17  1  0
 17 18  1  0
 19 27  1  0
 20 25  1  0
 21 22  1  0
 21 20  1  0
 23 22  1  0
 23 32  1  0
 23 24  1  0
 25 19  1  0
 25 24  1  0
 26 19  2  0
 27 28  1  0
 27 18  1  0
 29 30  2  0
 30 49  1  0
 31 30  1  0
 31 34  1  0
 32 29  1  0
 32 33  1  0
 33 31  2  0
 34 35  1  0
 35 36  2  0
 37 40  1  0
 37 36  1  0
 38 37  2  0
 39 38  1  0
 39 34  2  0
 40 41  1  0
 41 42  1  0
 42 43  2  0
 44 43  1  0
 44 48  1  0
 45 44  2  0
 46 41  2  0
 46 45  1  0
 47 46  1  0
 49 50  1  0
 50 53  1  0
 50 52  1  0
 51 49  2  0
 54 55  1  0
 54 29  1  0
 56 54  1  0
 57 58  1  0
 59 58  1  0
 59 60  1  0
 61 62  1  0
 61 60  1  0
 63 74  2  0
 64 62  1  0
 64 69  1  0
 65 73  1  0
 65 75  1  0
 66 68  1  0
 67 73  1  0
 68 69  2  0
 68 67  1  0
 70 64  2  0
 71 70  1  0
 71 66  2  0
 72 66  1  0
 72 65  1  0
 73 63  1  0
 75 77  2  0
 76 75  1  0
 78 76  1  0
 79 88  2  0
 79 84  1  0
 80 76  1  0
 80 84  1  0
 81 80  1  0
 82 83  1  0
 82 81  1  0
 83 79  1  0
 84 85  2  0
 85 86  1  0
 87 86  2  0
 88 87  1  0
 89 63  1  0
 89 90  1  0
 89 99  1  0
 90 93  1  0
 91 95  1  0
 91 90  1  0
 92 91  2  0
 95 94  1  0
 97 98  1  0
 97 95  1  0
 97 96  1  0
 99102  1  1
 99100  1  0
101 99  1  0
103104  1  0
103  1  1  0
105104  1  0
106105  1  0
107106  1  0
108109  1  0
108110  2  0
109107  1  0
111109  1  0
112113  2  0
113108  1  0
114112  1  0
115114  1  0
115117  1  0
116114  2  0
118115  1  0
M  ISO  4  19 100  27 100  61 101  62 101
M  END
>  <TORSDO>  (24) 
F 45

>  <SCORE>  (24) 
-6.371

>  <name>  (24) 
24

>  <ligand_id>  (24) 
24

>  <original_smiles>  (24) 
[H]C(C(=O)N([H])[H])=C([H])C(=O)N([H])C([H])([H])C([H])([H])OC([H])([H])C([H])([H])[N+]([H])(C([H])([H])C([H])([H])OC([H])([H])C([H])([H])Oc1c([H])c([H])c2c(c1[H])C([H])([H])N(C(=O)C([H])(N([H])C(=O)C([H])(N([H])C([H])([H])[H])C([H])([H])[H])C(C([H])([H])[H])(C([H])([H])[H])C([H])([H])[H])C([H])(C(=O)N([H])C1([H])c3c([H])c([H])c([H])c([H])c3C([H])([H])C([H])([H])C1([H])[H])C2([H])[H])C([H])([H])C([H])([H])OC([H])([H])C([H])([H])OC([H])([H])C([H])([H])OC([H])([H])C([H])([H])C([H])([H])OC([H])([H])C([H])([H])C([H])([H])N([H])C(=O)N1C([H])([H])C([H])([H])C([H])([H])C([H])(n2nc(-c3c([H])c([H])c(Oc4c([H])c([H])c(F)c([H])c4F)c([H])c3[H])c(C(=O)N([H])[H])c2N([H])[H])C1([H])[H]

>  <smiles>  (24) 
[H]C(C(=O)N([H])[H])=C([H])C(=O)N([H])C([H])([H])C([H])([H])OC([H])([H])C([H])([H])[N+]([H])(C([H])([H])C([H])([H])OC([H])([H])C([H])([H])Oc1c([H])c([H])c2c(c1[H])C([H])([H])N(C(=O)C([H])(N([H])C(=O)C([H])(N([H])C([H])([H])[H])C([H])([H])[H])C(C([H])([H])[H])(C([H])([H])[H])C([H])([H])[H])C([H])(C(=O)N([H])C1([H])c3c([H])c([H])c([H])c([H])c3C([H])([H])C([H])([H])C1([H])[H])C2([H])[H])C([H])([H])C([H])([H])OC([H])([H])C([H])([H])OC([H])([H])C([H])([H])OC([H])([H])C([H])([H])C([H])([H])OC([H])([H])C([H])([H])C([H])([H])N([H])C(=O)N1C([H])([H])C([H])([H])C([H])([H])C([H])(n2nc(-c3c([H])c([H])c(Oc4c([H])c([H])c(F)c([H])c4F)c([H])c3[H])c(C(=O)N([H])[H])c2N([H])[H])C1([H])[H]

$$$$
25:0:0
     RDKit          3D

105112  0  0  1  0  0  0  0  0999 V2000
  -30.7090  -20.9210   19.5850 C   0  0  0  0  0  0  0  0  0  0  0  0
  -29.8530  -21.6320   18.8410 N   0  0  0  0  0  0  0  0  0  0  0  0
  -30.9070  -21.1540   20.7800 O   0  0  0  0  0  0  0  0  0  0  0  0
  -29.7710  -21.3720   17.8660 H   0  0  0  0  0  0  0  0  0  0  0  0
  -31.4750  -19.7910   18.8750 C   0  0  0  0  0  3  0  0  0  0  0  0
  -31.0020  -17.6220   19.9930 C   0  0  0  0  0  0  0  0  0  0  0  0
  -31.7400  -18.7230   19.8380 N   0  0  0  0  0  0  0  0  0  0  0  0
  -30.0150  -17.3760   19.2960 O   0  0  0  0  0  0  0  0  0  0  0  0
  -32.4980  -18.8780   20.4860 H   0  0  0  0  0  0  0  0  0  0  0  0
  -31.4430  -16.6500   21.1080 C   0  0  0  0  0  3  0  0  0  0  0  0
  -31.2960  -14.4710   19.9030 C   0  0  0  0  0  0  0  0  0  0  0  0
  -30.7720  -12.3840   18.6990 C   0  0  0  0  0  2  0  0  0  0  0  0
  -29.7460  -12.6370   17.5780 C   0  0  0  0  0  2  0  0  0  0  0  0
  -28.3070  -12.5590   18.1230 C   0  0  0  0  0  2  0  0  0  0  0  0
  -28.1100  -13.4150   19.4020 C   0  0  0  0  0  3  0  0  0  0  0  0
  -29.2280  -13.1270   20.4280 C   0  0  0  0  0  2  0  0  0  0  0  0
  -30.5310  -13.3580   19.7730 N   0  0  0  0  0  0  0  0  0  0  0  0
  -32.2800  -14.7070   19.1960 O   0  0  0  0  0  0  0  0  0  0  0  0
  -30.9130  -15.3060   20.8760 N   0  0  0  0  0  0  0  0  0  0  0  0
  -30.1020  -15.0450   21.4110 H   0  0  0  0  0  0  0  0  0  0  0  0
  -25.8350  -14.1450   20.3650 C   0  0  0  0  0  0  0  0  0  0  0  0
  -24.7440  -13.4270   20.7760 C   0  0  0  0  0  0  0  0  0  0  0  0
  -25.0900  -12.0510   20.6080 C   0  0  0  0  0  0  0  0  0  0  0  0
  -26.7820  -13.2090   19.9790 N   0  0  0  0  0  0  0  0  0  0  0  0
  -26.3400  -11.9400   20.1780 N   0  0  0  0  0  0  0  0  0  0  0  0
  -24.2840  -10.8350   20.7770 C   0  0  0  0  0  0  0  0  0  0  0  0
  -24.6960   -9.7890   21.6330 C   0  0  0  0  0  3  0  0  0  0  0  0
  -23.8960   -8.6380   21.7930 C   0  0  0  0  0  3  0  0  0  0  0  0
  -22.6690   -8.5230   21.0980 C   0  0  0  0  0  0  0  0  0  0  0  0
  -22.2750   -9.5570   20.2290 C   0  0  0  0  0  3  0  0  0  0  0  0
  -23.0750  -10.7000   20.0660 C   0  0  0  0  0  3  0  0  0  0  0  0
  -21.8400   -7.4300   21.1710 O   0  0  0  0  0  0  0  0  0  0  0  0
  -21.7510   -6.6700   22.3090 C   0  0  0  0  0  0  0  0  0  0  0  0
  -21.3750   -7.2280   23.5500 C   0  0  0  0  0  3  0  0  0  0  0  0
  -21.2280   -6.3980   24.6790 C   0  0  0  0  0  3  0  0  0  0  0  0
  -21.4450   -5.0120   24.5680 C   0  0  0  0  0  0  0  0  0  0  0  0
  -21.8130   -4.4540   23.3320 C   0  0  0  0  0  3  0  0  0  0  0  0
  -21.9610   -5.2800   22.2050 C   0  0  0  0  0  0  0  0  0  0  0  0
  -22.2950   -4.7340   21.0110 F   0  0  0  0  0  0  0  0  0  0  0  0
  -21.2960   -4.2130   25.6520 F   0  0  0  0  0  0  0  0  0  0  0  0
  -23.4190  -13.9830   21.2140 C   0  0  0  0  0  0  0  0  0  0  0  0
  -22.7290  -13.2870   22.1110 N   0  0  0  0  0  0  0  0  0  0  0  0
  -23.0090  -15.0650   20.7970 O   0  0  0  0  0  0  0  0  0  0  0  0
  -23.0730  -12.4090   22.4690 H   0  0  0  0  0  0  0  0  0  0  0  0
  -21.8430  -13.6390   22.4470 H   0  0  0  0  0  0  0  0  0  0  0  0
  -26.0940  -15.5080   20.2690 N   0  0  0  0  0  0  0  0  0  0  0  0
  -25.4020  -16.2120   20.5000 H   0  0  0  0  0  0  0  0  0  0  0  0
  -26.9570  -15.9040   19.9150 H   0  0  0  0  0  0  0  0  0  0  0  0
  -29.4730  -17.1660   22.7350 C   0  0  0  0  0  1  0  0  0  0  0  0
  -31.6870  -16.3590   23.6370 C   0  0  0  0  0  1  0  0  0  0  0  0
  -31.0000  -17.1520   22.5110 C   0  0  0  0  0  3  0  0  0  0  0  0
  -32.8290  -20.3670   18.3880 C   0  0  0  0  0  2  0  0  0  0  0  0
  -35.1410  -19.9440   17.4360 C   0  0  0  0  0  1  0  0  0  0  0  0
  -33.1340  -18.9360   16.2870 C   0  0  0  0  0  1  0  0  0  0  0  0
  -33.7340  -19.3620   17.6370 C   0  0  0  0  0  3  0  0  0  0  0  0
  -29.0640  -22.7810   19.2860 C   0  0  0  0  0  2  0  0  0  0  0  0
  -27.6720  -22.3720   19.8130 C   0  0  0  0  0  2  0  0  0  0  0  0
  -27.6070  -22.0530   21.3160 C   0  0  0  0  0  2  0  0  0  0  0  0
  -27.6550  -23.2680   22.0550 O   0  0  0  0  0  0  0  0  0  0  0  0
  -28.8660  -23.4820   22.7680 C   0  0  0  0  0  2  0  0  0  0  0  0
  -28.8980  -24.9130   23.3380 C   0  0  0  0  0  2  0  0  0  0  0  0
  -29.3980  -25.8480   22.3840 O   0  0  0  0  0  0  0  0  0  0  0  0
  -28.4170  -26.3150   21.4640 C   0  0  0  0  0  2  0  0  0  0  0  0
  -29.0580  -27.2600   20.4280 C   0  0  0  0  0  2  0  0  0  0  0  0
  -28.2230  -27.3720   19.2770 O   0  0  0  0  0  0  0  0  0  0  0  0
  -24.4900  -31.9850   23.2160 C   0  0  0  0  0  0  0  0  0  0  0  0
  -27.0540  -28.0630   19.4720 C   0  0  0  0  0  0  0  0  0  0  0  0
  -23.2090  -30.7230   21.5170 C   0  0  0  0  0  3  0  0  0  0  0  0
  -24.6040  -29.4130   19.8270 C   0  0  0  0  0  0  0  0  0  0  0  0
  -25.6910  -31.2200   21.1760 C   0  0  0  0  0  2  0  0  0  0  0  0
  -25.7780  -29.9320   20.3890 C   0  0  0  0  0  0  0  0  0  0  0  0
  -27.0060  -29.2610   20.2170 C   0  0  0  0  0  3  0  0  0  0  0  0
  -25.8700  -27.5530   18.9030 C   0  0  0  0  0  3  0  0  0  0  0  0
  -24.6410  -28.2170   19.0870 C   0  0  0  0  0  3  0  0  0  0  0  0
  -23.3360  -30.2030   20.0580 C   0  0  0  0  0  2  0  0  0  0  0  0
  -24.4860  -31.3160   22.0300 N   0  0  0  0  0  0  0  0  0  0  0  0
  -23.4460  -32.1510   23.8610 O   0  0  0  0  0  0  0  0  0  0  0  0
  -22.6680  -29.5760   22.3990 C   0  0  0  0  0  0  0  0  0  0  0  0
  -21.3580  -29.3030   22.2820 N   0  0  0  0  0  0  0  0  0  0  0  0
  -23.4200  -28.9400   23.1410 O   0  0  0  0  0  0  0  0  0  0  0  0
  -20.8090  -29.8790   21.6600 H   0  0  0  0  0  0  0  0  0  0  0  0
  -18.1320  -27.7130   22.6210 C   0  0  0  0  0  0  0  0  0  0  0  0
  -20.6350  -28.2430   22.9840 C   0  0  0  0  0  3  0  0  0  0  0  0
  -20.9160  -26.8620   22.3480 C   0  0  0  0  0  2  0  0  0  0  0  0
  -19.8850  -26.4650   21.2870 C   0  0  0  0  0  2  0  0  0  0  0  0
  -18.4790  -26.4240   21.8930 C   0  0  0  0  0  2  0  0  0  0  0  0
  -19.1450  -28.5730   23.1190 C   0  0  0  0  0  0  0  0  0  0  0  0
  -18.7710  -29.7760   23.7580 C   0  0  0  0  0  3  0  0  0  0  0  0
  -17.4140  -30.1210   23.9030 C   0  0  0  0  0  3  0  0  0  0  0  0
  -16.4140  -29.2560   23.4240 C   0  0  0  0  0  3  0  0  0  0  0  0
  -16.7740  -28.0540   22.7890 C   0  0  0  0  0  3  0  0  0  0  0  0
  -25.8010  -32.5950   23.8090 C   0  0  0  0  0  3  0  0  0  0  0  0
  -26.4080  -31.7380   24.9870 C   0  0  1  0  0  0  0  0  0  0  0  0
  -25.3910  -31.4030   26.1020 C   0  0  0  0  0  1  0  0  0  0  0  0
  -26.9770  -30.4030   24.4500 C   0  0  0  0  0  1  0  0  0  0  0  0
  -27.5890  -32.4990   25.6330 C   0  0  0  0  0  1  0  0  0  0  0  0
  -25.4900  -33.9570   24.2610 N   0  0  0  0  0  0  0  0  0  0  0  0
  -25.7970  -35.0710   23.5840 C   0  0  0  0  0  0  0  0  0  0  0  0
  -26.4450  -35.0580   22.5330 O   0  0  0  0  0  0  0  0  0  0  0  0
  -24.9170  -34.0400   25.0890 H   0  0  0  0  0  0  0  0  0  0  0  0
  -24.0550  -36.8730   23.4030 C   0  0  0  0  0  1  0  0  0  0  0  0
  -25.3080  -36.4110   24.1630 C   0  0  0  0  0  3  0  0  0  0  0  0
  -27.4490  -37.2340   25.0380 C   0  0  0  0  0  1  0  0  0  0  0  0
  -26.3340  -37.4760   24.1280 N   0  0  0  0  0  0  0  0  0  0  0  0
  -25.9240  -38.3780   24.3600 H   0  0  0  0  0  0  0  0  0  0  0  0
  1  3  2  0
  2 56  1  0
  2  1  1  0
  4  2  1  0
  5 52  1  0
  5  1  1  0
  5  7  1  0
  7  6  1  0
  7  9  1  0
  8  6  2  0
 10  6  1  0
 10 51  1  0
 11 19  1  0
 12 17  1  0
 13 14  1  0
 13 12  1  0
 15 14  1  0
 15 24  1  0
 15 16  1  0
 17 11  1  0
 17 16  1  0
 18 11  2  0
 19 10  1  0
 19 20  1  0
 21 22  2  0
 22 41  1  0
 23 22  1  0
 23 26  1  0
 24 25  1  0
 24 21  1  0
 25 23  2  0
 26 27  1  0
 27 28  2  0
 29 32  1  0
 29 28  1  0
 30 29  2  0
 31 30  1  0
 31 26  2  0
 32 33  1  0
 33 34  1  0
 34 35  2  0
 36 35  1  0
 36 40  1  0
 37 36  2  0
 38 33  2  0
 38 37  1  0
 39 38  1  0
 41 42  1  0
 42 45  1  0
 42 44  1  0
 43 41  2  0
 46 21  1  0
 46 47  1  0
 48 46  1  0
 51 49  1  0
 51 50  1  0
 53 55  1  0
 54 55  1  0
 55 52  1  0
 56 57  1  0
 57 58  1  0
 58 59  1  0
 59 60  1  0
 60 61  1  0
 62 61  1  0
 63 62  1  0
 64 63  1  0
 65 67  1  0
 65 64  1  0
 66 77  2  0
 67 72  1  0
 68 76  1  0
 68 78  1  0
 69 75  1  0
 69 71  1  0
 70 76  1  0
 71 70  1  0
 72 71  2  0
 73 74  1  0
 73 67  2  0
 74 69  2  0
 75 68  1  0
 76 66  1  0
 78 80  2  0
 79 78  1  0
 81 79  1  0
 82 91  2  0
 82 87  1  0
 83 79  1  0
 83 87  1  0
 84 83  1  0
 85 86  1  0
 85 84  1  0
 86 82  1  0
 87 88  2  0
 88 89  1  0
 90 89  2  0
 91 90  1  0
 92 66  1  0
 92 97  1  0
 92 93  1  0
 93 96  1  1
 93 94  1  0
 95 93  1  0
 97100  1  0
 98102  1  0
 98 97  1  0
 99 98  2  0
102101  1  0
104102  1  0
104105  1  0
104103  1  0
M  ISO  4  11 100  19 100  64 101  65 101
M  END
>  <TORSDO>  (25) 
F 31

>  <SCORE>  (25) 
-6.070

>  <name>  (25) 
25

>  <ligand_id>  (25) 
25

>  <original_smiles>  (25) 
[H]c1c([H])c([H])c2c(c1[H])C([H])([H])C([H])([H])C([H])([H])C2([H])N([H])C(=O)C1([H])N(C(=O)C([H])(N([H])C(=O)C([H])(N([H])C([H])([H])[H])C([H])([H])[H])C(C([H])([H])[H])(C([H])([H])[H])C([H])([H])[H])C([H])([H])c2c([H])c(OC([H])([H])C([H])([H])OC([H])([H])C([H])([H])OC([H])([H])C([H])([H])C([H])([H])N([H])C(=O)C([H])(N([H])C(=O)C([H])(N([H])C(=O)N3C([H])([H])C([H])([H])C([H])([H])C([H])(n4nc(-c5c([H])c([H])c(Oc6c([H])c([H])c(F)c([H])c6F)c([H])c5[H])c(C(=O)N([H])[H])c4N([H])[H])C3([H])[H])C([H])(C([H])([H])[H])C([H])([H])[H])C([H])([H])C([H])(C([H])([H])[H])C([H])([H])[H])c([H])c([H])c2C1([H])[H]

>  <smiles>  (25) 
[H]c1c([H])c([H])c2c(c1[H])C([H])([H])C([H])([H])C([H])([H])C2([H])N([H])C(=O)C1([H])N(C(=O)C([H])(N([H])C(=O)C([H])(N([H])C([H])([H])[H])C([H])([H])[H])C(C([H])([H])[H])(C([H])([H])[H])C([H])([H])[H])C([H])([H])c2c([H])c(OC([H])([H])C([H])([H])OC([H])([H])C([H])([H])OC([H])([H])C([H])([H])C([H])([H])N([H])C(=O)C([H])(N([H])C(=O)C([H])(N([H])C(=O)N3C([H])([H])C([H])([H])C([H])([H])C([H])(n4nc(-c5c([H])c([H])c(Oc6c([H])c([H])c(F)c([H])c6F)c([H])c5[H])c(C(=O)N([H])[H])c4N([H])[H])C3([H])[H])C([H])(C([H])([H])[H])C([H])([H])[H])C([H])([H])C([H])(C([H])([H])[H])C([H])([H])[H])c([H])c([H])c2C1([H])[H]

$$$$
26:0:0
     RDKit          3D

102109  0  0  1  0  0  0  0  0999 V2000
  -34.8980  -19.3290   20.0840 C   0  0  0  0  0  2  0  0  0  0  0  0
  -34.0660  -19.4680   21.2310 O   0  0  0  0  0  0  0  0  0  0  0  0
  -34.4090  -18.5430   22.2500 C   0  0  0  0  0  2  0  0  0  0  0  0
  -33.5340  -18.7870   23.4930 C   0  0  0  0  0  2  0  0  0  0  0  0
  -33.6150  -17.6580   24.5410 C   0  0  0  0  0  2  0  0  0  0  0  0
  -32.0660  -15.9130   23.6350 C   0  0  0  0  0  0  0  0  0  0  0  0
  -33.2840  -16.3480   23.9830 N   0  0  0  0  0  0  0  0  0  0  0  0
  -31.0500  -16.6000   23.7740 O   0  0  0  0  0  0  0  0  0  0  0  0
  -34.0530  -15.7070   23.8430 H   0  0  0  0  0  0  0  0  0  0  0  0
  -31.9920  -14.4960   23.0300 C   0  0  0  0  0  3  0  0  0  0  0  0
  -30.8700  -14.2110   20.8270 C   0  0  0  0  0  0  0  0  0  0  0  0
  -30.4020  -12.3040   19.3480 C   0  0  0  0  0  2  0  0  0  0  0  0
  -29.4590  -12.5450   18.1640 C   0  0  0  0  0  2  0  0  0  0  0  0
  -27.9950  -12.3720   18.6010 C   0  0  0  0  0  2  0  0  0  0  0  0
  -27.6590  -13.2040   19.8650 C   0  0  0  0  0  3  0  0  0  0  0  0
  -28.6960  -12.9670   20.9810 C   0  0  0  0  0  2  0  0  0  0  0  0
  -30.0430  -13.2170   20.4380 N   0  0  0  0  0  0  0  0  0  0  0  0
  -31.7830  -14.6680   20.1270 O   0  0  0  0  0  0  0  0  0  0  0  0
  -30.8260  -14.3880   22.1500 N   0  0  0  0  0  0  0  0  0  0  0  0
  -30.0020  -14.0270   22.6030 H   0  0  0  0  0  0  0  0  0  0  0  0
  -25.2590  -13.8160   20.5670 C   0  0  0  0  0  0  0  0  0  0  0  0
  -24.1830  -13.0440   20.9160 C   0  0  0  0  0  0  0  0  0  0  0  0
  -24.6400  -11.6900   20.8730 C   0  0  0  0  0  0  0  0  0  0  0  0
  -26.3010  -12.9330   20.3320 N   0  0  0  0  0  0  0  0  0  0  0  0
  -25.9310  -11.6480   20.5740 N   0  0  0  0  0  0  0  0  0  0  0  0
  -23.9060  -10.4290   21.0410 C   0  0  0  0  0  0  0  0  0  0  0  0
  -24.3610   -9.4200   21.9190 C   0  0  0  0  0  3  0  0  0  0  0  0
  -23.6290   -8.2240   22.0750 C   0  0  0  0  0  3  0  0  0  0  0  0
  -22.4270   -8.0280   21.3550 C   0  0  0  0  0  0  0  0  0  0  0  0
  -21.9910   -9.0260   20.4650 C   0  0  0  0  0  3  0  0  0  0  0  0
  -22.7240  -10.2130   20.3060 C   0  0  0  0  0  3  0  0  0  0  0  0
  -21.6640   -6.8880   21.4240 O   0  0  0  0  0  0  0  0  0  0  0  0
  -21.6850   -6.0740   22.5280 C   0  0  0  0  0  0  0  0  0  0  0  0
  -21.4010   -6.5640   23.8210 C   0  0  0  0  0  3  0  0  0  0  0  0
  -21.3660   -5.6790   24.9180 C   0  0  0  0  0  3  0  0  0  0  0  0
  -21.6040   -4.3060   24.7220 C   0  0  0  0  0  0  0  0  0  0  0  0
  -21.8820   -3.8140   23.4350 C   0  0  0  0  0  3  0  0  0  0  0  0
  -21.9190   -4.6970   22.3400 C   0  0  0  0  0  0  0  0  0  0  0  0
  -22.1660   -4.2160   21.0980 F   0  0  0  0  0  0  0  0  0  0  0  0
  -21.5630   -3.4530   25.7740 F   0  0  0  0  0  0  0  0  0  0  0  0
  -22.7870  -13.5240   21.1840 C   0  0  0  0  0  0  0  0  0  0  0  0
  -22.0510  -12.8230   22.0390 N   0  0  0  0  0  0  0  0  0  0  0  0
  -22.3550  -14.5550   20.6690 O   0  0  0  0  0  0  0  0  0  0  0  0
  -22.4120  -11.9880   22.4760 H   0  0  0  0  0  0  0  0  0  0  0  0
  -21.1140  -13.1270   22.2620 H   0  0  0  0  0  0  0  0  0  0  0  0
  -25.4330  -15.1880   20.4100 N   0  0  0  0  0  0  0  0  0  0  0  0
  -24.6720  -15.8480   20.5270 H   0  0  0  0  0  0  0  0  0  0  0  0
  -26.2960  -15.6270   20.1140 H   0  0  0  0  0  0  0  0  0  0  0  0
  -33.1830  -13.3150   24.9820 C   0  0  0  0  0  1  0  0  0  0  0  0
  -31.8680  -11.9630   23.3690 C   0  0  0  0  0  1  0  0  0  0  0  0
  -30.6770  -13.4430   25.0030 C   0  0  0  0  0  1  0  0  0  0  0  0
  -31.9210  -13.3320   24.0890 C   0  0  2  0  0  0  0  0  0  0  0  0
  -34.3410  -20.1890   18.9420 C   0  0  0  0  0  2  0  0  0  0  0  0
  -34.5190  -21.5690   19.2480 O   0  0  0  0  0  0  0  0  0  0  0  0
  -33.9740  -22.4070   18.2820 C   0  0  0  0  0  2  0  0  0  0  0  0
  -32.5800  -22.3730   18.3070 O   0  0  0  0  0  0  0  0  0  0  0  0
  -31.9740  -23.0720   19.3930 C   0  0  0  0  0  2  0  0  0  0  0  0
  -31.9700  -24.5880   19.1200 C   0  0  0  0  0  2  0  0  0  0  0  0
  -30.9220  -25.2470   19.8250 O   0  0  0  0  0  0  0  0  0  0  0  0
  -30.7480  -26.5860   19.3650 C   0  0  0  0  0  2  0  0  0  0  0  0
  -29.6760  -27.3410   20.1660 C   0  0  0  0  0  2  0  0  0  0  0  0
  -28.4070  -26.7190   19.9700 O   0  0  0  0  0  0  0  0  0  0  0  0
  -24.6070  -31.8710   23.2150 C   0  0  0  0  0  0  0  0  0  0  0  0
  -27.2650  -27.4860   20.0780 C   0  0  0  0  0  0  0  0  0  0  0  0
  -23.3970  -30.4950   21.5520 C   0  0  0  0  0  3  0  0  0  0  0  0
  -24.8500  -28.9630   20.1230 C   0  0  0  0  0  0  0  0  0  0  0  0
  -25.9190  -30.8490   21.3640 C   0  0  0  0  0  2  0  0  0  0  0  0
  -26.0040  -29.4850   20.7170 C   0  0  0  0  0  0  0  0  0  0  0  0
  -27.2110  -28.7530   20.7070 C   0  0  0  0  0  3  0  0  0  0  0  0
  -26.0860  -26.9600   19.5120 C   0  0  0  0  0  3  0  0  0  0  0  0
  -24.8820  -27.6920   19.5220 C   0  0  0  0  0  3  0  0  0  0  0  0
  -23.6090  -29.8250   20.1670 C   0  0  0  0  0  2  0  0  0  0  0  0
  -24.6600  -31.0830   22.1040 N   0  0  0  0  0  0  0  0  0  0  0  0
  -23.5280  -32.1430   23.7580 O   0  0  0  0  0  0  0  0  0  0  0  0
  -22.7390  -29.4680   22.4980 C   0  0  0  0  0  0  0  0  0  0  0  0
  -21.4130  -29.3040   22.3730 N   0  0  0  0  0  0  0  0  0  0  0  0
  -23.4190  -28.8200   23.2980 O   0  0  0  0  0  0  0  0  0  0  0  0
  -20.9260  -29.8780   21.6990 H   0  0  0  0  0  0  0  0  0  0  0  0
  -18.0280  -28.1380   22.8500 C   0  0  0  0  0  0  0  0  0  0  0  0
  -20.5870  -28.3660   23.1320 C   0  0  0  0  0  3  0  0  0  0  0  0
  -20.6780  -26.9400   22.5410 C   0  0  0  0  0  2  0  0  0  0  0  0
  -19.5760  -26.6380   21.5210 C   0  0  0  0  0  2  0  0  0  0  0  0
  -18.1940  -26.7930   22.1620 C   0  0  0  0  0  2  0  0  0  0  0  0
  -19.1530  -28.8830   23.2920 C   0  0  0  0  0  0  0  0  0  0  0  0
  -18.9460  -30.1450   23.8920 C   0  0  0  0  0  3  0  0  0  0  0  0
  -17.6470  -30.6590   24.0590 C   0  0  0  0  0  3  0  0  0  0  0  0
  -16.5360  -29.9110   23.6320 C   0  0  0  0  0  3  0  0  0  0  0  0
  -16.7280  -28.6530   23.0340 C   0  0  0  0  0  3  0  0  0  0  0  0
  -25.8980  -32.4850   23.8430 C   0  0  0  0  0  3  0  0  0  0  0  0
  -26.4440  -31.6610   25.0730 C   0  0  1  0  0  0  0  0  0  0  0  0
  -25.3730  -31.3740   26.1500 C   0  0  0  0  0  1  0  0  0  0  0  0
  -27.0270  -30.3070   24.6020 C   0  0  0  0  0  1  0  0  0  0  0  0
  -27.6010  -32.4340   25.7470 C   0  0  0  0  0  1  0  0  0  0  0  0
  -25.5850  -33.8640   24.2360 N   0  0  0  0  0  0  0  0  0  0  0  0
  -25.8990  -34.9490   23.5150 C   0  0  0  0  0  0  0  0  0  0  0  0
  -26.5550  -34.8940   22.4700 O   0  0  0  0  0  0  0  0  0  0  0  0
  -25.0100  -33.9830   25.0580 H   0  0  0  0  0  0  0  0  0  0  0  0
  -24.1480  -36.7310   23.2640 C   0  0  0  0  0  1  0  0  0  0  0  0
  -25.4100  -36.3120   24.0350 C   0  0  0  0  0  3  0  0  0  0  0  0
  -27.5580  -37.1810   24.8480 C   0  0  0  0  0  1  0  0  0  0  0  0
  -26.4300  -37.3790   23.9420 N   0  0  0  0  0  0  0  0  0  0  0  0
  -26.0200  -38.2870   24.1410 H   0  0  0  0  0  0  0  0  0  0  0  0
  1  2  1  0
  2  3  1  0
  3  4  1  0
  4  5  1  0
  6  8  2  0
  6  7  1  0
  7  5  1  0
  9  7  1  0
 10  6  1  0
 10 52  1  0
 11 19  1  0
 12 17  1  0
 13 14  1  0
 13 12  1  0
 15 14  1  0
 15 24  1  0
 15 16  1  0
 17 11  1  0
 17 16  1  0
 18 11  2  0
 19 20  1  0
 19 10  1  0
 21 22  2  0
 22 41  1  0
 23 22  1  0
 23 26  1  0
 24 21  1  0
 24 25  1  0
 25 23  2  0
 26 27  1  0
 27 28  2  0
 29 32  1  0
 29 28  1  0
 30 29  2  0
 31 30  1  0
 31 26  2  0
 32 33  1  0
 33 34  1  0
 34 35  2  0
 36 35  1  0
 36 40  1  0
 37 36  2  0
 38 33  2  0
 38 37  1  0
 39 38  1  0
 41 42  1  0
 42 45  1  0
 42 44  1  0
 43 41  2  0
 46 47  1  0
 46 21  1  0
 48 46  1  0
 52 50  1  6
 52 49  1  0
 52 51  1  0
 53 54  1  0
 53  1  1  0
 55 56  1  0
 55 54  1  0
 56 57  1  0
 58 57  1  0
 58 59  1  0
 60 59  1  0
 60 61  1  0
 62 64  1  0
 62 61  1  0
 63 74  2  0
 64 69  1  0
 65 73  1  0
 65 75  1  0
 66 72  1  0
 66 68  1  0
 67 73  1  0
 68 67  1  0
 69 68  2  0
 70 71  1  0
 70 64  2  0
 71 66  2  0
 72 65  1  0
 73 63  1  0
 75 77  2  0
 76 75  1  0
 78 76  1  0
 79 88  2  0
 79 84  1  0
 80 76  1  0
 80 84  1  0
 81 80  1  0
 82 83  1  0
 82 81  1  0
 83 79  1  0
 84 85  2  0
 85 86  1  0
 87 86  2  0
 88 87  1  0
 89 63  1  0
 89 94  1  0
 89 90  1  0
 90 93  1  1
 90 91  1  0
 92 90  1  0
 94 97  1  0
 95 99  1  0
 95 94  1  0
 96 95  2  0
 99 98  1  0
101 99  1  0
101102  1  0
101100  1  0
M  ISO  4  11 100  19 100  61 101  62 101
M  END
>  <TORSDO>  (26) 
F 32

>  <SCORE>  (26) 
27.725

>  <name>  (26) 
26

>  <ligand_id>  (26) 
26

>  <original_smiles>  (26) 
[H]c1c([H])c([H])c2c(c1[H])C([H])([H])C([H])([H])C([H])([H])C2([H])N([H])C(=O)C1([H])N(C(=O)C([H])(N([H])C(=O)C([H])(N([H])C([H])([H])[H])C([H])([H])[H])C(C([H])([H])[H])(C([H])([H])[H])C([H])([H])[H])C([H])([H])c2c([H])c(OC([H])([H])C([H])([H])OC([H])([H])C([H])([H])OC([H])([H])OC([H])([H])C([H])([H])OC([H])([H])C([H])([H])C([H])([H])N([H])C(=O)C([H])(N([H])C(=O)N3C([H])([H])C([H])([H])C([H])([H])C([H])(n4nc(-c5c([H])c([H])c(Oc6c([H])c([H])c(F)c([H])c6F)c([H])c5[H])c(C(=O)N([H])[H])c4N([H])[H])C3([H])[H])C(C([H])([H])[H])(C([H])([H])[H])C([H])([H])[H])c([H])c([H])c2C1([H])[H]

>  <smiles>  (26) 
[H]c1c([H])c([H])c2c(c1[H])C([H])([H])C([H])([H])C([H])([H])C2([H])N([H])C(=O)C1([H])N(C(=O)C([H])(N([H])C(=O)C([H])(N([H])C([H])([H])[H])C([H])([H])[H])C(C([H])([H])[H])(C([H])([H])[H])C([H])([H])[H])C([H])([H])c2c([H])c(OC([H])([H])C([H])([H])OC([H])([H])C([H])([H])OC([H])([H])OC([H])([H])C([H])([H])OC([H])([H])C([H])([H])C([H])([H])N([H])C(=O)C([H])(N([H])C(=O)N3C([H])([H])C([H])([H])C([H])([H])C([H])(n4nc(-c5c([H])c([H])c(Oc6c([H])c([H])c(F)c([H])c6F)c([H])c5[H])c(C(=O)N([H])[H])c4N([H])[H])C3([H])[H])C(C([H])([H])[H])(C([H])([H])[H])C([H])([H])[H])c([H])c([H])c2C1([H])[H]

$$$$
27:0:0
     RDKit          3D

111118  0  0  1  0  0  0  0  0999 V2000
  -21.7300  -32.1940   25.7530 C   0  0  0  0  0  2  0  0  0  0  0  0
  -20.6680  -33.1120   25.2390 N   0  0  0  0  0  4  0  0  0  0  0  0
  -19.9740  -32.5840   24.7380 H   0  0  0  0  0  0  0  0  0  0  0  0
  -20.2290  -33.5170   26.0460 H   0  0  0  0  0  0  0  0  0  0  0  0
  -21.1250  -34.2350   24.3360 C   0  0  0  0  0  2  0  0  0  0  0  0
  -20.9440  -34.0980   22.7640 C   0  0  0  0  0  2  0  0  0  0  0  0
  -22.2230  -33.7510   21.9500 C   0  0  0  0  0  3  0  0  0  0  0  0
  -22.2690  -33.8220   20.4000 C   0  0  0  0  0  3  0  0  0  0  0  0
  -23.6730  -33.7070   19.6760 C   0  0  0  0  0  2  0  0  0  0  0  0
  -24.2020  -32.3920   19.3690 O   0  0  0  0  0  0  0  0  0  0  0  0
  -25.2360  -32.3400   18.3370 C   0  0  0  0  0  2  0  0  0  0  0  0
  -25.8750  -30.9610   17.8530 C   0  0  0  0  0  2  0  0  0  0  0  0
  -27.0790  -30.4320   18.5040 O   0  0  0  0  0  0  0  0  0  0  0  0
  -27.6930  -29.2460   17.8950 C   0  0  0  0  0  2  0  0  0  0  0  0
  -28.8050  -28.3840   18.7010 C   0  0  0  0  0  2  0  0  0  0  0  0
  -28.4350  -27.2350   19.5580 O   0  0  0  0  0  0  0  0  0  0  0  0
  -24.7020  -31.8340   23.2000 C   0  0  0  0  0  0  0  0  0  0  0  0
  -27.2350  -27.5140   20.1080 C   0  0  0  0  0  0  0  0  0  0  0  0
  -23.4150  -30.4160   21.5570 C   0  0  0  0  0  3  0  0  0  0  0  0
  -24.8280  -28.8570   20.2080 C   0  0  0  0  0  0  0  0  0  0  0  0
  -25.9370  -30.7680   21.4080 C   0  0  0  0  0  2  0  0  0  0  0  0
  -25.9610  -29.3860   20.8490 C   0  0  0  0  0  0  0  0  0  0  0  0
  -27.1610  -28.6840   20.8620 C   0  0  0  0  0  3  0  0  0  0  0  0
  -26.0920  -26.9110   19.5540 C   0  0  0  0  0  3  0  0  0  0  0  0
  -24.8710  -27.6000   19.5970 C   0  0  0  0  0  3  0  0  0  0  0  0
  -23.5700  -29.6490   20.2290 C   0  0  0  0  0  2  0  0  0  0  0  0
  -24.6800  -31.0590   22.0860 N   0  0  0  0  0  0  0  0  0  0  0  0
  -23.6720  -32.0910   23.7920 O   0  0  0  0  0  0  0  0  0  0  0  0
  -22.7440  -29.4510   22.5380 C   0  0  0  0  0  0  0  0  0  0  0  0
  -21.4230  -29.2860   22.4050 N   0  0  0  0  0  0  0  0  0  0  0  0
  -23.4180  -28.8110   23.3540 O   0  0  0  0  0  0  0  0  0  0  0  0
  -20.9330  -29.8630   21.7360 H   0  0  0  0  0  0  0  0  0  0  0  0
  -18.0180  -28.1360   22.8380 C   0  0  0  0  0  0  0  0  0  0  0  0
  -20.5860  -28.3150   23.0970 C   0  0  0  0  0  3  0  0  0  0  0  0
  -20.6810  -26.9230   22.4400 C   0  0  0  0  0  2  0  0  0  0  0  0
  -19.5470  -26.6210   21.4640 C   0  0  0  0  0  2  0  0  0  0  0  0
  -18.1720  -26.8030   22.1150 C   0  0  0  0  0  2  0  0  0  0  0  0
  -19.1610  -28.8410   23.2960 C   0  0  0  0  0  0  0  0  0  0  0  0
  -18.9850  -30.0870   23.9420 C   0  0  0  0  0  3  0  0  0  0  0  0
  -17.7120  -30.6420   24.1310 C   0  0  0  0  0  3  0  0  0  0  0  0
  -16.5800  -29.9540   23.6630 C   0  0  0  0  0  3  0  0  0  0  0  0
  -16.7290  -28.6960   23.0330 C   0  0  0  0  0  3  0  0  0  0  0  0
  -25.9820  -32.4640   23.8200 C   0  0  0  0  0  3  0  0  0  0  0  0
  -25.6460  -33.8440   24.2160 N   0  0  0  0  0  0  0  0  0  0  0  0
  -25.9160  -34.9390   23.4880 C   0  0  0  0  0  0  0  0  0  0  0  0
  -26.5630  -34.8980   22.4350 O   0  0  0  0  0  0  0  0  0  0  0  0
  -25.0590  -33.9470   25.0260 H   0  0  0  0  0  0  0  0  0  0  0  0
  -24.1600  -36.7670   23.2560 C   0  0  0  0  0  1  0  0  0  0  0  0
  -25.4100  -36.2960   24.0160 C   0  0  0  0  0  3  0  0  0  0  0  0
  -27.5500  -37.1510   24.8640 C   0  0  0  0  0  1  0  0  0  0  0  0
  -26.4200  -37.3740   23.9640 N   0  0  0  0  0  0  0  0  0  0  0  0
  -26.0060  -38.2610   24.2290 H   0  0  0  0  0  0  0  0  0  0  0  0
  -26.5050  -31.6320   25.0580 C   0  0  1  0  0  0  0  0  0  0  0  0
  -25.4320  -31.3250   26.1250 C   0  0  0  0  0  1  0  0  0  0  0  0
  -27.0500  -30.2580   24.5970 C   0  0  0  0  0  1  0  0  0  0  0  0
  -27.6640  -32.3860   25.7540 C   0  0  0  0  0  1  0  0  0  0  0  0
  -21.4450  -31.1110   26.8610 C   0  0  0  0  0  2  0  0  0  0  0  0
  -21.6800  -29.6680   26.2980 C   0  0  0  0  0  2  0  0  0  0  0  0
  -22.1380  -28.4700   27.1960 C   0  0  0  0  0  2  0  0  0  0  0  0
  -22.3270  -27.2230   26.3720 N   0  0  0  0  0  4  0  0  0  0  0  0
  -22.8080  -27.5030   25.5320 H   0  0  0  0  0  0  0  0  0  0  0  0
  -21.4100  -26.8870   26.1160 H   0  0  0  0  0  0  0  0  0  0  0  0
  -23.1310  -26.0600   26.8900 C   0  0  0  0  0  2  0  0  0  0  0  0
  -23.5180  -25.0920   25.7120 C   0  0  0  0  0  2  0  0  0  0  0  0
  -24.3350  -23.9100   25.9640 O   0  0  0  0  0  0  0  0  0  0  0  0
  -24.2470  -22.9290   24.8910 C   0  0  0  0  0  2  0  0  0  0  0  0
  -25.4160  -21.8870   24.6970 C   0  0  0  0  0  2  0  0  0  0  0  0
  -25.4090  -21.1710   23.3020 C   0  0  0  0  0  2  0  0  0  0  0  0
  -26.1510  -19.7970   23.0860 C   0  0  0  0  0  2  0  0  0  0  0  0
  -27.5660  -19.7530   23.3760 O   0  0  0  0  0  0  0  0  0  0  0  0
  -28.5030  -19.0930   22.4710 C   0  0  0  0  0  2  0  0  0  0  0  0
  -28.4250  -17.5400   22.2070 C   0  0  0  0  0  3  0  0  0  0  0  0
  -29.7720  -16.8640   21.6910 C   0  0  0  0  0  3  0  0  0  0  0  0
  -30.5290  -14.5520   20.7020 C   0  0  0  0  0  0  0  0  0  0  0  0
  -30.4410  -12.3960   19.4360 C   0  0  0  0  0  2  0  0  0  0  0  0
  -29.5060  -12.5560   18.2140 C   0  0  0  0  0  2  0  0  0  0  0  0
  -28.0230  -12.3760   18.6070 C   0  0  0  0  0  2  0  0  0  0  0  0
  -27.6490  -13.1900   19.8730 C   0  0  0  0  0  3  0  0  0  0  0  0
  -28.6650  -12.9090   20.9970 C   0  0  0  0  0  2  0  0  0  0  0  0
  -29.9820  -13.3180   20.4910 N   0  0  0  0  0  0  0  0  0  0  0  0
  -31.6480  -14.8540   20.2610 O   0  0  0  0  0  0  0  0  0  0  0  0
  -29.6790  -15.4160   21.3390 N   0  0  0  0  0  0  0  0  0  0  0  0
  -28.8040  -14.9810   21.5960 H   0  0  0  0  0  0  0  0  0  0  0  0
  -25.2520  -13.8170   20.5640 C   0  0  0  0  0  0  0  0  0  0  0  0
  -24.1780  -13.0520   20.9120 C   0  0  0  0  0  0  0  0  0  0  0  0
  -24.6290  -11.6930   20.8730 C   0  0  0  0  0  0  0  0  0  0  0  0
  -26.2900  -12.9280   20.3230 N   0  0  0  0  0  0  0  0  0  0  0  0
  -25.9170  -11.6460   20.5640 N   0  0  0  0  0  0  0  0  0  0  0  0
  -23.8960  -10.4340   21.0430 C   0  0  0  0  0  0  0  0  0  0  0  0
  -24.3560   -9.4240   21.9190 C   0  0  0  0  0  3  0  0  0  0  0  0
  -23.6270   -8.2250   22.0730 C   0  0  0  0  0  3  0  0  0  0  0  0
  -22.4240   -8.0270   21.3520 C   0  0  0  0  0  0  0  0  0  0  0  0
  -21.9880   -9.0270   20.4630 C   0  0  0  0  0  3  0  0  0  0  0  0
  -22.7160  -10.2150   20.3070 C   0  0  0  0  0  3  0  0  0  0  0  0
  -21.6620   -6.8860   21.4240 O   0  0  0  0  0  0  0  0  0  0  0  0
  -21.6840   -6.0730   22.5300 C   0  0  0  0  0  0  0  0  0  0  0  0
  -21.4010   -6.5640   23.8250 C   0  0  0  0  0  3  0  0  0  0  0  0
  -21.3650   -5.6740   24.9210 C   0  0  0  0  0  3  0  0  0  0  0  0
  -21.6020   -4.3010   24.7210 C   0  0  0  0  0  0  0  0  0  0  0  0
  -21.8810   -3.8150   23.4340 C   0  0  0  0  0  3  0  0  0  0  0  0
  -21.9200   -4.6970   22.3410 C   0  0  0  0  0  0  0  0  0  0  0  0
  -22.1690   -4.2200   21.0980 F   0  0  0  0  0  0  0  0  0  0  0  0
  -21.5610   -3.4460   25.7710 F   0  0  0  0  0  0  0  0  0  0  0  0
  -22.7780  -13.5280   21.1840 C   0  0  0  0  0  0  0  0  0  0  0  0
  -22.0390  -12.8330   22.0370 N   0  0  0  0  0  0  0  0  0  0  0  0
  -22.3490  -14.5620   20.6620 O   0  0  0  0  0  0  0  0  0  0  0  0
  -22.3840  -11.9860   22.4720 H   0  0  0  0  0  0  0  0  0  0  0  0
  -21.1060  -13.1500   22.2660 H   0  0  0  0  0  0  0  0  0  0  0  0
  -25.4430  -15.1910   20.4130 N   0  0  0  0  0  0  0  0  0  0  0  0
  -24.6930  -15.8610   20.5380 H   0  0  0  0  0  0  0  0  0  0  0  0
  -26.3070  -15.6250   20.1200 H   0  0  0  0  0  0  0  0  0  0  0  0
  1 57  1  0
  2  1  1  0
  2  4  1  0
  3  2  1  0
  5  2  1  0
  6  5  1  0
  7  6  1  0
  8  7  2  0
  9  8  1  0
 10  9  1  0
 11 10  1  0
 12 11  1  0
 12 13  1  0
 14 13  1  0
 14 15  1  0
 15 16  1  0
 16 18  1  0
 17 28  2  0
 18 23  1  0
 19 27  1  0
 19 29  1  0
 20 26  1  0
 20 22  1  0
 21 27  1  0
 22 23  2  0
 22 21  1  0
 24 25  1  0
 24 18  2  0
 25 20  2  0
 26 19  1  0
 27 17  1  0
 29 31  2  0
 30 29  1  0
 32 30  1  0
 33 42  2  0
 33 38  1  0
 34 30  1  0
 34 38  1  0
 35 34  1  0
 36 37  1  0
 36 35  1  0
 37 33  1  0
 38 39  2  0
 39 40  1  0
 41 40  2  0
 42 41  1  0
 43 17  1  0
 43 44  1  0
 43 53  1  0
 44 47  1  0
 45 49  1  0
 45 44  1  0
 46 45  2  0
 49 48  1  0
 51 49  1  0
 51 52  1  0
 51 50  1  0
 53 56  1  1
 53 54  1  0
 55 53  1  0
 58 57  1  0
 58 59  1  0
 60 63  1  0
 60 59  1  0
 61 60  1  0
 62 60  1  0
 64 65  1  0
 64 63  1  0
 66 65  1  0
 67 66  1  0
 68 67  1  0
 69 68  1  0
 69 70  1  0
 71 70  1  0
 72 71  1  0
 73 72  2  0
 74 82  1  0
 75 80  1  0
 76 77  1  0
 76 75  1  0
 78 77  1  0
 78 87  1  0
 78 79  1  0
 80 74  1  0
 80 79  1  0
 81 74  2  0
 82 83  1  0
 82 73  1  0
 84 85  2  0
 85104  1  0
 86 85  1  0
 86 89  1  0
 87 88  1  0
 87 84  1  0
 88 86  2  0
 89 90  1  0
 90 91  2  0
 92 95  1  0
 92 91  1  0
 93 92  2  0
 94 93  1  0
 94 89  2  0
 95 96  1  0
 96 97  1  0
 97 98  2  0
 99 98  1  0
 99103  1  0
100 99  2  0
101 96  2  0
101100  1  0
102101  1  0
104105  1  0
105108  1  0
105107  1  0
106104  2  0
109110  1  0
109 84  1  0
111109  1  0
M  ISO  4  15 101  16 101  74 100  82 100
M  END
>  <TORSDO>  (27) 
F 43

>  <SCORE>  (27) 
86.559

>  <name>  (27) 
27

>  <ligand_id>  (27) 
27

>  <original_smiles>  (27) 
[H]c1c([H])c([H])c2c(c1[H])C([H])([H])C([H])([H])C([H])([H])C2([H])N([H])C(=O)C1([H])N(C(=O)C([H])(N([H])C(=O)C([H])(N([H])C([H])([H])[H])C([H])([H])[H])C(C([H])([H])[H])(C([H])([H])[H])C([H])([H])[H])C([H])([H])c2c([H])c(OC([H])([H])C([H])([H])OC([H])([H])C([H])([H])OC([H])([H])C([H])([H])C([H])([H])C([H])([H])C([H])([H])[N+]([H])([H])C([H])([H])C([H])([H])C([H])([H])C([H])([H])[N+]([H])([H])C([H])([H])C([H])([H])OC([H])([H])C([H])([H])C([H])([H])C([H])([H])OC([H])([H])C([H])([H])C([H])([H])N([H])C(=O)N3C([H])([H])C([H])([H])C([H])([H])C([H])(n4nc(-c5c([H])c([H])c(Oc6c([H])c([H])c(F)c([H])c6F)c([H])c5[H])c(C(=O)N([H])[H])c4N([H])[H])C3([H])[H])c([H])c([H])c2C1([H])[H]

>  <smiles>  (27) 
[H]c1c([H])c([H])c2c(c1[H])C([H])([H])C([H])([H])C([H])([H])C2([H])N([H])C(=O)C1([H])N(C(=O)C([H])(N([H])C(=O)C([H])(N([H])C([H])([H])[H])C([H])([H])[H])C(C([H])([H])[H])(C([H])([H])[H])C([H])([H])[H])C([H])([H])c2c([H])c(OC([H])([H])C([H])([H])OC([H])([H])C([H])([H])OC([H])([H])C([H])([H])C([H])([H])C([H])([H])C([H])([H])[N+]([H])([H])C([H])([H])C([H])([H])C([H])([H])C([H])([H])[N+]([H])([H])C([H])([H])C([H])([H])OC([H])([H])C([H])([H])C([H])([H])C([H])([H])OC([H])([H])C([H])([H])C([H])([H])N([H])C(=O)N3C([H])([H])C([H])([H])C([H])([H])C([H])(n4nc(-c5c([H])c([H])c(Oc6c([H])c([H])c(F)c([H])c6F)c([H])c5[H])c(C(=O)N([H])[H])c4N([H])[H])C3([H])[H])c([H])c([H])c2C1([H])[H]

$$$$
28:0:0
     RDKit          3D

101108  0  0  1  0  0  0  0  0999 V2000
  -31.2880  -23.6230   17.5810 N   0  0  0  0  0  4  0  0  0  0  0  0
  -32.2680  -23.4270   17.7090 H   0  0  0  0  0  0  0  0  0  0  0  0
  -31.0540  -23.3410   16.6420 H   0  0  0  0  0  0  0  0  0  0  0  0
  -30.5070  -22.8010   18.5310 C   0  0  0  0  0  2  0  0  0  0  0  0
  -30.9270  -23.0240   20.0060 C   0  0  0  0  0  2  0  0  0  0  0  0
  -30.1190  -22.1690   20.9810 C   0  0  0  0  0  2  0  0  0  0  0  0
  -30.8210  -22.1660   22.2260 O   0  0  0  0  0  0  0  0  0  0  0  0
  -30.9770  -20.8850   22.8350 C   0  0  0  0  0  2  0  0  0  0  0  0
  -32.1130  -20.0880   22.1580 C   0  0  0  0  0  2  0  0  0  0  0  0
  -31.6520  -19.6740   20.8850 O   0  0  0  0  0  0  0  0  0  0  0  0
  -32.5960  -18.9510   20.1190 C   0  0  0  0  0  2  0  0  0  0  0  0
  -32.0420  -18.8330   18.6850 C   0  0  0  0  0  2  0  0  0  0  0  0
  -30.7050  -18.3150   18.6110 O   0  0  0  0  0  0  0  0  0  0  0  0
  -30.5610  -16.9700   19.0520 C   0  0  0  0  0  2  0  0  0  0  0  0
  -29.8270  -16.9100   20.4300 C   0  0  0  0  0  2  0  0  0  0  0  0
  -30.7710  -14.6600   20.9240 C   0  0  0  0  0  0  0  0  0  0  0  0
  -30.5310  -12.5430   19.7170 C   0  0  0  0  0  2  0  0  0  0  0  0
  -29.6620  -12.7610   18.4640 C   0  0  0  0  0  2  0  0  0  0  0  0
  -28.1630  -12.6220   18.8020 C   0  0  0  0  0  2  0  0  0  0  0  0
  -27.7550  -13.4340   20.0630 C   0  0  0  0  0  3  0  0  0  0  0  0
  -28.7450  -13.2000   21.2300 C   0  0  0  0  0  2  0  0  0  0  0  0
  -30.0940  -13.5040   20.7330 N   0  0  0  0  0  0  0  0  0  0  0  0
  -31.9420  -14.8320   20.5870 O   0  0  0  0  0  0  0  0  0  0  0  0
  -30.0040  -15.7000   21.2450 N   0  0  0  0  0  0  0  0  0  0  0  0
  -30.0140  -15.8760   22.2410 H   0  0  0  0  0  0  0  0  0  0  0  0
  -25.3020  -14.0050   20.5910 C   0  0  0  0  0  0  0  0  0  0  0  0
  -24.2280  -13.2180   20.8970 C   0  0  0  0  0  0  0  0  0  0  0  0
  -24.7180  -11.8720   20.9160 C   0  0  0  0  0  0  0  0  0  0  0  0
  -26.3790  -13.1410   20.4530 N   0  0  0  0  0  0  0  0  0  0  0  0
  -26.0250  -11.8550   20.6960 N   0  0  0  0  0  0  0  0  0  0  0  0
  -24.0130  -10.5980   21.0770 C   0  0  0  0  0  0  0  0  0  0  0  0
  -24.4120   -9.6530   22.0490 C   0  0  0  0  0  3  0  0  0  0  0  0
  -23.7020   -8.4420   22.2000 C   0  0  0  0  0  3  0  0  0  0  0  0
  -22.5820   -8.1700   21.3820 C   0  0  0  0  0  0  0  0  0  0  0  0
  -22.2060   -9.1010   20.3960 C   0  0  0  0  0  3  0  0  0  0  0  0
  -22.9160  -10.3030   20.2420 C   0  0  0  0  0  3  0  0  0  0  0  0
  -21.8610   -7.0010   21.4290 O   0  0  0  0  0  0  0  0  0  0  0  0
  -21.7510   -6.2640   22.5820 C   0  0  0  0  0  0  0  0  0  0  0  0
  -21.2350   -6.8210   23.7720 C   0  0  0  0  0  3  0  0  0  0  0  0
  -21.0790   -6.0160   24.9170 C   0  0  0  0  0  3  0  0  0  0  0  0
  -21.4310   -4.6540   24.8740 C   0  0  0  0  0  0  0  0  0  0  0  0
  -21.9400   -4.0940   23.6880 C   0  0  0  0  0  3  0  0  0  0  0  0
  -22.0970   -4.8990   22.5440 C   0  0  0  0  0  0  0  0  0  0  0  0
  -22.5680   -4.3500   21.3980 F   0  0  0  0  0  0  0  0  0  0  0  0
  -21.2710   -3.8790   25.9730 F   0  0  0  0  0  0  0  0  0  0  0  0
  -22.8050  -13.6610   21.0700 C   0  0  0  0  0  0  0  0  0  0  0  0
  -22.0420  -12.9510   21.8930 N   0  0  0  0  0  0  0  0  0  0  0  0
  -22.3800  -14.6710   20.5050 O   0  0  0  0  0  0  0  0  0  0  0  0
  -22.4070  -12.1300   22.3500 H   0  0  0  0  0  0  0  0  0  0  0  0
  -21.0850  -13.2190   22.0750 H   0  0  0  0  0  0  0  0  0  0  0  0
  -25.4700  -15.3730   20.3930 N   0  0  0  0  0  0  0  0  0  0  0  0
  -24.7050  -16.0350   20.4450 H   0  0  0  0  0  0  0  0  0  0  0  0
  -26.3590  -15.7990   20.1610 H   0  0  0  0  0  0  0  0  0  0  0  0
  -31.0730  -25.0790   17.7040 C   0  0  0  0  0  2  0  0  0  0  0  0
  -32.3980  -25.8440   17.5630 C   0  0  0  0  0  2  0  0  0  0  0  0
  -32.2620  -27.2900   18.0440 C   0  0  0  0  0  2  0  0  0  0  0  0
  -31.9080  -27.2290   19.4190 O   0  0  0  0  0  0  0  0  0  0  0  0
  -31.0840  -28.2970   19.8560 C   0  0  0  0  0  2  0  0  0  0  0  0
  -30.5160  -27.9460   21.2360 C   0  0  0  0  0  2  0  0  0  0  0  0
  -29.4430  -26.8310   21.2100 C   0  0  0  0  0  2  0  0  0  0  0  0
  -28.5570  -26.8330   20.0780 O   0  0  0  0  0  0  0  0  0  0  0  0
  -24.6690  -31.9060   23.2630 C   0  0  0  0  0  0  0  0  0  0  0  0
  -27.3900  -27.5670   20.1420 C   0  0  0  0  0  0  0  0  0  0  0  0
  -23.4780  -30.5160   21.5890 C   0  0  0  0  0  3  0  0  0  0  0  0
  -24.9530  -29.0100   20.1530 C   0  0  0  0  0  0  0  0  0  0  0  0
  -25.9900  -30.9100   21.4000 C   0  0  0  0  0  2  0  0  0  0  0  0
  -26.0900  -29.5440   20.7650 C   0  0  0  0  0  0  0  0  0  0  0  0
  -27.3010  -28.8260   20.7740 C   0  0  0  0  0  3  0  0  0  0  0  0
  -26.2410  -27.0490   19.5040 C   0  0  0  0  0  3  0  0  0  0  0  0
  -25.0220  -27.7570   19.5150 C   0  0  0  0  0  3  0  0  0  0  0  0
  -23.6980  -29.8510   20.2000 C   0  0  0  0  0  2  0  0  0  0  0  0
  -24.7290  -31.1250   22.1440 N   0  0  0  0  0  0  0  0  0  0  0  0
  -23.5860  -32.1560   23.8060 O   0  0  0  0  0  0  0  0  0  0  0  0
  -22.8330  -29.4780   22.5320 C   0  0  0  0  0  0  0  0  0  0  0  0
  -21.5090  -29.2950   22.4060 N   0  0  0  0  0  0  0  0  0  0  0  0
  -23.5200  -28.8360   23.3310 O   0  0  0  0  0  0  0  0  0  0  0  0
  -21.0120  -29.8580   21.7300 H   0  0  0  0  0  0  0  0  0  0  0  0
  -18.1410  -28.0980   22.8930 C   0  0  0  0  0  0  0  0  0  0  0  0
  -20.7000  -28.3420   23.1610 C   0  0  0  0  0  3  0  0  0  0  0  0
  -20.7990  -26.9260   22.5500 C   0  0  0  0  0  2  0  0  0  0  0  0
  -19.6920  -26.6300   21.5320 C   0  0  0  0  0  2  0  0  0  0  0  0
  -18.3130  -26.7630   22.1850 C   0  0  0  0  0  2  0  0  0  0  0  0
  -19.2620  -28.8450   23.3390 C   0  0  0  0  0  0  0  0  0  0  0  0
  -19.0500  -30.0960   23.9600 C   0  0  0  0  0  3  0  0  0  0  0  0
  -17.7470  -30.5960   24.1440 C   0  0  0  0  0  3  0  0  0  0  0  0
  -16.6390  -29.8440   23.7180 C   0  0  0  0  0  3  0  0  0  0  0  0
  -16.8370  -28.5980   23.0970 C   0  0  0  0  0  3  0  0  0  0  0  0
  -25.9490  -32.5350   23.8970 C   0  0  0  0  0  3  0  0  0  0  0  0
  -25.6250  -33.9150   24.2730 N   0  0  0  0  0  0  0  0  0  0  0  0
  -25.9440  -34.9940   23.5450 C   0  0  0  0  0  0  0  0  0  0  0  0
  -26.6100  -34.9320   22.5090 O   0  0  0  0  0  0  0  0  0  0  0  0
  -25.0370  -34.0390   25.0830 H   0  0  0  0  0  0  0  0  0  0  0  0
  -24.1960  -36.7750   23.2460 C   0  0  0  0  0  1  0  0  0  0  0  0
  -25.4410  -36.3590   24.0460 C   0  0  0  0  0  3  0  0  0  0  0  0
  -27.5630  -37.2430   24.9110 C   0  0  0  0  0  1  0  0  0  0  0  0
  -26.4620  -37.4260   23.9690 N   0  0  0  0  0  0  0  0  0  0  0  0
  -26.0450  -38.3370   24.1440 H   0  0  0  0  0  0  0  0  0  0  0  0
  -26.4890  -31.7310   25.1430 C   0  0  1  0  0  0  0  0  0  0  0  0
  -25.4100  -31.4390   26.2120 C   0  0  0  0  0  1  0  0  0  0  0  0
  -27.0870  -30.3780   24.6970 C   0  0  0  0  0  1  0  0  0  0  0  0
  -27.6390  -32.5120   25.8210 C   0  0  0  0  0  1  0  0  0  0  0  0
  1 54  1  0
  1  2  1  0
  1  4  1  0
  3  1  1  0
  4  5  1  0
  5  6  1  0
  6  7  1  0
  7  8  1  0
  9  8  1  0
 10  9  1  0
 11 10  1  0
 12 11  1  0
 13 12  1  0
 13 14  1  0
 14 15  1  0
 15 24  1  0
 16 24  1  0
 17 22  1  0
 18 19  1  0
 18 17  1  0
 20 19  1  0
 20 29  1  0
 20 21  1  0
 22 16  1  0
 22 21  1  0
 23 16  2  0
 24 25  1  0
 26 27  2  0
 27 28  1  0
 27 46  1  0
 28 31  1  0
 29 26  1  0
 29 30  1  0
 30 28  2  0
 31 32  1  0
 32 33  2  0
 34 37  1  0
 34 33  1  0
 35 34  2  0
 36 35  1  0
 36 31  2  0
 37 38  1  0
 38 39  1  0
 39 40  2  0
 41 40  1  0
 41 45  1  0
 42 41  2  0
 43 38  2  0
 43 42  1  0
 44 43  1  0
 46 47  1  0
 47 50  1  0
 47 49  1  0
 48 46  2  0
 51 52  1  0
 51 26  1  0
 53 51  1  0
 55 54  1  0
 55 56  1  0
 56 57  1  0
 57 58  1  0
 58 59  1  0
 60 59  1  0
 61 63  1  0
 61 60  1  0
 62 73  2  0
 63 68  1  0
 64 72  1  0
 64 74  1  0
 65 71  1  0
 65 67  1  0
 66 72  1  0
 67 68  2  0
 67 66  1  0
 69 70  1  0
 69 63  2  0
 70 65  2  0
 71 64  1  0
 72 62  1  0
 74 76  2  0
 75 74  1  0
 77 75  1  0
 78 87  2  0
 78 83  1  0
 79 75  1  0
 79 83  1  0
 80 79  1  0
 81 82  1  0
 81 80  1  0
 82 78  1  0
 83 84  2  0
 84 85  1  0
 86 85  2  0
 87 86  1  0
 88 62  1  0
 88 89  1  0
 88 98  1  0
 89 92  1  0
 90 94  1  0
 90 89  1  0
 91 90  2  0
 94 93  1  0
 96 94  1  0
 96 97  1  0
 96 95  1  0
 98101  1  1
 98 99  1  0
100 98  1  0
M  ISO  4  16 100  24 100  60 101  61 101
M  END
>  <TORSDO>  (28) 
F 35

>  <SCORE>  (28) 
-10.143

>  <name>  (28) 
28

>  <ligand_id>  (28) 
28

>  <original_smiles>  (28) 
[H]c1c([H])c([H])c2c(c1[H])C([H])([H])C([H])([H])C([H])([H])C2([H])N([H])C(=O)C1([H])N(C(=O)C([H])(N([H])C(=O)C([H])(N([H])C([H])([H])[H])C([H])([H])[H])C(C([H])([H])[H])(C([H])([H])[H])C([H])([H])[H])C([H])([H])c2c([H])c(OC([H])([H])C([H])([H])C([H])([H])OC([H])([H])C([H])([H])C([H])([H])[N+]([H])([H])C([H])([H])C([H])([H])C([H])([H])OC([H])([H])C([H])([H])OC([H])([H])C([H])([H])OC([H])([H])C([H])([H])N([H])C(=O)N3C([H])([H])C([H])([H])C([H])([H])C([H])(n4nc(-c5c([H])c([H])c(Oc6c([H])c([H])c(F)c([H])c6F)c([H])c5[H])c(C(=O)N([H])[H])c4N([H])[H])C3([H])[H])c([H])c([H])c2C1([H])[H]

>  <smiles>  (28) 
[H]c1c([H])c([H])c2c(c1[H])C([H])([H])C([H])([H])C([H])([H])C2([H])N([H])C(=O)C1([H])N(C(=O)C([H])(N([H])C(=O)C([H])(N([H])C([H])([H])[H])C([H])([H])[H])C(C([H])([H])[H])(C([H])([H])[H])C([H])([H])[H])C([H])([H])c2c([H])c(OC([H])([H])C([H])([H])C([H])([H])OC([H])([H])C([H])([H])C([H])([H])[N+]([H])([H])C([H])([H])C([H])([H])C([H])([H])OC([H])([H])C([H])([H])OC([H])([H])C([H])([H])OC([H])([H])C([H])([H])N([H])C(=O)N3C([H])([H])C([H])([H])C([H])([H])C([H])(n4nc(-c5c([H])c([H])c(Oc6c([H])c([H])c(F)c([H])c6F)c([H])c5[H])c(C(=O)N([H])[H])c4N([H])[H])C3([H])[H])c([H])c([H])c2C1([H])[H]

$$$$
29:0:0
     RDKit          3D

111118  0  0  1  0  0  0  0  0999 V2000
  -19.8200  -22.6480   18.3050 C   0  0  0  0  0  0  0  0  0  0  0  0
  -21.0890  -22.6400   17.8840 N   0  0  0  0  0  0  0  0  0  0  0  0
  -19.1170  -21.6370   18.3460 O   0  0  0  0  0  0  0  0  0  0  0  0
  -21.6470  -23.4800   17.9570 H   0  0  0  0  0  0  0  0  0  0  0  0
  -21.7740  -21.5050   17.2550 C   0  0  0  0  0  3  0  0  0  0  0  0
  -20.7600  -20.6920   16.4350 C   0  0  0  0  0  0  0  0  0  0  0  0
  -21.2060  -20.0310   15.3730 N   0  0  0  0  0  0  0  0  0  0  0  0
  -19.5690  -20.6640   16.7500 O   0  0  0  0  0  0  0  0  0  0  0  0
  -22.1850  -20.0620   15.1220 H   0  0  0  0  0  0  0  0  0  0  0  0
  -20.5720  -19.4870   14.8070 H   0  0  0  0  0  0  0  0  0  0  0  0
  -22.5230  -20.6620   18.3250 C   0  0  0  0  0  2  0  0  0  0  0  0
  -23.8800  -21.0880   18.4320 O   0  0  0  0  0  0  0  0  0  0  0  0
  -24.8160  -20.0530   18.7120 C   0  0  0  0  0  2  0  0  0  0  0  0
  -26.1980  -20.6040   18.3490 C   0  0  0  0  0  2  0  0  0  0  0  0
  -27.0280  -19.6120   17.7540 O   0  0  0  0  0  0  0  0  0  0  0  0
  -28.3990  -19.9630   17.8710 C   0  0  0  0  0  2  0  0  0  0  0  0
  -29.2830  -19.2220   16.8670 C   0  0  0  0  0  2  0  0  0  0  0  0
  -30.5070  -18.9620   17.5450 O   0  0  0  0  0  0  0  0  0  0  0  0
  -30.9340  -17.6060   17.5400 C   0  0  0  0  0  2  0  0  0  0  0  0
  -32.2740  -17.4540   16.8070 C   0  0  0  0  0  2  0  0  0  0  0  0
  -32.7680  -15.9970   16.6250 C   0  0  0  0  0  2  0  0  0  0  0  0
  -35.0900  -15.0360   16.7260 C   0  0  0  0  0  0  0  0  0  0  0  0
  -37.2460  -14.4060   17.7420 C   0  0  0  0  0  2  0  0  0  0  0  0
  -37.0600  -14.1800   19.2570 C   0  0  0  0  0  2  0  0  0  0  0  0
  -37.1750  -15.5120   20.0280 C   0  0  0  0  0  2  0  0  0  0  0  0
  -36.2910  -16.6370   19.4210 C   0  0  0  0  0  3  0  0  0  0  0  0
  -36.5370  -16.7290   17.9000 C   0  0  0  0  0  2  0  0  0  0  0  0
  -36.2640  -15.4020   17.3010 N   0  0  0  0  0  0  0  0  0  0  0  0
  -34.8090  -13.8780   16.3980 O   0  0  0  0  0  0  0  0  0  0  0  0
  -34.2220  -16.0440   16.6240 N   0  0  0  0  0  0  0  0  0  0  0  0
  -34.6180  -16.9330   16.8840 H   0  0  0  0  0  0  0  0  0  0  0  0
  -35.6460  -18.7210   20.7890 C   0  0  0  0  0  0  0  0  0  0  0  0
  -36.3790  -19.7760   21.2530 C   0  0  0  0  0  0  0  0  0  0  0  0
  -37.7160  -19.5500   20.8020 C   0  0  0  0  0  0  0  0  0  0  0  0
  -36.5260  -17.9220   20.0800 N   0  0  0  0  0  0  0  0  0  0  0  0
  -37.7730  -18.4570   20.0520 N   0  0  0  0  0  0  0  0  0  0  0  0
  -38.9610  -20.2790   21.0890 C   0  0  0  0  0  0  0  0  0  0  0  0
  -39.8110  -20.7180   20.0510 C   0  0  0  0  0  3  0  0  0  0  0  0
  -40.9910  -21.4290   20.3430 C   0  0  0  0  0  3  0  0  0  0  0  0
  -41.3320  -21.7140   21.6850 C   0  0  0  0  0  0  0  0  0  0  0  0
  -40.4960  -21.2580   22.7190 C   0  0  0  0  0  3  0  0  0  0  0  0
  -39.3210  -20.5470   22.4240 C   0  0  0  0  0  3  0  0  0  0  0  0
  -42.4770  -22.3720   22.0660 O   0  0  0  0  0  0  0  0  0  0  0  0
  -43.0990  -23.2720   21.2370 C   0  0  0  0  0  0  0  0  0  0  0  0
  -42.4270  -24.4040   20.7260 C   0  0  0  0  0  3  0  0  0  0  0  0
  -43.1270  -25.3360   19.9340 C   0  0  0  0  0  3  0  0  0  0  0  0
  -44.4960  -25.1450   19.6620 C   0  0  0  0  0  0  0  0  0  0  0  0
  -45.1630  -24.0180   20.1720 C   0  0  0  0  0  3  0  0  0  0  0  0
  -44.4670  -23.0850   20.9600 C   0  0  0  0  0  0  0  0  0  0  0  0
  -45.1240  -22.0160   21.4710 F   0  0  0  0  0  0  0  0  0  0  0  0
  -45.1670  -26.0440   18.9070 F   0  0  0  0  0  0  0  0  0  0  0  0
  -35.8970  -20.8880   22.1440 C   0  0  0  0  0  0  0  0  0  0  0  0
  -36.4830  -22.0730   22.0170 N   0  0  0  0  0  0  0  0  0  0  0  0
  -34.9620  -20.7230   22.9290 O   0  0  0  0  0  0  0  0  0  0  0  0
  -37.2330  -22.2230   21.3590 H   0  0  0  0  0  0  0  0  0  0  0  0
  -36.1720  -22.8580   22.5750 H   0  0  0  0  0  0  0  0  0  0  0  0
  -34.3050  -18.3630   20.9310 N   0  0  0  0  0  0  0  0  0  0  0  0
  -33.6810  -18.8530   21.5590 H   0  0  0  0  0  0  0  0  0  0  0  0
  -33.9280  -17.4860   20.5900 H   0  0  0  0  0  0  0  0  0  0  0  0
  -19.2090  -23.9980   18.6600 C   0  0  0  0  0  2  0  0  0  0  0  0
  -19.7800  -25.0110   17.7520 N   0  0  0  0  0  4  0  0  0  0  0  0
  -19.3280  -24.9200   16.8530 H   0  0  0  0  0  0  0  0  0  0  0  0
  -20.7530  -24.7830   17.6210 H   0  0  0  0  0  0  0  0  0  0  0  0
  -19.6790  -26.4200   18.1980 C   0  0  0  0  0  2  0  0  0  0  0  0
  -21.0640  -27.0780   18.2450 C   0  0  0  0  0  2  0  0  0  0  0  0
  -21.7840  -26.8590   17.0260 O   0  0  0  0  0  0  0  0  0  0  0  0
  -23.1980  -27.0080   17.1800 C   0  0  0  0  0  2  0  0  0  0  0  0
  -23.5920  -28.4660   17.5070 C   0  0  0  0  0  2  0  0  0  0  0  0
  -25.1140  -28.6390   17.7190 C   0  0  0  0  0  2  0  0  0  0  0  0
  -25.5220  -28.8590   19.1980 C   0  0  0  0  0  2  0  0  0  0  0  0
  -26.9110  -29.1870   19.3430 O   0  0  0  0  0  0  0  0  0  0  0  0
  -33.7450  -28.0440   17.7710 C   0  0  0  0  0  0  0  0  0  0  0  0
  -27.8010  -28.8240   18.3530 C   0  0  0  0  0  0  0  0  0  0  0  0
  -32.2040  -28.1360   15.8410 C   0  0  0  0  0  3  0  0  0  0  0  0
  -29.7170  -28.0830   16.4040 C   0  0  0  0  0  0  0  0  0  0  0  0
  -31.3710  -27.3900   18.1400 C   0  0  0  0  0  2  0  0  0  0  0  0
  -30.0120  -27.9470   17.7670 C   0  0  0  0  0  0  0  0  0  0  0  0
  -29.0620  -28.3270   18.7450 C   0  0  0  0  0  3  0  0  0  0  0  0
  -27.5130  -28.9210   16.9710 C   0  0  0  0  0  3  0  0  0  0  0  0
  -28.4650  -28.5670   16.0030 C   0  0  0  0  0  3  0  0  0  0  0  0
  -30.7840  -27.6730   15.4150 C   0  0  0  0  0  2  0  0  0  0  0  0
  -32.4800  -27.8850   17.2930 N   0  0  0  0  0  0  0  0  0  0  0  0
  -34.6810  -28.3590   17.0260 O   0  0  0  0  0  0  0  0  0  0  0  0
  -32.3810  -29.6160   15.4360 C   0  0  0  0  0  0  0  0  0  0  0  0
  -33.2500  -29.8630   14.4410 N   0  0  0  0  0  0  0  0  0  0  0  0
  -31.7300  -30.5060   15.9900 O   0  0  0  0  0  0  0  0  0  0  0  0
  -33.7580  -29.0800   14.0560 H   0  0  0  0  0  0  0  0  0  0  0  0
  -35.7550  -31.7250   12.6380 C   0  0  0  0  0  0  0  0  0  0  0  0
  -33.5530  -31.1710   13.8670 C   0  0  0  0  0  3  0  0  0  0  0  0
  -32.8620  -31.3540   12.4980 C   0  0  0  0  0  2  0  0  0  0  0  0
  -33.7410  -30.9300   11.3160 C   0  0  0  0  0  2  0  0  0  0  0  0
  -35.0340  -31.7510   11.2990 C   0  0  0  0  0  2  0  0  0  0  0  0
  -35.0600  -31.4360   13.8410 C   0  0  0  0  0  0  0  0  0  0  0  0
  -35.7820  -31.3780   15.0540 C   0  0  0  0  0  3  0  0  0  0  0  0
  -37.1710  -31.5920   15.0770 C   0  0  0  0  0  3  0  0  0  0  0  0
  -37.8540  -31.8860   13.8850 C   0  0  0  0  0  3  0  0  0  0  0  0
  -37.1460  -31.9630   12.6730 C   0  0  0  0  0  3  0  0  0  0  0  0
  -34.0780  -27.8180   19.2810 C   0  0  0  0  0  3  0  0  0  0  0  0
  -34.1630  -29.1590   20.1070 C   0  0  1  0  0  0  0  0  0  0  0  0
  -35.0940  -30.2200   19.4790 C   0  0  0  0  0  1  0  0  0  0  0  0
  -32.7600  -29.7870   20.2560 C   0  0  0  0  0  1  0  0  0  0  0  0
  -34.6790  -28.8610   21.5360 C   0  0  0  0  0  1  0  0  0  0  0  0
  -35.3480  -27.0840   19.3460 N   0  0  0  0  0  0  0  0  0  0  0  0
  -35.4550  -25.7590   19.5200 C   0  0  0  0  0  0  0  0  0  0  0  0
  -34.4770  -25.0280   19.7150 O   0  0  0  0  0  0  0  0  0  0  0  0
  -36.1830  -27.6140   19.1370 H   0  0  0  0  0  0  0  0  0  0  0  0
  -37.1010  -24.5090   18.0880 C   0  0  0  0  0  1  0  0  0  0  0  0
  -36.8680  -25.1460   19.4670 C   0  0  0  0  0  3  0  0  0  0  0  0
  -37.1740  -24.7260   21.8670 C   0  0  0  0  0  1  0  0  0  0  0  0
  -37.1160  -24.1460   20.5290 N   0  0  0  0  0  0  0  0  0  0  0  0
  -37.9890  -23.6540   20.3580 H   0  0  0  0  0  0  0  0  0  0  0  0
  1  3  2  0
  1 60  1  0
  2  4  1  0
  2  1  1  0
  5  2  1  0
  5 11  1  0
  6  8  2  0
  6  5  1  0
  7  6  1  0
  9  7  1  0
 10  7  1  0
 11 12  1  0
 12 13  1  0
 14 13  1  0
 15 16  1  0
 15 14  1  0
 17 18  1  0
 17 16  1  0
 19 18  1  0
 20 19  1  0
 21 20  1  0
 22 28  1  0
 23 24  1  0
 24 25  1  0
 26 27  1  0
 26 25  1  0
 26 35  1  0
 28 23  1  0
 28 27  1  0
 29 22  2  0
 30 21  1  0
 30 22  1  0
 30 31  1  0
 32 57  1  0
 32 33  2  0
 33 52  1  0
 34 37  1  0
 34 33  1  0
 35 32  1  0
 36 35  1  0
 36 34  2  0
 37 42  1  0
 38 39  1  0
 38 37  2  0
 39 40  2  0
 40 43  1  0
 40 41  1  0
 42 41  2  0
 44 43  1  0
 45 44  2  0
 46 45  1  0
 47 46  2  0
 47 48  1  0
 48 49  2  0
 49 44  1  0
 49 50  1  0
 51 47  1  0
 52 54  2  0
 53 52  1  0
 53 56  1  0
 55 53  1  0
 57 58  1  0
 59 57  1  0
 61 64  1  0
 61 60  1  0
 62 61  1  0
 63 61  1  0
 64 65  1  0
 66 67  1  0
 66 65  1  0
 67 68  1  0
 68 69  1  0
 69 70  1  0
 70 71  1  0
 73 78  1  0
 73 71  1  0
 74 84  1  0
 74 82  1  0
 75 77  1  0
 77 76  1  0
 77 78  2  0
 79 73  2  0
 80 75  2  0
 80 79  1  0
 81 74  1  0
 81 75  1  0
 82 72  1  0
 82 76  1  0
 83 72  2  0
 84 86  2  0
 85 84  1  0
 87 85  1  0
 88 97  2  0
 88 93  1  0
 89 85  1  0
 90 89  1  0
 91 90  1  0
 92 91  1  0
 92 88  1  0
 93 89  1  0
 93 94  2  0
 94 95  1  0
 96 95  2  0
 97 96  1  0
 98 72  1  0
 98103  1  0
 98 99  1  0
 99101  1  1
 99102  1  0
100 99  1  0
103104  1  0
104105  2  0
106103  1  0
108107  1  0
108104  1  0
108110  1  0
110109  1  0
111110  1  0
M  ISO  4  22 100  30 100  70 101  71 101
M  END
>  <TORSDO>  (29) 
F 38

>  <SCORE>  (29) 
13.073

>  <name>  (29) 
29

>  <ligand_id>  (29) 
29

>  <original_smiles>  (29) 
[H]c1c([H])c([H])c2c(c1[H])C([H])([H])C([H])([H])C([H])([H])C2([H])N([H])C(=O)C1([H])N(C(=O)C([H])(N([H])C(=O)C([H])(N([H])C([H])([H])[H])C([H])([H])[H])C(C([H])([H])[H])(C([H])([H])[H])C([H])([H])[H])C([H])([H])c2c([H])c(OC([H])([H])C([H])([H])C([H])([H])C([H])([H])OC([H])([H])C([H])([H])[N+]([H])([H])C([H])([H])C(=O)N([H])C([H])(C(=O)N([H])[H])C([H])([H])OC([H])([H])C([H])([H])OC([H])([H])C([H])([H])OC([H])([H])C([H])([H])C([H])([H])N([H])C(=O)N3C([H])([H])C([H])([H])C([H])([H])C([H])(n4nc(-c5c([H])c([H])c(Oc6c([H])c([H])c(F)c([H])c6F)c([H])c5[H])c(C(=O)N([H])[H])c4N([H])[H])C3([H])[H])c([H])c([H])c2C1([H])[H]

>  <smiles>  (29) 
[H]c1c([H])c([H])c2c(c1[H])C([H])([H])C([H])([H])C([H])([H])C2([H])N([H])C(=O)C1([H])N(C(=O)C([H])(N([H])C(=O)C([H])(N([H])C([H])([H])[H])C([H])([H])[H])C(C([H])([H])[H])(C([H])([H])[H])C([H])([H])[H])C([H])([H])c2c([H])c(OC([H])([H])C([H])([H])C([H])([H])C([H])([H])OC([H])([H])C([H])([H])[N+]([H])([H])C([H])([H])C(=O)N([H])C([H])(C(=O)N([H])[H])C([H])([H])OC([H])([H])C([H])([H])OC([H])([H])C([H])([H])OC([H])([H])C([H])([H])C([H])([H])N([H])C(=O)N3C([H])([H])C([H])([H])C([H])([H])C([H])(n4nc(-c5c([H])c([H])c(Oc6c([H])c([H])c(F)c([H])c6F)c([H])c5[H])c(C(=O)N([H])[H])c4N([H])[H])C3([H])[H])c([H])c([H])c2C1([H])[H]

$$$$
30:0:0
     RDKit          3D

114121  0  0  1  0  0  0  0  0999 V2000
  -23.0240  -22.7750   16.4690 C   0  0  0  0  0  0  0  0  0  0  0  0
  -23.0570  -21.5110   16.9130 N   0  0  0  0  0  0  0  0  0  0  0  0
  -22.9630  -23.7550   17.2170 O   0  0  0  0  0  0  0  0  0  0  0  0
  -23.0170  -20.7880   16.2020 H   0  0  0  0  0  0  0  0  0  0  0  0
  -23.0850  -22.8260   15.0220 C   0  0  0  0  0  3  0  0  0  0  0  0
  -23.6490  -23.8730   14.3860 C   0  0  0  0  0  3  0  0  0  0  0  0
  -23.7620  -23.8580   12.9430 C   0  0  0  0  0  0  0  0  0  0  0  0
  -24.7790  -24.6050   12.5040 N   0  0  0  0  0  0  0  0  0  0  0  0
  -23.0330  -23.2140   12.1840 O   0  0  0  0  0  0  0  0  0  0  0  0
  -25.3380  -25.1080   13.1760 H   0  0  0  0  0  0  0  0  0  0  0  0
  -25.1500  -24.7550   11.1010 C   0  0  0  0  0  2  0  0  0  0  0  0
  -25.9700  -26.0340   10.8770 C   0  0  0  0  0  2  0  0  0  0  0  0
  -25.2460  -27.1410   11.4020 O   0  0  0  0  0  0  0  0  0  0  0  0
  -25.9800  -28.3600   11.4440 C   0  0  0  0  0  2  0  0  0  0  0  0
  -26.7790  -28.5150   12.7480 C   0  0  0  0  0  2  0  0  0  0  0  0
  -28.0080  -27.8040   12.6340 O   0  0  0  0  0  0  0  0  0  0  0  0
  -28.7260  -27.6710   13.8590 C   0  0  0  0  0  2  0  0  0  0  0  0
  -28.4080  -26.3440   14.5830 C   0  0  0  0  0  2  0  0  0  0  0  0
  -28.0120  -26.5690   15.9360 O   0  0  0  0  0  0  0  0  0  0  0  0
  -22.8470  -29.9620   19.4130 C   0  0  0  0  0  0  0  0  0  0  0  0
  -26.6620  -26.6350   16.1860 C   0  0  0  0  0  0  0  0  0  0  0  0
  -22.1780  -27.8470   18.3070 C   0  0  0  0  0  3  0  0  0  0  0  0
  -23.8930  -26.8460   16.6970 C   0  0  0  0  0  0  0  0  0  0  0  0
  -24.1210  -29.2400   17.4060 C   0  0  0  0  0  2  0  0  0  0  0  0
  -24.7330  -27.9460   16.9180 C   0  0  0  0  0  0  0  0  0  0  0  0
  -26.1170  -27.8420   16.6750 C   0  0  0  0  0  3  0  0  0  0  0  0
  -25.8130  -25.5230   16.0010 C   0  0  0  0  0  3  0  0  0  0  0  0
  -24.4280  -25.6290   16.2400 C   0  0  0  0  0  3  0  0  0  0  0  0
  -22.4220  -27.0450   16.9960 C   0  0  0  0  0  2  0  0  0  0  0  0
  -23.0610  -29.0540   18.4220 N   0  0  0  0  0  0  0  0  0  0  0  0
  -21.8950  -29.8420   20.1950 O   0  0  0  0  0  0  0  0  0  0  0  0
  -22.3010  -26.8830   19.5060 C   0  0  0  0  0  0  0  0  0  0  0  0
  -21.1540  -26.3500   19.9540 N   0  0  0  0  0  0  0  0  0  0  0  0
  -23.4040  -26.6120   19.9890 O   0  0  0  0  0  0  0  0  0  0  0  0
  -20.2930  -26.6400   19.5050 H   0  0  0  0  0  0  0  0  0  0  0  0
  -18.7600  -24.6420   22.0590 C   0  0  0  0  0  0  0  0  0  0  0  0
  -21.0210  -25.3840   21.0510 C   0  0  0  0  0  3  0  0  0  0  0  0
  -21.1510  -23.9300   20.5370 C   0  0  0  0  0  2  0  0  0  0  0  0
  -19.8050  -23.2900   20.1940 C   0  0  0  0  0  2  0  0  0  0  0  0
  -18.8930  -23.2670   21.4230 C   0  0  0  0  0  2  0  0  0  0  0  0
  -19.7530  -25.6380   21.8720 C   0  0  0  0  0  0  0  0  0  0  0  0
  -19.5620  -26.9080   22.4560 C   0  0  0  0  0  3  0  0  0  0  0  0
  -18.4130  -27.1860   23.2170 C   0  0  0  0  0  3  0  0  0  0  0  0
  -17.4440  -26.1890   23.4160 C   0  0  0  0  0  3  0  0  0  0  0  0
  -17.6180  -24.9200   22.8380 C   0  0  0  0  0  3  0  0  0  0  0  0
  -23.7680  -31.2140   19.5930 C   0  0  0  0  0  3  0  0  0  0  0  0
  -22.9070  -32.4020   19.5660 N   0  0  0  0  0  0  0  0  0  0  0  0
  -22.6780  -33.1530   18.4790 C   0  0  0  0  0  0  0  0  0  0  0  0
  -23.2420  -32.9560   17.3990 O   0  0  0  0  0  0  0  0  0  0  0  0
  -22.3750  -32.5910   20.4020 H   0  0  0  0  0  0  0  0  0  0  0  0
  -20.3220  -33.8780   18.0160 C   0  0  0  0  0  1  0  0  0  0  0  0
  -21.6720  -34.3080   18.6100 C   0  0  0  0  0  3  0  0  0  0  0  0
  -23.2330  -36.2000   18.6800 C   0  0  0  0  0  1  0  0  0  0  0  0
  -22.1260  -35.5630   17.9710 N   0  0  0  0  0  0  0  0  0  0  0  0
  -21.3640  -36.2320   17.9080 H   0  0  0  0  0  0  0  0  0  0  0  0
  -24.6240  -31.1710   20.9180 C   0  0  1  0  0  0  0  0  0  0  0  0
  -23.7890  -30.8990   22.1900 C   0  0  0  0  0  1  0  0  0  0  0  0
  -25.7130  -30.0790   20.8210 C   0  0  0  0  0  1  0  0  0  0  0  0
  -25.3670  -32.5140   21.1010 C   0  0  0  0  0  1  0  0  0  0  0  0
  -23.0080  -21.0620   18.3080 C   0  0  0  0  0  2  0  0  0  0  0  0
  -23.6610  -22.0250   19.3420 C   0  0  0  0  0  2  0  0  0  0  0  0
  -25.0280  -22.6590   18.9780 C   0  0  0  0  0  2  0  0  0  0  0  0
  -25.5540  -23.6580   20.0420 C   0  0  0  0  0  2  0  0  0  0  0  0
  -26.8890  -24.3560   19.6890 C   0  0  0  0  0  2  0  0  0  0  0  0
  -27.3480  -25.0980   20.8250 O   0  0  0  0  0  0  0  0  0  0  0  0
  -28.6130  -25.7730   20.6990 C   0  0  0  0  0  2  0  0  0  0  0  0
  -28.9050  -26.4480   22.0640 C   0  0  0  0  0  2  0  0  0  0  0  0
  -30.2570  -27.2210   22.2900 C   0  0  0  0  0  2  0  0  0  0  0  0
  -30.4380  -27.5700   23.6810 O   0  0  0  0  0  0  0  0  0  0  0  0
  -31.3090  -28.6730   24.0490 C   0  0  0  0  0  2  0  0  0  0  0  0
  -31.0850  -29.0350   25.5580 C   0  0  0  0  0  2  0  0  0  0  0  0
  -31.3770  -30.5040   25.9950 C   0  0  0  0  0  2  0  0  0  0  0  0
  -30.2040  -31.1430   26.5310 O   0  0  0  0  0  0  0  0  0  0  0  0
  -30.3550  -32.4890   27.0230 C   0  0  0  0  0  2  0  0  0  0  0  0
  -29.0290  -33.3090   26.7570 C   0  0  0  0  0  2  0  0  0  0  0  0
  -29.0890  -34.6640   25.9280 C   0  0  0  0  0  2  0  0  0  0  0  0
  -28.0690  -34.1980   23.6670 C   0  0  0  0  0  0  0  0  0  0  0  0
  -29.6300  -32.4270   23.8670 C   0  0  0  0  0  2  0  0  0  0  0  0
  -29.7130  -31.2100   22.9850 C   0  0  0  0  0  2  0  0  0  0  0  0
  -28.7830  -30.1700   23.5750 C   0  0  0  0  0  2  0  0  0  0  0  0
  -27.3130  -30.6020   23.5980 C   0  0  0  0  0  3  0  0  0  0  0  0
  -27.1230  -32.0060   24.2070 C   0  0  0  0  0  2  0  0  0  0  0  0
  -28.2500  -32.9110   23.9240 N   0  0  0  0  0  0  0  0  0  0  0  0
  -28.1980  -34.7190   22.5520 O   0  0  0  0  0  0  0  0  0  0  0  0
  -28.0590  -34.8740   24.8400 N   0  0  0  0  0  0  0  0  0  0  0  0
  -27.6810  -35.8090   24.7540 H   0  0  0  0  0  0  0  0  0  0  0  0
  -25.5670  -28.7140   23.6840 C   0  0  0  0  0  0  0  0  0  0  0  0
  -25.1550  -27.8880   24.6780 C   0  0  0  0  0  0  0  0  0  0  0  0
  -25.8300  -28.3140   25.8620 C   0  0  0  0  0  0  0  0  0  0  0  0
  -26.4700  -29.5950   24.2500 N   0  0  0  0  0  0  0  0  0  0  0  0
  -26.5460  -29.4010   25.5950 N   0  0  0  0  0  0  0  0  0  0  0  0
  -25.8610  -27.7150   27.2070 C   0  0  0  0  0  0  0  0  0  0  0  0
  -25.5530  -28.4690   28.3620 C   0  0  0  0  0  3  0  0  0  0  0  0
  -25.5680  -27.8710   29.6430 C   0  0  0  0  0  3  0  0  0  0  0  0
  -25.8740  -26.4960   29.7720 C   0  0  0  0  0  0  0  0  0  0  0  0
  -26.1840  -25.7460   28.6250 C   0  0  0  0  0  3  0  0  0  0  0  0
  -26.1820  -26.3480   27.3560 C   0  0  0  0  0  3  0  0  0  0  0  0
  -25.9380  -25.8360   30.9770 O   0  0  0  0  0  0  0  0  0  0  0  0
  -25.1770  -26.2270   32.0520 C   0  0  0  0  0  0  0  0  0  0  0  0
  -23.7710  -26.3200   31.9750 C   0  0  0  0  0  3  0  0  0  0  0  0
  -23.0160  -26.6520   33.1160 C   0  0  0  0  0  3  0  0  0  0  0  0
  -23.6560  -26.8810   34.3480 C   0  0  0  0  0  0  0  0  0  0  0  0
  -25.0560  -26.7740   34.4370 C   0  0  0  0  0  3  0  0  0  0  0  0
  -25.8110  -26.4520   33.2950 C   0  0  0  0  0  0  0  0  0  0  0  0
  -27.1560  -26.3310   33.4000 F   0  0  0  0  0  0  0  0  0  0  0  0
  -22.9280  -27.2010   35.4430 F   0  0  0  0  0  0  0  0  0  0  0  0
  -24.2780  -26.6800   24.5200 C   0  0  0  0  0  0  0  0  0  0  0  0
  -23.5220  -26.3130   25.5410 N   0  0  0  0  0  0  0  0  0  0  0  0
  -24.2320  -26.0700   23.4500 O   0  0  0  0  0  0  0  0  0  0  0  0
  -23.5450  -26.8140   26.4190 H   0  0  0  0  0  0  0  0  0  0  0  0
  -22.9300  -25.5000   25.4580 H   0  0  0  0  0  0  0  0  0  0  0  0
  -25.2710  -28.7500   22.3240 N   0  0  0  0  0  0  0  0  0  0  0  0
  -24.7060  -28.0030   21.9380 H   0  0  0  0  0  0  0  0  0  0  0  0
  -25.6890  -29.3500   21.6310 H   0  0  0  0  0  0  0  0  0  0  0  0
  1  2  1  0
  1  3  2  0
  2 60  1  0
  4  2  1  0
  5  1  1  0
  6  5  2  0
  7  6  1  0
  8  7  1  0
  8 10  1  0
  9  7  2  0
 11  8  1  0
 12 11  1  0
 12 13  1  0
 13 14  1  0
 14 15  1  0
 16 15  1  0
 16 17  1  0
 17 18  1  0
 18 19  1  0
 19 21  1  0
 20 31  2  0
 21 26  1  0
 22 30  1  0
 22 32  1  0
 23 25  1  0
 23 29  1  0
 24 30  1  0
 25 24  1  0
 26 25  2  0
 27 21  2  0
 27 28  1  0
 28 23  2  0
 29 22  1  0
 30 20  1  0
 32 33  1  0
 32 34  2  0
 35 33  1  0
 36 45  1  0
 37 33  1  0
 37 41  1  0
 38 37  1  0
 39 38  1  0
 39 40  1  0
 40 36  1  0
 41 36  2  0
 41 42  1  0
 42 43  2  0
 43 44  1  0
 45 44  2  0
 46 20  1  0
 46 56  1  0
 47 46  1  0
 47 50  1  0
 48 52  1  0
 48 47  1  0
 49 48  2  0
 52 51  1  0
 54 52  1  0
 54 53  1  0
 55 54  1  0
 56 59  1  1
 56 57  1  0
 58 56  1  0
 60 61  1  0
 62 61  1  0
 62 63  1  0
 64 63  1  0
 64 65  1  0
 66 65  1  0
 66 67  1  0
 67 68  1  0
 68 69  1  0
 69 70  1  0
 70 71  1  0
 71 72  1  0
 72 73  1  0
 73 74  1  0
 75 74  1  0
 76 75  1  0
 77 83  1  0
 77 85  1  0
 78 83  1  0
 79 80  1  0
 79 78  1  0
 81 80  1  0
 81 82  1  0
 81 90  1  0
 83 82  1  0
 84 77  2  0
 85 76  1  0
 86 85  1  0
 87 90  1  0
 87 88  2  0
 88 89  1  0
 89 92  1  0
 90 91  1  0
 91 89  2  0
 92 97  2  0
 92 93  1  0
 93 94  2  0
 94 95  1  0
 95 98  1  0
 96 95  2  0
 97 96  1  0
 98 99  1  0
 99104  1  0
100 99  2  0
100101  1  0
101102  2  0
102103  1  0
102106  1  0
104105  1  0
104103  2  0
107 88  1  0
107108  1  0
108110  1  0
109107  2  0
111108  1  0
112 87  1  0
113112  1  0
114112  1  0
M  ISO  4  18 101  19 101  77 100  85 100
M  END
>  <TORSDO>  (30) 
F 43

>  <SCORE>  (30) 
12.379

>  <name>  (30) 
30

>  <ligand_id>  (30) 
30

>  <original_smiles>  (30) 
[H]C(C(=O)N([H])C([H])([H])C([H])([H])OC([H])([H])C([H])([H])OC([H])([H])C([H])([H])Oc1c([H])c([H])c2c(c1[H])C([H])([H])N(C(=O)C([H])(N([H])C(=O)C([H])(N([H])C([H])([H])[H])C([H])([H])[H])C(C([H])([H])[H])(C([H])([H])[H])C([H])([H])[H])C([H])(C(=O)N([H])C1([H])c3c([H])c([H])c([H])c([H])c3C([H])([H])C([H])([H])C1([H])[H])C2([H])[H])=C([H])C(=O)N([H])C([H])([H])C([H])([H])C([H])([H])C([H])([H])C([H])([H])OC([H])([H])C([H])([H])C([H])([H])OC([H])([H])C([H])([H])C([H])([H])OC([H])([H])C([H])([H])C([H])([H])N([H])C(=O)N1C([H])([H])C([H])([H])C([H])([H])C([H])(n2nc(-c3c([H])c([H])c(Oc4c([H])c([H])c(F)c([H])c4F)c([H])c3[H])c(C(=O)N([H])[H])c2N([H])[H])C1([H])[H]

>  <smiles>  (30) 
[H]C(C(=O)N([H])C([H])([H])C([H])([H])OC([H])([H])C([H])([H])OC([H])([H])C([H])([H])Oc1c([H])c([H])c2c(c1[H])C([H])([H])N(C(=O)C([H])(N([H])C(=O)C([H])(N([H])C([H])([H])[H])C([H])([H])[H])C(C([H])([H])[H])(C([H])([H])[H])C([H])([H])[H])C([H])(C(=O)N([H])C1([H])c3c([H])c([H])c([H])c([H])c3C([H])([H])C([H])([H])C1([H])[H])C2([H])[H])=C([H])C(=O)N([H])C([H])([H])C([H])([H])C([H])([H])C([H])([H])C([H])([H])OC([H])([H])C([H])([H])C([H])([H])OC([H])([H])C([H])([H])C([H])([H])OC([H])([H])C([H])([H])C([H])([H])N([H])C(=O)N1C([H])([H])C([H])([H])C([H])([H])C([H])(n2nc(-c3c([H])c([H])c(Oc4c([H])c([H])c(F)c([H])c4F)c([H])c3[H])c(C(=O)N([H])[H])c2N([H])[H])C1([H])[H]

$$$$
31:0:0
     RDKit          3D

101104  0  0  1  0  0  0  0  0999 V2000
  -25.3450  -24.2500   22.7980 C   0  0  0  0  0  0  0  0  0  0  0  0
  -24.5850  -25.6330   22.9750 N   0  0  0  0  0  0  0  0  0  0  0  0
  -24.8770  -23.3990   23.5570 O   0  0  0  0  0  0  0  0  0  0  0  0
  -24.9900  -26.3000   22.3310 H   0  0  0  0  0  0  0  0  0  0  0  0
  -23.3110  -26.4860   23.9680 C   0  0  0  0  0  1  0  0  0  0  0  0
  -22.2250  -28.2150   24.2660 C   0  0  0  0  0 15  0  0  0  0  0  0
  -21.3750  -29.4880   23.1440 O   0  0  0  0  0 15  0  0  0  0  0  0
  -20.8160  -29.5800   21.3140 C   0  0  0  0  0 15  0  0  0  0  0  0
  -21.4500  -28.4320   19.8010 C   0  0  0  0  0  1  0  0  0  0  0  0
  -22.9950  -27.2970   19.4850 C   0  0  0  0  0  2  0  0  0  0  0  0
  -24.7410  -27.2780   19.5150 O   0  0  0  0  0  0  0  0  0  0  0  0
  -24.7470  -31.6340   23.0940 C   0  0  0  0  0  0  0  0  0  0  0  0
  -25.7250  -27.9020   18.7350 C   0  0  0  0  0  3  0  0  0  0  0  0
  -23.4480  -30.1880   21.5620 C   0  0  0  0  0  3  0  0  0  0  0  0
  -24.1870  -29.9580   19.2070 C   0  0  0  0  0  3  0  0  0  0  0  0
  -25.6930  -30.9980   20.8790 C   0  0  0  0  0  2  0  0  0  0  0  0
  -25.4560  -29.9900   19.7780 C   0  0  0  0  0  3  0  0  0  0  0  0
  -26.3500  -28.9730   19.4260 C   0  0  0  0  0  2  0  0  0  0  0  0
  -24.9360  -28.2300   17.6700 C   0  0  0  0  0  2  0  0  0  0  0  0
  -23.9870  -29.2170   18.0120 C   0  0  0  0  0  2  0  0  0  0  0  0
  -23.1560  -30.6160   20.0670 C   0  0  0  0  0  2  0  0  0  0  0  0
  -24.6520  -30.9480   21.9230 N   0  0  0  0  0  0  0  0  0  0  0  0
  -23.8120  -31.7410   23.9070 O   0  0  0  0  0  0  0  0  0  0  0  0
  -23.5770  -28.5400   21.9490 C   0  0  0  0  0  0  0  0  0  0  0  0
  -22.5710  -27.3520   21.8770 N   0  0  0  0  0  0  0  0  0  0  0  0
  -24.5420  -28.3090   22.6160 O   0  0  0  0  0  0  0  0  0  0  0  0
  -23.1400  -26.5220   21.9840 H   0  0  0  0  0  0  0  0  0  0  0  0
  -18.1830  -26.9040   22.1690 C   0  0  0  0  0  0  0  0  0  0  0  0
  -20.9380  -26.8640   22.3260 C   0  0  0  0  0  3  0  0  0  0  0  0
  -20.7980  -25.6540   21.4980 C   0  0  0  0  0  2  0  0  0  0  0  0
  -19.6340  -25.7120   20.5500 C   0  0  0  0  0  2  0  0  0  0  0  0
  -18.3470  -25.6700   21.3350 C   0  0  0  0  0  2  0  0  0  0  0  0
  -19.3570  -27.5740   22.6650 C   0  0  0  0  0  0  0  0  0  0  0  0
  -18.9370  -28.7650   23.4160 C   0  0  0  0  0  3  0  0  0  0  0  0
  -17.5900  -29.2170   23.5840 C   0  0  0  0  0  3  0  0  0  0  0  0
  -16.5200  -28.4810   23.0760 C   0  0  0  0  0  3  0  0  0  0  0  0
  -16.8350  -27.3100   22.3790 C   0  0  0  0  0  3  0  0  0  0  0  0
  -26.0990  -32.2780   23.4590 C   0  0  0  0  0  3  0  0  0  0  0  0
  -25.8200  -33.5800   24.0740 N   0  0  0  0  0  0  0  0  0  0  0  0
  -25.9160  -34.7540   23.4330 C   0  0  0  0  0  0  0  0  0  0  0  0
  -26.3030  -34.8530   22.2660 O   0  0  0  0  0  0  0  0  0  0  0  0
  -25.4370  -33.5690   25.0070 H   0  0  0  0  0  0  0  0  0  0  0  0
  -24.1330  -36.4960   23.7950 C   0  0  0  0  0  1  0  0  0  0  0  0
  -25.5320  -36.0210   24.2200 C   0  0  0  0  0  3  0  0  0  0  0  0
  -27.7930  -36.8550   24.6920 C   0  0  0  0  0  1  0  0  0  0  0  0
  -26.5040  -37.1260   24.0600 N   0  0  0  0  0  0  0  0  0  0  0  0
  -26.1350  -37.9910   24.4470 H   0  0  0  0  0  0  0  0  0  0  0  0
  -26.9260  -31.3490   24.4250 C   0  0  1  0  0  0  0  0  0  0  0  0
  -26.1350  -30.8810   25.6690 C   0  0  0  0  0  1  0  0  0  0  0  0
  -27.4530  -30.0800   23.7120 C   0  0  0  0  0  1  0  0  0  0  0  0
  -28.1790  -32.1130   24.8990 C   0  0  0  0  0  1  0  0  0  0  0  0
  -26.7810  -23.4920   21.7820 C   0  0  0  0  0  0  0  0  0  0  0  0
  -28.8150  -21.0920   20.8980 C   0  0  0  0  0  0  0  0  0  0  0  0
  -28.0350  -22.1680   21.7540 N   0  0  0  0  0  4  0  0  0  0  0  0
  -28.1680  -20.7800   19.8960 O   0  0  0  0  0  0  0  0  0  0  0  0
  -28.6060  -22.3620   22.5640 H   0  0  0  0  0  0  0  0  0  0  0  0
  -30.4910  -20.1740   20.8960 C   0  0  0  0  0  0  0  0  0  0  0  0
  -32.6350  -17.8890   19.9080 C   0  0  0  0  0  0  0  0  0  0  0  0
  -33.8460  -15.6610   18.9140 C   0  0  0  0  0  2  0  0  0  0  0  0
  -33.1870  -14.9410   17.6830 C   0  0  0  0  0  2  0  0  0  0  0  0
  -31.9540  -14.1220   18.0970 C   0  0  0  0  0  2  0  0  0  0  0  0
  -31.1310  -14.9290   19.1270 C   0  0  0  0  0  3  0  0  0  0  0  0
  -31.9720  -15.4240   20.3130 C   0  0  0  0  0  2  0  0  0  0  0  0
  -32.8150  -16.4570   19.7530 N   0  0  0  0  0  0  0  0  0  0  0  0
  -33.7180  -18.4080   19.5460 O   0  0  0  0  0  0  0  0  0  0  0  0
  -31.3150  -18.6410   20.3680 N   0  0  0  0  0  4  0  0  0  0  0  0
  -30.6610  -17.9030   20.5760 H   0  0  0  0  0  0  0  0  0  0  0  0
  -28.7080  -14.7480   19.7960 C   0  0  0  0  0  0  0  0  0  0  0  0
  -27.9580  -13.7050   20.2570 C   0  0  0  0  0  0  0  0  0  0  0  0
  -28.8460  -12.5870   20.3440 C   0  0  0  0  0  0  0  0  0  0  0  0
  -29.9730  -14.2320   19.6150 N   0  0  0  0  0  0  0  0  0  0  0  0
  -30.0770  -12.9450   20.0150 N   0  0  0  0  0  0  0  0  0  0  0  0
  -28.5760  -11.1820   20.6560 C   0  0  0  0  0  0  0  0  0  0  0  0
  -29.5580  -10.3530   21.2380 C   0  0  0  0  0  3  0  0  0  0  0  0
  -29.2610   -9.0100   21.5460 C   0  0  0  0  0  3  0  0  0  0  0  0
  -27.9740   -8.4850   21.2740 C   0  0  0  0  0  0  0  0  0  0  0  0
  -27.0110   -9.3090   20.6640 C   0  0  0  0  0  3  0  0  0  0  0  0
  -27.3100  -10.6440   20.3540 C   0  0  0  0  0  3  0  0  0  0  0  0
  -27.6050   -7.1840   21.5160 O   0  0  0  0  0  0  0  0  0  0  0  0
  -28.4590   -6.2950   22.1150 C   0  0  0  0  0  0  0  0  0  0  0  0
  -29.4390   -6.7090   23.0430 C   0  0  0  0  0  3  0  0  0  0  0  0
  -30.2480   -5.7510   23.6850 C   0  0  0  0  0  3  0  0  0  0  0  0
  -30.0730   -4.3820   23.4090 C   0  0  0  0  0  0  0  0  0  0  0  0
  -29.0970   -3.9680   22.4860 C   0  0  0  0  0  3  0  0  0  0  0  0
  -28.2890   -4.9220   21.8430 C   0  0  0  0  0  0  0  0  0  0  0  0
  -27.3340   -4.5170   20.9720 F   0  0  0  0  0  0  0  0  0  0  0  0
  -30.8450   -3.4610   24.0320 F   0  0  0  0  0  0  0  0  0  0  0  0
  -26.4840  -13.7250   20.5010 C   0  0  0  0  0  0  0  0  0  0  0  0
  -26.0130  -12.9290   21.4520 N   0  0  0  0  0  0  0  0  0  0  0  0
  -25.7460  -14.4840   19.8720 O   0  0  0  0  0  0  0  0  0  0  0  0
  -26.6350  -12.3270   21.9760 H   0  0  0  0  0  0  0  0  0  0  0  0
  -25.0260  -12.9260   21.6670 H   0  0  0  0  0  0  0  0  0  0  0  0
  -28.4230  -16.0780   19.5020 N   0  0  0  0  0  0  0  0  0  0  0  0
  -27.4740  -16.4340   19.5680 H   0  0  0  0  0  0  0  0  0  0  0  0
  -29.0240  -16.6800   18.9600 H   0  0  0  0  0  0  0  0  0  0  0  0
  -30.9610  -19.4650   23.2880 C   0  0  0  0  0  1  0  0  0  0  0  0
  -32.6640  -20.8920   22.0750 C   0  0  0  0  0  1  0  0  0  0  0  0
  -31.1740  -20.5540   22.2310 C   0  0  0  0  0  3  0  0  0  0  0  0
  -27.7070  -24.7050   21.5460 C   0  0  0  0  0  2  0  0  0  0  0  0
  -28.6860  -24.7540   22.5820 O   0  0  0  0  0  0  0  0  0  0  0  0
  -28.2380  -24.8490   23.4170 H   0  0  0  0  0  0  0  0  0  0  0  0
  1  2  1  0
  1  3  2  0
  2  5  1  0
  4  2  1  0
 10 11  1  0
 10  9  1  0
 12 23  2  0
 13 18  1  0
 13 11  1  0
 14 22  1  0
 14 24  1  0
 15 20  1  0
 15 17  1  0
 15 21  1  0
 16 22  1  0
 17 18  1  0
 17 16  1  0
 19 20  1  0
 19 13  1  0
 21 14  1  0
 22 12  1  0
 24 26  2  0
 25 24  1  0
 25 27  1  0
 28 37  2  0
 28 33  1  0
 29 25  1  0
 29 33  1  0
 30 29  1  0
 31 32  1  0
 31 30  1  0
 32 28  1  0
 33 34  2  0
 34 35  1  0
 36 35  2  0
 37 36  1  0
 38 12  1  0
 38 39  1  0
 38 48  1  0
 39 42  1  0
 40 39  1  0
 40 44  1  0
 41 40  2  0
 44 43  1  0
 46 44  1  0
 46 47  1  0
 46 45  1  0
 48 51  1  1
 48 49  1  0
 50 48  1  0
 52  1  1  0
 53 54  1  0
 54 52  2  3
 54 56  1  0
 55 53  2  0
 57 53  1  0
 57 98  1  0
 58 66  1  0
 59 64  1  0
 60 61  1  0
 60 59  1  0
 62 61  1  0
 62 71  1  0
 62 63  1  0
 64 58  1  0
 64 63  1  0
 65 58  2  0
 66 67  1  0
 66 57  2  0
 68 69  2  0
 69 70  1  0
 69 88  1  0
 70 73  1  0
 71 68  1  0
 71 72  1  0
 72 70  2  0
 73 74  1  0
 74 75  2  0
 76 79  1  0
 76 75  1  0
 77 76  2  0
 78 73  2  0
 78 77  1  0
 79 80  1  0
 80 81  1  0
 81 82  2  0
 83 82  1  0
 83 87  1  0
 84 83  2  0
 85 80  2  0
 85 84  1  0
 86 85  1  0
 88 89  1  0
 89 92  1  0
 89 91  1  0
 90 88  2  0
 93 94  1  0
 93 68  1  0
 95 93  1  0
 97 98  1  0
 98 96  1  0
 99 52  1  0
 99100  1  0
100101  1  0
M  ISO  4  10 101  11 101  58 100  66 100
M  END
>  <TORSDO>  (31) 
F 28

>  <SCORE>  (31) 
-8.974

>  <name>  (31) 
31

>  <ligand_id>  (31) 
31

>  <original_smiles>  (31) 
[H]OC([H])([H])C([H])(C(=O)N([H])C([H])([H])C([H])([H])OC([H])([H])C([H])([H])C([H])([H])Oc1c([H])c([H])c2c(c1[H])C([H])([H])N(C(=O)C([H])(N([H])C(=O)C([H])(N([H])C([H])([H])[H])C([H])([H])[H])C(C([H])([H])[H])(C([H])([H])[H])C([H])([H])[H])C([H])(C(=O)N([H])C1([H])c3c([H])c([H])c([H])c([H])c3C([H])([H])C([H])([H])C1([H])[H])C2([H])[H])N([H])C(=O)C([H])(N([H])C(=O)N1C([H])([H])C([H])([H])C([H])([H])C([H])(n2nc(-c3c([H])c([H])c(Oc4c([H])c([H])c(F)c([H])c4F)c([H])c3[H])c(C(=O)N([H])[H])c2N([H])[H])C1([H])[H])C([H])(C([H])([H])[H])C([H])([H])[H]

>  <smiles>  (31) 
[H]OC([H])([H])C([H])(C(=O)N([H])C([H])([H])C([H])([H])OC([H])([H])C([H])([H])C([H])([H])Oc1c([H])c([H])c2c(c1[H])C([H])([H])N(C(=O)C([H])(N([H])C(=O)C([H])(N([H])C([H])([H])[H])C([H])([H])[H])C(C([H])([H])[H])(C([H])([H])[H])C([H])([H])[H])C([H])(C(=O)N([H])C1([H])c3c([H])c([H])c([H])c([H])c3C([H])([H])C([H])([H])C1([H])[H])C2([H])[H])N([H])C(=O)C([H])(N([H])C(=O)N1C([H])([H])C([H])([H])C([H])([H])C([H])(n2nc(-c3c([H])c([H])c(Oc4c([H])c([H])c(F)c([H])c4F)c([H])c3[H])c(C(=O)N([H])[H])c2N([H])[H])C1([H])[H])C([H])(C([H])([H])[H])C([H])([H])[H]

$$$$
32:0:0
     RDKit          3D

102109  0  0  1  0  0  0  0  0999 V2000
  -24.4290  -25.6510   15.4600 C   0  0  0  0  0  2  0  0  0  0  0  0
  -24.2110  -24.8600   16.7510 C   0  0  0  0  0  2  0  0  0  0  0  0
  -25.3850  -24.0960   16.9870 O   0  0  0  0  0  0  0  0  0  0  0  0
  -25.2530  -23.2120   18.0870 C   0  0  0  0  0  2  0  0  0  0  0  0
  -26.5920  -22.4860   18.2730 C   0  0  0  0  0  2  0  0  0  0  0  0
  -26.5350  -21.3330   19.2880 C   0  0  0  0  0  2  0  0  0  0  0  0
  -27.8600  -20.6980   19.4200 N   0  0  0  0  0  4  0  0  0  0  0  0
  -28.1670  -20.4110   18.5030 H   0  0  0  0  0  0  0  0  0  0  0  0
  -28.5140  -21.3850   19.7620 H   0  0  0  0  0  0  0  0  0  0  0  0
  -27.9260  -19.5190   20.3070 C   0  0  0  0  0  2  0  0  0  0  0  0
  -29.3680  -18.9890   20.3440 C   0  0  0  0  0  2  0  0  0  0  0  0
  -29.5630  -17.6960   21.1470 C   0  0  0  0  0  2  0  0  0  0  0  0
  -31.0330  -17.2460   21.0770 C   0  0  0  0  0  2  0  0  0  0  0  0
  -31.3400  -15.9260   21.8020 C   0  0  0  0  0  2  0  0  0  0  0  0
  -30.9240  -14.0620   20.1860 C   0  0  0  0  0  0  0  0  0  0  0  0
  -30.4310  -11.9890   18.9380 C   0  0  0  0  0  2  0  0  0  0  0  0
  -29.4540  -12.2280   17.7720 C   0  0  0  0  0  2  0  0  0  0  0  0
  -27.9950  -12.1460   18.2570 C   0  0  0  0  0  2  0  0  0  0  0  0
  -27.7400  -13.0200   19.5130 C   0  0  0  0  0  3  0  0  0  0  0  0
  -28.8100  -12.7470   20.5910 C   0  0  0  0  0  2  0  0  0  0  0  0
  -30.1420  -12.9680   19.9950 N   0  0  0  0  0  0  0  0  0  0  0  0
  -31.9050  -14.3310   19.4870 O   0  0  0  0  0  0  0  0  0  0  0  0
  -30.5940  -14.7940   21.2570 N   0  0  0  0  0  0  0  0  0  0  0  0
  -29.7970  -14.4730   21.7870 H   0  0  0  0  0  0  0  0  0  0  0  0
  -25.3960  -13.7530   20.2900 C   0  0  0  0  0  0  0  0  0  0  0  0
  -24.3050  -13.0360   20.7050 C   0  0  0  0  0  0  0  0  0  0  0  0
  -24.6990  -11.6640   20.6720 C   0  0  0  0  0  0  0  0  0  0  0  0
  -26.3890  -12.8200   20.0360 N   0  0  0  0  0  0  0  0  0  0  0  0
  -25.9730  -11.5590   20.3190 N   0  0  0  0  0  0  0  0  0  0  0  0
  -23.9220  -10.4390   20.9020 C   0  0  0  0  0  0  0  0  0  0  0  0
  -24.3510   -9.4520   21.8160 C   0  0  0  0  0  3  0  0  0  0  0  0
  -23.5770   -8.2920   22.0320 C   0  0  0  0  0  3  0  0  0  0  0  0
  -22.3600   -8.1110   21.3340 C   0  0  0  0  0  0  0  0  0  0  0  0
  -21.9470   -9.0860   20.4090 C   0  0  0  0  0  3  0  0  0  0  0  0
  -22.7220  -10.2380   20.1910 C   0  0  0  0  0  3  0  0  0  0  0  0
  -21.5560   -7.0030   21.4600 O   0  0  0  0  0  0  0  0  0  0  0  0
  -21.5360   -6.2560   22.6100 C   0  0  0  0  0  0  0  0  0  0  0  0
  -21.2400   -6.8280   23.8660 C   0  0  0  0  0  3  0  0  0  0  0  0
  -21.1630   -6.0110   25.0120 C   0  0  0  0  0  3  0  0  0  0  0  0
  -21.3700   -4.6220   24.9030 C   0  0  0  0  0  0  0  0  0  0  0  0
  -21.6590   -4.0510   23.6510 C   0  0  0  0  0  3  0  0  0  0  0  0
  -21.7380   -4.8650   22.5080 C   0  0  0  0  0  0  0  0  0  0  0  0
  -21.9960   -4.3050   21.3010 F   0  0  0  0  0  0  0  0  0  0  0  0
  -21.2870   -3.8360   26.0000 F   0  0  0  0  0  0  0  0  0  0  0  0
  -22.9430  -13.5830   21.0210 C   0  0  0  0  0  0  0  0  0  0  0  0
  -22.2160  -12.9310   21.9250 N   0  0  0  0  0  0  0  0  0  0  0  0
  -22.5330  -14.6210   20.5050 O   0  0  0  0  0  0  0  0  0  0  0  0
  -22.5590  -12.0920   22.3650 H   0  0  0  0  0  0  0  0  0  0  0  0
  -21.3020  -13.2800   22.1790 H   0  0  0  0  0  0  0  0  0  0  0  0
  -25.6210  -15.1110   20.0930 N   0  0  0  0  0  0  0  0  0  0  0  0
  -24.8920  -15.8060   20.2190 H   0  0  0  0  0  0  0  0  0  0  0  0
  -26.4860  -15.5010   19.7390 H   0  0  0  0  0  0  0  0  0  0  0  0
  -23.3090  -26.6600   15.1620 C   0  0  0  0  0  2  0  0  0  0  0  0
  -23.4500  -27.4250   13.8250 C   0  0  0  0  0  2  0  0  0  0  0  0
  -24.3840  -28.5040   13.8600 O   0  0  0  0  0  0  0  0  0  0  0  0
  -25.7710  -28.1670   13.8510 C   0  0  0  0  0  2  0  0  0  0  0  0
  -26.4090  -28.7640   15.1180 C   0  0  0  0  0  2  0  0  0  0  0  0
  -27.5660  -28.0330   15.5270 O   0  0  0  0  0  0  0  0  0  0  0  0
  -27.5180  -27.6750   16.9040 C   0  0  0  0  0  2  0  0  0  0  0  0
  -28.7750  -26.9090   17.3580 C   0  0  0  0  0  2  0  0  0  0  0  0
  -28.5750  -25.9820   18.5960 C   0  0  0  0  0  2  0  0  0  0  0  0
  -28.3350  -26.6360   19.8590 O   0  0  0  0  0  0  0  0  0  0  0  0
  -24.5140  -31.7010   23.1410 C   0  0  0  0  0  0  0  0  0  0  0  0
  -27.1260  -27.2810   20.0110 C   0  0  0  0  0  0  0  0  0  0  0  0
  -23.2950  -30.3190   21.4870 C   0  0  0  0  0  3  0  0  0  0  0  0
  -24.7370  -28.7820   20.0660 C   0  0  0  0  0  0  0  0  0  0  0  0
  -25.8200  -30.6700   21.2900 C   0  0  0  0  0  2  0  0  0  0  0  0
  -25.8970  -29.2940   20.6600 C   0  0  0  0  0  0  0  0  0  0  0  0
  -27.0920  -28.5420   20.6460 C   0  0  0  0  0  3  0  0  0  0  0  0
  -25.9220  -26.7480   19.4940 C   0  0  0  0  0  3  0  0  0  0  0  0
  -24.7370  -27.5020   19.4950 C   0  0  0  0  0  3  0  0  0  0  0  0
  -23.5050  -29.6550   20.1020 C   0  0  0  0  0  2  0  0  0  0  0  0
  -24.5620  -30.9100   22.0340 N   0  0  0  0  0  0  0  0  0  0  0  0
  -23.4350  -31.9740   23.6860 O   0  0  0  0  0  0  0  0  0  0  0  0
  -22.6390  -29.2950   22.4370 C   0  0  0  0  0  0  0  0  0  0  0  0
  -21.3110  -29.1300   22.3230 N   0  0  0  0  0  0  0  0  0  0  0  0
  -23.3240  -28.6490   23.2370 O   0  0  0  0  0  0  0  0  0  0  0  0
  -20.8170  -29.7130   21.6610 H   0  0  0  0  0  0  0  0  0  0  0  0
  -17.9320  -27.9600   22.8190 C   0  0  0  0  0  0  0  0  0  0  0  0
  -20.4920  -28.1950   23.0910 C   0  0  0  0  0  3  0  0  0  0  0  0
  -20.5790  -26.7630   22.5120 C   0  0  0  0  0  2  0  0  0  0  0  0
  -19.4760  -26.4520   21.4950 C   0  0  0  0  0  2  0  0  0  0  0  0
  -18.0950  -26.6090   22.1400 C   0  0  0  0  0  2  0  0  0  0  0  0
  -19.0580  -28.7080   23.2530 C   0  0  0  0  0  0  0  0  0  0  0  0
  -18.8530  -29.9720   23.8480 C   0  0  0  0  0  3  0  0  0  0  0  0
  -17.5550  -30.4890   24.0110 C   0  0  0  0  0  3  0  0  0  0  0  0
  -16.4430  -29.7380   23.5930 C   0  0  0  0  0  3  0  0  0  0  0  0
  -16.6310  -28.4760   23.0040 C   0  0  0  0  0  3  0  0  0  0  0  0
  -25.8070  -32.3190   23.7620 C   0  0  0  0  0  3  0  0  0  0  0  0
  -25.5040  -33.7070   24.1280 N   0  0  0  0  0  0  0  0  0  0  0  0
  -25.8250  -34.7740   23.3880 C   0  0  0  0  0  0  0  0  0  0  0  0
  -26.4820  -34.6970   22.3460 O   0  0  0  0  0  0  0  0  0  0  0  0
  -24.9180  -33.8460   24.9400 H   0  0  0  0  0  0  0  0  0  0  0  0
  -24.0850  -36.5670   23.0990 C   0  0  0  0  0  1  0  0  0  0  0  0
  -25.3420  -36.1500   23.8810 C   0  0  0  0  0  3  0  0  0  0  0  0
  -27.4890  -37.0230   24.6890 C   0  0  0  0  0  1  0  0  0  0  0  0
  -26.3660  -37.2110   23.7720 N   0  0  0  0  0  0  0  0  0  0  0  0
  -25.9590  -38.1240   23.9570 H   0  0  0  0  0  0  0  0  0  0  0  0
  -26.3480  -31.5130   25.0070 C   0  0  1  0  0  0  0  0  0  0  0  0
  -25.2780  -31.2450   26.0890 C   0  0  0  0  0  1  0  0  0  0  0  0
  -26.9220  -30.1460   24.5640 C   0  0  0  0  0  1  0  0  0  0  0  0
  -27.5090  -32.2890   25.6740 C   0  0  0  0  0  1  0  0  0  0  0  0
  1  2  1  0
  2  3  1  0
  3  4  1  0
  4  5  1  0
  5  6  1  0
  6  7  1  0
  7  9  1  0
  7 10  1  0
  8  7  1  0
 10 11  1  0
 11 12  1  0
 13 12  1  0
 13 14  1  0
 15 23  1  0
 16 21  1  0
 17 18  1  0
 17 16  1  0
 19 18  1  0
 19 28  1  0
 19 20  1  0
 21 15  1  0
 21 20  1  0
 22 15  2  0
 23 24  1  0
 23 14  1  0
 25 26  2  0
 26 45  1  0
 27 26  1  0
 27 30  1  0
 28 25  1  0
 28 29  1  0
 29 27  2  0
 30 31  1  0
 31 32  2  0
 33 36  1  0
 33 32  1  0
 34 33  2  0
 35 34  1  0
 35 30  2  0
 36 37  1  0
 37 38  1  0
 38 39  2  0
 40 39  1  0
 40 44  1  0
 41 40  2  0
 42 37  2  0
 42 41  1  0
 43 42  1  0
 45 46  1  0
 46 49  1  0
 46 48  1  0
 47 45  2  0
 50 51  1  0
 50 25  1  0
 52 50  1  0
 53  1  1  0
 54 55  1  0
 54 53  1  0
 56 55  1  0
 56 57  1  0
 57 58  1  0
 58 59  1  0
 59 60  1  0
 60 61  1  0
 61 62  1  0
 62 64  1  0
 63 74  2  0
 64 69  1  0
 65 73  1  0
 65 75  1  0
 66 72  1  0
 66 68  1  0
 67 73  1  0
 68 67  1  0
 69 68  2  0
 70 71  1  0
 70 64  2  0
 71 66  2  0
 72 65  1  0
 73 63  1  0
 75 77  2  0
 76 75  1  0
 78 76  1  0
 79 88  2  0
 79 84  1  0
 80 76  1  0
 80 84  1  0
 81 80  1  0
 82 83  1  0
 82 81  1  0
 83 79  1  0
 84 85  2  0
 85 86  1  0
 87 86  2  0
 88 87  1  0
 89 63  1  0
 89 90  1  0
 89 99  1  0
 90 93  1  0
 91 95  1  0
 91 90  1  0
 92 91  2  0
 95 94  1  0
 97 95  1  0
 97 98  1  0
 97 96  1  0
 99102  1  1
 99100  1  0
101 99  1  0
M  ISO  4  15 100  23 100  61 101  62 101
M  END
>  <TORSDO>  (32) 
F 36

>  <SCORE>  (32) 
-9.212

>  <name>  (32) 
32

>  <ligand_id>  (32) 
32

>  <original_smiles>  (32) 
[H]c1c([H])c([H])c2c(c1[H])C([H])([H])C([H])([H])C([H])([H])C2([H])N([H])C(=O)C1([H])N(C(=O)C([H])(N([H])C(=O)C([H])(N([H])C([H])([H])[H])C([H])([H])[H])C(C([H])([H])[H])(C([H])([H])[H])C([H])([H])[H])C([H])([H])c2c([H])c(OC([H])([H])C([H])([H])C([H])([H])OC([H])([H])C([H])([H])OC([H])([H])C([H])([H])C([H])([H])C([H])([H])OC([H])([H])C([H])([H])C([H])([H])[N+]([H])([H])C([H])([H])C([H])([H])C([H])([H])C([H])([H])C([H])([H])N([H])C(=O)N3C([H])([H])C([H])([H])C([H])([H])C([H])(n4nc(-c5c([H])c([H])c(Oc6c([H])c([H])c(F)c([H])c6F)c([H])c5[H])c(C(=O)N([H])[H])c4N([H])[H])C3([H])[H])c([H])c([H])c2C1([H])[H]

>  <smiles>  (32) 
[H]c1c([H])c([H])c2c(c1[H])C([H])([H])C([H])([H])C([H])([H])C2([H])N([H])C(=O)C1([H])N(C(=O)C([H])(N([H])C(=O)C([H])(N([H])C([H])([H])[H])C([H])([H])[H])C(C([H])([H])[H])(C([H])([H])[H])C([H])([H])[H])C([H])([H])c2c([H])c(OC([H])([H])C([H])([H])C([H])([H])OC([H])([H])C([H])([H])OC([H])([H])C([H])([H])C([H])([H])C([H])([H])OC([H])([H])C([H])([H])C([H])([H])[N+]([H])([H])C([H])([H])C([H])([H])C([H])([H])C([H])([H])C([H])([H])N([H])C(=O)N3C([H])([H])C([H])([H])C([H])([H])C([H])(n4nc(-c5c([H])c([H])c(Oc6c([H])c([H])c(F)c([H])c6F)c([H])c5[H])c(C(=O)N([H])[H])c4N([H])[H])C3([H])[H])c([H])c([H])c2C1([H])[H]

$$$$
34:0:0
     RDKit          3D

125129  0  0  1  0  0  0  0  0999 V2000
  -22.4280  -20.1720   17.2080 C   0  0  0  0  0  3  0  0  0  0  0  0
  -23.4950  -19.7260   16.4960 C   0  0  0  0  0  0  0  0  0  0  0  0
  -22.1820  -21.5040   17.8950 C   0  0  0  0  0  1  0  0  0  0  0  0
  -23.4320  -18.3190   15.9690 C   0  0  0  0  0  0  0  0  0  0  0  0
  -23.0510  -17.4610   16.9710 N   0  0  0  0  0  0  0  0  0  0  0  0
  -23.8470  -17.9080   14.8830 O   0  0  0  0  0  0  0  0  0  0  0  0
  -22.6660  -17.9670   17.7520 H   0  0  0  0  0  0  0  0  0  0  0  0
  -23.0860  -15.9970   17.3090 C   0  0  0  0  0  2  0  0  0  0  0  0
  -24.3530  -15.0210   17.7600 C   0  0  0  0  0  2  0  0  0  0  0  0
  -25.8110  -14.9400   18.8110 O   0  0  0  0  0  0  0  0  0  0  0  0
  -27.2980  -15.7530   19.0780 C   0  0  0  0  0  2  0  0  0  0  0  0
  -27.5890  -17.5670   19.0820 C   0  0  0  0  0  2  0  0  0  0  0  0
  -26.5450  -18.8310   19.4270 O   0  0  0  0  0  0  0  0  0  0  0  0
  -24.9260  -19.1190   19.7250 C   0  0  0  0  0  3  0  0  0  0  0  0
  -23.5910  -18.1060   20.4340 C   0  0  0  0  0  3  0  0  0  0  0  0
  -23.4520  -16.6030   21.0420 O   0  0  0  0  0  0  0  0  0  0  0  0
  -23.2850  -15.0450   20.7070 C   0  0  0  0  0  2  0  0  0  0  0  0
  -24.1910  -13.5820   20.3680 C   0  0  0  0  0  2  0  0  0  0  0  0
  -24.6270  -12.6450   18.9590 C   0  0  0  0  0  2  0  0  0  0  0  0
  -25.5090  -12.8880   17.6720 O   0  0  0  0  0  0  0  0  0  0  0  0
  -26.8640  -12.3580   17.0870 C   0  0  0  0  0  2  0  0  0  0  0  0
  -28.4950  -12.8650   17.4590 C   0  0  0  0  0  3  0  0  0  0  0  0
  -29.5140  -12.5540   18.8660 C   0  0  0  0  0  3  0  0  0  0  0  0
  -29.2640  -11.3650   20.1150 O   0  0  0  0  0  0  0  0  0  0  0  0
  -29.8200   -9.8130   20.7990 C   0  0  0  0  0  2  0  0  0  0  0  0
  -30.0410   -8.1490   20.4110 C   0  0  0  0  0  3  0  0  0  0  0  0
  -30.3290   -6.6160   21.2480 C   0  0  0  0  0  3  0  0  0  0  0  0
  -31.8330   -6.1520   24.0270 C   0  0  2  0  0  0  0  0  0  0  0  0
  -32.6250   -4.9170   23.3300 C   0  0  0  0  0  1  0  0  0  0  0  0
  -33.0680   -6.2460   22.0330 C   0  0  0  0  0  1  0  0  0  0  0  0
  -32.3070   -7.9010   22.3410 C   0  0  0  0  0  2  0  0  0  0  0  0
  -30.8670   -8.2740   23.5580 C   0  0  0  0  0  2  0  0  0  0  0  0
  -30.6810   -6.9140   24.8420 C   0  0  0  0  0  1  0  0  0  0  0  0
  -31.4940   -5.3940   24.5900 N   0  0  0  0  0  1  0  0  0  0  0  0
  -32.9710   -6.7750   24.5440 O   0  0  0  0  0  1  0  0  0  0  0  0
  -30.7130   -5.9990   22.7400 N   0  0  0  0  0  2  0  0  0  0  0  0
  -30.0080   -5.3110   22.9920 H   0  0  0  0  0  0  0  0  0  0  0  0
  -28.9860   -9.9170   22.8690 C   0  0  0  0  0  0  0  0  0  0  0  0
  -27.6360   -9.9210   22.6420 C   0  0  0  0  0  0  0  0  0  0  0  0
  -27.1980   -8.5750   22.8060 C   0  0  0  0  0  0  0  0  0  0  0  0
  -29.4150   -8.6370   23.1330 N   0  0  0  0  0  0  0  0  0  0  0  0
  -28.2590   -7.8440   23.2020 N   0  0  0  0  0  0  0  0  0  0  0  0
  -25.8210   -8.0170   22.6190 C   0  0  0  0  0  0  0  0  0  0  0  0
  -25.1720   -7.2080   23.5900 C   0  0  0  0  0  3  0  0  0  0  0  0
  -23.8480   -6.7370   23.3880 C   0  0  0  0  0  3  0  0  0  0  0  0
  -23.1310   -7.0880   22.2230 C   0  0  0  0  0  0  0  0  0  0  0  0
  -23.7820   -7.8770   21.2550 C   0  0  0  0  0  3  0  0  0  0  0  0
  -25.1000   -8.3370   21.4430 C   0  0  0  0  0  3  0  0  0  0  0  0
  -21.8450   -6.6830   21.9450 O   0  0  0  0  0  0  0  0  0  0  0  0
  -20.9710   -6.2760   22.9350 C   0  0  0  0  0  0  0  0  0  0  0  0
  -20.5960   -7.1330   23.9930 C   0  0  0  0  0  3  0  0  0  0  0  0
  -19.6380   -6.7080   24.9370 C   0  0  0  0  0  3  0  0  0  0  0  0
  -19.0520   -5.4350   24.8250 C   0  0  0  0  0  0  0  0  0  0  0  0
  -19.4120   -4.5850   23.7660 C   0  0  0  0  0  3  0  0  0  0  0  0
  -20.3680   -5.0050   22.8210 C   0  0  0  0  0  0  0  0  0  0  0  0
  -20.6840   -4.1900   21.7890 F   0  0  0  0  0  0  0  0  0  0  0  0
  -18.1450   -5.0280   25.7440 F   0  0  0  0  0  0  0  0  0  0  0  0
  -26.8170  -11.1260   22.2750 C   0  0  0  0  0  0  0  0  0  0  0  0
  -25.5450  -11.1420   22.6440 N   0  0  0  0  0  0  0  0  0  0  0  0
  -27.3080  -12.1140   21.7270 O   0  0  0  0  0  0  0  0  0  0  0  0
  -25.1320  -10.3980   23.1910 H   0  0  0  0  0  0  0  0  0  0  0  0
  -24.9950  -11.9550   22.4350 H   0  0  0  0  0  0  0  0  0  0  0  0
  -29.9120  -10.9270   22.9240 N   0  0  0  0  0  0  0  0  0  0  0  0
  -29.5770  -11.8800   22.9930 H   0  0  0  0  0  0  0  0  0  0  0  0
  -30.8810  -10.7800   23.1810 H   0  0  0  0  0  0  0  0  0  0  0  0
  -24.7330  -20.5470   16.2250 C   0  0  0  0  0  0  0  0  0  0  0  0
  -25.1700  -21.3400   17.2530 N   0  0  0  0  0  0  0  0  0  0  0  0
  -25.3950  -20.5210   15.1850 O   0  0  0  0  0  0  0  0  0  0  0  0
  -24.6060  -21.2970   18.0920 H   0  0  0  0  0  0  0  0  0  0  0  0
  -26.3920  -22.2060   17.3430 C   0  0  0  0  0  3  0  0  0  0  0  0
  -27.3140  -21.8920   18.5540 C   0  0  0  0  0  0  0  0  0  0  0  0
  -27.0180  -22.4580   19.7430 N   0  0  0  0  0  0  0  0  0  0  0  0
  -28.3250  -21.2040   18.3970 O   0  0  0  0  0  0  0  0  0  0  0  0
  -26.1700  -22.9990   19.8290 H   0  0  0  0  0  0  0  0  0  0  0  0
  -27.9440  -22.5600   20.8630 C   0  0  0  0  0  2  0  0  0  0  0  0
  -28.7140  -23.7240   20.7370 O   0  0  0  0  0  0  0  0  0  0  0  0
  -29.7170  -23.9070   21.7450 C   0  0  0  0  0  2  0  0  0  0  0  0
  -31.1040  -23.7490   21.1060 C   0  0  0  0  0  2  0  0  0  0  0  0
  -31.8230  -24.1130   18.8700 C   0  0  0  0  0  1  0  0  0  0  0  0
  -31.2440  -24.6840   20.0370 O   0  0  0  0  0  0  0  0  0  0  0  0
  -26.1040  -23.7380   17.1930 C   0  0  0  0  0  2  0  0  0  0  0  0
  -27.2680  -24.5950   17.1080 O   0  0  0  0  0  0  0  0  0  0  0  0
  -27.9950  -24.9010   18.3220 C   0  0  0  0  0  2  0  0  0  0  0  0
  -28.5480  -26.3560   18.2890 C   0  0  0  0  0  2  0  0  0  0  0  0
  -28.3180  -27.1450   19.4810 O   0  0  0  0  0  0  0  0  0  0  0  0
  -23.9920  -31.6340   23.0490 C   0  0  0  0  0  0  0  0  0  0  0  0
  -27.0780  -27.7350   19.6080 C   0  0  0  0  0  0  0  0  0  0  0  0
  -22.9420  -30.2490   21.2940 C   0  0  0  0  0  3  0  0  0  0  0  0
  -24.5460  -28.9930   19.7760 C   0  0  0  0  0  0  0  0  0  0  0  0
  -25.4310  -30.8570   21.1730 C   0  0  0  0  0  2  0  0  0  0  0  0
  -25.6510  -29.5610   20.4220 C   0  0  0  0  0  0  0  0  0  0  0  0
  -26.9200  -28.9300   20.3540 C   0  0  0  0  0  3  0  0  0  0  0  0
  -25.9350  -27.1850   18.9820 C   0  0  0  0  0  3  0  0  0  0  0  0
  -24.6820  -27.7980   19.0630 C   0  0  0  0  0  3  0  0  0  0  0  0
  -23.2260  -29.7170   19.8700 C   0  0  0  0  0  2  0  0  0  0  0  0
  -24.1370  -30.9250   21.8950 N   0  0  0  0  0  0  0  0  0  0  0  0
  -22.8840  -31.7600   23.5890 O   0  0  0  0  0  0  0  0  0  0  0  0
  -22.3960  -29.0900   22.1590 C   0  0  0  0  0  0  0  0  0  0  0  0
  -21.0980  -28.7870   22.0010 N   0  0  0  0  0  0  0  0  0  0  0  0
  -23.1360  -28.4740   22.9310 O   0  0  0  0  0  0  0  0  0  0  0  0
  -20.5590  -29.3410   21.3510 H   0  0  0  0  0  0  0  0  0  0  0  0
  -17.8600  -27.2250   22.3430 C   0  0  0  0  0  0  0  0  0  0  0  0
  -20.3740  -27.7190   22.6880 C   0  0  0  0  0  3  0  0  0  0  0  0
  -20.6320  -26.3510   22.0150 C   0  0  0  0  0  2  0  0  0  0  0  0
  -19.5830  -25.9920   20.9580 C   0  0  0  0  0  2  0  0  0  0  0  0
  -18.1840  -25.9510   21.5800 C   0  0  0  0  0  2  0  0  0  0  0  0
  -18.8880  -28.0630   22.8490 C   0  0  0  0  0  0  0  0  0  0  0  0
  -18.5330  -29.2550   23.5170 C   0  0  0  0  0  3  0  0  0  0  0  0
  -17.1810  -29.6100   23.6870 C   0  0  0  0  0  3  0  0  0  0  0  0
  -16.1670  -28.7680   23.2010 C   0  0  0  0  0  3  0  0  0  0  0  0
  -16.5070  -27.5770   22.5330 C   0  0  0  0  0  3  0  0  0  0  0  0
  -25.2050  -32.3400   23.7260 C   0  0  0  0  0  3  0  0  0  0  0  0
  -25.7340  -31.5800   25.0040 C   0  0  1  0  0  0  0  0  0  0  0  0
  -24.6250  -31.2440   26.0260 C   0  0  0  0  0  1  0  0  0  0  0  0
  -26.4270  -30.2540   24.6110 C   0  0  0  0  0  1  0  0  0  0  0  0
  -26.8030  -32.4390   25.7180 C   0  0  0  0  0  1  0  0  0  0  0  0
  -24.7850  -33.7050   24.0670 N   0  0  0  0  0  0  0  0  0  0  0  0
  -25.0800  -34.7950   23.3460 C   0  0  0  0  0  0  0  0  0  0  0  0
  -25.8080  -34.7620   22.3480 O   0  0  0  0  0  0  0  0  0  0  0  0
  -24.1360  -33.8000   24.8350 H   0  0  0  0  0  0  0  0  0  0  0  0
  -23.2500  -36.4670   22.9320 C   0  0  0  0  0  1  0  0  0  0  0  0
  -24.4710  -36.1340   23.8020 C   0  0  0  0  0  3  0  0  0  0  0  0
  -26.4880  -37.1430   24.7680 C   0  0  0  0  0  1  0  0  0  0  0  0
  -25.4310  -37.2580   23.7670 N   0  0  0  0  0  0  0  0  0  0  0  0
  -24.9530  -38.1430   23.9120 H   0  0  0  0  0  0  0  0  0  0  0  0
  1  3  1  0
  2  1  2  0
  4  2  1  0
  4  5  1  0
  5  8  1  0
  5  7  1  0
  6  4  2  0
  8  9  1  0
  9 10  1  0
 10 11  1  0
 11 12  1  0
 12 13  1  0
 13 14  1  0
 14 15  2  0
 15 16  1  0
 17 16  1  0
 18 17  1  0
 19 18  1  0
 20 19  1  0
 21 22  1  0
 21 20  1  0
 22 23  2  0
 23 24  1  0
 24 25  1  0
 26 25  1  0
 26 27  2  0
 27 36  1  0
 28 35  1  0
 28 34  1  0
 28 33  1  6
 29 28  1  0
 30 31  1  0
 31 32  1  0
 36 37  1  0
 38 63  1  0
 38 41  1  0
 39 40  1  0
 39 38  2  0
 40 42  2  0
 41 42  1  0
 41 32  1  0
 43 40  1  0
 43 44  1  0
 45 44  2  0
 46 45  1  0
 47 48  1  0
 47 46  2  0
 48 43  2  0
 49 46  1  0
 49 50  1  0
 50 51  1  0
 51 52  2  0
 53 52  1  0
 53 57  1  0
 54 53  2  0
 55 50  2  0
 55 54  1  0
 56 55  1  0
 58 39  1  0
 58 59  1  0
 59 61  1  0
 60 58  2  0
 62 59  1  0
 63 64  1  0
 63 65  1  0
 66  2  1  0
 66 67  1  0
 67 70  1  0
 67 69  1  0
 68 66  2  0
 70 81  1  0
 70 71  1  0
 71 72  1  0
 72 74  1  0
 72 75  1  0
 73 71  2  0
 76 75  1  0
 76 77  1  0
 78 77  1  0
 79 80  1  0
 80 78  1  0
 82 81  1  0
 82 83  1  0
 84 83  1  0
 84 85  1  0
 85 87  1  0
 86 97  2  0
 87 92  1  0
 88 96  1  0
 88 98  1  0
 89 95  1  0
 89 91  1  0
 90 96  1  0
 91 90  1  0
 92 91  2  0
 93 94  1  0
 93 87  2  0
 94 89  2  0
 95 88  1  0
 96 86  1  0
 98100  2  0
 99 98  1  0
101 99  1  0
102111  2  0
102107  1  0
103 99  1  0
103107  1  0
104103  1  0
105106  1  0
105104  1  0
106102  1  0
107108  2  0
108109  1  0
110109  2  0
111110  1  0
112 86  1  0
112117  1  0
112113  1  0
113116  1  1
113114  1  0
115113  1  0
117120  1  0
118122  1  0
118117  1  0
119118  2  0
122121  1  0
124122  1  0
124125  1  0
124123  1  0
M  ISO  4  28 100  36 100  84 101  85 101
M  END
>  <TORSDO>  (33) 
F 49

>  <SCORE>  (33) 
29.099

>  <name>  (33) 
34

>  <ligand_id>  (33) 
34

>  <original_smiles>  (33) 
[H]C(=C(C(=O)N([H])C([H])([H])C([H])([H])OC([H])([H])C([H])([H])OC([H])([H])C([H])([H])OC([H])([H])C([H])([H])C([H])([H])OC([H])([H])C([H])([H])C([H])([H])OC([H])([H])C([H])([H])C([H])([H])N([H])C(=O)N1C([H])([H])C([H])([H])C([H])([H])C([H])(n2nc(-c3c([H])c([H])c(Oc4c([H])c([H])c(F)c([H])c4F)c([H])c3[H])c(C(=O)N([H])[H])c2N([H])[H])C1([H])[H])C(=O)N([H])C([H])(C(=O)N([H])C([H])([H])OC([H])([H])C([H])([H])OC([H])([H])[H])C([H])([H])OC([H])([H])C([H])([H])Oc1c([H])c([H])c2c(c1[H])C([H])([H])N(C(=O)C([H])(N([H])C(=O)C([H])(N([H])C([H])([H])[H])C([H])([H])[H])C(C([H])([H])[H])(C([H])([H])[H])C([H])([H])[H])C([H])(C(=O)N([H])C1([H])c3c([H])c([H])c([H])c([H])c3C([H])([H])C([H])([H])C1([H])[H])C2([H])[H])C([H])([H])[H]

>  <smiles>  (33) 
[H]C(=C(C(=O)N([H])C([H])([H])C([H])([H])OC([H])([H])C([H])([H])OC([H])([H])C([H])([H])OC([H])([H])C([H])([H])C([H])([H])OC([H])([H])C([H])([H])C([H])([H])OC([H])([H])C([H])([H])C([H])([H])N([H])C(=O)N1C([H])([H])C([H])([H])C([H])([H])C([H])(n2nc(-c3c([H])c([H])c(Oc4c([H])c([H])c(F)c([H])c4F)c([H])c3[H])c(C(=O)N([H])[H])c2N([H])[H])C1([H])[H])C(=O)N([H])C([H])(C(=O)N([H])C([H])([H])OC([H])([H])C([H])([H])OC([H])([H])[H])C([H])([H])OC([H])([H])C([H])([H])Oc1c([H])c([H])c2c(c1[H])C([H])([H])N(C(=O)C([H])(N([H])C(=O)C([H])(N([H])C([H])([H])[H])C([H])([H])[H])C(C([H])([H])[H])(C([H])([H])[H])C([H])([H])[H])C([H])(C(=O)N([H])C1([H])c3c([H])c([H])c([H])c([H])c3C([H])([H])C([H])([H])C1([H])[H])C2([H])[H])C([H])([H])[H]

$$$$
36:0:0
     RDKit          3D

 99106  0  0  1  0  0  0  0  0999 V2000
  -26.1350  -24.3360   27.7390 C   0  0  0  0  0  0  0  0  0  0  0  0
  -26.5470  -25.3690   26.9930 N   0  0  0  0  0  0  0  0  0  0  0  0
  -24.9450  -24.1200   27.9860 O   0  0  0  0  0  0  0  0  0  0  0  0
  -27.5400  -25.4630   26.8300 H   0  0  0  0  0  0  0  0  0  0  0  0
  -25.6920  -26.3030   26.2670 C   0  0  0  0  0  2  0  0  0  0  0  0
  -25.5170  -25.8600   24.8070 C   0  0  0  0  0  2  0  0  0  0  0  0
  -26.8030  -25.7890   24.2010 O   0  0  0  0  0  0  0  0  0  0  0  0
  -26.7560  -25.5330   22.8040 C   0  0  0  0  0  2  0  0  0  0  0  0
  -28.2000  -25.5710   22.2690 C   0  0  0  0  0  2  0  0  0  0  0  0
  -28.3380  -25.4730   20.7310 C   0  0  0  0  0  2  0  0  0  0  0  0
  -28.4010  -26.7580   20.1150 O   0  0  0  0  0  0  0  0  0  0  0  0
  -24.6070  -31.8680   23.2120 C   0  0  0  0  0  0  0  0  0  0  0  0
  -27.2310  -27.4720   20.0990 C   0  0  0  0  0  0  0  0  0  0  0  0
  -23.4000  -30.4920   21.5500 C   0  0  0  0  0  3  0  0  0  0  0  0
  -24.8470  -28.9680   20.1080 C   0  0  0  0  0  0  0  0  0  0  0  0
  -25.9230  -30.8520   21.3610 C   0  0  0  0  0  2  0  0  0  0  0  0
  -25.9990  -29.4890   20.7050 C   0  0  0  0  0  0  0  0  0  0  0  0
  -27.1980  -28.7490   20.6920 C   0  0  0  0  0  3  0  0  0  0  0  0
  -26.0670  -26.9580   19.4910 C   0  0  0  0  0  3  0  0  0  0  0  0
  -24.8720  -27.7020   19.4940 C   0  0  0  0  0  3  0  0  0  0  0  0
  -23.6040  -29.8240   20.1610 C   0  0  0  0  0  2  0  0  0  0  0  0
  -24.6610  -31.0860   22.0990 N   0  0  0  0  0  0  0  0  0  0  0  0
  -23.5270  -32.1370   23.7570 O   0  0  0  0  0  0  0  0  0  0  0  0
  -22.7410  -29.4660   22.5000 C   0  0  0  0  0  0  0  0  0  0  0  0
  -21.4150  -29.3040   22.3740 N   0  0  0  0  0  0  0  0  0  0  0  0
  -23.4220  -28.8180   23.3000 O   0  0  0  0  0  0  0  0  0  0  0  0
  -20.9350  -29.8760   21.6940 H   0  0  0  0  0  0  0  0  0  0  0  0
  -18.0280  -28.1370   22.8500 C   0  0  0  0  0  0  0  0  0  0  0  0
  -20.5880  -28.3660   23.1330 C   0  0  0  0  0  3  0  0  0  0  0  0
  -20.6790  -26.9390   22.5440 C   0  0  0  0  0  2  0  0  0  0  0  0
  -19.5780  -26.6370   21.5240 C   0  0  0  0  0  2  0  0  0  0  0  0
  -18.1940  -26.7910   22.1640 C   0  0  0  0  0  2  0  0  0  0  0  0
  -19.1530  -28.8830   23.2900 C   0  0  0  0  0  0  0  0  0  0  0  0
  -18.9480  -30.1430   23.8920 C   0  0  0  0  0  3  0  0  0  0  0  0
  -17.6500  -30.6590   24.0550 C   0  0  0  0  0  3  0  0  0  0  0  0
  -16.5380  -29.9130   23.6310 C   0  0  0  0  0  3  0  0  0  0  0  0
  -16.7270  -28.6520   23.0370 C   0  0  0  0  0  3  0  0  0  0  0  0
  -25.8970  -32.4840   23.8380 C   0  0  0  0  0  3  0  0  0  0  0  0
  -26.4440  -31.6600   25.0660 C   0  0  1  0  0  0  0  0  0  0  0  0
  -25.3720  -31.3630   26.1400 C   0  0  0  0  0  1  0  0  0  0  0  0
  -27.0290  -30.3060   24.5950 C   0  0  0  0  0  1  0  0  0  0  0  0
  -27.5970  -32.4350   25.7450 C   0  0  0  0  0  1  0  0  0  0  0  0
  -25.5870  -33.8620   24.2340 N   0  0  0  0  0  0  0  0  0  0  0  0
  -25.9030  -34.9480   23.5160 C   0  0  0  0  0  0  0  0  0  0  0  0
  -26.5580  -34.8940   22.4710 O   0  0  0  0  0  0  0  0  0  0  0  0
  -25.0050  -33.9760   25.0510 H   0  0  0  0  0  0  0  0  0  0  0  0
  -24.1500  -36.7270   23.2630 C   0  0  0  0  0  1  0  0  0  0  0  0
  -25.4120  -36.3130   24.0370 C   0  0  0  0  0  3  0  0  0  0  0  0
  -27.5610  -37.1800   24.8460 C   0  0  0  0  0  1  0  0  0  0  0  0
  -26.4300  -37.3810   23.9420 N   0  0  0  0  0  0  0  0  0  0  0  0
  -26.0210  -38.2890   24.1430 H   0  0  0  0  0  0  0  0  0  0  0  0
  -27.2140  -23.3690   28.2370 C   0  0  0  0  0  2  0  0  0  0  0  0
  -27.1550  -22.1860   27.4420 O   0  0  0  0  0  0  0  0  0  0  0  0
  -28.2640  -21.3170   27.6200 C   0  0  0  0  0  2  0  0  0  0  0  0
  -28.0400  -20.0660   26.7530 C   0  0  0  0  0  2  0  0  0  0  0  0
  -29.2940  -19.1890   26.6150 C   0  0  0  0  0  2  0  0  0  0  0  0
  -29.1070  -17.9970   25.6650 C   0  0  0  0  0  2  0  0  0  0  0  0
  -30.3150  -17.2490   25.6720 O   0  0  0  0  0  0  0  0  0  0  0  0
  -30.3730  -16.2120   24.6980 C   0  0  0  0  0  2  0  0  0  0  0  0
  -31.2700  -16.6340   23.5210 C   0  0  0  0  0  2  0  0  0  0  0  0
  -31.8410  -15.4480   22.7190 C   0  0  0  0  0  2  0  0  0  0  0  0
  -30.8670  -14.2640   20.7520 C   0  0  0  0  0  0  0  0  0  0  0  0
  -30.4070  -12.2800   19.3710 C   0  0  0  0  0  2  0  0  0  0  0  0
  -29.4720  -12.5400   18.1810 C   0  0  0  0  0  2  0  0  0  0  0  0
  -28.0040  -12.3840   18.6120 C   0  0  0  0  0  2  0  0  0  0  0  0
  -27.6720  -13.2090   19.8820 C   0  0  0  0  0  3  0  0  0  0  0  0
  -28.7160  -12.9710   21.0000 C   0  0  0  0  0  2  0  0  0  0  0  0
  -30.0690  -13.2060   20.4610 N   0  0  0  0  0  0  0  0  0  0  0  0
  -31.7450  -14.6810   19.9920 O   0  0  0  0  0  0  0  0  0  0  0  0
  -30.8130  -14.6540   22.0330 N   0  0  0  0  0  0  0  0  0  0  0  0
  -30.1230  -14.1890   22.6040 H   0  0  0  0  0  0  0  0  0  0  0  0
  -25.2630  -13.8190   20.5700 C   0  0  0  0  0  0  0  0  0  0  0  0
  -24.1860  -13.0450   20.9170 C   0  0  0  0  0  0  0  0  0  0  0  0
  -24.6420  -11.6930   20.8740 C   0  0  0  0  0  0  0  0  0  0  0  0
  -26.3090  -12.9360   20.3430 N   0  0  0  0  0  0  0  0  0  0  0  0
  -25.9360  -11.6510   20.5800 N   0  0  0  0  0  0  0  0  0  0  0  0
  -23.9090  -10.4290   21.0400 C   0  0  0  0  0  0  0  0  0  0  0  0
  -24.3610   -9.4220   21.9200 C   0  0  0  0  0  3  0  0  0  0  0  0
  -23.6270   -8.2260   22.0770 C   0  0  0  0  0  3  0  0  0  0  0  0
  -22.4270   -8.0300   21.3540 C   0  0  0  0  0  0  0  0  0  0  0  0
  -21.9910   -9.0270   20.4660 C   0  0  0  0  0  3  0  0  0  0  0  0
  -22.7250  -10.2150   20.3060 C   0  0  0  0  0  3  0  0  0  0  0  0
  -21.6640   -6.8890   21.4240 O   0  0  0  0  0  0  0  0  0  0  0  0
  -21.6860   -6.0750   22.5270 C   0  0  0  0  0  0  0  0  0  0  0  0
  -21.4010   -6.5650   23.8210 C   0  0  0  0  0  3  0  0  0  0  0  0
  -21.3650   -5.6800   24.9170 C   0  0  0  0  0  3  0  0  0  0  0  0
  -21.6040   -4.3060   24.7230 C   0  0  0  0  0  0  0  0  0  0  0  0
  -21.8820   -3.8160   23.4350 C   0  0  0  0  0  3  0  0  0  0  0  0
  -21.9190   -4.6970   22.3400 C   0  0  0  0  0  0  0  0  0  0  0  0
  -22.1660   -4.2160   21.0980 F   0  0  0  0  0  0  0  0  0  0  0  0
  -21.5620   -3.4540   25.7740 F   0  0  0  0  0  0  0  0  0  0  0  0
  -22.7880  -13.5260   21.1810 C   0  0  0  0  0  0  0  0  0  0  0  0
  -22.0500  -12.8250   22.0370 N   0  0  0  0  0  0  0  0  0  0  0  0
  -22.3580  -14.5560   20.6660 O   0  0  0  0  0  0  0  0  0  0  0  0
  -22.4070  -11.9900   22.4760 H   0  0  0  0  0  0  0  0  0  0  0  0
  -21.1140  -13.1320   22.2570 H   0  0  0  0  0  0  0  0  0  0  0  0
  -25.4350  -15.1900   20.4090 N   0  0  0  0  0  0  0  0  0  0  0  0
  -24.6740  -15.8510   20.5270 H   0  0  0  0  0  0  0  0  0  0  0  0
  -26.2980  -15.6270   20.1070 H   0  0  0  0  0  0  0  0  0  0  0  0
  1  3  2  0
  1 52  1  0
  2  1  1  0
  4  2  1  0
  5  2  1  0
  6  5  1  0
  7  6  1  0
  8  7  1  0
  9  8  1  0
 10  9  1  0
 11 10  1  0
 12 23  2  0
 13 11  1  0
 13 18  1  0
 14 22  1  0
 14 24  1  0
 15 21  1  0
 15 17  1  0
 16 22  1  0
 17 16  1  0
 18 17  2  0
 19 20  1  0
 19 13  2  0
 20 15  2  0
 21 14  1  0
 22 12  1  0
 24 26  2  0
 25 24  1  0
 27 25  1  0
 28 37  2  0
 28 33  1  0
 29 25  1  0
 29 33  1  0
 30 29  1  0
 31 32  1  0
 31 30  1  0
 32 28  1  0
 33 34  2  0
 34 35  1  0
 36 35  2  0
 37 36  1  0
 38 12  1  0
 38 43  1  0
 38 39  1  0
 39 42  1  1
 39 40  1  0
 41 39  1  0
 43 46  1  0
 44 48  1  0
 44 43  1  0
 45 44  2  0
 48 47  1  0
 50 48  1  0
 50 51  1  0
 50 49  1  0
 53 54  1  0
 53 52  1  0
 55 54  1  0
 56 55  1  0
 57 58  1  0
 57 56  1  0
 59 58  1  0
 60 59  1  0
 61 60  1  0
 62 70  1  0
 63 68  1  0
 64 65  1  0
 64 63  1  0
 66 65  1  0
 66 75  1  0
 66 67  1  0
 68 62  1  0
 68 67  1  0
 69 62  2  0
 70 71  1  0
 70 61  1  0
 72 73  2  0
 73 92  1  0
 74 73  1  0
 74 77  1  0
 75 72  1  0
 75 76  1  0
 76 74  2  0
 77 78  1  0
 78 79  2  0
 80 83  1  0
 80 79  1  0
 81 80  2  0
 82 81  1  0
 82 77  2  0
 83 84  1  0
 84 85  1  0
 85 86  2  0
 87 86  1  0
 87 91  1  0
 88 87  2  0
 89 84  2  0
 89 88  1  0
 90 89  1  0
 92 93  1  0
 93 96  1  0
 93 95  1  0
 94 92  2  0
 97 98  1  0
 97 72  1  0
 99 97  1  0
M  ISO  4  10 101  11 101  62 100  70 100
M  END
>  <TORSDO>  (34) 
F 32

>  <SCORE>  (34) 
19.890

>  <name>  (34) 
36

>  <ligand_id>  (34) 
36

>  <original_smiles>  (34) 
[H]c1c([H])c([H])c2c(c1[H])C([H])([H])C([H])([H])C([H])([H])C2([H])N([H])C(=O)C1([H])N(C(=O)C([H])(N([H])C(=O)C([H])(N([H])C([H])([H])[H])C([H])([H])[H])C(C([H])([H])[H])(C([H])([H])[H])C([H])([H])[H])C([H])([H])c2c([H])c(OC([H])([H])C([H])([H])C([H])([H])OC([H])([H])C([H])([H])N([H])C(=O)C([H])([H])OC([H])([H])C([H])([H])C([H])([H])C([H])([H])OC([H])([H])C([H])([H])C([H])([H])N([H])C(=O)N3C([H])([H])C([H])([H])C([H])([H])C([H])(n4nc(-c5c([H])c([H])c(Oc6c([H])c([H])c(F)c([H])c6F)c([H])c5[H])c(C(=O)N([H])[H])c4N([H])[H])C3([H])[H])c([H])c([H])c2C1([H])[H]

>  <smiles>  (34) 
[H]c1c([H])c([H])c2c(c1[H])C([H])([H])C([H])([H])C([H])([H])C2([H])N([H])C(=O)C1([H])N(C(=O)C([H])(N([H])C(=O)C([H])(N([H])C([H])([H])[H])C([H])([H])[H])C(C([H])([H])[H])(C([H])([H])[H])C([H])([H])[H])C([H])([H])c2c([H])c(OC([H])([H])C([H])([H])C([H])([H])OC([H])([H])C([H])([H])N([H])C(=O)C([H])([H])OC([H])([H])C([H])([H])C([H])([H])C([H])([H])OC([H])([H])C([H])([H])C([H])([H])N([H])C(=O)N3C([H])([H])C([H])([H])C([H])([H])C([H])(n4nc(-c5c([H])c([H])c(Oc6c([H])c([H])c(F)c([H])c6F)c([H])c5[H])c(C(=O)N([H])[H])c4N([H])[H])C3([H])[H])c([H])c([H])c2C1([H])[H]

$$$$
37:0:0
     RDKit          3D

101109  0  0  1  0  0  0  0  0999 V2000
  -30.5370  -22.4630   22.9470 C   0  0  0  0  0  2  0  0  0  0  0  0
  -30.3720  -21.8050   20.5380 C   0  0  0  0  0  2  0  0  0  0  0  0
  -29.9290  -23.8670   22.8150 C   0  0  0  0  0  2  0  0  0  0  0  0
  -30.4170  -22.9970   19.5510 C   0  0  0  0  0  2  0  0  0  0  0  0
  -29.0030  -24.5380   20.7360 C   0  0  0  0  0  3  0  0  0  0  0  0
  -31.2590  -21.9940   21.7280 N   0  0  2  0  0  4  0  0  0  0  0  0
  -28.8250  -23.8130   21.9120 O   0  0  0  0  0  0  0  0  0  0  0  0
  -30.2510  -24.2850   20.1560 O   0  0  0  0  0  0  0  0  0  0  0  0
  -31.9150  -22.7170   21.4620 H   0  0  0  0  0  0  0  0  0  0  0  0
  -32.1150  -20.8090   22.0280 C   0  0  0  0  0  2  0  0  0  0  0  0
  -33.5730  -21.0630   21.6270 C   0  0  0  0  0  2  0  0  0  0  0  0
  -33.5540  -21.2960   20.2290 O   0  0  0  0  0  0  0  0  0  0  0  0
  -34.7190  -20.8740   19.5310 C   0  0  0  0  0  2  0  0  0  0  0  0
  -34.2450  -20.5880   18.1030 C   0  0  0  0  0  2  0  0  0  0  0  0
  -33.3630  -19.4770   18.1840 O   0  0  0  0  0  0  0  0  0  0  0  0
  -32.4490  -19.3770   17.1050 C   0  0  0  0  0  2  0  0  0  0  0  0
  -31.5590  -18.1580   17.3640 C   0  0  0  0  0  2  0  0  0  0  0  0
  -30.8470  -18.3520   18.5790 O   0  0  0  0  0  0  0  0  0  0  0  0
  -29.8770  -17.3440   18.8150 C   0  0  0  0  0  2  0  0  0  0  0  0
  -29.3480  -17.4850   20.2530 C   0  0  0  0  0  2  0  0  0  0  0  0
  -30.2170  -16.7790   21.3180 C   0  0  0  0  0  2  0  0  0  0  0  0
  -30.6950  -14.4090   20.6420 C   0  0  0  0  0  0  0  0  0  0  0  0
  -30.4300  -12.2880   19.4220 C   0  0  0  0  0  2  0  0  0  0  0  0
  -29.5010  -12.5190   18.2110 C   0  0  0  0  0  2  0  0  0  0  0  0
  -28.0170  -12.3830   18.6100 C   0  0  0  0  0  2  0  0  0  0  0  0
  -27.6660  -13.1990   19.8810 C   0  0  0  0  0  3  0  0  0  0  0  0
  -28.6960  -12.9270   21.0000 C   0  0  0  0  0  2  0  0  0  0  0  0
  -30.0400  -13.2330   20.4760 N   0  0  0  0  0  0  0  0  0  0  0  0
  -31.7790  -14.6680   20.1090 O   0  0  0  0  0  0  0  0  0  0  0  0
  -30.0000  -15.3300   21.3240 N   0  0  0  0  0  0  0  0  0  0  0  0
  -29.1580  -14.9980   21.7730 H   0  0  0  0  0  0  0  0  0  0  0  0
  -25.2610  -13.8160   20.5660 C   0  0  0  0  0  0  0  0  0  0  0  0
  -24.1850  -13.0430   20.9160 C   0  0  0  0  0  0  0  0  0  0  0  0
  -24.6400  -11.6900   20.8730 C   0  0  0  0  0  0  0  0  0  0  0  0
  -26.3030  -12.9310   20.3330 N   0  0  0  0  0  0  0  0  0  0  0  0
  -25.9320  -11.6480   20.5750 N   0  0  0  0  0  0  0  0  0  0  0  0
  -23.9050  -10.4290   21.0390 C   0  0  0  0  0  0  0  0  0  0  0  0
  -24.3620   -9.4220   21.9170 C   0  0  0  0  0  3  0  0  0  0  0  0
  -23.6310   -8.2240   22.0750 C   0  0  0  0  0  3  0  0  0  0  0  0
  -22.4290   -8.0270   21.3540 C   0  0  0  0  0  0  0  0  0  0  0  0
  -21.9910   -9.0220   20.4630 C   0  0  0  0  0  3  0  0  0  0  0  0
  -22.7220  -10.2110   20.3030 C   0  0  0  0  0  3  0  0  0  0  0  0
  -21.6640   -6.8880   21.4240 O   0  0  0  0  0  0  0  0  0  0  0  0
  -21.6860   -6.0750   22.5280 C   0  0  0  0  0  0  0  0  0  0  0  0
  -21.4000   -6.5640   23.8210 C   0  0  0  0  0  3  0  0  0  0  0  0
  -21.3680   -5.6790   24.9170 C   0  0  0  0  0  3  0  0  0  0  0  0
  -21.6070   -4.3050   24.7230 C   0  0  0  0  0  0  0  0  0  0  0  0
  -21.8820   -3.8160   23.4340 C   0  0  0  0  0  3  0  0  0  0  0  0
  -21.9190   -4.6990   22.3410 C   0  0  0  0  0  0  0  0  0  0  0  0
  -22.1660   -4.2180   21.0990 F   0  0  0  0  0  0  0  0  0  0  0  0
  -21.5640   -3.4530   25.7740 F   0  0  0  0  0  0  0  0  0  0  0  0
  -22.7900  -13.5250   21.1820 C   0  0  0  0  0  0  0  0  0  0  0  0
  -22.0530  -12.8210   22.0380 N   0  0  0  0  0  0  0  0  0  0  0  0
  -22.3570  -14.5540   20.6660 O   0  0  0  0  0  0  0  0  0  0  0  0
  -22.4150  -11.9880   22.4780 H   0  0  0  0  0  0  0  0  0  0  0  0
  -21.1160  -13.1260   22.2560 H   0  0  0  0  0  0  0  0  0  0  0  0
  -25.4320  -15.1880   20.4130 N   0  0  0  0  0  0  0  0  0  0  0  0
  -24.6650  -15.8430   20.5220 H   0  0  0  0  0  0  0  0  0  0  0  0
  -26.2880  -15.6350   20.1120 H   0  0  0  0  0  0  0  0  0  0  0  0
  -28.8700  -26.0450   21.0700 C   0  0  0  0  0  2  0  0  0  0  0  0
  -28.4130  -26.7550   19.9300 O   0  0  0  0  0  0  0  0  0  0  0  0
  -24.6130  -31.8710   23.2130 C   0  0  0  0  0  0  0  0  0  0  0  0
  -27.2460  -27.4640   20.0750 C   0  0  0  0  0  0  0  0  0  0  0  0
  -23.4020  -30.4910   21.5540 C   0  0  0  0  0  3  0  0  0  0  0  0
  -24.8520  -28.9550   20.1240 C   0  0  0  0  0  0  0  0  0  0  0  0
  -25.9300  -30.8390   21.3670 C   0  0  0  0  0  2  0  0  0  0  0  0
  -26.0100  -29.4700   20.7240 C   0  0  0  0  0  0  0  0  0  0  0  0
  -27.2130  -28.7270   20.7060 C   0  0  0  0  0  3  0  0  0  0  0  0
  -26.0750  -26.9520   19.4860 C   0  0  0  0  0  3  0  0  0  0  0  0
  -24.8770  -27.6900   19.5110 C   0  0  0  0  0  3  0  0  0  0  0  0
  -23.6120  -29.8190   20.1690 C   0  0  0  0  0  2  0  0  0  0  0  0
  -24.6660  -31.0820   22.1030 N   0  0  0  0  0  0  0  0  0  0  0  0
  -23.5330  -32.1460   23.7530 O   0  0  0  0  0  0  0  0  0  0  0  0
  -22.7410  -29.4660   22.5020 C   0  0  0  0  0  0  0  0  0  0  0  0
  -21.4150  -29.3030   22.3760 N   0  0  0  0  0  0  0  0  0  0  0  0
  -23.4190  -28.8190   23.3050 O   0  0  0  0  0  0  0  0  0  0  0  0
  -20.9320  -29.8740   21.6960 H   0  0  0  0  0  0  0  0  0  0  0  0
  -18.0270  -28.1380   22.8510 C   0  0  0  0  0  0  0  0  0  0  0  0
  -20.5860  -28.3660   23.1340 C   0  0  0  0  0  3  0  0  0  0  0  0
  -20.6770  -26.9390   22.5440 C   0  0  0  0  0  2  0  0  0  0  0  0
  -19.5740  -26.6390   21.5230 C   0  0  0  0  0  2  0  0  0  0  0  0
  -18.1910  -26.7930   22.1640 C   0  0  0  0  0  2  0  0  0  0  0  0
  -19.1520  -28.8840   23.2920 C   0  0  0  0  0  0  0  0  0  0  0  0
  -18.9440  -30.1450   23.8920 C   0  0  0  0  0  3  0  0  0  0  0  0
  -17.6440  -30.6580   24.0570 C   0  0  0  0  0  3  0  0  0  0  0  0
  -16.5340  -29.9090   23.6330 C   0  0  0  0  0  3  0  0  0  0  0  0
  -16.7270  -28.6510   23.0350 C   0  0  0  0  0  3  0  0  0  0  0  0
  -25.9020  -32.4850   23.8410 C   0  0  0  0  0  3  0  0  0  0  0  0
  -25.5880  -33.8640   24.2340 N   0  0  0  0  0  0  0  0  0  0  0  0
  -25.9030  -34.9490   23.5130 C   0  0  0  0  0  0  0  0  0  0  0  0
  -26.5600  -34.8930   22.4700 O   0  0  0  0  0  0  0  0  0  0  0  0
  -25.0040  -33.9820   25.0490 H   0  0  0  0  0  0  0  0  0  0  0  0
  -24.1500  -36.7310   23.2640 C   0  0  0  0  0  1  0  0  0  0  0  0
  -25.4120  -36.3120   24.0350 C   0  0  0  0  0  3  0  0  0  0  0  0
  -27.5590  -37.1810   24.8460 C   0  0  0  0  0  1  0  0  0  0  0  0
  -26.4300  -37.3810   23.9420 N   0  0  0  0  0  0  0  0  0  0  0  0
  -26.0190  -38.2880   24.1430 H   0  0  0  0  0  0  0  0  0  0  0  0
  -26.4450  -31.6620   25.0730 C   0  0  1  0  0  0  0  0  0  0  0  0
  -25.3720  -31.3710   26.1490 C   0  0  0  0  0  1  0  0  0  0  0  0
  -27.0260  -30.3070   24.6090 C   0  0  0  0  0  1  0  0  0  0  0  0
  -27.6050  -32.4330   25.7470 C   0  0  0  0  0  1  0  0  0  0  0  0
  2  6  1  0
  3  1  1  0
  4  8  1  0
  4  2  1  0
  5 60  1  0
  5  7  1  0
  6 10  1  0
  6  1  1  0
  7  3  1  0
  8  5  1  0
  6  9  1  6
 11 10  1  0
 12 11  1  0
 13 12  1  0
 14 15  1  0
 14 13  1  0
 16 17  1  0
 16 15  1  0
 17 18  1  0
 18 19  1  0
 19 20  1  0
 20 21  1  0
 21 30  1  0
 22 30  1  0
 23 28  1  0
 24 25  1  0
 24 23  1  0
 26 25  1  0
 26 35  1  0
 26 27  1  0
 28 22  1  0
 28 27  1  0
 29 22  2  0
 30 31  1  0
 32 33  2  0
 33 52  1  0
 34 33  1  0
 34 37  1  0
 35 32  1  0
 35 36  1  0
 36 34  2  0
 37 38  1  0
 38 39  2  0
 40 43  1  0
 40 39  1  0
 41 40  2  0
 42 41  1  0
 42 37  2  0
 43 44  1  0
 44 45  1  0
 45 46  2  0
 47 46  1  0
 47 51  1  0
 48 47  2  0
 49 44  2  0
 49 48  1  0
 50 49  1  0
 52 53  1  0
 53 56  1  0
 53 55  1  0
 54 52  2  0
 57 58  1  0
 57 32  1  0
 59 57  1  0
 61 63  1  0
 61 60  1  0
 62 73  2  0
 63 68  1  0
 64 72  1  0
 64 74  1  0
 65 71  1  0
 65 67  1  0
 66 72  1  0
 67 66  1  0
 68 67  2  0
 69 70  1  0
 69 63  2  0
 70 65  2  0
 71 64  1  0
 72 62  1  0
 74 76  2  0
 75 74  1  0
 77 75  1  0
 78 87  2  0
 78 83  1  0
 79 75  1  0
 79 83  1  0
 80 79  1  0
 81 82  1  0
 81 80  1  0
 82 78  1  0
 83 84  2  0
 84 85  1  0
 86 85  2  0
 87 86  1  0
 88 62  1  0
 88 89  1  0
 88 98  1  0
 89 92  1  0
 90 94  1  0
 90 89  1  0
 91 90  2  0
 94 93  1  0
 96 94  1  0
 96 97  1  0
 96 95  1  0
 98101  1  1
 98 99  1  0
100 98  1  0
M  ISO  4  22 100  30 100  60 101  61 101
M  END
>  <TORSDO>  (35) 
F 29

>  <SCORE>  (35) 
-11.395

>  <name>  (35) 
37

>  <ligand_id>  (35) 
37

>  <original_smiles>  (35) 
[H]c1c([H])c([H])c2c(c1[H])C([H])([H])C([H])([H])C([H])([H])C2([H])N([H])C(=O)C1([H])N(C(=O)C([H])(N([H])C(=O)C([H])(N([H])C([H])([H])[H])C([H])([H])[H])C(C([H])([H])[H])(C([H])([H])[H])C([H])([H])[H])C([H])([H])c2c([H])c(OC([H])([H])C3([H])OC([H])([H])C([H])([H])[N+]([H])(C([H])([H])C([H])([H])OC([H])([H])C([H])([H])OC([H])([H])C([H])([H])OC([H])([H])C([H])([H])C([H])([H])N([H])C(=O)N4C([H])([H])C([H])([H])C([H])([H])C([H])(n5nc(-c6c([H])c([H])c(Oc7c([H])c([H])c(F)c([H])c7F)c([H])c6[H])c(C(=O)N([H])[H])c5N([H])[H])C4([H])[H])C([H])([H])C([H])([H])O3)c([H])c([H])c2C1([H])[H]

>  <smiles>  (35) 
[H]c1c([H])c([H])c2c(c1[H])C([H])([H])C([H])([H])C([H])([H])C2([H])N([H])C(=O)C1([H])N(C(=O)C([H])(N([H])C(=O)C([H])(N([H])C([H])([H])[H])C([H])([H])[H])C(C([H])([H])[H])(C([H])([H])[H])C([H])([H])[H])C([H])([H])c2c([H])c(OC([H])([H])C3([H])OC([H])([H])C([H])([H])[N+]([H])(C([H])([H])C([H])([H])OC([H])([H])C([H])([H])OC([H])([H])C([H])([H])OC([H])([H])C([H])([H])C([H])([H])N([H])C(=O)N4C([H])([H])C([H])([H])C([H])([H])C([H])(n5nc(-c6c([H])c([H])c(Oc7c([H])c([H])c(F)c([H])c7F)c([H])c6[H])c(C(=O)N([H])[H])c5N([H])[H])C4([H])[H])C([H])([H])C([H])([H])O3)c([H])c([H])c2C1([H])[H]

$$$$
38:0:0
     RDKit          3D

123130  0  0  1  0  0  0  0  0999 V2000
  -21.8740  -21.0660   22.8900 C   0  0  0  0  0  2  0  0  0  0  0  0
  -22.8430  -20.2340   22.2520 O   0  0  0  0  0  0  0  0  0  0  0  0
  -22.3540  -19.2200   21.3730 C   0  0  0  0  0  2  0  0  0  0  0  0
  -21.7040  -18.0360   22.1120 C   0  0  0  0  0  2  0  0  0  0  0  0
  -20.3510  -18.3470   22.4270 O   0  0  0  0  0  0  0  0  0  0  0  0
  -19.6580  -17.3450   23.1690 C   0  0  0  0  0  2  0  0  0  0  0  0
  -20.1390  -17.2640   24.6310 C   0  0  0  0  0  2  0  0  0  0  0  0
  -19.9710  -18.5490   25.2180 O   0  0  0  0  0  0  0  0  0  0  0  0
  -20.4950  -18.6920   26.5350 C   0  0  0  0  0  2  0  0  0  0  0  0
  -22.0340  -18.7910   26.5210 C   0  0  0  0  0  2  0  0  0  0  0  0
  -22.5440  -19.6600   27.6110 N   0  0  0  0  0  4  0  0  0  0  0  0
  -22.1070  -20.5620   27.5020 H   0  0  0  0  0  0  0  0  0  0  0  0
  -22.2660  -19.3150   28.5170 H   0  0  0  0  0  0  0  0  0  0  0  0
  -24.0090  -19.8850   27.5910 C   0  0  0  0  0  2  0  0  0  0  0  0
  -24.7940  -18.7640   28.2970 C   0  0  0  0  0  2  0  0  0  0  0  0
  -26.3080  -18.9720   28.1640 C   0  0  0  0  0  2  0  0  0  0  0  0
  -27.0320  -17.9220   28.8040 O   0  0  0  0  0  0  0  0  0  0  0  0
  -27.8520  -17.1570   27.9260 C   0  0  0  0  0  2  0  0  0  0  0  0
  -27.0540  -15.9800   27.3390 C   0  0  0  0  0  2  0  0  0  0  0  0
  -27.7880  -15.2830   26.1910 C   0  0  0  0  0  2  0  0  0  0  0  0
  -27.9650  -16.2260   25.1380 O   0  0  0  0  0  0  0  0  0  0  0  0
  -28.3630  -15.6340   23.9120 C   0  0  0  0  0  2  0  0  0  0  0  0
  -28.8610  -16.7290   22.9490 C   0  0  0  0  0  2  0  0  0  0  0  0
  -29.3390  -16.1880   21.5840 C   0  0  0  0  0  2  0  0  0  0  0  0
  -30.7570  -14.3930   20.7000 C   0  0  0  0  0  0  0  0  0  0  0  0
  -30.4170  -12.3100   19.4170 C   0  0  0  0  0  2  0  0  0  0  0  0
  -29.4890  -12.5470   18.2120 C   0  0  0  0  0  2  0  0  0  0  0  0
  -28.0180  -12.3700   18.6190 C   0  0  0  0  0  2  0  0  0  0  0  0
  -27.6640  -13.1930   19.8850 C   0  0  0  0  0  3  0  0  0  0  0  0
  -28.6980  -12.9510   21.0090 C   0  0  0  0  0  2  0  0  0  0  0  0
  -30.0390  -13.2600   20.4750 N   0  0  0  0  0  0  0  0  0  0  0  0
  -31.7970  -14.6680   20.0970 O   0  0  0  0  0  0  0  0  0  0  0  0
  -30.3660  -15.1510   21.7320 N   0  0  0  0  0  0  0  0  0  0  0  0
  -31.1630  -15.5190   22.2330 H   0  0  0  0  0  0  0  0  0  0  0  0
  -25.2600  -13.8130   20.5590 C   0  0  0  0  0  0  0  0  0  0  0  0
  -24.1830  -13.0410   20.9100 C   0  0  0  0  0  0  0  0  0  0  0  0
  -24.6330  -11.6880   20.8690 C   0  0  0  0  0  0  0  0  0  0  0  0
  -26.3020  -12.9240   20.3380 N   0  0  0  0  0  0  0  0  0  0  0  0
  -25.9270  -11.6420   20.5780 N   0  0  0  0  0  0  0  0  0  0  0  0
  -23.8980  -10.4280   21.0410 C   0  0  0  0  0  0  0  0  0  0  0  0
  -24.3550   -9.4200   21.9180 C   0  0  0  0  0  3  0  0  0  0  0  0
  -23.6250   -8.2230   22.0750 C   0  0  0  0  0  3  0  0  0  0  0  0
  -22.4250   -8.0250   21.3540 C   0  0  0  0  0  0  0  0  0  0  0  0
  -21.9850   -9.0220   20.4680 C   0  0  0  0  0  3  0  0  0  0  0  0
  -22.7150  -10.2110   20.3100 C   0  0  0  0  0  3  0  0  0  0  0  0
  -21.6650   -6.8850   21.4210 O   0  0  0  0  0  0  0  0  0  0  0  0
  -21.6860   -6.0690   22.5240 C   0  0  0  0  0  0  0  0  0  0  0  0
  -21.4010   -6.5590   23.8160 C   0  0  0  0  0  3  0  0  0  0  0  0
  -21.3680   -5.6750   24.9140 C   0  0  0  0  0  3  0  0  0  0  0  0
  -21.6060   -4.3010   24.7180 C   0  0  0  0  0  0  0  0  0  0  0  0
  -21.8840   -3.8090   23.4300 C   0  0  0  0  0  3  0  0  0  0  0  0
  -21.9190   -4.6920   22.3360 C   0  0  0  0  0  0  0  0  0  0  0  0
  -22.1690   -4.2090   21.0960 F   0  0  0  0  0  0  0  0  0  0  0  0
  -21.5610   -3.4510   25.7710 F   0  0  0  0  0  0  0  0  0  0  0  0
  -22.7890  -13.5330   21.1780 C   0  0  0  0  0  0  0  0  0  0  0  0
  -22.0510  -12.8360   22.0330 N   0  0  0  0  0  0  0  0  0  0  0  0
  -22.3670  -14.5690   20.6670 O   0  0  0  0  0  0  0  0  0  0  0  0
  -22.4150  -11.9940   22.4480 H   0  0  0  0  0  0  0  0  0  0  0  0
  -21.1170  -13.1430   22.2620 H   0  0  0  0  0  0  0  0  0  0  0  0
  -25.4240  -15.1840   20.4010 N   0  0  0  0  0  0  0  0  0  0  0  0
  -24.6330  -15.8110   20.4890 H   0  0  0  0  0  0  0  0  0  0  0  0
  -26.2780  -15.6480   20.1140 H   0  0  0  0  0  0  0  0  0  0  0  0
  -21.2050  -22.0730   21.9360 C   0  0  0  0  0  2  0  0  0  0  0  0
  -20.1320  -21.4540   21.2370 O   0  0  0  0  0  0  0  0  0  0  0  0
  -19.5300  -22.2720   20.2410 C   0  0  0  0  0  2  0  0  0  0  0  0
  -20.3450  -22.2410   18.9340 C   0  0  0  0  0  2  0  0  0  0  0  0
  -20.8230  -23.6160   18.4420 C   0  0  0  0  0  0  0  0  0  0  0  0
  -20.0110  -24.5410   18.3640 O   0  0  0  0  0  0  0  0  0  0  0  0
  -22.2110  -23.7830   17.9870 C   0  0  0  0  0  3  0  0  0  0  0  0
  -23.2330  -23.0430   18.4730 C   0  0  0  0  0  3  0  0  0  0  0  0
  -24.5930  -23.1050   17.9670 C   0  0  0  0  0  0  0  0  0  0  0  0
  -24.7010  -23.7130   16.7780 N   0  0  0  0  0  0  0  0  0  0  0  0
  -25.5580  -22.5890   18.5300 O   0  0  0  0  0  0  0  0  0  0  0  0
  -23.8790  -24.1640   16.4080 H   0  0  0  0  0  0  0  0  0  0  0  0
  -25.3880  -23.9850   14.4910 C   0  0  0  0  0  1  0  0  0  0  0  0
  -25.8880  -23.7660   15.9360 C   0  0  0  0  0  3  0  0  0  0  0  0
  -26.7400  -24.9610   16.4000 C   0  0  0  0  0  0  0  0  0  0  0  0
  -27.7870  -24.6850   17.1870 N   0  0  0  0  0  0  0  0  0  0  0  0
  -26.4240  -26.1110   16.0960 O   0  0  0  0  0  0  0  0  0  0  0  0
  -27.9500  -23.7120   17.4070 H   0  0  0  0  0  0  0  0  0  0  0  0
  -28.6200  -25.6750   17.8690 C   0  0  0  0  0  2  0  0  0  0  0  0
  -28.5320  -25.5120   19.4040 C   0  0  0  0  0  2  0  0  0  0  0  0
  -28.4370  -26.7750   20.0630 O   0  0  0  0  0  0  0  0  0  0  0  0
  -24.6170  -31.8660   23.2150 C   0  0  0  0  0  0  0  0  0  0  0  0
  -27.2320  -27.4480   20.0770 C   0  0  0  0  0  0  0  0  0  0  0  0
  -23.4000  -30.4950   21.5550 C   0  0  0  0  0  3  0  0  0  0  0  0
  -24.8410  -28.9630   20.1190 C   0  0  0  0  0  0  0  0  0  0  0  0
  -25.9320  -30.8280   21.3770 C   0  0  0  0  0  2  0  0  0  0  0  0
  -26.0020  -29.4710   20.7130 C   0  0  0  0  0  0  0  0  0  0  0  0
  -27.1930  -28.7180   20.6960 C   0  0  0  0  0  3  0  0  0  0  0  0
  -26.0430  -26.9430   19.4990 C   0  0  0  0  0  3  0  0  0  0  0  0
  -24.8540  -27.6930   19.5220 C   0  0  0  0  0  3  0  0  0  0  0  0
  -23.6070  -29.8310   20.1680 C   0  0  0  0  0  2  0  0  0  0  0  0
  -24.6670  -31.0780   22.1040 N   0  0  0  0  0  0  0  0  0  0  0  0
  -23.5390  -32.1390   23.7570 O   0  0  0  0  0  0  0  0  0  0  0  0
  -22.7420  -29.4650   22.5030 C   0  0  0  0  0  0  0  0  0  0  0  0
  -21.4150  -29.3000   22.3750 N   0  0  0  0  0  0  0  0  0  0  0  0
  -23.4190  -28.8150   23.3050 O   0  0  0  0  0  0  0  0  0  0  0  0
  -20.9280  -29.8710   21.6980 H   0  0  0  0  0  0  0  0  0  0  0  0
  -18.0260  -28.1360   22.8520 C   0  0  0  0  0  0  0  0  0  0  0  0
  -20.5870  -28.3610   23.1280 C   0  0  0  0  0  3  0  0  0  0  0  0
  -20.6790  -26.9390   22.5270 C   0  0  0  0  0  2  0  0  0  0  0  0
  -19.5720  -26.6440   21.5120 C   0  0  0  0  0  2  0  0  0  0  0  0
  -18.1910  -26.7930   22.1610 C   0  0  0  0  0  2  0  0  0  0  0  0
  -19.1520  -28.8810   23.2900 C   0  0  0  0  0  0  0  0  0  0  0  0
  -18.9470  -30.1430   23.8900 C   0  0  0  0  0  3  0  0  0  0  0  0
  -17.6470  -30.6580   24.0560 C   0  0  0  0  0  3  0  0  0  0  0  0
  -16.5350  -29.9070   23.6370 C   0  0  0  0  0  3  0  0  0  0  0  0
  -16.7250  -28.6480   23.0400 C   0  0  0  0  0  3  0  0  0  0  0  0
  -25.9110  -32.4800   23.8390 C   0  0  0  0  0  3  0  0  0  0  0  0
  -26.4530  -31.6630   25.0740 C   0  0  1  0  0  0  0  0  0  0  0  0
  -25.3830  -31.3780   26.1520 C   0  0  0  0  0  1  0  0  0  0  0  0
  -27.0370  -30.3050   24.6190 C   0  0  0  0  0  1  0  0  0  0  0  0
  -27.6070  -32.4400   25.7530 C   0  0  0  0  0  1  0  0  0  0  0  0
  -25.5990  -33.8580   24.2320 N   0  0  0  0  0  0  0  0  0  0  0  0
  -25.9060  -34.9430   23.5080 C   0  0  0  0  0  0  0  0  0  0  0  0
  -26.5540  -34.8870   22.4590 O   0  0  0  0  0  0  0  0  0  0  0  0
  -25.0380  -33.9720   25.0620 H   0  0  0  0  0  0  0  0  0  0  0  0
  -24.1520  -36.7280   23.2620 C   0  0  0  0  0  1  0  0  0  0  0  0
  -25.4140  -36.3070   24.0330 C   0  0  0  0  0  3  0  0  0  0  0  0
  -27.5600  -37.1790   24.8440 C   0  0  0  0  0  1  0  0  0  0  0  0
  -26.4300  -37.3770   23.9410 N   0  0  0  0  0  0  0  0  0  0  0  0
  -26.0170  -38.2840   24.1450 H   0  0  0  0  0  0  0  0  0  0  0  0
  2  1  1  0
  3  4  1  0
  3  2  1  0
  4  5  1  0
  5  6  1  0
  6  7  1  0
  7  8  1  0
  8  9  1  0
 10  9  1  0
 10 11  1  0
 11 13  1  0
 12 11  1  0
 14 11  1  0
 14 15  1  0
 16 15  1  0
 16 17  1  0
 18 17  1  0
 19 18  1  0
 20 19  1  0
 21 20  1  0
 22 21  1  0
 23 22  1  0
 24 33  1  0
 24 23  1  0
 25 33  1  0
 26 31  1  0
 27 28  1  0
 27 26  1  0
 29 28  1  0
 29 38  1  0
 29 30  1  0
 31 25  1  0
 31 30  1  0
 32 25  2  0
 33 34  1  0
 35 36  2  0
 36 55  1  0
 37 36  1  0
 37 40  1  0
 38 35  1  0
 38 39  1  0
 39 37  2  0
 40 41  1  0
 41 42  2  0
 43 46  1  0
 43 42  1  0
 44 43  2  0
 45 44  1  0
 45 40  2  0
 46 47  1  0
 47 48  1  0
 48 49  2  0
 50 49  1  0
 50 54  1  0
 51 50  2  0
 52 47  2  0
 52 51  1  0
 53 52  1  0
 55 56  1  0
 56 59  1  0
 56 58  1  0
 57 55  2  0
 60 61  1  0
 60 35  1  0
 62 60  1  0
 63  1  1  0
 64 63  1  0
 65 64  1  0
 66 65  1  0
 67 66  1  0
 68 67  2  0
 69 67  1  0
 69 70  2  0
 71 70  1  0
 71 73  2  0
 72 71  1  0
 74 72  1  0
 76 75  1  0
 76 77  1  0
 76 72  1  0
 77 78  1  0
 78 80  1  0
 78 81  1  0
 79 77  2  0
 81 82  1  0
 82 83  1  0
 83 85  1  0
 84 95  2  0
 85 90  1  0
 86 94  1  0
 86 96  1  0
 87 93  1  0
 87 89  1  0
 88 94  1  0
 89 88  1  0
 90 89  2  0
 91 92  1  0
 91 85  2  0
 92 87  2  0
 93 86  1  0
 94 84  1  0
 96 98  2  0
 97 96  1  0
 99 97  1  0
100109  2  0
100105  1  0
101 97  1  0
101105  1  0
102101  1  0
103104  1  0
103102  1  0
104100  1  0
105106  2  0
106107  1  0
108107  2  0
109108  1  0
110 84  1  0
110115  1  0
110111  1  0
111114  1  1
111112  1  0
113111  1  0
115118  1  0
116120  1  0
116115  1  0
117116  2  0
120119  1  0
122120  1  0
122123  1  0
122121  1  0
M  ISO  4  25 100  33 100  82 101  83 101
M  END
>  <TORSDO>  (36) 
F 48

>  <SCORE>  (36) 
83.488

>  <name>  (36) 
38

>  <ligand_id>  (36) 
38

>  <original_smiles>  (36) 
[H]C(C(=O)N([H])C([H])(C(=O)N([H])C([H])([H])C([H])([H])Oc1c([H])c([H])c2c(c1[H])C([H])([H])N(C(=O)C([H])(N([H])C(=O)C([H])(N([H])C([H])([H])[H])C([H])([H])[H])C(C([H])([H])[H])(C([H])([H])[H])C([H])([H])[H])C([H])(C(=O)N([H])C1([H])c3c([H])c([H])c([H])c([H])c3C([H])([H])C([H])([H])C1([H])[H])C2([H])[H])C([H])([H])[H])=C([H])C(=O)C([H])([H])C([H])([H])OC([H])([H])C([H])([H])OC([H])([H])C([H])([H])OC([H])([H])C([H])([H])OC([H])([H])C([H])([H])[N+]([H])([H])C([H])([H])C([H])([H])C([H])([H])OC([H])([H])C([H])([H])C([H])([H])OC([H])([H])C([H])([H])C([H])([H])N([H])C(=O)N1C([H])([H])C([H])([H])C([H])([H])C([H])(n2nc(-c3c([H])c([H])c(Oc4c([H])c([H])c(F)c([H])c4F)c([H])c3[H])c(C(=O)N([H])[H])c2N([H])[H])C1([H])[H]

>  <smiles>  (36) 
[H]C(C(=O)N([H])C([H])(C(=O)N([H])C([H])([H])C([H])([H])Oc1c([H])c([H])c2c(c1[H])C([H])([H])N(C(=O)C([H])(N([H])C(=O)C([H])(N([H])C([H])([H])[H])C([H])([H])[H])C(C([H])([H])[H])(C([H])([H])[H])C([H])([H])[H])C([H])(C(=O)N([H])C1([H])c3c([H])c([H])c([H])c([H])c3C([H])([H])C([H])([H])C1([H])[H])C2([H])[H])C([H])([H])[H])=C([H])C(=O)C([H])([H])C([H])([H])OC([H])([H])C([H])([H])OC([H])([H])C([H])([H])OC([H])([H])C([H])([H])OC([H])([H])C([H])([H])[N+]([H])([H])C([H])([H])C([H])([H])C([H])([H])OC([H])([H])C([H])([H])C([H])([H])OC([H])([H])C([H])([H])C([H])([H])N([H])C(=O)N1C([H])([H])C([H])([H])C([H])([H])C([H])(n2nc(-c3c([H])c([H])c(Oc4c([H])c([H])c(F)c([H])c4F)c([H])c3[H])c(C(=O)N([H])[H])c2N([H])[H])C1([H])[H]

$$$$
39:0:0
     RDKit          3D

104111  0  0  1  0  0  0  0  0999 V2000
  -25.4000  -19.3610   17.5800 C   0  0  0  0  0  2  0  0  0  0  0  0
  -27.5770  -19.2900   18.8090 C   0  0  0  0  0  0  0  0  0  0  0  0
  -26.7920  -19.7440   17.8180 N   0  0  0  0  0  0  0  0  0  0  0  0
  -27.2040  -18.3760   19.5480 O   0  0  0  0  0  0  0  0  0  0  0  0
  -27.1830  -20.4390   17.1980 H   0  0  0  0  0  0  0  0  0  0  0  0
  -28.9790  -19.9420   18.9470 C   0  0  0  0  0  3  0  0  0  0  0  0
  -28.9070  -21.1110   19.9600 C   0  0  0  0  0  0  0  0  0  0  0  0
  -29.6010  -22.2110   19.6740 N   0  0  0  0  0  0  0  0  0  0  0  0
  -28.2810  -21.0330   21.0170 O   0  0  0  0  0  0  0  0  0  0  0  0
  -30.1760  -22.2720   18.8440 H   0  0  0  0  0  0  0  0  0  0  0  0
  -29.5520  -23.0040   20.3030 H   0  0  0  0  0  0  0  0  0  0  0  0
  -30.1390  -18.9720   19.2830 C   0  0  0  0  0  2  0  0  0  0  0  0
  -30.0090  -18.1320   20.5690 C   0  0  0  0  0  2  0  0  0  0  0  0
  -31.3710  -17.6530   21.0850 C   0  0  0  0  0  2  0  0  0  0  0  0
  -31.2630  -16.5130   22.1160 C   0  0  0  0  0  2  0  0  0  0  0  0
  -30.9670  -14.5780   20.5600 C   0  0  0  0  0  0  0  0  0  0  0  0
  -30.5770  -12.4940   19.3090 C   0  0  0  0  0  2  0  0  0  0  0  0
  -29.6540  -12.6980   18.0950 C   0  0  0  0  0  2  0  0  0  0  0  0
  -28.1760  -12.5770   18.5100 C   0  0  0  0  0  2  0  0  0  0  0  0
  -27.8340  -13.4460   19.7470 C   0  0  0  0  0  3  0  0  0  0  0  0
  -28.8610  -13.2230   20.8780 C   0  0  0  0  0  2  0  0  0  0  0  0
  -30.2140  -13.4720   20.3430 N   0  0  0  0  0  0  0  0  0  0  0  0
  -31.9790  -14.8470   19.9060 O   0  0  0  0  0  0  0  0  0  0  0  0
  -30.5800  -15.3300   21.5980 N   0  0  0  0  0  0  0  0  0  0  0  0
  -29.7520  -15.0250   22.0880 H   0  0  0  0  0  0  0  0  0  0  0  0
  -25.4360  -14.0960   20.4300 C   0  0  0  0  0  0  0  0  0  0  0  0
  -24.3480  -13.3420   20.7800 C   0  0  0  0  0  0  0  0  0  0  0  0
  -24.7820  -11.9820   20.7430 C   0  0  0  0  0  0  0  0  0  0  0  0
  -26.4670  -13.1960   20.2050 N   0  0  0  0  0  0  0  0  0  0  0  0
  -26.0740  -11.9180   20.4470 N   0  0  0  0  0  0  0  0  0  0  0  0
  -24.0280  -10.7330   20.9150 C   0  0  0  0  0  0  0  0  0  0  0  0
  -24.4320   -9.7510   21.8470 C   0  0  0  0  0  3  0  0  0  0  0  0
  -23.6810   -8.5660   22.0080 C   0  0  0  0  0  3  0  0  0  0  0  0
  -22.5130   -8.3560   21.2380 C   0  0  0  0  0  0  0  0  0  0  0  0
  -22.1290   -9.3270   20.2960 C   0  0  0  0  0  3  0  0  0  0  0  0
  -22.8800  -10.5020   20.1330 C   0  0  0  0  0  3  0  0  0  0  0  0
  -21.7360   -7.2250   21.3070 O   0  0  0  0  0  0  0  0  0  0  0  0
  -21.6520   -6.4780   22.4550 C   0  0  0  0  0  0  0  0  0  0  0  0
  -21.2180   -7.0360   23.6770 C   0  0  0  0  0  3  0  0  0  0  0  0
  -21.0810   -6.2180   24.8160 C   0  0  0  0  0  3  0  0  0  0  0  0
  -21.3650   -4.8420   24.7320 C   0  0  0  0  0  0  0  0  0  0  0  0
  -21.7930   -4.2830   23.5160 C   0  0  0  0  0  3  0  0  0  0  0  0
  -21.9320   -5.0990   22.3790 C   0  0  0  0  0  0  0  0  0  0  0  0
  -22.3210   -4.5510   21.2040 F   0  0  0  0  0  0  0  0  0  0  0  0
  -21.2260   -4.0540   25.8240 F   0  0  0  0  0  0  0  0  0  0  0  0
  -22.9580  -13.8450   21.0440 C   0  0  0  0  0  0  0  0  0  0  0  0
  -22.2150  -13.1660   21.9120 N   0  0  0  0  0  0  0  0  0  0  0  0
  -22.5380  -14.8740   20.5170 O   0  0  0  0  0  0  0  0  0  0  0  0
  -22.5670  -12.3340   22.3630 H   0  0  0  0  0  0  0  0  0  0  0  0
  -21.2820  -13.4840   22.1290 H   0  0  0  0  0  0  0  0  0  0  0  0
  -25.6280  -15.4650   20.2690 N   0  0  0  0  0  0  0  0  0  0  0  0
  -24.8770  -16.1340   20.4000 H   0  0  0  0  0  0  0  0  0  0  0  0
  -26.4930  -15.9100   19.9800 H   0  0  0  0  0  0  0  0  0  0  0  0
  -24.4060  -20.0890   18.5100 C   0  0  0  0  0  2  0  0  0  0  0  0
  -24.6640  -21.5970   18.6570 C   0  0  0  0  0  2  0  0  0  0  0  0
  -23.5800  -22.1910   19.3530 O   0  0  0  0  0  0  0  0  0  0  0  0
  -23.8090  -23.5500   19.7240 C   0  0  0  0  0  2  0  0  0  0  0  0
  -24.5530  -23.6780   21.0640 C   0  0  0  0  0  2  0  0  0  0  0  0
  -25.9550  -23.6070   20.8450 O   0  0  0  0  0  0  0  0  0  0  0  0
  -26.7080  -23.7500   22.0110 C   0  0  0  0  0  2  0  0  0  0  0  0
  -27.9540  -24.3220   21.7460 O   0  0  0  0  0  0  0  0  0  0  0  0
  -27.8320  -25.5050   20.9680 C   0  0  0  0  0  2  0  0  0  0  0  0
  -29.0590  -26.4290   21.0690 C   0  0  0  0  0  2  0  0  0  0  0  0
  -28.9860  -27.5310   20.1540 O   0  0  0  0  0  0  0  0  0  0  0  0
  -24.9330  -32.0660   23.8380 C   0  0  0  0  0  0  0  0  0  0  0  0
  -27.8160  -28.2480   20.2170 C   0  0  0  0  0  0  0  0  0  0  0  0
  -23.8240  -30.8910   21.9560 C   0  0  0  0  0  3  0  0  0  0  0  0
  -25.3730  -29.6370   20.3730 C   0  0  0  0  0  0  0  0  0  0  0  0
  -26.3360  -31.3550   21.9160 C   0  0  0  0  0  2  0  0  0  0  0  0
  -26.4890  -30.1030   21.0840 C   0  0  0  0  0  0  0  0  0  0  0  0
  -27.7170  -29.4110   21.0080 C   0  0  0  0  0  3  0  0  0  0  0  0
  -26.6970  -27.8130   19.4750 C   0  0  0  0  0  3  0  0  0  0  0  0
  -25.4690  -28.4910   19.5680 C   0  0  0  0  0  3  0  0  0  0  0  0
  -24.1010  -30.4380   20.4990 C   0  0  0  0  0  2  0  0  0  0  0  0
  -25.0450  -31.4410   22.6320 N   0  0  0  0  0  0  0  0  0  0  0  0
  -23.8270  -32.2280   24.3700 O   0  0  0  0  0  0  0  0  0  0  0  0
  -23.1770  -29.7200   22.7300 C   0  0  0  0  0  0  0  0  0  0  0  0
  -21.8660  -29.5210   22.5240 N   0  0  0  0  0  0  0  0  0  0  0  0
  -23.8550  -29.0030   23.4690 O   0  0  0  0  0  0  0  0  0  0  0  0
  -21.3820  -30.1670   21.9160 H   0  0  0  0  0  0  0  0  0  0  0  0
  -18.5260  -28.1520   22.6720 C   0  0  0  0  0  0  0  0  0  0  0  0
  -21.0550  -28.4560   23.1140 C   0  0  0  0  0  3  0  0  0  0  0  0
  -21.2440  -27.1250   22.3520 C   0  0  0  0  0  2  0  0  0  0  0  0
  -20.2050  -26.9070   21.2470 C   0  0  0  0  0  2  0  0  0  0  0  0
  -18.7890  -26.9140   21.8280 C   0  0  0  0  0  2  0  0  0  0  0  0
  -19.5910  -28.8850   23.2590 C   0  0  0  0  0  0  0  0  0  0  0  0
  -19.2920  -30.0470   24.0020 C   0  0  0  0  0  3  0  0  0  0  0  0
  -17.9610  -30.4780   24.1610 C   0  0  0  0  0  3  0  0  0  0  0  0
  -16.9100  -29.7390   23.5900 C   0  0  0  0  0  3  0  0  0  0  0  0
  -17.1930  -28.5760   22.8540 C   0  0  0  0  0  3  0  0  0  0  0  0
  -26.1800  -32.6210   24.5920 C   0  0  0  0  0  3  0  0  0  0  0  0
  -26.5110  -31.8400   25.9240 C   0  0  1  0  0  0  0  0  0  0  0  0
  -25.2960  -31.6880   26.8700 C   0  0  0  0  0  1  0  0  0  0  0  0
  -27.0470  -30.4240   25.6080 C   0  0  0  0  0  1  0  0  0  0  0  0
  -27.6370  -32.5740   26.6920 C   0  0  0  0  0  1  0  0  0  0  0  0
  -25.9310  -34.0420   24.8720 N   0  0  0  0  0  0  0  0  0  0  0  0
  -26.4270  -35.0570   24.1480 C   0  0  0  0  0  0  0  0  0  0  0  0
  -27.2160  -34.8950   23.2120 O   0  0  0  0  0  0  0  0  0  0  0  0
  -25.2560  -34.2540   25.5900 H   0  0  0  0  0  0  0  0  0  0  0  0
  -24.8810  -36.9510   23.5590 C   0  0  0  0  0  1  0  0  0  0  0  0
  -25.9740  -36.4790   24.5300 C   0  0  0  0  0  3  0  0  0  0  0  0
  -28.0410  -37.2240   25.6240 C   0  0  0  0  0  1  0  0  0  0  0  0
  -27.0810  -37.4620   24.5490 N   0  0  0  0  0  0  0  0  0  0  0  0
  -26.7180  -38.4080   24.6450 H   0  0  0  0  0  0  0  0  0  0  0  0
  1  3  1  0
  1 54  1  0
  2  6  1  0
  2  4  2  0
  3  2  1  0
  5  3  1  0
  6 12  1  0
  6  7  1  0
  7  9  2  0
  8  7  1  0
  8 11  1  0
 10  8  1  0
 12 13  1  0
 13 14  1  0
 14 15  1  0
 16 24  1  0
 17 22  1  0
 18 19  1  0
 18 17  1  0
 20 19  1  0
 20 29  1  0
 20 21  1  0
 22 16  1  0
 22 21  1  0
 23 16  2  0
 24 25  1  0
 24 15  1  0
 26 27  2  0
 27 46  1  0
 28 27  1  0
 28 31  1  0
 29 26  1  0
 29 30  1  0
 30 28  2  0
 31 32  1  0
 32 33  2  0
 34 37  1  0
 34 33  1  0
 35 34  2  0
 36 35  1  0
 36 31  2  0
 37 38  1  0
 38 39  1  0
 39 40  2  0
 41 40  1  0
 41 45  1  0
 42 41  2  0
 43 38  2  0
 43 42  1  0
 44 43  1  0
 46 47  1  0
 47 50  1  0
 47 49  1  0
 48 46  2  0
 51 52  1  0
 51 26  1  0
 53 51  1  0
 54 55  1  0
 55 56  1  0
 56 57  1  0
 57 58  1  0
 59 58  1  0
 59 60  1  0
 61 60  1  0
 62 63  1  0
 62 61  1  0
 64 66  1  0
 64 63  1  0
 65 76  2  0
 66 71  1  0
 67 75  1  0
 67 77  1  0
 68 74  1  0
 68 70  1  0
 69 75  1  0
 70 69  1  0
 71 70  2  0
 72 73  1  0
 72 66  2  0
 73 68  2  0
 74 67  1  0
 75 65  1  0
 77 79  2  0
 78 77  1  0
 80 78  1  0
 81 90  2  0
 81 86  1  0
 82 78  1  0
 82 86  1  0
 83 82  1  0
 84 85  1  0
 84 83  1  0
 85 81  1  0
 86 87  2  0
 87 88  1  0
 89 88  2  0
 90 89  1  0
 91 65  1  0
 91 96  1  0
 91 92  1  0
 92 95  1  1
 92 93  1  0
 94 92  1  0
 96 99  1  0
 97101  1  0
 97 96  1  0
 98 97  2  0
101100  1  0
101103  1  0
103104  1  0
103102  1  0
M  ISO  4  16 100  24 100  63 101  64 101
M  END
>  <TORSDO>  (37) 
F 33

>  <SCORE>  (37) 
-8.173

>  <name>  (37) 
39

>  <ligand_id>  (37) 
39

>  <original_smiles>  (37) 
[H]c1c([H])c([H])c2c(c1[H])C([H])([H])C([H])([H])C([H])([H])C2([H])N([H])C(=O)C1([H])N(C(=O)C([H])(N([H])C(=O)C([H])(N([H])C([H])([H])[H])C([H])([H])[H])C(C([H])([H])[H])(C([H])([H])[H])C([H])([H])[H])C([H])([H])c2c([H])c(OC([H])([H])C([H])([H])OC([H])([H])OC([H])([H])C([H])([H])OC([H])([H])C([H])([H])C([H])([H])N([H])C(=O)C([H])(C(=O)N([H])[H])C([H])([H])C([H])([H])C([H])([H])C([H])([H])N([H])C(=O)N3C([H])([H])C([H])([H])C([H])([H])C([H])(n4nc(-c5c([H])c([H])c(Oc6c([H])c([H])c(F)c([H])c6F)c([H])c5[H])c(C(=O)N([H])[H])c4N([H])[H])C3([H])[H])c([H])c([H])c2C1([H])[H]

>  <smiles>  (37) 
[H]c1c([H])c([H])c2c(c1[H])C([H])([H])C([H])([H])C([H])([H])C2([H])N([H])C(=O)C1([H])N(C(=O)C([H])(N([H])C(=O)C([H])(N([H])C([H])([H])[H])C([H])([H])[H])C(C([H])([H])[H])(C([H])([H])[H])C([H])([H])[H])C([H])([H])c2c([H])c(OC([H])([H])C([H])([H])OC([H])([H])OC([H])([H])C([H])([H])OC([H])([H])C([H])([H])C([H])([H])N([H])C(=O)C([H])(C(=O)N([H])[H])C([H])([H])C([H])([H])C([H])([H])C([H])([H])N([H])C(=O)N3C([H])([H])C([H])([H])C([H])([H])C([H])(n4nc(-c5c([H])c([H])c(Oc6c([H])c([H])c(F)c([H])c6F)c([H])c5[H])c(C(=O)N([H])[H])c4N([H])[H])C3([H])[H])c([H])c([H])c2C1([H])[H]

$$$$
40:0:0
     RDKit          3D

 95102  0  0  1  0  0  0  0  0999 V2000
  -29.0690  -24.2810   25.6910 C   0  0  0  0  0  1  0  0  0  0  0  0
  -29.0450  -23.3430   24.5720 N   0  0  0  0  0  0  0  0  0  0  0  0
  -30.4330  -23.1470   24.2320 O   0  0  0  0  0  0  0  0  0  0  0  0
  -30.8040  -21.8240   24.6070 C   0  0  0  0  0  2  0  0  0  0  0  0
  -32.0650  -21.4430   23.8160 C   0  0  0  0  0  2  0  0  0  0  0  0
  -31.7780  -20.8920   22.4140 C   0  0  0  0  0  2  0  0  0  0  0  0
  -31.1780  -19.6090   22.5270 O   0  0  0  0  0  0  0  0  0  0  0  0
  -31.0600  -18.9640   21.2710 C   0  0  0  0  0  2  0  0  0  0  0  0
  -30.5190  -17.5450   21.4790 C   0  0  0  0  0  2  0  0  0  0  0  0
  -30.4910  -16.7640   20.1600 C   0  0  0  0  0  2  0  0  0  0  0  0
  -30.7340  -14.3220   19.8310 C   0  0  0  0  0  0  0  0  0  0  0  0
  -30.3830  -12.0640   18.9360 C   0  0  0  0  0  2  0  0  0  0  0  0
  -29.3700  -12.1520   17.7780 C   0  0  0  0  0  2  0  0  0  0  0  0
  -27.9240  -12.0590   18.3050 C   0  0  0  0  0  2  0  0  0  0  0  0
  -27.6530  -13.0040   19.5090 C   0  0  0  0  0  3  0  0  0  0  0  0
  -28.7800  -12.9040   20.5620 C   0  0  0  0  0  2  0  0  0  0  0  0
  -30.0660  -13.1430   19.8830 N   0  0  0  0  0  0  0  0  0  0  0  0
  -31.7960  -14.4760   19.2270 O   0  0  0  0  0  0  0  0  0  0  0  0
  -30.0890  -15.3690   20.3590 N   0  0  0  0  0  0  0  0  0  0  0  0
  -29.2000  -15.1910   20.8020 H   0  0  0  0  0  0  0  0  0  0  0  0
  -25.3450  -13.6530   20.4550 C   0  0  0  0  0  0  0  0  0  0  0  0
  -24.2950  -12.8970   20.9000 C   0  0  0  0  0  0  0  0  0  0  0  0
  -24.7090  -11.5350   20.7790 C   0  0  0  0  0  0  0  0  0  0  0  0
  -26.3380  -12.7530   20.0990 N   0  0  0  0  0  0  0  0  0  0  0  0
  -25.9610  -11.4730   20.3480 N   0  0  0  0  0  0  0  0  0  0  0  0
  -23.9650  -10.2870   20.9940 C   0  0  0  0  0  0  0  0  0  0  0  0
  -24.4330   -9.2910   21.8810 C   0  0  0  0  0  3  0  0  0  0  0  0
  -23.6900   -8.1090   22.0850 C   0  0  0  0  0  3  0  0  0  0  0  0
  -22.4660   -7.9130   21.4030 C   0  0  0  0  0  0  0  0  0  0  0  0
  -22.0170   -8.8960   20.5030 C   0  0  0  0  0  3  0  0  0  0  0  0
  -22.7590  -10.0700   20.2970 C   0  0  0  0  0  3  0  0  0  0  0  0
  -21.6910   -6.7840   21.5190 O   0  0  0  0  0  0  0  0  0  0  0  0
  -21.6530   -6.0520   22.6800 C   0  0  0  0  0  0  0  0  0  0  0  0
  -21.2560   -6.6240   23.9080 C   0  0  0  0  0  3  0  0  0  0  0  0
  -21.1600   -5.8200   25.0610 C   0  0  0  0  0  3  0  0  0  0  0  0
  -21.4550   -4.4460   24.9880 C   0  0  0  0  0  0  0  0  0  0  0  0
  -21.8440   -3.8730   23.7660 C   0  0  0  0  0  3  0  0  0  0  0  0
  -21.9390   -4.6740   22.6130 C   0  0  0  0  0  0  0  0  0  0  0  0
  -22.2960   -4.1110   21.4330 F   0  0  0  0  0  0  0  0  0  0  0  0
  -21.3570   -3.6720   26.0950 F   0  0  0  0  0  0  0  0  0  0  0  0
  -22.9430  -13.4010   21.3220 C   0  0  0  0  0  0  0  0  0  0  0  0
  -22.2900  -12.7100   22.2490 N   0  0  0  0  0  0  0  0  0  0  0  0
  -22.4800  -14.4430   20.8610 O   0  0  0  0  0  0  0  0  0  0  0  0
  -22.6780  -11.8670   22.6440 H   0  0  0  0  0  0  0  0  0  0  0  0
  -21.3850  -13.0290   22.5660 H   0  0  0  0  0  0  0  0  0  0  0  0
  -25.5340  -15.0250   20.3100 N   0  0  0  0  0  0  0  0  0  0  0  0
  -24.8030  -15.6940   20.5240 H   0  0  0  0  0  0  0  0  0  0  0  0
  -26.3640  -15.4590   19.9250 H   0  0  0  0  0  0  0  0  0  0  0  0
  -28.4730  -24.0360   23.4210 C   0  0  0  0  0  2  0  0  0  0  0  0
  -28.1980  -23.1020   22.2270 C   0  0  0  0  0  2  0  0  0  0  0  0
  -28.1300  -23.8870   21.0420 O   0  0  0  0  0  0  0  0  0  0  0  0
  -29.3580  -23.9090   20.3260 C   0  0  0  0  0  2  0  0  0  0  0  0
  -29.3790  -25.0810   19.3400 C   0  0  0  0  0  2  0  0  0  0  0  0
  -29.3600  -26.4470   20.0450 C   0  0  0  0  0  2  0  0  0  0  0  0
  -28.9640  -27.4570   19.1250 O   0  0  0  0  0  0  0  0  0  0  0  0
  -24.5610  -31.3100   23.1510 C   0  0  0  0  0  0  0  0  0  0  0  0
  -27.6930  -27.9320   19.3130 C   0  0  0  0  0  0  0  0  0  0  0  0
  -23.4950  -30.0040   21.3340 C   0  0  0  0  0  3  0  0  0  0  0  0
  -25.0930  -28.9610   19.6430 C   0  0  0  0  0  0  0  0  0  0  0  0
  -25.9110  -30.8080   21.1200 C   0  0  0  0  0  2  0  0  0  0  0  0
  -26.1770  -29.5800   20.2760 C   0  0  0  0  0  0  0  0  0  0  0  0
  -27.4800  -29.0670   20.1190 C   0  0  0  0  0  3  0  0  0  0  0  0
  -26.5980  -27.3100   18.6780 C   0  0  0  0  0  3  0  0  0  0  0  0
  -25.2950  -27.8180   18.8470 C   0  0  0  0  0  3  0  0  0  0  0  0
  -23.7310  -29.5820   19.8570 C   0  0  0  0  0  2  0  0  0  0  0  0
  -24.6750  -30.7150   21.9300 N   0  0  0  0  0  0  0  0  0  0  0  0
  -23.4840  -31.3150   23.7620 O   0  0  0  0  0  0  0  0  0  0  0  0
  -23.0670  -28.7570   22.1380 C   0  0  0  0  0  0  0  0  0  0  0  0
  -21.7920  -28.3600   21.9890 N   0  0  0  0  0  0  0  0  0  0  0  0
  -23.8750  -28.1510   22.8460 O   0  0  0  0  0  0  0  0  0  0  0  0
  -21.1890  -28.9150   21.3960 H   0  0  0  0  0  0  0  0  0  0  0  0
  -18.7200  -26.4810   22.2480 C   0  0  0  0  0  0  0  0  0  0  0  0
  -21.1790  -27.1880   22.6110 C   0  0  0  0  0  3  0  0  0  0  0  0
  -21.5570  -25.8930   21.8540 C   0  0  0  0  0  2  0  0  0  0  0  0
  -20.5340  -25.5030   20.7820 C   0  0  0  0  0  2  0  0  0  0  0  0
  -19.1540  -25.2940   21.4070 C   0  0  0  0  0  2  0  0  0  0  0  0
  -19.6710  -27.3790   22.8010 C   0  0  0  0  0  0  0  0  0  0  0  0
  -19.2130  -28.4900   23.5450 C   0  0  0  0  0  3  0  0  0  0  0  0
  -17.8360  -28.7060   23.7410 C   0  0  0  0  0  3  0  0  0  0  0  0
  -16.9000  -27.8050   23.2070 C   0  0  0  0  0  3  0  0  0  0  0  0
  -17.3430  -26.6940   22.4680 C   0  0  0  0  0  3  0  0  0  0  0  0
  -25.7690  -32.0320   23.8270 C   0  0  0  0  0  3  0  0  0  0  0  0
  -25.3650  -33.4190   24.0890 N   0  0  0  0  0  0  0  0  0  0  0  0
  -25.7040  -34.4660   23.3230 C   0  0  0  0  0  0  0  0  0  0  0  0
  -26.4590  -34.3690   22.3510 O   0  0  0  0  0  0  0  0  0  0  0  0
  -24.7080  -33.5660   24.8410 H   0  0  0  0  0  0  0  0  0  0  0  0
  -23.9230  -36.1510   22.7710 C   0  0  0  0  0  1  0  0  0  0  0  0
  -25.1120  -35.8380   23.6950 C   0  0  0  0  0  3  0  0  0  0  0  0
  -27.1320  -36.8480   24.6580 C   0  0  0  0  0  1  0  0  0  0  0  0
  -26.0960  -36.9410   23.6320 N   0  0  0  0  0  0  0  0  0  0  0  0
  -25.6340  -37.8410   23.7290 H   0  0  0  0  0  0  0  0  0  0  0  0
  -26.2530  -31.3290   25.1550 C   0  0  1  0  0  0  0  0  0  0  0  0
  -25.1110  -31.0320   26.1540 C   0  0  0  0  0  1  0  0  0  0  0  0
  -26.9580  -29.9880   24.8380 C   0  0  0  0  0  1  0  0  0  0  0  0
  -27.2930  -32.2190   25.8740 C   0  0  0  0  0  1  0  0  0  0  0  0
  2  1  1  0
  3  2  1  0
  3  4  1  0
  5  4  1  0
  6  7  1  0
  6  5  1  0
  8  9  1  0
  8  7  1  0
 10 19  1  0
 10  9  1  0
 11 17  1  0
 11 19  1  0
 12 17  1  0
 13 14  1  0
 13 12  1  0
 15 14  1  0
 15 24  1  0
 15 16  1  0
 17 16  1  0
 18 11  2  0
 19 20  1  0
 21 22  2  0
 22 41  1  0
 23 22  1  0
 23 26  1  0
 24 25  1  0
 24 21  1  0
 25 23  2  0
 26 27  1  0
 27 28  2  0
 29 32  1  0
 29 28  1  0
 30 29  2  0
 31 30  1  0
 31 26  2  0
 32 33  1  0
 33 34  1  0
 34 35  2  0
 36 35  1  0
 36 40  1  0
 37 36  2  0
 38 33  2  0
 38 37  1  0
 39 38  1  0
 41 42  1  0
 42 45  1  0
 42 44  1  0
 43 41  2  0
 46 21  1  0
 46 47  1  0
 48 46  1  0
 49  2  1  0
 50 49  1  0
 51 50  1  0
 52 51  1  0
 53 54  1  0
 53 52  1  0
 55 57  1  0
 55 54  1  0
 56 67  2  0
 57 62  1  0
 58 66  1  0
 58 68  1  0
 59 65  1  0
 59 61  1  0
 60 66  1  0
 61 60  1  0
 62 61  2  0
 63 64  1  0
 63 57  2  0
 64 59  2  0
 65 58  1  0
 66 56  1  0
 68 70  2  0
 69 68  1  0
 71 69  1  0
 72 81  2  0
 72 77  1  0
 73 69  1  0
 73 77  1  0
 74 73  1  0
 75 76  1  0
 75 74  1  0
 76 72  1  0
 77 78  2  0
 78 79  1  0
 80 79  2  0
 81 80  1  0
 82 56  1  0
 82 83  1  0
 82 92  1  0
 83 86  1  0
 84 88  1  0
 84 83  1  0
 85 84  2  0
 88 87  1  0
 90 88  1  0
 90 91  1  0
 90 89  1  0
 92 95  1  1
 92 93  1  0
 94 92  1  0
M  ISO  4  11 100  19 100  54 101  55 101
M  END
>  <TORSDO>  (38) 
F 30

>  <SCORE>  (38) 
-5.606

>  <name>  (38) 
40

>  <ligand_id>  (38) 
40

>  <original_smiles>  (38) 
[H]c1c([H])c([H])c2c(c1[H])C([H])([H])C([H])([H])C([H])([H])C2([H])N([H])C(=O)C1([H])N(C(=O)C([H])(N([H])C(=O)C([H])(N([H])C([H])([H])[H])C([H])([H])[H])C(C([H])([H])[H])(C([H])([H])[H])C([H])([H])[H])C([H])([H])c2c([H])c(OC([H])([H])C([H])([H])C([H])([H])OC([H])([H])C([H])([H])N(OC([H])([H])C([H])([H])C([H])([H])OC([H])([H])C([H])([H])C([H])([H])N([H])C(=O)N3C([H])([H])C([H])([H])C([H])([H])C([H])(n4nc(-c5c([H])c([H])c(Oc6c([H])c([H])c(F)c([H])c6F)c([H])c5[H])c(C(=O)N([H])[H])c4N([H])[H])C3([H])[H])C([H])([H])[H])c([H])c([H])c2C1([H])[H]

>  <smiles>  (38) 
[H]c1c([H])c([H])c2c(c1[H])C([H])([H])C([H])([H])C([H])([H])C2([H])N([H])C(=O)C1([H])N(C(=O)C([H])(N([H])C(=O)C([H])(N([H])C([H])([H])[H])C([H])([H])[H])C(C([H])([H])[H])(C([H])([H])[H])C([H])([H])[H])C([H])([H])c2c([H])c(OC([H])([H])C([H])([H])C([H])([H])OC([H])([H])C([H])([H])N(OC([H])([H])C([H])([H])C([H])([H])OC([H])([H])C([H])([H])C([H])([H])N([H])C(=O)N3C([H])([H])C([H])([H])C([H])([H])C([H])(n4nc(-c5c([H])c([H])c(Oc6c([H])c([H])c(F)c([H])c6F)c([H])c5[H])c(C(=O)N([H])[H])c4N([H])[H])C3([H])[H])C([H])([H])[H])c([H])c([H])c2C1([H])[H]

$$$$
41:0:0
     RDKit          3D

106113  0  0  1  0  0  0  0  0999 V2000
  -28.8380  -24.5620   16.0610 C   0  0  0  0  0  2  0  0  0  0  0  0
  -27.4380  -24.4830   16.2870 O   0  0  0  0  0  0  0  0  0  0  0  0
  -26.7580  -25.6820   15.9390 C   0  0  0  0  0  2  0  0  0  0  0  0
  -25.2530  -25.5500   16.2010 C   0  0  0  0  0  2  0  0  0  0  0  0
  -24.6950  -24.4740   15.4520 O   0  0  0  0  0  0  0  0  0  0  0  0
  -23.5600  -23.8950   16.0890 C   0  0  0  0  0  2  0  0  0  0  0  0
  -23.9850  -22.6700   16.9180 C   0  0  0  0  0  2  0  0  0  0  0  0
  -24.7590  -23.0680   18.0500 O   0  0  0  0  0  0  0  0  0  0  0  0
  -25.8510  -22.1910   18.2870 C   0  0  0  0  0  2  0  0  0  0  0  0
  -26.6640  -22.5870   19.5360 C   0  0  0  0  0  2  0  0  0  0  0  0
  -27.3760  -23.8120   19.3610 O   0  0  0  0  0  0  0  0  0  0  0  0
  -28.4260  -24.0410   20.3060 C   0  0  0  0  0  2  0  0  0  0  0  0
  -28.2550  -25.3600   21.0880 C   0  0  0  0  0  2  0  0  0  0  0  0
  -28.3420  -26.5320   20.2750 O   0  0  0  0  0  0  0  0  0  0  0  0
  -24.5690  -31.7720   23.2460 C   0  0  0  0  0  0  0  0  0  0  0  0
  -27.1910  -27.2810   20.2550 C   0  0  0  0  0  0  0  0  0  0  0  0
  -23.3620  -30.3640   21.6010 C   0  0  0  0  0  3  0  0  0  0  0  0
  -24.8180  -28.8010   20.2120 C   0  0  0  0  0  0  0  0  0  0  0  0
  -25.8900  -30.7080   21.4240 C   0  0  0  0  0  2  0  0  0  0  0  0
  -25.9740  -29.3320   20.7990 C   0  0  0  0  0  0  0  0  0  0  0  0
  -27.1730  -28.5830   20.8050 C   0  0  0  0  0  3  0  0  0  0  0  0
  -26.0150  -26.7560   19.6880 C   0  0  0  0  0  3  0  0  0  0  0  0
  -24.8310  -27.5160   19.6470 C   0  0  0  0  0  3  0  0  0  0  0  0
  -23.5800  -29.6690   20.2330 C   0  0  0  0  0  2  0  0  0  0  0  0
  -24.6230  -30.9620   22.1510 N   0  0  0  0  0  0  0  0  0  0  0  0
  -23.4830  -32.0620   23.7700 O   0  0  0  0  0  0  0  0  0  0  0  0
  -22.6900  -29.3610   22.5660 C   0  0  0  0  0  0  0  0  0  0  0  0
  -21.3600  -29.2130   22.4450 N   0  0  0  0  0  0  0  0  0  0  0  0
  -23.3570  -28.7290   23.3880 O   0  0  0  0  0  0  0  0  0  0  0  0
  -20.8810  -29.7810   21.7580 H   0  0  0  0  0  0  0  0  0  0  0  0
  -17.9580  -28.1090   22.9530 C   0  0  0  0  0  0  0  0  0  0  0  0
  -20.5220  -28.2970   23.2210 C   0  0  0  0  0  3  0  0  0  0  0  0
  -20.5850  -26.8630   22.6480 C   0  0  0  0  0  2  0  0  0  0  0  0
  -19.4740  -26.5670   21.6340 C   0  0  0  0  0  2  0  0  0  0  0  0
  -18.0970  -26.7530   22.2810 C   0  0  0  0  0  2  0  0  0  0  0  0
  -19.0980  -28.8390   23.3810 C   0  0  0  0  0  0  0  0  0  0  0  0
  -18.9160  -30.1090   23.9720 C   0  0  0  0  0  3  0  0  0  0  0  0
  -17.6270  -30.6490   24.1360 C   0  0  0  0  0  3  0  0  0  0  0  0
  -16.5010  -29.9150   23.7270 C   0  0  0  0  0  3  0  0  0  0  0  0
  -16.6670  -28.6450   23.1430 C   0  0  0  0  0  3  0  0  0  0  0  0
  -25.8570  -32.3930   23.8710 C   0  0  0  0  0  3  0  0  0  0  0  0
  -25.5640  -33.7980   24.1890 N   0  0  0  0  0  0  0  0  0  0  0  0
  -25.9120  -34.8380   23.4200 C   0  0  0  0  0  0  0  0  0  0  0  0
  -26.5840  -34.7150   22.3930 O   0  0  0  0  0  0  0  0  0  0  0  0
  -24.9600  -33.9680   24.9790 H   0  0  0  0  0  0  0  0  0  0  0  0
  -24.1980  -36.6440   23.0430 C   0  0  0  0  0  1  0  0  0  0  0  0
  -25.4330  -36.2370   23.8630 C   0  0  0  0  0  3  0  0  0  0  0  0
  -27.5720  -37.1080   24.6950 C   0  0  0  0  0  1  0  0  0  0  0  0
  -26.4770  -37.2790   23.7460 N   0  0  0  0  0  0  0  0  0  0  0  0
  -26.0760  -38.2030   23.8840 H   0  0  0  0  0  0  0  0  0  0  0  0
  -26.3660  -31.6230   25.1520 C   0  0  1  0  0  0  0  0  0  0  0  0
  -25.2650  -31.3910   26.2100 C   0  0  0  0  0  1  0  0  0  0  0  0
  -26.9380  -30.2400   24.7640 C   0  0  0  0  0  1  0  0  0  0  0  0
  -27.5170  -32.4090   25.8200 C   0  0  0  0  0  1  0  0  0  0  0  0
  -29.4100  -23.1460   15.9180 C   0  0  0  0  0  2  0  0  0  0  0  0
  -29.7730  -21.0920   17.2220 C   0  0  0  0  0  0  0  0  0  0  0  0
  -29.3960  -22.3800   17.1610 N   0  0  0  0  0  0  0  0  0  0  0  0
  -29.9830  -20.4460   16.1900 O   0  0  0  0  0  0  0  0  0  0  0  0
  -29.1550  -22.8760   18.0090 H   0  0  0  0  0  0  0  0  0  0  0  0
  -29.9360  -20.4160   18.6100 C   0  0  0  0  0  3  0  0  0  0  0  0
  -31.3430  -20.8230   19.1200 C   0  0  0  0  0  0  0  0  0  0  0  0
  -31.4250  -21.6210   20.1810 N   0  0  0  0  0  0  0  0  0  0  0  0
  -32.3740  -20.4160   18.5780 O   0  0  0  0  0  0  0  0  0  0  0  0
  -30.6010  -21.9310   20.6750 H   0  0  0  0  0  0  0  0  0  0  0  0
  -32.3340  -21.9010   20.5300 H   0  0  0  0  0  0  0  0  0  0  0  0
  -29.7790  -18.8770   18.5110 C   0  0  0  0  0  2  0  0  0  0  0  0
  -29.7720  -18.0780   19.8390 C   0  0  0  0  0  2  0  0  0  0  0  0
  -30.0090  -16.5880   19.5380 C   0  0  0  0  0  2  0  0  0  0  0  0
  -30.7450  -14.6280   20.7750 C   0  0  0  0  0  0  0  0  0  0  0  0
  -30.5280  -12.4220   19.7640 C   0  0  0  0  0  2  0  0  0  0  0  0
  -29.6640  -12.6060   18.4980 C   0  0  0  0  0  2  0  0  0  0  0  0
  -28.1650  -12.4820   18.8370 C   0  0  0  0  0  2  0  0  0  0  0  0
  -27.7480  -13.3490   20.0550 C   0  0  0  0  0  3  0  0  0  0  0  0
  -28.7400  -13.1750   21.2300 C   0  0  0  0  0  2  0  0  0  0  0  0
  -30.0980  -13.4390   20.7320 N   0  0  0  0  0  0  0  0  0  0  0  0
  -31.9400  -14.7690   20.5180 O   0  0  0  0  0  0  0  0  0  0  0  0
  -29.9120  -15.6780   20.6860 N   0  0  0  0  0  0  0  0  0  0  0  0
  -28.9810  -15.5080   21.0300 H   0  0  0  0  0  0  0  0  0  0  0  0
  -25.3070  -13.9540   20.6030 C   0  0  0  0  0  0  0  0  0  0  0  0
  -24.2190  -13.1790   20.9160 C   0  0  0  0  0  0  0  0  0  0  0  0
  -24.6940  -11.8320   20.9410 C   0  0  0  0  0  0  0  0  0  0  0  0
  -26.3710  -13.0760   20.4580 N   0  0  0  0  0  0  0  0  0  0  0  0
  -26.0000  -11.7970   20.7170 N   0  0  0  0  0  0  0  0  0  0  0  0
  -23.9670  -10.5680   21.1070 C   0  0  0  0  0  0  0  0  0  0  0  0
  -24.3630   -9.6080   22.0640 C   0  0  0  0  0  3  0  0  0  0  0  0
  -23.6360   -8.4080   22.2170 C   0  0  0  0  0  3  0  0  0  0  0  0
  -22.5000   -8.1590   21.4100 C   0  0  0  0  0  0  0  0  0  0  0  0
  -22.1280   -9.1050   20.4390 C   0  0  0  0  0  3  0  0  0  0  0  0
  -22.8560  -10.2970   20.2850 C   0  0  0  0  0  3  0  0  0  0  0  0
  -21.7480   -7.0120   21.4710 O   0  0  0  0  0  0  0  0  0  0  0  0
  -21.6650   -6.2660   22.6200 C   0  0  0  0  0  0  0  0  0  0  0  0
  -21.2040   -6.8180   23.8350 C   0  0  0  0  0  3  0  0  0  0  0  0
  -21.0680   -5.9990   24.9730 C   0  0  0  0  0  3  0  0  0  0  0  0
  -21.3820   -4.6290   24.8970 C   0  0  0  0  0  0  0  0  0  0  0  0
  -21.8360   -4.0760   23.6860 C   0  0  0  0  0  3  0  0  0  0  0  0
  -21.9730   -4.8920   22.5510 C   0  0  0  0  0  0  0  0  0  0  0  0
  -22.3920   -4.3520   21.3810 F   0  0  0  0  0  0  0  0  0  0  0  0
  -21.2440   -3.8400   25.9880 F   0  0  0  0  0  0  0  0  0  0  0  0
  -22.8070  -13.6500   21.0920 C   0  0  0  0  0  0  0  0  0  0  0  0
  -22.0350  -12.9630   21.9290 N   0  0  0  0  0  0  0  0  0  0  0  0
  -22.3950  -14.6580   20.5210 O   0  0  0  0  0  0  0  0  0  0  0  0
  -22.3820  -12.1450   22.4060 H   0  0  0  0  0  0  0  0  0  0  0  0
  -21.0850  -13.2590   22.0950 H   0  0  0  0  0  0  0  0  0  0  0  0
  -25.4720  -15.3210   20.4120 N   0  0  0  0  0  0  0  0  0  0  0  0
  -24.6850  -15.9610   20.4560 H   0  0  0  0  0  0  0  0  0  0  0  0
  -26.3230  -15.7680   20.0990 H   0  0  0  0  0  0  0  0  0  0  0  0
  1  2  1  0
  3  4  1  0
  3  2  1  0
  5  6  1  0
  5  4  1  0
  6  7  1  0
  7  8  1  0
  8  9  1  0
  9 10  1  0
 11 10  1  0
 11 12  1  0
 12 13  1  0
 14 13  1  0
 15 26  2  0
 16 14  1  0
 16 21  1  0
 17 25  1  0
 17 27  1  0
 18 24  1  0
 18 20  1  0
 19 25  1  0
 20 21  2  0
 20 19  1  0
 22 16  2  0
 23 22  1  0
 23 18  2  0
 24 17  1  0
 25 15  1  0
 27 29  2  0
 28 27  1  0
 30 28  1  0
 31 40  2  0
 31 36  1  0
 32 28  1  0
 32 36  1  0
 33 32  1  0
 34 35  1  0
 34 33  1  0
 35 31  1  0
 36 37  2  0
 37 38  1  0
 39 38  2  0
 40 39  1  0
 41 15  1  0
 41 42  1  0
 41 51  1  0
 42 45  1  0
 43 47  1  0
 43 42  1  0
 44 43  2  0
 47 46  1  0
 49 47  1  0
 49 50  1  0
 49 48  1  0
 51 54  1  1
 51 52  1  0
 53 51  1  0
 55  1  1  0
 55 57  1  0
 56 60  1  0
 57 56  1  0
 57 59  1  0
 58 56  2  0
 60 66  1  0
 60 61  1  0
 61 62  1  0
 62 65  1  0
 62 64  1  0
 63 61  2  0
 66 67  1  0
 68 67  1  0
 68 77  1  0
 70 75  1  0
 71 72  1  0
 71 70  1  0
 73 72  1  0
 73 82  1  0
 73 74  1  0
 75 69  1  0
 75 74  1  0
 76 69  2  0
 77 69  1  0
 77 78  1  0
 79 80  2  0
 80 81  1  0
 80 99  1  0
 81 84  1  0
 82 79  1  0
 82 83  1  0
 83 81  2  0
 84 85  1  0
 85 86  2  0
 87 90  1  0
 87 86  1  0
 88 87  2  0
 89 88  1  0
 89 84  2  0
 90 91  1  0
 91 92  1  0
 92 93  2  0
 94 93  1  0
 94 98  1  0
 95 94  2  0
 96 91  2  0
 96 95  1  0
 97 96  1  0
 99100  1  0
100103  1  0
100102  1  0
101 99  2  0
104105  1  0
104 79  1  0
106104  1  0
M  ISO  4  13 101  14 101  69 100  77 100
M  END
>  <TORSDO>  (39) 
F 35

>  <SCORE>  (39) 
-10.096

>  <name>  (39) 
41

>  <ligand_id>  (39) 
41

>  <original_smiles>  (39) 
[H]c1c([H])c([H])c2c(c1[H])C([H])([H])C([H])([H])C([H])([H])C2([H])N([H])C(=O)C1([H])N(C(=O)C([H])(N([H])C(=O)C([H])(N([H])C([H])([H])[H])C([H])([H])[H])C(C([H])([H])[H])(C([H])([H])[H])C([H])([H])[H])C([H])([H])c2c([H])c(OC([H])([H])C([H])([H])OC([H])([H])C([H])([H])OC([H])([H])C([H])([H])OC([H])([H])C([H])([H])OC([H])([H])C([H])([H])N([H])C(=O)C([H])(C(=O)N([H])[H])C([H])([H])C([H])([H])C([H])([H])N([H])C(=O)N3C([H])([H])C([H])([H])C([H])([H])C([H])(n4nc(-c5c([H])c([H])c(Oc6c([H])c([H])c(F)c([H])c6F)c([H])c5[H])c(C(=O)N([H])[H])c4N([H])[H])C3([H])[H])c([H])c([H])c2C1([H])[H]

>  <smiles>  (39) 
[H]c1c([H])c([H])c2c(c1[H])C([H])([H])C([H])([H])C([H])([H])C2([H])N([H])C(=O)C1([H])N(C(=O)C([H])(N([H])C(=O)C([H])(N([H])C([H])([H])[H])C([H])([H])[H])C(C([H])([H])[H])(C([H])([H])[H])C([H])([H])[H])C([H])([H])c2c([H])c(OC([H])([H])C([H])([H])OC([H])([H])C([H])([H])OC([H])([H])C([H])([H])OC([H])([H])C([H])([H])OC([H])([H])C([H])([H])N([H])C(=O)C([H])(C(=O)N([H])[H])C([H])([H])C([H])([H])C([H])([H])N([H])C(=O)N3C([H])([H])C([H])([H])C([H])([H])C([H])(n4nc(-c5c([H])c([H])c(Oc6c([H])c([H])c(F)c([H])c6F)c([H])c5[H])c(C(=O)N([H])[H])c4N([H])[H])C3([H])[H])c([H])c([H])c2C1([H])[H]

$$$$
42:0:0
     RDKit          3D

104111  0  0  1  0  0  0  0  0999 V2000
  -30.4420  -21.2180   29.7450 C   0  0  0  0  0  2  0  0  0  0  0  0
  -31.7190  -21.9450   29.2800 C   0  0  0  0  0  2  0  0  0  0  0  0
  -31.4370  -23.3280   28.6810 C   0  0  0  0  0  2  0  0  0  0  0  0
  -30.7720  -23.1420   27.4410 O   0  0  0  0  0  0  0  0  0  0  0  0
  -30.4970  -24.3580   26.7640 C   0  0  0  0  0  2  0  0  0  0  0  0
  -29.8930  -24.0120   25.3960 C   0  0  0  0  0  2  0  0  0  0  0  0
  -29.5920  -25.2560   24.5420 C   0  0  0  0  0  2  0  0  0  0  0  0
  -29.0950  -24.8920   23.1970 N   0  0  0  0  0  4  0  0  0  0  0  0
  -28.2480  -24.3520   23.2950 H   0  0  0  0  0  0  0  0  0  0  0  0
  -29.7830  -24.3010   22.7570 H   0  0  0  0  0  0  0  0  0  0  0  0
  -28.8340  -26.0550   22.3170 C   0  0  0  0  0  2  0  0  0  0  0  0
  -28.4770  -25.6300   20.8800 C   0  0  0  0  0  2  0  0  0  0  0  0
  -28.4180  -26.7800   20.0410 O   0  0  0  0  0  0  0  0  0  0  0  0
  -24.6100  -31.8710   23.2120 C   0  0  0  0  0  0  0  0  0  0  0  0
  -27.2400  -27.4770   20.0920 C   0  0  0  0  0  0  0  0  0  0  0  0
  -23.3960  -30.4930   21.5520 C   0  0  0  0  0  3  0  0  0  0  0  0
  -24.8440  -28.9590   20.1200 C   0  0  0  0  0  0  0  0  0  0  0  0
  -25.9190  -30.8500   21.3570 C   0  0  0  0  0  2  0  0  0  0  0  0
  -26.0000  -29.4850   20.7100 C   0  0  0  0  0  0  0  0  0  0  0  0
  -27.2030  -28.7510   20.6920 C   0  0  0  0  0  3  0  0  0  0  0  0
  -26.0710  -26.9500   19.5050 C   0  0  0  0  0  3  0  0  0  0  0  0
  -24.8710  -27.6870   19.5180 C   0  0  0  0  0  3  0  0  0  0  0  0
  -23.6030  -29.8210   20.1680 C   0  0  0  0  0  2  0  0  0  0  0  0
  -24.6600  -31.0840   22.1000 N   0  0  0  0  0  0  0  0  0  0  0  0
  -23.5300  -32.1440   23.7550 O   0  0  0  0  0  0  0  0  0  0  0  0
  -22.7380  -29.4670   22.5010 C   0  0  0  0  0  0  0  0  0  0  0  0
  -21.4110  -29.3030   22.3760 N   0  0  0  0  0  0  0  0  0  0  0  0
  -23.4170  -28.8220   23.3040 O   0  0  0  0  0  0  0  0  0  0  0  0
  -20.9260  -29.8750   21.6980 H   0  0  0  0  0  0  0  0  0  0  0  0
  -18.0260  -28.1370   22.8490 C   0  0  0  0  0  0  0  0  0  0  0  0
  -20.5850  -28.3650   23.1340 C   0  0  0  0  0  3  0  0  0  0  0  0
  -20.6750  -26.9390   22.5420 C   0  0  0  0  0  2  0  0  0  0  0  0
  -19.5740  -26.6390   21.5200 C   0  0  0  0  0  2  0  0  0  0  0  0
  -18.1920  -26.7920   22.1620 C   0  0  0  0  0  2  0  0  0  0  0  0
  -19.1510  -28.8830   23.2910 C   0  0  0  0  0  0  0  0  0  0  0  0
  -18.9450  -30.1440   23.8920 C   0  0  0  0  0  3  0  0  0  0  0  0
  -17.6450  -30.6590   24.0570 C   0  0  0  0  0  3  0  0  0  0  0  0
  -16.5340  -29.9090   23.6320 C   0  0  0  0  0  3  0  0  0  0  0  0
  -16.7260  -28.6510   23.0340 C   0  0  0  0  0  3  0  0  0  0  0  0
  -25.9010  -32.4840   23.8400 C   0  0  0  0  0  3  0  0  0  0  0  0
  -25.5890  -33.8640   24.2340 N   0  0  0  0  0  0  0  0  0  0  0  0
  -25.9030  -34.9490   23.5140 C   0  0  0  0  0  0  0  0  0  0  0  0
  -26.5590  -34.8940   22.4690 O   0  0  0  0  0  0  0  0  0  0  0  0
  -25.0040  -33.9800   25.0490 H   0  0  0  0  0  0  0  0  0  0  0  0
  -24.1490  -36.7320   23.2640 C   0  0  0  0  0  1  0  0  0  0  0  0
  -25.4110  -36.3120   24.0340 C   0  0  0  0  0  3  0  0  0  0  0  0
  -27.5580  -37.1820   24.8470 C   0  0  0  0  0  1  0  0  0  0  0  0
  -26.4300  -37.3800   23.9410 N   0  0  0  0  0  0  0  0  0  0  0  0
  -26.0190  -38.2880   24.1400 H   0  0  0  0  0  0  0  0  0  0  0  0
  -26.4460  -31.6590   25.0700 C   0  0  1  0  0  0  0  0  0  0  0  0
  -25.3750  -31.3690   26.1470 C   0  0  0  0  0  1  0  0  0  0  0  0
  -27.0280  -30.3050   24.6020 C   0  0  0  0  0  1  0  0  0  0  0  0
  -27.6040  -32.4310   25.7470 C   0  0  0  0  0  1  0  0  0  0  0  0
  -30.6590  -19.7260   30.0610 C   0  0  0  0  0  2  0  0  0  0  0  0
  -30.2290  -18.5610   27.9070 C   0  0  0  0  0  0  0  0  0  0  0  0
  -31.0580  -18.9840   28.8670 N   0  0  0  0  0  0  0  0  0  0  0  0
  -29.0020  -18.6380   28.0070 O   0  0  0  0  0  0  0  0  0  0  0  0
  -32.0500  -18.8570   28.7170 H   0  0  0  0  0  0  0  0  0  0  0  0
  -30.3090  -17.7930   25.6000 C   0  0  0  0  0  3  0  0  0  0  0  0
  -30.9530  -18.0630   26.7530 C   0  0  0  0  0  3  0  0  0  0  0  0
  -30.2290  -16.9200   23.3290 C   0  0  0  0  0  3  0  0  0  0  0  0
  -30.9590  -17.3460   24.3780 C   0  0  0  0  0  0  0  0  0  0  0  0
  -32.8670  -18.7060   24.2000 C   0  0  0  0  0  1  0  0  0  0  0  0
  -32.3220  -17.3900   24.2470 O   0  0  0  0  0  0  0  0  0  0  0  0
  -30.4280  -17.5440   20.9140 C   0  0  0  0  0  1  0  0  0  0  0  0
  -30.7820  -16.4920   21.9800 C   0  0  0  0  0  3  0  0  0  0  0  0
  -30.7590  -14.3630   20.6750 C   0  0  0  0  0  0  0  0  0  0  0  0
  -30.4160  -12.2830   19.3950 C   0  0  0  0  0  2  0  0  0  0  0  0
  -29.4840  -12.5260   18.1930 C   0  0  0  0  0  2  0  0  0  0  0  0
  -28.0080  -12.3840   18.6090 C   0  0  0  0  0  2  0  0  0  0  0  0
  -27.6670  -13.2010   19.8820 C   0  0  0  0  0  3  0  0  0  0  0  0
  -28.7040  -12.9340   20.9960 C   0  0  0  0  0  2  0  0  0  0  0  0
  -30.0480  -13.2270   20.4600 N   0  0  0  0  0  0  0  0  0  0  0  0
  -31.7960  -14.6410   20.0650 O   0  0  0  0  0  0  0  0  0  0  0  0
  -30.2520  -15.1820   21.6060 N   0  0  0  0  0  0  0  0  0  0  0  0
  -29.4160  -14.8640   22.0730 H   0  0  0  0  0  0  0  0  0  0  0  0
  -25.2610  -13.8160   20.5680 C   0  0  0  0  0  0  0  0  0  0  0  0
  -24.1850  -13.0440   20.9160 C   0  0  0  0  0  0  0  0  0  0  0  0
  -24.6390  -11.6900   20.8720 C   0  0  0  0  0  0  0  0  0  0  0  0
  -26.3050  -12.9320   20.3390 N   0  0  0  0  0  0  0  0  0  0  0  0
  -25.9320  -11.6480   20.5760 N   0  0  0  0  0  0  0  0  0  0  0  0
  -23.9050  -10.4290   21.0400 C   0  0  0  0  0  0  0  0  0  0  0  0
  -24.3610   -9.4210   21.9180 C   0  0  0  0  0  3  0  0  0  0  0  0
  -23.6290   -8.2250   22.0750 C   0  0  0  0  0  3  0  0  0  0  0  0
  -22.4270   -8.0280   21.3540 C   0  0  0  0  0  0  0  0  0  0  0  0
  -21.9900   -9.0250   20.4640 C   0  0  0  0  0  3  0  0  0  0  0  0
  -22.7230  -10.2130   20.3050 C   0  0  0  0  0  3  0  0  0  0  0  0
  -21.6640   -6.8880   21.4240 O   0  0  0  0  0  0  0  0  0  0  0  0
  -21.6850   -6.0730   22.5280 C   0  0  0  0  0  0  0  0  0  0  0  0
  -21.4010   -6.5640   23.8210 C   0  0  0  0  0  3  0  0  0  0  0  0
  -21.3660   -5.6790   24.9180 C   0  0  0  0  0  3  0  0  0  0  0  0
  -21.6050   -4.3060   24.7230 C   0  0  0  0  0  0  0  0  0  0  0  0
  -21.8820   -3.8150   23.4350 C   0  0  0  0  0  3  0  0  0  0  0  0
  -21.9190   -4.6960   22.3400 C   0  0  0  0  0  0  0  0  0  0  0  0
  -22.1660   -4.2150   21.0980 F   0  0  0  0  0  0  0  0  0  0  0  0
  -21.5630   -3.4540   25.7740 F   0  0  0  0  0  0  0  0  0  0  0  0
  -22.7870  -13.5240   21.1830 C   0  0  0  0  0  0  0  0  0  0  0  0
  -22.0510  -12.8240   22.0390 N   0  0  0  0  0  0  0  0  0  0  0  0
  -22.3560  -14.5550   20.6690 O   0  0  0  0  0  0  0  0  0  0  0  0
  -22.4120  -11.9890   22.4770 H   0  0  0  0  0  0  0  0  0  0  0  0
  -21.1130  -13.1270   22.2600 H   0  0  0  0  0  0  0  0  0  0  0  0
  -25.4350  -15.1870   20.4090 N   0  0  0  0  0  0  0  0  0  0  0  0
  -24.6740  -15.8480   20.5200 H   0  0  0  0  0  0  0  0  0  0  0  0
  -26.2990  -15.6240   20.1110 H   0  0  0  0  0  0  0  0  0  0  0  0
  1 54  1  0
  2  1  1  0
  3  2  1  0
  4  3  1  0
  5  4  1  0
  6  5  1  0
  7  6  1  0
  8  9  1  0
  8  7  1  0
 10  8  1  0
 11  8  1  0
 12 11  1  0
 13 15  1  0
 13 12  1  0
 14 25  2  0
 15 20  1  0
 16 24  1  0
 16 26  1  0
 17 23  1  0
 17 19  1  0
 18 24  1  0
 19 18  1  0
 20 19  2  0
 21 22  1  0
 21 15  2  0
 22 17  2  0
 23 16  1  0
 24 14  1  0
 26 28  2  0
 27 26  1  0
 29 27  1  0
 30 39  2  0
 30 35  1  0
 31 27  1  0
 31 35  1  0
 32 31  1  0
 33 34  1  0
 33 32  1  0
 34 30  1  0
 35 36  2  0
 36 37  1  0
 38 37  2  0
 39 38  1  0
 40 14  1  0
 40 41  1  0
 40 50  1  0
 41 44  1  0
 42 46  1  0
 42 41  1  0
 43 42  2  0
 46 45  1  0
 48 46  1  0
 48 49  1  0
 48 47  1  0
 50 53  1  1
 50 51  1  0
 52 50  1  0
 55 57  2  0
 55 56  1  0
 56 54  1  0
 58 56  1  0
 59 60  2  0
 60 55  1  0
 61 62  2  0
 62 59  1  0
 63 64  1  0
 64 62  1  0
 66 65  1  0
 66 61  1  0
 67 75  1  0
 68 73  1  0
 69 70  1  0
 69 68  1  0
 71 70  1  0
 71 80  1  0
 71 72  1  0
 73 67  1  0
 73 72  1  0
 74 67  2  0
 75 66  1  0
 75 76  1  0
 77 78  2  0
 78 97  1  0
 79 78  1  0
 79 82  1  0
 80 77  1  0
 80 81  1  0
 81 79  2  0
 82 83  1  0
 83 84  2  0
 85 88  1  0
 85 84  1  0
 86 85  2  0
 87 86  1  0
 87 82  2  0
 88 89  1  0
 89 90  1  0
 90 91  2  0
 92 91  1  0
 92 96  1  0
 93 92  2  0
 94 89  2  0
 94 93  1  0
 95 94  1  0
 97 98  1  0
 98101  1  0
 98100  1  0
 99 97  2  0
102103  1  0
102 77  1  0
104102  1  0
M  ISO  4  12 101  13 101  67 100  75 100
M  END
>  <TORSDO>  (40) 
F 31

>  <SCORE>  (40) 
49.810

>  <name>  (40) 
42

>  <ligand_id>  (40) 
42

>  <original_smiles>  (40) 
[H]C(C(=O)N([H])C([H])([H])C([H])([H])C([H])([H])C([H])([H])OC([H])([H])C([H])([H])C([H])([H])[N+]([H])([H])C([H])([H])C([H])([H])Oc1c([H])c([H])c2c(c1[H])C([H])([H])N(C(=O)C([H])(N([H])C(=O)C([H])(N([H])C([H])([H])[H])C([H])([H])[H])C(C([H])([H])[H])(C([H])([H])[H])C([H])([H])[H])C([H])(C(=O)N([H])C1([H])c3c([H])c([H])c([H])c([H])c3C([H])([H])C([H])([H])C1([H])[H])C2([H])[H])=C([H])C(OC([H])([H])[H])=C([H])C([H])(N([H])C(=O)N1C([H])([H])C([H])([H])C([H])([H])C([H])(n2nc(-c3c([H])c([H])c(Oc4c([H])c([H])c(F)c([H])c4F)c([H])c3[H])c(C(=O)N([H])[H])c2N([H])[H])C1([H])[H])C([H])([H])[H]

>  <smiles>  (40) 
[H]C(C(=O)N([H])C([H])([H])C([H])([H])C([H])([H])C([H])([H])OC([H])([H])C([H])([H])C([H])([H])[N+]([H])([H])C([H])([H])C([H])([H])Oc1c([H])c([H])c2c(c1[H])C([H])([H])N(C(=O)C([H])(N([H])C(=O)C([H])(N([H])C([H])([H])[H])C([H])([H])[H])C(C([H])([H])[H])(C([H])([H])[H])C([H])([H])[H])C([H])(C(=O)N([H])C1([H])c3c([H])c([H])c([H])c([H])c3C([H])([H])C([H])([H])C1([H])[H])C2([H])[H])=C([H])C(OC([H])([H])[H])=C([H])C([H])(N([H])C(=O)N1C([H])([H])C([H])([H])C([H])([H])C([H])(n2nc(-c3c([H])c([H])c(Oc4c([H])c([H])c(F)c([H])c4F)c([H])c3[H])c(C(=O)N([H])[H])c2N([H])[H])C1([H])[H])C([H])([H])[H]

$$$$
43:0:0
     RDKit          3D

100107  0  0  1  0  0  0  0  0999 V2000
  -31.9450  -22.7700   21.5360 C   0  0  0  0  0  0  0  0  0  0  0  0
  -32.6170  -23.4140   20.5800 N   0  0  0  0  0  0  0  0  0  0  0  0
  -32.3550  -22.6690   22.6930 O   0  0  0  0  0  0  0  0  0  0  0  0
  -32.1740  -23.4130   19.6680 H   0  0  0  0  0  0  0  0  0  0  0  0
  -33.7740  -24.2830   20.7730 C   0  0  0  0  0  2  0  0  0  0  0  0
  -33.3560  -25.7220   21.1290 C   0  0  0  0  0  2  0  0  0  0  0  0
  -32.4280  -26.2120   20.1630 O   0  0  0  0  0  0  0  0  0  0  0  0
  -31.1030  -26.3560   20.6640 C   0  0  0  0  0  2  0  0  0  0  0  0
  -30.1490  -26.6390   19.4990 C   0  0  0  0  0  2  0  0  0  0  0  0
  -28.6780  -26.5370   19.9290 C   0  0  0  0  0  2  0  0  0  0  0  0
  -27.8210  -26.7770   18.8140 O   0  0  0  0  0  0  0  0  0  0  0  0
  -24.6070  -31.6170   22.9240 C   0  0  0  0  0  0  0  0  0  0  0  0
  -26.7070  -27.5320   19.0750 C   0  0  0  0  0  0  0  0  0  0  0  0
  -23.1540  -30.4400   21.2990 C   0  0  0  0  0  3  0  0  0  0  0  0
  -24.3700  -29.0430   19.5440 C   0  0  0  0  0  0  0  0  0  0  0  0
  -25.6400  -30.7790   20.8220 C   0  0  0  0  0  2  0  0  0  0  0  0
  -25.6020  -29.4860   20.0380 C   0  0  0  0  0  0  0  0  0  0  0  0
  -26.7720  -28.7350   19.8090 C   0  0  0  0  0  3  0  0  0  0  0  0
  -25.4660  -27.1020   18.5650 C   0  0  0  0  0  3  0  0  0  0  0  0
  -24.2940  -27.8450   18.8080 C   0  0  0  0  0  3  0  0  0  0  0  0
  -23.1660  -29.9110   19.8380 C   0  0  0  0  0  2  0  0  0  0  0  0
  -24.4920  -30.9510   21.7400 N   0  0  0  0  0  0  0  0  0  0  0  0
  -23.6140  -31.8500   23.6250 O   0  0  0  0  0  0  0  0  0  0  0  0
  -22.5920  -29.3310   22.2150 C   0  0  0  0  0  0  0  0  0  0  0  0
  -21.2580  -29.1840   22.2190 N   0  0  0  0  0  0  0  0  0  0  0  0
  -23.3450  -28.6100   22.8750 O   0  0  0  0  0  0  0  0  0  0  0  0
  -20.7120  -29.8190   21.6550 H   0  0  0  0  0  0  0  0  0  0  0  0
  -17.9290  -27.9760   22.9270 C   0  0  0  0  0  0  0  0  0  0  0  0
  -20.5050  -28.1830   22.9720 C   0  0  0  0  0  3  0  0  0  0  0  0
  -20.5260  -26.8130   22.2540 C   0  0  0  0  0  2  0  0  0  0  0  0
  -19.3270  -26.6000   21.3260 C   0  0  0  0  0  2  0  0  0  0  0  0
  -18.0160  -26.6950   22.1120 C   0  0  0  0  0  2  0  0  0  0  0  0
  -19.0970  -28.6810   23.3170 C   0  0  0  0  0  0  0  0  0  0  0  0
  -18.9600  -29.8860   24.0420 C   0  0  0  0  0  3  0  0  0  0  0  0
  -17.6850  -30.3830   24.3770 C   0  0  0  0  0  3  0  0  0  0  0  0
  -16.5320  -29.6710   24.0020 C   0  0  0  0  0  3  0  0  0  0  0  0
  -16.6560  -28.4680   23.2830 C   0  0  0  0  0  3  0  0  0  0  0  0
  -25.9840  -32.1400   23.4410 C   0  0  0  0  0  3  0  0  0  0  0  0
  -25.7580  -33.4680   24.0250 N   0  0  0  0  0  0  0  0  0  0  0  0
  -26.0380  -34.6260   23.4120 C   0  0  0  0  0  0  0  0  0  0  0  0
  -26.5870  -34.6840   22.3080 O   0  0  0  0  0  0  0  0  0  0  0  0
  -25.2570  -33.4960   24.9000 H   0  0  0  0  0  0  0  0  0  0  0  0
  -24.3420  -36.4750   23.5500 C   0  0  0  0  0  1  0  0  0  0  0  0
  -25.6490  -35.9250   24.1410 C   0  0  0  0  0  3  0  0  0  0  0  0
  -27.8910  -36.6260   24.8570 C   0  0  0  0  0  1  0  0  0  0  0  0
  -26.6970  -36.9680   24.0880 N   0  0  0  0  0  0  0  0  0  0  0  0
  -26.3400  -37.8530   24.4380 H   0  0  0  0  0  0  0  0  0  0  0  0
  -26.6600  -31.1730   24.4880 C   0  0  1  0  0  0  0  0  0  0  0  0
  -25.7280  -30.7770   25.6570 C   0  0  0  0  0  1  0  0  0  0  0  0
  -27.1340  -29.8720   23.7990 C   0  0  0  0  0  1  0  0  0  0  0  0
  -27.9130  -31.8490   25.0970 C   0  0  0  0  0  1  0  0  0  0  0  0
  -30.5610  -22.2370   21.1440 C   0  0  0  0  0  2  0  0  0  0  0  0
  -30.3120  -22.5020   19.7600 O   0  0  0  0  0  0  0  0  0  0  0  0
  -28.9760  -22.8910   19.4350 C   0  0  0  0  0  2  0  0  0  0  0  0
  -27.9160  -21.8070   19.6920 C   0  0  0  0  0  2  0  0  0  0  0  0
  -28.1440  -20.6860   18.8490 O   0  0  0  0  0  0  0  0  0  0  0  0
  -27.2510  -19.6000   19.0890 C   0  0  0  0  0  2  0  0  0  0  0  0
  -27.6070  -18.8320   20.3730 C   0  0  0  0  0  2  0  0  0  0  0  0
  -28.9240  -18.3260   20.2420 O   0  0  0  0  0  0  0  0  0  0  0  0
  -29.2200  -17.3400   21.2140 C   0  0  0  0  0  2  0  0  0  0  0  0
  -30.6800  -16.9180   21.0280 C   0  0  0  0  0  2  0  0  0  0  0  0
  -31.0510  -15.6400   21.8020 C   0  0  0  0  0  2  0  0  0  0  0  0
  -30.7330  -13.7120   20.2490 C   0  0  0  0  0  0  0  0  0  0  0  0
  -30.2490  -11.7150   18.8900 C   0  0  0  0  0  2  0  0  0  0  0  0
  -29.2520  -12.0250   17.7580 C   0  0  0  0  0  2  0  0  0  0  0  0
  -27.8010  -11.8900   18.2560 C   0  0  0  0  0  2  0  0  0  0  0  0
  -27.5550  -12.6640   19.5770 C   0  0  0  0  0  3  0  0  0  0  0  0
  -28.6500  -12.3360   20.6160 C   0  0  0  0  0  2  0  0  0  0  0  0
  -29.9660  -12.6180   20.0140 N   0  0  0  0  0  0  0  0  0  0  0  0
  -31.7240  -14.0060   19.5750 O   0  0  0  0  0  0  0  0  0  0  0  0
  -30.3590  -14.4510   21.3010 N   0  0  0  0  0  0  0  0  0  0  0  0
  -29.5480  -14.1330   21.8120 H   0  0  0  0  0  0  0  0  0  0  0  0
  -25.1720  -13.2800   20.3390 C   0  0  0  0  0  0  0  0  0  0  0  0
  -24.1240  -12.5120   20.7720 C   0  0  0  0  0  0  0  0  0  0  0  0
  -24.5950  -11.1660   20.7740 C   0  0  0  0  0  0  0  0  0  0  0  0
  -26.2180  -12.3990   20.1060 N   0  0  0  0  0  0  0  0  0  0  0  0
  -25.8740  -11.1250   20.4230 N   0  0  0  0  0  0  0  0  0  0  0  0
  -23.8880   -9.9040   21.0350 C   0  0  0  0  0  0  0  0  0  0  0  0
  -24.3460   -8.9870   22.0060 C   0  0  0  0  0  3  0  0  0  0  0  0
  -23.6390   -7.7910   22.2500 C   0  0  0  0  0  3  0  0  0  0  0  0
  -22.4600   -7.5020   21.5240 C   0  0  0  0  0  0  0  0  0  0  0  0
  -22.0210   -8.4090   20.5420 C   0  0  0  0  0  3  0  0  0  0  0  0
  -22.7290   -9.5970   20.2970 C   0  0  0  0  0  3  0  0  0  0  0  0
  -21.7210   -6.3540   21.6760 O   0  0  0  0  0  0  0  0  0  0  0  0
  -21.6810   -5.6770   22.8680 C   0  0  0  0  0  0  0  0  0  0  0  0
  -21.2510   -6.2950   24.0620 C   0  0  0  0  0  3  0  0  0  0  0  0
  -21.1580   -5.5440   25.2500 C   0  0  0  0  0  3  0  0  0  0  0  0
  -21.4850   -4.1740   25.2460 C   0  0  0  0  0  0  0  0  0  0  0  0
  -21.9080   -3.5560   24.0580 C   0  0  0  0  0  3  0  0  0  0  0  0
  -22.0030   -4.3050   22.8710 C   0  0  0  0  0  0  0  0  0  0  0  0
  -22.3910   -3.6980   21.7230 F   0  0  0  0  0  0  0  0  0  0  0  0
  -21.3880   -3.4510   26.3860 F   0  0  0  0  0  0  0  0  0  0  0  0
  -22.7330  -12.9900   21.0770 C   0  0  0  0  0  0  0  0  0  0  0  0
  -22.0440  -12.3220   21.9970 N   0  0  0  0  0  0  0  0  0  0  0  0
  -22.2640  -13.9880   20.5310 O   0  0  0  0  0  0  0  0  0  0  0  0
  -22.4360  -11.5160   22.4590 H   0  0  0  0  0  0  0  0  0  0  0  0
  -21.1120  -12.6250   22.2430 H   0  0  0  0  0  0  0  0  0  0  0  0
  -25.3200  -14.6440   20.1070 N   0  0  0  0  0  0  0  0  0  0  0  0
  -24.5540  -15.3000   20.2140 H   0  0  0  0  0  0  0  0  0  0  0  0
  -26.1610  -15.0730   19.7420 H   0  0  0  0  0  0  0  0  0  0  0  0
  1  3  2  0
  2  5  1  0
  2  1  1  0
  4  2  1  0
  5  6  1  0
  7  8  1  0
  7  6  1  0
  9 10  1  0
  9  8  1  0
 11 13  1  0
 11 10  1  0
 12 23  2  0
 13 18  1  0
 14 22  1  0
 14 24  1  0
 15 21  1  0
 15 17  1  0
 16 22  1  0
 17 16  1  0
 18 17  2  0
 19 20  1  0
 19 13  2  0
 20 15  2  0
 21 14  1  0
 22 12  1  0
 24 25  1  0
 24 26  2  0
 27 25  1  0
 28 37  2  0
 28 33  1  0
 29 25  1  0
 29 33  1  0
 30 29  1  0
 31 32  1  0
 31 30  1  0
 32 28  1  0
 33 34  2  0
 34 35  1  0
 36 35  2  0
 37 36  1  0
 38 12  1  0
 38 39  1  0
 38 48  1  0
 39 42  1  0
 40 39  1  0
 40 44  1  0
 41 40  2  0
 44 43  1  0
 46 44  1  0
 46 47  1  0
 46 45  1  0
 48 51  1  1
 48 49  1  0
 50 48  1  0
 52  1  1  0
 53 52  1  0
 54 55  1  0
 54 53  1  0
 56 57  1  0
 56 55  1  0
 57 58  1  0
 59 58  1  0
 59 60  1  0
 61 60  1  0
 61 62  1  0
 63 71  1  0
 64 69  1  0
 65 66  1  0
 65 64  1  0
 67 66  1  0
 67 76  1  0
 67 68  1  0
 69 63  1  0
 69 68  1  0
 70 63  2  0
 71 62  1  0
 71 72  1  0
 73 74  2  0
 74 75  1  0
 74 93  1  0
 75 78  1  0
 76 73  1  0
 76 77  1  0
 77 75  2  0
 78 79  1  0
 79 80  2  0
 81 84  1  0
 81 80  1  0
 82 81  2  0
 83 82  1  0
 83 78  2  0
 84 85  1  0
 85 90  2  0
 85 86  1  0
 86 87  2  0
 88 87  1  0
 88 92  1  0
 89 88  2  0
 90 89  1  0
 91 90  1  0
 93 94  1  0
 94 97  1  0
 94 96  1  0
 95 93  2  0
 98 99  1  0
 98 73  1  0
100 98  1  0
M  ISO  4  10 101  11 101  63 100  71 100
M  END
>  <TORSDO>  (41) 
F 33

>  <SCORE>  (41) 
-6.074

>  <name>  (41) 
43

>  <ligand_id>  (41) 
43

>  <original_smiles>  (41) 
[H]c1c([H])c([H])c2c(c1[H])C([H])([H])C([H])([H])C([H])([H])C2([H])N([H])C(=O)C1([H])N(C(=O)C([H])(N([H])C(=O)C([H])(N([H])C([H])([H])[H])C([H])([H])[H])C(C([H])([H])[H])(C([H])([H])[H])C([H])([H])[H])C([H])([H])c2c([H])c(OC([H])([H])C([H])([H])C([H])([H])OC([H])([H])C([H])([H])N([H])C(=O)C([H])([H])OC([H])([H])C([H])([H])OC([H])([H])C([H])([H])OC([H])([H])C([H])([H])C([H])([H])N([H])C(=O)N3C([H])([H])C([H])([H])C([H])([H])C([H])(n4nc(-c5c([H])c([H])c(Oc6c([H])c([H])c(F)c([H])c6F)c([H])c5[H])c(C(=O)N([H])[H])c4N([H])[H])C3([H])[H])c([H])c([H])c2C1([H])[H]

>  <smiles>  (41) 
[H]c1c([H])c([H])c2c(c1[H])C([H])([H])C([H])([H])C([H])([H])C2([H])N([H])C(=O)C1([H])N(C(=O)C([H])(N([H])C(=O)C([H])(N([H])C([H])([H])[H])C([H])([H])[H])C(C([H])([H])[H])(C([H])([H])[H])C([H])([H])[H])C([H])([H])c2c([H])c(OC([H])([H])C([H])([H])C([H])([H])OC([H])([H])C([H])([H])N([H])C(=O)C([H])([H])OC([H])([H])C([H])([H])OC([H])([H])C([H])([H])OC([H])([H])C([H])([H])C([H])([H])N([H])C(=O)N3C([H])([H])C([H])([H])C([H])([H])C([H])(n4nc(-c5c([H])c([H])c(Oc6c([H])c([H])c(F)c([H])c6F)c([H])c5[H])c(C(=O)N([H])[H])c4N([H])[H])C3([H])[H])c([H])c([H])c2C1([H])[H]

$$$$
44:0:0
     RDKit          3D

102109  0  0  1  0  0  0  0  0999 V2000
  -28.9110  -19.9150   17.7100 C   0  0  0  0  0  2  0  0  0  0  0  0
  -30.0650  -18.1990   19.1000 C   0  0  0  0  0  0  0  0  0  0  0  0
  -29.7600  -19.4750   18.8230 N   0  0  0  0  0  0  0  0  0  0  0  0
  -29.7030  -17.2760   18.3680 O   0  0  0  0  0  0  0  0  0  0  0  0
  -30.1180  -20.1960   19.4370 H   0  0  0  0  0  0  0  0  0  0  0  0
  -32.3420  -17.5330   19.9980 C   0  0  0  0  0  1  0  0  0  0  0  0
  -30.8900  -17.9170   20.3730 C   0  0  0  0  0  3  0  0  0  0  0  0
  -30.1470  -17.0030   21.4220 C   0  0  0  0  0  3  0  0  0  0  0  0
  -30.4340  -14.7150   20.3300 C   0  0  0  0  0  0  0  0  0  0  0  0
  -30.1810  -12.5380   19.2130 C   0  0  0  0  0  2  0  0  0  0  0  0
  -29.2090  -12.6760   18.0280 C   0  0  0  0  0  2  0  0  0  0  0  0
  -27.7530  -12.4870   18.4960 C   0  0  0  0  0  2  0  0  0  0  0  0
  -27.4040  -13.3510   19.7380 C   0  0  0  0  0  3  0  0  0  0  0  0
  -28.4860  -13.1950   20.8270 C   0  0  0  0  0  2  0  0  0  0  0  0
  -29.7890  -13.5270   20.2240 N   0  0  0  0  0  0  0  0  0  0  0  0
  -31.5050  -14.9420   19.7690 O   0  0  0  0  0  0  0  0  0  0  0  0
  -29.7830  -15.6310   21.0520 N   0  0  0  0  0  0  0  0  0  0  0  0
  -28.9180  -15.3010   21.4530 H   0  0  0  0  0  0  0  0  0  0  0  0
  -25.0170  -13.8770   20.5470 C   0  0  0  0  0  0  0  0  0  0  0  0
  -23.9830  -13.0650   20.9300 C   0  0  0  0  0  0  0  0  0  0  0  0
  -24.4780  -11.7280   20.8410 C   0  0  0  0  0  0  0  0  0  0  0  0
  -26.0750  -13.0320   20.2510 N   0  0  0  0  0  0  0  0  0  0  0  0
  -25.7550  -11.7320   20.4810 N   0  0  0  0  0  0  0  0  0  0  0  0
  -23.7920  -10.4420   21.0150 C   0  0  0  0  0  0  0  0  0  0  0  0
  -24.2560   -9.4760   21.9350 C   0  0  0  0  0  3  0  0  0  0  0  0
  -23.5670   -8.2540   22.0980 C   0  0  0  0  0  3  0  0  0  0  0  0
  -22.4010   -7.9910   21.3390 C   0  0  0  0  0  0  0  0  0  0  0  0
  -21.9580   -8.9470   20.4080 C   0  0  0  0  0  3  0  0  0  0  0  0
  -22.6460  -10.1600   20.2430 C   0  0  0  0  0  3  0  0  0  0  0  0
  -21.6820   -6.8220   21.4140 O   0  0  0  0  0  0  0  0  0  0  0  0
  -21.6520   -6.0670   22.5600 C   0  0  0  0  0  0  0  0  0  0  0  0
  -21.1590   -6.5820   23.7780 C   0  0  0  0  0  3  0  0  0  0  0  0
  -21.0800   -5.7500   24.9140 C   0  0  0  0  0  3  0  0  0  0  0  0
  -21.4840   -4.4040   24.8290 C   0  0  0  0  0  0  0  0  0  0  0  0
  -21.9700   -3.8870   23.6150 C   0  0  0  0  0  3  0  0  0  0  0  0
  -22.0500   -4.7180   22.4820 C   0  0  0  0  0  0  0  0  0  0  0  0
  -22.4990   -4.2080   21.3110 F   0  0  0  0  0  0  0  0  0  0  0  0
  -21.4020   -3.6030   25.9170 F   0  0  0  0  0  0  0  0  0  0  0  0
  -22.5850  -13.4980   21.2690 C   0  0  0  0  0  0  0  0  0  0  0  0
  -21.9050  -12.7570   22.1390 N   0  0  0  0  0  0  0  0  0  0  0  0
  -22.1010  -14.5270   20.7980 O   0  0  0  0  0  0  0  0  0  0  0  0
  -22.3080  -11.9230   22.5410 H   0  0  0  0  0  0  0  0  0  0  0  0
  -20.9710  -13.0300   22.4070 H   0  0  0  0  0  0  0  0  0  0  0  0
  -25.1390  -15.2550   20.4020 N   0  0  0  0  0  0  0  0  0  0  0  0
  -24.3590  -15.8880   20.5510 H   0  0  0  0  0  0  0  0  0  0  0  0
  -25.9580  -15.7180   20.0310 H   0  0  0  0  0  0  0  0  0  0  0  0
  -30.7340  -16.9940   22.8390 C   0  0  0  0  0  0  0  0  0  0  0  0
  -30.5760  -18.0810   23.5810 N   0  0  0  0  0  0  0  0  0  0  0  0
  -31.3130  -16.0050   23.2850 O   0  0  0  0  0  0  0  0  0  0  0  0
  -30.0830  -18.8860   23.2180 H   0  0  0  0  0  0  0  0  0  0  0  0
  -30.9190  -18.0980   24.5310 H   0  0  0  0  0  0  0  0  0  0  0  0
  -29.7120  -20.6240   16.6070 C   0  0  0  0  0  2  0  0  0  0  0  0
  -30.1780  -21.8780   17.0890 O   0  0  0  0  0  0  0  0  0  0  0  0
  -30.5870  -22.7580   16.0430 C   0  0  0  0  0  2  0  0  0  0  0  0
  -31.0520  -24.0920   16.6470 C   0  0  0  0  0  2  0  0  0  0  0  0
  -32.3520  -23.9270   17.1950 O   0  0  0  0  0  0  0  0  0  0  0  0
  -32.8960  -25.1090   17.7730 C   0  0  0  0  0  2  0  0  0  0  0  0
  -32.4060  -25.3200   19.2170 C   0  0  0  0  0  2  0  0  0  0  0  0
  -31.1940  -26.0670   19.2610 O   0  0  0  0  0  0  0  0  0  0  0  0
  -30.6900  -26.1710   20.5910 C   0  0  0  0  0  2  0  0  0  0  0  0
  -29.5640  -27.2100   20.6960 C   0  0  0  0  0  2  0  0  0  0  0  0
  -28.3580  -26.6940   20.1420 O   0  0  0  0  0  0  0  0  0  0  0  0
  -24.5690  -31.9420   23.2160 C   0  0  0  0  0  0  0  0  0  0  0  0
  -27.2250  -27.4770   20.1980 C   0  0  0  0  0  0  0  0  0  0  0  0
  -23.3600  -30.5260   21.5840 C   0  0  0  0  0  3  0  0  0  0  0  0
  -24.8130  -28.9600   20.1910 C   0  0  0  0  0  0  0  0  0  0  0  0
  -25.8820  -30.8790   21.3870 C   0  0  0  0  0  2  0  0  0  0  0  0
  -25.9670  -29.4980   20.7740 C   0  0  0  0  0  0  0  0  0  0  0  0
  -27.1710  -28.7670   20.7820 C   0  0  0  0  0  3  0  0  0  0  0  0
  -26.0520  -26.9450   19.6240 C   0  0  0  0  0  3  0  0  0  0  0  0
  -24.8480  -27.6770   19.6160 C   0  0  0  0  0  3  0  0  0  0  0  0
  -23.5710  -29.8210   20.2160 C   0  0  0  0  0  2  0  0  0  0  0  0
  -24.6230  -31.1290   22.1230 N   0  0  0  0  0  0  0  0  0  0  0  0
  -23.4890  -32.2280   23.7480 O   0  0  0  0  0  0  0  0  0  0  0  0
  -22.6990  -29.5230   22.5560 C   0  0  0  0  0  0  0  0  0  0  0  0
  -21.3810  -29.3280   22.4030 N   0  0  0  0  0  0  0  0  0  0  0  0
  -23.3690  -28.9230   23.4000 O   0  0  0  0  0  0  0  0  0  0  0  0
  -20.9030  -29.8660   21.6920 H   0  0  0  0  0  0  0  0  0  0  0  0
  -18.0030  -28.1230   22.8450 C   0  0  0  0  0  0  0  0  0  0  0  0
  -20.5520  -28.4020   23.1730 C   0  0  0  0  0  3  0  0  0  0  0  0
  -20.6760  -26.9600   22.6310 C   0  0  0  0  0  2  0  0  0  0  0  0
  -19.6010  -26.6080   21.5990 C   0  0  0  0  0  2  0  0  0  0  0  0
  -18.2030  -26.7590   22.2060 C   0  0  0  0  0  2  0  0  0  0  0  0
  -19.1070  -28.9010   23.2850 C   0  0  0  0  0  0  0  0  0  0  0  0
  -18.8690  -30.1780   23.8380 C   0  0  0  0  0  3  0  0  0  0  0  0
  -17.5580  -30.6760   23.9590 C   0  0  0  0  0  3  0  0  0  0  0  0
  -16.4680  -29.8970   23.5370 C   0  0  0  0  0  3  0  0  0  0  0  0
  -16.6920  -28.6210   22.9860 C   0  0  0  0  0  3  0  0  0  0  0  0
  -25.8580  -32.5700   23.8360 C   0  0  0  0  0  3  0  0  0  0  0  0
  -25.5730  -33.9850   24.1070 N   0  0  0  0  0  0  0  0  0  0  0  0
  -25.9390  -34.9990   23.3120 C   0  0  0  0  0  0  0  0  0  0  0  0
  -26.6230  -34.8410   22.2970 O   0  0  0  0  0  0  0  0  0  0  0  0
  -24.9670  -34.1810   24.8900 H   0  0  0  0  0  0  0  0  0  0  0  0
  -24.2600  -36.8130   22.8500 C   0  0  0  0  0  1  0  0  0  0  0  0
  -25.4720  -36.4120   23.7060 C   0  0  0  0  0  3  0  0  0  0  0  0
  -27.6000  -37.2880   24.5630 C   0  0  0  0  0  1  0  0  0  0  0  0
  -26.5300  -37.4380   23.5800 N   0  0  0  0  0  0  0  0  0  0  0  0
  -26.1410  -38.3730   23.6750 H   0  0  0  0  0  0  0  0  0  0  0  0
  -26.3400  -31.8340   25.1450 C   0  0  1  0  0  0  0  0  0  0  0  0
  -25.2260  -31.6470   26.2000 C   0  0  0  0  0  1  0  0  0  0  0  0
  -26.9080  -30.4360   24.8040 C   0  0  0  0  0  1  0  0  0  0  0  0
  -27.4910  -32.6320   25.8010 C   0  0  0  0  0  1  0  0  0  0  0  0
  1  3  1  0
  2  7  1  0
  3  2  1  0
  3  5  1  0
  4  2  2  0
  7  6  1  0
  7  8  1  0
  8 47  1  0
  9 17  1  0
 10 15  1  0
 11 12  1  0
 11 10  1  0
 13 12  1  0
 13 22  1  0
 13 14  1  0
 15  9  1  0
 15 14  1  0
 16  9  2  0
 17  8  1  0
 17 18  1  0
 19 20  2  0
 20 39  1  0
 21 20  1  0
 21 24  1  0
 22 23  1  0
 22 19  1  0
 23 21  2  0
 24 25  1  0
 25 26  2  0
 27 30  1  0
 27 26  1  0
 28 27  2  0
 29 28  1  0
 29 24  2  0
 30 31  1  0
 31 32  1  0
 32 33  2  0
 34 33  1  0
 34 38  1  0
 35 34  2  0
 36 31  2  0
 36 35  1  0
 37 36  1  0
 39 40  1  0
 40 43  1  0
 40 42  1  0
 41 39  2  0
 44 19  1  0
 44 45  1  0
 46 44  1  0
 47 49  2  0
 47 48  1  0
 48 51  1  0
 50 48  1  0
 52 53  1  0
 52  1  1  0
 54 55  1  0
 54 53  1  0
 55 56  1  0
 56 57  1  0
 57 58  1  0
 58 59  1  0
 59 60  1  0
 60 61  1  0
 62 64  1  0
 62 61  1  0
 63 74  2  0
 64 69  1  0
 65 73  1  0
 65 75  1  0
 66 72  1  0
 66 68  1  0
 67 73  1  0
 68 69  2  0
 68 67  1  0
 70 64  2  0
 71 70  1  0
 71 66  2  0
 72 65  1  0
 73 63  1  0
 75 77  2  0
 76 75  1  0
 78 76  1  0
 79 88  2  0
 79 84  1  0
 80 76  1  0
 80 84  1  0
 81 80  1  0
 82 83  1  0
 82 81  1  0
 83 79  1  0
 84 85  2  0
 85 86  1  0
 87 86  2  0
 88 87  1  0
 89 63  1  0
 89 90  1  0
 89 99  1  0
 90 93  1  0
 91 95  1  0
 91 90  1  0
 92 91  2  0
 95 94  1  0
 97 98  1  0
 97 95  1  0
 97 96  1  0
 99102  1  1
 99100  1  0
101 99  1  0
M  ISO  4   9 100  17 100  61 101  62 101
M  END
>  <TORSDO>  (42) 
F 30

>  <SCORE>  (42) 
-10.196

>  <name>  (42) 
44

>  <ligand_id>  (42) 
44

>  <original_smiles>  (42) 
[H]c1c([H])c([H])c2c(c1[H])C([H])([H])C([H])([H])C([H])([H])C2([H])N([H])C(=O)C1([H])N(C(=O)C([H])(N([H])C(=O)C([H])(N([H])C([H])([H])[H])C([H])([H])[H])C(C([H])([H])[H])(C([H])([H])[H])C([H])([H])[H])C([H])([H])c2c([H])c(OC([H])([H])C([H])([H])OC([H])([H])C([H])([H])OC([H])([H])C([H])([H])OC([H])([H])C([H])([H])N([H])C(=O)C([H])(C([H])([H])[H])C([H])(C(=O)N([H])[H])N([H])C(=O)N3C([H])([H])C([H])([H])C([H])([H])C([H])(n4nc(-c5c([H])c([H])c(Oc6c([H])c([H])c(F)c([H])c6F)c([H])c5[H])c(C(=O)N([H])[H])c4N([H])[H])C3([H])[H])c([H])c([H])c2C1([H])[H]

>  <smiles>  (42) 
[H]c1c([H])c([H])c2c(c1[H])C([H])([H])C([H])([H])C([H])([H])C2([H])N([H])C(=O)C1([H])N(C(=O)C([H])(N([H])C(=O)C([H])(N([H])C([H])([H])[H])C([H])([H])[H])C(C([H])([H])[H])(C([H])([H])[H])C([H])([H])[H])C([H])([H])c2c([H])c(OC([H])([H])C([H])([H])OC([H])([H])C([H])([H])OC([H])([H])C([H])([H])OC([H])([H])C([H])([H])N([H])C(=O)C([H])(C([H])([H])[H])C([H])(C(=O)N([H])[H])N([H])C(=O)N3C([H])([H])C([H])([H])C([H])([H])C([H])(n4nc(-c5c([H])c([H])c(Oc6c([H])c([H])c(F)c([H])c6F)c([H])c5[H])c(C(=O)N([H])[H])c4N([H])[H])C3([H])[H])c([H])c([H])c2C1([H])[H]

$$$$
45:0:0
     RDKit          3D

104111  0  0  1  0  0  0  0  0999 V2000
  -28.4230  -23.0530   18.1160 C   0  0  0  0  0  2  0  0  0  0  0  0
  -27.1880  -22.3930   18.6000 N   0  0  0  0  0  4  0  0  0  0  0  0
  -26.4250  -23.0490   18.5230 H   0  0  0  0  0  0  0  0  0  0  0  0
  -27.3040  -22.1730   19.5770 H   0  0  0  0  0  0  0  0  0  0  0  0
  -26.7790  -21.1600   17.8870 C   0  0  0  0  0  2  0  0  0  0  0  0
  -26.7420  -19.9830   18.8680 C   0  0  0  0  0  2  0  0  0  0  0  0
  -27.9430  -20.0510   19.6370 O   0  0  0  0  0  0  0  0  0  0  0  0
  -28.8110  -18.9400   19.4540 C   0  0  0  0  0  2  0  0  0  0  0  0
  -30.2830  -19.3590   19.6140 C   0  0  0  0  0  2  0  0  0  0  0  0
  -30.5380  -20.4760   20.6500 C   0  0  0  0  0  2  0  0  0  0  0  0
  -31.9870  -20.4900   21.1750 C   0  0  0  0  0  2  0  0  0  0  0  0
  -32.3770  -19.2540   21.7740 O   0  0  0  0  0  0  0  0  0  0  0  0
  -31.6320  -18.8540   22.9240 C   0  0  0  0  0  2  0  0  0  0  0  0
  -30.6020  -17.7690   22.5540 C   0  0  0  0  0  2  0  0  0  0  0  0
  -31.2820  -16.4910   22.0340 C   0  0  0  0  0  2  0  0  0  0  0  0
  -30.4470  -15.0010   20.2220 C   0  0  0  0  0  0  0  0  0  0  0  0
  -30.2180  -12.8000   19.1390 C   0  0  0  0  0  2  0  0  0  0  0  0
  -29.2320  -12.7620   17.9660 C   0  0  0  0  0  2  0  0  0  0  0  0
  -27.8030  -12.4910   18.4710 C   0  0  0  0  0  2  0  0  0  0  0  0
  -27.4010  -13.4660   19.6060 C   0  0  0  0  0  3  0  0  0  0  0  0
  -28.4790  -13.5190   20.7090 C   0  0  0  0  0  2  0  0  0  0  0  0
  -29.7840  -13.8290   20.0950 N   0  0  0  0  0  0  0  0  0  0  0  0
  -31.2620  -15.4180   19.3950 O   0  0  0  0  0  0  0  0  0  0  0  0
  -30.3420  -15.5340   21.4510 N   0  0  0  0  0  0  0  0  0  0  0  0
  -29.7010  -15.0780   22.0840 H   0  0  0  0  0  0  0  0  0  0  0  0
  -25.0290  -13.9640   20.4820 C   0  0  0  0  0  0  0  0  0  0  0  0
  -24.0170  -13.1350   20.8940 C   0  0  0  0  0  0  0  0  0  0  0  0
  -24.5250  -11.8050   20.7850 C   0  0  0  0  0  0  0  0  0  0  0  0
  -26.0900  -13.1270   20.1590 N   0  0  0  0  0  0  0  0  0  0  0  0
  -25.7930  -11.8240   20.3950 N   0  0  0  0  0  0  0  0  0  0  0  0
  -23.8620  -10.5090   20.9780 C   0  0  0  0  0  0  0  0  0  0  0  0
  -24.3270   -9.5760   21.9290 C   0  0  0  0  0  3  0  0  0  0  0  0
  -23.6610   -8.3440   22.1110 C   0  0  0  0  0  3  0  0  0  0  0  0
  -22.5130   -8.0390   21.3400 C   0  0  0  0  0  0  0  0  0  0  0  0
  -22.0680   -8.9620   20.3770 C   0  0  0  0  0  3  0  0  0  0  0  0
  -22.7360  -10.1850   20.1950 C   0  0  0  0  0  3  0  0  0  0  0  0
  -21.8170   -6.8580   21.4260 O   0  0  0  0  0  0  0  0  0  0  0  0
  -21.7330   -6.1580   22.6030 C   0  0  0  0  0  0  0  0  0  0  0  0
  -21.1820   -6.7280   23.7720 C   0  0  0  0  0  3  0  0  0  0  0  0
  -21.0520   -5.9490   24.9400 C   0  0  0  0  0  3  0  0  0  0  0  0
  -21.4620   -4.6020   24.9380 C   0  0  0  0  0  0  0  0  0  0  0  0
  -22.0040   -4.0320   23.7730 C   0  0  0  0  0  3  0  0  0  0  0  0
  -22.1360   -4.8080   22.6080 C   0  0  0  0  0  0  0  0  0  0  0  0
  -22.6400   -4.2470   21.4820 F   0  0  0  0  0  0  0  0  0  0  0  0
  -21.3300   -3.8520   26.0560 F   0  0  0  0  0  0  0  0  0  0  0  0
  -22.6230  -13.5490   21.2690 C   0  0  0  0  0  0  0  0  0  0  0  0
  -21.9810  -12.7950   22.1550 N   0  0  0  0  0  0  0  0  0  0  0  0
  -22.1130  -14.5690   20.8130 O   0  0  0  0  0  0  0  0  0  0  0  0
  -22.4070  -11.9690   22.5440 H   0  0  0  0  0  0  0  0  0  0  0  0
  -21.0490  -13.0510   22.4460 H   0  0  0  0  0  0  0  0  0  0  0  0
  -25.1340  -15.3440   20.3440 N   0  0  0  0  0  0  0  0  0  0  0  0
  -24.3550  -15.9710   20.5210 H   0  0  0  0  0  0  0  0  0  0  0  0
  -25.9610  -15.8210   20.0050 H   0  0  0  0  0  0  0  0  0  0  0  0
  -29.7260  -22.4160   18.6470 C   0  0  0  0  0  2  0  0  0  0  0  0
  -30.9730  -22.8570   17.8700 C   0  0  0  0  0  2  0  0  0  0  0  0
  -31.1590  -24.2680   17.9590 O   0  0  0  0  0  0  0  0  0  0  0  0
  -32.5040  -24.6830   17.7300 C   0  0  0  0  0  2  0  0  0  0  0  0
  -33.3050  -24.7000   19.0470 C   0  0  0  0  0  2  0  0  0  0  0  0
  -32.8700  -25.8180   20.0200 C   0  0  0  0  0  2  0  0  0  0  0  0
  -31.6120  -25.5000   20.8520 C   0  0  0  0  0  2  0  0  0  0  0  0
  -31.0250  -26.7040   21.3390 O   0  0  0  0  0  0  0  0  0  0  0  0
  -30.1140  -27.3160   20.4240 C   0  0  0  0  0  2  0  0  0  0  0  0
  -28.6920  -26.7710   20.6090 C   0  0  0  0  0  2  0  0  0  0  0  0
  -27.9510  -26.9240   19.3920 O   0  0  0  0  0  0  0  0  0  0  0  0
  -24.5410  -31.8530   23.1650 C   0  0  0  0  0  0  0  0  0  0  0  0
  -26.8330  -27.7070   19.5110 C   0  0  0  0  0  0  0  0  0  0  0  0
  -23.1700  -30.6070   21.5150 C   0  0  0  0  0  3  0  0  0  0  0  0
  -24.4720  -29.2060   19.8240 C   0  0  0  0  0  0  0  0  0  0  0  0
  -25.6690  -30.9730   21.1340 C   0  0  0  0  0  2  0  0  0  0  0  0
  -25.6750  -29.6740   20.3650 C   0  0  0  0  0  0  0  0  0  0  0  0
  -26.8580  -28.9330   20.2110 C   0  0  0  0  0  3  0  0  0  0  0  0
  -25.6270  -27.2540   18.9450 C   0  0  0  0  0  3  0  0  0  0  0  0
  -24.4400  -28.0000   19.1020 C   0  0  0  0  0  3  0  0  0  0  0  0
  -23.2430  -30.0470   20.0670 C   0  0  0  0  0  2  0  0  0  0  0  0
  -24.4810  -31.1530   21.9940 N   0  0  0  0  0  0  0  0  0  0  0  0
  -23.5180  -32.0830   23.8210 O   0  0  0  0  0  0  0  0  0  0  0  0
  -22.5900  -29.5110   22.4390 C   0  0  0  0  0  0  0  0  0  0  0  0
  -21.2650  -29.3130   22.3720 N   0  0  0  0  0  0  0  0  0  0  0  0
  -23.3300  -28.8470   23.1690 O   0  0  0  0  0  0  0  0  0  0  0  0
  -20.7320  -29.9090   21.7550 H   0  0  0  0  0  0  0  0  0  0  0  0
  -17.9540  -27.9390   22.8450 C   0  0  0  0  0  0  0  0  0  0  0  0
  -20.4980  -28.3100   23.1110 C   0  0  0  0  0  3  0  0  0  0  0  0
  -20.6630  -26.9040   22.4870 C   0  0  0  0  0  2  0  0  0  0  0  0
  -19.5690  -26.5630   21.4690 C   0  0  0  0  0  2  0  0  0  0  0  0
  -18.1880  -26.6200   22.1270 C   0  0  0  0  0  2  0  0  0  0  0  0
  -19.0380  -28.7400   23.2900 C   0  0  0  0  0  0  0  0  0  0  0  0
  -18.7630  -29.9730   23.9210 C   0  0  0  0  0  3  0  0  0  0  0  0
  -17.4370  -30.4030   24.1140 C   0  0  0  0  0  3  0  0  0  0  0  0
  -16.3680  -29.5980   23.6910 C   0  0  0  0  0  3  0  0  0  0  0  0
  -16.6270  -28.3680   23.0580 C   0  0  0  0  0  3  0  0  0  0  0  0
  -25.8890  -32.4130   23.7160 C   0  0  0  0  0  3  0  0  0  0  0  0
  -26.4730  -31.5640   24.9120 C   0  0  1  0  0  0  0  0  0  0  0  0
  -25.4630  -31.3140   26.0540 C   0  0  0  0  0  1  0  0  0  0  0  0
  -26.9700  -30.1840   24.4190 C   0  0  0  0  0  1  0  0  0  0  0  0
  -27.7010  -32.2860   25.5190 C   0  0  0  0  0  1  0  0  0  0  0  0
  -25.6520  -33.8040   24.1260 N   0  0  0  0  0  0  0  0  0  0  0  0
  -25.9850  -34.8820   23.4030 C   0  0  0  0  0  0  0  0  0  0  0  0
  -26.6000  -34.8070   22.3350 O   0  0  0  0  0  0  0  0  0  0  0  0
  -25.1130  -33.9410   24.9690 H   0  0  0  0  0  0  0  0  0  0  0  0
  -24.3110  -36.7520   23.2250 C   0  0  0  0  0  1  0  0  0  0  0  0
  -25.5720  -36.2590   23.9520 C   0  0  0  0  0  3  0  0  0  0  0  0
  -27.7730  -37.0270   24.7150 C   0  0  0  0  0  1  0  0  0  0  0  0
  -26.6320  -37.2810   23.8410 N   0  0  0  0  0  0  0  0  0  0  0  0
  -26.2690  -38.2030   24.0620 H   0  0  0  0  0  0  0  0  0  0  0  0
  1  2  1  0
  1 54  1  0
  2  4  1  0
  3  2  1  0
  5  2  1  0
  5  6  1  0
  6  7  1  0
  8  9  1  0
  8  7  1  0
  9 10  1  0
 10 11  1  0
 11 12  1  0
 12 13  1  0
 14 13  1  0
 15 14  1  0
 16 24  1  0
 17 22  1  0
 18 19  1  0
 18 17  1  0
 20 19  1  0
 20 29  1  0
 20 21  1  0
 22 16  1  0
 22 21  1  0
 23 16  2  0
 24 15  1  0
 24 25  1  0
 26 27  2  0
 27 46  1  0
 28 27  1  0
 28 31  1  0
 29 30  1  0
 29 26  1  0
 30 28  2  0
 31 32  1  0
 32 33  2  0
 34 37  1  0
 34 33  1  0
 35 34  2  0
 36 35  1  0
 36 31  2  0
 37 38  1  0
 38 43  2  0
 38 39  1  0
 39 40  2  0
 41 40  1  0
 41 45  1  0
 42 41  2  0
 43 42  1  0
 44 43  1  0
 46 47  1  0
 47 50  1  0
 47 49  1  0
 48 46  2  0
 51 26  1  0
 51 52  1  0
 53 51  1  0
 55 56  1  0
 55 54  1  0
 57 56  1  0
 57 58  1  0
 58 59  1  0
 59 60  1  0
 60 61  1  0
 62 63  1  0
 62 61  1  0
 64 66  1  0
 64 63  1  0
 65 76  2  0
 66 71  1  0
 67 75  1  0
 67 77  1  0
 68 74  1  0
 68 70  1  0
 69 75  1  0
 70 69  1  0
 71 70  2  0
 72 73  1  0
 72 66  2  0
 73 68  2  0
 74 67  1  0
 75 65  1  0
 77 79  2  0
 78 77  1  0
 80 78  1  0
 81 90  2  0
 81 86  1  0
 82 78  1  0
 82 86  1  0
 83 82  1  0
 84 85  1  0
 84 83  1  0
 85 81  1  0
 86 87  2  0
 87 88  1  0
 89 88  2  0
 90 89  1  0
 91 65  1  0
 91 96  1  0
 91 92  1  0
 92 95  1  1
 92 93  1  0
 94 92  1  0
 96 99  1  0
 97101  1  0
 97 96  1  0
 98 97  2  0
101100  1  0
103101  1  0
103104  1  0
103102  1  0
M  ISO  4  16 100  24 100  63 101  64 101
M  END
>  <TORSDO>  (43) 
F 38

>  <SCORE>  (43) 
-8.959

>  <name>  (43) 
45

>  <ligand_id>  (43) 
45

>  <original_smiles>  (43) 
[H]c1c([H])c([H])c2c(c1[H])C([H])([H])C([H])([H])C([H])([H])C2([H])N([H])C(=O)C1([H])N(C(=O)C([H])(N([H])C(=O)C([H])(N([H])C([H])([H])[H])C([H])([H])[H])C(C([H])([H])[H])(C([H])([H])[H])C([H])([H])[H])C([H])([H])c2c([H])c(OC([H])([H])C([H])([H])OC([H])([H])C([H])([H])C([H])([H])C([H])([H])OC([H])([H])C([H])([H])C([H])([H])[N+]([H])([H])C([H])([H])C([H])([H])OC([H])([H])C([H])([H])C([H])([H])C([H])([H])OC([H])([H])C([H])([H])C([H])([H])N([H])C(=O)N3C([H])([H])C([H])([H])C([H])([H])C([H])(n4nc(-c5c([H])c([H])c(Oc6c([H])c([H])c(F)c([H])c6F)c([H])c5[H])c(C(=O)N([H])[H])c4N([H])[H])C3([H])[H])c([H])c([H])c2C1([H])[H]

>  <smiles>  (43) 
[H]c1c([H])c([H])c2c(c1[H])C([H])([H])C([H])([H])C([H])([H])C2([H])N([H])C(=O)C1([H])N(C(=O)C([H])(N([H])C(=O)C([H])(N([H])C([H])([H])[H])C([H])([H])[H])C(C([H])([H])[H])(C([H])([H])[H])C([H])([H])[H])C([H])([H])c2c([H])c(OC([H])([H])C([H])([H])OC([H])([H])C([H])([H])C([H])([H])C([H])([H])OC([H])([H])C([H])([H])C([H])([H])[N+]([H])([H])C([H])([H])C([H])([H])OC([H])([H])C([H])([H])C([H])([H])C([H])([H])OC([H])([H])C([H])([H])C([H])([H])N([H])C(=O)N3C([H])([H])C([H])([H])C([H])([H])C([H])(n4nc(-c5c([H])c([H])c(Oc6c([H])c([H])c(F)c([H])c6F)c([H])c5[H])c(C(=O)N([H])[H])c4N([H])[H])C3([H])[H])c([H])c([H])c2C1([H])[H]

$$$$
46:0:0
     RDKit          3D

107114  0  0  1  0  0  0  0  0999 V2000
  -30.0370  -27.9500   17.3800 C   0  0  0  0  0  2  0  0  0  0  0  0
  -30.6310  -29.1960   18.0540 C   0  0  0  0  0  2  0  0  0  0  0  0
  -30.8940  -28.8980   19.4150 O   0  0  0  0  0  0  0  0  0  0  0  0
  -31.5270  -29.9660   20.1150 C   0  0  0  0  0  2  0  0  0  0  0  0
  -31.7510  -29.5330   21.5660 C   0  0  0  0  0  0  0  0  0  0  0  0
  -32.1530  -28.2720   21.7370 N   0  0  0  0  0  0  0  0  0  0  0  0
  -31.5480  -30.3110   22.5010 O   0  0  0  0  0  0  0  0  0  0  0  0
  -32.2220  -27.7170   20.8940 H   0  0  0  0  0  0  0  0  0  0  0  0
  -32.3250  -27.5820   23.0100 C   0  0  0  0  0  2  0  0  0  0  0  0
  -31.8700  -26.1240   22.8750 C   0  0  0  0  0  2  0  0  0  0  0  0
  -30.5920  -26.0880   22.2450 O   0  0  0  0  0  0  0  0  0  0  0  0
  -30.4750  -25.0700   21.2580 C   0  0  0  0  0  2  0  0  0  0  0  0
  -29.0290  -24.9650   20.7440 C   0  0  0  0  0  2  0  0  0  0  0  0
  -28.7640  -25.8340   19.6420 O   0  0  0  0  0  0  0  0  0  0  0  0
  -25.8990  -30.7340   23.9310 C   0  0  0  0  0  0  0  0  0  0  0  0
  -27.7670  -26.7530   19.8580 C   0  0  0  0  0  0  0  0  0  0  0  0
  -24.5120  -30.0420   22.0000 C   0  0  0  0  0  3  0  0  0  0  0  0
  -25.7010  -28.6320   20.2350 C   0  0  0  0  0  0  0  0  0  0  0  0
  -27.0640  -29.9360   21.8820 C   0  0  0  0  0  2  0  0  0  0  0  0
  -26.9060  -28.7690   20.9330 C   0  0  0  0  0  0  0  0  0  0  0  0
  -27.9420  -27.8320   20.7480 C   0  0  0  0  0  3  0  0  0  0  0  0
  -26.5550  -26.6260   19.1530 C   0  0  0  0  0  3  0  0  0  0  0  0
  -25.5150  -27.5600   19.3430 C   0  0  0  0  0  3  0  0  0  0  0  0
  -24.6440  -29.6830   20.4930 C   0  0  0  0  0  2  0  0  0  0  0  0
  -25.8430  -30.2340   22.6640 N   0  0  0  0  0  0  0  0  0  0  0  0
  -24.8720  -31.0800   24.5270 O   0  0  0  0  0  0  0  0  0  0  0  0
  -23.6320  -28.9730   22.6850 C   0  0  0  0  0  0  0  0  0  0  0  0
  -22.3100  -29.0590   22.4690 N   0  0  0  0  0  0  0  0  0  0  0  0
  -24.1390  -28.0780   23.3660 O   0  0  0  0  0  0  0  0  0  0  0  0
  -21.9730  -29.8300   21.9070 H   0  0  0  0  0  0  0  0  0  0  0  0
  -18.7660  -28.3530   22.4660 C   0  0  0  0  0  0  0  0  0  0  0  0
  -21.2920  -28.1400   22.9760 C   0  0  0  0  0  3  0  0  0  0  0  0
  -21.2470  -26.8400   22.1400 C   0  0  0  0  0  2  0  0  0  0  0  0
  -20.2220  -26.8910   21.0010 C   0  0  0  0  0  2  0  0  0  0  0  0
  -18.8160  -27.1390   21.5550 C   0  0  0  0  0  2  0  0  0  0  0  0
  -19.9310  -28.8340   23.1210 C   0  0  0  0  0  0  0  0  0  0  0  0
  -19.8370  -29.9900   23.9250 C   0  0  0  0  0  3  0  0  0  0  0  0
  -18.6080  -30.6560   24.0870 C   0  0  0  0  0  3  0  0  0  0  0  0
  -17.4540  -30.1660   23.4500 C   0  0  0  0  0  3  0  0  0  0  0  0
  -17.5350  -29.0170   22.6440 C   0  0  0  0  0  3  0  0  0  0  0  0
  -27.2580  -30.9200   24.6790 C   0  0  0  0  0  3  0  0  0  0  0  0
  -27.5510  -29.7760   25.7270 C   0  0  1  0  0  0  0  0  0  0  0  0
  -26.3890  -29.5310   26.7180 C   0  0  0  0  0  1  0  0  0  0  0  0
  -27.8420  -28.4380   25.0070 C   0  0  0  0  0  1  0  0  0  0  0  0
  -28.8170  -30.1250   26.5440 C   0  0  0  0  0  1  0  0  0  0  0  0
  -27.2240  -32.2330   25.3370 N   0  0  0  0  0  0  0  0  0  0  0  0
  -27.8000  -33.3410   24.8510 C   0  0  0  0  0  0  0  0  0  0  0  0
  -28.4870  -33.3450   23.8250 O   0  0  0  0  0  0  0  0  0  0  0  0
  -26.6340  -32.3170   26.1530 H   0  0  0  0  0  0  0  0  0  0  0  0
  -26.5030  -35.4980   24.9230 C   0  0  0  0  0  1  0  0  0  0  0  0
  -27.5830  -34.6570   25.6240 C   0  0  0  0  0  3  0  0  0  0  0  0
  -29.8040  -34.8400   26.6550 C   0  0  0  0  0  1  0  0  0  0  0  0
  -28.8150  -35.4600   25.7760 N   0  0  0  0  0  0  0  0  0  0  0  0
  -28.5990  -36.3830   26.1450 H   0  0  0  0  0  0  0  0  0  0  0  0
  -30.1760  -27.9800   15.8520 C   0  0  0  0  0  2  0  0  0  0  0  0
  -29.9120  -26.6840   15.3300 O   0  0  0  0  0  0  0  0  0  0  0  0
  -30.4180  -26.5040   14.0140 C   0  0  0  0  0  2  0  0  0  0  0  0
  -30.0610  -25.0980   13.5110 C   0  0  0  0  0  2  0  0  0  0  0  0
  -30.5560  -23.9620   14.4220 C   0  0  0  0  0  2  0  0  0  0  0  0
  -30.2170  -22.5740   13.8480 C   0  0  0  0  0  2  0  0  0  0  0  0
  -30.4530  -21.4280   14.8390 C   0  0  0  0  0  2  0  0  0  0  0  0
  -29.5690  -21.5770   15.9390 O   0  0  0  0  0  0  0  0  0  0  0  0
  -29.6280  -20.4780   16.8360 C   0  0  0  0  0  2  0  0  0  0  0  0
  -28.6680  -20.7410   18.0020 C   0  0  0  0  0  2  0  0  0  0  0  0
  -28.5130  -19.5350   18.9370 C   0  0  0  0  0  2  0  0  0  0  0  0
  -29.7530  -19.2540   19.5700 O   0  0  0  0  0  0  0  0  0  0  0  0
  -29.6570  -18.1980   20.5160 C   0  0  0  0  0  2  0  0  0  0  0  0
  -31.0490  -17.9520   21.1140 C   0  0  0  0  0  2  0  0  0  0  0  0
  -31.0730  -16.9280   22.2660 C   0  0  0  0  0  2  0  0  0  0  0  0
  -31.1440  -14.7180   21.1020 C   0  0  0  0  0  0  0  0  0  0  0  0
  -30.9610  -12.4950   20.0470 C   0  0  0  0  0  2  0  0  0  0  0  0
  -30.1860  -12.5680   18.7180 C   0  0  0  0  0  2  0  0  0  0  0  0
  -28.6690  -12.4560   18.9620 C   0  0  0  0  0  2  0  0  0  0  0  0
  -28.1710  -13.4190   20.0700 C   0  0  0  0  0  3  0  0  0  0  0  0
  -29.0600  -13.3100   21.3280 C   0  0  0  0  0  2  0  0  0  0  0  0
  -30.4600  -13.5570   20.9320 N   0  0  0  0  0  0  0  0  0  0  0  0
  -32.2450  -14.9430   20.5910 O   0  0  0  0  0  0  0  0  0  0  0  0
  -30.5400  -15.6180   21.8890 N   0  0  0  0  0  0  0  0  0  0  0  0
  -29.6570  -15.3420   22.2910 H   0  0  0  0  0  0  0  0  0  0  0  0
  -25.7160  -14.0930   20.4650 C   0  0  0  0  0  0  0  0  0  0  0  0
  -24.5940  -13.3520   20.7190 C   0  0  0  0  0  0  0  0  0  0  0  0
  -25.0250  -11.9900   20.7730 C   0  0  0  0  0  0  0  0  0  0  0  0
  -26.7620  -13.1870   20.3840 N   0  0  0  0  0  0  0  0  0  0  0  0
  -26.3410  -11.9180   20.6210 N   0  0  0  0  0  0  0  0  0  0  0  0
  -24.2530  -10.7470   20.9020 C   0  0  0  0  0  0  0  0  0  0  0  0
  -24.5770   -9.7750   21.8730 C   0  0  0  0  0  3  0  0  0  0  0  0
  -23.8090   -8.5950   21.9880 C   0  0  0  0  0  3  0  0  0  0  0  0
  -22.7040   -8.3810   21.1310 C   0  0  0  0  0  0  0  0  0  0  0  0
  -22.4000   -9.3420   20.1510 C   0  0  0  0  0  3  0  0  0  0  0  0
  -23.1680  -10.5130   20.0340 C   0  0  0  0  0  3  0  0  0  0  0  0
  -21.9180   -7.2540   21.1540 O   0  0  0  0  0  0  0  0  0  0  0  0
  -21.7680   -6.5040   22.2930 C   0  0  0  0  0  0  0  0  0  0  0  0
  -21.2920   -7.0670   23.4980 C   0  0  0  0  0  3  0  0  0  0  0  0
  -21.0870   -6.2450   24.6240 C   0  0  0  0  0  3  0  0  0  0  0  0
  -21.3470   -4.8640   24.5470 C   0  0  0  0  0  0  0  0  0  0  0  0
  -21.8140   -4.3010   23.3460 C   0  0  0  0  0  3  0  0  0  0  0  0
  -22.0210   -5.1200   22.2210 C   0  0  0  0  0  0  0  0  0  0  0  0
  -22.4520   -4.5690   21.0610 F   0  0  0  0  0  0  0  0  0  0  0  0
  -21.1420   -4.0730   25.6260 F   0  0  0  0  0  0  0  0  0  0  0  0
  -23.1840  -13.8620   20.8140 C   0  0  0  0  0  0  0  0  0  0  0  0
  -22.3480  -13.2090   21.6130 N   0  0  0  0  0  0  0  0  0  0  0  0
  -22.8300  -14.8750   20.2130 O   0  0  0  0  0  0  0  0  0  0  0  0
  -22.6440  -12.3890   22.1210 H   0  0  0  0  0  0  0  0  0  0  0  0
  -21.3970  -13.5350   21.7180 H   0  0  0  0  0  0  0  0  0  0  0  0
  -25.9320  -15.4560   20.2800 N   0  0  0  0  0  0  0  0  0  0  0  0
  -25.1740  -16.1280   20.2770 H   0  0  0  0  0  0  0  0  0  0  0  0
  -26.8270  -15.8650   20.0460 H   0  0  0  0  0  0  0  0  0  0  0  0
  1  2  1  0
  2  3  1  0
  3  4  1  0
  4  5  1  0
  5  6  1  0
  5  7  2  0
  6  9  1  0
  8  6  1  0
 10  9  1  0
 11 10  1  0
 12 11  1  0
 13 12  1  0
 14 16  1  0
 14 13  1  0
 15 26  2  0
 16 21  1  0
 17 25  1  0
 17 27  1  0
 18 24  1  0
 18 20  1  0
 19 25  1  0
 20 19  1  0
 21 20  2  0
 22 23  1  0
 22 16  2  0
 23 18  2  0
 24 17  1  0
 25 15  1  0
 27 29  2  0
 28 27  1  0
 30 28  1  0
 31 40  2  0
 31 36  1  0
 32 28  1  0
 32 36  1  0
 33 32  1  0
 34 35  1  0
 34 33  1  0
 35 31  1  0
 36 37  2  0
 37 38  1  0
 39 38  2  0
 40 39  1  0
 41 15  1  0
 41 46  1  0
 41 42  1  0
 42 45  1  1
 42 43  1  0
 44 42  1  0
 46 49  1  0
 47 46  1  0
 47 51  1  0
 48 47  2  0
 51 50  1  0
 51 53  1  0
 53 54  1  0
 53 52  1  0
 55  1  1  0
 56 55  1  0
 57 56  1  0
 58 57  1  0
 58 59  1  0
 60 59  1  0
 60 61  1  0
 61 62  1  0
 62 63  1  0
 63 64  1  0
 64 65  1  0
 65 66  1  0
 66 67  1  0
 67 68  1  0
 68 69  1  0
 70 78  1  0
 71 76  1  0
 72 73  1  0
 72 71  1  0
 74 73  1  0
 74 83  1  0
 74 75  1  0
 76 70  1  0
 76 75  1  0
 77 70  2  0
 78 69  1  0
 78 79  1  0
 80 81  2  0
 81 82  1  0
 81100  1  0
 82 85  1  0
 83 80  1  0
 83 84  1  0
 84 82  2  0
 85 86  1  0
 86 87  2  0
 88 91  1  0
 88 87  1  0
 89 88  2  0
 90 89  1  0
 90 85  2  0
 91 92  1  0
 92 93  1  0
 93 94  2  0
 95 94  1  0
 95 99  1  0
 96 95  2  0
 97 92  2  0
 97 96  1  0
 98 97  1  0
100101  1  0
101104  1  0
101103  1  0
102100  2  0
105 80  1  0
106105  1  0
107105  1  0
M  ISO  4  13 101  14 101  70 100  78 100
M  END
>  <TORSDO>  (44) 
F 40

>  <SCORE>  (44) 
-5.065

>  <name>  (44) 
46

>  <ligand_id>  (44) 
46

>  <original_smiles>  (44) 
[H]c1c([H])c([H])c2c(c1[H])C([H])([H])C([H])([H])C([H])([H])C2([H])N([H])C(=O)C1([H])N(C(=O)C([H])(N([H])C(=O)C([H])(N([H])C([H])([H])[H])C([H])([H])[H])C(C([H])([H])[H])(C([H])([H])[H])C([H])([H])[H])C([H])([H])c2c([H])c(OC([H])([H])C([H])([H])OC([H])([H])C([H])([H])N([H])C(=O)C([H])([H])OC([H])([H])C([H])([H])C([H])([H])OC([H])([H])C([H])([H])C([H])([H])C([H])([H])C([H])([H])OC([H])([H])C([H])([H])C([H])([H])OC([H])([H])C([H])([H])C([H])([H])N([H])C(=O)N3C([H])([H])C([H])([H])C([H])([H])C([H])(n4nc(-c5c([H])c([H])c(Oc6c([H])c([H])c(F)c([H])c6F)c([H])c5[H])c(C(=O)N([H])[H])c4N([H])[H])C3([H])[H])c([H])c([H])c2C1([H])[H]

>  <smiles>  (44) 
[H]c1c([H])c([H])c2c(c1[H])C([H])([H])C([H])([H])C([H])([H])C2([H])N([H])C(=O)C1([H])N(C(=O)C([H])(N([H])C(=O)C([H])(N([H])C([H])([H])[H])C([H])([H])[H])C(C([H])([H])[H])(C([H])([H])[H])C([H])([H])[H])C([H])([H])c2c([H])c(OC([H])([H])C([H])([H])OC([H])([H])C([H])([H])N([H])C(=O)C([H])([H])OC([H])([H])C([H])([H])C([H])([H])OC([H])([H])C([H])([H])C([H])([H])C([H])([H])C([H])([H])OC([H])([H])C([H])([H])C([H])([H])OC([H])([H])C([H])([H])C([H])([H])N([H])C(=O)N3C([H])([H])C([H])([H])C([H])([H])C([H])(n4nc(-c5c([H])c([H])c(Oc6c([H])c([H])c(F)c([H])c6F)c([H])c5[H])c(C(=O)N([H])[H])c4N([H])[H])C3([H])[H])c([H])c([H])c2C1([H])[H]

$$$$
47:0:0
     RDKit          3D

 96103  0  0  1  0  0  0  0  0999 V2000
  -27.5320  -21.4940   16.5240 C   0  0  0  0  0  2  0  0  0  0  0  0
  -28.0540  -21.0870   17.8510 N   0  0  0  0  0  4  0  0  0  0  0  0
  -28.7650  -21.7450   18.1370 H   0  0  0  0  0  0  0  0  0  0  0  0
  -27.3010  -21.1550   18.5190 H   0  0  0  0  0  0  0  0  0  0  0  0
  -28.5920  -19.7030   17.8870 C   0  0  0  0  0  2  0  0  0  0  0  0
  -28.9210  -19.2330   19.3160 C   0  0  0  0  0  2  0  0  0  0  0  0
  -29.1780  -17.8310   19.2820 O   0  0  0  0  0  0  0  0  0  0  0  0
  -29.1300  -17.1910   20.5530 C   0  0  0  0  0  2  0  0  0  0  0  0
  -30.4820  -17.2100   21.2920 C   0  0  0  0  0  2  0  0  0  0  0  0
  -31.5200  -16.1990   20.7640 C   0  0  0  0  0  2  0  0  0  0  0  0
  -31.5840  -13.7890   20.1620 C   0  0  0  0  0  0  0  0  0  0  0  0
  -31.0750  -11.6210   19.1140 C   0  0  0  0  0  2  0  0  0  0  0  0
  -30.1180  -11.8320   17.9230 C   0  0  0  0  0  2  0  0  0  0  0  0
  -28.6490  -11.8530   18.3890 C   0  0  0  0  0  2  0  0  0  0  0  0
  -28.4200  -12.8000   19.5950 C   0  0  0  0  0  3  0  0  0  0  0  0
  -29.4690  -12.5290   20.6970 C   0  0  0  0  0  2  0  0  0  0  0  0
  -30.8090  -12.6780   20.1000 N   0  0  0  0  0  0  0  0  0  0  0  0
  -32.6670  -13.9020   19.5780 O   0  0  0  0  0  0  0  0  0  0  0  0
  -31.0380  -14.8190   20.8210 N   0  0  0  0  0  0  0  0  0  0  0  0
  -30.1700  -14.6370   21.3010 H   0  0  0  0  0  0  0  0  0  0  0  0
  -26.1050  -13.6780   20.3070 C   0  0  0  0  0  0  0  0  0  0  0  0
  -24.9770  -13.0360   20.7390 C   0  0  0  0  0  0  0  0  0  0  0  0
  -25.3030  -11.6450   20.7600 C   0  0  0  0  0  0  0  0  0  0  0  0
  -27.0560  -12.6890   20.1060 N   0  0  0  0  0  0  0  0  0  0  0  0
  -26.5750  -11.4620   20.4330 N   0  0  0  0  0  0  0  0  0  0  0  0
  -24.4610  -10.4700   21.0190 C   0  0  0  0  0  0  0  0  0  0  0  0
  -24.7950   -9.5310   22.0190 C   0  0  0  0  0  3  0  0  0  0  0  0
  -23.9620   -8.4190   22.2620 C   0  0  0  0  0  3  0  0  0  0  0  0
  -22.7780   -8.2420   21.5080 C   0  0  0  0  0  0  0  0  0  0  0  0
  -22.4620   -9.1660   20.4980 C   0  0  0  0  0  3  0  0  0  0  0  0
  -23.2950  -10.2700   20.2530 C   0  0  0  0  0  3  0  0  0  0  0  0
  -21.9220   -7.1790   21.6590 O   0  0  0  0  0  0  0  0  0  0  0  0
  -21.7690   -6.5420   22.8640 C   0  0  0  0  0  0  0  0  0  0  0  0
  -21.3450   -7.2300   24.0230 C   0  0  0  0  0  3  0  0  0  0  0  0
  -21.1350   -6.5230   25.2240 C   0  0  0  0  0  3  0  0  0  0  0  0
  -21.3390   -5.1310   25.2670 C   0  0  0  0  0  0  0  0  0  0  0  0
  -21.7550   -4.4440   24.1130 C   0  0  0  0  0  3  0  0  0  0  0  0
  -21.9670   -5.1470   22.9150 C   0  0  0  0  0  0  0  0  0  0  0  0
  -22.3470   -4.4780   21.8010 F   0  0  0  0  0  0  0  0  0  0  0  0
  -21.1280   -4.4500   26.4180 F   0  0  0  0  0  0  0  0  0  0  0  0
  -23.6410  -13.6610   21.0130 C   0  0  0  0  0  0  0  0  0  0  0  0
  -22.8780  -13.0940   21.9390 N   0  0  0  0  0  0  0  0  0  0  0  0
  -23.2860  -14.6900   20.4390 O   0  0  0  0  0  0  0  0  0  0  0  0
  -23.1800  -12.2610   22.4240 H   0  0  0  0  0  0  0  0  0  0  0  0
  -21.9820  -13.4990   22.1680 H   0  0  0  0  0  0  0  0  0  0  0  0
  -26.3930  -15.0140   20.0500 N   0  0  0  0  0  0  0  0  0  0  0  0
  -25.6730  -15.7270   20.1020 H   0  0  0  0  0  0  0  0  0  0  0  0
  -27.2330  -15.3270   19.5810 H   0  0  0  0  0  0  0  0  0  0  0  0
  -26.9110  -22.8990   16.5490 C   0  0  0  0  0  2  0  0  0  0  0  0
  -27.9410  -23.8590   16.7440 O   0  0  0  0  0  0  0  0  0  0  0  0
  -27.4620  -25.1920   16.5950 C   0  0  0  0  0  2  0  0  0  0  0  0
  -28.6090  -26.1830   16.8250 C   0  0  0  0  0  2  0  0  0  0  0  0
  -28.9860  -26.1130   18.1940 O   0  0  0  0  0  0  0  0  0  0  0  0
  -29.5670  -27.3120   18.6900 C   0  0  0  0  0  2  0  0  0  0  0  0
  -29.7890  -27.1550   20.2050 C   0  0  0  0  0  2  0  0  0  0  0  0
  -28.6200  -26.6460   20.8410 O   0  0  0  0  0  0  0  0  0  0  0  0
  -24.6260  -31.9460   23.4410 C   0  0  0  0  0  0  0  0  0  0  0  0
  -27.4850  -27.4110   20.7470 C   0  0  0  0  0  0  0  0  0  0  0  0
  -23.5430  -30.4810   21.7660 C   0  0  0  0  0  3  0  0  0  0  0  0
  -25.0950  -28.8860   20.5240 C   0  0  0  0  0  0  0  0  0  0  0  0
  -26.0730  -30.8390   21.7440 C   0  0  0  0  0  2  0  0  0  0  0  0
  -26.2040  -29.4450   21.1720 C   0  0  0  0  0  0  0  0  0  0  0  0
  -27.4070  -28.7140   21.2820 C   0  0  0  0  0  3  0  0  0  0  0  0
  -26.3570  -26.8490   20.1170 C   0  0  0  0  0  3  0  0  0  0  0  0
  -25.1640  -27.5850   19.9940 C   0  0  0  0  0  3  0  0  0  0  0  0
  -23.8550  -29.7450   20.4360 C   0  0  0  0  0  2  0  0  0  0  0  0
  -24.7610  -31.1050   22.3770 N   0  0  0  0  0  0  0  0  0  0  0  0
  -23.5090  -32.2420   23.8860 O   0  0  0  0  0  0  0  0  0  0  0  0
  -22.8140  -29.5030   22.7140 C   0  0  0  0  0  0  0  0  0  0  0  0
  -21.5050  -29.3110   22.4830 N   0  0  0  0  0  0  0  0  0  0  0  0
  -23.4250  -28.9150   23.6100 O   0  0  0  0  0  0  0  0  0  0  0  0
  -21.0740  -29.8370   21.7340 H   0  0  0  0  0  0  0  0  0  0  0  0
  -18.0980  -28.1380   22.7480 C   0  0  0  0  0  0  0  0  0  0  0  0
  -20.6240  -28.4070   23.2230 C   0  0  0  0  0  3  0  0  0  0  0  0
  -20.7710  -26.9530   22.7200 C   0  0  0  0  0  2  0  0  0  0  0  0
  -19.7570  -26.5850   21.6320 C   0  0  0  0  0  2  0  0  0  0  0  0
  -18.3260  -26.7600   22.1500 C   0  0  0  0  0  2  0  0  0  0  0  0
  -19.1790  -28.9180   23.2380 C   0  0  0  0  0  0  0  0  0  0  0  0
  -18.9160  -30.2060   23.7520 C   0  0  0  0  0  3  0  0  0  0  0  0
  -17.6040  -30.7150   23.7850 C   0  0  0  0  0  3  0  0  0  0  0  0
  -16.5360  -29.9320   23.3130 C   0  0  0  0  0  3  0  0  0  0  0  0
  -16.7840  -28.6460   22.8010 C   0  0  0  0  0  3  0  0  0  0  0  0
  -25.8670  -32.5960   24.1320 C   0  0  0  0  0  3  0  0  0  0  0  0
  -25.5290  -33.9970   24.4180 N   0  0  0  0  0  0  0  0  0  0  0  0
  -25.8960  -35.0370   23.6590 C   0  0  0  0  0  0  0  0  0  0  0  0
  -26.6270  -34.9210   22.6710 O   0  0  0  0  0  0  0  0  0  0  0  0
  -24.8890  -34.1610   25.1810 H   0  0  0  0  0  0  0  0  0  0  0  0
  -24.1720  -36.8010   23.1740 C   0  0  0  0  0  1  0  0  0  0  0  0
  -25.3710  -36.4280   24.0600 C   0  0  0  0  0  3  0  0  0  0  0  0
  -27.4480  -37.3540   24.9870 C   0  0  0  0  0  1  0  0  0  0  0  0
  -26.3980  -37.4900   23.9820 N   0  0  0  0  0  0  0  0  0  0  0  0
  -25.9740  -38.4080   24.0900 H   0  0  0  0  0  0  0  0  0  0  0  0
  -26.3100  -31.8450   25.4470 C   0  0  1  0  0  0  0  0  0  0  0  0
  -25.1510  -31.5950   26.4400 C   0  0  0  0  0  1  0  0  0  0  0  0
  -26.9460  -30.4780   25.1050 C   0  0  0  0  0  1  0  0  0  0  0  0
  -27.3980  -32.6680   26.1790 C   0  0  0  0  0  1  0  0  0  0  0  0
  1 49  1  0
  1  2  1  0
  2  5  1  0
  2  3  1  0
  2  4  1  0
  5  6  1  0
  7  6  1  0
  7  8  1  0
  8  9  1  0
 10 19  1  0
 10  9  1  0
 11 19  1  0
 12 17  1  0
 13 14  1  0
 13 12  1  0
 15 14  1  0
 15 24  1  0
 15 16  1  0
 17 11  1  0
 17 16  1  0
 18 11  2  0
 19 20  1  0
 21 22  2  0
 22 23  1  0
 22 41  1  0
 23 26  1  0
 24 21  1  0
 24 25  1  0
 25 23  2  0
 26 27  1  0
 27 28  2  0
 29 32  1  0
 29 28  1  0
 30 29  2  0
 31 30  1  0
 31 26  2  0
 32 33  1  0
 33 38  2  0
 33 34  1  0
 34 35  2  0
 35 36  1  0
 36 40  1  0
 37 36  2  0
 38 37  1  0
 39 38  1  0
 41 42  1  0
 42 45  1  0
 42 44  1  0
 43 41  2  0
 46 47  1  0
 46 21  1  0
 48 46  1  0
 49 50  1  0
 51 50  1  0
 51 52  1  0
 52 53  1  0
 53 54  1  0
 54 55  1  0
 55 56  1  0
 57 68  2  0
 58 56  1  0
 58 63  1  0
 59 67  1  0
 59 69  1  0
 60 62  1  0
 61 67  1  0
 62 63  2  0
 62 61  1  0
 64 58  2  0
 65 64  1  0
 65 60  2  0
 66 60  1  0
 66 59  1  0
 67 57  1  0
 69 71  2  0
 70 69  1  0
 72 70  1  0
 73 82  2  0
 73 78  1  0
 74 70  1  0
 74 78  1  0
 75 74  1  0
 76 77  1  0
 76 75  1  0
 77 73  1  0
 78 79  2  0
 79 80  1  0
 81 80  2  0
 82 81  1  0
 83 57  1  0
 83 84  1  0
 83 93  1  0
 84 87  1  0
 85 89  1  0
 85 84  1  0
 86 85  2  0
 89 88  1  0
 91 89  1  0
 91 92  1  0
 91 90  1  0
 93 96  1  1
 93 94  1  0
 95 93  1  0
M  ISO  4  11 100  19 100  55 101  56 101
M  END
>  <TORSDO>  (45) 
F 30

>  <SCORE>  (45) 
-8.100

>  <name>  (45) 
47

>  <ligand_id>  (45) 
47

>  <original_smiles>  (45) 
[H]c1c([H])c([H])c2c(c1[H])C([H])([H])C([H])([H])C([H])([H])C2([H])N([H])C(=O)C1([H])N(C(=O)C([H])(N([H])C(=O)C([H])(N([H])C([H])([H])[H])C([H])([H])[H])C(C([H])([H])[H])(C([H])([H])[H])C([H])([H])[H])C([H])([H])c2c([H])c(OC([H])([H])C([H])([H])OC([H])([H])C([H])([H])OC([H])([H])C([H])([H])[N+]([H])([H])C([H])([H])C([H])([H])OC([H])([H])C([H])([H])C([H])([H])N([H])C(=O)N3C([H])([H])C([H])([H])C([H])([H])C([H])(n4nc(-c5c([H])c([H])c(Oc6c([H])c([H])c(F)c([H])c6F)c([H])c5[H])c(C(=O)N([H])[H])c4N([H])[H])C3([H])[H])c([H])c([H])c2C1([H])[H]

>  <smiles>  (45) 
[H]c1c([H])c([H])c2c(c1[H])C([H])([H])C([H])([H])C([H])([H])C2([H])N([H])C(=O)C1([H])N(C(=O)C([H])(N([H])C(=O)C([H])(N([H])C([H])([H])[H])C([H])([H])[H])C(C([H])([H])[H])(C([H])([H])[H])C([H])([H])[H])C([H])([H])c2c([H])c(OC([H])([H])C([H])([H])OC([H])([H])C([H])([H])OC([H])([H])C([H])([H])[N+]([H])([H])C([H])([H])C([H])([H])OC([H])([H])C([H])([H])C([H])([H])N([H])C(=O)N3C([H])([H])C([H])([H])C([H])([H])C([H])(n4nc(-c5c([H])c([H])c(Oc6c([H])c([H])c(F)c([H])c6F)c([H])c5[H])c(C(=O)N([H])[H])c4N([H])[H])C3([H])[H])c([H])c([H])c2C1([H])[H]

$$$$
48:0:0
     RDKit          3D

103110  0  0  1  0  0  0  0  0999 V2000
  -27.0810  -21.6960   20.2780 C   0  0  0  0  0  0  0  0  0  0  0  0
  -27.3990  -20.4050   20.1390 N   0  0  0  0  0  0  0  0  0  0  0  0
  -27.2790  -22.5380   19.4000 O   0  0  0  0  0  0  0  0  0  0  0  0
  -27.2510  -19.8020   20.9330 H   0  0  0  0  0  0  0  0  0  0  0  0
  -28.0100  -19.8020   18.9480 C   0  0  0  0  0  3  0  0  0  0  0  0
  -27.0530  -18.8450   18.2150 C   0  0  0  0  0  0  0  0  0  0  0  0
  -25.9410  -18.4600   18.8350 N   0  0  0  0  0  0  0  0  0  0  0  0
  -27.3090  -18.4540   17.0790 O   0  0  0  0  0  0  0  0  0  0  0  0
  -25.7170  -18.8290   19.7450 H   0  0  0  0  0  0  0  0  0  0  0  0
  -25.3090  -17.8160   18.3830 H   0  0  0  0  0  0  0  0  0  0  0  0
  -29.3420  -19.1090   19.3270 C   0  0  0  0  0  2  0  0  0  0  0  0
  -29.2110  -17.7900   20.1280 C   0  0  0  0  0  2  0  0  0  0  0  0
  -29.9490  -17.7790   21.4860 C   0  0  0  0  0  2  0  0  0  0  0  0
  -31.1000  -16.7580   21.5550 C   0  0  0  0  0  2  0  0  0  0  0  0
  -31.1670  -14.6190   20.2510 C   0  0  0  0  0  0  0  0  0  0  0  0
  -30.7230  -12.6360   18.8580 C   0  0  0  0  0  2  0  0  0  0  0  0
  -29.7350  -12.9860   17.7270 C   0  0  0  0  0  2  0  0  0  0  0  0
  -28.2730  -12.8810   18.2110 C   0  0  0  0  0  2  0  0  0  0  0  0
  -28.0350  -13.6160   19.5610 C   0  0  0  0  0  3  0  0  0  0  0  0
  -29.1140  -13.1970   20.5840 C   0  0  0  0  0  2  0  0  0  0  0  0
  -30.4350  -13.5070   20.0030 N   0  0  0  0  0  0  0  0  0  0  0  0
  -32.2130  -14.8980   19.6490 O   0  0  0  0  0  0  0  0  0  0  0  0
  -30.6330  -15.4300   21.1700 N   0  0  0  0  0  0  0  0  0  0  0  0
  -29.7620  -15.1140   21.5770 H   0  0  0  0  0  0  0  0  0  0  0  0
  -25.6890  -14.2950   20.3850 C   0  0  0  0  0  0  0  0  0  0  0  0
  -24.6010  -13.5510   20.7540 C   0  0  0  0  0  0  0  0  0  0  0  0
  -24.9970  -12.1830   20.6300 C   0  0  0  0  0  0  0  0  0  0  0  0
  -26.6840  -13.3800   20.0680 N   0  0  0  0  0  0  0  0  0  0  0  0
  -26.2710  -12.1020   20.2670 N   0  0  0  0  0  0  0  0  0  0  0  0
  -24.2240  -10.9430   20.7750 C   0  0  0  0  0  0  0  0  0  0  0  0
  -24.6530   -9.9040   21.6290 C   0  0  0  0  0  3  0  0  0  0  0  0
  -23.8860   -8.7270   21.7660 C   0  0  0  0  0  3  0  0  0  0  0  0
  -22.6740   -8.5810   21.0500 C   0  0  0  0  0  0  0  0  0  0  0  0
  -22.2630   -9.6100   20.1840 C   0  0  0  0  0  3  0  0  0  0  0  0
  -23.0290  -10.7790   20.0450 C   0  0  0  0  0  3  0  0  0  0  0  0
  -21.8720   -7.4680   21.1050 O   0  0  0  0  0  0  0  0  0  0  0  0
  -21.8280   -6.6690   22.2210 C   0  0  0  0  0  0  0  0  0  0  0  0
  -21.4720   -7.1800   23.4890 C   0  0  0  0  0  3  0  0  0  0  0  0
  -21.3690   -6.3110   24.5950 C   0  0  0  0  0  3  0  0  0  0  0  0
  -21.6090   -4.9330   24.4320 C   0  0  0  0  0  0  0  0  0  0  0  0
  -21.9590   -4.4230   23.1700 C   0  0  0  0  0  3  0  0  0  0  0  0
  -22.0650   -5.2890   22.0680 C   0  0  0  0  0  0  0  0  0  0  0  0
  -22.3790   -4.7890   20.8500 F   0  0  0  0  0  0  0  0  0  0  0  0
  -21.5010   -4.0980   25.4920 F   0  0  0  0  0  0  0  0  0  0  0  0
  -23.2370  -14.0680   21.1110 C   0  0  0  0  0  0  0  0  0  0  0  0
  -22.5180  -13.3590   21.9730 N   0  0  0  0  0  0  0  0  0  0  0  0
  -22.8220  -15.1360   20.6630 O   0  0  0  0  0  0  0  0  0  0  0  0
  -22.8590  -12.4890   22.3550 H   0  0  0  0  0  0  0  0  0  0  0  0
  -21.6030  -13.6890   22.2520 H   0  0  0  0  0  0  0  0  0  0  0  0
  -25.9200  -15.6640   20.2760 N   0  0  0  0  0  0  0  0  0  0  0  0
  -25.2020  -16.3550   20.4600 H   0  0  0  0  0  0  0  0  0  0  0  0
  -26.7760  -16.0630   19.9150 H   0  0  0  0  0  0  0  0  0  0  0  0
  -26.4820  -22.1470   21.6050 C   0  0  0  0  0  2  0  0  0  0  0  0
  -26.9950  -23.4980   21.8650 N   0  0  0  0  0  4  0  0  0  0  0  0
  -27.1880  -23.8820   20.9500 H   0  0  0  0  0  0  0  0  0  0  0  0
  -27.8780  -23.4250   22.3440 H   0  0  0  0  0  0  0  0  0  0  0  0
  -26.0950  -24.4340   22.5650 C   0  0  0  0  0  2  0  0  0  0  0  0
  -26.7650  -25.8090   22.6380 C   0  0  0  0  0  2  0  0  0  0  0  0
  -27.1090  -26.1840   21.3030 O   0  0  0  0  0  0  0  0  0  0  0  0
  -28.4700  -26.5730   21.1660 C   0  0  0  0  0  2  0  0  0  0  0  0
  -28.6670  -27.3690   19.8740 C   0  0  0  0  0  2  0  0  0  0  0  0
  -28.1950  -26.6320   18.6020 C   0  0  0  0  0  2  0  0  0  0  0  0
  -27.6680  -27.5580   17.6570 O   0  0  0  0  0  0  0  0  0  0  0  0
  -24.2330  -31.3360   22.5870 C   0  0  0  0  0  0  0  0  0  0  0  0
  -26.4790  -28.1070   18.0580 C   0  0  0  0  0  0  0  0  0  0  0  0
  -22.8100  -30.2100   20.9040 C   0  0  0  0  0  3  0  0  0  0  0  0
  -24.0340  -29.2140   18.9050 C   0  0  0  0  0  0  0  0  0  0  0  0
  -25.2060  -30.9100   20.3340 C   0  0  0  0  0  2  0  0  0  0  0  0
  -25.2440  -29.7500   19.3640 C   0  0  0  0  0  0  0  0  0  0  0  0
  -26.4690  -29.2130   18.9300 C   0  0  0  0  0  3  0  0  0  0  0  0
  -25.2570  -27.5620   17.6120 C   0  0  0  0  0  3  0  0  0  0  0  0
  -24.0310  -28.1100   18.0330 C   0  0  0  0  0  3  0  0  0  0  0  0
  -22.7690  -29.8840   19.3890 C   0  0  0  0  0  2  0  0  0  0  0  0
  -24.1110  -30.8230   21.3290 N   0  0  0  0  0  0  0  0  0  0  0  0
  -23.2700  -31.3520   23.3670 O   0  0  0  0  0  0  0  0  0  0  0  0
  -22.4470  -28.9300   21.6910 C   0  0  0  0  0  0  0  0  0  0  0  0
  -21.1590  -28.5580   21.6620 N   0  0  0  0  0  0  0  0  0  0  0  0
  -23.3160  -28.2830   22.2780 O   0  0  0  0  0  0  0  0  0  0  0  0
  -20.5050  -29.1470   21.1680 H   0  0  0  0  0  0  0  0  0  0  0  0
  -18.1220  -26.6490   22.0710 C   0  0  0  0  0  0  0  0  0  0  0  0
  -20.5930  -27.3690   22.2940 C   0  0  0  0  0  3  0  0  0  0  0  0
  -20.9300  -26.0920   21.4850 C   0  0  0  0  0  2  0  0  0  0  0  0
  -19.8450  -25.7190   20.4700 C   0  0  0  0  0  2  0  0  0  0  0  0
  -18.5080  -25.4850   21.1770 C   0  0  0  0  0  2  0  0  0  0  0  0
  -19.0980  -27.5450   22.5810 C   0  0  0  0  0  0  0  0  0  0  0  0
  -18.6790  -28.6370   23.3720 C   0  0  0  0  0  3  0  0  0  0  0  0
  -17.3140  -28.8350   23.6610 C   0  0  0  0  0  3  0  0  0  0  0  0
  -16.3550  -27.9360   23.1650 C   0  0  0  0  0  3  0  0  0  0  0  0
  -16.7580  -26.8440   22.3750 C   0  0  0  0  0  3  0  0  0  0  0  0
  -25.5730  -31.9560   23.0930 C   0  0  0  0  0  3  0  0  0  0  0  0
  -25.2490  -33.2230   23.7630 N   0  0  0  0  0  0  0  0  0  0  0  0
  -25.4310  -34.4350   23.2240 C   0  0  0  0  0  0  0  0  0  0  0  0
  -25.9630  -34.6050   22.1230 O   0  0  0  0  0  0  0  0  0  0  0  0
  -24.7640  -33.1600   24.6460 H   0  0  0  0  0  0  0  0  0  0  0  0
  -23.6060  -36.1470   23.4610 C   0  0  0  0  0  1  0  0  0  0  0  0
  -24.9450  -35.6530   24.0320 C   0  0  0  0  0  3  0  0  0  0  0  0
  -27.1280  -36.4560   24.8190 C   0  0  0  0  0  1  0  0  0  0  0  0
  -25.9180  -36.7660   24.0620 N   0  0  0  0  0  0  0  0  0  0  0  0
  -25.4960  -37.6010   24.4590 H   0  0  0  0  0  0  0  0  0  0  0  0
  -26.3760  -31.0010   24.0590 C   0  0  1  0  0  0  0  0  0  0  0  0
  -25.5310  -30.4470   25.2310 C   0  0  0  0  0  1  0  0  0  0  0  0
  -26.9490  -29.7950   23.2790 C   0  0  0  0  0  1  0  0  0  0  0  0
  -27.5860  -31.7570   24.6550 C   0  0  0  0  0  1  0  0  0  0  0  0
  1 53  1  0
  2  1  1  0
  2  4  1  0
  3  1  2  0
  5 11  1  0
  5  2  1  0
  6  7  1  0
  6  5  1  0
  7  9  1  0
  8  6  2  0
 10  7  1  0
 11 12  1  0
 12 13  1  0
 13 14  1  0
 15 23  1  0
 16 21  1  0
 17 18  1  0
 17 16  1  0
 19 18  1  0
 19 28  1  0
 19 20  1  0
 21 15  1  0
 21 20  1  0
 22 15  2  0
 23 14  1  0
 23 24  1  0
 25 26  2  0
 26 45  1  0
 27 26  1  0
 27 30  1  0
 28 29  1  0
 28 25  1  0
 29 27  2  0
 30 31  1  0
 31 32  2  0
 33 36  1  0
 33 32  1  0
 34 33  2  0
 35 34  1  0
 35 30  2  0
 36 37  1  0
 37 38  1  0
 38 39  2  0
 40 39  1  0
 40 44  1  0
 41 40  2  0
 42 37  2  0
 42 41  1  0
 43 42  1  0
 45 46  1  0
 46 49  1  0
 46 48  1  0
 47 45  2  0
 50 25  1  0
 50 51  1  0
 52 50  1  0
 53 54  1  0
 54 56  1  0
 54 57  1  0
 55 54  1  0
 57 58  1  0
 59 58  1  0
 60 59  1  0
 61 60  1  0
 62 61  1  0
 63 65  1  0
 63 62  1  0
 64 75  2  0
 65 70  1  0
 66 74  1  0
 66 76  1  0
 67 69  1  0
 67 73  1  0
 68 74  1  0
 69 68  1  0
 70 69  2  0
 71 72  1  0
 71 65  2  0
 72 67  2  0
 73 66  1  0
 74 64  1  0
 76 78  2  0
 77 76  1  0
 79 77  1  0
 80 89  2  0
 80 85  1  0
 81 77  1  0
 81 85  1  0
 82 81  1  0
 83 84  1  0
 83 82  1  0
 84 80  1  0
 85 86  2  0
 86 87  1  0
 88 87  2  0
 89 88  1  0
 90 64  1  0
 90 91  1  0
 90100  1  0
 91 94  1  0
 92 91  1  0
 92 96  1  0
 93 92  2  0
 96 95  1  0
 96 98  1  0
 98 99  1  0
 98 97  1  0
100103  1  1
100101  1  0
102100  1  0
M  ISO  4  15 100  23 100  62 101  63 101
M  END
>  <TORSDO>  (46) 
F 30

>  <SCORE>  (46) 
-6.123

>  <name>  (46) 
48

>  <ligand_id>  (46) 
48

>  <original_smiles>  (46) 
[H]c1c([H])c([H])c2c(c1[H])C([H])([H])C([H])([H])C([H])([H])C2([H])N([H])C(=O)C1([H])N(C(=O)C([H])(N([H])C(=O)C([H])(N([H])C([H])([H])[H])C([H])([H])[H])C(C([H])([H])[H])(C([H])([H])[H])C([H])([H])[H])C([H])([H])c2c([H])c(OC([H])([H])C([H])([H])C([H])([H])OC([H])([H])C([H])([H])[N+]([H])([H])C([H])([H])C(=O)N([H])C([H])(C(=O)N([H])[H])C([H])([H])C([H])([H])C([H])([H])C([H])([H])N([H])C(=O)N3C([H])([H])C([H])([H])C([H])([H])C([H])(n4nc(-c5c([H])c([H])c(Oc6c([H])c([H])c(F)c([H])c6F)c([H])c5[H])c(C(=O)N([H])[H])c4N([H])[H])C3([H])[H])c([H])c([H])c2C1([H])[H]

>  <smiles>  (46) 
[H]c1c([H])c([H])c2c(c1[H])C([H])([H])C([H])([H])C([H])([H])C2([H])N([H])C(=O)C1([H])N(C(=O)C([H])(N([H])C(=O)C([H])(N([H])C([H])([H])[H])C([H])([H])[H])C(C([H])([H])[H])(C([H])([H])[H])C([H])([H])[H])C([H])([H])c2c([H])c(OC([H])([H])C([H])([H])C([H])([H])OC([H])([H])C([H])([H])[N+]([H])([H])C([H])([H])C(=O)N([H])C([H])(C(=O)N([H])[H])C([H])([H])C([H])([H])C([H])([H])C([H])([H])N([H])C(=O)N3C([H])([H])C([H])([H])C([H])([H])C([H])(n4nc(-c5c([H])c([H])c(Oc6c([H])c([H])c(F)c([H])c6F)c([H])c5[H])c(C(=O)N([H])[H])c4N([H])[H])C3([H])[H])c([H])c([H])c2C1([H])[H]

$$$$
49:0:0
     RDKit          3D

107114  0  0  1  0  0  0  0  0999 V2000
  -25.9840  -24.6640   23.1270 C   0  0  0  0  0  2  0  0  0  0  0  0
  -24.6590  -24.2030   22.9100 O   0  0  0  0  0  0  0  0  0  0  0  0
  -24.1680  -24.5340   21.6190 C   0  0  0  0  0  2  0  0  0  0  0  0
  -22.7960  -23.8700   21.4270 C   0  0  0  0  0  2  0  0  0  0  0  0
  -22.7760  -22.5160   21.8880 O   0  0  0  0  0  0  0  0  0  0  0  0
  -23.1070  -21.5020   20.9410 C   0  0  0  0  0  2  0  0  0  0  0  0
  -24.6130  -21.2210   20.8120 C   0  0  0  0  0  2  0  0  0  0  0  0
  -25.1880  -22.0870   19.8510 O   0  0  0  0  0  0  0  0  0  0  0  0
  -26.4930  -21.6950   19.4500 C   0  0  0  0  0  2  0  0  0  0  0  0
  -27.1750  -22.9230   18.8460 C   0  0  0  0  0  2  0  0  0  0  0  0
  -27.3730  -23.8210   19.9330 O   0  0  0  0  0  0  0  0  0  0  0  0
  -28.6540  -24.4230   19.9840 C   0  0  0  0  0  2  0  0  0  0  0  0
  -28.6970  -25.7380   19.1950 C   0  0  0  0  0  2  0  0  0  0  0  0
  -28.4550  -26.8330   20.0700 O   0  0  0  0  0  0  0  0  0  0  0  0
  -24.6110  -31.8720   23.2160 C   0  0  0  0  0  0  0  0  0  0  0  0
  -27.2380  -27.4710   20.0720 C   0  0  0  0  0  0  0  0  0  0  0  0
  -23.3930  -30.4940   21.5560 C   0  0  0  0  0  3  0  0  0  0  0  0
  -24.8350  -28.9490   20.1260 C   0  0  0  0  0  0  0  0  0  0  0  0
  -25.9200  -30.8370   21.3660 C   0  0  0  0  0  2  0  0  0  0  0  0
  -25.9930  -29.4750   20.7110 C   0  0  0  0  0  0  0  0  0  0  0  0
  -27.1950  -28.7410   20.6770 C   0  0  0  0  0  3  0  0  0  0  0  0
  -26.0550  -26.9340   19.5090 C   0  0  0  0  0  3  0  0  0  0  0  0
  -24.8540  -27.6740   19.5330 C   0  0  0  0  0  3  0  0  0  0  0  0
  -23.5950  -29.8130   20.1760 C   0  0  0  0  0  2  0  0  0  0  0  0
  -24.6580  -31.0850   22.1030 N   0  0  0  0  0  0  0  0  0  0  0  0
  -23.5330  -32.1470   23.7600 O   0  0  0  0  0  0  0  0  0  0  0  0
  -22.7350  -29.4740   22.5090 C   0  0  0  0  0  0  0  0  0  0  0  0
  -21.4100  -29.3060   22.3750 N   0  0  0  0  0  0  0  0  0  0  0  0
  -23.4140  -28.8330   23.3150 O   0  0  0  0  0  0  0  0  0  0  0  0
  -20.9340  -29.8460   21.6650 H   0  0  0  0  0  0  0  0  0  0  0  0
  -18.0260  -28.1380   22.8460 C   0  0  0  0  0  0  0  0  0  0  0  0
  -20.5810  -28.3710   23.1340 C   0  0  0  0  0  3  0  0  0  0  0  0
  -20.6830  -26.9480   22.5410 C   0  0  0  0  0  2  0  0  0  0  0  0
  -19.5820  -26.6370   21.5220 C   0  0  0  0  0  2  0  0  0  0  0  0
  -18.1980  -26.7920   22.1600 C   0  0  0  0  0  2  0  0  0  0  0  0
  -19.1480  -28.8860   23.2890 C   0  0  0  0  0  0  0  0  0  0  0  0
  -18.9390  -30.1460   23.8910 C   0  0  0  0  0  3  0  0  0  0  0  0
  -17.6370  -30.6550   24.0560 C   0  0  0  0  0  3  0  0  0  0  0  0
  -16.5270  -29.9040   23.6310 C   0  0  0  0  0  3  0  0  0  0  0  0
  -16.7240  -28.6480   23.0320 C   0  0  0  0  0  3  0  0  0  0  0  0
  -25.9040  -32.4840   23.8430 C   0  0  0  0  0  3  0  0  0  0  0  0
  -26.4470  -31.6640   25.0780 C   0  0  1  0  0  0  0  0  0  0  0  0
  -25.3750  -31.3730   26.1530 C   0  0  0  0  0  1  0  0  0  0  0  0
  -27.0260  -30.3070   24.6190 C   0  0  0  0  0  1  0  0  0  0  0  0
  -27.6050  -32.4350   25.7550 C   0  0  0  0  0  1  0  0  0  0  0  0
  -25.5920  -33.8640   24.2360 N   0  0  0  0  0  0  0  0  0  0  0  0
  -25.9030  -34.9480   23.5140 C   0  0  0  0  0  0  0  0  0  0  0  0
  -26.5590  -34.8910   22.4700 O   0  0  0  0  0  0  0  0  0  0  0  0
  -25.0080  -33.9820   25.0510 H   0  0  0  0  0  0  0  0  0  0  0  0
  -24.1470  -36.7290   23.2630 C   0  0  0  0  0  1  0  0  0  0  0  0
  -25.4100  -36.3110   24.0340 C   0  0  0  0  0  3  0  0  0  0  0  0
  -27.5580  -37.1800   24.8480 C   0  0  0  0  0  1  0  0  0  0  0  0
  -26.4280  -37.3790   23.9440 N   0  0  0  0  0  0  0  0  0  0  0  0
  -26.0180  -38.2880   24.1450 H   0  0  0  0  0  0  0  0  0  0  0  0
  -26.4850  -24.1420   24.4820 C   0  0  0  0  0  2  0  0  0  0  0  0
  -28.0870  -22.2540   24.1250 C   0  0  0  0  0  0  0  0  0  0  0  0
  -26.8720  -22.7280   24.4570 N   0  0  0  0  0  0  0  0  0  0  0  0
  -28.9230  -22.9870   23.5920 O   0  0  0  0  0  0  0  0  0  0  0  0
  -26.2180  -22.0730   24.8680 H   0  0  0  0  0  0  0  0  0  0  0  0
  -28.4920  -20.7790   24.4480 C   0  0  0  0  0  3  0  0  0  0  0  0
  -27.8230  -20.3310   25.7750 C   0  0  0  0  0  0  0  0  0  0  0  0
  -28.5840  -20.1850   26.8580 N   0  0  0  0  0  0  0  0  0  0  0  0
  -26.6160  -20.0970   25.8330 O   0  0  0  0  0  0  0  0  0  0  0  0
  -29.5820  -20.3550   26.8270 H   0  0  0  0  0  0  0  0  0  0  0  0
  -28.1670  -19.9000   27.7350 H   0  0  0  0  0  0  0  0  0  0  0  0
  -28.2660  -19.7660   23.2800 C   0  0  0  0  0  2  0  0  0  0  0  0
  -29.5030  -18.8830   22.9370 C   0  0  0  0  0  2  0  0  0  0  0  0
  -29.1750  -17.5490   22.2180 C   0  0  0  0  0  2  0  0  0  0  0  0
  -30.4160  -16.6560   21.9250 C   0  0  0  0  0  2  0  0  0  0  0  0
  -30.6850  -14.4470   20.6880 C   0  0  0  0  0  0  0  0  0  0  0  0
  -30.4340  -12.3330   19.4180 C   0  0  0  0  0  2  0  0  0  0  0  0
  -29.4930  -12.5120   18.2060 C   0  0  0  0  0  2  0  0  0  0  0  0
  -28.0200  -12.3380   18.6250 C   0  0  0  0  0  2  0  0  0  0  0  0
  -27.6600  -13.1880   19.8730 C   0  0  0  0  0  3  0  0  0  0  0  0
  -28.6920  -12.9430   20.9930 C   0  0  0  0  0  2  0  0  0  0  0  0
  -30.0270  -13.2810   20.4670 N   0  0  0  0  0  0  0  0  0  0  0  0
  -31.7610  -14.7300   20.1490 O   0  0  0  0  0  0  0  0  0  0  0  0
  -30.0400  -15.2990   21.5130 N   0  0  0  0  0  0  0  0  0  0  0  0
  -29.1860  -14.9400   21.9090 H   0  0  0  0  0  0  0  0  0  0  0  0
  -25.2620  -13.8140   20.5670 C   0  0  0  0  0  0  0  0  0  0  0  0
  -24.1850  -13.0420   20.9160 C   0  0  0  0  0  0  0  0  0  0  0  0
  -24.6350  -11.6890   20.8720 C   0  0  0  0  0  0  0  0  0  0  0  0
  -26.3000  -12.9240   20.3340 N   0  0  0  0  0  0  0  0  0  0  0  0
  -25.9250  -11.6410   20.5720 N   0  0  0  0  0  0  0  0  0  0  0  0
  -23.9020  -10.4260   21.0390 C   0  0  0  0  0  0  0  0  0  0  0  0
  -24.3580   -9.4200   21.9170 C   0  0  0  0  0  3  0  0  0  0  0  0
  -23.6270   -8.2230   22.0750 C   0  0  0  0  0  3  0  0  0  0  0  0
  -22.4240   -8.0270   21.3550 C   0  0  0  0  0  0  0  0  0  0  0  0
  -21.9870   -9.0240   20.4660 C   0  0  0  0  0  3  0  0  0  0  0  0
  -22.7200  -10.2110   20.3050 C   0  0  0  0  0  3  0  0  0  0  0  0
  -21.6600   -6.8870   21.4240 O   0  0  0  0  0  0  0  0  0  0  0  0
  -21.6830   -6.0740   22.5280 C   0  0  0  0  0  0  0  0  0  0  0  0
  -21.4020   -6.5650   23.8220 C   0  0  0  0  0  3  0  0  0  0  0  0
  -21.3650   -5.6800   24.9180 C   0  0  0  0  0  3  0  0  0  0  0  0
  -21.6020   -4.3060   24.7230 C   0  0  0  0  0  0  0  0  0  0  0  0
  -21.8830   -3.8150   23.4350 C   0  0  0  0  0  3  0  0  0  0  0  0
  -21.9190   -4.6970   22.3410 C   0  0  0  0  0  0  0  0  0  0  0  0
  -22.1650   -4.2150   21.0990 F   0  0  0  0  0  0  0  0  0  0  0  0
  -21.5610   -3.4550   25.7750 F   0  0  0  0  0  0  0  0  0  0  0  0
  -22.7870  -13.5240   21.1830 C   0  0  0  0  0  0  0  0  0  0  0  0
  -22.0510  -12.8250   22.0420 N   0  0  0  0  0  0  0  0  0  0  0  0
  -22.3560  -14.5530   20.6670 O   0  0  0  0  0  0  0  0  0  0  0  0
  -22.4050  -11.9870   22.4790 H   0  0  0  0  0  0  0  0  0  0  0  0
  -21.1160  -13.1350   22.2630 H   0  0  0  0  0  0  0  0  0  0  0  0
  -25.4430  -15.1870   20.4110 N   0  0  0  0  0  0  0  0  0  0  0  0
  -24.6880  -15.8550   20.5150 H   0  0  0  0  0  0  0  0  0  0  0  0
  -26.3090  -15.6210   20.1200 H   0  0  0  0  0  0  0  0  0  0  0  0
  1 55  1  0
  2  1  1  0
  3  2  1  0
  4  3  1  0
  4  5  1  0
  6  5  1  0
  7  6  1  0
  8  7  1  0
  9  8  1  0
 10  9  1  0
 10 11  1  0
 11 12  1  0
 13 12  1  0
 13 14  1  0
 14 16  1  0
 15 26  2  0
 16 21  1  0
 17 25  1  0
 17 27  1  0
 18 24  1  0
 18 20  1  0
 19 25  1  0
 20 19  1  0
 21 20  2  0
 22 23  1  0
 22 16  2  0
 23 18  2  0
 24 17  1  0
 25 15  1  0
 27 29  2  0
 28 27  1  0
 30 28  1  0
 31 40  2  0
 31 36  1  0
 32 28  1  0
 32 36  1  0
 33 32  1  0
 34 35  1  0
 34 33  1  0
 35 31  1  0
 36 37  2  0
 37 38  1  0
 39 38  2  0
 40 39  1  0
 41 15  1  0
 41 46  1  0
 41 42  1  0
 42 45  1  1
 42 43  1  0
 44 42  1  0
 46 49  1  0
 47 51  1  0
 47 46  1  0
 48 47  2  0
 51 50  1  0
 53 51  1  0
 53 54  1  0
 53 52  1  0
 56 60  1  0
 56 57  1  0
 57 55  1  0
 57 59  1  0
 58 56  2  0
 60 66  1  0
 60 61  1  0
 61 63  2  0
 61 62  1  0
 62 65  1  0
 64 62  1  0
 67 66  1  0
 68 67  1  0
 69 68  1  0
 70 78  1  0
 71 76  1  0
 72 73  1  0
 72 71  1  0
 74 73  1  0
 74 83  1  0
 74 75  1  0
 76 70  1  0
 76 75  1  0
 77 70  2  0
 78 79  1  0
 78 69  1  0
 80 81  2  0
 81100  1  0
 82 81  1  0
 82 85  1  0
 83 80  1  0
 83 84  1  0
 84 82  2  0
 85 86  1  0
 86 87  2  0
 88 91  1  0
 88 87  1  0
 89 88  2  0
 90 89  1  0
 90 85  2  0
 91 92  1  0
 92 93  1  0
 93 94  2  0
 95 94  1  0
 95 99  1  0
 96 95  2  0
 97 92  2  0
 97 96  1  0
 98 97  1  0
100101  1  0
101104  1  0
101103  1  0
102100  2  0
105106  1  0
105 80  1  0
107105  1  0
M  ISO  4  13 101  14 101  70 100  78 100
M  END
>  <TORSDO>  (47) 
F 36

>  <SCORE>  (47) 
29.038

>  <name>  (47) 
49

>  <ligand_id>  (47) 
49

>  <original_smiles>  (47) 
[H]c1c([H])c([H])c2c(c1[H])C([H])([H])C([H])([H])C([H])([H])C2([H])N([H])C(=O)C1([H])N(C(=O)C([H])(N([H])C(=O)C([H])(N([H])C([H])([H])[H])C([H])([H])[H])C(C([H])([H])[H])(C([H])([H])[H])C([H])([H])[H])C([H])([H])c2c([H])c(OC([H])([H])C([H])([H])OC([H])([H])C([H])([H])OC([H])([H])C([H])([H])OC([H])([H])C([H])([H])OC([H])([H])C([H])([H])N([H])C(=O)C([H])(C(=O)N([H])[H])C([H])([H])C([H])([H])C([H])([H])C([H])([H])N([H])C(=O)N3C([H])([H])C([H])([H])C([H])([H])C([H])(n4nc(-c5c([H])c([H])c(Oc6c([H])c([H])c(F)c([H])c6F)c([H])c5[H])c(C(=O)N([H])[H])c4N([H])[H])C3([H])[H])c([H])c([H])c2C1([H])[H]

>  <smiles>  (47) 
[H]c1c([H])c([H])c2c(c1[H])C([H])([H])C([H])([H])C([H])([H])C2([H])N([H])C(=O)C1([H])N(C(=O)C([H])(N([H])C(=O)C([H])(N([H])C([H])([H])[H])C([H])([H])[H])C(C([H])([H])[H])(C([H])([H])[H])C([H])([H])[H])C([H])([H])c2c([H])c(OC([H])([H])C([H])([H])OC([H])([H])C([H])([H])OC([H])([H])C([H])([H])OC([H])([H])C([H])([H])OC([H])([H])C([H])([H])N([H])C(=O)C([H])(C(=O)N([H])[H])C([H])([H])C([H])([H])C([H])([H])C([H])([H])N([H])C(=O)N3C([H])([H])C([H])([H])C([H])([H])C([H])(n4nc(-c5c([H])c([H])c(Oc6c([H])c([H])c(F)c([H])c6F)c([H])c5[H])c(C(=O)N([H])[H])c4N([H])[H])C3([H])[H])c([H])c([H])c2C1([H])[H]

$$$$
50:0:0
     RDKit          3D

111118  0  0  1  0  0  0  0  0999 V2000
  -24.3890  -23.9480   21.4040 C   0  0  0  0  0  2  0  0  0  0  0  0
  -25.4710  -22.9430   21.3770 N   0  0  0  0  0  4  0  0  0  0  0  0
  -25.0890  -22.0120   21.4290 H   0  0  0  0  0  0  0  0  0  0  0  0
  -25.8960  -23.0470   20.4660 H   0  0  0  0  0  0  0  0  0  0  0  0
  -26.5250  -23.1160   22.3960 C   0  0  0  0  0  2  0  0  0  0  0  0
  -27.7650  -22.2710   22.0520 C   0  0  0  0  0  2  0  0  0  0  0  0
  -28.4700  -22.7630   20.7750 C   0  0  0  0  0  2  0  0  0  0  0  0
  -29.6000  -21.8360   20.2970 C   0  0  0  0  0  2  0  0  0  0  0  0
  -30.3630  -22.4440   19.1140 C   0  0  0  0  0  2  0  0  0  0  0  0
  -31.1320  -23.5250   19.6140 O   0  0  0  0  0  0  0  0  0  0  0  0
  -31.6330  -24.3870   18.6050 C   0  0  0  0  0  2  0  0  0  0  0  0
  -32.4970  -25.4800   19.2570 C   0  0  0  0  0  2  0  0  0  0  0  0
  -31.6920  -26.5530   19.7280 O   0  0  0  0  0  0  0  0  0  0  0  0
  -31.1380  -26.3530   21.0240 C   0  0  0  0  0  2  0  0  0  0  0  0
  -29.9710  -27.3270   21.1950 C   0  0  0  0  0  2  0  0  0  0  0  0
  -28.8740  -26.8330   20.4340 O   0  0  0  0  0  0  0  0  0  0  0  0
  -24.7860  -31.9240   23.3240 C   0  0  0  0  0  0  0  0  0  0  0  0
  -27.7070  -27.5590   20.4390 C   0  0  0  0  0  0  0  0  0  0  0  0
  -23.6830  -30.4500   21.6620 C   0  0  0  0  0  3  0  0  0  0  0  0
  -25.2410  -28.9370   20.3250 C   0  0  0  0  0  0  0  0  0  0  0  0
  -26.1920  -30.9060   21.5430 C   0  0  0  0  0  2  0  0  0  0  0  0
  -26.3480  -29.5270   20.9470 C   0  0  0  0  0  0  0  0  0  0  0  0
  -27.5790  -28.8460   21.0110 C   0  0  0  0  0  3  0  0  0  0  0  0
  -26.5830  -26.9760   19.8170 C   0  0  0  0  0  3  0  0  0  0  0  0
  -25.3500  -27.6550   19.7580 C   0  0  0  0  0  3  0  0  0  0  0  0
  -23.9660  -29.7480   20.3050 C   0  0  0  0  0  2  0  0  0  0  0  0
  -24.9020  -31.1100   22.2370 N   0  0  0  0  0  0  0  0  0  0  0  0
  -23.6780  -32.1670   23.8220 O   0  0  0  0  0  0  0  0  0  0  0  0
  -23.0360  -29.4240   22.6200 C   0  0  0  0  0  0  0  0  0  0  0  0
  -21.7260  -29.1870   22.4420 N   0  0  0  0  0  0  0  0  0  0  0  0
  -23.7090  -28.8450   23.4790 O   0  0  0  0  0  0  0  0  0  0  0  0
  -21.2430  -29.7130   21.7260 H   0  0  0  0  0  0  0  0  0  0  0  0
  -18.3860  -27.8740   22.8150 C   0  0  0  0  0  0  0  0  0  0  0  0
  -20.9140  -28.2360   23.1990 C   0  0  0  0  0  3  0  0  0  0  0  0
  -21.0990  -26.7970   22.6640 C   0  0  0  0  0  2  0  0  0  0  0  0
  -20.0610  -26.4080   21.6080 C   0  0  0  0  0  2  0  0  0  0  0  0
  -18.6450  -26.5170   22.1830 C   0  0  0  0  0  2  0  0  0  0  0  0
  -19.4520  -28.6880   23.2770 C   0  0  0  0  0  0  0  0  0  0  0  0
  -19.1590  -29.9570   23.8230 C   0  0  0  0  0  3  0  0  0  0  0  0
  -17.8310  -30.4140   23.9090 C   0  0  0  0  0  3  0  0  0  0  0  0
  -16.7780  -29.5970   23.4630 C   0  0  0  0  0  3  0  0  0  0  0  0
  -17.0550  -28.3290   22.9230 C   0  0  0  0  0  3  0  0  0  0  0  0
  -26.0310  -32.6040   23.9770 C   0  0  0  0  0  3  0  0  0  0  0  0
  -25.6750  -34.0020   24.2510 N   0  0  0  0  0  0  0  0  0  0  0  0
  -26.0270  -35.0410   23.4820 C   0  0  0  0  0  0  0  0  0  0  0  0
  -26.7530  -34.9250   22.4890 O   0  0  0  0  0  0  0  0  0  0  0  0
  -25.0310  -34.1650   25.0100 H   0  0  0  0  0  0  0  0  0  0  0  0
  -24.2800  -36.7770   22.9840 C   0  0  0  0  0  1  0  0  0  0  0  0
  -25.4840  -36.4280   23.8720 C   0  0  0  0  0  3  0  0  0  0  0  0
  -27.5520  -37.3810   24.7860 C   0  0  0  0  0  1  0  0  0  0  0  0
  -26.4960  -37.5020   23.7850 N   0  0  0  0  0  0  0  0  0  0  0  0
  -26.0640  -38.4160   23.8920 H   0  0  0  0  0  0  0  0  0  0  0  0
  -26.5180  -31.8770   25.2900 C   0  0  1  0  0  0  0  0  0  0  0  0
  -25.3870  -31.6240   26.3120 C   0  0  0  0  0  1  0  0  0  0  0  0
  -27.1640  -30.5130   24.9490 C   0  0  0  0  0  1  0  0  0  0  0  0
  -27.6100  -32.7250   25.9860 C   0  0  0  0  0  1  0  0  0  0  0  0
  -23.8530  -24.1320   19.9860 C   0  0  0  0  0  2  0  0  0  0  0  0
  -24.9960  -24.4390   19.1900 O   0  0  0  0  0  0  0  0  0  0  0  0
  -24.6830  -24.6460   17.8200 C   0  0  0  0  0  2  0  0  0  0  0  0
  -25.9590  -24.9790   17.0230 C   0  0  0  0  0  2  0  0  0  0  0  0
  -27.1060  -23.9810   17.2300 C   0  0  0  0  0  2  0  0  0  0  0  0
  -26.6310  -22.6630   17.0040 O   0  0  0  0  0  0  0  0  0  0  0  0
  -27.6330  -21.6770   17.1970 C   0  0  0  0  0  2  0  0  0  0  0  0
  -27.0170  -20.3060   16.8950 C   0  0  0  0  0  2  0  0  0  0  0  0
  -28.0520  -19.2070   16.5840 C   0  0  0  0  0  2  0  0  0  0  0  0
  -28.6470  -18.2390   18.7960 C   0  0  0  0  0  0  0  0  0  0  0  0
  -28.9670  -18.9250   17.6930 N   0  0  0  0  0  0  0  0  0  0  0  0
  -27.5000  -17.8450   19.0070 O   0  0  0  0  0  0  0  0  0  0  0  0
  -29.9310  -19.2020   17.5800 H   0  0  0  0  0  0  0  0  0  0  0  0
  -29.7940  -17.9900   19.6500 C   0  0  0  0  0  3  0  0  0  0  0  0
  -29.6520  -17.2690   20.7810 C   0  0  0  0  0  3  0  0  0  0  0  0
  -32.0980  -17.5650   21.5620 C   0  0  0  0  0  1  0  0  0  0  0  0
  -30.7420  -16.8640   21.7650 C   0  0  0  0  0  3  0  0  0  0  0  0
  -31.4330  -14.5080   21.0680 C   0  0  0  0  0  0  0  0  0  0  0  0
  -31.0840  -12.4600   19.7320 C   0  0  0  0  0  2  0  0  0  0  0  0
  -30.2430  -12.8300   18.4940 C   0  0  0  0  0  2  0  0  0  0  0  0
  -28.7350  -12.7870   18.8090 C   0  0  0  0  0  2  0  0  0  0  0  0
  -28.3770  -13.5590   20.1080 C   0  0  0  0  0  3  0  0  0  0  0  0
  -29.3240  -13.1410   21.2570 C   0  0  0  0  0  2  0  0  0  0  0  0
  -30.7150  -13.3790   20.8190 N   0  0  0  0  0  0  0  0  0  0  0  0
  -32.5390  -14.7290   20.5680 O   0  0  0  0  0  0  0  0  0  0  0  0
  -30.7680  -15.3990   21.8250 N   0  0  0  0  0  0  0  0  0  0  0  0
  -29.9460  -15.0010   22.2560 H   0  0  0  0  0  0  0  0  0  0  0  0
  -25.9850  -14.3220   20.6850 C   0  0  0  0  0  0  0  0  0  0  0  0
  -24.8390  -13.6200   20.9370 C   0  0  0  0  0  0  0  0  0  0  0  0
  -25.1970  -12.2410   20.8570 C   0  0  0  0  0  0  0  0  0  0  0  0
  -26.9730  -13.3750   20.4690 N   0  0  0  0  0  0  0  0  0  0  0  0
  -26.4970  -12.1140   20.6270 N   0  0  0  0  0  0  0  0  0  0  0  0
  -24.3640  -11.0350   20.9290 C   0  0  0  0  0  0  0  0  0  0  0  0
  -24.6510   -9.9940   21.8390 C   0  0  0  0  0  3  0  0  0  0  0  0
  -23.8210   -8.8540   21.9030 C   0  0  0  0  0  3  0  0  0  0  0  0
  -22.6930   -8.7500   21.0560 C   0  0  0  0  0  0  0  0  0  0  0  0
  -22.4280   -9.7800   20.1360 C   0  0  0  0  0  3  0  0  0  0  0  0
  -23.2550  -10.9110   20.0680 C   0  0  0  0  0  3  0  0  0  0  0  0
  -21.8470   -7.6670   21.0300 O   0  0  0  0  0  0  0  0  0  0  0  0
  -21.6150   -6.9120   22.1490 C   0  0  0  0  0  0  0  0  0  0  0  0
  -21.1280   -7.4810   23.3460 C   0  0  0  0  0  3  0  0  0  0  0  0
  -20.8370   -6.6590   24.4520 C   0  0  0  0  0  3  0  0  0  0  0  0
  -21.0210   -5.2650   24.3570 C   0  0  0  0  0  0  0  0  0  0  0  0
  -21.5000   -4.6930   23.1670 C   0  0  0  0  0  3  0  0  0  0  0  0
  -21.7950   -5.5160   22.0640 C   0  0  0  0  0  0  0  0  0  0  0  0
  -22.2360   -4.9600   20.9100 F   0  0  0  0  0  0  0  0  0  0  0  0
  -20.7330   -4.4710   25.4150 F   0  0  0  0  0  0  0  0  0  0  0  0
  -23.4690  -14.1970   21.1430 C   0  0  0  0  0  0  0  0  0  0  0  0
  -22.6390  -13.5260   21.9340 N   0  0  0  0  0  0  0  0  0  0  0  0
  -23.1430  -15.2720   20.6420 O   0  0  0  0  0  0  0  0  0  0  0  0
  -22.9170  -12.6570   22.3640 H   0  0  0  0  0  0  0  0  0  0  0  0
  -21.7140  -13.8920   22.1160 H   0  0  0  0  0  0  0  0  0  0  0  0
  -26.2460  -15.6810   20.6000 N   0  0  0  0  0  0  0  0  0  0  0  0
  -25.4770  -16.3400   20.6320 H   0  0  0  0  0  0  0  0  0  0  0  0
  -27.0640  -16.0920   20.1640 H   0  0  0  0  0  0  0  0  0  0  0  0
  2  1  1  0
  2  3  1  0
  2  5  1  0
  4  2  1  0
  6  5  1  0
  7  6  1  0
  8  7  1  0
  9 10  1  0
  9  8  1  0
 11 12  1  0
 11 10  1  0
 12 13  1  0
 13 14  1  0
 14 15  1  0
 16 18  1  0
 16 15  1  0
 17 28  2  0
 18 23  1  0
 19 27  1  0
 19 29  1  0
 20 22  1  0
 21 27  1  0
 22 23  2  0
 22 21  1  0
 24 18  2  0
 25 24  1  0
 25 20  2  0
 26 20  1  0
 26 19  1  0
 27 17  1  0
 29 31  2  0
 30 29  1  0
 32 30  1  0
 33 42  2  0
 33 38  1  0
 34 30  1  0
 34 38  1  0
 35 34  1  0
 36 37  1  0
 36 35  1  0
 37 33  1  0
 38 39  2  0
 39 40  1  0
 41 40  2  0
 42 41  1  0
 43 17  1  0
 43 44  1  0
 43 53  1  0
 44 47  1  0
 45 49  1  0
 45 44  1  0
 46 45  2  0
 49 48  1  0
 51 49  1  0
 51 52  1  0
 51 50  1  0
 53 56  1  1
 53 54  1  0
 55 53  1  0
 57  1  1  0
 58 57  1  0
 59 58  1  0
 60 61  1  0
 60 59  1  0
 62 63  1  0
 62 61  1  0
 64 63  1  0
 65 64  1  0
 65 67  1  0
 66 68  2  0
 66 70  1  0
 67 66  1  0
 69 67  1  0
 70 71  2  0
 71 73  1  0
 73 72  1  0
 73 82  1  0
 74 82  1  0
 75 80  1  0
 76 77  1  0
 76 75  1  0
 78 77  1  0
 78 87  1  0
 78 79  1  0
 80 74  1  0
 80 79  1  0
 81 74  2  0
 82 83  1  0
 84 85  2  0
 85104  1  0
 86 89  1  0
 86 85  1  0
 87 88  1  0
 87 84  1  0
 88 86  2  0
 89 90  1  0
 90 91  2  0
 92 91  1  0
 93 92  2  0
 94 93  1  0
 94 89  2  0
 95 92  1  0
 95 96  1  0
 96 97  1  0
 97 98  2  0
 99 98  1  0
 99103  1  0
100 99  2  0
101 96  2  0
101100  1  0
102101  1  0
104105  1  0
105108  1  0
105107  1  0
106104  2  0
109110  1  0
109 84  1  0
111109  1  0
M  ISO  4  15 101  16 101  74 100  82 100
M  END
>  <TORSDO>  (48) 
F 40

>  <SCORE>  (48) 
-7.313

>  <name>  (48) 
50

>  <ligand_id>  (48) 
50

>  <original_smiles>  (48) 
[H]C(C(=O)N([H])C([H])([H])C([H])([H])C([H])([H])OC([H])([H])C([H])([H])C([H])([H])OC([H])([H])C([H])([H])[N+]([H])([H])C([H])([H])C([H])([H])C([H])([H])C([H])([H])C([H])([H])OC([H])([H])C([H])([H])OC([H])([H])C([H])([H])Oc1c([H])c([H])c2c(c1[H])C([H])([H])N(C(=O)C([H])(N([H])C(=O)C([H])(N([H])C([H])([H])[H])C([H])([H])[H])C(C([H])([H])[H])(C([H])([H])[H])C([H])([H])[H])C([H])(C(=O)N([H])C1([H])c3c([H])c([H])c([H])c([H])c3C([H])([H])C([H])([H])C1([H])[H])C2([H])[H])=C([H])C([H])(N([H])C(=O)N1C([H])([H])C([H])([H])C([H])([H])C([H])(n2nc(-c3c([H])c([H])c(Oc4c([H])c([H])c(F)c([H])c4F)c([H])c3[H])c(C(=O)N([H])[H])c2N([H])[H])C1([H])[H])C([H])([H])[H]

>  <smiles>  (48) 
[H]C(C(=O)N([H])C([H])([H])C([H])([H])C([H])([H])OC([H])([H])C([H])([H])C([H])([H])OC([H])([H])C([H])([H])[N+]([H])([H])C([H])([H])C([H])([H])C([H])([H])C([H])([H])C([H])([H])OC([H])([H])C([H])([H])OC([H])([H])C([H])([H])Oc1c([H])c([H])c2c(c1[H])C([H])([H])N(C(=O)C([H])(N([H])C(=O)C([H])(N([H])C([H])([H])[H])C([H])([H])[H])C(C([H])([H])[H])(C([H])([H])[H])C([H])([H])[H])C([H])(C(=O)N([H])C1([H])c3c([H])c([H])c([H])c([H])c3C([H])([H])C([H])([H])C1([H])[H])C2([H])[H])=C([H])C([H])(N([H])C(=O)N1C([H])([H])C([H])([H])C([H])([H])C([H])(n2nc(-c3c([H])c([H])c(Oc4c([H])c([H])c(F)c([H])c4F)c([H])c3[H])c(C(=O)N([H])[H])c2N([H])[H])C1([H])[H])C([H])([H])[H]

$$$$
51:0:0
     RDKit          3D

102109  0  0  1  0  0  0  0  0999 V2000
  -26.4280  -15.9010   17.7470 C   0  0  0  0  0  2  0  0  0  0  0  0
  -27.1290  -14.6140   17.4580 N   0  0  0  0  0  4  0  0  0  0  0  0
  -28.1120  -14.7430   17.6380 H   0  0  0  0  0  0  0  0  0  0  0  0
  -27.0280  -14.3970   16.4760 H   0  0  0  0  0  0  0  0  0  0  0  0
  -26.6240  -13.4460   18.2650 C   0  0  0  0  0  2  0  0  0  0  0  0
  -27.3170  -12.0610   17.9800 C   0  0  0  0  0  2  0  0  0  0  0  0
  -27.7400  -11.3660   19.1810 O   0  0  0  0  0  0  0  0  0  0  0  0
  -28.3790  -10.0770   18.9950 C   0  0  0  0  0  2  0  0  0  0  0  0
  -28.6010   -9.2160   20.3010 C   0  0  0  0  0  2  0  0  0  0  0  0
  -30.0480   -8.7190   20.7010 C   0  0  0  0  0  2  0  0  0  0  0  0
  -30.6450   -9.2630   21.9150 O   0  0  0  0  0  0  0  0  0  0  0  0
  -31.8770   -8.6120   22.3220 C   0  0  0  0  0  2  0  0  0  0  0  0
  -32.7420   -9.1570   23.5320 C   0  0  0  0  0  2  0  0  0  0  0  0
  -33.2990  -10.6180   23.8430 C   0  0  0  0  0  2  0  0  0  0  0  0
  -33.9570  -12.2120   21.9460 C   0  0  0  0  0  0  0  0  0  0  0  0
  -33.0210  -10.8430   20.2920 C   0  0  0  0  0  2  0  0  0  0  0  0
  -32.2150  -11.3130   19.1270 C   0  0  0  0  0  2  0  0  0  0  0  0
  -30.7810  -11.5060   19.5840 C   0  0  0  0  0  2  0  0  0  0  0  0
  -30.5810  -12.4750   20.7520 C   0  0  0  0  0  3  0  0  0  0  0  0
  -31.4860  -12.0860   21.9110 C   0  0  0  0  0  2  0  0  0  0  0  0
  -32.8340  -11.7800   21.3980 N   0  0  0  0  0  0  0  0  0  0  0  0
  -34.8430  -12.8130   21.3230 O   0  0  0  0  0  0  0  0  0  0  0  0
  -34.2560  -11.3600   22.9570 N   0  0  0  0  0  0  0  0  0  0  0  0
  -35.2170  -11.4090   23.2750 H   0  0  0  0  0  0  0  0  0  0  0  0
  -28.4390  -13.6920   21.4600 C   0  0  0  0  0  0  0  0  0  0  0  0
  -27.1530  -13.2780   21.6560 C   0  0  0  0  0  0  0  0  0  0  0  0
  -27.1560  -11.8660   21.4540 C   0  0  0  0  0  0  0  0  0  0  0  0
  -29.1710  -12.5640   21.1510 N   0  0  0  0  0  0  0  0  0  0  0  0
  -28.3950  -11.4510   21.2170 N   0  0  0  0  0  0  0  0  0  0  0  0
  -26.0400  -10.9100   21.4380 C   0  0  0  0  0  0  0  0  0  0  0  0
  -26.0460   -9.7660   22.2660 C   0  0  0  0  0  3  0  0  0  0  0  0
  -24.9540   -8.8730   22.2660 C   0  0  0  0  0  3  0  0  0  0  0  0
  -23.8330   -9.1230   21.4390 C   0  0  0  0  0  0  0  0  0  0  0  0
  -23.8380  -10.2520   20.6000 C   0  0  0  0  0  3  0  0  0  0  0  0
  -24.9310  -11.1320   20.5950 C   0  0  0  0  0  3  0  0  0  0  0  0
  -22.7320   -8.3080   21.3500 O   0  0  0  0  0  0  0  0  0  0  0  0
  -22.2310   -7.6490   22.4440 C   0  0  0  0  0  0  0  0  0  0  0  0
  -21.8410   -8.3390   23.6120 C   0  0  0  0  0  3  0  0  0  0  0  0
  -21.2680   -7.6300   24.6890 C   0  0  0  0  0  3  0  0  0  0  0  0
  -21.0800   -6.2380   24.5960 C   0  0  0  0  0  0  0  0  0  0  0  0
  -21.4590   -5.5530   23.4290 C   0  0  0  0  0  3  0  0  0  0  0  0
  -22.0320   -6.2560   22.3550 C   0  0  0  0  0  0  0  0  0  0  0  0
  -22.3740   -5.5960   21.2250 F   0  0  0  0  0  0  0  0  0  0  0  0
  -20.5220   -5.5610   25.6250 F   0  0  0  0  0  0  0  0  0  0  0  0
  -25.9640  -14.1500   21.9320 C   0  0  0  0  0  0  0  0  0  0  0  0
  -24.9860  -13.6600   22.6840 N   0  0  0  0  0  0  0  0  0  0  0  0
  -25.9190  -15.3060   21.5150 O   0  0  0  0  0  0  0  0  0  0  0  0
  -25.0090  -12.7260   23.0700 H   0  0  0  0  0  0  0  0  0  0  0  0
  -24.1660  -14.2310   22.8530 H   0  0  0  0  0  0  0  0  0  0  0  0
  -29.0530  -14.9420   21.5060 N   0  0  0  0  0  0  0  0  0  0  0  0
  -28.5380  -15.7650   21.8040 H   0  0  0  0  0  0  0  0  0  0  0  0
  -30.0550  -15.0670   21.5350 H   0  0  0  0  0  0  0  0  0  0  0  0
  -27.1830  -17.2300   17.4070 C   0  0  0  0  0  2  0  0  0  0  0  0
  -26.7970  -18.3210   18.4480 C   0  0  0  0  0  2  0  0  0  0  0  0
  -27.4250  -19.6060   18.3240 O   0  0  0  0  0  0  0  0  0  0  0  0
  -27.2640  -20.3640   19.5360 C   0  0  0  0  0  2  0  0  0  0  0  0
  -27.8070  -21.8080   19.4840 C   0  0  0  0  0  2  0  0  0  0  0  0
  -27.4570  -22.6140   20.7610 C   0  0  0  0  0  2  0  0  0  0  0  0
  -28.2310  -23.8120   20.8450 O   0  0  0  0  0  0  0  0  0  0  0  0
  -27.8990  -24.6350   21.9670 C   0  0  0  0  0  2  0  0  0  0  0  0
  -28.8770  -25.8380   22.0820 C   0  0  0  0  0  2  0  0  0  0  0  0
  -28.9890  -26.6830   20.9150 O   0  0  0  0  0  0  0  0  0  0  0  0
  -24.7860  -31.7570   23.4790 C   0  0  0  0  0  0  0  0  0  0  0  0
  -27.8570  -27.4260   20.7140 C   0  0  0  0  0  0  0  0  0  0  0  0
  -23.7810  -30.2550   21.7890 C   0  0  0  0  0  3  0  0  0  0  0  0
  -25.4160  -28.7980   20.4860 C   0  0  0  0  0  0  0  0  0  0  0  0
  -26.2820  -30.7800   21.7390 C   0  0  0  0  0  2  0  0  0  0  0  0
  -26.4950  -29.4040   21.1430 C   0  0  0  0  0  0  0  0  0  0  0  0
  -27.7270  -28.7240   21.2540 C   0  0  0  0  0  3  0  0  0  0  0  0
  -26.7760  -26.8420   20.0280 C   0  0  0  0  0  3  0  0  0  0  0  0
  -25.5530  -27.5230   19.9150 C   0  0  0  0  0  3  0  0  0  0  0  0
  -24.1250  -29.5770   20.4340 C   0  0  0  0  0  2  0  0  0  0  0  0
  -24.9640  -30.9490   22.3960 N   0  0  0  0  0  0  0  0  0  0  0  0
  -23.6570  -31.9670   23.9410 O   0  0  0  0  0  0  0  0  0  0  0  0
  -23.1350  -29.2080   22.7270 C   0  0  0  0  0  0  0  0  0  0  0  0
  -21.8500  -28.9000   22.4830 N   0  0  0  0  0  0  0  0  0  0  0  0
  -23.7880  -28.6780   23.6290 O   0  0  0  0  0  0  0  0  0  0  0  0
  -21.3850  -29.3850   21.7280 H   0  0  0  0  0  0  0  0  0  0  0  0
  -18.5770  -27.3750   22.6590 C   0  0  0  0  0  0  0  0  0  0  0  0
  -21.0440  -27.9190   23.2100 C   0  0  0  0  0  3  0  0  0  0  0  0
  -21.3600  -26.4810   22.7360 C   0  0  0  0  0  2  0  0  0  0  0  0
  -20.4280  -25.9940   21.6230 C   0  0  0  0  0  2  0  0  0  0  0  0
  -18.9700  -26.0210   22.0920 C   0  0  0  0  0  2  0  0  0  0  0  0
  -19.5520  -28.2730   23.1690 C   0  0  0  0  0  0  0  0  0  0  0  0
  -19.1360  -29.5340   23.6510 C   0  0  0  0  0  3  0  0  0  0  0  0
  -17.7770  -29.9000   23.6330 C   0  0  0  0  0  3  0  0  0  0  0  0
  -16.8150  -29.0000   23.1410 C   0  0  0  0  0  3  0  0  0  0  0  0
  -17.2140  -27.7410   22.6600 C   0  0  0  0  0  3  0  0  0  0  0  0
  -25.9850  -32.4790   24.1680 C   0  0  0  0  0  3  0  0  0  0  0  0
  -25.5950  -33.8780   24.3860 N   0  0  0  0  0  0  0  0  0  0  0  0
  -25.9670  -34.9000   23.6030 C   0  0  0  0  0  0  0  0  0  0  0  0
  -26.7420  -34.7680   22.6510 O   0  0  0  0  0  0  0  0  0  0  0  0
  -24.9150  -34.0520   25.1100 H   0  0  0  0  0  0  0  0  0  0  0  0
  -24.2250  -36.6000   22.9700 C   0  0  0  0  0  1  0  0  0  0  0  0
  -25.3870  -36.2890   23.9270 C   0  0  0  0  0  3  0  0  0  0  0  0
  -27.3920  -37.3010   24.9190 C   0  0  0  0  0  1  0  0  0  0  0  0
  -26.3880  -37.3760   23.8600 N   0  0  0  0  0  0  0  0  0  0  0  0
  -25.9370  -38.2850   23.9170 H   0  0  0  0  0  0  0  0  0  0  0  0
  -26.4210  -31.8000   25.5240 C   0  0  1  0  0  0  0  0  0  0  0  0
  -25.2510  -31.5660   26.5070 C   0  0  0  0  0  1  0  0  0  0  0  0
  -27.0950  -30.4350   25.2520 C   0  0  0  0  0  1  0  0  0  0  0  0
  -27.4740  -32.6820   26.2370 C   0  0  0  0  0  1  0  0  0  0  0  0
  2  3  1  0
  2  1  1  0
  2  5  1  0
  4  2  1  0
  6  5  1  0
  6  7  1  0
  8  7  1  0
  8  9  1  0
  9 10  1  0
 10 11  1  0
 11 12  1  0
 12 13  1  0
 13 14  1  0
 15 23  1  0
 16 21  1  0
 17 18  1  0
 17 16  1  0
 19 18  1  0
 19 28  1  0
 19 20  1  0
 21 20  1  0
 21 15  1  0
 22 15  2  0
 23 24  1  0
 23 14  1  0
 25 50  1  0
 25 26  2  0
 26 45  1  0
 27 26  1  0
 28 29  1  0
 28 25  1  0
 29 27  2  0
 30 27  1  0
 30 31  1  0
 32 31  2  0
 33 32  1  0
 34 33  2  0
 35 34  1  0
 35 30  2  0
 36 33  1  0
 36 37  1  0
 37 38  1  0
 38 39  2  0
 40 39  1  0
 40 44  1  0
 41 40  2  0
 42 37  2  0
 42 41  1  0
 43 42  1  0
 45 46  1  0
 46 49  1  0
 46 48  1  0
 47 45  2  0
 50 52  1  0
 50 51  1  0
 53  1  1  0
 53 54  1  0
 55 54  1  0
 55 56  1  0
 57 56  1  0
 57 58  1  0
 58 59  1  0
 59 60  1  0
 60 61  1  0
 62 61  1  0
 63 74  2  0
 64 62  1  0
 64 69  1  0
 65 73  1  0
 65 75  1  0
 66 68  1  0
 67 73  1  0
 68 69  2  0
 68 67  1  0
 70 64  2  0
 71 70  1  0
 71 66  2  0
 72 66  1  0
 72 65  1  0
 73 63  1  0
 75 77  2  0
 76 75  1  0
 78 76  1  0
 79 88  2  0
 79 84  1  0
 80 76  1  0
 81 80  1  0
 82 83  1  0
 82 81  1  0
 83 79  1  0
 84 80  1  0
 84 85  2  0
 86 85  1  0
 87 86  2  0
 88 87  1  0
 89 63  1  0
 89 90  1  0
 89 99  1  0
 90 93  1  0
 91 95  1  0
 91 90  1  0
 92 91  2  0
 95 94  1  0
 97 98  1  0
 97 95  1  0
 97 96  1  0
 99102  1  1
 99100  1  0
101 99  1  0
M  ISO  4  15 100  23 100  61 101  62 101
M  END
>  <TORSDO>  (49) 
F 36

>  <SCORE>  (49) 
0.934

>  <name>  (49) 
51

>  <ligand_id>  (49) 
51

>  <original_smiles>  (49) 
[H]c1c([H])c([H])c2c(c1[H])C([H])([H])C([H])([H])C([H])([H])C2([H])N([H])C(=O)C1([H])N(C(=O)C([H])(N([H])C(=O)C([H])(N([H])C([H])([H])[H])C([H])([H])[H])C(C([H])([H])[H])(C([H])([H])[H])C([H])([H])[H])C([H])([H])c2c([H])c(OC([H])([H])C([H])([H])OC([H])([H])C([H])([H])C([H])([H])OC([H])([H])C([H])([H])C([H])([H])[N+]([H])([H])C([H])([H])C([H])([H])OC([H])([H])C([H])([H])C([H])([H])OC([H])([H])C([H])([H])C([H])([H])N([H])C(=O)N3C([H])([H])C([H])([H])C([H])([H])C([H])(n4nc(-c5c([H])c([H])c(Oc6c([H])c([H])c(F)c([H])c6F)c([H])c5[H])c(C(=O)N([H])[H])c4N([H])[H])C3([H])[H])c([H])c([H])c2C1([H])[H]

>  <smiles>  (49) 
[H]c1c([H])c([H])c2c(c1[H])C([H])([H])C([H])([H])C([H])([H])C2([H])N([H])C(=O)C1([H])N(C(=O)C([H])(N([H])C(=O)C([H])(N([H])C([H])([H])[H])C([H])([H])[H])C(C([H])([H])[H])(C([H])([H])[H])C([H])([H])[H])C([H])([H])c2c([H])c(OC([H])([H])C([H])([H])OC([H])([H])C([H])([H])C([H])([H])OC([H])([H])C([H])([H])C([H])([H])[N+]([H])([H])C([H])([H])C([H])([H])OC([H])([H])C([H])([H])C([H])([H])OC([H])([H])C([H])([H])C([H])([H])N([H])C(=O)N3C([H])([H])C([H])([H])C([H])([H])C([H])(n4nc(-c5c([H])c([H])c(Oc6c([H])c([H])c(F)c([H])c6F)c([H])c5[H])c(C(=O)N([H])[H])c4N([H])[H])C3([H])[H])c([H])c([H])c2C1([H])[H]

$$$$
52:0:0
     RDKit          3D

104111  0  0  1  0  0  0  0  0999 V2000
  -28.7050  -19.6180   19.4760 C   0  0  0  0  0  0  0  0  0  0  0  0
  -27.5640  -19.9810   18.8890 N   0  0  0  0  0  0  0  0  0  0  0  0
  -28.7490  -19.2080   20.6400 O   0  0  0  0  0  0  0  0  0  0  0  0
  -27.6170  -20.3130   17.9350 H   0  0  0  0  0  0  0  0  0  0  0  0
  -29.9960  -19.7420   18.6320 C   0  0  0  0  0  3  0  0  0  0  0  0
  -29.9320  -22.2850   18.2730 C   0  0  0  0  0  1  0  0  0  0  0  0
  -31.1560  -21.3850   20.2580 C   0  0  0  0  0  1  0  0  0  0  0  0
  -32.0770  -21.0730   17.9550 C   0  0  0  0  0  1  0  0  0  0  0  0
  -30.7750  -21.0990   18.7890 C   0  0  1  0  0  0  0  0  0  0  0  0
  -31.2880  -17.6140   18.2500 C   0  0  0  0  0  0  0  0  0  0  0  0
  -30.8630  -18.6290   19.0060 N   0  0  0  0  0  0  0  0  0  0  0  0
  -30.9570  -17.4860   17.0700 O   0  0  0  0  0  0  0  0  0  0  0  0
  -31.0990  -18.5980   19.9860 H   0  0  0  0  0  0  0  0  0  0  0  0
  -32.2250  -16.5760   18.8990 C   0  0  0  0  0  3  0  0  0  0  0  0
  -32.0470  -14.1240   18.3460 C   0  0  0  0  0  0  0  0  0  0  0  0
  -31.5760  -11.6970   18.1480 C   0  0  0  0  0  2  0  0  0  0  0  0
  -30.4250  -11.4390   17.1550 C   0  0  0  0  0  2  0  0  0  0  0  0
  -29.0540  -11.5750   17.8450 C   0  0  0  0  0  2  0  0  0  0  0  0
  -28.9340  -12.8810   18.6740 C   0  0  0  0  0  3  0  0  0  0  0  0
  -30.1600  -13.0320   19.5980 C   0  0  0  0  0  2  0  0  0  0  0  0
  -31.3650  -13.0230   18.7490 N   0  0  0  0  0  0  0  0  0  0  0  0
  -32.9930  -14.0910   17.5520 O   0  0  0  0  0  0  0  0  0  0  0  0
  -31.5950  -15.2600   18.8930 N   0  0  0  0  0  0  0  0  0  0  0  0
  -30.7690  -15.1680   19.4620 H   0  0  0  0  0  0  0  0  0  0  0  0
  -27.0230  -14.0170   19.9710 C   0  0  0  0  0  0  0  0  0  0  0  0
  -25.8700  -13.5230   20.5160 C   0  0  0  0  0  0  0  0  0  0  0  0
  -25.8900  -12.1150   20.2730 C   0  0  0  0  0  0  0  0  0  0  0  0
  -27.6870  -12.9250   19.4320 N   0  0  0  0  0  0  0  0  0  0  0  0
  -27.0190  -11.7680   19.6690 N   0  0  0  0  0  0  0  0  0  0  0  0
  -24.8780  -11.0840   20.5360 C   0  0  0  0  0  0  0  0  0  0  0  0
  -25.1230  -10.0260   21.4400 C   0  0  0  0  0  3  0  0  0  0  0  0
  -24.1310   -9.0510   21.6840 C   0  0  0  0  0  3  0  0  0  0  0  0
  -22.8790   -9.1320   21.0310 C   0  0  0  0  0  0  0  0  0  0  0  0
  -22.6500  -10.1760   20.1170 C   0  0  0  0  0  3  0  0  0  0  0  0
  -23.6380  -11.1430   19.8690 C   0  0  0  0  0  3  0  0  0  0  0  0
  -21.8650   -8.2200   21.1880 O   0  0  0  0  0  0  0  0  0  0  0  0
  -21.6280   -7.6120   22.3940 C   0  0  0  0  0  0  0  0  0  0  0  0
  -21.2960   -8.3510   23.5500 C   0  0  0  0  0  3  0  0  0  0  0  0
  -20.9910   -7.6820   24.7530 C   0  0  0  0  0  3  0  0  0  0  0  0
  -21.0080   -6.2750   24.7990 C   0  0  0  0  0  0  0  0  0  0  0  0
  -21.3320   -5.5350   23.6480 C   0  0  0  0  0  3  0  0  0  0  0  0
  -21.6410   -6.2030   22.4490 C   0  0  0  0  0  0  0  0  0  0  0  0
  -21.9330   -5.4860   21.3380 F   0  0  0  0  0  0  0  0  0  0  0  0
  -20.7080   -5.6300   25.9500 F   0  0  0  0  0  0  0  0  0  0  0  0
  -24.7620  -14.3180   21.1470 C   0  0  0  0  0  0  0  0  0  0  0  0
  -24.0990  -13.7600   22.1520 N   0  0  0  0  0  0  0  0  0  0  0  0
  -24.5160  -15.4670   20.7810 O   0  0  0  0  0  0  0  0  0  0  0  0
  -24.3180  -12.8260   22.4660 H   0  0  0  0  0  0  0  0  0  0  0  0
  -23.3590  -14.2740   22.6110 H   0  0  0  0  0  0  0  0  0  0  0  0
  -27.5420  -15.3050   19.8710 N   0  0  0  0  0  0  0  0  0  0  0  0
  -27.0500  -16.1020   20.2570 H   0  0  0  0  0  0  0  0  0  0  0  0
  -28.4060  -15.5550   19.4020 H   0  0  0  0  0  0  0  0  0  0  0  0
  -31.6600  -17.0920   21.4380 C   0  0  0  0  0  1  0  0  0  0  0  0
  -33.7290  -15.8200   20.8090 C   0  0  0  0  0  1  0  0  0  0  0  0
  -32.7400  -16.9040   20.3390 C   0  0  0  0  0  3  0  0  0  0  0  0
  -26.2390  -20.0580   19.4950 C   0  0  0  0  0  2  0  0  0  0  0  0
  -25.5420  -21.3310   18.9950 C   0  0  0  0  0  2  0  0  0  0  0  0
  -26.2180  -21.7360   17.8070 O   0  0  0  0  0  0  0  0  0  0  0  0
  -26.2870  -23.1400   17.5930 C   0  0  0  0  0  2  0  0  0  0  0  0
  -27.4740  -23.3770   16.6560 C   0  0  0  0  0  2  0  0  0  0  0  0
  -28.0530  -24.6490   16.8930 O   0  0  0  0  0  0  0  0  0  0  0  0
  -29.1680  -24.8920   16.0420 C   0  0  0  0  0  2  0  0  0  0  0  0
  -29.8300  -26.2340   16.3850 C   0  0  0  0  0  2  0  0  0  0  0  0
  -29.0250  -27.3280   15.9510 O   0  0  0  0  0  0  0  0  0  0  0  0
  -25.5550  -27.5990   22.1450 C   0  0  0  0  0  0  0  0  0  0  0  0
  -27.8240  -27.4440   16.5980 C   0  0  0  0  0  0  0  0  0  0  0  0
  -24.1350  -27.4510   20.1190 C   0  0  0  0  0  3  0  0  0  0  0  0
  -25.3460  -27.7790   17.8960 C   0  0  0  0  0  0  0  0  0  0  0  0
  -26.4540  -28.5140   20.0150 C   0  0  0  0  0  2  0  0  0  0  0  0
  -26.5400  -28.0390   18.5820 C   0  0  0  0  0  0  0  0  0  0  0  0
  -27.7820  -27.8690   17.9420 C   0  0  0  0  0  3  0  0  0  0  0  0
  -26.6190  -27.2010   15.9070 C   0  0  0  0  0  3  0  0  0  0  0  0
  -25.3800  -27.3540   16.5560 C   0  0  0  0  0  3  0  0  0  0  0  0
  -24.0610  -27.9880   18.6620 C   0  0  0  0  0  2  0  0  0  0  0  0
  -25.4110  -27.8280   20.8100 N   0  0  0  0  0  0  0  0  0  0  0  0
  -24.6280  -27.1170   22.8110 O   0  0  0  0  0  0  0  0  0  0  0  0
  -23.8870  -25.9240   20.0900 C   0  0  0  0  0  0  0  0  0  0  0  0
  -22.6370  -25.5310   19.8000 N   0  0  0  0  0  0  0  0  0  0  0  0
  -24.8070  -25.1280   20.2930 O   0  0  0  0  0  0  0  0  0  0  0  0
  -21.9360  -26.2450   19.6530 H   0  0  0  0  0  0  0  0  0  0  0  0
  -19.7630  -23.4730   19.0500 C   0  0  0  0  0  0  0  0  0  0  0  0
  -22.1750  -24.1490   19.6790 C   0  0  0  0  0  3  0  0  0  0  0  0
  -22.5960  -23.5380   18.3250 C   0  0  0  0  0  2  0  0  0  0  0  0
  -21.5230  -23.6750   17.2400 C   0  0  0  0  0  2  0  0  0  0  0  0
  -20.2170  -23.0070   17.6790 C   0  0  0  0  0  2  0  0  0  0  0  0
  -20.6800  -24.0230   19.9850 C   0  0  0  0  0  0  0  0  0  0  0  0
  -20.1980  -24.4720   21.2350 C   0  0  0  0  0  3  0  0  0  0  0  0
  -18.8330  -24.3810   21.5560 C   0  0  0  0  0  3  0  0  0  0  0  0
  -17.9310  -23.8260   20.6310 C   0  0  0  0  0  3  0  0  0  0  0  0
  -18.3970  -23.3710   19.3850 C   0  0  0  0  0  3  0  0  0  0  0  0
  -26.8760  -27.9490   22.9030 C   0  0  0  0  0  3  0  0  0  0  0  0
  -26.5050  -28.6960   24.1120 N   0  0  0  0  0  0  0  0  0  0  0  0
  -26.6950  -30.0110   24.2820 C   0  0  0  0  0  0  0  0  0  0  0  0
  -27.2750  -30.7160   23.4500 O   0  0  0  0  0  0  0  0  0  0  0  0
  -25.9900  -28.1890   24.8160 H   0  0  0  0  0  0  0  0  0  0  0  0
  -24.8620  -31.4200   25.2740 C   0  0  0  0  0  1  0  0  0  0  0  0
  -26.1550  -30.6460   25.5780 C   0  0  0  0  0  3  0  0  0  0  0  0
  -28.2680  -30.8290   26.8130 C   0  0  0  0  0  1  0  0  0  0  0  0
  -27.1250  -31.5390   26.2470 N   0  0  0  0  0  0  0  0  0  0  0  0
  -26.6780  -32.0590   26.9970 H   0  0  0  0  0  0  0  0  0  0  0  0
  -27.7390  -26.6800   23.2700 C   0  0  1  0  0  0  0  0  0  0  0  0
  -26.9380  -25.5800   24.0050 C   0  0  0  0  0  1  0  0  0  0  0  0
  -28.3500  -26.0500   21.9960 C   0  0  0  0  0  1  0  0  0  0  0  0
  -28.9210  -27.0940   24.1790 C   0  0  0  0  0  1  0  0  0  0  0  0
  1  3  2  0
  2  1  1  0
  2 56  1  0
  4  2  1  0
  5  9  1  0
  5 11  1  0
  5  1  1  0
  9  6  1  6
  8  9  1  0
  9  7  1  0
 10 11  1  0
 11 13  1  0
 12 10  2  0
 14 10  1  0
 14 55  1  0
 15 21  1  0
 15 23  1  0
 16 21  1  0
 17 18  1  0
 17 16  1  0
 19 18  1  0
 19 28  1  0
 19 20  1  0
 21 20  1  0
 22 15  2  0
 23 14  1  0
 23 24  1  0
 25 26  2  0
 26 45  1  0
 27 26  1  0
 27 30  1  0
 28 29  1  0
 28 25  1  0
 29 27  2  0
 30 31  1  0
 31 32  2  0
 33 36  1  0
 33 32  1  0
 34 33  2  0
 35 34  1  0
 35 30  2  0
 36 37  1  0
 37 42  2  0
 37 38  1  0
 38 39  2  0
 39 40  1  0
 40 44  1  0
 41 40  2  0
 42 41  1  0
 43 42  1  0
 45 46  1  0
 46 48  1  0
 46 49  1  0
 47 45  2  0
 50 25  1  0
 50 51  1  0
 52 50  1  0
 55 54  1  0
 55 53  1  0
 57 56  1  0
 58 57  1  0
 59 58  1  0
 60 61  1  0
 60 59  1  0
 62 63  1  0
 62 61  1  0
 64 63  1  0
 64 66  1  0
 65 76  2  0
 66 71  1  0
 67 77  1  0
 67 75  1  0
 68 70  1  0
 68 74  1  0
 69 75  1  0
 70 69  1  0
 71 70  2  0
 72 73  1  0
 72 66  2  0
 73 68  2  0
 74 67  1  0
 75 65  1  0
 77 79  2  0
 78 77  1  0
 80 78  1  0
 81 90  2  0
 81 86  1  0
 82 78  1  0
 82 86  1  0
 83 82  1  0
 84 85  1  0
 84 83  1  0
 85 81  1  0
 86 87  2  0
 87 88  1  0
 89 88  2  0
 90 89  1  0
 91 65  1  0
 91101  1  0
 91 92  1  0
 92 93  1  0
 92 95  1  0
 93 97  1  0
 94 93  2  0
 97 96  1  0
 97 99  1  0
 99 98  1  0
 99100  1  0
101102  1  1
101104  1  0
103101  1  0
M  ISO  4  15 100  23 100  63 101  64 101
M  END
>  <TORSDO>  (50) 
F 29

>  <SCORE>  (50) 
-2.621

>  <name>  (50) 
52

>  <ligand_id>  (50) 
52

>  <original_smiles>  (50) 
[H]c1c([H])c([H])c2c(c1[H])C([H])([H])C([H])([H])C([H])([H])C2([H])N([H])C(=O)C1([H])N(C(=O)C([H])(N([H])C(=O)C([H])(N([H])C([H])([H])[H])C([H])([H])[H])C(C([H])([H])[H])(C([H])([H])[H])C([H])([H])[H])C([H])([H])c2c([H])c(OC([H])([H])C([H])([H])OC([H])([H])C([H])([H])OC([H])([H])C([H])([H])N([H])C(=O)C([H])(N([H])C(=O)C([H])(N([H])C(=O)N3C([H])([H])C([H])([H])C([H])([H])C([H])(n4nc(-c5c([H])c([H])c(Oc6c([H])c([H])c(F)c([H])c6F)c([H])c5[H])c(C(=O)N([H])[H])c4N([H])[H])C3([H])[H])C([H])(C([H])([H])[H])C([H])([H])[H])C(C([H])([H])[H])(C([H])([H])[H])C([H])([H])[H])c([H])c([H])c2C1([H])[H]

>  <smiles>  (50) 
[H]c1c([H])c([H])c2c(c1[H])C([H])([H])C([H])([H])C([H])([H])C2([H])N([H])C(=O)C1([H])N(C(=O)C([H])(N([H])C(=O)C([H])(N([H])C([H])([H])[H])C([H])([H])[H])C(C([H])([H])[H])(C([H])([H])[H])C([H])([H])[H])C([H])([H])c2c([H])c(OC([H])([H])C([H])([H])OC([H])([H])C([H])([H])OC([H])([H])C([H])([H])N([H])C(=O)C([H])(N([H])C(=O)C([H])(N([H])C(=O)N3C([H])([H])C([H])([H])C([H])([H])C([H])(n4nc(-c5c([H])c([H])c(Oc6c([H])c([H])c(F)c([H])c6F)c([H])c5[H])c(C(=O)N([H])[H])c4N([H])[H])C3([H])[H])C([H])(C([H])([H])[H])C([H])([H])[H])C(C([H])([H])[H])(C([H])([H])[H])C([H])([H])[H])c([H])c([H])c2C1([H])[H]

$$$$
53:0:0
     RDKit          3D

117124  0  0  1  0  0  0  0  0999 V2000
  -28.2650  -20.7120   20.9180 C   0  0  0  0  0  0  0  0  0  0  0  0
  -29.2060  -19.7740   21.0560 N   0  0  0  0  0  0  0  0  0  0  0  0
  -27.3470  -20.6350   20.1030 O   0  0  0  0  0  0  0  0  0  0  0  0
  -29.8750  -19.9070   21.8020 H   0  0  0  0  0  0  0  0  0  0  0  0
  -28.5660  -21.8850   21.7070 C   0  0  0  0  0  3  0  0  0  0  0  0
  -27.7320  -22.9400   21.6500 C   0  0  0  0  0  3  0  0  0  0  0  0
  -28.0890  -24.2240   22.2020 C   0  0  0  0  0  0  0  0  0  0  0  0
  -29.1550  -24.7070   21.5600 N   0  0  0  0  0  0  0  0  0  0  0  0
  -27.4020  -24.8990   22.9660 O   0  0  0  0  0  0  0  0  0  0  0  0
  -29.7070  -24.0170   21.0690 H   0  0  0  0  0  0  0  0  0  0  0  0
  -29.0780  -25.9540   20.8050 C   0  0  0  0  0  3  0  0  0  0  0  0
  -30.1770  -26.9650   21.1850 C   0  0  0  0  0  0  0  0  0  0  0  0
  -30.8570  -26.7490   22.3080 N   0  0  0  0  0  0  0  0  0  0  0  0
  -30.4140  -27.9560   20.4980 O   0  0  0  0  0  0  0  0  0  0  0  0
  -30.6290  -25.9390   22.8660 H   0  0  0  0  0  0  0  0  0  0  0  0
  -31.5620  -27.4010   22.6220 H   0  0  0  0  0  0  0  0  0  0  0  0
  -29.1500  -25.5730   19.3110 C   0  0  0  0  0  0  0  0  0  0  0  0
  -29.9830  -24.7840   18.8500 O   0  0  0  0  0  0  0  0  0  0  0  0
  -28.0420  -26.1310   18.4210 C   0  0  0  0  0  2  0  0  0  0  0  0
  -27.9900  -27.5380   18.6110 O   0  0  0  0  0  0  0  0  0  0  0  0
  -24.6220  -31.7880   23.1660 C   0  0  0  0  0  0  0  0  0  0  0  0
  -26.7930  -28.1390   18.9190 C   0  0  0  0  0  0  0  0  0  0  0  0
  -23.1920  -30.7410   21.4380 C   0  0  0  0  0  3  0  0  0  0  0  0
  -24.4290  -29.5430   19.5590 C   0  0  0  0  0  0  0  0  0  0  0  0
  -25.6740  -31.1680   20.9970 C   0  0  0  0  0  2  0  0  0  0  0  0
  -25.6560  -29.9570   20.0890 C   0  0  0  0  0  0  0  0  0  0  0  0
  -26.8370  -29.2590   19.7720 C   0  0  0  0  0  3  0  0  0  0  0  0
  -25.5480  -27.7250   18.3900 C   0  0  0  0  0  3  0  0  0  0  0  0
  -24.3680  -28.4200   18.7140 C   0  0  0  0  0  3  0  0  0  0  0  0
  -23.2130  -30.3580   19.9340 C   0  0  0  0  0  2  0  0  0  0  0  0
  -24.5220  -31.2340   21.9250 N   0  0  0  0  0  0  0  0  0  0  0  0
  -23.6240  -31.9330   23.8850 O   0  0  0  0  0  0  0  0  0  0  0  0
  -22.6550  -29.5380   22.2430 C   0  0  0  0  0  0  0  0  0  0  0  0
  -21.3300  -29.3280   22.1890 N   0  0  0  0  0  0  0  0  0  0  0  0
  -23.4220  -28.8020   22.8710 O   0  0  0  0  0  0  0  0  0  0  0  0
  -20.7690  -29.9810   21.6590 H   0  0  0  0  0  0  0  0  0  0  0  0
  -18.0620  -27.8430   22.5890 C   0  0  0  0  0  0  0  0  0  0  0  0
  -20.6050  -28.2360   22.8360 C   0  0  0  0  0  3  0  0  0  0  0  0
  -20.7820  -26.9120   22.0560 C   0  0  0  0  0  2  0  0  0  0  0  0
  -19.6700  -26.6620   21.0320 C   0  0  0  0  0  2  0  0  0  0  0  0
  -18.3040  -26.6180   21.7240 C   0  0  0  0  0  2  0  0  0  0  0  0
  -19.1420  -28.6120   23.0990 C   0  0  0  0  0  0  0  0  0  0  0  0
  -18.8610  -29.7620   23.8680 C   0  0  0  0  0  3  0  0  0  0  0  0
  -17.5340  -30.1440   24.1330 C   0  0  0  0  0  3  0  0  0  0  0  0
  -16.4680  -29.3710   23.6400 C   0  0  0  0  0  3  0  0  0  0  0  0
  -16.7330  -28.2220   22.8730 C   0  0  0  0  0  3  0  0  0  0  0  0
  -25.9880  -32.2890   23.7310 C   0  0  0  0  0  3  0  0  0  0  0  0
  -25.7540  -33.5990   24.3550 N   0  0  0  0  0  0  0  0  0  0  0  0
  -26.0860  -34.7740   23.8020 C   0  0  0  0  0  0  0  0  0  0  0  0
  -26.6930  -34.8630   22.7310 O   0  0  0  0  0  0  0  0  0  0  0  0
  -25.2110  -33.6030   25.2060 H   0  0  0  0  0  0  0  0  0  0  0  0
  -24.4280  -36.6610   23.9030 C   0  0  0  0  0  1  0  0  0  0  0  0
  -25.6770  -36.0520   24.5570 C   0  0  0  0  0  3  0  0  0  0  0  0
  -27.8780  -36.6660   25.4570 C   0  0  0  0  0  1  0  0  0  0  0  0
  -26.7510  -37.0670   24.6190 N   0  0  0  0  0  0  0  0  0  0  0  0
  -26.3930  -37.9500   24.9720 H   0  0  0  0  0  0  0  0  0  0  0  0
  -26.6420  -31.2870   24.7610 C   0  0  1  0  0  0  0  0  0  0  0  0
  -25.6880  -30.8590   25.9000 C   0  0  0  0  0  1  0  0  0  0  0  0
  -27.1270  -30.0060   24.0420 C   0  0  0  0  0  1  0  0  0  0  0  0
  -27.8920  -31.9350   25.4020 C   0  0  0  0  0  1  0  0  0  0  0  0
  -29.5620  -18.8050   20.0210 C   0  0  0  0  0  2  0  0  0  0  0  0
  -28.4770  -17.7590   19.7250 C   0  0  0  0  0  2  0  0  0  0  0  0
  -27.2480  -18.3370   19.2890 O   0  0  0  0  0  0  0  0  0  0  0  0
  -26.9880  -18.3780   17.8810 C   0  0  0  0  0  2  0  0  0  0  0  0
  -27.4900  -19.6640   17.1970 C   0  0  0  0  0  2  0  0  0  0  0  0
  -28.8590  -19.5520   16.5040 C   0  0  0  0  0  2  0  0  0  0  0  0
  -29.3990  -20.8640   16.3730 O   0  0  0  0  0  0  0  0  0  0  0  0
  -30.8210  -20.9010   16.3810 C   0  0  0  0  0  2  0  0  0  0  0  0
  -31.2730  -22.3560   16.5610 C   0  0  0  0  0  2  0  0  0  0  0  0
  -32.6650  -22.4730   17.2020 C   0  0  0  0  0  2  0  0  0  0  0  0
  -32.6260  -21.9660   18.5300 O   0  0  0  0  0  0  0  0  0  0  0  0
  -33.9180  -21.8290   19.1030 C   0  0  0  0  0  2  0  0  0  0  0  0
  -33.7970  -21.2000   20.5000 C   0  0  0  0  0  2  0  0  0  0  0  0
  -33.2390  -19.7650   20.4600 C   0  0  0  0  0  2  0  0  0  0  0  0
  -32.3960  -19.4100   21.6850 C   0  0  0  0  0  2  0  0  0  0  0  0
  -32.1010  -18.0230   21.6240 O   0  0  0  0  0  0  0  0  0  0  0  0
  -30.8350  -17.7120   22.1810 C   0  0  0  0  0  2  0  0  0  0  0  0
  -30.7990  -16.2520   22.6630 C   0  0  0  0  0  2  0  0  0  0  0  0
  -31.3030  -15.2130   21.6450 C   0  0  0  0  0  2  0  0  0  0  0  0
  -30.9750  -14.6020   19.2990 C   0  0  0  0  0  0  0  0  0  0  0  0
  -30.7220  -12.2050   18.8360 C   0  0  0  0  0  2  0  0  0  0  0  0
  -29.7030  -11.8620   17.7400 C   0  0  0  0  0  2  0  0  0  0  0  0
  -28.2940  -11.7390   18.3420 C   0  0  0  0  0  2  0  0  0  0  0  0
  -27.9040  -12.9740   19.1910 C   0  0  0  0  0  3  0  0  0  0  0  0
  -29.0150  -13.3150   20.2090 C   0  0  0  0  0  2  0  0  0  0  0  0
  -30.3080  -13.4430   19.5050 N   0  0  0  0  0  0  0  0  0  0  0  0
  -31.7280  -14.8080   18.3460 O   0  0  0  0  0  0  0  0  0  0  0  0
  -30.8700  -15.5010   20.2770 N   0  0  0  0  0  0  0  0  0  0  0  0
  -31.2070  -16.4070   19.9880 H   0  0  0  0  0  0  0  0  0  0  0  0
  -25.7070  -13.7410   20.3050 C   0  0  0  0  0  0  0  0  0  0  0  0
  -24.6220  -13.0380   20.7590 C   0  0  0  0  0  0  0  0  0  0  0  0
  -24.9240  -11.6630   20.5300 C   0  0  0  0  0  0  0  0  0  0  0  0
  -26.6070  -12.7930   19.8390 N   0  0  0  0  0  0  0  0  0  0  0  0
  -26.1450  -11.5320   20.0310 N   0  0  0  0  0  0  0  0  0  0  0  0
  -24.0930  -10.4650   20.7060 C   0  0  0  0  0  0  0  0  0  0  0  0
  -24.4770   -9.4210   21.5740 C   0  0  0  0  0  3  0  0  0  0  0  0
  -23.6520   -8.2860   21.7360 C   0  0  0  0  0  3  0  0  0  0  0  0
  -22.4290   -8.1910   21.0290 C   0  0  0  0  0  0  0  0  0  0  0  0
  -22.0660   -9.2240   20.1470 C   0  0  0  0  0  3  0  0  0  0  0  0
  -22.8910  -10.3490   19.9810 C   0  0  0  0  0  3  0  0  0  0  0  0
  -21.5760   -7.1170   21.1040 O   0  0  0  0  0  0  0  0  0  0  0  0
  -21.4090   -6.4130   22.2700 C   0  0  0  0  0  0  0  0  0  0  0  0
  -20.9930   -7.0380   23.4640 C   0  0  0  0  0  3  0  0  0  0  0  0
  -20.7680   -6.2680   24.6230 C   0  0  0  0  0  3  0  0  0  0  0  0
  -20.9430   -4.8710   24.5850 C   0  0  0  0  0  0  0  0  0  0  0  0
  -21.3520   -4.2460   23.3950 C   0  0  0  0  0  3  0  0  0  0  0  0
  -21.5830   -5.0160   22.2400 C   0  0  0  0  0  0  0  0  0  0  0  0
  -21.9570   -4.4050   21.0920 F   0  0  0  0  0  0  0  0  0  0  0  0
  -20.7200   -4.1280   25.6950 F   0  0  0  0  0  0  0  0  0  0  0  0
  -23.3440  -13.6180   21.2920 C   0  0  0  0  0  0  0  0  0  0  0  0
  -22.6850  -12.9120   22.2060 N   0  0  0  0  0  0  0  0  0  0  0  0
  -22.9450  -14.7260   20.9440 O   0  0  0  0  0  0  0  0  0  0  0  0
  -23.0290  -12.0200   22.5210 H   0  0  0  0  0  0  0  0  0  0  0  0
  -21.8320  -13.2780   22.6030 H   0  0  0  0  0  0  0  0  0  0  0  0
  -25.9760  -15.1010   20.2560 N   0  0  0  0  0  0  0  0  0  0  0  0
  -25.2660  -15.7720   20.5300 H   0  0  0  0  0  0  0  0  0  0  0  0
  -26.8160  -15.5620   19.9150 H   0  0  0  0  0  0  0  0  0  0  0  0
  1  2  1  0
  1  5  1  0
  2  4  1  0
  3  1  2  0
  6  5  2  0
  6  7  1  0
  7  9  2  0
  8  7  1  0
 10  8  1  0
 11 17  1  0
 11 12  1  0
 11  8  1  0
 12 13  1  0
 13 16  1  0
 13 15  1  0
 14 12  2  0
 18 17  2  0
 19 20  1  0
 19 17  1  0
 20 22  1  0
 21 32  2  0
 22 27  1  0
 23 31  1  0
 23 33  1  0
 24 30  1  0
 24 26  1  0
 25 31  1  0
 26 25  1  0
 27 26  2  0
 28 29  1  0
 28 22  2  0
 29 24  2  0
 30 23  1  0
 31 21  1  0
 33 35  2  0
 34 33  1  0
 36 34  1  0
 37 46  2  0
 37 42  1  0
 38 34  1  0
 38 42  1  0
 39 38  1  0
 40 41  1  0
 40 39  1  0
 41 37  1  0
 42 43  2  0
 43 44  1  0
 45 44  2  0
 46 45  1  0
 47 21  1  0
 47 48  1  0
 47 57  1  0
 48 51  1  0
 49 48  1  0
 49 53  1  0
 50 49  2  0
 53 52  1  0
 53 55  1  0
 55 56  1  0
 55 54  1  0
 57 60  1  1
 57 58  1  0
 59 57  1  0
 61  2  1  0
 62 61  1  0
 63 62  1  0
 64 63  1  0
 65 64  1  0
 66 65  1  0
 67 68  1  0
 67 66  1  0
 68 69  1  0
 69 70  1  0
 70 71  1  0
 71 72  1  0
 72 73  1  0
 74 73  1  0
 74 75  1  0
 76 75  1  0
 76 77  1  0
 77 78  1  0
 79 78  1  0
 80 86  1  0
 80 88  1  0
 81 86  1  0
 82 83  1  0
 82 81  1  0
 84 83  1  0
 84 93  1  0
 84 85  1  0
 86 85  1  0
 87 80  2  0
 88 79  1  0
 89 88  1  0
 90 91  2  0
 91110  1  0
 92 95  1  0
 92 91  1  0
 93 94  1  0
 93 90  1  0
 94 92  2  0
 95 96  1  0
 96 97  2  0
 98101  1  0
 98 97  1  0
 99 98  2  0
100 99  1  0
100 95  2  0
101102  1  0
102103  1  0
103104  2  0
105104  1  0
105109  1  0
106105  2  0
107102  2  0
107106  1  0
108107  1  0
110111  1  0
111113  1  0
111114  1  0
112110  2  0
115 90  1  0
115116  1  0
117115  1  0
M  ISO  4  19 101  20 101  80 100  88 100
M  END
>  <TORSDO>  (51) 
F 41

>  <SCORE>  (51) 
-7.216

>  <name>  (51) 
53

>  <ligand_id>  (51) 
53

>  <original_smiles>  (51) 
[H]C(C(=O)N([H])C([H])(C(=O)N([H])[H])C(=O)C([H])([H])Oc1c([H])c([H])c2c(c1[H])C([H])([H])N(C(=O)C([H])(N([H])C(=O)C([H])(N([H])C([H])([H])[H])C([H])([H])[H])C(C([H])([H])[H])(C([H])([H])[H])C([H])([H])[H])C([H])(C(=O)N([H])C1([H])c3c([H])c([H])c([H])c([H])c3C([H])([H])C([H])([H])C1([H])[H])C2([H])[H])=C([H])C(=O)N([H])C([H])([H])C([H])([H])OC([H])([H])C([H])([H])C([H])([H])OC([H])([H])C([H])([H])C([H])([H])OC([H])([H])C([H])([H])C([H])([H])C([H])([H])OC([H])([H])C([H])([H])C([H])([H])N([H])C(=O)N1C([H])([H])C([H])([H])C([H])([H])C([H])(n2nc(-c3c([H])c([H])c(Oc4c([H])c([H])c(F)c([H])c4F)c([H])c3[H])c(C(=O)N([H])[H])c2N([H])[H])C1([H])[H]

>  <smiles>  (51) 
[H]C(C(=O)N([H])C([H])(C(=O)N([H])[H])C(=O)C([H])([H])Oc1c([H])c([H])c2c(c1[H])C([H])([H])N(C(=O)C([H])(N([H])C(=O)C([H])(N([H])C([H])([H])[H])C([H])([H])[H])C(C([H])([H])[H])(C([H])([H])[H])C([H])([H])[H])C([H])(C(=O)N([H])C1([H])c3c([H])c([H])c([H])c([H])c3C([H])([H])C([H])([H])C1([H])[H])C2([H])[H])=C([H])C(=O)N([H])C([H])([H])C([H])([H])OC([H])([H])C([H])([H])C([H])([H])OC([H])([H])C([H])([H])C([H])([H])OC([H])([H])C([H])([H])C([H])([H])C([H])([H])OC([H])([H])C([H])([H])C([H])([H])N([H])C(=O)N1C([H])([H])C([H])([H])C([H])([H])C([H])(n2nc(-c3c([H])c([H])c(Oc4c([H])c([H])c(F)c([H])c4F)c([H])c3[H])c(C(=O)N([H])[H])c2N([H])[H])C1([H])[H]

$$$$
54:0:0
     RDKit          3D

122129  0  0  1  0  0  0  0  0999 V2000
  -32.2760  -22.4680   17.6730 N   0  0  0  0  0  4  0  0  0  0  0  0
  -31.8210  -21.7870   18.2690 H   0  0  0  0  0  0  0  0  0  0  0  0
  -32.2440  -22.1190   16.7300 H   0  0  0  0  0  0  0  0  0  0  0  0
  -31.4480  -23.6940   17.7810 C   0  0  0  0  0  3  0  0  0  0  0  0
  -30.7190  -23.6520   19.1400 C   0  0  0  0  0  0  0  0  0  0  0  0
  -30.5350  -24.8090   19.7890 N   0  0  0  0  0  0  0  0  0  0  0  0
  -30.3360  -22.5690   19.5910 O   0  0  0  0  0  0  0  0  0  0  0  0
  -30.9070  -25.6600   19.3910 H   0  0  0  0  0  0  0  0  0  0  0  0
  -29.7890  -24.9920   21.0320 C   0  0  0  0  0  3  0  0  0  0  0  0
  -30.5710  -25.8850   22.0090 C   0  0  0  0  0  0  0  0  0  0  0  0
  -30.3470  -25.7360   23.3100 N   0  0  0  0  0  0  0  0  0  0  0  0
  -31.3910  -26.7080   21.5990 O   0  0  0  0  0  0  0  0  0  0  0  0
  -29.6850  -25.0480   23.6430 H   0  0  0  0  0  0  0  0  0  0  0  0
  -30.8410  -26.3060   23.9810 H   0  0  0  0  0  0  0  0  0  0  0  0
  -28.3650  -25.5000   20.7210 C   0  0  0  0  0  2  0  0  0  0  0  0
  -28.4180  -26.7670   20.0640 O   0  0  0  0  0  0  0  0  0  0  0  0
  -24.6120  -31.8700   23.2120 C   0  0  0  0  0  0  0  0  0  0  0  0
  -27.2410  -27.4700   20.0870 C   0  0  0  0  0  0  0  0  0  0  0  0
  -23.3980  -30.4920   21.5520 C   0  0  0  0  0  3  0  0  0  0  0  0
  -24.8450  -28.9580   20.1170 C   0  0  0  0  0  0  0  0  0  0  0  0
  -25.9230  -30.8460   21.3580 C   0  0  0  0  0  2  0  0  0  0  0  0
  -26.0030  -29.4820   20.7060 C   0  0  0  0  0  0  0  0  0  0  0  0
  -27.2060  -28.7460   20.6840 C   0  0  0  0  0  3  0  0  0  0  0  0
  -26.0680  -26.9440   19.5040 C   0  0  0  0  0  3  0  0  0  0  0  0
  -24.8710  -27.6870   19.5150 C   0  0  0  0  0  3  0  0  0  0  0  0
  -23.6050  -29.8200   20.1680 C   0  0  0  0  0  2  0  0  0  0  0  0
  -24.6620  -31.0820   22.1000 N   0  0  0  0  0  0  0  0  0  0  0  0
  -23.5320  -32.1430   23.7530 O   0  0  0  0  0  0  0  0  0  0  0  0
  -22.7390  -29.4670   22.5010 C   0  0  0  0  0  0  0  0  0  0  0  0
  -21.4130  -29.3030   22.3750 N   0  0  0  0  0  0  0  0  0  0  0  0
  -23.4180  -28.8210   23.3050 O   0  0  0  0  0  0  0  0  0  0  0  0
  -20.9280  -29.8740   21.6970 H   0  0  0  0  0  0  0  0  0  0  0  0
  -18.0270  -28.1370   22.8490 C   0  0  0  0  0  0  0  0  0  0  0  0
  -20.5850  -28.3650   23.1330 C   0  0  0  0  0  3  0  0  0  0  0  0
  -20.6760  -26.9390   22.5430 C   0  0  0  0  0  2  0  0  0  0  0  0
  -19.5740  -26.6380   21.5220 C   0  0  0  0  0  2  0  0  0  0  0  0
  -18.1920  -26.7920   22.1620 C   0  0  0  0  0  2  0  0  0  0  0  0
  -19.1520  -28.8830   23.2910 C   0  0  0  0  0  0  0  0  0  0  0  0
  -18.9450  -30.1440   23.8920 C   0  0  0  0  0  3  0  0  0  0  0  0
  -17.6450  -30.6580   24.0570 C   0  0  0  0  0  3  0  0  0  0  0  0
  -16.5340  -29.9090   23.6320 C   0  0  0  0  0  3  0  0  0  0  0  0
  -16.7260  -28.6500   23.0340 C   0  0  0  0  0  3  0  0  0  0  0  0
  -25.9020  -32.4830   23.8400 C   0  0  0  0  0  3  0  0  0  0  0  0
  -26.4460  -31.6600   25.0720 C   0  0  1  0  0  0  0  0  0  0  0  0
  -25.3750  -31.3700   26.1480 C   0  0  0  0  0  1  0  0  0  0  0  0
  -27.0270  -30.3050   24.6060 C   0  0  0  0  0  1  0  0  0  0  0  0
  -27.6060  -32.4310   25.7470 C   0  0  0  0  0  1  0  0  0  0  0  0
  -25.5890  -33.8630   24.2340 N   0  0  0  0  0  0  0  0  0  0  0  0
  -25.9030  -34.9480   23.5140 C   0  0  0  0  0  0  0  0  0  0  0  0
  -26.5590  -34.8930   22.4700 O   0  0  0  0  0  0  0  0  0  0  0  0
  -25.0050  -33.9800   25.0490 H   0  0  0  0  0  0  0  0  0  0  0  0
  -24.1490  -36.7320   23.2640 C   0  0  0  0  0  1  0  0  0  0  0  0
  -25.4100  -36.3120   24.0340 C   0  0  0  0  0  3  0  0  0  0  0  0
  -27.5580  -37.1810   24.8460 C   0  0  0  0  0  1  0  0  0  0  0  0
  -26.4290  -37.3800   23.9410 N   0  0  0  0  0  0  0  0  0  0  0  0
  -26.0190  -38.2880   24.1420 H   0  0  0  0  0  0  0  0  0  0  0  0
  -29.5150  -22.6670   16.3760 C   0  0  0  0  0  1  0  0  0  0  0  0
  -29.6260  -25.1530   16.6930 C   0  0  0  0  0  1  0  0  0  0  0  0
  -30.4850  -23.8690   16.5380 C   0  0  1  0  0  0  0  0  0  0  0  0
  -31.3420  -24.0340   15.2480 C   0  0  0  0  0  2  0  0  0  0  0  0
  -30.5480  -24.1900   14.0830 O   0  0  0  0  0  0  0  0  0  0  0  0
  -30.0020  -23.4150   13.9910 H   0  0  0  0  0  0  0  0  0  0  0  0
  -33.6940  -22.6040   18.0940 C   0  0  0  0  0  2  0  0  0  0  0  0
  -34.5560  -21.4280   17.6110 C   0  0  0  0  0  2  0  0  0  0  0  0
  -34.0140  -20.2010   18.0850 O   0  0  0  0  0  0  0  0  0  0  0  0
  -34.8180  -19.0930   17.6950 C   0  0  0  0  0  2  0  0  0  0  0  0
  -34.2150  -17.7980   18.2510 C   0  0  0  0  0  2  0  0  0  0  0  0
  -35.1010  -16.5640   18.0020 C   0  0  0  0  0  2  0  0  0  0  0  0
  -34.5290  -15.3270   18.7060 C   0  0  0  0  0  2  0  0  0  0  0  0
  -35.4410  -14.2350   18.6720 O   0  0  0  0  0  0  0  0  0  0  0  0
  -35.0280  -13.1750   19.5310 C   0  0  0  0  0  2  0  0  0  0  0  0
  -34.7080  -11.9010   18.7350 C   0  0  0  0  0  2  0  0  0  0  0  0
  -34.0100  -10.8930   19.6540 C   0  0  0  0  0  2  0  0  0  0  0  0
  -33.7000   -9.5140   19.0470 C   0  0  0  0  0  2  0  0  0  0  0  0
  -32.4540   -8.9250   19.7300 C   0  0  0  0  0  2  0  0  0  0  0  0
  -32.3500   -7.3890   19.7260 C   0  0  0  0  0  2  0  0  0  0  0  0
  -31.2000   -6.9160   20.4380 O   0  0  0  0  0  0  0  0  0  0  0  0
  -31.1420   -7.2730   21.8220 C   0  0  0  0  0  2  0  0  0  0  0  0
  -30.1070   -8.3960   22.0380 C   0  0  0  0  0  2  0  0  0  0  0  0
  -30.2380   -9.1530   23.3760 C   0  0  0  0  0  2  0  0  0  0  0  0
  -31.2960  -10.1170   23.3630 O   0  0  0  0  0  0  0  0  0  0  0  0
  -31.1680  -11.1260   24.3730 C   0  0  0  0  0  2  0  0  0  0  0  0
  -30.5960  -12.4270   23.7810 C   0  0  0  0  0  2  0  0  0  0  0  0
  -31.6060  -13.1500   22.8670 C   0  0  0  0  0  2  0  0  0  0  0  0
  -30.8820  -14.1710   20.7860 C   0  0  0  0  0  0  0  0  0  0  0  0
  -30.4090  -12.2960   19.2840 C   0  0  0  0  0  2  0  0  0  0  0  0
  -29.4280  -12.5550   18.1370 C   0  0  0  0  0  2  0  0  0  0  0  0
  -27.9830  -12.3620   18.6170 C   0  0  0  0  0  2  0  0  0  0  0  0
  -27.6710  -13.2000   19.8750 C   0  0  0  0  0  3  0  0  0  0  0  0
  -28.7230  -12.9250   20.9650 C   0  0  0  0  0  2  0  0  0  0  0  0
  -30.0730  -13.1560   20.4180 N   0  0  0  0  0  0  0  0  0  0  0  0
  -31.6460  -14.7730   20.0320 O   0  0  0  0  0  0  0  0  0  0  0  0
  -31.0310  -14.2710   22.1090 N   0  0  0  0  0  0  0  0  0  0  0  0
  -31.4560  -15.1520   22.3590 H   0  0  0  0  0  0  0  0  0  0  0  0
  -25.2680  -13.8160   20.5710 C   0  0  0  0  0  0  0  0  0  0  0  0
  -24.1910  -13.0480   20.9190 C   0  0  0  0  0  0  0  0  0  0  0  0
  -24.6400  -11.6920   20.8780 C   0  0  0  0  0  0  0  0  0  0  0  0
  -26.3100  -12.9330   20.3450 N   0  0  0  0  0  0  0  0  0  0  0  0
  -25.9310  -11.6480   20.5770 N   0  0  0  0  0  0  0  0  0  0  0  0
  -23.9080  -10.4310   21.0470 C   0  0  0  0  0  0  0  0  0  0  0  0
  -24.3630   -9.4210   21.9230 C   0  0  0  0  0  3  0  0  0  0  0  0
  -23.6300   -8.2250   22.0740 C   0  0  0  0  0  3  0  0  0  0  0  0
  -22.4300   -8.0310   21.3520 C   0  0  0  0  0  0  0  0  0  0  0  0
  -21.9920   -9.0320   20.4650 C   0  0  0  0  0  3  0  0  0  0  0  0
  -22.7240  -10.2190   20.3110 C   0  0  0  0  0  3  0  0  0  0  0  0
  -21.6660   -6.8890   21.4230 O   0  0  0  0  0  0  0  0  0  0  0  0
  -21.6840   -6.0720   22.5280 C   0  0  0  0  0  0  0  0  0  0  0  0
  -21.4010   -6.5610   23.8210 C   0  0  0  0  0  3  0  0  0  0  0  0
  -21.3650   -5.6770   24.9170 C   0  0  0  0  0  3  0  0  0  0  0  0
  -21.6020   -4.3030   24.7220 C   0  0  0  0  0  0  0  0  0  0  0  0
  -21.8830   -3.8110   23.4340 C   0  0  0  0  0  3  0  0  0  0  0  0
  -21.9190   -4.6930   22.3410 C   0  0  0  0  0  0  0  0  0  0  0  0
  -22.1690   -4.2130   21.0990 F   0  0  0  0  0  0  0  0  0  0  0  0
  -21.5630   -3.4530   25.7740 F   0  0  0  0  0  0  0  0  0  0  0  0
  -22.7960  -13.5300   21.1840 C   0  0  0  0  0  0  0  0  0  0  0  0
  -22.0540  -12.8310   22.0330 N   0  0  0  0  0  0  0  0  0  0  0  0
  -22.3700  -14.5660   20.6730 O   0  0  0  0  0  0  0  0  0  0  0  0
  -22.4070  -11.9900   22.4610 H   0  0  0  0  0  0  0  0  0  0  0  0
  -21.1220  -13.1450   22.2670 H   0  0  0  0  0  0  0  0  0  0  0  0
  -25.4560  -15.1860   20.4110 N   0  0  0  0  0  0  0  0  0  0  0  0
  -24.7160  -15.8690   20.5060 H   0  0  0  0  0  0  0  0  0  0  0  0
  -26.3360  -15.5870   20.1040 H   0  0  0  0  0  0  0  0  0  0  0  0
  1  4  1  0
  1 63  1  0
  1  2  1  0
  3  1  1  0
  4  5  1  0
  5  7  2  0
  5  6  1  0
  6  9  1  0
  8  6  1  0
  9 15  1  0
  9 10  1  0
 10 11  1  0
 11 13  1  0
 11 14  1  0
 12 10  2  0
 16 18  1  0
 16 15  1  0
 17 28  2  0
 18 23  1  0
 19 27  1  0
 19 29  1  0
 20 26  1  0
 20 22  1  0
 21 27  1  0
 22 21  1  0
 23 22  2  0
 24 25  1  0
 24 18  2  0
 25 20  2  0
 26 19  1  0
 27 17  1  0
 29 31  2  0
 30 29  1  0
 32 30  1  0
 33 42  2  0
 33 38  1  0
 34 30  1  0
 34 38  1  0
 35 34  1  0
 36 37  1  0
 36 35  1  0
 37 33  1  0
 38 39  2  0
 39 40  1  0
 41 40  2  0
 42 41  1  0
 43 17  1  0
 43 48  1  0
 43 44  1  0
 44 47  1  1
 44 45  1  0
 46 44  1  0
 48 51  1  0
 49 53  1  0
 49 48  1  0
 50 49  2  0
 53 52  1  0
 55 53  1  0
 55 56  1  0
 55 54  1  0
 59 57  1  6
 59 58  1  0
 59  4  1  0
 60 59  1  0
 61 60  1  0
 62 61  1  0
 64 65  1  0
 64 63  1  0
 66 65  1  0
 66 67  1  0
 68 67  1  0
 68 69  1  0
 70 69  1  0
 70 71  1  0
 72 71  1  0
 72 73  1  0
 74 73  1  0
 74 75  1  0
 76 75  1  0
 76 77  1  0
 77 78  1  0
 78 79  1  0
 79 80  1  0
 81 80  1  0
 81 82  1  0
 83 82  1  0
 84 83  1  0
 85 93  1  0
 86 91  1  0
 87 88  1  0
 87 86  1  0
 89 88  1  0
 89 98  1  0
 89 90  1  0
 91 85  1  0
 91 90  1  0
 92 85  2  0
 93 94  1  0
 93 84  1  0
 95 96  2  0
 96115  1  0
 97 96  1  0
 97100  1  0
 98 95  1  0
 98 99  1  0
 99 97  2  0
100101  1  0
101102  2  0
103106  1  0
103102  1  0
104103  2  0
105104  1  0
105100  2  0
106107  1  0
107108  1  0
108109  2  0
110109  1  0
110114  1  0
111110  2  0
112107  2  0
112111  1  0
113112  1  0
115116  1  0
116119  1  0
116118  1  0
117115  2  0
120121  1  0
120 95  1  0
122120  1  0
M  ISO  4  15 101  16 101  85 100  93 100
M  END
>  <TORSDO>  (52) 
F 46

>  <SCORE>  (52) 
-1.408

>  <name>  (52) 
54

>  <ligand_id>  (52) 
54

>  <original_smiles>  (52) 
[H]OC([H])([H])C(C([H])([H])[H])(C([H])([H])[H])C([H])(C(=O)N([H])C([H])(C(=O)N([H])[H])C([H])([H])Oc1c([H])c([H])c2c(c1[H])C([H])([H])N(C(=O)C([H])(N([H])C(=O)C([H])(N([H])C([H])([H])[H])C([H])([H])[H])C(C([H])([H])[H])(C([H])([H])[H])C([H])([H])[H])C([H])(C(=O)N([H])C1([H])c3c([H])c([H])c([H])c([H])c3C([H])([H])C([H])([H])C1([H])[H])C2([H])[H])[N+]([H])([H])C([H])([H])C([H])([H])OC([H])([H])C([H])([H])C([H])([H])C([H])([H])OC([H])([H])C([H])([H])C([H])([H])C([H])([H])C([H])([H])C([H])([H])OC([H])([H])C([H])([H])C([H])([H])OC([H])([H])C([H])([H])C([H])([H])N([H])C(=O)N1C([H])([H])C([H])([H])C([H])([H])C([H])(n2nc(-c3c([H])c([H])c(Oc4c([H])c([H])c(F)c([H])c4F)c([H])c3[H])c(C(=O)N([H])[H])c2N([H])[H])C1([H])[H]

>  <smiles>  (52) 
[H]OC([H])([H])C(C([H])([H])[H])(C([H])([H])[H])C([H])(C(=O)N([H])C([H])(C(=O)N([H])[H])C([H])([H])Oc1c([H])c([H])c2c(c1[H])C([H])([H])N(C(=O)C([H])(N([H])C(=O)C([H])(N([H])C([H])([H])[H])C([H])([H])[H])C(C([H])([H])[H])(C([H])([H])[H])C([H])([H])[H])C([H])(C(=O)N([H])C1([H])c3c([H])c([H])c([H])c([H])c3C([H])([H])C([H])([H])C1([H])[H])C2([H])[H])[N+]([H])([H])C([H])([H])C([H])([H])OC([H])([H])C([H])([H])C([H])([H])C([H])([H])OC([H])([H])C([H])([H])C([H])([H])C([H])([H])C([H])([H])C([H])([H])OC([H])([H])C([H])([H])C([H])([H])OC([H])([H])C([H])([H])C([H])([H])N([H])C(=O)N1C([H])([H])C([H])([H])C([H])([H])C([H])(n2nc(-c3c([H])c([H])c(Oc4c([H])c([H])c(F)c([H])c4F)c([H])c3[H])c(C(=O)N([H])[H])c2N([H])[H])C1([H])[H]

$$$$
55:0:0
     RDKit          3D

103110  0  0  1  0  0  0  0  0999 V2000
  -20.6390  -31.6060   22.6480 C   0  0  0  0  0  2  0  0  0  0  0  0
  -21.8020  -31.1680   23.5870 O   0  0  0  0  0  0  0  0  0  0  0  0
  -22.2710  -30.0860   24.6140 C   0  0  0  0  0  2  0  0  0  0  0  0
  -23.7930  -29.4090   24.8350 C   0  0  0  0  0  2  0  0  0  0  0  0
  -24.4280  -27.9210   24.4360 C   0  0  0  0  0  2  0  0  0  0  0  0
  -25.4070  -27.3460   23.2060 C   0  0  0  0  0  2  0  0  0  0  0  0
  -26.9040  -27.4210   22.9940 O   0  0  0  0  0  0  0  0  0  0  0  0
  -27.6870  -26.3270   22.2730 C   0  0  0  0  0  2  0  0  0  0  0  0
  -28.8420  -26.5420   21.1030 C   0  0  0  0  0  3  0  0  0  0  0  0
  -30.1490  -25.5360   20.8710 C   0  0  0  0  0  3  0  0  0  0  0  0
  -31.0950  -25.5370   19.6680 O   0  0  0  0  0  0  0  0  0  0  0  0
  -32.4020  -24.7410   19.6370 C   0  0  0  0  0  2  0  0  0  0  0  0
  -33.3340  -24.4310   18.2810 C   0  0  0  0  0  3  0  0  0  0  0  0
  -34.9620  -24.0150   18.2720 C   0  0  0  0  0  3  0  0  0  0  0  0
  -37.0200  -23.2330   16.5770 C   0  0  0  0  0  0  0  0  0  0  0  0
  -38.2440  -22.4110   14.4980 C   0  0  0  0  0  2  0  0  0  0  0  0
  -37.6020  -23.0320   13.2300 C   0  0  0  0  0  2  0  0  0  0  0  0
  -36.3630  -22.2260   12.7810 C   0  0  0  0  0  2  0  0  0  0  0  0
  -35.4170  -21.9550   13.9800 C   0  0  0  0  0  3  0  0  0  0  0  0
  -36.2000  -21.3410   15.1530 C   0  0  0  0  0  2  0  0  0  0  0  0
  -37.1970  -22.3350   15.5470 N   0  0  0  0  0  0  0  0  0  0  0  0
  -37.9930  -23.9140   16.9520 O   0  0  0  0  0  0  0  0  0  0  0  0
  -35.6860  -23.3900   17.0330 N   0  0  0  0  0  0  0  0  0  0  0  0
  -35.0470  -22.8540   16.4570 H   0  0  0  0  0  0  0  0  0  0  0  0
  -32.9440  -21.3110   13.9120 C   0  0  0  0  0  0  0  0  0  0  0  0
  -32.2990  -20.2480   13.3200 C   0  0  0  0  0  0  0  0  0  0  0  0
  -33.3180  -19.4490   12.7280 C   0  0  0  0  0  0  0  0  0  0  0  0
  -34.2860  -21.1130   13.6410 N   0  0  0  0  0  0  0  0  0  0  0  0
  -34.5130  -19.9590   12.9780 N   0  0  0  0  0  0  0  0  0  0  0  0
  -33.2250  -18.2640   11.8610 C   0  0  0  0  0  0  0  0  0  0  0  0
  -33.9630  -17.0910   12.1280 C   0  0  0  0  0  3  0  0  0  0  0  0
  -33.8320  -15.9600   11.2940 C   0  0  0  0  0  3  0  0  0  0  0  0
  -32.9580  -15.9950   10.1820 C   0  0  0  0  0  0  0  0  0  0  0  0
  -32.2490  -17.1760    9.9060 C   0  0  0  0  0  3  0  0  0  0  0  0
  -32.3840  -18.3050   10.7330 C   0  0  0  0  0  3  0  0  0  0  0  0
  -32.7890  -14.9540    9.3020 O   0  0  0  0  0  0  0  0  0  0  0  0
  -33.0240  -13.6560    9.6740 C   0  0  0  0  0  0  0  0  0  0  0  0
  -32.3730  -13.0660   10.7800 C   0  0  0  0  0  3  0  0  0  0  0  0
  -32.5930  -11.7070   11.0820 C   0  0  0  0  0  3  0  0  0  0  0  0
  -33.4530  -10.9360   10.2760 C   0  0  0  0  0  0  0  0  0  0  0  0
  -34.0950  -11.5210    9.1700 C   0  0  0  0  0  3  0  0  0  0  0  0
  -33.8800  -12.8780    8.8700 C   0  0  0  0  0  0  0  0  0  0  0  0
  -34.4870  -13.4330    7.7930 F   0  0  0  0  0  0  0  0  0  0  0  0
  -33.6550   -9.6280   10.5570 F   0  0  0  0  0  0  0  0  0  0  0  0
  -30.8140  -20.0570   13.2360 C   0  0  0  0  0  0  0  0  0  0  0  0
  -30.3640  -18.8010   13.1880 N   0  0  0  0  0  0  0  0  0  0  0  0
  -30.0440  -21.0090   13.2540 O   0  0  0  0  0  0  0  0  0  0  0  0
  -30.9990  -18.0190   13.1870 H   0  0  0  0  0  0  0  0  0  0  0  0
  -29.3680  -18.6310   13.1400 H   0  0  0  0  0  0  0  0  0  0  0  0
  -32.5100  -22.4160   14.6260 N   0  0  0  0  0  0  0  0  0  0  0  0
  -31.5280  -22.6320   14.7480 H   0  0  0  0  0  0  0  0  0  0  0  0
  -33.1060  -23.1560   14.9730 H   0  0  0  0  0  0  0  0  0  0  0  0
  -20.5600  -31.6000   20.9740 C   0  0  0  0  0  2  0  0  0  0  0  0
  -20.3680  -30.3760   20.0370 N   0  0  0  0  0  4  0  0  0  0  0  0
  -20.6800  -29.5440   20.5220 H   0  0  0  0  0  0  0  0  0  0  0  0
  -19.3640  -30.2730   19.9630 H   0  0  0  0  0  0  0  0  0  0  0  0
  -20.9110  -30.4170   18.5720 C   0  0  0  0  0  2  0  0  0  0  0  0
  -21.5750  -29.1070   17.8120 C   0  0  0  0  0  2  0  0  0  0  0  0
  -23.0440  -29.2310   17.0910 C   0  0  0  0  0  2  0  0  0  0  0  0
  -23.9820  -28.0670   16.9430 O   0  0  0  0  0  0  0  0  0  0  0  0
  -25.4770  -28.2460   16.8380 C   0  0  0  0  0  2  0  0  0  0  0  0
  -26.5490  -26.9820   16.9510 C   0  0  0  0  0  2  0  0  0  0  0  0
  -27.3780  -26.5890   18.1790 O   0  0  0  0  0  0  0  0  0  0  0  0
  -25.2290  -31.3030   23.0910 C   0  0  0  0  0  0  0  0  0  0  0  0
  -26.6980  -26.9350   19.2830 C   0  0  0  0  0  0  0  0  0  0  0  0
  -23.7040  -30.2090   21.5010 C   0  0  0  0  0  3  0  0  0  0  0  0
  -24.7520  -28.7270   19.8750 C   0  0  0  0  0  0  0  0  0  0  0  0
  -26.2290  -30.2750   21.0760 C   0  0  0  0  0  2  0  0  0  0  0  0
  -26.0460  -28.9960   20.2990 C   0  0  0  0  0  0  0  0  0  0  0  0
  -27.0750  -28.0950   19.9940 C   0  0  0  0  0  3  0  0  0  0  0  0
  -25.3710  -26.5010   19.2360 C   0  0  0  0  0  3  0  0  0  0  0  0
  -24.3740  -27.4390   19.4770 C   0  0  0  0  0  3  0  0  0  0  0  0
  -23.7970  -29.8420   20.0630 C   0  0  0  0  0  2  0  0  0  0  0  0
  -25.0750  -30.5430   21.9810 N   0  0  0  0  0  0  0  0  0  0  0  0
  -24.2860  -31.8150   23.6830 O   0  0  0  0  0  0  0  0  0  0  0  0
  -22.9330  -28.9810   22.1120 C   0  0  0  0  0  0  0  0  0  0  0  0
  -21.5730  -29.0130   22.1910 N   0  0  0  0  0  0  0  0  0  0  0  0
  -23.5860  -28.0300   22.4820 O   0  0  0  0  0  0  0  0  0  0  0  0
  -21.3790  -29.9970   22.2750 H   0  0  0  0  0  0  0  0  0  0  0  0
  -17.9450  -28.4640   22.6860 C   0  0  0  0  0  0  0  0  0  0  0  0
  -20.5370  -28.2110   22.8950 C   0  0  0  0  0  3  0  0  0  0  0  0
  -20.3490  -26.8970   22.1210 C   0  0  0  0  0  2  0  0  0  0  0  0
  -19.2060  -26.9510   21.1070 C   0  0  0  0  0  2  0  0  0  0  0  0
  -17.8820  -27.2220   21.8130 C   0  0  0  0  0  2  0  0  0  0  0  0
  -19.1740  -28.9330   23.2280 C   0  0  0  0  0  0  0  0  0  0  0  0
  -19.0590  -30.0630   24.0920 C   0  0  0  0  0  3  0  0  0  0  0  0
  -17.8690  -30.7740   24.3060 C   0  0  0  0  0  3  0  0  0  0  0  0
  -16.6980  -30.3140   23.7090 C   0  0  0  0  0  3  0  0  0  0  0  0
  -16.7270  -29.1330   22.9580 C   0  0  0  0  0  3  0  0  0  0  0  0
  -26.6170  -31.6320   23.6820 C   0  0  0  0  0  3  0  0  0  0  0  0
  -26.5520  -32.9990   24.2120 N   0  0  0  0  0  0  0  0  0  0  0  0
  -26.8870  -34.0870   23.5190 C   0  0  0  0  0  0  0  0  0  0  0  0
  -27.4280  -34.0270   22.4100 O   0  0  0  0  0  0  0  0  0  0  0  0
  -26.1740  -33.1090   25.1390 H   0  0  0  0  0  0  0  0  0  0  0  0
  -25.3950  -36.1070   23.5050 C   0  0  0  0  0  1  0  0  0  0  0  0
  -26.6070  -35.4440   24.1810 C   0  0  0  0  0  3  0  0  0  0  0  0
  -28.8880  -35.8820   24.9590 C   0  0  0  0  0  1  0  0  0  0  0  0
  -27.7710  -36.3540   24.1440 N   0  0  0  0  0  0  0  0  0  0  0  0
  -27.5200  -37.2950   24.4430 H   0  0  0  0  0  0  0  0  0  0  0  0
  -27.0350  -30.6180   24.8160 C   0  0  1  0  0  0  0  0  0  0  0  0
  -25.9880  -30.4490   25.9540 C   0  0  0  0  0  1  0  0  0  0  0  0
  -27.3060  -29.2090   24.2200 C   0  0  0  0  0  1  0  0  0  0  0  0
  -28.3500  -31.1110   25.4700 C   0  0  0  0  0  1  0  0  0  0  0  0
  1  2  1  0
  2  3  1  0
  3  4  1  0
  5  4  1  0
  6  5  1  0
  7  6  1  0
  8  7  1  0
  9  8  1  0
 10  9  2  0
 11 10  1  0
 12 11  1  0
 13 12  1  0
 14 13  2  0
 15 22  2  0
 15 23  1  0
 16 21  1  0
 17 16  1  0
 18 17  1  0
 19 18  1  0
 19 20  1  0
 20 21  1  0
 21 15  1  0
 23 14  1  0
 24 23  1  0
 25 50  1  0
 26 25  2  0
 27 29  2  0
 27 26  1  0
 28 25  1  0
 28 19  1  0
 29 28  1  0
 30 31  1  0
 30 27  1  0
 32 31  2  0
 33 32  1  0
 34 33  2  0
 34 35  1  0
 35 30  2  0
 36 37  1  0
 36 33  1  0
 37 38  1  0
 38 39  2  0
 40 44  1  0
 40 39  1  0
 41 40  2  0
 42 41  1  0
 42 37  2  0
 43 42  1  0
 45 47  2  0
 45 26  1  0
 46 45  1  0
 48 46  1  0
 49 46  1  0
 50 51  1  0
 50 52  1  0
 53  1  1  0
 54 55  1  0
 54 53  1  0
 56 54  1  0
 57 54  1  0
 58 57  1  0
 59 58  1  0
 60 59  1  0
 61 60  1  0
 61 62  1  0
 62 63  1  0
 63 65  1  0
 64 75  2  0
 65 70  1  0
 66 74  1  0
 66 76  1  0
 67 73  1  0
 67 69  1  0
 68 74  1  0
 69 68  1  0
 70 69  2  0
 71 65  2  0
 71 72  1  0
 72 67  2  0
 73 66  1  0
 74 64  1  0
 76 77  1  0
 76 78  2  0
 77 79  1  0
 80 89  2  0
 80 85  1  0
 81 77  1  0
 81 85  1  0
 82 81  1  0
 83 84  1  0
 83 82  1  0
 84 80  1  0
 85 86  2  0
 86 87  1  0
 88 87  2  0
 89 88  1  0
 90 64  1  0
 90 91  1  0
 90100  1  0
 91 94  1  0
 92 96  1  0
 92 91  1  0
 93 92  2  0
 96 95  1  0
 98 96  1  0
 98 99  1  0
 98 97  1  0
100103  1  1
100101  1  0
102100  1  0
M  ISO  4  15 100  23 100  62 101  63 101
M  END
>  <TORSDO>  (53) 
F 37

>  <SCORE>  (53) 
15.694

>  <name>  (53) 
55

>  <ligand_id>  (53) 
55

>  <original_smiles>  (53) 
[H]c1c([H])c([H])c2c(c1[H])C([H])([H])C([H])([H])C([H])([H])C2([H])N([H])C(=O)C1([H])N(C(=O)C([H])(N([H])C(=O)C([H])(N([H])C([H])([H])[H])C([H])([H])[H])C(C([H])([H])[H])(C([H])([H])[H])C([H])([H])[H])C([H])([H])c2c([H])c(OC([H])([H])C([H])([H])OC([H])([H])C([H])([H])C([H])([H])[N+]([H])([H])C([H])([H])C([H])([H])OC([H])([H])C([H])([H])C([H])([H])C([H])([H])OC([H])([H])C([H])([H])C([H])([H])OC([H])([H])C([H])([H])C([H])([H])N([H])C(=O)N3C([H])([H])C([H])([H])C([H])([H])C([H])(n4nc(-c5c([H])c([H])c(Oc6c([H])c([H])c(F)c([H])c6F)c([H])c5[H])c(C(=O)N([H])[H])c4N([H])[H])C3([H])[H])c([H])c([H])c2C1([H])[H]

>  <smiles>  (53) 
[H]c1c([H])c([H])c2c(c1[H])C([H])([H])C([H])([H])C([H])([H])C2([H])N([H])C(=O)C1([H])N(C(=O)C([H])(N([H])C(=O)C([H])(N([H])C([H])([H])[H])C([H])([H])[H])C(C([H])([H])[H])(C([H])([H])[H])C([H])([H])[H])C([H])([H])c2c([H])c(OC([H])([H])C([H])([H])OC([H])([H])C([H])([H])C([H])([H])[N+]([H])([H])C([H])([H])C([H])([H])OC([H])([H])C([H])([H])C([H])([H])C([H])([H])OC([H])([H])C([H])([H])C([H])([H])OC([H])([H])C([H])([H])C([H])([H])N([H])C(=O)N3C([H])([H])C([H])([H])C([H])([H])C([H])(n4nc(-c5c([H])c([H])c(Oc6c([H])c([H])c(F)c([H])c6F)c([H])c5[H])c(C(=O)N([H])[H])c4N([H])[H])C3([H])[H])c([H])c([H])c2C1([H])[H]

$$$$
56:0:0
     RDKit          3D

111118  0  0  1  0  0  0  0  0999 V2000
  -29.2760  -27.5090   11.7150 C   0  0  0  0  0  0  0  0  0  0  0  0
  -28.0090  -27.8870   11.5060 N   0  0  0  0  0  0  0  0  0  0  0  0
  -30.2320  -28.2870   11.6580 O   0  0  0  0  0  0  0  0  0  0  0  0
  -27.3230  -27.1500   11.4150 H   0  0  0  0  0  0  0  0  0  0  0  0
  -27.0290  -29.7080   10.1570 C   0  0  0  0  0  1  0  0  0  0  0  0
  -27.5230  -29.2750   11.5480 C   0  0  0  0  0  3  0  0  0  0  0  0
  -26.4360  -29.4910   12.6380 C   0  0  0  0  0  2  0  0  0  0  0  0
  -26.4830  -28.5160   13.7540 N   0  0  0  0  0  4  0  0  0  0  0  0
  -25.5560  -28.4740   14.1520 H   0  0  0  0  0  0  0  0  0  0  0  0
  -26.6760  -27.6120   13.3580 H   0  0  0  0  0  0  0  0  0  0  0  0
  -27.4520  -28.8030   14.8410 C   0  0  0  0  0  2  0  0  0  0  0  0
  -27.6270  -27.5860   15.7710 C   0  0  0  0  0  2  0  0  0  0  0  0
  -28.3600  -27.9460   16.9370 O   0  0  0  0  0  0  0  0  0  0  0  0
  -28.9570  -26.8220   17.5820 C   0  0  0  0  0  2  0  0  0  0  0  0
  -29.2740  -27.1150   19.0630 C   0  0  0  0  0  2  0  0  0  0  0  0
  -28.2630  -26.5750   19.9180 O   0  0  0  0  0  0  0  0  0  0  0  0
  -24.4960  -31.7160   23.1030 C   0  0  0  0  0  0  0  0  0  0  0  0
  -27.1080  -27.3080   19.9770 C   0  0  0  0  0  0  0  0  0  0  0  0
  -23.2760  -30.3390   21.4450 C   0  0  0  0  0  3  0  0  0  0  0  0
  -24.7190  -28.7950   20.0180 C   0  0  0  0  0  0  0  0  0  0  0  0
  -25.8000  -30.6840   21.2500 C   0  0  0  0  0  2  0  0  0  0  0  0
  -25.8770  -29.3170   20.6100 C   0  0  0  0  0  0  0  0  0  0  0  0
  -27.0760  -28.5770   20.5950 C   0  0  0  0  0  3  0  0  0  0  0  0
  -25.9330  -26.7750   19.4150 C   0  0  0  0  0  3  0  0  0  0  0  0
  -24.7380  -27.5200   19.4230 C   0  0  0  0  0  3  0  0  0  0  0  0
  -23.4820  -29.6610   20.0630 C   0  0  0  0  0  2  0  0  0  0  0  0
  -24.5430  -30.9240   21.9950 N   0  0  0  0  0  0  0  0  0  0  0  0
  -23.4160  -31.9990   23.6420 O   0  0  0  0  0  0  0  0  0  0  0  0
  -22.6100  -29.3210   22.3990 C   0  0  0  0  0  0  0  0  0  0  0  0
  -21.2770  -29.1920   22.2970 N   0  0  0  0  0  0  0  0  0  0  0  0
  -23.2860  -28.6500   23.1830 O   0  0  0  0  0  0  0  0  0  0  0  0
  -20.7970  -29.7810   21.6320 H   0  0  0  0  0  0  0  0  0  0  0  0
  -17.8640  -28.1640   22.8720 C   0  0  0  0  0  0  0  0  0  0  0  0
  -20.4380  -28.2700   23.0620 C   0  0  0  0  0  3  0  0  0  0  0  0
  -20.4440  -26.8610   22.4270 C   0  0  0  0  0  2  0  0  0  0  0  0
  -19.2900  -26.6390   21.4440 C   0  0  0  0  0  2  0  0  0  0  0  0
  -17.9420  -26.8340   22.1440 C   0  0  0  0  0  2  0  0  0  0  0  0
  -19.0360  -28.8470   23.2890 C   0  0  0  0  0  0  0  0  0  0  0  0
  -18.9070  -30.0980   23.9310 C   0  0  0  0  0  3  0  0  0  0  0  0
  -17.6370  -30.6610   24.1620 C   0  0  0  0  0  3  0  0  0  0  0  0
  -16.4800  -29.9720   23.7610 C   0  0  0  0  0  3  0  0  0  0  0  0
  -16.5950  -28.7250   23.1200 C   0  0  0  0  0  3  0  0  0  0  0  0
  -25.7890  -32.3240   23.7300 C   0  0  0  0  0  3  0  0  0  0  0  0
  -25.4910  -33.7130   24.1020 N   0  0  0  0  0  0  0  0  0  0  0  0
  -25.8240  -34.7820   23.3680 C   0  0  0  0  0  0  0  0  0  0  0  0
  -26.4870  -34.7020   22.3290 O   0  0  0  0  0  0  0  0  0  0  0  0
  -24.9080  -33.8510   24.9140 H   0  0  0  0  0  0  0  0  0  0  0  0
  -24.1030  -36.5900   23.0660 C   0  0  0  0  0  1  0  0  0  0  0  0
  -25.3450  -36.1610   23.8640 C   0  0  0  0  0  3  0  0  0  0  0  0
  -27.4860  -37.0120   24.7120 C   0  0  0  0  0  1  0  0  0  0  0  0
  -26.3830  -37.2100   23.7750 N   0  0  0  0  0  0  0  0  0  0  0  0
  -25.9820  -38.1290   23.9460 H   0  0  0  0  0  0  0  0  0  0  0  0
  -26.3150  -31.5110   24.9760 C   0  0  1  0  0  0  0  0  0  0  0  0
  -25.2310  -31.2450   26.0460 C   0  0  0  0  0  1  0  0  0  0  0  0
  -26.8850  -30.1460   24.5290 C   0  0  0  0  0  1  0  0  0  0  0  0
  -27.4790  -32.2760   25.6510 C   0  0  0  0  0  1  0  0  0  0  0  0
  -30.3540  -25.7450   12.9570 C   0  0  0  0  0  3  0  0  0  0  0  0
  -29.3280  -26.1420   12.1820 C   0  0  0  0  0  3  0  0  0  0  0  0
  -30.3140  -24.4470   13.5880 C   0  0  0  0  0  0  0  0  0  0  0  0
  -30.8790  -24.5050   14.7970 N   0  0  0  0  0  0  0  0  0  0  0  0
  -29.7180  -23.4520   13.1710 O   0  0  0  0  0  0  0  0  0  0  0  0
  -31.3900  -25.3460   15.0280 H   0  0  0  0  0  0  0  0  0  0  0  0
  -30.4820  -23.6450   15.9020 C   0  0  0  0  0  2  0  0  0  0  0  0
  -31.1970  -24.0300   17.2080 C   0  0  0  0  0  2  0  0  0  0  0  0
  -30.3980  -23.6250   18.4540 C   0  0  0  0  0  2  0  0  0  0  0  0
  -29.8240  -22.3480   18.2340 O   0  0  0  0  0  0  0  0  0  0  0  0
  -29.2320  -21.7940   19.3970 C   0  0  0  0  0  2  0  0  0  0  0  0
  -28.4110  -20.5720   18.9640 C   0  0  0  0  0  2  0  0  0  0  0  0
  -28.2500  -19.5340   20.0780 C   0  0  0  0  0  2  0  0  0  0  0  0
  -29.5500  -19.0450   20.3600 O   0  0  0  0  0  0  0  0  0  0  0  0
  -29.5810  -17.9240   21.2230 C   0  0  0  0  0  2  0  0  0  0  0  0
  -31.0550  -17.5140   21.3410 C   0  0  0  0  0  2  0  0  0  0  0  0
  -31.2940  -16.1870   22.0820 C   0  0  0  0  0  2  0  0  0  0  0  0
  -30.8840  -14.4590   20.3220 C   0  0  0  0  0  0  0  0  0  0  0  0
  -30.4200  -12.4930   18.9090 C   0  0  0  0  0  2  0  0  0  0  0  0
  -29.4230  -12.7970   17.7760 C   0  0  0  0  0  2  0  0  0  0  0  0
  -27.9720  -12.6390   18.2680 C   0  0  0  0  0  2  0  0  0  0  0  0
  -27.7090  -13.4050   19.5900 C   0  0  0  0  0  3  0  0  0  0  0  0
  -28.7980  -13.0800   20.6340 C   0  0  0  0  0  2  0  0  0  0  0  0
  -30.1210  -13.3730   20.0450 N   0  0  0  0  0  0  0  0  0  0  0  0
  -31.8350  -14.8220   19.6230 O   0  0  0  0  0  0  0  0  0  0  0  0
  -30.5840  -15.0620   21.4780 N   0  0  0  0  0  0  0  0  0  0  0  0
  -29.8240  -14.6600   22.0060 H   0  0  0  0  0  0  0  0  0  0  0  0
  -25.3340  -14.0040   20.3870 C   0  0  0  0  0  0  0  0  0  0  0  0
  -24.2800  -13.2270   20.7850 C   0  0  0  0  0  0  0  0  0  0  0  0
  -24.7410  -11.8750   20.7220 C   0  0  0  0  0  0  0  0  0  0  0  0
  -26.3710  -13.1270   20.1090 N   0  0  0  0  0  0  0  0  0  0  0  0
  -26.0180  -11.8420   20.3640 N   0  0  0  0  0  0  0  0  0  0  0  0
  -24.0250  -10.6100   20.9230 C   0  0  0  0  0  0  0  0  0  0  0  0
  -24.4600   -9.6580   21.8720 C   0  0  0  0  0  3  0  0  0  0  0  0
  -23.7450   -8.4550   22.0600 C   0  0  0  0  0  3  0  0  0  0  0  0
  -22.5800   -8.1970   21.2980 C   0  0  0  0  0  0  0  0  0  0  0  0
  -22.1650   -9.1370   20.3380 C   0  0  0  0  0  3  0  0  0  0  0  0
  -22.8820  -10.3310   20.1490 C   0  0  0  0  0  3  0  0  0  0  0  0
  -21.8360   -7.0460   21.3940 O   0  0  0  0  0  0  0  0  0  0  0  0
  -21.7570   -6.3360   22.5650 C   0  0  0  0  0  0  0  0  0  0  0  0
  -21.2710   -6.9150   23.7570 C   0  0  0  0  0  3  0  0  0  0  0  0
  -21.1420   -6.1290   24.9200 C   0  0  0  0  0  3  0  0  0  0  0  0
  -21.4870   -4.7660   24.8910 C   0  0  0  0  0  0  0  0  0  0  0  0
  -21.9670   -4.1850   23.7040 C   0  0  0  0  0  3  0  0  0  0  0  0
  -22.0980   -4.9670   22.5430 C   0  0  0  0  0  0  0  0  0  0  0  0
  -22.5400   -4.3990   21.3960 F   0  0  0  0  0  0  0  0  0  0  0  0
  -21.3560   -4.0080   26.0060 F   0  0  0  0  0  0  0  0  0  0  0  0
  -22.8930  -13.6970   21.1160 C   0  0  0  0  0  0  0  0  0  0  0  0
  -22.2000  -12.9890   22.0010 N   0  0  0  0  0  0  0  0  0  0  0  0
  -22.4330  -14.7280   20.6250 O   0  0  0  0  0  0  0  0  0  0  0  0
  -22.5840  -12.1550   22.4200 H   0  0  0  0  0  0  0  0  0  0  0  0
  -21.2710  -13.2840   22.2640 H   0  0  0  0  0  0  0  0  0  0  0  0
  -25.4910  -15.3770   20.2190 N   0  0  0  0  0  0  0  0  0  0  0  0
  -24.7310  -16.0330   20.3620 H   0  0  0  0  0  0  0  0  0  0  0  0
  -26.3340  -15.8170   19.8720 H   0  0  0  0  0  0  0  0  0  0  0  0
  1 58  1  0
  2  6  1  0
  2  1  1  0
  3  1  2  0
  4  2  1  0
  6  5  1  0
  6  7  1  0
  7  8  1  0
  8  9  1  0
  8 11  1  0
 10  8  1  0
 11 12  1  0
 12 13  1  0
 13 14  1  0
 14 15  1  0
 15 16  1  0
 16 18  1  0
 17 28  2  0
 18 23  1  0
 19 27  1  0
 19 29  1  0
 20 26  1  0
 20 22  1  0
 21 27  1  0
 22 21  1  0
 23 22  2  0
 24 25  1  0
 24 18  2  0
 25 20  2  0
 26 19  1  0
 27 17  1  0
 29 31  2  0
 30 29  1  0
 32 30  1  0
 33 42  2  0
 33 38  1  0
 34 30  1  0
 34 38  1  0
 35 34  1  0
 36 37  1  0
 36 35  1  0
 37 33  1  0
 38 39  2  0
 39 40  1  0
 41 40  2  0
 42 41  1  0
 43 17  1  0
 43 44  1  0
 43 53  1  0
 44 47  1  0
 45 49  1  0
 45 44  1  0
 46 45  2  0
 49 48  1  0
 51 49  1  0
 51 52  1  0
 51 50  1  0
 53 56  1  1
 53 54  1  0
 55 53  1  0
 57 59  1  0
 58 57  2  0
 59 60  1  0
 60 62  1  0
 60 63  1  0
 61 59  2  0
 63 64  1  0
 64 65  1  0
 66 65  1  0
 66 67  1  0
 68 67  1  0
 68 69  1  0
 69 70  1  0
 70 71  1  0
 71 72  1  0
 72 73  1  0
 74 82  1  0
 75 80  1  0
 76 77  1  0
 76 75  1  0
 78 77  1  0
 78 87  1  0
 78 79  1  0
 80 74  1  0
 80 79  1  0
 81 74  2  0
 82 83  1  0
 82 73  1  0
 84 85  2  0
 85104  1  0
 86 85  1  0
 86 89  1  0
 87 88  1  0
 87 84  1  0
 88 86  2  0
 89 90  1  0
 90 91  2  0
 92 95  1  0
 92 91  1  0
 93 92  2  0
 94 93  1  0
 94 89  2  0
 95 96  1  0
 96 97  1  0
 97 98  2  0
 99 98  1  0
 99103  1  0
100 99  2  0
101 96  2  0
101100  1  0
102101  1  0
104105  1  0
105108  1  0
105107  1  0
106104  2  0
109110  1  0
109 84  1  0
111109  1  0
M  ISO  4  15 101  16 101  74 100  82 100
M  END
>  <TORSDO>  (54) 
F 37

>  <SCORE>  (54) 
-9.142

>  <name>  (54) 
56

>  <ligand_id>  (54) 
56

>  <original_smiles>  (54) 
[H]C(C(=O)N([H])C([H])([H])C([H])([H])C([H])([H])OC([H])([H])C([H])([H])C([H])([H])OC([H])([H])C([H])([H])C([H])([H])N([H])C(=O)N1C([H])([H])C([H])([H])C([H])([H])C([H])(n2nc(-c3c([H])c([H])c(Oc4c([H])c([H])c(F)c([H])c4F)c([H])c3[H])c(C(=O)N([H])[H])c2N([H])[H])C1([H])[H])=C([H])C(=O)N([H])C([H])(C([H])([H])[H])C([H])([H])[N+]([H])([H])C([H])([H])C([H])([H])OC([H])([H])C([H])([H])Oc1c([H])c([H])c2c(c1[H])C([H])([H])N(C(=O)C([H])(N([H])C(=O)C([H])(N([H])C([H])([H])[H])C([H])([H])[H])C(C([H])([H])[H])(C([H])([H])[H])C([H])([H])[H])C([H])(C(=O)N([H])C1([H])c3c([H])c([H])c([H])c([H])c3C([H])([H])C([H])([H])C1([H])[H])C2([H])[H]

>  <smiles>  (54) 
[H]C(C(=O)N([H])C([H])([H])C([H])([H])C([H])([H])OC([H])([H])C([H])([H])C([H])([H])OC([H])([H])C([H])([H])C([H])([H])N([H])C(=O)N1C([H])([H])C([H])([H])C([H])([H])C([H])(n2nc(-c3c([H])c([H])c(Oc4c([H])c([H])c(F)c([H])c4F)c([H])c3[H])c(C(=O)N([H])[H])c2N([H])[H])C1([H])[H])=C([H])C(=O)N([H])C([H])(C([H])([H])[H])C([H])([H])[N+]([H])([H])C([H])([H])C([H])([H])OC([H])([H])C([H])([H])Oc1c([H])c([H])c2c(c1[H])C([H])([H])N(C(=O)C([H])(N([H])C(=O)C([H])(N([H])C([H])([H])[H])C([H])([H])[H])C(C([H])([H])[H])(C([H])([H])[H])C([H])([H])[H])C([H])(C(=O)N([H])C1([H])c3c([H])c([H])c([H])c([H])c3C([H])([H])C([H])([H])C1([H])[H])C2([H])[H]

$$$$
57:0:0
     RDKit          3D

118125  0  0  1  0  0  0  0  0999 V2000
  -24.3580  -22.0630   16.8720 C   0  0  0  0  0  3  0  0  0  0  0  0
  -23.3930  -21.0340   16.2350 C   0  0  0  0  0  0  0  0  0  0  0  0
  -22.4570  -21.4660   15.3920 N   0  0  0  0  0  0  0  0  0  0  0  0
  -23.5070  -19.8260   16.4570 O   0  0  0  0  0  0  0  0  0  0  0  0
  -22.3750  -22.4440   15.1530 H   0  0  0  0  0  0  0  0  0  0  0  0
  -21.8200  -20.8090   14.9630 H   0  0  0  0  0  0  0  0  0  0  0  0
  -23.7980  -22.5130   18.2400 C   0  0  0  0  0  0  0  0  0  0  0  0
  -23.3410  -23.7710   18.3410 N   0  0  0  0  0  0  0  0  0  0  0  0
  -23.8400  -21.7550   19.2170 O   0  0  0  0  0  0  0  0  0  0  0  0
  -23.3270  -24.3410   17.5050 H   0  0  0  0  0  0  0  0  0  0  0  0
  -22.9470  -24.4210   19.5900 C   0  0  0  0  0  2  0  0  0  0  0  0
  -24.1710  -24.6820   20.4880 C   0  0  0  0  0  2  0  0  0  0  0  0
  -25.2270  -25.6020   19.8400 C   0  0  0  0  0  2  0  0  0  0  0  0
  -26.3520  -26.0110   20.8040 C   0  0  0  0  0  2  0  0  0  0  0  0
  -27.2040  -24.8890   20.9830 O   0  0  0  0  0  0  0  0  0  0  0  0
  -27.8180  -24.8250   22.2620 C   0  0  0  0  0  2  0  0  0  0  0  0
  -29.1650  -24.0830   22.1180 C   0  0  0  0  0  2  0  0  0  0  0  0
  -30.2960  -24.7790   22.6440 O   0  0  0  0  0  0  0  0  0  0  0  0
  -30.4290  -26.0780   22.0930 C   0  0  0  0  0  2  0  0  0  0  0  0
  -31.4630  -26.9950   22.7900 C   0  0  0  0  0  2  0  0  0  0  0  0
  -31.5720  -28.2930   22.1750 O   0  0  0  0  0  0  0  0  0  0  0  0
  -26.8380  -32.0220   25.9400 C   0  0  0  0  0  0  0  0  0  0  0  0
  -30.3910  -28.9930   22.1620 C   0  0  0  0  0  0  0  0  0  0  0  0
  -26.0590  -31.1590   23.7580 C   0  0  0  0  0  3  0  0  0  0  0  0
  -27.8770  -30.2650   22.2050 C   0  0  0  0  0  0  0  0  0  0  0  0
  -28.5300  -31.6980   24.1450 C   0  0  0  0  0  2  0  0  0  0  0  0
  -28.8600  -30.6160   23.1420 C   0  0  0  0  0  0  0  0  0  0  0  0
  -30.1160  -29.9720   23.1370 C   0  0  0  0  0  3  0  0  0  0  0  0
  -29.4240  -28.7210   21.1710 C   0  0  0  0  0  3  0  0  0  0  0  0
  -28.1520  -29.3090   21.2150 C   0  0  0  0  0  3  0  0  0  0  0  0
  -26.5490  -30.9770   22.2950 C   0  0  0  0  0  2  0  0  0  0  0  0
  -27.1510  -31.6210   24.6770 N   0  0  0  0  0  0  0  0  0  0  0  0
  -25.6630  -32.0450   26.3320 O   0  0  0  0  0  0  0  0  0  0  0  0
  -25.3890  -29.8470   24.2190 C   0  0  0  0  0  0  0  0  0  0  0  0
  -24.1780  -29.5860   23.7060 N   0  0  0  0  0  0  0  0  0  0  0  0
  -25.9640  -29.0790   24.9940 O   0  0  0  0  0  0  0  0  0  0  0  0
  -23.7670  -30.2760   23.0920 H   0  0  0  0  0  0  0  0  0  0  0  0
  -21.1680  -27.8410   22.7350 C   0  0  0  0  0  0  0  0  0  0  0  0
  -23.3740  -28.3930   23.9630 C   0  0  0  0  0  3  0  0  0  0  0  0
  -23.9630  -27.1560   23.2460 C   0  0  0  0  0  2  0  0  0  0  0  0
  -23.3580  -26.9220   21.8560 C   0  0  0  0  0  2  0  0  0  0  0  0
  -21.8430  -26.7200   21.9590 C   0  0  0  0  0  2  0  0  0  0  0  0
  -21.8930  -28.6420   23.6570 C   0  0  0  0  0  0  0  0  0  0  0  0
  -21.2310  -29.7040   24.3130 C   0  0  0  0  0  3  0  0  0  0  0  0
  -19.8690  -29.9630   24.0680 C   0  0  0  0  0  3  0  0  0  0  0  0
  -19.1520  -29.1570   23.1680 C   0  0  0  0  0  3  0  0  0  0  0  0
  -19.8020  -28.1000   22.5060 C   0  0  0  0  0  3  0  0  0  0  0  0
  -27.9400  -32.4890   26.9440 C   0  0  0  0  0  3  0  0  0  0  0  0
  -27.8000  -33.9420   27.1040 N   0  0  0  0  0  0  0  0  0  0  0  0
  -28.6870  -34.8450   26.6640 C   0  0  0  0  0  0  0  0  0  0  0  0
  -29.7590  -34.5290   26.1420 O   0  0  0  0  0  0  0  0  0  0  0  0
  -26.9240  -34.2730   27.4790 H   0  0  0  0  0  0  0  0  0  0  0  0
  -28.0290  -36.9490   25.4580 C   0  0  0  0  0  1  0  0  0  0  0  0
  -28.3290  -36.3330   26.8350 C   0  0  0  0  0  3  0  0  0  0  0  0
  -29.5360  -36.7710   28.9280 C   0  0  0  0  0  1  0  0  0  0  0  0
  -29.3810  -37.1190   27.5180 N   0  0  0  0  0  0  0  0  0  0  0  0
  -29.1820  -38.1130   27.4580 H   0  0  0  0  0  0  0  0  0  0  0  0
  -27.8580  -31.7590   28.3390 C   0  0  1  0  0  0  0  0  0  0  0  0
  -26.4780  -31.8770   29.0230 C   0  0  0  0  0  1  0  0  0  0  0  0
  -28.1800  -30.2540   28.1900 C   0  0  0  0  0  1  0  0  0  0  0  0
  -28.9160  -32.3490   29.3030 C   0  0  0  0  0  1  0  0  0  0  0  0
  -26.8290  -22.0250   17.1880 C   0  0  0  0  0  0  0  0  0  0  0  0
  -25.6430  -21.4250   17.1340 N   0  0  0  0  0  0  0  0  0  0  0  0
  -26.9790  -23.2250   16.9490 O   0  0  0  0  0  0  0  0  0  0  0  0
  -25.5800  -20.4390   17.3430 H   0  0  0  0  0  0  0  0  0  0  0  0
  -27.8730  -21.1040   17.5960 C   0  0  0  0  0  3  0  0  0  0  0  0
  -29.1720  -21.4310   17.4560 C   0  0  0  0  0  3  0  0  0  0  0  0
  -30.3290  -20.5420   17.8540 C   0  0  0  0  0  2  0  0  0  0  0  0
  -31.2220  -21.2310   18.7230 O   0  0  0  0  0  0  0  0  0  0  0  0
  -32.4610  -20.5460   18.8800 C   0  0  0  0  0  2  0  0  0  0  0  0
  -33.3450  -21.1820   19.9770 C   0  0  0  0  0  2  0  0  0  0  0  0
  -33.3500  -20.4520   21.2040 O   0  0  0  0  0  0  0  0  0  0  0  0
  -32.1280  -20.4840   21.9350 C   0  0  0  0  0  2  0  0  0  0  0  0
  -31.5180  -19.0770   21.9800 C   0  0  0  0  0  2  0  0  0  0  0  0
  -31.3950  -18.6290   20.6460 O   0  0  0  0  0  0  0  0  0  0  0  0
  -30.9060  -17.3100   20.5130 C   0  0  0  0  0  2  0  0  0  0  0  0
  -31.0830  -16.9480   19.0330 C   0  0  0  0  0  2  0  0  0  0  0  0
  -32.4540  -17.0930   18.6690 O   0  0  0  0  0  0  0  0  0  0  0  0
  -33.2570  -16.0360   19.1470 C   0  0  0  0  0  2  0  0  0  0  0  0
  -34.7460  -16.3390   18.9370 C   0  0  0  0  0  2  0  0  0  0  0  0
  -36.1180  -14.3280   18.6260 C   0  0  0  0  0  0  0  0  0  0  0  0
  -36.5930  -11.9500   18.2030 C   0  0  0  0  0  2  0  0  0  0  0  0
  -35.4670  -11.3360   17.3510 C   0  0  0  0  0  2  0  0  0  0  0  0
  -34.3080  -10.8400   18.2350 C   0  0  0  0  0  2  0  0  0  0  0  0
  -33.8460  -11.9020   19.2710 C   0  0  0  0  0  3  0  0  0  0  0  0
  -35.0650  -12.5000   20.0110 C   0  0  0  0  0  2  0  0  0  0  0  0
  -36.0200  -13.0320   19.0140 N   0  0  0  0  0  0  0  0  0  0  0  0
  -36.7090  -14.7070   17.6120 O   0  0  0  0  0  0  0  0  0  0  0  0
  -35.4870  -15.1830   19.4240 N   0  0  0  0  0  0  0  0  0  0  0  0
  -35.1860  -14.7990   20.3040 H   0  0  0  0  0  0  0  0  0  0  0  0
  -31.6810  -11.9000   20.6720 C   0  0  0  0  0  0  0  0  0  0  0  0
  -31.1020  -10.9400   21.4620 C   0  0  0  0  0  0  0  0  0  0  0  0
  -31.9770   -9.8150   21.4170 C   0  0  0  0  0  0  0  0  0  0  0  0
  -32.8610  -11.3450   20.2000 N   0  0  0  0  0  0  0  0  0  0  0  0
  -33.0540  -10.0960   20.6960 N   0  0  0  0  0  0  0  0  0  0  0  0
  -31.8260   -8.4640   21.9760 C   0  0  0  0  0  0  0  0  0  0  0  0
  -32.9460   -7.6880   22.3460 C   0  0  0  0  0  3  0  0  0  0  0  0
  -32.7760   -6.3990   22.8980 C   0  0  0  0  0  3  0  0  0  0  0  0
  -31.4750   -5.8750   23.0890 C   0  0  0  0  0  0  0  0  0  0  0  0
  -30.3630   -6.6420   22.6970 C   0  0  0  0  0  3  0  0  0  0  0  0
  -30.5360   -7.9220   22.1440 C   0  0  0  0  0  3  0  0  0  0  0  0
  -31.2130   -4.6240   23.5960 O   0  0  0  0  0  0  0  0  0  0  0  0
  -32.2160   -3.8140   24.0620 C   0  0  0  0  0  0  0  0  0  0  0  0
  -33.4670   -4.3300   24.4660 C   0  0  0  0  0  3  0  0  0  0  0  0
  -34.4440   -3.4670   25.0050 C   0  0  0  0  0  3  0  0  0  0  0  0
  -34.1680   -2.0950   25.1500 C   0  0  0  0  0  0  0  0  0  0  0  0
  -32.9220   -1.5800   24.7520 C   0  0  0  0  0  3  0  0  0  0  0  0
  -31.9490   -2.4380   24.2120 C   0  0  0  0  0  0  0  0  0  0  0  0
  -30.7410   -1.9400   23.8510 F   0  0  0  0  0  0  0  0  0  0  0  0
  -35.1030   -1.2680   25.6760 F   0  0  0  0  0  0  0  0  0  0  0  0
  -29.7650  -11.0260   22.1420 C   0  0  0  0  0  0  0  0  0  0  0  0
  -29.6250  -10.4070   23.3110 N   0  0  0  0  0  0  0  0  0  0  0  0
  -28.8480  -11.6850   21.6600 O   0  0  0  0  0  0  0  0  0  0  0  0
  -30.3840   -9.8830   23.7210 H   0  0  0  0  0  0  0  0  0  0  0  0
  -28.7450  -10.4590   23.8010 H   0  0  0  0  0  0  0  0  0  0  0  0
  -31.2950  -13.1860   20.3070 N   0  0  0  0  0  0  0  0  0  0  0  0
  -30.3990  -13.5700   20.5920 H   0  0  0  0  0  0  0  0  0  0  0  0
  -31.7860  -13.7660   19.6430 H   0  0  0  0  0  0  0  0  0  0  0  0
  1  2  1  0
  1 63  1  0
  1  7  1  0
  2  4  2  0
  3  2  1  0
  5  3  1  0
  6  3  1  0
  7  8  1  0
  7  9  2  0
  8 11  1  0
 10  8  1  0
 11 12  1  0
 13 12  1  0
 13 14  1  0
 14 15  1  0
 15 16  1  0
 17 16  1  0
 17 18  1  0
 19 18  1  0
 19 20  1  0
 21 20  1  0
 22 33  2  0
 23 21  1  0
 23 28  1  0
 24 34  1  0
 24 32  1  0
 25 31  1  0
 25 27  1  0
 26 32  1  0
 27 26  1  0
 28 27  2  0
 29 30  1  0
 29 23  2  0
 30 25  2  0
 31 24  1  0
 32 22  1  0
 34 36  2  0
 35 34  1  0
 37 35  1  0
 38 43  1  0
 39 35  1  0
 40 39  1  0
 41 42  1  0
 41 40  1  0
 42 38  1  0
 43 39  1  0
 43 44  2  0
 45 44  1  0
 46 45  2  0
 47 38  2  0
 47 46  1  0
 48 22  1  0
 48 49  1  0
 48 58  1  0
 49 52  1  0
 50 54  1  0
 50 49  1  0
 51 50  2  0
 54 53  1  0
 54 56  1  0
 56 55  1  0
 57 56  1  0
 58 59  1  1
 58 61  1  0
 60 58  1  0
 62 66  1  0
 63 62  1  0
 63 65  1  0
 64 62  2  0
 67 66  2  0
 67 68  1  0
 68 69  1  0
 69 70  1  0
 70 71  1  0
 71 72  1  0
 72 73  1  0
 73 74  1  0
 75 74  1  0
 76 75  1  0
 77 76  1  0
 78 77  1  0
 78 79  1  0
 80 79  1  0
 80 89  1  0
 81 87  1  0
 81 89  1  0
 82 87  1  0
 83 82  1  0
 83 84  1  0
 85 84  1  0
 85 86  1  0
 85 94  1  0
 87 86  1  0
 88 81  2  0
 89 90  1  0
 91 92  2  0
 92111  1  0
 93 92  1  0
 93 96  1  0
 94 91  1  0
 94 95  1  0
 95 93  2  0
 96101  2  0
 96 97  1  0
 97 98  2  0
 98 99  1  0
 99102  1  0
100 99  2  0
101100  1  0
102103  1  0
103108  2  0
103104  1  0
104105  2  0
105106  1  0
106110  1  0
107106  2  0
108107  1  0
109108  1  0
111112  1  0
112114  1  0
112115  1  0
113111  2  0
116117  1  0
116 91  1  0
118116  1  0
M  ISO  4  20 101  21 101  81 100  89 100
M  END
>  <TORSDO>  (55) 
F 43

>  <SCORE>  (55) 
-2.953

>  <name>  (55) 
57

>  <ligand_id>  (55) 
57

>  <original_smiles>  (55) 
[H]C(C(=O)N([H])C([H])(C(=O)N([H])[H])C(=O)N([H])C([H])([H])C([H])([H])C([H])([H])C([H])([H])OC([H])([H])C([H])([H])OC([H])([H])C([H])([H])Oc1c([H])c([H])c2c(c1[H])C([H])([H])N(C(=O)C([H])(N([H])C(=O)C([H])(N([H])C([H])([H])[H])C([H])([H])[H])C(C([H])([H])[H])(C([H])([H])[H])C([H])([H])[H])C([H])(C(=O)N([H])C1([H])c3c([H])c([H])c([H])c([H])c3C([H])([H])C([H])([H])C1([H])[H])C2([H])[H])=C([H])C([H])([H])OC([H])([H])C([H])([H])OC([H])([H])C([H])([H])OC([H])([H])C([H])([H])OC([H])([H])C([H])([H])N([H])C(=O)N1C([H])([H])C([H])([H])C([H])([H])C([H])(n2nc(-c3c([H])c([H])c(Oc4c([H])c([H])c(F)c([H])c4F)c([H])c3[H])c(C(=O)N([H])[H])c2N([H])[H])C1([H])[H]

>  <smiles>  (55) 
[H]C(C(=O)N([H])C([H])(C(=O)N([H])[H])C(=O)N([H])C([H])([H])C([H])([H])C([H])([H])C([H])([H])OC([H])([H])C([H])([H])OC([H])([H])C([H])([H])Oc1c([H])c([H])c2c(c1[H])C([H])([H])N(C(=O)C([H])(N([H])C(=O)C([H])(N([H])C([H])([H])[H])C([H])([H])[H])C(C([H])([H])[H])(C([H])([H])[H])C([H])([H])[H])C([H])(C(=O)N([H])C1([H])c3c([H])c([H])c([H])c([H])c3C([H])([H])C([H])([H])C1([H])[H])C2([H])[H])=C([H])C([H])([H])OC([H])([H])C([H])([H])OC([H])([H])C([H])([H])OC([H])([H])C([H])([H])OC([H])([H])C([H])([H])N([H])C(=O)N1C([H])([H])C([H])([H])C([H])([H])C([H])(n2nc(-c3c([H])c([H])c(Oc4c([H])c([H])c(F)c([H])c4F)c([H])c3[H])c(C(=O)N([H])[H])c2N([H])[H])C1([H])[H]

$$$$
58:0:0
     RDKit          3D

 99106  0  0  1  0  0  0  0  0999 V2000
  -30.4290  -20.0460   25.3140 C   0  0  0  0  0  2  0  0  0  0  0  0
  -30.2190  -18.1200   23.7530 C   0  0  0  0  0  0  0  0  0  0  0  0
  -30.9290  -18.8810   24.5900 N   0  0  0  0  0  0  0  0  0  0  0  0
  -28.9920  -18.2000   23.6530 O   0  0  0  0  0  0  0  0  0  0  0  0
  -31.9270  -18.7150   24.6290 H   0  0  0  0  0  0  0  0  0  0  0  0
  -31.0860  -17.2850   22.9470 C   0  0  0  0  0  3  0  0  0  0  0  0
  -30.6280  -16.7040   21.8240 C   0  0  0  0  0  3  0  0  0  0  0  0
  -31.5010  -15.9110   20.8720 C   0  0  0  0  0  3  0  0  0  0  0  0
  -31.4210  -13.6230   19.8780 C   0  0  0  0  0  0  0  0  0  0  0  0
  -30.9630  -11.4390   18.8290 C   0  0  0  0  0  2  0  0  0  0  0  0
  -29.9760  -11.5970   17.6570 C   0  0  0  0  0  2  0  0  0  0  0  0
  -28.5200  -11.5420   18.1580 C   0  0  0  0  0  2  0  0  0  0  0  0
  -28.2680  -12.4850   19.3640 C   0  0  0  0  0  3  0  0  0  0  0  0
  -29.3550  -12.2880   20.4440 C   0  0  0  0  0  2  0  0  0  0  0  0
  -30.6750  -12.4900   19.8150 N   0  0  0  0  0  0  0  0  0  0  0  0
  -32.4480  -13.7970   19.2150 O   0  0  0  0  0  0  0  0  0  0  0  0
  -30.9460  -14.5710   20.6990 N   0  0  0  0  0  0  0  0  0  0  0  0
  -30.1080  -14.3420   21.2120 H   0  0  0  0  0  0  0  0  0  0  0  0
  -25.9390  -13.2440   20.1580 C   0  0  0  0  0  0  0  0  0  0  0  0
  -24.8530  -12.5420   20.6060 C   0  0  0  0  0  0  0  0  0  0  0  0
  -25.2420  -11.1670   20.6020 C   0  0  0  0  0  0  0  0  0  0  0  0
  -26.9260  -12.3010   19.9120 N   0  0  0  0  0  0  0  0  0  0  0  0
  -26.5110  -11.0500   20.2330 N   0  0  0  0  0  0  0  0  0  0  0  0
  -24.4640   -9.9520   20.8730 C   0  0  0  0  0  0  0  0  0  0  0  0
  -24.8330   -9.0510   21.8960 C   0  0  0  0  0  3  0  0  0  0  0  0
  -24.0590   -7.8990   22.1490 C   0  0  0  0  0  3  0  0  0  0  0  0
  -22.9010   -7.6390   21.3780 C   0  0  0  0  0  0  0  0  0  0  0  0
  -22.5510   -8.5270   20.3450 C   0  0  0  0  0  3  0  0  0  0  0  0
  -23.3260   -9.6700   20.0910 C   0  0  0  0  0  3  0  0  0  0  0  0
  -22.1030   -6.5310   21.5340 O   0  0  0  0  0  0  0  0  0  0  0  0
  -21.8990   -5.9590   22.7640 C   0  0  0  0  0  0  0  0  0  0  0  0
  -21.3390   -6.6820   23.8400 C   0  0  0  0  0  3  0  0  0  0  0  0
  -21.0840   -6.0350   25.0660 C   0  0  0  0  0  3  0  0  0  0  0  0
  -21.3770   -4.6670   25.2150 C   0  0  0  0  0  0  0  0  0  0  0  0
  -21.9300   -3.9440   24.1430 C   0  0  0  0  0  3  0  0  0  0  0  0
  -22.1870   -4.5880   22.9200 C   0  0  0  0  0  0  0  0  0  0  0  0
  -22.7000   -3.8810   21.8840 F   0  0  0  0  0  0  0  0  0  0  0  0
  -21.1250   -4.0430   26.3900 F   0  0  0  0  0  0  0  0  0  0  0  0
  -23.4960  -13.1000   20.9300 C   0  0  0  0  0  0  0  0  0  0  0  0
  -22.7920  -12.4890   21.8750 N   0  0  0  0  0  0  0  0  0  0  0  0
  -23.0740  -14.1160   20.3780 O   0  0  0  0  0  0  0  0  0  0  0  0
  -23.1470  -11.6680   22.3430 H   0  0  0  0  0  0  0  0  0  0  0  0
  -21.8840  -12.8470   22.1350 H   0  0  0  0  0  0  0  0  0  0  0  0
  -26.1660  -14.5970   19.9240 N   0  0  0  0  0  0  0  0  0  0  0  0
  -25.4440  -15.3000   20.0500 H   0  0  0  0  0  0  0  0  0  0  0  0
  -27.0280  -14.9770   19.5560 H   0  0  0  0  0  0  0  0  0  0  0  0
  -31.6110  -16.6440   19.5120 C   0  0  0  0  0  2  0  0  0  0  0  0
  -32.0230  -18.7930   18.2300 C   0  0  0  0  0  1  0  0  0  0  0  0
  -33.6730  -18.0910   20.0020 C   0  0  0  0  0  1  0  0  0  0  0  0
  -32.1960  -18.0760   19.5770 C   0  0  0  0  0  3  0  0  0  0  0  0
  -29.8150  -21.0970   24.3610 C   0  0  0  0  0  2  0  0  0  0  0  0
  -30.4570  -21.1080   22.9640 C   0  0  0  0  0  2  0  0  0  0  0  0
  -29.8290  -22.0810   22.1410 O   0  0  0  0  0  0  0  0  0  0  0  0
  -30.5070  -22.2310   20.8960 C   0  0  0  0  0  2  0  0  0  0  0  0
  -30.2670  -23.6310   20.3170 C   0  0  0  0  0  2  0  0  0  0  0  0
  -29.2510  -23.6040   19.3210 O   0  0  0  0  0  0  0  0  0  0  0  0
  -28.7670  -24.9110   19.0310 C   0  0  0  0  0  2  0  0  0  0  0  0
  -28.1570  -24.9750   17.6240 C   0  0  0  0  0  2  0  0  0  0  0  0
  -27.9830  -26.3430   17.2650 O   0  0  0  0  0  0  0  0  0  0  0  0
  -26.0150  -28.7360   23.6710 C   0  0  0  0  0  0  0  0  0  0  0  0
  -27.0650  -27.0330   18.0130 C   0  0  0  0  0  0  0  0  0  0  0  0
  -24.3550  -29.0100   21.8560 C   0  0  0  0  0  3  0  0  0  0  0  0
  -25.2080  -28.5460   19.4980 C   0  0  0  0  0  0  0  0  0  0  0  0
  -26.8570  -28.9460   21.3370 C   0  0  0  0  0  2  0  0  0  0  0  0
  -26.5020  -28.3430   19.9940 C   0  0  0  0  0  0  0  0  0  0  0  0
  -27.4380  -27.5950   19.2500 C   0  0  0  0  0  3  0  0  0  0  0  0
  -25.7590  -27.2370   17.5230 C   0  0  0  0  0  3  0  0  0  0  0  0
  -24.8280  -27.9920   18.2620 C   0  0  0  0  0  3  0  0  0  0  0  0
  -24.2730  -29.3760   20.3500 C   0  0  0  0  0  2  0  0  0  0  0  0
  -25.7670  -28.8650   22.3360 N   0  0  0  0  0  0  0  0  0  0  0  0
  -25.0960  -28.7800   24.5000 O   0  0  0  0  0  0  0  0  0  0  0  0
  -23.4920  -27.7520   22.1030 C   0  0  0  0  0  0  0  0  0  0  0  0
  -22.1800  -27.8670   21.8420 N   0  0  0  0  0  0  0  0  0  0  0  0
  -24.0050  -26.7000   22.4930 O   0  0  0  0  0  0  0  0  0  0  0  0
  -21.8350  -28.7660   21.5370 H   0  0  0  0  0  0  0  0  0  0  0  0
  -18.7500  -27.0040   21.1150 C   0  0  0  0  0  0  0  0  0  0  0  0
  -21.1820  -26.8040   21.9640 C   0  0  0  0  0  3  0  0  0  0  0  0
  -21.3710  -25.7350   20.8640 C   0  0  0  0  0  2  0  0  0  0  0  0
  -20.5220  -25.9960   19.6160 C   0  0  0  0  0  2  0  0  0  0  0  0
  -19.0350  -26.0360   19.9780 C   0  0  0  0  0  2  0  0  0  0  0  0
  -19.7630  -27.3770   22.0380 C   0  0  0  0  0  0  0  0  0  0  0  0
  -19.4550  -28.3070   23.0540 C   0  0  0  0  0  3  0  0  0  0  0  0
  -18.1640  -28.8570   23.1600 C   0  0  0  0  0  3  0  0  0  0  0  0
  -17.1610  -28.4710   22.2540 C   0  0  0  0  0  3  0  0  0  0  0  0
  -17.4530  -27.5460   21.2360 C   0  0  0  0  0  3  0  0  0  0  0  0
  -27.4650  -28.5520   24.2200 C   0  0  0  0  0  3  0  0  0  0  0  0
  -27.5380  -29.2390   25.5150 N   0  0  0  0  0  0  0  0  0  0  0  0
  -28.1760  -30.3990   25.7240 C   0  0  0  0  0  0  0  0  0  0  0  0
  -28.8320  -30.9700   24.8480 O   0  0  0  0  0  0  0  0  0  0  0  0
  -26.9770  -28.8570   26.2620 H   0  0  0  0  0  0  0  0  0  0  0  0
  -27.0540  -32.1800   27.0970 C   0  0  0  0  0  1  0  0  0  0  0  0
  -28.0660  -31.0240   27.1270 C   0  0  0  0  0  3  0  0  0  0  0  0
  -30.2900  -30.4310   27.9820 C   0  0  0  0  0  1  0  0  0  0  0  0
  -29.3600  -31.5070   27.6580 N   0  0  0  0  0  0  0  0  0  0  0  0
  -29.2180  -32.0660   28.4950 H   0  0  0  0  0  0  0  0  0  0  0  0
  -27.8890  -27.0380   24.3650 C   0  0  1  0  0  0  0  0  0  0  0  0
  -26.8740  -26.1830   25.1590 C   0  0  0  0  0  1  0  0  0  0  0  0
  -28.0710  -26.3900   22.9730 C   0  0  0  0  0  1  0  0  0  0  0  0
  -29.2560  -26.9430   25.0800 C   0  0  0  0  0  1  0  0  0  0  0  0
  2  3  1  0
  3  5  1  0
  3  1  1  0
  4  2  2  0
  6  2  1  0
  7  6  2  0
  8 47  1  0
  8  7  1  0
  9 17  1  0
 10 15  1  0
 11 12  1  0
 11 10  1  0
 13 12  1  0
 13 22  1  0
 13 14  1  0
 15  9  1  0
 15 14  1  0
 16  9  2  0
 17  8  1  0
 17 18  1  0
 19 20  2  0
 20 39  1  0
 21 20  1  0
 21 24  1  0
 22 19  1  0
 22 23  1  0
 23 21  2  0
 24 25  1  0
 25 26  2  0
 27 30  1  0
 27 26  1  0
 28 27  2  0
 29 28  1  0
 29 24  2  0
 30 31  1  0
 31 36  2  0
 31 32  1  0
 32 33  2  0
 33 34  1  0
 34 38  1  0
 35 34  2  0
 36 35  1  0
 37 36  1  0
 39 40  1  0
 40 43  1  0
 40 42  1  0
 41 39  2  0
 44 45  1  0
 44 19  1  0
 46 44  1  0
 47 50  1  0
 48 50  1  0
 50 49  1  0
 51  1  1  0
 52 51  1  0
 53 52  1  0
 54 53  1  0
 55 54  1  0
 56 55  1  0
 57 56  1  0
 58 57  1  0
 59 58  1  0
 59 61  1  0
 60 71  2  0
 61 66  1  0
 62 72  1  0
 62 70  1  0
 63 65  1  0
 63 69  1  0
 64 70  1  0
 65 64  1  0
 66 65  2  0
 67 61  2  0
 67 68  1  0
 68 63  2  0
 69 62  1  0
 70 60  1  0
 72 74  2  0
 73 72  1  0
 75 73  1  0
 76 85  2  0
 76 81  1  0
 77 73  1  0
 77 81  1  0
 78 77  1  0
 79 80  1  0
 79 78  1  0
 80 76  1  0
 81 82  2  0
 82 83  1  0
 84 83  2  0
 85 84  1  0
 86 60  1  0
 86 96  1  0
 86 87  1  0
 87 88  1  0
 87 90  1  0
 88 92  1  0
 89 88  2  0
 92 91  1  0
 92 94  1  0
 94 93  1  0
 94 95  1  0
 96 99  1  1
 96 97  1  0
 98 96  1  0
M  ISO  4   9 100  17 100  58 101  59 101
M  END
>  <TORSDO>  (56) 
F 29

>  <SCORE>  (56) 
-2.569

>  <name>  (56) 
58

>  <ligand_id>  (56) 
58

>  <original_smiles>  (56) 
[H]C(C(=O)N([H])C([H])([H])C([H])([H])C([H])([H])OC([H])([H])C([H])([H])OC([H])([H])C([H])([H])Oc1c([H])c([H])c2c(c1[H])C([H])([H])N(C(=O)C([H])(N([H])C(=O)C([H])(N([H])C([H])([H])[H])C([H])([H])[H])C(C([H])([H])[H])(C([H])([H])[H])C([H])([H])[H])C([H])(C(=O)N([H])C1([H])c3c([H])c([H])c([H])c([H])c3C([H])([H])C([H])([H])C1([H])[H])C2([H])[H])=C([H])C([H])(N([H])C(=O)N1C([H])([H])C([H])([H])C([H])([H])C([H])(n2nc(-c3c([H])c([H])c(Oc4c([H])c([H])c(F)c([H])c4F)c([H])c3[H])c(C(=O)N([H])[H])c2N([H])[H])C1([H])[H])C([H])([H])C([H])(C([H])([H])[H])C([H])([H])[H]

>  <smiles>  (56) 
[H]C(C(=O)N([H])C([H])([H])C([H])([H])C([H])([H])OC([H])([H])C([H])([H])OC([H])([H])C([H])([H])Oc1c([H])c([H])c2c(c1[H])C([H])([H])N(C(=O)C([H])(N([H])C(=O)C([H])(N([H])C([H])([H])[H])C([H])([H])[H])C(C([H])([H])[H])(C([H])([H])[H])C([H])([H])[H])C([H])(C(=O)N([H])C1([H])c3c([H])c([H])c([H])c([H])c3C([H])([H])C([H])([H])C1([H])[H])C2([H])[H])=C([H])C([H])(N([H])C(=O)N1C([H])([H])C([H])([H])C([H])([H])C([H])(n2nc(-c3c([H])c([H])c(Oc4c([H])c([H])c(F)c([H])c4F)c([H])c3[H])c(C(=O)N([H])[H])c2N([H])[H])C1([H])[H])C([H])([H])C([H])(C([H])([H])[H])C([H])([H])[H]

$$$$
59:0:0
     RDKit          3D

101108  0  0  1  0  0  0  0  0999 V2000
  -27.3710  -19.6560   19.2760 C   0  0  0  0  0  0  0  0  0  0  0  0
  -26.3640  -20.3270   18.6990 N   0  0  0  0  0  0  0  0  0  0  0  0
  -27.9010  -20.0650   20.3150 O   0  0  0  0  0  0  0  0  0  0  0  0
  -25.9790  -19.9330   17.8490 H   0  0  0  0  0  0  0  0  0  0  0  0
  -27.8590  -18.3360   18.6080 C   0  0  0  0  0  3  0  0  0  0  0  0
  -29.3810  -17.1830   20.2030 C   0  0  0  0  0  0  0  0  0  0  0  0
  -29.1810  -17.9500   19.1210 N   0  0  0  0  0  0  0  0  0  0  0  0
  -28.4510  -16.6170   20.7740 O   0  0  0  0  0  0  0  0  0  0  0  0
  -29.9900  -18.3750   18.6960 H   0  0  0  0  0  0  0  0  0  0  0  0
  -31.9400  -17.5920   19.9100 C   0  0  0  0  0  1  0  0  0  0  0  0
  -30.7930  -17.0280   20.7790 C   0  0  0  0  0  3  0  0  0  0  0  0
  -31.5000  -14.6040   20.5380 C   0  0  0  0  0  0  0  0  0  0  0  0
  -31.1540  -12.3720   19.5610 C   0  0  0  0  0  2  0  0  0  0  0  0
  -30.2740  -12.4900   18.2970 C   0  0  0  0  0  2  0  0  0  0  0  0
  -28.7820  -12.4090   18.6660 C   0  0  0  0  0  2  0  0  0  0  0  0
  -28.4090  -13.3740   19.8220 C   0  0  0  0  0  3  0  0  0  0  0  0
  -29.4060  -13.2520   21.0000 C   0  0  0  0  0  2  0  0  0  0  0  0
  -30.7760  -13.4520   20.4860 N   0  0  0  0  0  0  0  0  0  0  0  0
  -32.5800  -14.7430   19.9630 O   0  0  0  0  0  0  0  0  0  0  0  0
  -30.9200  -15.6190   21.1930 N   0  0  0  0  0  0  0  0  0  0  0  0
  -30.1000  -15.3410   21.7140 H   0  0  0  0  0  0  0  0  0  0  0  0
  -26.0240  -14.0980   20.4860 C   0  0  0  0  0  0  0  0  0  0  0  0
  -24.9040  -13.3830   20.8100 C   0  0  0  0  0  0  0  0  0  0  0  0
  -25.2860  -12.0100   20.7350 C   0  0  0  0  0  0  0  0  0  0  0  0
  -27.0270  -13.1690   20.2580 N   0  0  0  0  0  0  0  0  0  0  0  0
  -26.5790  -11.9020   20.4570 N   0  0  0  0  0  0  0  0  0  0  0  0
  -24.4780  -10.7930   20.8530 C   0  0  0  0  0  0  0  0  0  0  0  0
  -24.7590   -9.8120   21.8300 C   0  0  0  0  0  3  0  0  0  0  0  0
  -23.9500   -8.6610   21.9350 C   0  0  0  0  0  3  0  0  0  0  0  0
  -22.8480   -8.4840   21.0660 C   0  0  0  0  0  0  0  0  0  0  0  0
  -22.5850   -9.4570   20.0850 C   0  0  0  0  0  3  0  0  0  0  0  0
  -23.3930  -10.5990   19.9760 C   0  0  0  0  0  3  0  0  0  0  0  0
  -22.0260   -7.3840   21.0780 O   0  0  0  0  0  0  0  0  0  0  0  0
  -21.7120   -6.7320   22.2440 C   0  0  0  0  0  0  0  0  0  0  0  0
  -21.0690   -7.3900   23.3130 C   0  0  0  0  0  3  0  0  0  0  0  0
  -20.6970   -6.6670   24.4640 C   0  0  0  0  0  3  0  0  0  0  0  0
  -20.9640   -5.2870   24.5450 C   0  0  0  0  0  0  0  0  0  0  0  0
  -21.6050   -4.6290   23.4800 C   0  0  0  0  0  3  0  0  0  0  0  0
  -21.9740   -5.3500   22.3290 C   0  0  0  0  0  0  0  0  0  0  0  0
  -22.5710   -4.7070   21.2980 F   0  0  0  0  0  0  0  0  0  0  0  0
  -20.6020   -4.5910   25.6480 F   0  0  0  0  0  0  0  0  0  0  0  0
  -23.5410  -13.9410   21.0880 C   0  0  0  0  0  0  0  0  0  0  0  0
  -22.7590  -13.2720   21.9270 N   0  0  0  0  0  0  0  0  0  0  0  0
  -23.1760  -15.0120   20.6040 O   0  0  0  0  0  0  0  0  0  0  0  0
  -23.0680  -12.4080   22.3480 H   0  0  0  0  0  0  0  0  0  0  0  0
  -21.8400  -13.6290   22.1490 H   0  0  0  0  0  0  0  0  0  0  0  0
  -26.2500  -15.4590   20.3670 N   0  0  0  0  0  0  0  0  0  0  0  0
  -25.5110  -16.0800   20.6670 H   0  0  0  0  0  0  0  0  0  0  0  0
  -27.1770  -15.7940   20.6440 H   0  0  0  0  0  0  0  0  0  0  0  0
  -27.9470  -18.4430   17.0630 C   0  0  0  0  0  2  0  0  0  0  0  0
  -26.7170  -18.8070   16.4510 O   0  0  0  0  0  0  0  0  0  0  0  0
  -26.9050  -19.1440   15.5810 H   0  0  0  0  0  0  0  0  0  0  0  0
  -25.8270  -21.6240   19.1280 C   0  0  0  0  0  2  0  0  0  0  0  0
  -26.7690  -22.7940   18.8130 C   0  0  0  0  0  2  0  0  0  0  0  0
  -26.8750  -22.8670   17.4010 O   0  0  0  0  0  0  0  0  0  0  0  0
  -27.6930  -23.9290   16.9530 C   0  0  0  0  0  2  0  0  0  0  0  0
  -29.1040  -23.4150   16.5960 C   0  0  0  0  0  2  0  0  0  0  0  0
  -30.0980  -24.4280   16.6960 O   0  0  0  0  0  0  0  0  0  0  0  0
  -29.6220  -25.6810   16.2330 C   0  0  0  0  0  2  0  0  0  0  0  0
  -30.5050  -26.8580   16.6620 C   0  0  0  0  0  2  0  0  0  0  0  0
  -29.9100  -28.0980   16.2920 O   0  0  0  0  0  0  0  0  0  0  0  0
  -23.8340  -26.7360   19.7470 C   0  0  0  0  0  0  0  0  0  0  0  0
  -28.5380  -28.1090   16.2860 C   0  0  0  0  0  0  0  0  0  0  0  0
  -23.6150  -27.2990   17.3450 C   0  0  0  0  0  3  0  0  0  0  0  0
  -25.7210  -28.1880   16.2240 C   0  0  0  0  0  0  0  0  0  0  0  0
  -25.5790  -28.1750   18.7200 C   0  0  0  0  0  2  0  0  0  0  0  0
  -26.3990  -28.1460   17.4510 C   0  0  0  0  0  0  0  0  0  0  0  0
  -27.8080  -28.0950   17.4890 C   0  0  0  0  0  3  0  0  0  0  0  0
  -27.8480  -28.1790   15.0580 C   0  0  0  0  0  3  0  0  0  0  0  0
  -26.4450  -28.1860   15.0220 C   0  0  0  0  0  3  0  0  0  0  0  0
  -24.2120  -28.2480   16.2720 C   0  0  0  0  0  2  0  0  0  0  0  0
  -24.3450  -27.3650   18.6510 N   0  0  0  0  0  0  0  0  0  0  0  0
  -22.7470  -26.1410   19.7000 O   0  0  0  0  0  0  0  0  0  0  0  0
  -23.5480  -25.8710   16.7580 C   0  0  0  0  0  0  0  0  0  0  0  0
  -22.6350  -25.6640   15.7960 N   0  0  0  0  0  0  0  0  0  0  0  0
  -24.3230  -24.9910   17.1450 O   0  0  0  0  0  0  0  0  0  0  0  0
  -22.0400  -26.4390   15.5370 H   0  0  0  0  0  0  0  0  0  0  0  0
  -20.6890  -24.1450   13.1630 C   0  0  0  0  0  0  0  0  0  0  0  0
  -22.4120  -24.4130   15.0710 C   0  0  0  0  0  3  0  0  0  0  0  0
  -23.4920  -24.1940   13.9880 C   0  0  0  0  0  2  0  0  0  0  0  0
  -23.0880  -24.7500   12.6220 C   0  0  0  0  0  2  0  0  0  0  0  0
  -21.7980  -24.0880   12.1240 C   0  0  0  0  0  2  0  0  0  0  0  0
  -20.9770  -24.3190   14.5410 C   0  0  0  0  0  0  0  0  0  0  0  0
  -19.9090  -24.4120   15.4590 C   0  0  0  0  0  3  0  0  0  0  0  0
  -18.5740  -24.3300   15.0210 C   0  0  0  0  0  3  0  0  0  0  0  0
  -18.2940  -24.1380   13.6550 C   0  0  0  0  0  3  0  0  0  0  0  0
  -19.3510  -24.0400   12.7320 C   0  0  0  0  0  3  0  0  0  0  0  0
  -24.5820  -26.7550   21.1210 C   0  0  0  0  0  3  0  0  0  0  0  0
  -23.6060  -27.1390   22.1470 N   0  0  0  0  0  0  0  0  0  0  0  0
  -23.5010  -28.3660   22.6710 C   0  0  0  0  0  0  0  0  0  0  0  0
  -24.2810  -29.2810   22.3930 O   0  0  0  0  0  0  0  0  0  0  0  0
  -22.8970  -26.4540   22.3720 H   0  0  0  0  0  0  0  0  0  0  0  0
  -21.2060  -29.3530   22.9520 C   0  0  0  0  0  1  0  0  0  0  0  0
  -22.3530  -28.6190   23.6640 C   0  0  0  0  0  3  0  0  0  0  0  0
  -23.6450  -28.6300   25.7500 C   0  0  0  0  0  1  0  0  0  0  0  0
  -22.7680  -29.3840   24.8580 N   0  0  0  0  0  0  0  0  0  0  0  0
  -21.9580  -29.6840   25.3940 H   0  0  0  0  0  0  0  0  0  0  0  0
  -25.2510  -25.3710   21.4760 C   0  0  1  0  0  0  0  0  0  0  0  0
  -24.2860  -24.1670   21.3670 C   0  0  0  0  0  1  0  0  0  0  0  0
  -26.4600  -25.0940   20.5530 C   0  0  0  0  0  1  0  0  0  0  0  0
  -25.8020  -25.4130   22.9200 C   0  0  0  0  0  1  0  0  0  0  0  0
  1  3  2  0
  2 53  1  0
  2  1  1  0
  4  2  1  0
  5 50  1  0
  5  7  1  0
  5  1  1  0
  6  8  2  0
  6 11  1  0
  7  6  1  0
  9  7  1  0
 11 10  1  0
 11 20  1  0
 12 20  1  0
 13 18  1  0
 14 15  1  0
 14 13  1  0
 16 15  1  0
 16 25  1  0
 16 17  1  0
 18 12  1  0
 18 17  1  0
 19 12  2  0
 20 21  1  0
 22 23  2  0
 23 42  1  0
 24 23  1  0
 24 27  1  0
 25 26  1  0
 25 22  1  0
 26 24  2  0
 27 28  1  0
 28 29  2  0
 30 33  1  0
 30 29  1  0
 31 30  2  0
 32 31  1  0
 32 27  2  0
 33 34  1  0
 34 39  2  0
 34 35  1  0
 35 36  2  0
 36 37  1  0
 37 41  1  0
 38 37  2  0
 39 38  1  0
 40 39  1  0
 42 43  1  0
 43 46  1  0
 43 45  1  0
 44 42  2  0
 47 22  1  0
 47 49  1  0
 47 48  1  0
 51 50  1  0
 52 51  1  0
 54 53  1  0
 55 54  1  0
 56 55  1  0
 57 58  1  0
 57 56  1  0
 59 60  1  0
 59 58  1  0
 61 60  1  0
 63 61  1  0
 63 68  1  0
 64 74  1  0
 64 72  1  0
 65 71  1  0
 65 67  1  0
 67 68  2  0
 67 66  1  0
 69 63  2  0
 70 69  1  0
 70 65  2  0
 71 64  1  0
 72 66  1  0
 72 62  1  0
 73 62  2  0
 74 76  2  0
 75 74  1  0
 77 75  1  0
 78 83  1  0
 79 75  1  0
 80 79  1  0
 81 80  1  0
 82 81  1  0
 82 78  1  0
 83 79  1  0
 83 84  2  0
 85 84  1  0
 86 85  2  0
 87 78  2  0
 87 86  1  0
 88 62  1  0
 88 98  1  0
 88 89  1  0
 89 92  1  0
 89 90  1  0
 90 94  1  0
 91 90  2  0
 94 93  1  0
 94 96  1  0
 96 97  1  0
 96 95  1  0
 98101  1  1
 99 98  1  0
100 98  1  0
M  ISO  4  12 100  20 100  60 101  61 101
M  END
>  <TORSDO>  (57) 
F 29

>  <SCORE>  (57) 
-7.335

>  <name>  (57) 
59

>  <ligand_id>  (57) 
59

>  <original_smiles>  (57) 
[H]OC([H])([H])C([H])(C(=O)N([H])C([H])([H])C([H])([H])OC([H])([H])C([H])([H])OC([H])([H])C([H])([H])Oc1c([H])c([H])c2c(c1[H])C([H])([H])N(C(=O)C([H])(N([H])C(=O)C([H])(N([H])C([H])([H])[H])C([H])([H])[H])C(C([H])([H])[H])(C([H])([H])[H])C([H])([H])[H])C([H])(C(=O)N([H])C1([H])c3c([H])c([H])c([H])c([H])c3C([H])([H])C([H])([H])C1([H])[H])C2([H])[H])N([H])C(=O)C([H])(N([H])C(=O)N1C([H])([H])C([H])([H])C([H])([H])C([H])(n2nc(-c3c([H])c([H])c(Oc4c([H])c([H])c(F)c([H])c4F)c([H])c3[H])c(C(=O)N([H])[H])c2N([H])[H])C1([H])[H])C([H])([H])[H]

>  <smiles>  (57) 
[H]OC([H])([H])C([H])(C(=O)N([H])C([H])([H])C([H])([H])OC([H])([H])C([H])([H])OC([H])([H])C([H])([H])Oc1c([H])c([H])c2c(c1[H])C([H])([H])N(C(=O)C([H])(N([H])C(=O)C([H])(N([H])C([H])([H])[H])C([H])([H])[H])C(C([H])([H])[H])(C([H])([H])[H])C([H])([H])[H])C([H])(C(=O)N([H])C1([H])c3c([H])c([H])c([H])c([H])c3C([H])([H])C([H])([H])C1([H])[H])C2([H])[H])N([H])C(=O)C([H])(N([H])C(=O)N1C([H])([H])C([H])([H])C([H])([H])C([H])(n2nc(-c3c([H])c([H])c(Oc4c([H])c([H])c(F)c([H])c4F)c([H])c3[H])c(C(=O)N([H])[H])c2N([H])[H])C1([H])[H])C([H])([H])[H]

$$$$
62:0:0
     RDKit          3D

 97104  0  0  1  0  0  0  0  0999 V2000
  -30.9970  -18.1390   22.2300 N   0  0  0  0  0  4  0  0  0  0  0  0
  -30.5280  -17.7350   23.0290 H   0  0  0  0  0  0  0  0  0  0  0  0
  -30.3090  -18.2550   21.5000 H   0  0  0  0  0  0  0  0  0  0  0  0
  -31.5440  -19.4670   22.5830 C   0  0  0  0  0  2  0  0  0  0  0  0
  -30.6450  -20.6320   22.1700 C   0  0  0  0  0  2  0  0  0  0  0  0
  -31.5410  -21.7100   21.9540 O   0  0  0  0  0  0  0  0  0  0  0  0
  -30.9090  -22.9280   21.6260 C   0  0  0  0  0  2  0  0  0  0  0  0
  -32.0180  -23.9490   21.3590 C   0  0  0  0  0  2  0  0  0  0  0  0
  -31.4950  -25.3850   21.4170 C   0  0  0  0  0  2  0  0  0  0  0  0
  -32.4820  -26.4230   20.8470 C   0  0  0  0  0  2  0  0  0  0  0  0
  -32.2840  -27.7040   21.4380 O   0  0  0  0  0  0  0  0  0  0  0  0
  -27.4910  -30.9370   25.5400 C   0  0  0  0  0  0  0  0  0  0  0  0
  -31.0180  -28.2430   21.4860 C   0  0  0  0  0  0  0  0  0  0  0  0
  -26.6720  -30.1930   23.3260 C   0  0  0  0  0  3  0  0  0  0  0  0
  -28.4640  -29.4310   21.6830 C   0  0  0  0  0  0  0  0  0  0  0  0
  -29.1380  -30.7770   23.6810 C   0  0  0  0  0  2  0  0  0  0  0  0
  -29.4660  -29.7710   22.5990 C   0  0  0  0  0  0  0  0  0  0  0  0
  -30.7410  -29.1760   22.5060 C   0  0  0  0  0  3  0  0  0  0  0  0
  -29.9980  -27.9200   20.5610 C   0  0  0  0  0  3  0  0  0  0  0  0
  -28.7200  -28.4980   20.6660 C   0  0  0  0  0  3  0  0  0  0  0  0
  -27.1270  -30.1150   21.8440 C   0  0  0  0  0  2  0  0  0  0  0  0
  -27.7750  -30.6280   24.2430 N   0  0  0  0  0  0  0  0  0  0  0  0
  -26.3260  -30.9090   25.9640 O   0  0  0  0  0  0  0  0  0  0  0  0
  -26.0470  -28.8360   23.7220 C   0  0  0  0  0  0  0  0  0  0  0  0
  -24.8470  -28.5500   23.1870 N   0  0  0  0  0  0  0  0  0  0  0  0
  -26.6460  -28.0560   24.4670 O   0  0  0  0  0  0  0  0  0  0  0  0
  -24.4160  -29.2480   22.5960 H   0  0  0  0  0  0  0  0  0  0  0  0
  -21.7920  -26.8430   22.2920 C   0  0  0  0  0  0  0  0  0  0  0  0
  -24.0840  -27.3200   23.3920 C   0  0  0  0  0  3  0  0  0  0  0  0
  -24.6290  -26.1720   22.5100 C   0  0  0  0  0  2  0  0  0  0  0  0
  -23.9140  -26.0560   21.1610 C   0  0  0  0  0  2  0  0  0  0  0  0
  -22.4150  -25.8120   21.3670 C   0  0  0  0  0  2  0  0  0  0  0  0
  -22.5790  -27.5630   23.2310 C   0  0  0  0  0  0  0  0  0  0  0  0
  -21.9560  -28.5350   24.0430 C   0  0  0  0  0  3  0  0  0  0  0  0
  -20.5760  -28.7900   23.9330 C   0  0  0  0  0  3  0  0  0  0  0  0
  -19.7990  -28.0630   23.0150 C   0  0  0  0  0  3  0  0  0  0  0  0
  -20.4070  -27.0910   22.2000 C   0  0  0  0  0  3  0  0  0  0  0  0
  -28.6040  -31.3690   26.5430 C   0  0  0  0  0  3  0  0  0  0  0  0
  -28.2270  -32.6810   27.0870 N   0  0  0  0  0  0  0  0  0  0  0  0
  -28.7630  -33.8470   26.7010 C   0  0  0  0  0  0  0  0  0  0  0  0
  -29.6890  -33.9220   25.8900 O   0  0  0  0  0  0  0  0  0  0  0  0
  -27.4390  -32.6990   27.7170 H   0  0  0  0  0  0  0  0  0  0  0  0
  -27.2490  -35.8100   26.2890 C   0  0  0  0  0  1  0  0  0  0  0  0
  -28.1750  -35.1330   27.3120 C   0  0  0  0  0  3  0  0  0  0  0  0
  -29.9600  -35.6220   28.9210 C   0  0  0  0  0  1  0  0  0  0  0  0
  -29.2060  -36.0910   27.7620 N   0  0  0  0  0  0  0  0  0  0  0  0
  -28.7880  -36.9860   28.0000 H   0  0  0  0  0  0  0  0  0  0  0  0
  -28.8330  -30.3270   27.7060 C   0  0  1  0  0  0  0  0  0  0  0  0
  -27.5280  -29.8750   28.4010 C   0  0  0  0  0  1  0  0  0  0  0  0
  -29.5460  -29.0630   27.1710 C   0  0  0  0  0  1  0  0  0  0  0  0
  -29.7650  -30.9370   28.7790 C   0  0  0  0  0  1  0  0  0  0  0  0
  -32.0660  -17.2310   21.7660 C   0  0  0  0  0  2  0  0  0  0  0  0
  -32.5190  -17.4650   20.3220 C   0  0  0  0  0  2  0  0  0  0  0  0
  -33.9280  -17.3300   20.4100 O   0  0  0  0  0  0  0  0  0  0  0  0
  -34.6210  -17.3920   19.1840 C   0  0  0  0  0  2  0  0  0  0  0  0
  -36.0020  -16.7540   19.4080 C   0  0  0  0  0  2  0  0  0  0  0  0
  -37.2330  -17.6910   19.2960 C   0  0  0  0  0  2  0  0  0  0  0  0
  -37.1820  -19.0630   20.0250 C   0  0  0  0  0  2  0  0  0  0  0  0
  -36.1650  -20.1170   19.5300 C   0  0  0  0  0  2  0  0  0  0  0  0
  -34.8230  -19.5310   17.4920 C   0  0  0  0  0  0  0  0  0  0  0  0
  -34.2560  -17.8760   15.7580 C   0  0  0  0  0  2  0  0  0  0  0  0
  -33.0010  -18.1590   14.9210 C   0  0  0  0  0  2  0  0  0  0  0  0
  -31.7470  -17.6240   15.6330 C   0  0  0  0  0  2  0  0  0  0  0  0
  -31.6560  -18.1170   17.0990 C   0  0  0  0  0  3  0  0  0  0  0  0
  -32.9790  -17.8630   17.8510 C   0  0  0  0  0  2  0  0  0  0  0  0
  -34.0910  -18.4670   17.0910 N   0  0  0  0  0  0  0  0  0  0  0  0
  -35.4320  -20.2820   16.7240 O   0  0  0  0  0  0  0  0  0  0  0  0
  -35.0470  -19.5130   18.8120 N   0  0  0  0  0  0  0  0  0  0  0  0
  -34.5120  -18.8340   19.3290 H   0  0  0  0  0  0  0  0  0  0  0  0
  -29.3670  -18.1040   18.2820 C   0  0  0  0  0  0  0  0  0  0  0  0
  -28.5990  -17.0840   18.7740 C   0  0  0  0  0  0  0  0  0  0  0  0
  -29.3430  -15.8870   18.5470 C   0  0  0  0  0  0  0  0  0  0  0  0
  -30.5210  -17.5120   17.7930 N   0  0  0  0  0  0  0  0  0  0  0  0
  -30.5220  -16.1710   18.0080 N   0  0  0  0  0  0  0  0  0  0  0  0
  -28.9800  -14.4800   18.7630 C   0  0  0  0  0  0  0  0  0  0  0  0
  -29.3360  -13.8020   19.9510 C   0  0  0  0  0  3  0  0  0  0  0  0
  -28.9640  -12.4550   20.1450 C   0  0  0  0  0  3  0  0  0  0  0  0
  -28.2240  -11.7720   19.1500 C   0  0  0  0  0  0  0  0  0  0  0  0
  -27.8910  -12.4450   17.9620 C   0  0  0  0  0  3  0  0  0  0  0  0
  -28.2660  -13.7860   17.7670 C   0  0  0  0  0  3  0  0  0  0  0  0
  -27.8420  -10.4570   19.2400 O   0  0  0  0  0  0  0  0  0  0  0  0
  -27.2320   -9.9580   20.3640 C   0  0  0  0  0  0  0  0  0  0  0  0
  -25.9840  -10.4410   20.8100 C   0  0  0  0  0  3  0  0  0  0  0  0
  -25.3610   -9.8540   21.9300 C   0  0  0  0  0  3  0  0  0  0  0  0
  -25.9780   -8.7800   22.5960 C   0  0  0  0  0  0  0  0  0  0  0  0
  -27.2200   -8.2930   22.1490 C   0  0  0  0  0  3  0  0  0  0  0  0
  -27.8430   -8.8800   21.0350 C   0  0  0  0  0  0  0  0  0  0  0  0
  -29.0290   -8.3940   20.5950 F   0  0  0  0  0  0  0  0  0  0  0  0
  -25.3770   -8.2100   23.6670 F   0  0  0  0  0  0  0  0  0  0  0  0
  -27.2090  -17.1970   19.3320 C   0  0  0  0  0  0  0  0  0  0  0  0
  -26.8670  -16.3550   20.2990 N   0  0  0  0  0  0  0  0  0  0  0  0
  -26.4330  -18.0690   18.9430 O   0  0  0  0  0  0  0  0  0  0  0  0
  -27.5100  -15.6530   20.6350 H   0  0  0  0  0  0  0  0  0  0  0  0
  -25.9450  -16.4080   20.7090 H   0  0  0  0  0  0  0  0  0  0  0  0
  -29.1770  -19.4810   18.1940 N   0  0  0  0  0  0  0  0  0  0  0  0
  -28.3060  -19.9230   18.4640 H   0  0  0  0  0  0  0  0  0  0  0  0
  -29.8150  -20.1120   17.7230 H   0  0  0  0  0  0  0  0  0  0  0  0
  1  4  1  0
  1  2  1  0
  3  1  1  0
  5  4  1  0
  6  5  1  0
  7  6  1  0
  8  9  1  0
  8  7  1  0
 10  9  1  0
 10 11  1  0
 11 13  1  0
 12 23  2  0
 13 18  1  0
 14 24  1  0
 14 22  1  0
 15 21  1  0
 15 17  1  0
 16 22  1  0
 17 16  1  0
 18 17  2  0
 19 20  1  0
 19 13  2  0
 20 15  2  0
 21 14  1  0
 22 12  1  0
 24 26  2  0
 25 24  1  0
 27 25  1  0
 28 33  1  0
 29 25  1  0
 30 29  1  0
 31 32  1  0
 31 30  1  0
 32 28  1  0
 33 29  1  0
 33 34  2  0
 35 34  1  0
 36 35  2  0
 37 28  2  0
 37 36  1  0
 38 12  1  0
 38 39  1  0
 38 48  1  0
 39 42  1  0
 40 39  1  0
 40 44  1  0
 41 40  2  0
 44 43  1  0
 44 46  1  0
 46 47  1  0
 46 45  1  0
 48 49  1  1
 48 51  1  0
 50 48  1  0
 52  1  1  0
 53 54  1  0
 53 52  1  0
 55 56  1  0
 55 54  1  0
 57 56  1  0
 57 58  1  0
 59 58  1  0
 60 68  1  0
 61 66  1  0
 62 63  1  0
 62 61  1  0
 64 63  1  0
 64 73  1  0
 64 65  1  0
 66 60  1  0
 66 65  1  0
 67 60  2  0
 68 69  1  0
 68 59  1  0
 70 71  2  0
 71 90  1  0
 72 75  1  0
 72 71  1  0
 73 74  1  0
 73 70  1  0
 74 72  2  0
 75 76  1  0
 76 77  2  0
 78 81  1  0
 78 77  1  0
 79 78  2  0
 80 79  1  0
 80 75  2  0
 81 82  1  0
 82 83  2  0
 82 87  1  0
 83 84  1  0
 84 85  2  0
 85 89  1  0
 86 85  1  0
 87 86  2  0
 88 87  1  0
 90 91  1  0
 91 93  1  0
 91 94  1  0
 92 90  2  0
 95 70  1  0
 95 96  1  0
 97 95  1  0
M  ISO  4  10 101  11 101  60 100  68 100
M  END
>  <TORSDO>  (58) 
F 31

>  <SCORE>  (58) 
-0.820

>  <name>  (58) 
62

>  <ligand_id>  (58) 
62

>  <original_smiles>  (58) 
[H]c1c([H])c([H])c2c(c1[H])C([H])([H])C([H])([H])C([H])([H])C2([H])N([H])C(=O)C1([H])N(C(=O)C([H])(N([H])C(=O)C([H])(N([H])C([H])([H])[H])C([H])([H])[H])C(C([H])([H])[H])(C([H])([H])[H])C([H])([H])[H])C([H])([H])c2c([H])c(OC([H])([H])C([H])([H])C([H])([H])C([H])([H])OC([H])([H])C([H])([H])[N+]([H])([H])C([H])([H])C([H])([H])OC([H])([H])C([H])([H])C([H])([H])C([H])([H])C([H])([H])N([H])C(=O)N3C([H])([H])C([H])([H])C([H])([H])C([H])(n4nc(-c5c([H])c([H])c(Oc6c([H])c([H])c(F)c([H])c6F)c([H])c5[H])c(C(=O)N([H])[H])c4N([H])[H])C3([H])[H])c([H])c([H])c2C1([H])[H]

>  <smiles>  (58) 
[H]c1c([H])c([H])c2c(c1[H])C([H])([H])C([H])([H])C([H])([H])C2([H])N([H])C(=O)C1([H])N(C(=O)C([H])(N([H])C(=O)C([H])(N([H])C([H])([H])[H])C([H])([H])[H])C(C([H])([H])[H])(C([H])([H])[H])C([H])([H])[H])C([H])([H])c2c([H])c(OC([H])([H])C([H])([H])C([H])([H])C([H])([H])OC([H])([H])C([H])([H])[N+]([H])([H])C([H])([H])C([H])([H])OC([H])([H])C([H])([H])C([H])([H])C([H])([H])C([H])([H])N([H])C(=O)N3C([H])([H])C([H])([H])C([H])([H])C([H])(n4nc(-c5c([H])c([H])c(Oc6c([H])c([H])c(F)c([H])c6F)c([H])c5[H])c(C(=O)N([H])[H])c4N([H])[H])C3([H])[H])c([H])c([H])c2C1([H])[H]

$$$$
63:0:0
     RDKit          3D

101108  0  0  1  0  0  0  0  0999 V2000
  -34.4530  -23.3940   20.4310 C   0  0  0  0  0  2  0  0  0  0  0  0
  -35.1530  -22.8190   21.6710 C   0  0  0  0  0  2  0  0  0  0  0  0
  -35.5710  -21.4950   21.3430 O   0  0  0  0  0  0  0  0  0  0  0  0
  -36.1990  -20.8020   22.4160 C   0  0  0  0  0  2  0  0  0  0  0  0
  -36.5020  -19.3580   21.9860 C   0  0  0  0  0  2  0  0  0  0  0  0
  -37.0850  -18.5190   23.1410 C   0  0  0  0  0  2  0  0  0  0  0  0
  -37.3640  -17.1780   22.7530 O   0  0  0  0  0  0  0  0  0  0  0  0
  -38.6670  -17.0230   22.1970 C   0  0  0  0  0  2  0  0  0  0  0  0
  -39.0140  -15.5460   21.9870 C   0  0  0  0  0  2  0  0  0  0  0  0
  -38.4320  -15.0580   20.7820 O   0  0  0  0  0  0  0  0  0  0  0  0
  -37.2620  -14.2650   20.9390 C   0  0  0  0  0  2  0  0  0  0  0  0
  -36.0940  -14.8620   20.1460 C   0  0  0  0  0  2  0  0  0  0  0  0
  -35.1790  -13.7800   19.5490 C   0  0  0  0  0  2  0  0  0  0  0  0
  -32.9010  -13.9410   20.4720 C   0  0  0  0  0  0  0  0  0  0  0  0
  -31.9760  -11.7840   19.9780 C   0  0  0  0  0  2  0  0  0  0  0  0
  -31.2210  -11.9080   18.6570 C   0  0  0  0  0  2  0  0  0  0  0  0
  -29.7360  -11.9940   19.0030 C   0  0  0  0  0  2  0  0  0  0  0  0
  -29.4310  -13.1450   19.9980 C   0  0  0  0  0  3  0  0  0  0  0  0
  -30.4860  -13.2850   21.1500 C   0  0  0  0  0  2  0  0  0  0  0  0
  -31.8790  -13.0690   20.6810 N   0  0  0  0  0  0  0  0  0  0  0  0
  -32.8570  -15.1180   20.1940 O   0  0  0  0  0  0  0  0  0  0  0  0
  -34.1100  -13.3570   20.4540 N   0  0  0  0  0  0  0  0  0  0  0  0
  -34.1120  -12.3830   20.7290 H   0  0  0  0  0  0  0  0  0  0  0  0
  -27.1030  -14.0090   20.7230 C   0  0  0  0  0  0  0  0  0  0  0  0
  -25.9360  -13.3600   21.0360 C   0  0  0  0  0  0  0  0  0  0  0  0
  -26.2200  -11.9640   20.9400 C   0  0  0  0  0  0  0  0  0  0  0  0
  -28.0440  -13.0180   20.4760 N   0  0  0  0  0  0  0  0  0  0  0  0
  -27.5070  -11.7810   20.6610 N   0  0  0  0  0  0  0  0  0  0  0  0
  -25.3250  -10.8000   21.0470 C   0  0  0  0  0  0  0  0  0  0  0  0
  -25.5670   -9.7700   21.9820 C   0  0  0  0  0  3  0  0  0  0  0  0
  -24.6870   -8.6710   22.0840 C   0  0  0  0  0  3  0  0  0  0  0  0
  -23.5460   -8.5920   21.2510 C   0  0  0  0  0  0  0  0  0  0  0  0
  -23.3180   -9.6100   20.3050 C   0  0  0  0  0  3  0  0  0  0  0  0
  -24.1990  -10.7010   20.2030 C   0  0  0  0  0  3  0  0  0  0  0  0
  -22.6510   -7.5480   21.2630 O   0  0  0  0  0  0  0  0  0  0  0  0
  -22.3030   -6.9110   22.4270 C   0  0  0  0  0  0  0  0  0  0  0  0
  -21.7860   -7.6160   23.5370 C   0  0  0  0  0  3  0  0  0  0  0  0
  -21.3780   -6.9130   24.6900 C   0  0  0  0  0  3  0  0  0  0  0  0
  -21.4770   -5.5100   24.7290 C   0  0  0  0  0  0  0  0  0  0  0  0
  -21.9820   -4.8060   23.6230 C   0  0  0  0  0  3  0  0  0  0  0  0
  -22.3920   -5.5060   22.4750 C   0  0  0  0  0  0  0  0  0  0  0  0
  -22.8600   -4.8220   21.4020 F   0  0  0  0  0  0  0  0  0  0  0  0
  -21.0770   -4.8320   25.8310 F   0  0  0  0  0  0  0  0  0  0  0  0
  -24.6060  -13.9990   21.3130 C   0  0  0  0  0  0  0  0  0  0  0  0
  -23.7820  -13.3700   22.1450 N   0  0  0  0  0  0  0  0  0  0  0  0
  -24.3050  -15.0890   20.8260 O   0  0  0  0  0  0  0  0  0  0  0  0
  -24.0340  -12.4840   22.5630 H   0  0  0  0  0  0  0  0  0  0  0  0
  -22.8900  -13.7810   22.3770 H   0  0  0  0  0  0  0  0  0  0  0  0
  -27.4370  -15.3550   20.6160 N   0  0  0  0  0  0  0  0  0  0  0  0
  -26.7510  -16.0890   20.7520 H   0  0  0  0  0  0  0  0  0  0  0  0
  -28.3570  -15.7060   20.3720 H   0  0  0  0  0  0  0  0  0  0  0  0
  -33.9250  -24.8350   20.5740 C   0  0  0  0  0  2  0  0  0  0  0  0
  -33.2660  -25.2600   19.3200 N   0  0  0  0  0  4  0  0  0  0  0  0
  -32.4720  -24.6560   19.1760 H   0  0  0  0  0  0  0  0  0  0  0  0
  -33.9070  -25.1020   18.5570 H   0  0  0  0  0  0  0  0  0  0  0  0
  -32.8150  -26.6710   19.2770 C   0  0  0  0  0  2  0  0  0  0  0  0
  -31.9650  -26.9700   18.0240 C   0  0  0  0  0  2  0  0  0  0  0  0
  -30.5650  -26.9290   18.3010 O   0  0  0  0  0  0  0  0  0  0  0  0
  -30.0150  -25.6300   18.5000 C   0  0  0  0  0  2  0  0  0  0  0  0
  -28.5090  -25.7460   18.7510 C   0  0  0  0  0  2  0  0  0  0  0  0
  -28.2960  -26.4290   19.9840 O   0  0  0  0  0  0  0  0  0  0  0  0
  -24.7470  -31.7150   23.1690 C   0  0  0  0  0  0  0  0  0  0  0  0
  -27.1270  -27.1460   20.0640 C   0  0  0  0  0  0  0  0  0  0  0  0
  -23.4430  -30.3430   21.5780 C   0  0  0  0  0  3  0  0  0  0  0  0
  -24.7890  -28.7210   20.1510 C   0  0  0  0  0  0  0  0  0  0  0  0
  -25.9750  -30.5930   21.3130 C   0  0  0  0  0  2  0  0  0  0  0  0
  -25.9800  -29.2080   20.7030 C   0  0  0  0  0  0  0  0  0  0  0  0
  -27.1520  -28.4210   20.6670 C   0  0  0  0  0  3  0  0  0  0  0  0
  -25.9120  -26.6550   19.5370 C   0  0  0  0  0  3  0  0  0  0  0  0
  -24.7440  -27.4400   19.5760 C   0  0  0  0  0  3  0  0  0  0  0  0
  -23.5880  -29.6360   20.2060 C   0  0  0  0  0  2  0  0  0  0  0  0
  -24.7420  -30.9020   22.0760 N   0  0  0  0  0  0  0  0  0  0  0  0
  -23.6920  -32.0380   23.7330 O   0  0  0  0  0  0  0  0  0  0  0  0
  -22.7760  -29.3630   22.5690 C   0  0  0  0  0  0  0  0  0  0  0  0
  -21.4480  -29.2030   22.4500 N   0  0  0  0  0  0  0  0  0  0  0  0
  -23.4500  -28.7500   23.4010 O   0  0  0  0  0  0  0  0  0  0  0  0
  -20.9680  -29.7540   21.7520 H   0  0  0  0  0  0  0  0  0  0  0  0
  -18.0580  -28.0620   22.9530 C   0  0  0  0  0  0  0  0  0  0  0  0
  -20.6130  -28.3060   23.2490 C   0  0  0  0  0  3  0  0  0  0  0  0
  -20.7080  -26.8500   22.7370 C   0  0  0  0  0  2  0  0  0  0  0  0
  -19.6170  -26.4950   21.7220 C   0  0  0  0  0  2  0  0  0  0  0  0
  -18.2280  -26.6810   22.3400 C   0  0  0  0  0  2  0  0  0  0  0  0
  -19.1780  -28.8280   23.3680 C   0  0  0  0  0  0  0  0  0  0  0  0
  -18.9660  -30.1180   23.9020 C   0  0  0  0  0  3  0  0  0  0  0  0
  -17.6640  -30.6400   24.0230 C   0  0  0  0  0  3  0  0  0  0  0  0
  -16.5580  -29.8710   23.6280 C   0  0  0  0  0  3  0  0  0  0  0  0
  -16.7550  -28.5820   23.0980 C   0  0  0  0  0  3  0  0  0  0  0  0
  -26.0730  -32.3000   23.7510 C   0  0  0  0  0  3  0  0  0  0  0  0
  -25.8150  -33.7010   24.1070 N   0  0  0  0  0  0  0  0  0  0  0  0
  -26.1630  -34.7530   23.3520 C   0  0  0  0  0  0  0  0  0  0  0  0
  -26.8080  -34.6430   22.3070 O   0  0  0  0  0  0  0  0  0  0  0  0
  -25.2390  -33.8620   24.9190 H   0  0  0  0  0  0  0  0  0  0  0  0
  -24.4880  -36.6060   23.0600 C   0  0  0  0  0  1  0  0  0  0  0  0
  -25.7300  -36.1480   23.8390 C   0  0  0  0  0  3  0  0  0  0  0  0
  -27.9130  -36.9460   24.6310 C   0  0  0  0  0  1  0  0  0  0  0  0
  -26.7950  -37.1680   23.7190 N   0  0  0  0  0  0  0  0  0  0  0  0
  -26.4240  -38.0980   23.8930 H   0  0  0  0  0  0  0  0  0  0  0  0
  -26.6170  -31.4950   24.9970 C   0  0  1  0  0  0  0  0  0  0  0  0
  -25.5650  -31.2710   26.1080 C   0  0  0  0  0  1  0  0  0  0  0  0
  -27.1430  -30.1070   24.5600 C   0  0  0  0  0  1  0  0  0  0  0  0
  -27.8130  -32.2480   25.6230 C   0  0  0  0  0  1  0  0  0  0  0  0
  1 52  1  0
  1  2  1  0
  3  2  1  0
  3  4  1  0
  5  4  1  0
  5  6  1  0
  7  6  1  0
  8  7  1  0
  9  8  1  0
 10 11  1  0
 10  9  1  0
 12 11  1  0
 13 12  1  0
 13 22  1  0
 14 20  1  0
 15 20  1  0
 16 17  1  0
 16 15  1  0
 18 17  1  0
 18 27  1  0
 18 19  1  0
 20 19  1  0
 21 14  2  0
 22 14  1  0
 22 23  1  0
 24 25  2  0
 25 44  1  0
 26 25  1  0
 26 29  1  0
 27 28  1  0
 27 24  1  0
 28 26  2  0
 29 30  1  0
 30 31  2  0
 32 35  1  0
 32 31  1  0
 33 32  2  0
 34 33  1  0
 34 29  2  0
 35 36  1  0
 36 41  2  0
 36 37  1  0
 37 38  2  0
 38 39  1  0
 39 43  1  0
 40 39  2  0
 41 40  1  0
 42 41  1  0
 44 45  1  0
 45 48  1  0
 45 47  1  0
 46 44  2  0
 49 24  1  0
 49 50  1  0
 51 49  1  0
 53 52  1  0
 54 53  1  0
 55 53  1  0
 56 53  1  0
 57 58  1  0
 57 56  1  0
 58 59  1  0
 59 60  1  0
 60 61  1  0
 61 63  1  0
 62 73  2  0
 63 68  1  0
 64 72  1  0
 64 74  1  0
 65 71  1  0
 65 67  1  0
 66 72  1  0
 67 66  1  0
 68 67  2  0
 69 70  1  0
 69 63  2  0
 70 65  2  0
 71 64  1  0
 72 62  1  0
 74 76  2  0
 75 74  1  0
 77 75  1  0
 78 87  2  0
 78 83  1  0
 79 75  1  0
 79 83  1  0
 80 79  1  0
 81 82  1  0
 81 80  1  0
 82 78  1  0
 83 84  2  0
 84 85  1  0
 86 85  2  0
 87 86  1  0
 88 62  1  0
 88 89  1  0
 88 98  1  0
 89 92  1  0
 90 94  1  0
 90 89  1  0
 91 90  2  0
 94 93  1  0
 96 94  1  0
 96 97  1  0
 96 95  1  0
 98101  1  1
 98 99  1  0
100 98  1  0
M  ISO  4  14 100  22 100  60 101  61 101
M  END
>  <TORSDO>  (59) 
F 35

>  <SCORE>  (59) 
-7.335

>  <name>  (59) 
63

>  <ligand_id>  (59) 
63

>  <original_smiles>  (59) 
[H]c1c([H])c([H])c2c(c1[H])C([H])([H])C([H])([H])C([H])([H])C2([H])N([H])C(=O)C1([H])N(C(=O)C([H])(N([H])C(=O)C([H])(N([H])C([H])([H])[H])C([H])([H])[H])C(C([H])([H])[H])(C([H])([H])[H])C([H])([H])[H])C([H])([H])c2c([H])c(OC([H])([H])C([H])([H])OC([H])([H])C([H])([H])[N+]([H])([H])C([H])([H])C([H])([H])C([H])([H])OC([H])([H])C([H])([H])C([H])([H])OC([H])([H])C([H])([H])OC([H])([H])C([H])([H])C([H])([H])N([H])C(=O)N3C([H])([H])C([H])([H])C([H])([H])C([H])(n4nc(-c5c([H])c([H])c(Oc6c([H])c([H])c(F)c([H])c6F)c([H])c5[H])c(C(=O)N([H])[H])c4N([H])[H])C3([H])[H])c([H])c([H])c2C1([H])[H]

>  <smiles>  (59) 
[H]c1c([H])c([H])c2c(c1[H])C([H])([H])C([H])([H])C([H])([H])C2([H])N([H])C(=O)C1([H])N(C(=O)C([H])(N([H])C(=O)C([H])(N([H])C([H])([H])[H])C([H])([H])[H])C(C([H])([H])[H])(C([H])([H])[H])C([H])([H])[H])C([H])([H])c2c([H])c(OC([H])([H])C([H])([H])OC([H])([H])C([H])([H])[N+]([H])([H])C([H])([H])C([H])([H])C([H])([H])OC([H])([H])C([H])([H])C([H])([H])OC([H])([H])C([H])([H])OC([H])([H])C([H])([H])C([H])([H])N([H])C(=O)N3C([H])([H])C([H])([H])C([H])([H])C([H])(n4nc(-c5c([H])c([H])c(Oc6c([H])c([H])c(F)c([H])c6F)c([H])c5[H])c(C(=O)N([H])[H])c4N([H])[H])C3([H])[H])c([H])c([H])c2C1([H])[H]

$$$$
64:0:0
     RDKit          3D

107114  0  0  1  0  0  0  0  0999 V2000
  -30.5930  -26.6070   16.4890 C   0  0  0  0  0  2  0  0  0  0  0  0
  -29.1150  -26.6160   16.0620 C   0  0  0  0  0  2  0  0  0  0  0  0
  -28.6520  -25.2760   15.6380 N   0  0  0  0  0  4  0  0  0  0  0  0
  -28.8830  -24.6020   16.3520 H   0  0  0  0  0  0  0  0  0  0  0  0
  -29.1360  -25.0050   14.7950 H   0  0  0  0  0  0  0  0  0  0  0  0
  -27.1920  -25.1870   15.4180 C   0  0  0  0  0  2  0  0  0  0  0  0
  -26.7390  -23.7340   15.2330 C   0  0  0  0  0  2  0  0  0  0  0  0
  -26.9840  -23.0290   16.4480 O   0  0  0  0  0  0  0  0  0  0  0  0
  -26.3000  -21.7820   16.4860 C   0  0  0  0  0  2  0  0  0  0  0  0
  -26.4910  -21.1030   17.8490 C   0  0  0  0  0  2  0  0  0  0  0  0
  -27.8600  -20.4280   18.0350 C   0  0  0  0  0  2  0  0  0  0  0  0
  -27.9470  -19.6840   19.3760 C   0  0  0  0  0  2  0  0  0  0  0  0
  -29.2000  -19.0260   19.4920 O   0  0  0  0  0  0  0  0  0  0  0  0
  -29.2440  -18.1380   20.6050 C   0  0  0  0  0  2  0  0  0  0  0  0
  -30.6780  -17.6240   20.7850 C   0  0  0  0  0  2  0  0  0  0  0  0
  -30.8320  -16.5450   21.8810 C   0  0  0  0  0  2  0  0  0  0  0  0
  -30.7610  -14.3820   20.6480 C   0  0  0  0  0  0  0  0  0  0  0  0
  -30.4140  -12.2840   19.4030 C   0  0  0  0  0  2  0  0  0  0  0  0
  -29.4850  -12.5190   18.1960 C   0  0  0  0  0  2  0  0  0  0  0  0
  -28.0090  -12.3790   18.6120 C   0  0  0  0  0  2  0  0  0  0  0  0
  -27.6660  -13.2050   19.8800 C   0  0  0  0  0  3  0  0  0  0  0  0
  -28.7050  -12.9570   20.9970 C   0  0  0  0  0  2  0  0  0  0  0  0
  -30.0460  -13.2440   20.4540 N   0  0  0  0  0  0  0  0  0  0  0  0
  -31.8170  -14.6270   20.0580 O   0  0  0  0  0  0  0  0  0  0  0  0
  -30.2360  -15.2570   21.5170 N   0  0  0  0  0  0  0  0  0  0  0  0
  -29.3830  -14.9840   21.9830 H   0  0  0  0  0  0  0  0  0  0  0  0
  -25.2600  -13.8160   20.5670 C   0  0  0  0  0  0  0  0  0  0  0  0
  -24.1840  -13.0440   20.9160 C   0  0  0  0  0  0  0  0  0  0  0  0
  -24.6400  -11.6910   20.8730 C   0  0  0  0  0  0  0  0  0  0  0  0
  -26.3040  -12.9330   20.3390 N   0  0  0  0  0  0  0  0  0  0  0  0
  -25.9320  -11.6490   20.5760 N   0  0  0  0  0  0  0  0  0  0  0  0
  -23.9060  -10.4300   21.0400 C   0  0  0  0  0  0  0  0  0  0  0  0
  -24.3610   -9.4210   21.9180 C   0  0  0  0  0  3  0  0  0  0  0  0
  -23.6290   -8.2250   22.0750 C   0  0  0  0  0  3  0  0  0  0  0  0
  -22.4270   -8.0280   21.3550 C   0  0  0  0  0  0  0  0  0  0  0  0
  -21.9910   -9.0250   20.4650 C   0  0  0  0  0  3  0  0  0  0  0  0
  -22.7230  -10.2130   20.3050 C   0  0  0  0  0  3  0  0  0  0  0  0
  -21.6640   -6.8880   21.4240 O   0  0  0  0  0  0  0  0  0  0  0  0
  -21.6850   -6.0740   22.5270 C   0  0  0  0  0  0  0  0  0  0  0  0
  -21.4010   -6.5640   23.8210 C   0  0  0  0  0  3  0  0  0  0  0  0
  -21.3660   -5.6790   24.9180 C   0  0  0  0  0  3  0  0  0  0  0  0
  -21.6050   -4.3060   24.7230 C   0  0  0  0  0  0  0  0  0  0  0  0
  -21.8820   -3.8140   23.4350 C   0  0  0  0  0  3  0  0  0  0  0  0
  -21.9190   -4.6960   22.3400 C   0  0  0  0  0  0  0  0  0  0  0  0
  -22.1660   -4.2150   21.0980 F   0  0  0  0  0  0  0  0  0  0  0  0
  -21.5630   -3.4540   25.7740 F   0  0  0  0  0  0  0  0  0  0  0  0
  -22.7870  -13.5240   21.1830 C   0  0  0  0  0  0  0  0  0  0  0  0
  -22.0510  -12.8230   22.0390 N   0  0  0  0  0  0  0  0  0  0  0  0
  -22.3560  -14.5550   20.6690 O   0  0  0  0  0  0  0  0  0  0  0  0
  -22.4120  -11.9890   22.4770 H   0  0  0  0  0  0  0  0  0  0  0  0
  -21.1130  -13.1260   22.2610 H   0  0  0  0  0  0  0  0  0  0  0  0
  -25.4330  -15.1880   20.4090 N   0  0  0  0  0  0  0  0  0  0  0  0
  -24.6690  -15.8460   20.5150 H   0  0  0  0  0  0  0  0  0  0  0  0
  -26.2920  -15.6230   20.0960 H   0  0  0  0  0  0  0  0  0  0  0  0
  -31.0340  -27.9310   17.1400 C   0  0  0  0  0  2  0  0  0  0  0  0
  -32.3030  -27.7830   17.9870 C   0  0  0  0  0  2  0  0  0  0  0  0
  -33.4070  -27.4210   17.1670 O   0  0  0  0  0  0  0  0  0  0  0  0
  -34.5110  -26.9230   17.9200 C   0  0  0  0  0  2  0  0  0  0  0  0
  -34.5280  -25.3860   17.8890 C   0  0  0  0  0  2  0  0  0  0  0  0
  -33.3520  -24.8600   18.4910 O   0  0  0  0  0  0  0  0  0  0  0  0
  -33.3360  -23.4380   18.5370 C   0  0  0  0  0  2  0  0  0  0  0  0
  -31.8980  -22.9610   18.7770 C   0  0  0  0  0  2  0  0  0  0  0  0
  -31.5200  -23.1640   20.1370 O   0  0  0  0  0  0  0  0  0  0  0  0
  -30.1310  -23.4340   20.2990 C   0  0  0  0  0  2  0  0  0  0  0  0
  -29.9160  -24.9510   20.2160 C   0  0  0  0  0  2  0  0  0  0  0  0
  -28.4510  -25.3760   20.0470 C   0  0  0  0  0  2  0  0  0  0  0  0
  -28.4470  -26.7980   20.0790 O   0  0  0  0  0  0  0  0  0  0  0  0
  -24.6120  -31.8690   23.2090 C   0  0  0  0  0  0  0  0  0  0  0  0
  -27.2410  -27.4590   20.0910 C   0  0  0  0  0  0  0  0  0  0  0  0
  -23.3980  -30.4880   21.5530 C   0  0  0  0  0  3  0  0  0  0  0  0
  -24.8420  -28.9530   20.1170 C   0  0  0  0  0  0  0  0  0  0  0  0
  -25.9210  -30.8410   21.3560 C   0  0  0  0  0  2  0  0  0  0  0  0
  -25.9990  -29.4760   20.7070 C   0  0  0  0  0  0  0  0  0  0  0  0
  -27.1990  -28.7360   20.6880 C   0  0  0  0  0  3  0  0  0  0  0  0
  -26.0630  -26.9340   19.5090 C   0  0  0  0  0  3  0  0  0  0  0  0
  -24.8680  -27.6800   19.5180 C   0  0  0  0  0  3  0  0  0  0  0  0
  -23.6020  -29.8160   20.1680 C   0  0  0  0  0  2  0  0  0  0  0  0
  -24.6620  -31.0790   22.0990 N   0  0  0  0  0  0  0  0  0  0  0  0
  -23.5320  -32.1440   23.7500 O   0  0  0  0  0  0  0  0  0  0  0  0
  -22.7400  -29.4650   22.5050 C   0  0  0  0  0  0  0  0  0  0  0  0
  -21.4140  -29.3000   22.3760 N   0  0  0  0  0  0  0  0  0  0  0  0
  -23.4180  -28.8180   23.3070 O   0  0  0  0  0  0  0  0  0  0  0  0
  -20.9300  -29.8740   21.7000 H   0  0  0  0  0  0  0  0  0  0  0  0
  -18.0260  -28.1370   22.8470 C   0  0  0  0  0  0  0  0  0  0  0  0
  -20.5850  -28.3640   23.1340 C   0  0  0  0  0  3  0  0  0  0  0  0
  -20.6760  -26.9390   22.5430 C   0  0  0  0  0  2  0  0  0  0  0  0
  -19.5740  -26.6370   21.5210 C   0  0  0  0  0  2  0  0  0  0  0  0
  -18.1910  -26.7910   22.1610 C   0  0  0  0  0  2  0  0  0  0  0  0
  -19.1510  -28.8820   23.2880 C   0  0  0  0  0  0  0  0  0  0  0  0
  -18.9450  -30.1430   23.8880 C   0  0  0  0  0  3  0  0  0  0  0  0
  -17.6460  -30.6570   24.0560 C   0  0  0  0  0  3  0  0  0  0  0  0
  -16.5340  -29.9080   23.6310 C   0  0  0  0  0  3  0  0  0  0  0  0
  -16.7260  -28.6510   23.0300 C   0  0  0  0  0  3  0  0  0  0  0  0
  -25.9020  -32.4820   23.8390 C   0  0  0  0  0  3  0  0  0  0  0  0
  -26.4460  -31.6600   25.0720 C   0  0  1  0  0  0  0  0  0  0  0  0
  -25.3720  -31.3730   26.1470 C   0  0  0  0  0  1  0  0  0  0  0  0
  -27.0280  -30.3050   24.6080 C   0  0  0  0  0  1  0  0  0  0  0  0
  -27.6020  -32.4340   25.7490 C   0  0  0  0  0  1  0  0  0  0  0  0
  -25.5870  -33.8620   24.2310 N   0  0  0  0  0  0  0  0  0  0  0  0
  -25.9030  -34.9470   23.5120 C   0  0  0  0  0  0  0  0  0  0  0  0
  -26.5610  -34.8910   22.4690 O   0  0  0  0  0  0  0  0  0  0  0  0
  -24.9960  -33.9790   25.0400 H   0  0  0  0  0  0  0  0  0  0  0  0
  -24.1480  -36.7330   23.2640 C   0  0  0  0  0  1  0  0  0  0  0  0
  -25.4110  -36.3110   24.0320 C   0  0  0  0  0  3  0  0  0  0  0  0
  -27.5580  -37.1810   24.8450 C   0  0  0  0  0  1  0  0  0  0  0  0
  -26.4290  -37.3800   23.9400 N   0  0  0  0  0  0  0  0  0  0  0  0
  -26.0170  -38.2870   24.1400 H   0  0  0  0  0  0  0  0  0  0  0  0
  1 55  1  0
  2  1  1  0
  3  2  1  0
  3  4  1  0
  5  3  1  0
  6  3  1  0
  7  6  1  0
  7  8  1  0
  8  9  1  0
  9 10  1  0
 10 11  1  0
 11 12  1  0
 12 13  1  0
 13 14  1  0
 14 15  1  0
 15 16  1  0
 17 25  1  0
 18 23  1  0
 19 20  1  0
 19 18  1  0
 21 20  1  0
 21 30  1  0
 21 22  1  0
 23 17  1  0
 23 22  1  0
 24 17  2  0
 25 16  1  0
 25 26  1  0
 27 28  2  0
 28 47  1  0
 29 28  1  0
 29 32  1  0
 30 27  1  0
 30 31  1  0
 31 29  2  0
 32 33  1  0
 33 34  2  0
 35 38  1  0
 35 34  1  0
 36 35  2  0
 37 36  1  0
 37 32  2  0
 38 39  1  0
 39 40  1  0
 40 41  2  0
 42 41  1  0
 42 46  1  0
 43 42  2  0
 44 39  2  0
 44 43  1  0
 45 44  1  0
 47 48  1  0
 48 51  1  0
 48 50  1  0
 49 47  2  0
 52 53  1  0
 52 27  1  0
 54 52  1  0
 55 56  1  0
 57 58  1  0
 57 56  1  0
 59 58  1  0
 59 60  1  0
 60 61  1  0
 61 62  1  0
 62 63  1  0
 63 64  1  0
 65 64  1  0
 66 67  1  0
 66 65  1  0
 67 69  1  0
 68 79  2  0
 69 74  1  0
 70 78  1  0
 70 80  1  0
 71 77  1  0
 71 73  1  0
 72 78  1  0
 73 72  1  0
 74 73  2  0
 75 76  1  0
 75 69  2  0
 76 71  2  0
 77 70  1  0
 78 68  1  0
 80 82  2  0
 81 80  1  0
 83 81  1  0
 84 93  2  0
 84 89  1  0
 85 81  1  0
 85 89  1  0
 86 85  1  0
 87 88  1  0
 87 86  1  0
 88 84  1  0
 89 90  2  0
 90 91  1  0
 92 91  2  0
 93 92  1  0
 94 68  1  0
 94 99  1  0
 94 95  1  0
 95 98  1  1
 95 96  1  0
 97 95  1  0
 99102  1  0
100104  1  0
100 99  1  0
101100  2  0
104103  1  0
106104  1  0
106107  1  0
106105  1  0
M  ISO  4  17 100  25 100  66 101  67 101
M  END
>  <TORSDO>  (60) 
F 41

>  <SCORE>  (60) 
-5.934

>  <name>  (60) 
64

>  <ligand_id>  (60) 
64

>  <original_smiles>  (60) 
[H]c1c([H])c([H])c2c(c1[H])C([H])([H])C([H])([H])C([H])([H])C2([H])N([H])C(=O)C1([H])N(C(=O)C([H])(N([H])C(=O)C([H])(N([H])C([H])([H])[H])C([H])([H])[H])C(C([H])([H])[H])(C([H])([H])[H])C([H])([H])[H])C([H])([H])c2c([H])c(OC([H])([H])C([H])([H])C([H])([H])OC([H])([H])C([H])([H])OC([H])([H])C([H])([H])OC([H])([H])C([H])([H])C([H])([H])C([H])([H])[N+]([H])([H])C([H])([H])C([H])([H])OC([H])([H])C([H])([H])C([H])([H])C([H])([H])OC([H])([H])C([H])([H])C([H])([H])N([H])C(=O)N3C([H])([H])C([H])([H])C([H])([H])C([H])(n4nc(-c5c([H])c([H])c(Oc6c([H])c([H])c(F)c([H])c6F)c([H])c5[H])c(C(=O)N([H])[H])c4N([H])[H])C3([H])[H])c([H])c([H])c2C1([H])[H]

>  <smiles>  (60) 
[H]c1c([H])c([H])c2c(c1[H])C([H])([H])C([H])([H])C([H])([H])C2([H])N([H])C(=O)C1([H])N(C(=O)C([H])(N([H])C(=O)C([H])(N([H])C([H])([H])[H])C([H])([H])[H])C(C([H])([H])[H])(C([H])([H])[H])C([H])([H])[H])C([H])([H])c2c([H])c(OC([H])([H])C([H])([H])C([H])([H])OC([H])([H])C([H])([H])OC([H])([H])C([H])([H])OC([H])([H])C([H])([H])C([H])([H])C([H])([H])[N+]([H])([H])C([H])([H])C([H])([H])OC([H])([H])C([H])([H])C([H])([H])C([H])([H])OC([H])([H])C([H])([H])C([H])([H])N([H])C(=O)N3C([H])([H])C([H])([H])C([H])([H])C([H])(n4nc(-c5c([H])c([H])c(Oc6c([H])c([H])c(F)c([H])c6F)c([H])c5[H])c(C(=O)N([H])[H])c4N([H])[H])C3([H])[H])c([H])c([H])c2C1([H])[H]

$$$$
65:0:0
     RDKit          3D

100107  0  0  1  0  0  0  0  0999 V2000
  -32.3770  -28.2390   20.8990 C   0  0  0  0  0  2  0  0  0  0  0  0
  -32.9170  -25.9810   19.9730 C   0  0  0  0  0  0  0  0  0  0  0  0
  -32.7160  -26.8250   20.9870 N   0  0  0  0  0  0  0  0  0  0  0  0
  -32.8430  -26.3180   18.7910 O   0  0  0  0  0  0  0  0  0  0  0  0
  -32.8020  -26.4710   21.9300 H   0  0  0  0  0  0  0  0  0  0  0  0
  -33.2250  -24.5330   20.3530 C   0  0  0  0  0  2  0  0  0  0  0  0
  -32.0620  -23.7490   20.1200 O   0  0  0  0  0  0  0  0  0  0  0  0
  -32.1290  -22.4860   20.7600 C   0  0  0  0  0  2  0  0  0  0  0  0
  -31.0540  -21.5570   20.1840 C   0  0  0  0  0  2  0  0  0  0  0  0
  -31.2100  -20.2630   20.7530 O   0  0  0  0  0  0  0  0  0  0  0  0
  -30.3360  -19.3100   20.1700 C   0  0  0  0  0  2  0  0  0  0  0  0
  -30.6220  -17.9150   20.7500 C   0  0  0  0  0  2  0  0  0  0  0  0
  -29.7290  -16.8510   20.0890 C   0  0  0  0  0  2  0  0  0  0  0  0
  -30.5930  -14.5400   20.0960 C   0  0  0  0  0  0  0  0  0  0  0  0
  -30.2750  -12.4010   18.9400 C   0  0  0  0  0  2  0  0  0  0  0  0
  -29.2640  -12.6550   17.8000 C   0  0  0  0  0  2  0  0  0  0  0  0
  -27.8130  -12.4910   18.3030 C   0  0  0  0  0  2  0  0  0  0  0  0
  -27.5400  -13.2940   19.6040 C   0  0  0  0  0  3  0  0  0  0  0  0
  -28.6530  -13.0320   20.6490 C   0  0  0  0  0  2  0  0  0  0  0  0
  -29.9560  -13.3400   20.0260 N   0  0  0  0  0  0  0  0  0  0  0  0
  -31.6500  -14.7910   19.5150 O   0  0  0  0  0  0  0  0  0  0  0  0
  -29.8590  -15.5100   20.6580 N   0  0  0  0  0  0  0  0  0  0  0  0
  -29.0650  -15.1840   21.1900 H   0  0  0  0  0  0  0  0  0  0  0  0
  -25.1680  -13.8770   20.4290 C   0  0  0  0  0  0  0  0  0  0  0  0
  -24.1260  -13.0920   20.8540 C   0  0  0  0  0  0  0  0  0  0  0  0
  -24.6010  -11.7470   20.7940 C   0  0  0  0  0  0  0  0  0  0  0  0
  -26.2110  -13.0080   20.1420 N   0  0  0  0  0  0  0  0  0  0  0  0
  -25.8720  -11.7220   20.4150 N   0  0  0  0  0  0  0  0  0  0  0  0
  -23.9010  -10.4750   21.0230 C   0  0  0  0  0  0  0  0  0  0  0  0
  -24.3670   -9.5300   21.9620 C   0  0  0  0  0  3  0  0  0  0  0  0
  -23.6640   -8.3240   22.1770 C   0  0  0  0  0  3  0  0  0  0  0  0
  -22.4810   -8.0540   21.4480 C   0  0  0  0  0  0  0  0  0  0  0  0
  -22.0310   -8.9890   20.4990 C   0  0  0  0  0  3  0  0  0  0  0  0
  -22.7370  -10.1850   20.2820 C   0  0  0  0  0  3  0  0  0  0  0  0
  -21.7540   -6.8940   21.5650 O   0  0  0  0  0  0  0  0  0  0  0  0
  -21.7180   -6.1790   22.7360 C   0  0  0  0  0  0  0  0  0  0  0  0
  -21.2770   -6.7550   23.9470 C   0  0  0  0  0  3  0  0  0  0  0  0
  -21.1930   -5.9690   25.1130 C   0  0  0  0  0  3  0  0  0  0  0  0
  -21.5420   -4.6070   25.0700 C   0  0  0  0  0  0  0  0  0  0  0  0
  -21.9800   -4.0290   23.8640 C   0  0  0  0  0  3  0  0  0  0  0  0
  -22.0660   -4.8150   22.7010 C   0  0  0  0  0  0  0  0  0  0  0  0
  -22.4670   -4.2500   21.5360 F   0  0  0  0  0  0  0  0  0  0  0  0
  -21.4560   -3.8460   26.1860 F   0  0  0  0  0  0  0  0  0  0  0  0
  -22.7420  -13.5590   21.2030 C   0  0  0  0  0  0  0  0  0  0  0  0
  -22.0590  -12.8500   22.0970 N   0  0  0  0  0  0  0  0  0  0  0  0
  -22.2720  -14.5890   20.7220 O   0  0  0  0  0  0  0  0  0  0  0  0
  -22.4470  -12.0190   22.5160 H   0  0  0  0  0  0  0  0  0  0  0  0
  -21.1350  -13.1560   22.3740 H   0  0  0  0  0  0  0  0  0  0  0  0
  -25.3060  -15.2470   20.2480 N   0  0  0  0  0  0  0  0  0  0  0  0
  -24.5370  -15.8910   20.4050 H   0  0  0  0  0  0  0  0  0  0  0  0
  -26.1310  -15.6990   19.8680 H   0  0  0  0  0  0  0  0  0  0  0  0
  -31.6100  -28.6510   22.1730 C   0  0  0  0  0  2  0  0  0  0  0  0
  -31.9510  -27.7610   23.2370 O   0  0  0  0  0  0  0  0  0  0  0  0
  -31.1980  -27.9220   24.4370 C   0  0  0  0  0  2  0  0  0  0  0  0
  -29.7260  -27.4840   24.3010 C   0  0  0  0  0  2  0  0  0  0  0  0
  -29.5250  -26.0420   23.8030 C   0  0  0  0  0  2  0  0  0  0  0  0
  -28.7080  -26.0490   22.6390 O   0  0  0  0  0  0  0  0  0  0  0  0
  -29.1980  -25.2170   21.5910 C   0  0  0  0  0  2  0  0  0  0  0  0
  -28.2970  -25.3540   20.3620 C   0  0  0  0  0  2  0  0  0  0  0  0
  -28.3710  -26.7040   19.9170 O   0  0  0  0  0  0  0  0  0  0  0  0
  -24.5640  -31.7480   23.1450 C   0  0  0  0  0  0  0  0  0  0  0  0
  -27.1920  -27.4020   19.9560 C   0  0  0  0  0  0  0  0  0  0  0  0
  -23.3560  -30.3960   21.4650 C   0  0  0  0  0  3  0  0  0  0  0  0
  -24.8020  -28.8900   20.0070 C   0  0  0  0  0  0  0  0  0  0  0  0
  -25.8800  -30.7600   21.2790 C   0  0  0  0  0  2  0  0  0  0  0  0
  -25.9600  -29.4080   20.6010 C   0  0  0  0  0  0  0  0  0  0  0  0
  -27.1650  -28.6740   20.5630 C   0  0  0  0  0  3  0  0  0  0  0  0
  -26.0160  -26.8860   19.3630 C   0  0  0  0  0  3  0  0  0  0  0  0
  -24.8220  -27.6300   19.3830 C   0  0  0  0  0  3  0  0  0  0  0  0
  -23.5590  -29.7520   20.0680 C   0  0  0  0  0  2  0  0  0  0  0  0
  -24.6180  -30.9850   22.0180 N   0  0  0  0  0  0  0  0  0  0  0  0
  -23.4840  -32.0040   23.6920 O   0  0  0  0  0  0  0  0  0  0  0  0
  -22.6980  -29.3530   22.3960 C   0  0  0  0  0  0  0  0  0  0  0  0
  -21.3690  -29.2100   22.2830 N   0  0  0  0  0  0  0  0  0  0  0  0
  -23.3780  -28.6810   23.1760 O   0  0  0  0  0  0  0  0  0  0  0  0
  -20.8880  -29.8010   21.6200 H   0  0  0  0  0  0  0  0  0  0  0  0
  -17.9650  -28.1230   22.8120 C   0  0  0  0  0  0  0  0  0  0  0  0
  -20.5360  -28.2690   23.0250 C   0  0  0  0  0  3  0  0  0  0  0  0
  -20.5680  -26.8650   22.3760 C   0  0  0  0  0  2  0  0  0  0  0  0
  -19.4300  -26.6360   21.3770 C   0  0  0  0  0  2  0  0  0  0  0  0
  -18.0710  -26.8010   22.0670 C   0  0  0  0  0  2  0  0  0  0  0  0
  -19.1230  -28.8200   23.2450 C   0  0  0  0  0  0  0  0  0  0  0  0
  -18.9690  -30.0620   23.9020 C   0  0  0  0  0  3  0  0  0  0  0  0
  -17.6890  -30.6020   24.1250 C   0  0  0  0  0  3  0  0  0  0  0  0
  -16.5450  -29.8970   23.7120 C   0  0  0  0  0  3  0  0  0  0  0  0
  -16.6840  -28.6600   23.0600 C   0  0  0  0  0  3  0  0  0  0  0  0
  -25.8510  -32.3610   23.7790 C   0  0  0  0  0  3  0  0  0  0  0  0
  -25.5520  -33.7560   24.1190 N   0  0  0  0  0  0  0  0  0  0  0  0
  -25.9050  -34.8080   23.3680 C   0  0  0  0  0  0  0  0  0  0  0  0
  -26.5790  -34.7030   22.3400 O   0  0  0  0  0  0  0  0  0  0  0  0
  -24.9450  -33.9110   24.9100 H   0  0  0  0  0  0  0  0  0  0  0  0
  -24.1930  -36.6050   23.0170 C   0  0  0  0  0  1  0  0  0  0  0  0
  -25.4330  -36.2000   23.8270 C   0  0  0  0  0  3  0  0  0  0  0  0
  -27.5860  -37.0600   24.6470 C   0  0  0  0  0  1  0  0  0  0  0  0
  -26.4790  -37.2410   23.7090 N   0  0  0  0  0  0  0  0  0  0  0  0
  -26.0890  -38.1700   23.8490 H   0  0  0  0  0  0  0  0  0  0  0  0
  -26.3600  -31.5770   25.0510 C   0  0  1  0  0  0  0  0  0  0  0  0
  -25.2750  -31.3400   26.1270 C   0  0  0  0  0  1  0  0  0  0  0  0
  -26.9150  -30.1960   24.6510 C   0  0  0  0  0  1  0  0  0  0  0  0
  -27.5280  -32.3500   25.7060 C   0  0  0  0  0  1  0  0  0  0  0  0
  1  3  1  0
  1 52  1  0
  2  6  1  0
  2  3  1  0
  3  5  1  0
  4  2  2  0
  7  6  1  0
  7  8  1  0
  9 10  1  0
  9  8  1  0
 11 12  1  0
 11 10  1  0
 13 22  1  0
 13 12  1  0
 14 22  1  0
 15 20  1  0
 16 17  1  0
 16 15  1  0
 18 17  1  0
 18 27  1  0
 18 19  1  0
 20 14  1  0
 20 19  1  0
 21 14  2  0
 22 23  1  0
 24 25  2  0
 25 44  1  0
 26 25  1  0
 26 29  1  0
 27 28  1  0
 27 24  1  0
 28 26  2  0
 29 30  1  0
 30 31  2  0
 32 35  1  0
 32 31  1  0
 33 32  2  0
 34 33  1  0
 34 29  2  0
 35 36  1  0
 36 37  1  0
 37 38  2  0
 39 38  1  0
 39 43  1  0
 40 39  2  0
 41 36  2  0
 41 40  1  0
 42 41  1  0
 44 45  1  0
 45 48  1  0
 45 47  1  0
 46 44  2  0
 49 50  1  0
 49 24  1  0
 51 49  1  0
 52 53  1  0
 53 54  1  0
 55 54  1  0
 56 55  1  0
 57 56  1  0
 58 57  1  0
 59 58  1  0
 60 62  1  0
 60 59  1  0
 61 72  2  0
 62 67  1  0
 63 71  1  0
 63 73  1  0
 64 70  1  0
 64 66  1  0
 65 71  1  0
 66 65  1  0
 67 66  2  0
 68 69  1  0
 68 62  2  0
 69 64  2  0
 70 63  1  0
 71 61  1  0
 73 75  2  0
 74 73  1  0
 76 74  1  0
 77 86  2  0
 77 82  1  0
 78 74  1  0
 78 82  1  0
 79 78  1  0
 80 81  1  0
 80 79  1  0
 81 77  1  0
 82 83  2  0
 83 84  1  0
 85 84  2  0
 86 85  1  0
 87 61  1  0
 87 88  1  0
 87 97  1  0
 88 91  1  0
 89 93  1  0
 89 88  1  0
 90 89  2  0
 93 92  1  0
 95 93  1  0
 95 96  1  0
 95 94  1  0
 97100  1  1
 97 98  1  0
 99 97  1  0
M  ISO  4  14 100  22 100  59 101  60 101
M  END
>  <TORSDO>  (61) 
F 33

>  <SCORE>  (61) 
-10.018

>  <name>  (61) 
65

>  <ligand_id>  (61) 
65

>  <original_smiles>  (61) 
[H]c1c([H])c([H])c2c(c1[H])C([H])([H])C([H])([H])C([H])([H])C2([H])N([H])C(=O)C1([H])N(C(=O)C([H])(N([H])C(=O)C([H])(N([H])C([H])([H])[H])C([H])([H])[H])C(C([H])([H])[H])(C([H])([H])[H])C([H])([H])[H])C([H])([H])c2c([H])c(OC([H])([H])C([H])([H])OC([H])([H])C([H])([H])C([H])([H])OC([H])([H])C([H])([H])N([H])C(=O)C([H])([H])OC([H])([H])C([H])([H])OC([H])([H])C([H])([H])C([H])([H])N([H])C(=O)N3C([H])([H])C([H])([H])C([H])([H])C([H])(n4nc(-c5c([H])c([H])c(Oc6c([H])c([H])c(F)c([H])c6F)c([H])c5[H])c(C(=O)N([H])[H])c4N([H])[H])C3([H])[H])c([H])c([H])c2C1([H])[H]

>  <smiles>  (61) 
[H]c1c([H])c([H])c2c(c1[H])C([H])([H])C([H])([H])C([H])([H])C2([H])N([H])C(=O)C1([H])N(C(=O)C([H])(N([H])C(=O)C([H])(N([H])C([H])([H])[H])C([H])([H])[H])C(C([H])([H])[H])(C([H])([H])[H])C([H])([H])[H])C([H])([H])c2c([H])c(OC([H])([H])C([H])([H])OC([H])([H])C([H])([H])C([H])([H])OC([H])([H])C([H])([H])N([H])C(=O)C([H])([H])OC([H])([H])C([H])([H])OC([H])([H])C([H])([H])C([H])([H])N([H])C(=O)N3C([H])([H])C([H])([H])C([H])([H])C([H])(n4nc(-c5c([H])c([H])c(Oc6c([H])c([H])c(F)c([H])c6F)c([H])c5[H])c(C(=O)N([H])[H])c4N([H])[H])C3([H])[H])c([H])c([H])c2C1([H])[H]

$$$$
66:0:0
     RDKit          3D

109116  0  0  1  0  0  0  0  0999 V2000
  -27.6480  -19.1980   19.0320 C   0  0  0  0  0  0  0  0  0  0  0  0
  -26.9720  -18.3400   19.7970 N   0  0  0  0  0  0  0  0  0  0  0  0
  -27.2940  -19.4780   17.8840 O   0  0  0  0  0  0  0  0  0  0  0  0
  -27.3710  -18.1560   20.7110 H   0  0  0  0  0  0  0  0  0  0  0  0
  -28.9930  -19.7240   19.5910 C   0  0  0  0  0  3  0  0  0  0  0  0
  -31.2470  -18.6040   19.4260 C   0  0  0  0  0  0  0  0  0  0  0  0
  -29.9150  -18.5820   19.5370 N   0  0  0  0  0  0  0  0  0  0  0  0
  -31.9090  -19.6200   19.6500 O   0  0  0  0  0  0  0  0  0  0  0  0
  -29.4690  -17.7210   19.2660 H   0  0  0  0  0  0  0  0  0  0  0  0
  -31.9520  -17.3200   18.9110 C   0  0  0  0  0  3  0  0  0  0  0  0
  -32.4680  -15.1630   20.1480 C   0  0  0  0  0  0  0  0  0  0  0  0
  -32.4130  -12.7100   20.0190 C   0  0  0  0  0  2  0  0  0  0  0  0
  -31.6380  -12.3240   18.7410 C   0  0  0  0  0  2  0  0  0  0  0  0
  -30.1250  -12.2440   19.0230 C   0  0  0  0  0  2  0  0  0  0  0  0
  -29.5960  -13.4950   19.7740 C   0  0  0  0  0  3  0  0  0  0  0  0
  -30.4910  -13.8530   20.9790 C   0  0  0  0  0  2  0  0  0  0  0  0
  -31.8670  -13.9950   20.4860 N   0  0  0  0  0  0  0  0  0  0  0  0
  -33.6850  -15.2520   19.9820 O   0  0  0  0  0  0  0  0  0  0  0  0
  -31.6210  -16.1320   19.7330 N   0  0  0  0  0  0  0  0  0  0  0  0
  -30.6460  -16.0070   19.9570 H   0  0  0  0  0  0  0  0  0  0  0  0
  -27.2330  -14.3160   20.3130 C   0  0  0  0  0  0  0  0  0  0  0  0
  -26.0710  -13.6630   20.6140 C   0  0  0  0  0  0  0  0  0  0  0  0
  -26.4100  -12.2810   20.6510 C   0  0  0  0  0  0  0  0  0  0  0  0
  -28.2000  -13.3450   20.1670 N   0  0  0  0  0  0  0  0  0  0  0  0
  -27.7100  -12.1110   20.4330 N   0  0  0  0  0  0  0  0  0  0  0  0
  -25.5670  -11.0940   20.8210 C   0  0  0  0  0  0  0  0  0  0  0  0
  -25.7600  -10.2090   21.9020 C   0  0  0  0  0  3  0  0  0  0  0  0
  -24.9270   -9.0810   22.0600 C   0  0  0  0  0  3  0  0  0  0  0  0
  -23.8850   -8.8390   21.1350 C   0  0  0  0  0  0  0  0  0  0  0  0
  -23.7130   -9.7120   20.0440 C   0  0  0  0  0  3  0  0  0  0  0  0
  -24.5510  -10.8280   19.8840 C   0  0  0  0  0  3  0  0  0  0  0  0
  -23.0450   -7.7580   21.1860 O   0  0  0  0  0  0  0  0  0  0  0  0
  -22.6290   -7.2330   22.3840 C   0  0  0  0  0  0  0  0  0  0  0  0
  -21.9080   -8.0010   23.3220 C   0  0  0  0  0  3  0  0  0  0  0  0
  -21.4340   -7.4020   24.5070 C   0  0  0  0  0  3  0  0  0  0  0  0
  -21.6830   -6.0390   24.7500 C   0  0  0  0  0  0  0  0  0  0  0  0
  -22.4090   -5.2740   23.8220 C   0  0  0  0  0  3  0  0  0  0  0  0
  -22.8790   -5.8710   22.6400 C   0  0  0  0  0  0  0  0  0  0  0  0
  -23.5570   -5.1240   21.7340 F   0  0  0  0  0  0  0  0  0  0  0  0
  -21.2260   -5.4630   25.8860 F   0  0  0  0  0  0  0  0  0  0  0  0
  -24.7080  -14.2810   20.7550 C   0  0  0  0  0  0  0  0  0  0  0  0
  -23.8470  -13.6950   21.5780 N   0  0  0  0  0  0  0  0  0  0  0  0
  -24.4120  -15.3170   20.1590 O   0  0  0  0  0  0  0  0  0  0  0  0
  -24.0910  -12.8430   22.0600 H   0  0  0  0  0  0  0  0  0  0  0  0
  -22.9260  -14.0880   21.7080 H   0  0  0  0  0  0  0  0  0  0  0  0
  -27.5450  -15.6470   20.1240 N   0  0  0  0  0  0  0  0  0  0  0  0
  -26.7170  -16.1830   19.9060 H   0  0  0  0  0  0  0  0  0  0  0  0
  -28.3000  -15.7950   19.4690 H   0  0  0  0  0  0  0  0  0  0  0  0
  -30.3950  -16.5240   16.9760 C   0  0  0  0  0  1  0  0  0  0  0  0
  -32.8550  -16.0790   16.8220 C   0  0  0  0  0  1  0  0  0  0  0  0
  -32.0130  -18.3740   16.5510 C   0  0  0  0  0  1  0  0  0  0  0  0
  -31.7940  -17.0680   17.3510 C   0  0  2  0  0  0  0  0  0  0  0  0
  -27.9700  -21.6600   20.9330 C   0  0  0  0  0  1  0  0  0  0  0  0
  -28.6360  -19.5900   22.1610 C   0  0  0  0  0  1  0  0  0  0  0  0
  -30.3830  -21.1340   21.2430 C   0  0  0  0  0  1  0  0  0  0  0  0
  -28.9970  -20.5000   20.9670 C   0  0  1  0  0  0  0  0  0  0  0  0
  -25.8210  -17.5190   19.4030 C   0  0  0  0  0  2  0  0  0  0  0  0
  -24.6060  -18.3760   19.0350 C   0  0  0  0  0  2  0  0  0  0  0  0
  -24.9840  -19.2000   17.9440 O   0  0  0  0  0  0  0  0  0  0  0  0
  -24.7980  -20.5800   18.2070 C   0  0  0  0  0  2  0  0  0  0  0  0
  -25.5360  -21.3830   17.1330 C   0  0  0  0  0  2  0  0  0  0  0  0
  -26.9070  -21.5200   17.4970 O   0  0  0  0  0  0  0  0  0  0  0  0
  -27.5250  -22.6540   16.9020 C   0  0  0  0  0  2  0  0  0  0  0  0
  -28.5480  -23.2910   17.8530 C   0  0  0  0  0  2  0  0  0  0  0  0
  -29.8580  -22.7880   17.5900 O   0  0  0  0  0  0  0  0  0  0  0  0
  -30.8040  -23.2620   18.5430 C   0  0  0  0  0  2  0  0  0  0  0  0
  -32.1930  -23.4550   17.9130 C   0  0  0  0  0  2  0  0  0  0  0  0
  -32.8860  -24.7480   18.3790 C   0  0  0  0  0  2  0  0  0  0  0  0
  -32.3950  -25.8960   17.6960 O   0  0  0  0  0  0  0  0  0  0  0  0
  -27.3790  -28.1500   22.2390 C   0  0  0  0  0  0  0  0  0  0  0  0
  -31.0870  -26.2590   17.9100 C   0  0  0  0  0  0  0  0  0  0  0  0
  -26.6160  -27.6680   19.9370 C   0  0  0  0  0  3  0  0  0  0  0  0
  -28.4600  -27.2320   18.2330 C   0  0  0  0  0  0  0  0  0  0  0  0
  -29.0360  -28.3540   20.3900 C   0  0  0  0  0  2  0  0  0  0  0  0
  -29.4330  -27.5100   19.1980 C   0  0  0  0  0  0  0  0  0  0  0  0
  -30.7450  -27.0190   19.0460 C   0  0  0  0  0  3  0  0  0  0  0  0
  -30.1010  -25.9850   16.9370 C   0  0  0  0  0  3  0  0  0  0  0  0
  -28.7820  -26.4580   17.1070 C   0  0  0  0  0  3  0  0  0  0  0  0
  -27.0830  -27.8110   18.4630 C   0  0  0  0  0  2  0  0  0  0  0  0
  -27.6880  -28.0400   20.9170 N   0  0  0  0  0  0  0  0  0  0  0  0
  -26.2190  -27.9870   22.6390 O   0  0  0  0  0  0  0  0  0  0  0  0
  -26.0690  -26.2350   20.1350 C   0  0  0  0  0  0  0  0  0  0  0  0
  -24.8160  -26.0040   19.7050 N   0  0  0  0  0  0  0  0  0  0  0  0
  -26.7720  -25.3560   20.6420 O   0  0  0  0  0  0  0  0  0  0  0  0
  -24.3020  -26.7810   19.3130 H   0  0  0  0  0  0  0  0  0  0  0  0
  -21.6950  -24.3780   18.9010 C   0  0  0  0  0  0  0  0  0  0  0  0
  -24.1110  -24.7250   19.7520 C   0  0  0  0  0  3  0  0  0  0  0  0
  -24.5470  -23.8040   18.5880 C   0  0  0  0  0  2  0  0  0  0  0  0
  -23.6490  -23.9290   17.3550 C   0  0  0  0  0  2  0  0  0  0  0  0
  -22.2000  -23.5810   17.7110 C   0  0  0  0  0  2  0  0  0  0  0  0
  -22.5950  -24.9290   19.8530 C   0  0  0  0  0  0  0  0  0  0  0  0
  -22.0760  -25.6880   20.9250 C   0  0  0  0  0  3  0  0  0  0  0  0
  -20.6910  -25.8990   21.0550 C   0  0  0  0  0  3  0  0  0  0  0  0
  -19.8050  -25.3360   20.1210 C   0  0  0  0  0  3  0  0  0  0  0  0
  -20.3060  -24.5750   19.0490 C   0  0  0  0  0  3  0  0  0  0  0  0
  -28.4610  -28.5080   23.3060 C   0  0  0  0  0  3  0  0  0  0  0  0
  -28.7020  -27.3540   24.3520 C   0  0  1  0  0  0  0  0  0  0  0  0
  -27.4030  -26.8430   25.0170 C   0  0  0  0  0  1  0  0  0  0  0  0
  -29.4040  -26.1510   23.6780 C   0  0  0  0  0  1  0  0  0  0  0  0
  -29.6580  -27.8450   25.4650 C   0  0  0  0  0  1  0  0  0  0  0  0
  -28.0330  -29.7420   23.9750 N   0  0  0  0  0  0  0  0  0  0  0  0
  -28.5580  -30.9520   23.7420 C   0  0  0  0  0  0  0  0  0  0  0  0
  -29.5100  -31.1320   22.9740 O   0  0  0  0  0  0  0  0  0  0  0  0
  -27.2130  -29.6780   24.5610 H   0  0  0  0  0  0  0  0  0  0  0  0
  -26.9950  -32.9070   23.4990 C   0  0  0  0  0  1  0  0  0  0  0  0
  -27.9240  -32.1550   24.4670 C   0  0  0  0  0  3  0  0  0  0  0  0
  -29.6860  -32.5210   26.1360 C   0  0  0  0  0  1  0  0  0  0  0  0
  -28.9180  -33.0920   25.0330 N   0  0  0  0  0  0  0  0  0  0  0  0
  -28.4690  -33.9420   25.3620 H   0  0  0  0  0  0  0  0  0  0  0  0
  1  2  1  0
  2  4  1  0
  3  1  2  0
  5  1  1  0
  5 56  1  0
  6  7  1  0
  6  8  2  0
  7  5  1  0
  9  7  1  0
 10  6  1  0
 10 19  1  0
 11 17  1  0
 12 17  1  0
 13 14  1  0
 13 12  1  0
 15 14  1  0
 15 24  1  0
 15 16  1  0
 17 16  1  0
 18 11  2  0
 19 20  1  0
 19 11  1  0
 21 22  2  0
 22 23  1  0
 22 41  1  0
 23 26  1  0
 24 21  1  0
 24 25  1  0
 25 23  2  0
 26 27  1  0
 27 28  2  0
 29 32  1  0
 29 28  1  0
 30 29  2  0
 31 30  1  0
 31 26  2  0
 32 33  1  0
 33 38  2  0
 33 34  1  0
 34 35  2  0
 35 36  1  0
 36 40  1  0
 37 36  2  0
 38 37  1  0
 39 38  1  0
 41 42  1  0
 42 45  1  0
 42 44  1  0
 43 41  2  0
 46 21  1  0
 47 46  1  0
 48 46  1  0
 52 49  1  1
 50 52  1  0
 51 52  1  0
 52 10  1  0
 56 53  1  6
 56 55  1  0
 56 54  1  0
 57  2  1  0
 58 57  1  0
 59 60  1  0
 59 58  1  0
 61 62  1  0
 61 60  1  0
 63 62  1  0
 63 64  1  0
 65 64  1  0
 65 66  1  0
 67 68  1  0
 67 66  1  0
 69 71  1  0
 69 68  1  0
 70 81  2  0
 71 76  1  0
 72 82  1  0
 72 80  1  0
 73 79  1  0
 73 75  1  0
 74 80  1  0
 75 74  1  0
 76 75  2  0
 77 78  1  0
 77 71  2  0
 78 73  2  0
 79 72  1  0
 80 70  1  0
 82 84  2  0
 83 82  1  0
 85 83  1  0
 86 95  2  0
 86 91  1  0
 87 83  1  0
 87 91  1  0
 88 87  1  0
 89 90  1  0
 89 88  1  0
 90 86  1  0
 91 92  2  0
 92 93  1  0
 94 93  2  0
 95 94  1  0
 96 70  1  0
 96101  1  0
 96 97  1  0
 97 98  1  1
 97100  1  0
 99 97  1  0
101104  1  0
102101  1  0
102106  1  0
103102  2  0
106105  1  0
106108  1  0
108109  1  0
108107  1  0
M  ISO  4  11 100  19 100  68 101  69 101
M  END
>  <TORSDO>  (62) 
F 33

>  <SCORE>  (62) 
-1.072

>  <name>  (62) 
66

>  <ligand_id>  (62) 
66

>  <original_smiles>  (62) 
[H]c1c([H])c([H])c2c(c1[H])C([H])([H])C([H])([H])C([H])([H])C2([H])N([H])C(=O)C1([H])N(C(=O)C([H])(N([H])C(=O)C([H])(N([H])C([H])([H])[H])C([H])([H])[H])C(C([H])([H])[H])(C([H])([H])[H])C([H])([H])[H])C([H])([H])c2c([H])c(OC([H])([H])C([H])([H])C([H])([H])OC([H])([H])C([H])([H])OC([H])([H])C([H])([H])OC([H])([H])C([H])([H])N([H])C(=O)C([H])(N([H])C(=O)C([H])(N([H])C(=O)N3C([H])([H])C([H])([H])C([H])([H])C([H])(n4nc(-c5c([H])c([H])c(Oc6c([H])c([H])c(F)c([H])c6F)c([H])c5[H])c(C(=O)N([H])[H])c4N([H])[H])C3([H])[H])C(C([H])([H])[H])(C([H])([H])[H])C([H])([H])[H])C(C([H])([H])[H])(C([H])([H])[H])C([H])([H])[H])c([H])c([H])c2C1([H])[H]

>  <smiles>  (62) 
[H]c1c([H])c([H])c2c(c1[H])C([H])([H])C([H])([H])C([H])([H])C2([H])N([H])C(=O)C1([H])N(C(=O)C([H])(N([H])C(=O)C([H])(N([H])C([H])([H])[H])C([H])([H])[H])C(C([H])([H])[H])(C([H])([H])[H])C([H])([H])[H])C([H])([H])c2c([H])c(OC([H])([H])C([H])([H])C([H])([H])OC([H])([H])C([H])([H])OC([H])([H])C([H])([H])OC([H])([H])C([H])([H])N([H])C(=O)C([H])(N([H])C(=O)C([H])(N([H])C(=O)N3C([H])([H])C([H])([H])C([H])([H])C([H])(n4nc(-c5c([H])c([H])c(Oc6c([H])c([H])c(F)c([H])c6F)c([H])c5[H])c(C(=O)N([H])[H])c4N([H])[H])C3([H])[H])C(C([H])([H])[H])(C([H])([H])[H])C([H])([H])[H])C(C([H])([H])[H])(C([H])([H])[H])C([H])([H])[H])c([H])c([H])c2C1([H])[H]

$$$$
67:0:0
     RDKit          3D

101108  0  0  1  0  0  0  0  0999 V2000
  -31.2300  -24.8320   20.8280 O   0  0  0  0  0  0  0  0  0  0  0  0
  -31.3210  -26.2350   21.0420 C   0  0  0  0  0  2  0  0  0  0  0  0
  -31.8620  -26.8890   19.7630 C   0  0  0  0  0  2  0  0  0  0  0  0
  -30.8010  -27.0050   18.8280 O   0  0  0  0  0  0  0  0  0  0  0  0
  -31.2320  -27.4590   17.5530 C   0  0  0  0  0  2  0  0  0  0  0  0
  -29.9830  -27.7070   16.7010 C   0  0  0  0  0  2  0  0  0  0  0  0
  -29.2830  -26.4770   16.5650 O   0  0  0  0  0  0  0  0  0  0  0  0
  -27.9730  -26.6370   16.0390 C   0  0  0  0  0  2  0  0  0  0  0  0
  -27.0880  -25.4750   16.5120 C   0  0  0  0  0  2  0  0  0  0  0  0
  -27.1660  -25.2580   18.0340 C   0  0  0  0  0  2  0  0  0  0  0  0
  -27.3090  -26.4890   18.7350 O   0  0  0  0  0  0  0  0  0  0  0  0
  -24.6560  -31.3530   23.1260 C   0  0  0  0  0  0  0  0  0  0  0  0
  -26.2140  -27.2870   18.9910 C   0  0  0  0  0  0  0  0  0  0  0  0
  -23.0530  -30.4290   21.4810 C   0  0  0  0  0  3  0  0  0  0  0  0
  -24.0680  -29.0180   19.6160 C   0  0  0  0  0  0  0  0  0  0  0  0
  -25.5500  -30.5280   20.9520 C   0  0  0  0  0  2  0  0  0  0  0  0
  -25.3530  -29.2940   20.0980 C   0  0  0  0  0  0  0  0  0  0  0  0
  -26.4230  -28.4320   19.7880 C   0  0  0  0  0  3  0  0  0  0  0  0
  -24.9110  -27.0190   18.5090 C   0  0  0  0  0  3  0  0  0  0  0  0
  -23.8400  -27.8790   18.8240 C   0  0  0  0  0  3  0  0  0  0  0  0
  -22.9790  -29.9940   19.9910 C   0  0  0  0  0  2  0  0  0  0  0  0
  -24.4480  -30.7710   21.9110 N   0  0  0  0  0  0  0  0  0  0  0  0
  -23.7050  -31.6430   23.8670 O   0  0  0  0  0  0  0  0  0  0  0  0
  -22.3960  -29.3320   22.3480 C   0  0  0  0  0  0  0  0  0  0  0  0
  -21.0560  -29.2560   22.2970 N   0  0  0  0  0  0  0  0  0  0  0  0
  -23.0820  -28.5600   23.0210 O   0  0  0  0  0  0  0  0  0  0  0  0
  -20.5650  -29.9280   21.7240 H   0  0  0  0  0  0  0  0  0  0  0  0
  -17.6480  -28.1860   22.8290 C   0  0  0  0  0  0  0  0  0  0  0  0
  -20.2250  -28.2810   23.0030 C   0  0  0  0  0  3  0  0  0  0  0  0
  -20.2250  -26.9220   22.2670 C   0  0  0  0  0  2  0  0  0  0  0  0
  -19.0630  -26.7690   21.2810 C   0  0  0  0  0  2  0  0  0  0  0  0
  -17.7210  -26.9130   22.0030 C   0  0  0  0  0  2  0  0  0  0  0  0
  -18.8240  -28.8370   23.2850 C   0  0  0  0  0  0  0  0  0  0  0  0
  -18.7020  -30.0370   24.0180 C   0  0  0  0  0  3  0  0  0  0  0  0
  -17.4360  -30.5830   24.3000 C   0  0  0  0  0  3  0  0  0  0  0  0
  -16.2750  -29.9280   23.8580 C   0  0  0  0  0  3  0  0  0  0  0  0
  -16.3820  -28.7310   23.1280 C   0  0  0  0  0  3  0  0  0  0  0  0
  -26.0910  -31.7020   23.6330 C   0  0  0  0  0  3  0  0  0  0  0  0
  -26.0350  -33.0360   24.2420 N   0  0  0  0  0  0  0  0  0  0  0  0
  -26.4440  -34.1630   23.6440 C   0  0  0  0  0  0  0  0  0  0  0  0
  -26.9840  -34.1760   22.5350 O   0  0  0  0  0  0  0  0  0  0  0  0
  -25.5650  -33.1080   25.1320 H   0  0  0  0  0  0  0  0  0  0  0  0
  -25.0050  -36.2180   23.7980 C   0  0  0  0  0  1  0  0  0  0  0  0
  -26.2160  -35.4870   24.3980 C   0  0  0  0  0  3  0  0  0  0  0  0
  -28.5090  -35.8760   25.1850 C   0  0  0  0  0  1  0  0  0  0  0  0
  -27.3940  -36.3800   24.3860 N   0  0  0  0  0  0  0  0  0  0  0  0
  -27.1480  -37.3020   24.7340 H   0  0  0  0  0  0  0  0  0  0  0  0
  -26.6610  -30.6460   24.6560 C   0  0  1  0  0  0  0  0  0  0  0  0
  -25.6970  -30.3280   25.8220 C   0  0  0  0  0  1  0  0  0  0  0  0
  -26.9870  -29.3190   23.9330 C   0  0  0  0  0  1  0  0  0  0  0  0
  -27.9880  -31.1630   25.2590 C   0  0  0  0  0  1  0  0  0  0  0  0
  -30.8590  -24.1050   21.9900 C   0  0  0  0  0  2  0  0  0  0  0  0
  -31.0070  -22.6100   21.6780 C   0  0  0  0  0  2  0  0  0  0  0  0
  -31.2600  -21.7410   22.9230 C   0  0  0  0  0  2  0  0  0  0  0  0
  -31.2900  -20.3040   22.5760 N   0  0  0  0  0  4  0  0  0  0  0  0
  -31.8930  -20.1830   21.7730 H   0  0  0  0  0  0  0  0  0  0  0  0
  -30.3700  -19.9840   22.3150 H   0  0  0  0  0  0  0  0  0  0  0  0
  -31.8730  -19.4090   23.5980 C   0  0  0  0  0  2  0  0  0  0  0  0
  -31.1700  -18.0460   23.5390 C   0  0  0  0  0  2  0  0  0  0  0  0
  -31.3610  -17.5730   22.2070 O   0  0  0  0  0  0  0  0  0  0  0  0
  -30.9170  -16.2400   21.9880 C   0  0  0  0  0  2  0  0  0  0  0  0
  -31.6040  -15.7470   20.7030 C   0  0  0  0  0  2  0  0  0  0  0  0
  -32.3560  -14.4110   20.8340 C   0  0  0  0  0  2  0  0  0  0  0  0
  -31.8210  -11.9710   20.7570 C   0  0  0  0  0  0  0  0  0  0  0  0
  -31.4140   -9.6790   21.5800 C   0  0  0  0  0  2  0  0  0  0  0  0
  -30.6490   -8.7880   20.5860 C   0  0  0  0  0  2  0  0  0  0  0  0
  -29.1310   -8.9790   20.7450 C   0  0  0  0  0  2  0  0  0  0  0  0
  -28.7190  -10.4730   20.7240 C   0  0  0  0  0  3  0  0  0  0  0  0
  -29.5870  -11.2970   21.6990 C   0  0  0  0  0  2  0  0  0  0  0  0
  -31.0080  -11.0750   21.3690 N   0  0  0  0  0  0  0  0  0  0  0  0
  -32.8770  -11.6630   20.1940 O   0  0  0  0  0  0  0  0  0  0  0  0
  -31.4820  -13.2470   20.9800 N   0  0  0  0  0  0  0  0  0  0  0  0
  -30.6190  -13.3810   21.4870 H   0  0  0  0  0  0  0  0  0  0  0  0
  -26.5530  -11.7990   21.1650 C   0  0  0  0  0  0  0  0  0  0  0  0
  -25.2560  -11.3960   21.3410 C   0  0  0  0  0  0  0  0  0  0  0  0
  -25.2710   -9.9700   21.2710 C   0  0  0  0  0  0  0  0  0  0  0  0
  -27.2920  -10.6360   21.0050 N   0  0  0  0  0  0  0  0  0  0  0  0
  -26.5140   -9.5300   21.1230 N   0  0  0  0  0  0  0  0  0  0  0  0
  -24.1690   -9.0000   21.2780 C   0  0  0  0  0  0  0  0  0  0  0  0
  -24.0240   -8.0560   22.3180 C   0  0  0  0  0  3  0  0  0  0  0  0
  -22.9450   -7.1450   22.3130 C   0  0  0  0  0  3  0  0  0  0  0  0
  -21.9950   -7.1760   21.2640 C   0  0  0  0  0  0  0  0  0  0  0  0
  -22.1570   -8.1030   20.2200 C   0  0  0  0  0  3  0  0  0  0  0  0
  -23.2350   -9.0040   20.2230 C   0  0  0  0  0  3  0  0  0  0  0  0
  -20.9310   -6.3130   21.1610 O   0  0  0  0  0  0  0  0  0  0  0  0
  -20.2860   -5.8320   22.2720 C   0  0  0  0  0  0  0  0  0  0  0  0
  -19.6470   -6.6890   23.1930 C   0  0  0  0  0  3  0  0  0  0  0  0
  -18.9370   -6.1470   24.2830 C   0  0  0  0  0  3  0  0  0  0  0  0
  -18.8560   -4.7520   24.4480 C   0  0  0  0  0  0  0  0  0  0  0  0
  -19.4870   -3.8960   23.5290 C   0  0  0  0  0  3  0  0  0  0  0  0
  -20.1980   -4.4350   22.4410 C   0  0  0  0  0  0  0  0  0  0  0  0
  -20.7860   -3.6060   21.5470 F   0  0  0  0  0  0  0  0  0  0  0  0
  -18.1680   -4.2290   25.4910 F   0  0  0  0  0  0  0  0  0  0  0  0
  -24.0540  -12.2870   21.4730 C   0  0  0  0  0  0  0  0  0  0  0  0
  -23.0740  -11.8780   22.2720 N   0  0  0  0  0  0  0  0  0  0  0  0
  -24.0000  -13.3770   20.9050 O   0  0  0  0  0  0  0  0  0  0  0  0
  -23.1260  -10.9930   22.7530 H   0  0  0  0  0  0  0  0  0  0  0  0
  -22.2570  -12.4590   22.4010 H   0  0  0  0  0  0  0  0  0  0  0  0
  -27.1630  -13.0480   21.1100 N   0  0  0  0  0  0  0  0  0  0  0  0
  -26.6360  -13.9120   21.1660 H   0  0  0  0  0  0  0  0  0  0  0  0
  -28.1500  -13.1960   20.9380 H   0  0  0  0  0  0  0  0  0  0  0  0
  1  2  1  0
  1 52  1  0
  3  2  1  0
  4  3  1  0
  5  4  1  0
  6  5  1  0
  7  6  1  0
  8  9  1  0
  8  7  1  0
  9 10  1  0
 10 11  1  0
 11 13  1  0
 12 23  2  0
 13 18  1  0
 14 22  1  0
 14 24  1  0
 15 21  1  0
 15 17  1  0
 16 22  1  0
 17 16  1  0
 18 17  2  0
 19 20  1  0
 19 13  2  0
 20 15  2  0
 21 14  1  0
 22 12  1  0
 24 26  2  0
 25 24  1  0
 27 25  1  0
 28 37  2  0
 28 33  1  0
 29 25  1  0
 29 33  1  0
 30 29  1  0
 31 32  1  0
 31 30  1  0
 32 28  1  0
 33 34  2  0
 34 35  1  0
 36 35  2  0
 37 36  1  0
 38 12  1  0
 38 39  1  0
 38 48  1  0
 39 42  1  0
 40 39  1  0
 40 44  1  0
 41 40  2  0
 44 43  1  0
 46 44  1  0
 46 47  1  0
 46 45  1  0
 48 51  1  1
 48 49  1  0
 50 48  1  0
 53 52  1  0
 53 54  1  0
 55 54  1  0
 55 58  1  0
 56 55  1  0
 57 55  1  0
 59 58  1  0
 60 59  1  0
 61 60  1  0
 62 63  1  0
 62 61  1  0
 63 72  1  0
 64 72  1  0
 64 70  1  0
 66 67  1  0
 66 65  1  0
 68 67  1  0
 68 77  1  0
 68 69  1  0
 70 65  1  0
 70 69  1  0
 71 64  2  0
 72 73  1  0
 74 75  2  0
 75 94  1  0
 76 79  1  0
 76 75  1  0
 77 78  1  0
 77 74  1  0
 78 76  2  0
 79 80  1  0
 81 80  2  0
 82 81  1  0
 83 84  1  0
 83 82  2  0
 84 79  2  0
 85 82  1  0
 85 86  1  0
 86 91  2  0
 86 87  1  0
 87 88  2  0
 88 89  1  0
 89 93  1  0
 90 89  2  0
 91 90  1  0
 92 91  1  0
 94 95  1  0
 95 98  1  0
 95 97  1  0
 96 94  2  0
 99 74  1  0
 99100  1  0
101 99  1  0
M  ISO  4  10 101  11 101  64 100  72 100
M  END
>  <TORSDO>  (63) 
F 35

>  <SCORE>  (63) 
-4.815

>  <name>  (63) 
67

>  <ligand_id>  (63) 
67

>  <original_smiles>  (63) 
[H]c1c([H])c([H])c2c(c1[H])C([H])([H])C([H])([H])C([H])([H])C2([H])N([H])C(=O)C1([H])N(C(=O)C([H])(N([H])C(=O)C([H])(N([H])C([H])([H])[H])C([H])([H])[H])C(C([H])([H])[H])(C([H])([H])[H])C([H])([H])[H])C([H])([H])c2c([H])c(OC([H])([H])C([H])([H])C([H])([H])OC([H])([H])C([H])([H])OC([H])([H])C([H])([H])OC([H])([H])C([H])([H])C([H])([H])[N+]([H])([H])C([H])([H])C([H])([H])OC([H])([H])C([H])([H])C([H])([H])N([H])C(=O)N3C([H])([H])C([H])([H])C([H])([H])C([H])(n4nc(-c5c([H])c([H])c(Oc6c([H])c([H])c(F)c([H])c6F)c([H])c5[H])c(C(=O)N([H])[H])c4N([H])[H])C3([H])[H])c([H])c([H])c2C1([H])[H]

>  <smiles>  (63) 
[H]c1c([H])c([H])c2c(c1[H])C([H])([H])C([H])([H])C([H])([H])C2([H])N([H])C(=O)C1([H])N(C(=O)C([H])(N([H])C(=O)C([H])(N([H])C([H])([H])[H])C([H])([H])[H])C(C([H])([H])[H])(C([H])([H])[H])C([H])([H])[H])C([H])([H])c2c([H])c(OC([H])([H])C([H])([H])C([H])([H])OC([H])([H])C([H])([H])OC([H])([H])C([H])([H])OC([H])([H])C([H])([H])C([H])([H])[N+]([H])([H])C([H])([H])C([H])([H])OC([H])([H])C([H])([H])C([H])([H])N([H])C(=O)N3C([H])([H])C([H])([H])C([H])([H])C([H])(n4nc(-c5c([H])c([H])c(Oc6c([H])c([H])c(F)c([H])c6F)c([H])c5[H])c(C(=O)N([H])[H])c4N([H])[H])C3([H])[H])c([H])c([H])c2C1([H])[H]

$$$$
68:0:0
     RDKit          3D

103110  0  0  1  0  0  0  0  0999 V2000
  -24.5530  -23.5130   27.8740 N   0  0  0  0  0  4  0  0  0  0  0  0
  -25.2960  -22.9410   27.5030 H   0  0  0  0  0  0  0  0  0  0  0  0
  -24.0860  -22.9550   28.5720 H   0  0  0  0  0  0  0  0  0  0  0  0
  -25.1610  -24.6720   28.5750 C   0  0  0  0  0  2  0  0  0  0  0  0
  -25.8900  -25.6570   27.6430 C   0  0  0  0  0  2  0  0  0  0  0  0
  -26.8270  -24.9970   26.7850 O   0  0  0  0  0  0  0  0  0  0  0  0
  -27.6450  -25.9280   26.0710 C   0  0  0  0  0  2  0  0  0  0  0  0
  -27.7880  -25.5650   24.5750 C   0  0  0  0  0  2  0  0  0  0  0  0
  -29.2020  -25.0720   24.2100 C   0  0  0  0  0  2  0  0  0  0  0  0
  -29.4510  -24.9310   22.6940 C   0  0  0  0  0  2  0  0  0  0  0  0
  -30.8540  -24.9420   22.4410 O   0  0  0  0  0  0  0  0  0  0  0  0
  -31.2470  -25.6040   21.2360 C   0  0  0  0  0  2  0  0  0  0  0  0
  -32.7630  -25.4420   21.0510 C   0  0  0  0  0  2  0  0  0  0  0  0
  -33.4190  -26.5020   20.1390 C   0  0  0  0  0  2  0  0  0  0  0  0
  -35.7110  -26.9370   19.2690 C   0  0  0  0  0  0  0  0  0  0  0  0
  -37.8240  -26.8750   17.9940 C   0  0  0  0  0  2  0  0  0  0  0  0
  -37.5820  -26.5160   16.5160 C   0  0  0  0  0  2  0  0  0  0  0  0
  -37.5410  -24.9890   16.3260 C   0  0  0  0  0  2  0  0  0  0  0  0
  -36.5670  -24.2990   17.3160 C   0  0  0  0  0  3  0  0  0  0  0  0
  -36.8580  -24.7670   18.7610 C   0  0  0  0  0  2  0  0  0  0  0  0
  -36.7820  -26.2430   18.8160 N   0  0  0  0  0  0  0  0  0  0  0  0
  -35.5240  -28.1410   19.0500 O   0  0  0  0  0  0  0  0  0  0  0  0
  -34.8400  -26.2070   19.9740 N   0  0  0  0  0  0  0  0  0  0  0  0
  -35.1380  -25.2710   20.2010 H   0  0  0  0  0  0  0  0  0  0  0  0
  -35.6230  -21.9240   16.9710 C   0  0  0  0  0  0  0  0  0  0  0  0
  -36.2390  -20.6990   16.8950 C   0  0  0  0  0  0  0  0  0  0  0  0
  -37.6340  -20.9470   17.0820 C   0  0  0  0  0  0  0  0  0  0  0  0
  -36.6390  -22.8410   17.2040 N   0  0  0  0  0  0  0  0  0  0  0  0
  -37.8450  -22.2340   17.3220 N   0  0  0  0  0  0  0  0  0  0  0  0
  -38.7860  -20.0440   16.9870 C   0  0  0  0  0  0  0  0  0  0  0  0
  -39.7540  -19.9790   18.0120 C   0  0  0  0  0  3  0  0  0  0  0  0
  -40.8470  -19.0920   17.9120 C   0  0  0  0  0  3  0  0  0  0  0  0
  -40.9780  -18.2530   16.7810 C   0  0  0  0  0  0  0  0  0  0  0  0
  -40.0250  -18.3360   15.7520 C   0  0  0  0  0  3  0  0  0  0  0  0
  -38.9390  -19.2230   15.8500 C   0  0  0  0  0  3  0  0  0  0  0  0
  -42.0160  -17.3720   16.5870 O   0  0  0  0  0  0  0  0  0  0  0  0
  -42.7570  -16.8890   17.6350 C   0  0  0  0  0  0  0  0  0  0  0  0
  -42.1590  -16.2090   18.7200 C   0  0  0  0  0  3  0  0  0  0  0  0
  -42.9650  -15.6700   19.7420 C   0  0  0  0  0  3  0  0  0  0  0  0
  -44.3650  -15.7980   19.6770 C   0  0  0  0  0  0  0  0  0  0  0  0
  -44.9620  -16.4660   18.5950 C   0  0  0  0  0  3  0  0  0  0  0  0
  -44.1590  -17.0090   17.5750 C   0  0  0  0  0  0  0  0  0  0  0  0
  -44.7420  -17.6360   16.5260 F   0  0  0  0  0  0  0  0  0  0  0  0
  -45.1390  -15.2690   20.6540 F   0  0  0  0  0  0  0  0  0  0  0  0
  -35.5870  -19.3870   16.5760 C   0  0  0  0  0  0  0  0  0  0  0  0
  -36.1110  -18.2930   17.1240 N   0  0  0  0  0  0  0  0  0  0  0  0
  -34.5780  -19.3250   15.8760 O   0  0  0  0  0  0  0  0  0  0  0  0
  -36.9310  -18.3400   17.7070 H   0  0  0  0  0  0  0  0  0  0  0  0
  -35.6850  -17.3930   16.9550 H   0  0  0  0  0  0  0  0  0  0  0  0
  -34.3040  -22.3410   16.8450 N   0  0  0  0  0  0  0  0  0  0  0  0
  -33.5390  -21.7140   16.6200 H   0  0  0  0  0  0  0  0  0  0  0  0
  -34.0110  -23.3080   16.9080 H   0  0  0  0  0  0  0  0  0  0  0  0
  -23.5580  -23.7940   26.8110 C   0  0  0  0  0  2  0  0  0  0  0  0
  -24.2090  -24.1480   25.4660 C   0  0  0  0  0  2  0  0  0  0  0  0
  -23.2490  -24.2940   24.2830 C   0  0  0  0  0  2  0  0  0  0  0  0
  -24.0720  -24.1880   23.1310 O   0  0  0  0  0  0  0  0  0  0  0  0
  -23.4040  -24.4000   21.9010 C   0  0  0  0  0  2  0  0  0  0  0  0
  -24.3480  -23.9630   20.7700 C   0  0  0  0  0  2  0  0  0  0  0  0
  -25.6850  -24.7270   20.7770 C   0  0  0  0  0  2  0  0  0  0  0  0
  -26.3500  -24.6010   19.5260 O   0  0  0  0  0  0  0  0  0  0  0  0
  -27.6740  -25.1340   19.5450 C   0  0  0  0  0  2  0  0  0  0  0  0
  -28.0130  -25.8440   18.2140 C   0  0  0  0  0  2  0  0  0  0  0  0
  -27.9670  -27.2720   18.3160 O   0  0  0  0  0  0  0  0  0  0  0  0
  -24.8260  -30.9930   23.4720 C   0  0  0  0  0  0  0  0  0  0  0  0
  -26.8000  -27.8840   18.7250 C   0  0  0  0  0  0  0  0  0  0  0  0
  -23.3180  -30.1280   21.7120 C   0  0  0  0  0  3  0  0  0  0  0  0
  -24.4650  -29.1880   19.6400 C   0  0  0  0  0  0  0  0  0  0  0  0
  -25.7730  -30.6470   21.1930 C   0  0  0  0  0  2  0  0  0  0  0  0
  -25.7170  -29.5580   20.1420 C   0  0  0  0  0  0  0  0  0  0  0  0
  -26.8870  -28.9250   19.6740 C   0  0  0  0  0  3  0  0  0  0  0  0
  -25.5260  -27.5090   18.2340 C   0  0  0  0  0  3  0  0  0  0  0  0
  -24.3640  -28.1660   18.6790 C   0  0  0  0  0  3  0  0  0  0  0  0
  -23.2610  -29.9310   20.1760 C   0  0  0  0  0  2  0  0  0  0  0  0
  -24.6680  -30.5840   22.1820 N   0  0  0  0  0  0  0  0  0  0  0  0
  -23.8660  -31.0330   24.2530 O   0  0  0  0  0  0  0  0  0  0  0  0
  -22.8380  -28.8280   22.3970 C   0  0  0  0  0  0  0  0  0  0  0  0
  -21.5920  -28.4240   22.1020 N   0  0  0  0  0  0  0  0  0  0  0  0
  -23.5870  -28.1940   23.1460 O   0  0  0  0  0  0  0  0  0  0  0  0
  -21.0350  -29.0100   21.4920 H   0  0  0  0  0  0  0  0  0  0  0  0
  -18.6390  -26.3710   21.7790 C   0  0  0  0  0  0  0  0  0  0  0  0
  -20.9410  -27.2120   22.5980 C   0  0  0  0  0  3  0  0  0  0  0  0
  -21.5290  -25.9480   21.9290 C   0  0  0  0  0  2  0  0  0  0  0  0
  -20.7530  -25.5110   20.6840 C   0  0  0  0  0  2  0  0  0  0  0  0
  -19.2920  -25.2160   21.0400 C   0  0  0  0  0  2  0  0  0  0  0  0
  -19.4130  -27.3160   22.5020 C   0  0  0  0  0  0  0  0  0  0  0  0
  -18.7590  -28.3920   23.1440 C   0  0  0  0  0  3  0  0  0  0  0  0
  -17.3590  -28.5250   23.0790 C   0  0  0  0  0  3  0  0  0  0  0  0
  -16.5960  -27.5760   22.3770 C   0  0  0  0  0  3  0  0  0  0  0  0
  -17.2340  -26.5010   21.7330 C   0  0  0  0  0  3  0  0  0  0  0  0
  -26.2150  -31.4500   24.0180 C   0  0  0  0  0  3  0  0  0  0  0  0
  -26.0680  -32.8320   24.4950 N   0  0  0  0  0  0  0  0  0  0  0  0
  -26.6230  -33.9020   23.9110 C   0  0  0  0  0  0  0  0  0  0  0  0
  -27.3840  -33.8170   22.9420 O   0  0  0  0  0  0  0  0  0  0  0  0
  -25.4180  -32.9820   25.2530 H   0  0  0  0  0  0  0  0  0  0  0  0
  -25.2950  -36.0130   23.5610 C   0  0  0  0  0  1  0  0  0  0  0  0
  -26.2800  -35.2880   24.4940 C   0  0  0  0  0  3  0  0  0  0  0  0
  -28.3280  -35.6550   25.7980 C   0  0  0  0  0  1  0  0  0  0  0  0
  -27.4640  -36.1420   24.7260 N   0  0  0  0  0  0  0  0  0  0  0  0
  -27.1870  -37.0940   24.9490 H   0  0  0  0  0  0  0  0  0  0  0  0
  -26.7740  -30.5170   25.1650 C   0  0  1  0  0  0  0  0  0  0  0  0
  -25.7720  -30.3000   26.3230 C   0  0  0  0  0  1  0  0  0  0  0  0
  -27.1550  -29.1260   24.6100 C   0  0  0  0  0  1  0  0  0  0  0  0
  -28.0700  -31.1240   25.7540 C   0  0  0  0  0  1  0  0  0  0  0  0
  1  3  1  0
  1  4  1  0
  2  1  1  0
  5  4  1  0
  6  5  1  0
  7  6  1  0
  8  7  1  0
  9  8  1  0
 10  9  1  0
 11 10  1  0
 12 11  1  0
 13 12  1  0
 14 13  1  0
 15 23  1  0
 16 21  1  0
 17 16  1  0
 18 17  1  0
 19 18  1  0
 19 20  1  0
 20 21  1  0
 21 15  1  0
 22 15  2  0
 23 14  1  0
 23 24  1  0
 25 28  1  0
 26 25  2  0
 26 27  1  0
 27 29  2  0
 28 19  1  0
 28 29  1  0
 30 27  1  0
 30 31  1  0
 32 31  2  0
 33 32  1  0
 34 35  1  0
 34 33  2  0
 35 30  2  0
 36 33  1  0
 36 37  1  0
 37 38  1  0
 38 39  2  0
 40 39  1  0
 40 44  1  0
 41 40  2  0
 42 37  2  0
 42 41  1  0
 43 42  1  0
 45 26  1  0
 45 46  1  0
 46 48  1  0
 47 45  2  0
 49 46  1  0
 50 52  1  0
 50 25  1  0
 51 50  1  0
 53  1  1  0
 54 53  1  0
 55 54  1  0
 56 55  1  0
 57 56  1  0
 58 59  1  0
 58 57  1  0
 60 61  1  0
 60 59  1  0
 62 63  1  0
 62 61  1  0
 63 65  1  0
 64 75  2  0
 65 70  1  0
 66 74  1  0
 66 76  1  0
 67 69  1  0
 67 73  1  0
 68 74  1  0
 69 68  1  0
 70 69  2  0
 71 72  1  0
 71 65  2  0
 72 67  2  0
 73 66  1  0
 74 64  1  0
 76 78  2  0
 77 76  1  0
 79 77  1  0
 80 85  1  0
 81 77  1  0
 82 81  1  0
 83 84  1  0
 83 82  1  0
 84 80  1  0
 85 81  1  0
 85 86  2  0
 87 86  1  0
 88 87  2  0
 89 80  2  0
 89 88  1  0
 90 64  1  0
 90 91  1  0
 90100  1  0
 91 94  1  0
 92 96  1  0
 92 91  1  0
 93 92  2  0
 96 95  1  0
 96 98  1  0
 98 99  1  0
 98 97  1  0
100103  1  1
100101  1  0
102100  1  0
M  ISO  4  15 100  23 100  62 101  63 101
M  END
>  <TORSDO>  (64) 
F 37

>  <SCORE>  (64) 
4.855

>  <name>  (64) 
68

>  <ligand_id>  (64) 
68

>  <original_smiles>  (64) 
[H]c1c([H])c([H])c2c(c1[H])C([H])([H])C([H])([H])C([H])([H])C2([H])N([H])C(=O)C1([H])N(C(=O)C([H])(N([H])C(=O)C([H])(N([H])C([H])([H])[H])C([H])([H])[H])C(C([H])([H])[H])(C([H])([H])[H])C([H])([H])[H])C([H])([H])c2c([H])c(OC([H])([H])C([H])([H])OC([H])([H])C([H])([H])C([H])([H])OC([H])([H])C([H])([H])C([H])([H])[N+]([H])([H])C([H])([H])C([H])([H])OC([H])([H])C([H])([H])C([H])([H])C([H])([H])OC([H])([H])C([H])([H])C([H])([H])N([H])C(=O)N3C([H])([H])C([H])([H])C([H])([H])C([H])(n4nc(-c5c([H])c([H])c(Oc6c([H])c([H])c(F)c([H])c6F)c([H])c5[H])c(C(=O)N([H])[H])c4N([H])[H])C3([H])[H])c([H])c([H])c2C1([H])[H]

>  <smiles>  (64) 
[H]c1c([H])c([H])c2c(c1[H])C([H])([H])C([H])([H])C([H])([H])C2([H])N([H])C(=O)C1([H])N(C(=O)C([H])(N([H])C(=O)C([H])(N([H])C([H])([H])[H])C([H])([H])[H])C(C([H])([H])[H])(C([H])([H])[H])C([H])([H])[H])C([H])([H])c2c([H])c(OC([H])([H])C([H])([H])OC([H])([H])C([H])([H])C([H])([H])OC([H])([H])C([H])([H])C([H])([H])[N+]([H])([H])C([H])([H])C([H])([H])OC([H])([H])C([H])([H])C([H])([H])C([H])([H])OC([H])([H])C([H])([H])C([H])([H])N([H])C(=O)N3C([H])([H])C([H])([H])C([H])([H])C([H])(n4nc(-c5c([H])c([H])c(Oc6c([H])c([H])c(F)c([H])c6F)c([H])c5[H])c(C(=O)N([H])[H])c4N([H])[H])C3([H])[H])c([H])c([H])c2C1([H])[H]

$$$$
69:0:0
     RDKit          3D

115122  0  0  1  0  0  0  0  0999 V2000
  -30.7810  -20.9630   23.7890 C   0  0  0  0  0  3  0  0  0  0  0  0
  -32.2910  -21.2280   23.9040 C   0  0  0  0  0  0  0  0  0  0  0  0
  -33.1000  -20.1700   23.7650 N   0  0  0  0  0  0  0  0  0  0  0  0
  -32.7110  -22.3770   24.0660 O   0  0  0  0  0  0  0  0  0  0  0  0
  -32.6580  -19.2700   23.6380 H   0  0  0  0  0  0  0  0  0  0  0  0
  -34.5350  -20.2280   23.4970 C   0  0  0  0  0  2  0  0  0  0  0  0
  -34.8360  -19.5350   22.1590 C   0  0  0  0  0  2  0  0  0  0  0  0
  -33.8880  -19.9550   21.1840 O   0  0  0  0  0  0  0  0  0  0  0  0
  -34.0550  -19.3040   19.9320 C   0  0  0  0  0  2  0  0  0  0  0  0
  -32.8290  -19.5750   19.0490 C   0  0  0  0  0  2  0  0  0  0  0  0
  -32.7780  -20.9520   18.6980 O   0  0  0  0  0  0  0  0  0  0  0  0
  -31.5570  -21.2970   18.0590 C   0  0  0  0  0  2  0  0  0  0  0  0
  -31.5640  -22.7920   17.7220 C   0  0  0  0  0  2  0  0  0  0  0  0
  -30.3360  -23.1420   17.0990 O   0  0  0  0  0  0  0  0  0  0  0  0
  -30.2860  -24.5190   16.7420 C   0  0  0  0  0  2  0  0  0  0  0  0
  -28.9120  -24.8000   16.1250 C   0  0  0  0  0  2  0  0  0  0  0  0
  -27.8210  -24.5290   17.0830 N   0  0  0  0  0  4  0  0  0  0  0  0
  -27.8650  -23.5720   17.3860 H   0  0  0  0  0  0  0  0  0  0  0  0
  -26.9260  -24.6860   16.6540 H   0  0  0  0  0  0  0  0  0  0  0  0
  -27.8910  -25.1230   17.8920 H   0  0  0  0  0  0  0  0  0  0  0  0
  -30.0800  -22.2430   23.5440 N   0  0  0  0  0  4  0  0  0  0  0  0
  -29.8620  -22.6410   24.4440 H   0  0  0  0  0  0  0  0  0  0  0  0
  -30.7630  -22.8710   23.1400 H   0  0  0  0  0  0  0  0  0  0  0  0
  -28.8800  -22.2420   22.6670 C   0  0  0  0  0  2  0  0  0  0  0  0
  -28.8880  -23.5010   21.7980 C   0  0  0  0  0  2  0  0  0  0  0  0
  -30.1410  -23.5000   21.1160 O   0  0  0  0  0  0  0  0  0  0  0  0
  -30.3460  -24.6660   20.3320 C   0  0  0  0  0  2  0  0  0  0  0  0
  -31.7670  -24.6330   19.7540 C   0  0  0  0  0  2  0  0  0  0  0  0
  -32.7010  -24.6850   20.8340 O   0  0  0  0  0  0  0  0  0  0  0  0
  -33.3090  -25.9590   21.0300 C   0  0  0  0  0  2  0  0  0  0  0  0
  -33.8630  -26.5950   19.7290 C   0  0  0  0  0  2  0  0  0  0  0  0
  -33.4440  -27.9590   19.6010 O   0  0  0  0  0  0  0  0  0  0  0  0
  -27.8760  -29.4110   23.7410 C   0  0  0  0  0  0  0  0  0  0  0  0
  -32.0850  -28.1600   19.6530 C   0  0  0  0  0  0  0  0  0  0  0  0
  -27.3410  -28.6210   21.4570 C   0  0  0  0  0  3  0  0  0  0  0  0
  -29.2960  -28.5420   19.8230 C   0  0  0  0  0  0  0  0  0  0  0  0
  -29.5140  -29.8820   21.9240 C   0  0  0  0  0  2  0  0  0  0  0  0
  -30.1390  -29.0920   20.7960 C   0  0  0  0  0  0  0  0  0  0  0  0
  -31.5340  -28.9080   20.7120 C   0  0  0  0  0  3  0  0  0  0  0  0
  -31.2280  -27.6260   18.6670 C   0  0  0  0  0  3  0  0  0  0  0  0
  -29.8330  -27.8050   18.7550 C   0  0  0  0  0  3  0  0  0  0  0  0
  -27.8140  -28.7840   19.9890 C   0  0  0  0  0  2  0  0  0  0  0  0
  -28.2530  -29.2970   22.4350 N   0  0  0  0  0  0  0  0  0  0  0  0
  -26.7720  -29.0040   24.1250 O   0  0  0  0  0  0  0  0  0  0  0  0
  -27.1400  -27.1150   21.7460 C   0  0  0  0  0  0  0  0  0  0  0  0
  -26.0140  -26.5610   21.2670 N   0  0  0  0  0  0  0  0  0  0  0  0
  -27.9920  -26.4690   22.3610 O   0  0  0  0  0  0  0  0  0  0  0  0
  -25.3620  -27.1610   20.7830 H   0  0  0  0  0  0  0  0  0  0  0  0
  -23.4240  -24.1790   20.4540 C   0  0  0  0  0  0  0  0  0  0  0  0
  -25.6300  -25.1550   21.3830 C   0  0  0  0  0  3  0  0  0  0  0  0
  -26.3410  -24.2940   20.3140 C   0  0  0  0  0  2  0  0  0  0  0  0
  -25.5150  -24.1140   19.0380 C   0  0  0  0  0  2  0  0  0  0  0  0
  -24.1710  -23.4520   19.3500 C   0  0  0  0  0  2  0  0  0  0  0  0
  -24.1060  -24.9900   21.3990 C   0  0  0  0  0  0  0  0  0  0  0  0
  -23.3580  -25.6720   22.3830 C   0  0  0  0  0  3  0  0  0  0  0  0
  -21.9570  -25.5490   22.4360 C   0  0  0  0  0  3  0  0  0  0  0  0
  -21.2880  -24.7290   21.5100 C   0  0  0  0  0  3  0  0  0  0  0  0
  -22.0220  -24.0440   20.5240 C   0  0  0  0  0  3  0  0  0  0  0  0
  -28.8020  -30.0760   24.8060 C   0  0  0  0  0  3  0  0  0  0  0  0
  -28.0790  -31.2240   25.3670 N   0  0  0  0  0  0  0  0  0  0  0  0
  -28.2730  -32.4980   25.0010 C   0  0  0  0  0  0  0  0  0  0  0  0
  -29.1460  -32.8380   24.1980 O   0  0  0  0  0  0  0  0  0  0  0  0
  -27.3120  -31.0160   25.9890 H   0  0  0  0  0  0  0  0  0  0  0  0
  -26.2360  -33.9300   24.6390 C   0  0  0  0  0  1  0  0  0  0  0  0
  -27.3560  -33.5660   25.6290 C   0  0  0  0  0  3  0  0  0  0  0  0
  -28.9870  -34.5750   27.1630 C   0  0  0  0  0  1  0  0  0  0  0  0
  -28.0770  -34.7910   26.0400 N   0  0  0  0  0  0  0  0  0  0  0  0
  -27.4250  -35.5280   26.2950 H   0  0  0  0  0  0  0  0  0  0  0  0
  -29.2500  -29.0820   25.9460 C   0  0  1  0  0  0  0  0  0  0  0  0
  -28.0740  -28.3270   26.6130 C   0  0  0  0  0  1  0  0  0  0  0  0
  -30.2400  -28.0280   25.3950 C   0  0  0  0  0  1  0  0  0  0  0  0
  -30.0060  -29.8600   27.0490 C   0  0  0  0  0  1  0  0  0  0  0  0
  -30.5410  -18.5950   22.9070 C   0  0  0  0  0  3  0  0  0  0  0  0
  -30.4640  -19.9230   22.7270 C   0  0  0  0  0  3  0  0  0  0  0  0
  -30.2970  -17.5940   21.8050 C   0  0  0  0  0  2  0  0  0  0  0  0
  -31.5180  -17.5220   20.8740 C   0  0  0  0  0  2  0  0  0  0  0  0
  -32.0290  -16.1030   20.5950 C   0  0  0  0  0  2  0  0  0  0  0  0
  -30.9500  -14.3540   19.1760 C   0  0  0  0  0  0  0  0  0  0  0  0
  -30.7640  -11.9190   18.9150 C   0  0  0  0  0  2  0  0  0  0  0  0
  -29.7620  -11.4210   17.8670 C   0  0  0  0  0  2  0  0  0  0  0  0
  -28.3610  -11.3020   18.4860 C   0  0  0  0  0  2  0  0  0  0  0  0
  -27.9230  -12.6060   19.2010 C   0  0  0  0  0  3  0  0  0  0  0  0
  -29.0170  -13.1030   20.1730 C   0  0  0  0  0  2  0  0  0  0  0  0
  -30.2980  -13.2030   19.4490 N   0  0  0  0  0  0  0  0  0  0  0  0
  -31.7090  -14.5120   18.2130 O   0  0  0  0  0  0  0  0  0  0  0  0
  -30.9640  -15.1710   20.2350 N   0  0  0  0  0  0  0  0  0  0  0  0
  -30.3420  -14.9000   20.9820 H   0  0  0  0  0  0  0  0  0  0  0  0
  -25.7300  -13.3930   20.2980 C   0  0  0  0  0  0  0  0  0  0  0  0
  -24.6580  -12.7050   20.7980 C   0  0  0  0  0  0  0  0  0  0  0  0
  -24.9710  -11.3210   20.6420 C   0  0  0  0  0  0  0  0  0  0  0  0
  -26.6370  -12.4350   19.8750 N   0  0  0  0  0  0  0  0  0  0  0  0
  -26.1900  -11.1780   20.1360 N   0  0  0  0  0  0  0  0  0  0  0  0
  -24.1600  -10.1220   20.8960 C   0  0  0  0  0  0  0  0  0  0  0  0
  -24.5100   -9.1940   21.9010 C   0  0  0  0  0  3  0  0  0  0  0  0
  -23.7060   -8.0580   22.1380 C   0  0  0  0  0  3  0  0  0  0  0  0
  -22.5370   -7.8430   21.3700 C   0  0  0  0  0  0  0  0  0  0  0  0
  -22.2060   -8.7580   20.3560 C   0  0  0  0  0  3  0  0  0  0  0  0
  -23.0100   -9.8850   20.1170 C   0  0  0  0  0  3  0  0  0  0  0  0
  -21.7100   -6.7550   21.5100 O   0  0  0  0  0  0  0  0  0  0  0  0
  -21.4500   -6.2030   22.7390 C   0  0  0  0  0  0  0  0  0  0  0  0
  -20.8780   -6.9570   23.7880 C   0  0  0  0  0  3  0  0  0  0  0  0
  -20.5620   -6.3340   25.0120 C   0  0  0  0  0  3  0  0  0  0  0  0
  -20.8060   -4.9590   25.1870 C   0  0  0  0  0  0  0  0  0  0  0  0
  -21.3700   -4.2060   24.1410 C   0  0  0  0  0  3  0  0  0  0  0  0
  -21.6880   -4.8260   22.9210 C   0  0  0  0  0  0  0  0  0  0  0  0
  -22.2120   -4.0910   21.9100 F   0  0  0  0  0  0  0  0  0  0  0  0
  -20.4960   -4.3580   26.3590 F   0  0  0  0  0  0  0  0  0  0  0  0
  -23.3730  -13.2950   21.3060 C   0  0  0  0  0  0  0  0  0  0  0  0
  -22.7510  -12.6530   22.2900 N   0  0  0  0  0  0  0  0  0  0  0  0
  -22.9380  -14.3570   20.8660 O   0  0  0  0  0  0  0  0  0  0  0  0
  -23.1180  -11.7910   22.6660 H   0  0  0  0  0  0  0  0  0  0  0  0
  -21.8950  -13.0290   22.6730 H   0  0  0  0  0  0  0  0  0  0  0  0
  -26.0050  -14.7510   20.1480 N   0  0  0  0  0  0  0  0  0  0  0  0
  -25.3400  -15.4730   20.4060 H   0  0  0  0  0  0  0  0  0  0  0  0
  -26.8560  -15.1170   19.7420 H   0  0  0  0  0  0  0  0  0  0  0  0
  1 74  1  0
  1  2  1  0
  2  4  2  0
  3  2  1  0
  5  3  1  0
  6  3  1  0
  7  6  1  0
  8  7  1  0
  9  8  1  0
 10  9  1  0
 11 10  1  0
 12 11  1  0
 13 12  1  0
 14 13  1  0
 15 14  1  0
 16 15  1  0
 16 17  1  0
 17 18  1  0
 17 20  1  0
 19 17  1  0
 21  1  1  0
 21 22  1  0
 23 21  1  0
 24 21  1  0
 25 24  1  0
 26 25  1  0
 27 26  1  0
 28 27  1  0
 28 29  1  0
 29 30  1  0
 31 30  1  0
 32 34  1  0
 32 31  1  0
 33 44  2  0
 34 39  1  0
 35 45  1  0
 35 43  1  0
 36 42  1  0
 36 38  1  0
 37 43  1  0
 38 37  1  0
 39 38  2  0
 40 41  1  0
 40 34  2  0
 41 36  2  0
 42 35  1  0
 43 33  1  0
 45 47  2  0
 46 45  1  0
 48 46  1  0
 49 58  2  0
 49 54  1  0
 50 46  1  0
 50 54  1  0
 51 50  1  0
 52 53  1  0
 52 51  1  0
 53 49  1  0
 54 55  2  0
 55 56  1  0
 57 56  2  0
 58 57  1  0
 59 33  1  0
 59 60  1  0
 59 69  1  0
 60 63  1  0
 61 60  1  0
 61 65  1  0
 62 61  2  0
 65 64  1  0
 65 67  1  0
 67 68  1  0
 67 66  1  0
 69 70  1  1
 69 72  1  0
 71 69  1  0
 74 73  2  0
 75 73  1  0
 76 75  1  0
 77 76  1  0
 78 84  1  0
 78 86  1  0
 79 84  1  0
 80 81  1  0
 80 79  1  0
 82 81  1  0
 82 91  1  0
 82 83  1  0
 84 83  1  0
 85 78  2  0
 86 77  1  0
 86 87  1  0
 88 89  2  0
 89108  1  0
 90 89  1  0
 90 93  1  0
 91 92  1  0
 91 88  1  0
 92 90  2  0
 93 94  1  0
 94 95  2  0
 96 99  1  0
 96 95  1  0
 97 96  2  0
 98 97  1  0
 98 93  2  0
 99100  1  0
100105  2  0
100101  1  0
101102  2  0
102103  1  0
103107  1  0
104103  2  0
105104  1  0
106105  1  0
108109  1  0
109111  1  0
109112  1  0
110108  2  0
113 88  1  0
113114  1  0
115113  1  0
M  ISO  4  31 101  32 101  78 100  86 100
M  END
>  <TORSDO>  (65) 
F 42

>  <SCORE>  (65) 
-1.792

>  <name>  (65) 
69

>  <ligand_id>  (65) 
69

>  <original_smiles>  (65) 
[H]C(=C([H])C([H])(C(=O)N([H])C([H])([H])C([H])([H])OC([H])([H])C([H])([H])OC([H])([H])C([H])([H])OC([H])([H])C([H])([H])[N+]([H])([H])[H])[N+]([H])([H])C([H])([H])C([H])([H])OC([H])([H])C([H])([H])OC([H])([H])C([H])([H])Oc1c([H])c([H])c2c(c1[H])C([H])([H])N(C(=O)C([H])(N([H])C(=O)C([H])(N([H])C([H])([H])[H])C([H])([H])[H])C(C([H])([H])[H])(C([H])([H])[H])C([H])([H])[H])C([H])(C(=O)N([H])C1([H])c3c([H])c([H])c([H])c([H])c3C([H])([H])C([H])([H])C1([H])[H])C2([H])[H])C([H])([H])C([H])([H])C([H])([H])N([H])C(=O)N1C([H])([H])C([H])([H])C([H])([H])C([H])(n2nc(-c3c([H])c([H])c(Oc4c([H])c([H])c(F)c([H])c4F)c([H])c3[H])c(C(=O)N([H])[H])c2N([H])[H])C1([H])[H]

>  <smiles>  (65) 
[H]C(=C([H])C([H])(C(=O)N([H])C([H])([H])C([H])([H])OC([H])([H])C([H])([H])OC([H])([H])C([H])([H])OC([H])([H])C([H])([H])[N+]([H])([H])[H])[N+]([H])([H])C([H])([H])C([H])([H])OC([H])([H])C([H])([H])OC([H])([H])C([H])([H])Oc1c([H])c([H])c2c(c1[H])C([H])([H])N(C(=O)C([H])(N([H])C(=O)C([H])(N([H])C([H])([H])[H])C([H])([H])[H])C(C([H])([H])[H])(C([H])([H])[H])C([H])([H])[H])C([H])(C(=O)N([H])C1([H])c3c([H])c([H])c([H])c([H])c3C([H])([H])C([H])([H])C1([H])[H])C2([H])[H])C([H])([H])C([H])([H])C([H])([H])N([H])C(=O)N1C([H])([H])C([H])([H])C([H])([H])C([H])(n2nc(-c3c([H])c([H])c(Oc4c([H])c([H])c(F)c([H])c4F)c([H])c3[H])c(C(=O)N([H])[H])c2N([H])[H])C1([H])[H]

$$$$
70:0:0
     RDKit          3D

 95103  0  0  1  0  0  0  0  0999 V2000
  -33.3170  -21.5010   20.0680 C   0  0  0  0  0  2  0  0  0  0  0  0
  -32.7010  -20.1180   20.3690 C   0  0  0  0  0  2  0  0  0  0  0  0
  -31.6810  -19.7810   19.3830 N   0  0  0  0  0  0  0  0  0  0  0  0
  -31.2910  -20.6180   18.9580 H   0  0  0  0  0  0  0  0  0  0  0  0
  -28.3460  -18.2980   20.0250 C   0  0  0  0  0  3  0  0  0  0  0  0
  -28.6770  -16.9890   20.4230 C   0  0  0  0  0  3  0  0  0  0  0  0
  -29.3630  -19.2080   19.6810 C   0  0  0  0  0  3  0  0  0  0  0  0
  -31.0520  -17.5070   20.1640 C   0  0  0  0  0  3  0  0  0  0  0  0
  -30.0240  -16.5690   20.4630 C   0  0  0  0  0  0  0  0  0  0  0  0
  -30.7180  -18.8290   19.7560 C   0  0  0  0  0  0  0  0  0  0  0  0
  -30.7740  -14.2580   20.0050 C   0  0  0  0  0  0  0  0  0  0  0  0
  -30.3840  -12.0310   18.9980 C   0  0  0  0  0  2  0  0  0  0  0  0
  -29.4010  -12.1970   17.8190 C   0  0  0  0  0  2  0  0  0  0  0  0
  -27.9410  -12.1130   18.3110 C   0  0  0  0  0  2  0  0  0  0  0  0
  -27.6740  -13.0310   19.5340 C   0  0  0  0  0  3  0  0  0  0  0  0
  -28.7700  -12.8430   20.6110 C   0  0  0  0  0  2  0  0  0  0  0  0
  -30.0870  -13.0820   19.9850 N   0  0  0  0  0  0  0  0  0  0  0  0
  -31.8010  -14.4520   19.3410 O   0  0  0  0  0  0  0  0  0  0  0  0
  -30.2560  -15.2020   20.8090 N   0  0  0  0  0  0  0  0  0  0  0  0
  -29.5670  -14.8140   21.4380 H   0  0  0  0  0  0  0  0  0  0  0  0
  -25.3530  -13.7490   20.3970 C   0  0  0  0  0  0  0  0  0  0  0  0
  -24.2690  -13.0280   20.8230 C   0  0  0  0  0  0  0  0  0  0  0  0
  -24.6580  -11.6540   20.7500 C   0  0  0  0  0  0  0  0  0  0  0  0
  -26.3350  -12.8200   20.0860 N   0  0  0  0  0  0  0  0  0  0  0  0
  -25.9210  -11.5530   20.3520 N   0  0  0  0  0  0  0  0  0  0  0  0
  -23.8830  -10.4280   20.9860 C   0  0  0  0  0  0  0  0  0  0  0  0
  -24.3390   -9.4220   21.8700 C   0  0  0  0  0  3  0  0  0  0  0  0
  -23.5680   -8.2610   22.0930 C   0  0  0  0  0  3  0  0  0  0  0  0
  -22.3270   -8.0970   21.4340 C   0  0  0  0  0  0  0  0  0  0  0  0
  -21.8870   -9.0920   20.5420 C   0  0  0  0  0  3  0  0  0  0  0  0
  -22.6590  -10.2430   20.3150 C   0  0  0  0  0  3  0  0  0  0  0  0
  -21.5250   -6.9890   21.5650 O   0  0  0  0  0  0  0  0  0  0  0  0
  -21.5450   -6.2150   22.6960 C   0  0  0  0  0  0  0  0  0  0  0  0
  -21.2740   -6.7540   23.9740 C   0  0  0  0  0  3  0  0  0  0  0  0
  -21.2390   -5.9090   25.1010 C   0  0  0  0  0  3  0  0  0  0  0  0
  -21.4650   -4.5270   24.9530 C   0  0  0  0  0  0  0  0  0  0  0  0
  -21.7290   -3.9880   23.6820 C   0  0  0  0  0  3  0  0  0  0  0  0
  -21.7660   -4.8300   22.5560 C   0  0  0  0  0  0  0  0  0  0  0  0
  -22.0020   -4.3030   21.3290 F   0  0  0  0  0  0  0  0  0  0  0  0
  -21.4230   -3.7120   26.0330 F   0  0  0  0  0  0  0  0  0  0  0  0
  -22.9180  -13.5710   21.1910 C   0  0  0  0  0  0  0  0  0  0  0  0
  -22.2130  -12.9140   22.1080 N   0  0  0  0  0  0  0  0  0  0  0  0
  -22.4910  -14.6160   20.7000 O   0  0  0  0  0  0  0  0  0  0  0  0
  -22.5700  -12.0720   22.5350 H   0  0  0  0  0  0  0  0  0  0  0  0
  -21.3090  -13.2680   22.3920 H   0  0  0  0  0  0  0  0  0  0  0  0
  -25.5800  -15.1110   20.2350 N   0  0  0  0  0  0  0  0  0  0  0  0
  -24.8870  -15.8040   20.4870 H   0  0  0  0  0  0  0  0  0  0  0  0
  -26.4520  -15.5140   19.9150 H   0  0  0  0  0  0  0  0  0  0  0  0
  -32.3600  -22.5250   20.3320 O   0  0  0  0  0  0  0  0  0  0  0  0
  -32.8730  -23.8380   20.1020 C   0  0  0  0  0  2  0  0  0  0  0  0
  -32.0210  -24.8910   20.8340 C   0  0  0  0  0  2  0  0  0  0  0  0
  -31.0100  -25.4110   19.9780 O   0  0  0  0  0  0  0  0  0  0  0  0
  -30.3470  -26.5370   20.5470 C   0  0  0  0  0  2  0  0  0  0  0  0
  -29.4300  -27.1960   19.5050 C   0  0  0  0  0  2  0  0  0  0  0  0
  -28.1340  -26.5910   19.5480 O   0  0  0  0  0  0  0  0  0  0  0  0
  -24.4780  -31.6780   23.0300 C   0  0  0  0  0  0  0  0  0  0  0  0
  -27.0080  -27.3750   19.6870 C   0  0  0  0  0  0  0  0  0  0  0  0
  -23.2000  -30.3480   21.3740 C   0  0  0  0  0  3  0  0  0  0  0  0
  -24.5970  -28.8500   19.8490 C   0  0  0  0  0  0  0  0  0  0  0  0
  -25.7140  -30.7050   21.1050 C   0  0  0  0  0  2  0  0  0  0  0  0
  -25.7710  -29.3600   20.4150 C   0  0  0  0  0  0  0  0  0  0  0  0
  -26.9720  -28.6270   20.3490 C   0  0  0  0  0  3  0  0  0  0  0  0
  -25.8100  -26.8650   19.1420 C   0  0  0  0  0  3  0  0  0  0  0  0
  -24.6080  -27.5950   19.2150 C   0  0  0  0  0  3  0  0  0  0  0  0
  -23.3590  -29.7070   19.9660 C   0  0  0  0  0  2  0  0  0  0  0  0
  -24.4830  -30.9220   21.8950 N   0  0  0  0  0  0  0  0  0  0  0  0
  -23.4180  -31.9400   23.6170 O   0  0  0  0  0  0  0  0  0  0  0  0
  -22.5720  -29.3010   22.3210 C   0  0  0  0  0  0  0  0  0  0  0  0
  -21.2400  -29.1490   22.2410 N   0  0  0  0  0  0  0  0  0  0  0  0
  -23.2760  -28.6280   23.0790 O   0  0  0  0  0  0  0  0  0  0  0  0
  -20.7360  -29.7420   21.5970 H   0  0  0  0  0  0  0  0  0  0  0  0
  -17.8650  -28.0030   22.8250 C   0  0  0  0  0  0  0  0  0  0  0  0
  -20.4360  -28.1940   23.0010 C   0  0  0  0  0  3  0  0  0  0  0  0
  -20.4820  -26.7890   22.3600 C   0  0  0  0  0  2  0  0  0  0  0  0
  -19.3320  -26.5370   21.3780 C   0  0  0  0  0  2  0  0  0  0  0  0
  -17.9820  -26.6820   22.0840 C   0  0  0  0  0  2  0  0  0  0  0  0
  -19.0170  -28.7210   23.2400 C   0  0  0  0  0  0  0  0  0  0  0  0
  -18.8520  -29.9620   23.8930 C   0  0  0  0  0  3  0  0  0  0  0  0
  -17.5660  -30.4860   24.1320 C   0  0  0  0  0  3  0  0  0  0  0  0
  -16.4290  -29.7620   23.7320 C   0  0  0  0  0  3  0  0  0  0  0  0
  -16.5790  -28.5220   23.0860 C   0  0  0  0  0  3  0  0  0  0  0  0
  -25.7940  -32.2670   23.6310 C   0  0  0  0  0  3  0  0  0  0  0  0
  -26.3660  -31.4210   24.8340 C   0  0  1  0  0  0  0  0  0  0  0  0
  -25.3230  -31.1310   25.9390 C   0  0  0  0  0  1  0  0  0  0  0  0
  -26.9150  -30.0630   24.3350 C   0  0  0  0  0  1  0  0  0  0  0  0
  -27.5560  -32.1690   25.4820 C   0  0  0  0  0  1  0  0  0  0  0  0
  -25.5100  -33.6460   24.0480 N   0  0  0  0  0  0  0  0  0  0  0  0
  -25.8300  -34.7360   23.3380 C   0  0  0  0  0  0  0  0  0  0  0  0
  -26.4630  -34.6860   22.2800 O   0  0  0  0  0  0  0  0  0  0  0  0
  -24.9400  -33.7610   24.8740 H   0  0  0  0  0  0  0  0  0  0  0  0
  -24.1040  -36.5520   23.1380 C   0  0  0  0  0  1  0  0  0  0  0  0
  -25.3680  -36.0990   23.8860 C   0  0  0  0  0  3  0  0  0  0  0  0
  -27.5370  -36.9200   24.6900 C   0  0  0  0  0  1  0  0  0  0  0  0
  -26.4040  -37.1510   23.7990 N   0  0  0  0  0  0  0  0  0  0  0  0
  -26.0100  -38.0630   24.0120 H   0  0  0  0  0  0  0  0  0  0  0  0
  1 49  1  0
  1  2  1  0
  3 10  1  0
  3  2  1  0
  4  3  1  0
  5  6  1  0
  6  9  2  0
  7 10  1  0
  7  5  2  0
  8  9  1  0
  9 19  1  0
 10  8  2  0
 11 19  1  0
 12 17  1  0
 13 14  1  0
 13 12  1  0
 15 14  1  0
 15 24  1  0
 15 16  1  0
 17 11  1  0
 17 16  1  0
 18 11  2  0
 19 20  1  0
 21 22  2  0
 22 41  1  0
 23 22  1  0
 23 26  1  0
 24 25  1  0
 24 21  1  0
 25 23  2  0
 26 27  1  0
 27 28  2  0
 29 32  1  0
 29 28  1  0
 30 29  2  0
 31 30  1  0
 31 26  2  0
 32 33  1  0
 33 34  1  0
 34 35  2  0
 36 35  1  0
 36 40  1  0
 37 36  2  0
 38 33  2  0
 38 37  1  0
 39 38  1  0
 41 42  1  0
 42 45  1  0
 42 44  1  0
 43 41  2  0
 46 21  1  0
 46 47  1  0
 48 46  1  0
 50 49  1  0
 50 51  1  0
 52 53  1  0
 52 51  1  0
 54 55  1  0
 54 53  1  0
 55 57  1  0
 56 67  2  0
 57 62  1  0
 58 66  1  0
 58 68  1  0
 59 65  1  0
 59 61  1  0
 60 66  1  0
 61 60  1  0
 62 61  2  0
 63 64  1  0
 63 57  2  0
 64 59  2  0
 65 58  1  0
 66 56  1  0
 68 70  2  0
 69 68  1  0
 71 69  1  0
 72 81  2  0
 72 77  1  0
 73 69  1  0
 73 77  1  0
 74 73  1  0
 75 76  1  0
 75 74  1  0
 76 72  1  0
 77 78  2  0
 78 79  1  0
 80 79  2  0
 81 80  1  0
 82 56  1  0
 82 87  1  0
 82 83  1  0
 83 86  1  1
 83 84  1  0
 85 83  1  0
 87 90  1  0
 88 92  1  0
 88 87  1  0
 89 88  2  0
 92 91  1  0
 94 92  1  0
 94 95  1  0
 94 93  1  0
M  ISO  4  11 100  19 100  54 101  55 101
M  END
>  <TORSDO>  (66) 
F 25

>  <SCORE>  (66) 
-11.539

>  <name>  (66) 
70

>  <ligand_id>  (66) 
70

>  <original_smiles>  (66) 
[H]c1c([H])c(N([H])C(=O)N2C([H])([H])C([H])([H])C([H])([H])C([H])(n3nc(-c4c([H])c([H])c(Oc5c([H])c([H])c(F)c([H])c5F)c([H])c4[H])c(C(=O)N([H])[H])c3N([H])[H])C2([H])[H])c([H])c(N([H])C([H])([H])C([H])([H])OC([H])([H])C([H])([H])OC([H])([H])C([H])([H])Oc2c([H])c([H])c3c(c2[H])C([H])([H])N(C(=O)C([H])(N([H])C(=O)C([H])(N([H])C([H])([H])[H])C([H])([H])[H])C(C([H])([H])[H])(C([H])([H])[H])C([H])([H])[H])C([H])(C(=O)N([H])C2([H])c4c([H])c([H])c([H])c([H])c4C([H])([H])C([H])([H])C2([H])[H])C3([H])[H])c1[H]

>  <smiles>  (66) 
[H]c1c([H])c(N([H])C(=O)N2C([H])([H])C([H])([H])C([H])([H])C([H])(n3nc(-c4c([H])c([H])c(Oc5c([H])c([H])c(F)c([H])c5F)c([H])c4[H])c(C(=O)N([H])[H])c3N([H])[H])C2([H])[H])c([H])c(N([H])C([H])([H])C([H])([H])OC([H])([H])C([H])([H])OC([H])([H])C([H])([H])Oc2c([H])c([H])c3c(c2[H])C([H])([H])N(C(=O)C([H])(N([H])C(=O)C([H])(N([H])C([H])([H])[H])C([H])([H])[H])C(C([H])([H])[H])(C([H])([H])[H])C([H])([H])[H])C([H])(C(=O)N([H])C2([H])c4c([H])c([H])c([H])c([H])c4C([H])([H])C([H])([H])C2([H])[H])C3([H])[H])c1[H]

$$$$
71:0:0
     RDKit          3D

100107  0  0  1  0  0  0  0  0999 V2000
  -27.9130  -19.7330   15.9490 C   0  0  0  0  0  0  0  0  0  0  0  0
  -28.0760  -20.8570   16.6650 N   0  0  0  0  0  0  0  0  0  0  0  0
  -26.8130  -19.1800   15.8520 O   0  0  0  0  0  0  0  0  0  0  0  0
  -29.0070  -21.2450   16.6110 H   0  0  0  0  0  0  0  0  0  0  0  0
  -28.8960  -17.6830   14.8190 C   0  0  0  0  0  1  0  0  0  0  0  0
  -29.2120  -19.0620   15.4300 C   0  0  0  0  0  3  0  0  0  0  0  0
  -30.9610  -19.6980   17.1180 C   0  0  0  0  0  0  0  0  0  0  0  0
  -30.0930  -18.8210   16.5820 N   0  0  0  0  0  0  0  0  0  0  0  0
  -31.3640  -20.6590   16.4680 O   0  0  0  0  0  0  0  0  0  0  0  0
  -29.8480  -18.0170   17.1410 H   0  0  0  0  0  0  0  0  0  0  0  0
  -30.5040  -18.6860   19.3280 C   0  0  0  0  0  3  0  0  0  0  0  0
  -31.2320  -19.5050   18.5390 C   0  0  0  0  0  3  0  0  0  0  0  0
  -31.7740  -16.3950   20.5270 C   0  0  0  0  0  0  0  0  0  0  0  0
  -31.6620  -14.3290   19.2270 C   0  0  0  0  0  2  0  0  0  0  0  0
  -30.8090  -14.6570   17.9810 C   0  0  0  0  0  2  0  0  0  0  0  0
  -29.3110  -14.4360   18.2830 C   0  0  0  0  0  2  0  0  0  0  0  0
  -28.8480  -15.1210   19.5990 C   0  0  0  0  0  3  0  0  0  0  0  0
  -29.8310  -14.8030   20.7490 C   0  0  0  0  0  2  0  0  0  0  0  0
  -31.1910  -15.1830   20.3240 N   0  0  0  0  0  0  0  0  0  0  0  0
  -32.8780  -16.7030   20.0640 O   0  0  0  0  0  0  0  0  0  0  0  0
  -30.7390  -18.5470   20.7600 C   0  0  0  0  0  0  0  0  0  0  0  0
  -31.0020  -17.2890   21.1620 N   0  0  0  0  0  0  0  0  0  0  0  0
  -30.5000  -19.4420   21.5730 O   0  0  0  0  0  0  0  0  0  0  0  0
  -30.5980  -16.9910   22.0340 H   0  0  0  0  0  0  0  0  0  0  0  0
  -26.3450  -15.5780   20.0220 C   0  0  0  0  0  0  0  0  0  0  0  0
  -25.2980  -14.7430   20.3250 C   0  0  0  0  0  0  0  0  0  0  0  0
  -25.8570  -13.4330   20.4120 C   0  0  0  0  0  0  0  0  0  0  0  0
  -27.4680  -14.7700   19.9450 N   0  0  0  0  0  0  0  0  0  0  0  0
  -27.1730  -13.4790   20.2390 N   0  0  0  0  0  0  0  0  0  0  0  0
  -25.2080  -12.1320   20.6090 C   0  0  0  0  0  0  0  0  0  0  0  0
  -25.5180  -11.3260   21.7240 C   0  0  0  0  0  3  0  0  0  0  0  0
  -24.8730  -10.0810   21.8980 C   0  0  0  0  0  3  0  0  0  0  0  0
  -23.9110   -9.6430   20.9560 C   0  0  0  0  0  0  0  0  0  0  0  0
  -23.6160  -10.4470   19.8430 C   0  0  0  0  0  3  0  0  0  0  0  0
  -24.2630  -11.6810   19.6680 C   0  0  0  0  0  3  0  0  0  0  0  0
  -23.2540   -8.4360   21.0290 O   0  0  0  0  0  0  0  0  0  0  0  0
  -22.7830   -7.9450   22.2200 C   0  0  0  0  0  0  0  0  0  0  0  0
  -21.8770   -8.6790   23.0160 C   0  0  0  0  0  3  0  0  0  0  0  0
  -21.3570   -8.1150   24.1980 C   0  0  0  0  0  3  0  0  0  0  0  0
  -21.7380   -6.8140   24.5830 C   0  0  0  0  0  0  0  0  0  0  0  0
  -22.6420   -6.0810   23.7920 C   0  0  0  0  0  3  0  0  0  0  0  0
  -23.1580   -6.6460   22.6140 C   0  0  0  0  0  0  0  0  0  0  0  0
  -24.0050   -5.9280   21.8440 F   0  0  0  0  0  0  0  0  0  0  0  0
  -21.2420   -6.2660   25.7160 F   0  0  0  0  0  0  0  0  0  0  0  0
  -23.8490  -15.1260   20.4230 C   0  0  0  0  0  0  0  0  0  0  0  0
  -23.0740  -14.4320   21.2560 N   0  0  0  0  0  0  0  0  0  0  0  0
  -23.3990  -16.0740   19.7850 O   0  0  0  0  0  0  0  0  0  0  0  0
  -23.4420  -13.6910   21.8290 H   0  0  0  0  0  0  0  0  0  0  0  0
  -22.0920  -14.6640   21.3310 H   0  0  0  0  0  0  0  0  0  0  0  0
  -26.4250  -16.9470   19.7960 N   0  0  0  0  0  0  0  0  0  0  0  0
  -25.6050  -17.5490   19.8390 H   0  0  0  0  0  0  0  0  0  0  0  0
  -27.2850  -17.4610   19.6990 H   0  0  0  0  0  0  0  0  0  0  0  0
  -27.4490  -20.9520   17.9580 C   0  0  0  0  0  2  0  0  0  0  0  0
  -27.9660  -22.0460   18.6510 O   0  0  0  0  0  0  0  0  0  0  0  0
  -28.4110  -21.6750   19.9590 C   0  0  0  0  0  2  0  0  0  0  0  0
  -28.7570  -22.8920   20.8060 C   0  0  0  0  0  2  0  0  0  0  0  0
  -29.8960  -23.5820   20.2910 O   0  0  0  0  0  0  0  0  0  0  0  0
  -30.0040  -24.9440   20.7090 C   0  0  0  0  0  2  0  0  0  0  0  0
  -28.7770  -25.7630   20.2780 C   0  0  0  0  0  2  0  0  0  0  0  0
  -28.8420  -27.1440   20.6190 O   0  0  0  0  0  0  0  0  0  0  0  0
  -24.8920  -32.2050   23.6770 C   0  0  0  0  0  0  0  0  0  0  0  0
  -27.6330  -27.8120   20.6300 C   0  0  0  0  0  0  0  0  0  0  0  0
  -23.7070  -30.7570   22.0640 C   0  0  0  0  0  3  0  0  0  0  0  0
  -25.1920  -29.2400   20.6560 C   0  0  0  0  0  0  0  0  0  0  0  0
  -26.2270  -31.1730   21.8460 C   0  0  0  0  0  2  0  0  0  0  0  0
  -26.3410  -29.8020   21.2250 C   0  0  0  0  0  0  0  0  0  0  0  0
  -27.5630  -29.0930   21.2180 C   0  0  0  0  0  3  0  0  0  0  0  0
  -26.4540  -27.2640   20.0630 C   0  0  0  0  0  3  0  0  0  0  0  0
  -25.2390  -27.9610   20.0840 C   0  0  0  0  0  3  0  0  0  0  0  0
  -23.9260  -30.0650   20.6940 C   0  0  0  0  0  2  0  0  0  0  0  0
  -24.9610  -31.3910   22.5880 N   0  0  0  0  0  0  0  0  0  0  0  0
  -23.8060  -32.4680   24.2120 O   0  0  0  0  0  0  0  0  0  0  0  0
  -23.0890  -29.7290   23.0390 C   0  0  0  0  0  0  0  0  0  0  0  0
  -21.8710  -29.2670   22.7170 N   0  0  0  0  0  0  0  0  0  0  0  0
  -23.7050  -29.3480   24.0370 O   0  0  0  0  0  0  0  0  0  0  0  0
  -21.4300  -29.6370   21.8870 H   0  0  0  0  0  0  0  0  0  0  0  0
  -18.8140  -27.3470   22.6930 C   0  0  0  0  0  0  0  0  0  0  0  0
  -21.1030  -28.2740   23.4610 C   0  0  0  0  0  3  0  0  0  0  0  0
  -21.6520  -26.8520   23.2120 C   0  0  0  0  0  2  0  0  0  0  0  0
  -20.9420  -26.1230   22.0680 C   0  0  0  0  0  2  0  0  0  0  0  0
  -19.4410  -26.0030   22.3590 C   0  0  0  0  0  2  0  0  0  0  0  0
  -19.5980  -28.4170   23.1960 C   0  0  0  0  0  0  0  0  0  0  0  0
  -18.9770  -29.6560   23.4620 C   0  0  0  0  0  3  0  0  0  0  0  0
  -17.5970  -29.8310   23.2410 C   0  0  0  0  0  3  0  0  0  0  0  0
  -16.8210  -28.7610   22.7620 C   0  0  0  0  0  3  0  0  0  0  0  0
  -17.4290  -27.5220   22.4920 C   0  0  0  0  0  3  0  0  0  0  0  0
  -26.1640  -32.8690   24.2840 C   0  0  0  0  0  3  0  0  0  0  0  0
  -26.6470  -32.1860   25.6220 C   0  0  1  0  0  0  0  0  0  0  0  0
  -25.5090  -31.9360   26.6410 C   0  0  0  0  0  1  0  0  0  0  0  0
  -27.3200  -30.8270   25.3230 C   0  0  0  0  0  1  0  0  0  0  0  0
  -27.7150  -33.0720   26.3050 C   0  0  0  0  0  1  0  0  0  0  0  0
  -25.8550  -34.2880   24.5080 N   0  0  0  0  0  0  0  0  0  0  0  0
  -26.1960  -35.2820   23.6770 C   0  0  0  0  0  0  0  0  0  0  0  0
  -26.8790  -35.1030   22.6640 O   0  0  0  0  0  0  0  0  0  0  0  0
  -25.2440  -34.5050   25.2820 H   0  0  0  0  0  0  0  0  0  0  0  0
  -24.4530  -37.0350   23.1960 C   0  0  0  0  0  1  0  0  0  0  0  0
  -25.7020  -36.7010   24.0260 C   0  0  0  0  0  3  0  0  0  0  0  0
  -27.8390  -37.6600   24.7650 C   0  0  0  0  0  1  0  0  0  0  0  0
  -26.7300  -37.7460   23.8210 N   0  0  0  0  0  0  0  0  0  0  0  0
  -26.3200  -38.6740   23.8940 H   0  0  0  0  0  0  0  0  0  0  0  0
  1  2  1  0
  2 53  1  0
  3  1  2  0
  4  2  1  0
  6  5  1  0
  6  1  1  0
  6  8  1  0
  7 12  1  0
  8  7  1  0
  8 10  1  0
  9  7  2  0
 11 21  1  0
 12 11  2  0
 13 22  1  0
 14 19  1  0
 15 16  1  0
 15 14  1  0
 17 16  1  0
 17 28  1  0
 17 18  1  0
 19 13  1  0
 19 18  1  0
 20 13  2  0
 21 22  1  0
 21 23  2  0
 22 24  1  0
 25 26  2  0
 26 27  1  0
 26 45  1  0
 27 30  1  0
 28 25  1  0
 28 29  1  0
 29 27  2  0
 30 31  1  0
 31 32  2  0
 33 36  1  0
 33 32  1  0
 34 33  2  0
 35 34  1  0
 35 30  2  0
 36 37  1  0
 37 42  2  0
 37 38  1  0
 38 39  2  0
 39 40  1  0
 40 44  1  0
 41 40  2  0
 42 41  1  0
 43 42  1  0
 45 46  1  0
 46 49  1  0
 46 48  1  0
 47 45  2  0
 50 51  1  0
 50 25  1  0
 52 50  1  0
 53 54  1  0
 54 55  1  0
 55 56  1  0
 57 58  1  0
 57 56  1  0
 59 60  1  0
 59 58  1  0
 60 62  1  0
 61 72  2  0
 62 67  1  0
 63 71  1  0
 63 73  1  0
 64 70  1  0
 64 66  1  0
 65 71  1  0
 66 65  1  0
 67 66  2  0
 68 69  1  0
 68 62  2  0
 69 64  2  0
 70 63  1  0
 71 61  1  0
 73 75  2  0
 74 73  1  0
 76 74  1  0
 77 82  1  0
 78 74  1  0
 79 78  1  0
 80 81  1  0
 80 79  1  0
 81 77  1  0
 82 78  1  0
 82 83  2  0
 84 83  1  0
 85 84  2  0
 86 77  2  0
 86 85  1  0
 87 61  1  0
 87 92  1  0
 87 88  1  0
 88 91  1  1
 88 89  1  0
 90 88  1  0
 92 95  1  0
 93 97  1  0
 93 92  1  0
 94 93  2  0
 97 96  1  0
 99100  1  0
 99 97  1  0
 99 98  1  0
M  ISO  4  13 100  22 100  59 101  60 101
M  END
>  <TORSDO>  (67) 
F 26

>  <SCORE>  (67) 
-4.719

>  <name>  (67) 
71

>  <ligand_id>  (67) 
71

>  <original_smiles>  (67) 
[H]C(C(=O)N([H])C(=O)N1C([H])([H])C([H])([H])C([H])([H])C([H])(n2nc(-c3c([H])c([H])c(Oc4c([H])c([H])c(F)c([H])c4F)c([H])c3[H])c(C(=O)N([H])[H])c2N([H])[H])C1([H])[H])=C([H])C(=O)N([H])C([H])(C(=O)N([H])C([H])([H])OC([H])([H])C([H])([H])OC([H])([H])C([H])([H])Oc1c([H])c([H])c2c(c1[H])C([H])([H])N(C(=O)C([H])(N([H])C(=O)C([H])(N([H])C([H])([H])[H])C([H])([H])[H])C(C([H])([H])[H])(C([H])([H])[H])C([H])([H])[H])C([H])(C(=O)N([H])C1([H])c3c([H])c([H])c([H])c([H])c3C([H])([H])C([H])([H])C1([H])[H])C2([H])[H])C([H])([H])[H]

>  <smiles>  (67) 
[H]C(C(=O)N([H])C(=O)N1C([H])([H])C([H])([H])C([H])([H])C([H])(n2nc(-c3c([H])c([H])c(Oc4c([H])c([H])c(F)c([H])c4F)c([H])c3[H])c(C(=O)N([H])[H])c2N([H])[H])C1([H])[H])=C([H])C(=O)N([H])C([H])(C(=O)N([H])C([H])([H])OC([H])([H])C([H])([H])OC([H])([H])C([H])([H])Oc1c([H])c([H])c2c(c1[H])C([H])([H])N(C(=O)C([H])(N([H])C(=O)C([H])(N([H])C([H])([H])[H])C([H])([H])[H])C(C([H])([H])[H])(C([H])([H])[H])C([H])([H])[H])C([H])(C(=O)N([H])C1([H])c3c([H])c([H])c([H])c([H])c3C([H])([H])C([H])([H])C1([H])[H])C2([H])[H])C([H])([H])[H]

$$$$
72:0:0
     RDKit          3D

101108  0  0  1  0  0  0  0  0999 V2000
  -27.9830  -19.1130   18.0860 C   0  0  0  0  0  2  0  0  0  0  0  0
  -27.1640  -18.7490   19.1930 O   0  0  0  0  0  0  0  0  0  0  0  0
  -27.9050  -18.1390   20.2440 C   0  0  0  0  0  2  0  0  0  0  0  0
  -29.1700  -18.9190   20.6460 C   0  0  0  0  0  2  0  0  0  0  0  0
  -29.9670  -18.2070   21.7620 C   0  0  0  0  0  2  0  0  0  0  0  0
  -32.0840  -17.2330   20.8570 C   0  0  0  0  0  0  0  0  0  0  0  0
  -30.7930  -17.1270   21.2100 N   0  0  0  0  0  0  0  0  0  0  0  0
  -32.7650  -18.2190   21.1420 O   0  0  0  0  0  0  0  0  0  0  0  0
  -30.3210  -16.2710   20.9610 H   0  0  0  0  0  0  0  0  0  0  0  0
  -32.6960  -16.0740   20.0460 C   0  0  0  0  0  3  0  0  0  0  0  0
  -32.6860  -13.5900   20.3240 C   0  0  0  0  0  0  0  0  0  0  0  0
  -32.2340  -11.1710   20.2200 C   0  0  0  0  0  2  0  0  0  0  0  0
  -31.3810  -10.8590   18.9730 C   0  0  0  0  0  2  0  0  0  0  0  0
  -29.8810  -11.0290   19.2760 C   0  0  0  0  0  2  0  0  0  0  0  0
  -29.5640  -12.3720   19.9820 C   0  0  0  0  0  3  0  0  0  0  0  0
  -30.5230  -12.6090   21.1690 C   0  0  0  0  0  2  0  0  0  0  0  0
  -31.9020  -12.5330   20.6600 N   0  0  0  0  0  0  0  0  0  0  0  0
  -33.8210  -13.4680   19.8560 O   0  0  0  0  0  0  0  0  0  0  0  0
  -32.1020  -14.7880   20.4390 N   0  0  0  0  0  0  0  0  0  0  0  0
  -31.2070  -14.8180   20.9010 H   0  0  0  0  0  0  0  0  0  0  0  0
  -27.3670  -13.5430   20.6280 C   0  0  0  0  0  0  0  0  0  0  0  0
  -26.1250  -13.0600   20.9390 C   0  0  0  0  0  0  0  0  0  0  0  0
  -26.2280  -11.6400   20.8530 C   0  0  0  0  0  0  0  0  0  0  0  0
  -28.1650  -12.4360   20.3960 N   0  0  0  0  0  0  0  0  0  0  0  0
  -27.4770  -11.2820   20.5810 N   0  0  0  0  0  0  0  0  0  0  0  0
  -25.1990  -10.6000   20.9580 C   0  0  0  0  0  0  0  0  0  0  0  0
  -25.2730   -9.5870   21.9370 C   0  0  0  0  0  3  0  0  0  0  0  0
  -24.2610   -8.6080   22.0310 C   0  0  0  0  0  3  0  0  0  0  0  0
  -23.1600   -8.6400   21.1440 C   0  0  0  0  0  0  0  0  0  0  0  0
  -23.1020   -9.6390   20.1560 C   0  0  0  0  0  3  0  0  0  0  0  0
  -24.1120  -10.6090   20.0610 C   0  0  0  0  0  3  0  0  0  0  0  0
  -22.1450   -7.7150   21.1450 O   0  0  0  0  0  0  0  0  0  0  0  0
  -21.7480   -7.0800   22.2940 C   0  0  0  0  0  0  0  0  0  0  0  0
  -21.2150   -7.7920   23.3910 C   0  0  0  0  0  3  0  0  0  0  0  0
  -20.7580   -7.0930   24.5260 C   0  0  0  0  0  3  0  0  0  0  0  0
  -20.8240   -5.6880   24.5640 C   0  0  0  0  0  0  0  0  0  0  0  0
  -21.3510   -4.9790   23.4700 C   0  0  0  0  0  3  0  0  0  0  0  0
  -21.8100   -5.6730   22.3370 C   0  0  0  0  0  0  0  0  0  0  0  0
  -22.2980   -4.9850   21.2760 F   0  0  0  0  0  0  0  0  0  0  0  0
  -20.3770   -5.0170   25.6500 F   0  0  0  0  0  0  0  0  0  0  0  0
  -24.8870  -13.8720   21.1910 C   0  0  0  0  0  0  0  0  0  0  0  0
  -23.9920  -13.3720   22.0340 N   0  0  0  0  0  0  0  0  0  0  0  0
  -24.7320  -14.9800   20.6770 O   0  0  0  0  0  0  0  0  0  0  0  0
  -24.1350  -12.4720   22.4700 H   0  0  0  0  0  0  0  0  0  0  0  0
  -23.1570  -13.8980   22.2490 H   0  0  0  0  0  0  0  0  0  0  0  0
  -27.8750  -14.8240   20.4960 N   0  0  0  0  0  0  0  0  0  0  0  0
  -27.2140  -15.5900   20.4570 H   0  0  0  0  0  0  0  0  0  0  0  0
  -28.6760  -14.9710   19.8970 H   0  0  0  0  0  0  0  0  0  0  0  0
  -32.4890  -16.3580   18.5240 C   0  0  0  0  0  2  0  0  0  0  0  0
  -34.7130  -16.8890   17.8120 C   0  0  0  0  0  1  0  0  0  0  0  0
  -33.3720  -17.3420   17.9950 O   0  0  0  0  0  0  0  0  0  0  0  0
  -27.1510  -19.8790   17.0450 C   0  0  0  0  0  2  0  0  0  0  0  0
  -27.9110  -20.2390   15.8890 O   0  0  0  0  0  0  0  0  0  0  0  0
  -29.1220  -20.9620   16.1150 C   0  0  0  0  0  2  0  0  0  0  0  0
  -28.8990  -22.4790   16.2850 C   0  0  0  0  0  2  0  0  0  0  0  0
  -28.1240  -22.8040   17.4350 O   0  0  0  0  0  0  0  0  0  0  0  0
  -28.7710  -22.7090   18.6640 C   0  0  0  0  0  2  0  0  0  0  0  0
  -28.6890  -23.9270   19.3170 O   0  0  0  0  0  0  0  0  0  0  0  0
  -29.7000  -24.8520   18.9300 C   0  0  0  0  0  2  0  0  0  0  0  0
  -29.0930  -26.2530   18.9080 C   0  0  0  0  0  2  0  0  0  0  0  0
  -28.5600  -26.5580   20.1930 O   0  0  0  0  0  0  0  0  0  0  0  0
  -24.6630  -31.5710   23.3520 C   0  0  0  0  0  0  0  0  0  0  0  0
  -27.3730  -27.2470   20.1980 C   0  0  0  0  0  0  0  0  0  0  0  0
  -23.4940  -30.2360   21.6250 C   0  0  0  0  0  3  0  0  0  0  0  0
  -24.9760  -28.7300   20.1990 C   0  0  0  0  0  0  0  0  0  0  0  0
  -26.0220  -30.5820   21.5180 C   0  0  0  0  0  2  0  0  0  0  0  0
  -26.1140  -29.2330   20.8420 C   0  0  0  0  0  0  0  0  0  0  0  0
  -27.3110  -28.4890   20.8550 C   0  0  0  0  0  3  0  0  0  0  0  0
  -26.2140  -26.7320   19.5740 C   0  0  0  0  0  3  0  0  0  0  0  0
  -25.0170  -27.4730   19.5680 C   0  0  0  0  0  3  0  0  0  0  0  0
  -23.7370  -29.5960   20.2320 C   0  0  0  0  0  2  0  0  0  0  0  0
  -24.7430  -30.8100   22.2250 N   0  0  0  0  0  0  0  0  0  0  0  0
  -23.5680  -31.8360   23.8680 O   0  0  0  0  0  0  0  0  0  0  0  0
  -22.8050  -29.1910   22.5310 C   0  0  0  0  0  0  0  0  0  0  0  0
  -21.4890  -29.0090   22.3380 N   0  0  0  0  0  0  0  0  0  0  0  0
  -23.4540  -28.5430   23.3590 O   0  0  0  0  0  0  0  0  0  0  0  0
  -21.0300  -29.5870   21.6480 H   0  0  0  0  0  0  0  0  0  0  0  0
  -18.1040  -27.7780   22.6150 C   0  0  0  0  0  0  0  0  0  0  0  0
  -20.6380  -28.0520   23.0440 C   0  0  0  0  0  3  0  0  0  0  0  0
  -20.7880  -26.6310   22.4540 C   0  0  0  0  0  2  0  0  0  0  0  0
  -19.7510  -26.3140   21.3720 C   0  0  0  0  0  2  0  0  0  0  0  0
  -18.3320  -26.4390   21.9360 C   0  0  0  0  0  2  0  0  0  0  0  0
  -19.1870  -28.5430   23.1220 C   0  0  0  0  0  0  0  0  0  0  0  0
  -18.9240  -29.7970   23.7130 C   0  0  0  0  0  3  0  0  0  0  0  0
  -17.6070  -30.2860   23.8060 C   0  0  0  0  0  3  0  0  0  0  0  0
  -16.5360  -29.5170   23.3180 C   0  0  0  0  0  3  0  0  0  0  0  0
  -16.7850  -28.2660   22.7290 C   0  0  0  0  0  3  0  0  0  0  0  0
  -25.9350  -32.1650   24.0330 C   0  0  0  0  0  3  0  0  0  0  0  0
  -25.6610  -33.5770   24.3270 N   0  0  0  0  0  0  0  0  0  0  0  0
  -26.0710  -34.6030   23.5710 C   0  0  0  0  0  0  0  0  0  0  0  0
  -26.7900  -34.4600   22.5770 O   0  0  0  0  0  0  0  0  0  0  0  0
  -25.0320  -33.7650   25.0930 H   0  0  0  0  0  0  0  0  0  0  0  0
  -24.4220  -36.4440   23.1030 C   0  0  0  0  0  1  0  0  0  0  0  0
  -25.6100  -36.0160   23.9790 C   0  0  0  0  0  3  0  0  0  0  0  0
  -27.7280  -36.8510   24.8990 C   0  0  0  0  0  1  0  0  0  0  0  0
  -26.6820  -37.0310   23.8950 N   0  0  0  0  0  0  0  0  0  0  0  0
  -26.3010  -37.9680   23.9990 H   0  0  0  0  0  0  0  0  0  0  0  0
  -26.3600  -31.3910   25.3400 C   0  0  1  0  0  0  0  0  0  0  0  0
  -25.2090  -31.2080   26.3570 C   0  0  0  0  0  1  0  0  0  0  0  0
  -26.9080  -29.9880   24.9880 C   0  0  0  0  0  1  0  0  0  0  0  0
  -27.5070  -32.1500   26.0480 C   0  0  0  0  0  1  0  0  0  0  0  0
  1  2  1  0
  2  3  1  0
  3  4  1  0
  4  5  1  0
  6  8  2  0
  6  7  1  0
  7  5  1  0
  9  7  1  0
 10 49  1  0
 10 19  1  0
 10  6  1  0
 11 19  1  0
 11 17  1  0
 12 17  1  0
 13 14  1  0
 13 12  1  0
 15 14  1  0
 15 24  1  0
 15 16  1  0
 17 16  1  0
 18 11  2  0
 19 20  1  0
 21 22  2  0
 22 41  1  0
 23 22  1  0
 23 26  1  0
 24 25  1  0
 24 21  1  0
 25 23  2  0
 26 27  1  0
 27 28  2  0
 29 32  1  0
 29 28  1  0
 30 29  2  0
 31 30  1  0
 31 26  2  0
 32 33  1  0
 33 38  2  0
 33 34  1  0
 34 35  2  0
 35 36  1  0
 36 40  1  0
 37 36  2  0
 38 37  1  0
 39 38  1  0
 41 42  1  0
 42 45  1  0
 42 44  1  0
 43 41  2  0
 46 21  1  0
 47 46  1  0
 48 46  1  0
 50 51  1  0
 51 49  1  0
 52  1  1  0
 53 54  1  0
 53 52  1  0
 54 55  1  0
 55 56  1  0
 56 57  1  0
 57 58  1  0
 59 58  1  0
 60 59  1  0
 60 61  1  0
 61 63  1  0
 62 73  2  0
 63 68  1  0
 64 72  1  0
 64 74  1  0
 65 71  1  0
 65 67  1  0
 66 72  1  0
 67 68  2  0
 67 66  1  0
 69 63  2  0
 70 69  1  0
 70 65  2  0
 71 64  1  0
 72 62  1  0
 74 76  2  0
 75 74  1  0
 77 75  1  0
 78 87  2  0
 78 83  1  0
 79 75  1  0
 79 83  1  0
 80 79  1  0
 81 82  1  0
 81 80  1  0
 82 78  1  0
 83 84  2  0
 84 85  1  0
 86 85  2  0
 87 86  1  0
 88 62  1  0
 88 89  1  0
 88 98  1  0
 89 92  1  0
 90 94  1  0
 90 89  1  0
 91 90  2  0
 94 93  1  0
 96 94  1  0
 96 97  1  0
 96 95  1  0
 98101  1  1
 98 99  1  0
100 98  1  0
M  ISO  4  11 100  19 100  60 101  61 101
M  END
>  <TORSDO>  (68) 
F 33

>  <SCORE>  (68) 
-8.105

>  <name>  (68) 
72

>  <ligand_id>  (68) 
72

>  <original_smiles>  (68) 
[H]c1c([H])c([H])c2c(c1[H])C([H])([H])C([H])([H])C([H])([H])C2([H])N([H])C(=O)C1([H])N(C(=O)C([H])(N([H])C(=O)C([H])(N([H])C([H])([H])[H])C([H])([H])[H])C(C([H])([H])[H])(C([H])([H])[H])C([H])([H])[H])C([H])([H])c2c([H])c(OC([H])([H])C([H])([H])OC([H])([H])OC([H])([H])C([H])([H])OC([H])([H])C([H])([H])OC([H])([H])C([H])([H])C([H])([H])N([H])C(=O)C([H])(N([H])C(=O)N3C([H])([H])C([H])([H])C([H])([H])C([H])(n4nc(-c5c([H])c([H])c(Oc6c([H])c([H])c(F)c([H])c6F)c([H])c5[H])c(C(=O)N([H])[H])c4N([H])[H])C3([H])[H])C([H])([H])OC([H])([H])[H])c([H])c([H])c2C1([H])[H]

>  <smiles>  (68) 
[H]c1c([H])c([H])c2c(c1[H])C([H])([H])C([H])([H])C([H])([H])C2([H])N([H])C(=O)C1([H])N(C(=O)C([H])(N([H])C(=O)C([H])(N([H])C([H])([H])[H])C([H])([H])[H])C(C([H])([H])[H])(C([H])([H])[H])C([H])([H])[H])C([H])([H])c2c([H])c(OC([H])([H])C([H])([H])OC([H])([H])OC([H])([H])C([H])([H])OC([H])([H])C([H])([H])OC([H])([H])C([H])([H])C([H])([H])N([H])C(=O)C([H])(N([H])C(=O)N3C([H])([H])C([H])([H])C([H])([H])C([H])(n4nc(-c5c([H])c([H])c(Oc6c([H])c([H])c(F)c([H])c6F)c([H])c5[H])c(C(=O)N([H])[H])c4N([H])[H])C3([H])[H])C([H])([H])OC([H])([H])[H])c([H])c([H])c2C1([H])[H]

$$$$
73:0:0
     RDKit          3D

107114  0  0  1  0  0  0  0  0999 V2000
  -28.8790  -19.8770   19.2050 C   0  0  0  0  0  0  0  0  0  0  0  0
  -29.5650  -19.4850   18.1250 N   0  0  0  0  0  0  0  0  0  0  0  0
  -28.7930  -21.0610   19.5430 O   0  0  0  0  0  0  0  0  0  0  0  0
  -29.5700  -18.5020   17.8940 H   0  0  0  0  0  0  0  0  0  0  0  0
  -28.2740  -18.7650   19.9080 C   0  0  0  0  0  3  0  0  0  0  0  0
  -27.3170  -19.0090   20.8250 C   0  0  0  0  0  3  0  0  0  0  0  0
  -26.7020  -17.9290   21.5630 C   0  0  0  0  0  0  0  0  0  0  0  0
  -25.7300  -18.3910   22.3550 N   0  0  0  0  0  0  0  0  0  0  0  0
  -27.0140  -16.7390   21.4900 O   0  0  0  0  0  0  0  0  0  0  0  0
  -25.5490  -19.3850   22.3310 H   0  0  0  0  0  0  0  0  0  0  0  0
  -24.9380  -17.6090   23.2980 C   0  0  0  0  0  2  0  0  0  0  0  0
  -25.4370  -17.8220   24.7350 C   0  0  0  0  0  2  0  0  0  0  0  0
  -26.8180  -17.4990   24.7910 O   0  0  0  0  0  0  0  0  0  0  0  0
  -27.4980  -18.1210   25.8700 C   0  0  0  0  0  2  0  0  0  0  0  0
  -28.9890  -17.7870   25.7520 C   0  0  0  0  0  2  0  0  0  0  0  0
  -29.4590  -18.2050   24.4770 O   0  0  0  0  0  0  0  0  0  0  0  0
  -30.6110  -17.4930   24.0510 C   0  0  0  0  0  2  0  0  0  0  0  0
  -31.0020  -17.9720   22.6450 C   0  0  0  0  0  2  0  0  0  0  0  0
  -29.8970  -17.7850   21.5850 C   0  0  0  0  0  2  0  0  0  0  0  0
  -30.2060  -15.5250   20.5700 C   0  0  0  0  0  0  0  0  0  0  0  0
  -30.2760  -13.2270   19.6780 C   0  0  0  0  0  2  0  0  0  0  0  0
  -29.3960  -13.0830   18.4220 C   0  0  0  0  0  2  0  0  0  0  0  0
  -27.9390  -12.7700   18.8090 C   0  0  0  0  0  2  0  0  0  0  0  0
  -27.3900  -13.7360   19.8910 C   0  0  0  0  0  3  0  0  0  0  0  0
  -28.3810  -13.8550   21.0690 C   0  0  0  0  0  2  0  0  0  0  0  0
  -29.6930  -14.2690   20.5350 N   0  0  0  0  0  0  0  0  0  0  0  0
  -31.2080  -15.8690   19.9350 O   0  0  0  0  0  0  0  0  0  0  0  0
  -29.5610  -16.3780   21.3740 N   0  0  0  0  0  0  0  0  0  0  0  0
  -28.7450  -16.0220   21.8520 H   0  0  0  0  0  0  0  0  0  0  0  0
  -24.9280  -14.0940   20.5590 C   0  0  0  0  0  0  0  0  0  0  0  0
  -23.9370  -13.2160   20.9060 C   0  0  0  0  0  0  0  0  0  0  0  0
  -24.5330  -11.9190   20.8750 C   0  0  0  0  0  0  0  0  0  0  0  0
  -26.0630  -13.3260   20.3450 N   0  0  0  0  0  0  0  0  0  0  0  0
  -25.8260  -12.0110   20.5880 N   0  0  0  0  0  0  0  0  0  0  0  0
  -23.9360  -10.5880   21.0480 C   0  0  0  0  0  0  0  0  0  0  0  0
  -24.4260   -9.6780   22.0100 C   0  0  0  0  0  3  0  0  0  0  0  0
  -23.8230   -8.4110   22.1690 C   0  0  0  0  0  3  0  0  0  0  0  0
  -22.7170   -8.0460   21.3630 C   0  0  0  0  0  0  0  0  0  0  0  0
  -22.2480   -8.9480   20.3920 C   0  0  0  0  0  3  0  0  0  0  0  0
  -22.8530  -10.2060   20.2320 C   0  0  0  0  0  3  0  0  0  0  0  0
  -22.0840   -6.8290   21.4290 O   0  0  0  0  0  0  0  0  0  0  0  0
  -21.9790   -6.1350   22.6090 C   0  0  0  0  0  0  0  0  0  0  0  0
  -21.3900   -6.7060   23.7580 C   0  0  0  0  0  3  0  0  0  0  0  0
  -21.2380   -5.9350   24.9290 C   0  0  0  0  0  3  0  0  0  0  0  0
  -21.6640   -4.5930   24.9480 C   0  0  0  0  0  0  0  0  0  0  0  0
  -22.2460   -4.0210   23.8030 C   0  0  0  0  0  3  0  0  0  0  0  0
  -22.3990   -4.7900   22.6350 C   0  0  0  0  0  0  0  0  0  0  0  0
  -22.9410   -4.2280   21.5270 F   0  0  0  0  0  0  0  0  0  0  0  0
  -21.5120   -3.8500   26.0690 F   0  0  0  0  0  0  0  0  0  0  0  0
  -22.4960  -13.5490   21.1670 C   0  0  0  0  0  0  0  0  0  0  0  0
  -21.8360  -12.7820   22.0280 N   0  0  0  0  0  0  0  0  0  0  0  0
  -21.9600  -14.5240   20.6430 O   0  0  0  0  0  0  0  0  0  0  0  0
  -22.2820  -11.9930   22.4730 H   0  0  0  0  0  0  0  0  0  0  0  0
  -20.8720  -12.9870   22.2450 H   0  0  0  0  0  0  0  0  0  0  0  0
  -24.9540  -15.4750   20.3950 N   0  0  0  0  0  0  0  0  0  0  0  0
  -24.1430  -16.0490   20.5930 H   0  0  0  0  0  0  0  0  0  0  0  0
  -25.8090  -16.0140   20.3340 H   0  0  0  0  0  0  0  0  0  0  0  0
  -30.3030  -20.3900   17.2490 C   0  0  0  0  0  2  0  0  0  0  0  0
  -31.7860  -20.4830   17.6550 C   0  0  0  0  0  2  0  0  0  0  0  0
  -32.4650  -21.7270   17.0690 C   0  0  0  0  0  2  0  0  0  0  0  0
  -32.0280  -22.8330   17.8410 O   0  0  0  0  0  0  0  0  0  0  0  0
  -32.4140  -24.0930   17.3160 C   0  0  0  0  0  2  0  0  0  0  0  0
  -31.9990  -25.1640   18.3300 C   0  0  0  0  0  2  0  0  0  0  0  0
  -30.5780  -25.2070   18.4210 O   0  0  0  0  0  0  0  0  0  0  0  0
  -30.1390  -26.0650   19.4660 C   0  0  0  0  0  2  0  0  0  0  0  0
  -28.6080  -26.1470   19.5090 C   0  0  0  0  0  2  0  0  0  0  0  0
  -28.2820  -27.0460   20.5630 O   0  0  0  0  0  0  0  0  0  0  0  0
  -24.3460  -32.2150   23.4020 C   0  0  0  0  0  0  0  0  0  0  0  0
  -27.0780  -27.7050   20.5130 C   0  0  0  0  0  0  0  0  0  0  0  0
  -23.1830  -30.7710   21.7620 C   0  0  0  0  0  3  0  0  0  0  0  0
  -24.6730  -29.1840   20.4320 C   0  0  0  0  0  0  0  0  0  0  0  0
  -25.7110  -31.1190   21.6320 C   0  0  0  0  0  2  0  0  0  0  0  0
  -25.8080  -29.7260   21.0450 C   0  0  0  0  0  0  0  0  0  0  0  0
  -27.0080  -28.9870   21.0960 C   0  0  0  0  0  3  0  0  0  0  0  0
  -25.9220  -27.1590   19.9130 C   0  0  0  0  0  3  0  0  0  0  0  0
  -24.7190  -27.8930   19.8740 C   0  0  0  0  0  3  0  0  0  0  0  0
  -23.4330  -30.0480   20.4110 C   0  0  0  0  0  2  0  0  0  0  0  0
  -24.4290  -31.3850   22.3250 N   0  0  0  0  0  0  0  0  0  0  0  0
  -23.2500  -32.5080   23.9000 O   0  0  0  0  0  0  0  0  0  0  0  0
  -22.4980  -29.7810   22.7300 C   0  0  0  0  0  0  0  0  0  0  0  0
  -21.1730  -29.6270   22.5880 N   0  0  0  0  0  0  0  0  0  0  0  0
  -23.1580  -29.1540   23.5650 O   0  0  0  0  0  0  0  0  0  0  0  0
  -20.7040  -30.1830   21.8870 H   0  0  0  0  0  0  0  0  0  0  0  0
  -17.7630  -28.5430   23.0730 C   0  0  0  0  0  0  0  0  0  0  0  0
  -20.3250  -28.7210   23.3620 C   0  0  0  0  0  3  0  0  0  0  0  0
  -20.3850  -27.2830   22.7950 C   0  0  0  0  0  2  0  0  0  0  0  0
  -19.2800  -26.9880   21.7760 C   0  0  0  0  0  2  0  0  0  0  0  0
  -17.9000  -27.1820   22.4120 C   0  0  0  0  0  2  0  0  0  0  0  0
  -18.9020  -29.2720   23.5050 C   0  0  0  0  0  0  0  0  0  0  0  0
  -18.7200  -30.5470   24.0820 C   0  0  0  0  0  3  0  0  0  0  0  0
  -17.4320  -31.0920   24.2350 C   0  0  0  0  0  3  0  0  0  0  0  0
  -16.3070  -30.3590   23.8210 C   0  0  0  0  0  3  0  0  0  0  0  0
  -16.4730  -29.0860   23.2440 C   0  0  0  0  0  3  0  0  0  0  0  0
  -25.6160  -32.8550   24.0440 C   0  0  0  0  0  3  0  0  0  0  0  0
  -26.0980  -32.1100   25.3490 C   0  0  1  0  0  0  0  0  0  0  0  0
  -24.9790  -31.8980   26.3950 C   0  0  0  0  0  1  0  0  0  0  0  0
  -26.6840  -30.7210   24.9990 C   0  0  0  0  0  1  0  0  0  0  0  0
  -27.2370  -32.9130   26.0200 C   0  0  0  0  0  1  0  0  0  0  0  0
  -25.3030  -34.2610   24.3330 N   0  0  0  0  0  0  0  0  0  0  0  0
  -25.6600  -35.2920   23.5550 C   0  0  0  0  0  0  0  0  0  0  0  0
  -26.3570  -35.1600   22.5460 O   0  0  0  0  0  0  0  0  0  0  0  0
  -24.6850  -34.4370   25.1110 H   0  0  0  0  0  0  0  0  0  0  0  0
  -23.9390  -37.0710   23.1130 C   0  0  0  0  0  1  0  0  0  0  0  0
  -25.1640  -36.6920   23.9610 C   0  0  0  0  0  3  0  0  0  0  0  0
  -27.2870  -37.5960   24.8030 C   0  0  0  0  0  1  0  0  0  0  0  0
  -26.1980  -37.7420   23.8390 N   0  0  0  0  0  0  0  0  0  0  0  0
  -25.7910  -38.6660   23.9590 H   0  0  0  0  0  0  0  0  0  0  0  0
  1  3  2  0
  1  5  1  0
  2  1  1  0
  4  2  1  0
  5  6  2  0
  6  7  1  0
  7  8  1  0
  8 11  1  0
  9  7  2  0
 10  8  1  0
 11 12  1  0
 12 13  1  0
 13 14  1  0
 15 14  1  0
 16 15  1  0
 17 16  1  0
 18 17  1  0
 19 18  1  0
 20 28  1  0
 21 26  1  0
 22 23  1  0
 22 21  1  0
 24 23  1  0
 24 33  1  0
 24 25  1  0
 26 20  1  0
 26 25  1  0
 27 20  2  0
 28 19  1  0
 28 29  1  0
 30 31  2  0
 31 50  1  0
 32 31  1  0
 32 35  1  0
 33 30  1  0
 33 34  1  0
 34 32  2  0
 35 36  1  0
 36 37  2  0
 38 41  1  0
 38 37  1  0
 39 38  2  0
 40 39  1  0
 40 35  2  0
 41 42  1  0
 42 47  2  0
 42 43  1  0
 43 44  2  0
 44 45  1  0
 45 49  1  0
 46 45  2  0
 47 46  1  0
 48 47  1  0
 50 51  1  0
 51 54  1  0
 51 53  1  0
 52 50  2  0
 55 30  1  0
 55 56  1  0
 57 55  1  0
 58 59  1  0
 58  2  1  0
 60 59  1  0
 60 61  1  0
 62 61  1  0
 62 63  1  0
 63 64  1  0
 64 65  1  0
 65 66  1  0
 66 67  1  0
 68 79  2  0
 69 67  1  0
 69 74  1  0
 70 78  1  0
 70 80  1  0
 71 73  1  0
 72 78  1  0
 73 74  2  0
 73 72  1  0
 75 69  2  0
 76 75  1  0
 76 71  2  0
 77 71  1  0
 77 70  1  0
 78 68  1  0
 80 82  2  0
 81 80  1  0
 83 81  1  0
 84 93  2  0
 84 89  1  0
 85 81  1  0
 85 89  1  0
 86 85  1  0
 87 88  1  0
 87 86  1  0
 88 84  1  0
 89 90  2  0
 90 91  1  0
 92 91  2  0
 93 92  1  0
 94 68  1  0
 94 99  1  0
 94 95  1  0
 95 98  1  1
 95 96  1  0
 97 95  1  0
 99102  1  0
100104  1  0
100 99  1  0
101100  2  0
104103  1  0
106107  1  0
106104  1  0
106105  1  0
M  ISO  4  20 100  28 100  66 101  67 101
M  END
>  <TORSDO>  (69) 
F 36

>  <SCORE>  (69) 
21.806

>  <name>  (69) 
73

>  <ligand_id>  (69) 
73

>  <original_smiles>  (69) 
[H]C(C(=O)N([H])C([H])([H])C([H])([H])OC([H])([H])C([H])([H])OC([H])([H])C([H])([H])C([H])([H])N([H])C(=O)N1C([H])([H])C([H])([H])C([H])([H])C([H])(n2nc(-c3c([H])c([H])c(Oc4c([H])c([H])c(F)c([H])c4F)c([H])c3[H])c(C(=O)N([H])[H])c2N([H])[H])C1([H])[H])=C([H])C(=O)N([H])C([H])([H])C([H])([H])C([H])([H])OC([H])([H])C([H])([H])OC([H])([H])C([H])([H])Oc1c([H])c([H])c2c(c1[H])C([H])([H])N(C(=O)C([H])(N([H])C(=O)C([H])(N([H])C([H])([H])[H])C([H])([H])[H])C(C([H])([H])[H])(C([H])([H])[H])C([H])([H])[H])C([H])(C(=O)N([H])C1([H])c3c([H])c([H])c([H])c([H])c3C([H])([H])C([H])([H])C1([H])[H])C2([H])[H]

>  <smiles>  (69) 
[H]C(C(=O)N([H])C([H])([H])C([H])([H])OC([H])([H])C([H])([H])OC([H])([H])C([H])([H])C([H])([H])N([H])C(=O)N1C([H])([H])C([H])([H])C([H])([H])C([H])(n2nc(-c3c([H])c([H])c(Oc4c([H])c([H])c(F)c([H])c4F)c([H])c3[H])c(C(=O)N([H])[H])c2N([H])[H])C1([H])[H])=C([H])C(=O)N([H])C([H])([H])C([H])([H])C([H])([H])OC([H])([H])C([H])([H])OC([H])([H])C([H])([H])Oc1c([H])c([H])c2c(c1[H])C([H])([H])N(C(=O)C([H])(N([H])C(=O)C([H])(N([H])C([H])([H])[H])C([H])([H])[H])C(C([H])([H])[H])(C([H])([H])[H])C([H])([H])[H])C([H])(C(=O)N([H])C1([H])c3c([H])c([H])c([H])c([H])c3C([H])([H])C([H])([H])C1([H])[H])C2([H])[H]

$$$$
74:0:0
     RDKit          3D

103110  0  0  1  0  0  0  0  0999 V2000
  -24.6070  -20.5510   25.5520 N   0  0  0  0  0  4  0  0  0  0  0  0
  -24.9480  -20.0010   24.7800 H   0  0  0  0  0  0  0  0  0  0  0  0
  -24.3090  -21.4440   25.1860 H   0  0  0  0  0  0  0  0  0  0  0  0
  -23.3700  -19.9270   26.0620 C   0  0  0  0  0  2  0  0  0  0  0  0
  -22.4890  -19.5780   24.8550 C   0  0  0  0  0  2  0  0  0  0  0  0
  -21.9110  -20.8180   24.4520 O   0  0  0  0  0  0  0  0  0  0  0  0
  -20.7690  -20.7110   23.6120 C   0  0  0  0  0  2  0  0  0  0  0  0
  -20.4080  -22.0970   23.0430 C   0  0  0  0  0  2  0  0  0  0  0  0
  -21.2440  -22.5670   21.8330 C   0  0  0  0  0  2  0  0  0  0  0  0
  -20.9730  -24.0210   21.3970 C   0  0  0  0  0  2  0  0  0  0  0  0
  -21.4020  -24.2380   19.9420 C   0  0  0  0  0  2  0  0  0  0  0  0
  -20.7140  -25.3050   19.2850 O   0  0  0  0  0  0  0  0  0  0  0  0
  -20.8430  -25.1480   17.8740 C   0  0  0  0  0  2  0  0  0  0  0  0
  -20.1630  -26.2080   16.9830 C   0  0  0  0  0  2  0  0  0  0  0  0
  -20.3850  -25.8280   15.4980 C   0  0  0  0  0  2  0  0  0  0  0  0
  -20.1370  -26.6200   13.2150 C   0  0  0  0  0  0  0  0  0  0  0  0
  -21.6630  -26.3920   11.2850 C   0  0  0  0  0  2  0  0  0  0  0  0
  -22.4100  -25.0450   11.2760 C   0  0  0  0  0  2  0  0  0  0  0  0
  -23.7040  -25.1230   12.1000 C   0  0  0  0  0  2  0  0  0  0  0  0
  -23.4630  -25.7330   13.5030 C   0  0  0  0  0  3  0  0  0  0  0  0
  -22.6340  -27.0410   13.4210 C   0  0  0  0  0  2  0  0  0  0  0  0
  -21.3850  -26.7630   12.6830 N   0  0  0  0  0  0  0  0  0  0  0  0
  -19.1440  -26.3390   12.5400 O   0  0  0  0  0  0  0  0  0  0  0  0
  -19.9900  -26.8520   14.5270 N   0  0  0  0  0  0  0  0  0  0  0  0
  -19.0630  -27.2030   14.7220 H   0  0  0  0  0  0  0  0  0  0  0  0
  -25.2030  -25.2580   15.3420 C   0  0  0  0  0  0  0  0  0  0  0  0
  -26.4350  -25.7980   15.5950 C   0  0  0  0  0  0  0  0  0  0  0  0
  -26.6470  -26.7780   14.5810 C   0  0  0  0  0  0  0  0  0  0  0  0
  -24.7100  -25.9330   14.2380 N   0  0  0  0  0  0  0  0  0  0  0  0
  -25.5750  -26.8870   13.8110 N   0  0  0  0  0  0  0  0  0  0  0  0
  -27.8360  -27.5780   14.2570 C   0  0  0  0  0  0  0  0  0  0  0  0
  -27.7800  -28.9840   14.1540 C   0  0  0  0  0  3  0  0  0  0  0  0
  -28.9430  -29.7230   13.8520 C   0  0  0  0  0  3  0  0  0  0  0  0
  -30.1790  -29.0620   13.6600 C   0  0  0  0  0  0  0  0  0  0  0  0
  -30.2220  -27.6610   13.7380 C   0  0  0  0  0  3  0  0  0  0  0  0
  -29.0620  -26.9240   14.0320 C   0  0  0  0  0  3  0  0  0  0  0  0
  -31.3510  -29.7010   13.3380 O   0  0  0  0  0  0  0  0  0  0  0  0
  -31.5890  -30.9960   13.7210 C   0  0  0  0  0  0  0  0  0  0  0  0
  -31.5970  -31.3810   15.0800 C   0  0  0  0  0  3  0  0  0  0  0  0
  -31.9120  -32.7080   15.4340 C   0  0  0  0  0  3  0  0  0  0  0  0
  -32.2300  -33.6460   14.4320 C   0  0  0  0  0  0  0  0  0  0  0  0
  -32.2290  -33.2630   13.0780 C   0  0  0  0  0  3  0  0  0  0  0  0
  -31.9140  -31.9400   12.7240 C   0  0  0  0  0  0  0  0  0  0  0  0
  -31.9320  -31.5690   11.4210 F   0  0  0  0  0  0  0  0  0  0  0  0
  -32.5460  -34.9170   14.7700 F   0  0  0  0  0  0  0  0  0  0  0  0
  -27.4020  -25.3460   16.6500 C   0  0  0  0  0  0  0  0  0  0  0  0
  -28.2270  -26.2570   17.1540 N   0  0  0  0  0  0  0  0  0  0  0  0
  -27.4070  -24.1870   17.0570 O   0  0  0  0  0  0  0  0  0  0  0  0
  -28.2160  -27.2130   16.8270 H   0  0  0  0  0  0  0  0  0  0  0  0
  -28.8890  -25.9930   17.8730 H   0  0  0  0  0  0  0  0  0  0  0  0
  -24.4950  -24.2250   15.9340 N   0  0  0  0  0  0  0  0  0  0  0  0
  -25.0010  -23.6110   16.5630 H   0  0  0  0  0  0  0  0  0  0  0  0
  -23.7730  -23.7480   15.4100 H   0  0  0  0  0  0  0  0  0  0  0  0
  -25.7130  -20.7730   26.5030 C   0  0  0  0  0  2  0  0  0  0  0  0
  -26.8450  -21.5520   25.8000 C   0  0  0  0  0  2  0  0  0  0  0  0
  -28.1500  -21.6150   26.6090 C   0  0  0  0  0  2  0  0  0  0  0  0
  -29.0600  -22.5570   26.0460 O   0  0  0  0  0  0  0  0  0  0  0  0
  -29.6800  -22.1360   24.8340 C   0  0  0  0  0  2  0  0  0  0  0  0
  -30.1580  -23.3720   24.0580 C   0  0  0  0  0  2  0  0  0  0  0  0
  -29.1070  -23.9280   23.2790 O   0  0  0  0  0  0  0  0  0  0  0  0
  -29.4530  -25.2060   22.7470 C   0  0  0  0  0  2  0  0  0  0  0  0
  -28.6750  -25.4870   21.4520 C   0  0  0  0  0  2  0  0  0  0  0  0
  -28.8310  -26.8630   21.0810 O   0  0  0  0  0  0  0  0  0  0  0  0
  -24.9280  -32.1040   23.8470 C   0  0  0  0  0  0  0  0  0  0  0  0
  -27.6730  -27.5950   20.9930 C   0  0  0  0  0  0  0  0  0  0  0  0
  -23.7900  -30.6920   22.1630 C   0  0  0  0  0  3  0  0  0  0  0  0
  -25.3000  -29.1180   20.8420 C   0  0  0  0  0  0  0  0  0  0  0  0
  -26.3260  -31.0210   22.0960 C   0  0  0  0  0  2  0  0  0  0  0  0
  -26.4290  -29.6420   21.4830 C   0  0  0  0  0  0  0  0  0  0  0  0
  -27.6210  -28.8890   21.5530 C   0  0  0  0  0  3  0  0  0  0  0  0
  -26.5340  -27.0870   20.3290 C   0  0  0  0  0  3  0  0  0  0  0  0
  -25.3470  -27.8390   20.2600 C   0  0  0  0  0  3  0  0  0  0  0  0
  -24.0630  -29.9880   20.8080 C   0  0  0  0  0  2  0  0  0  0  0  0
  -25.0290  -31.2880   22.7600 N   0  0  0  0  0  0  0  0  0  0  0  0
  -23.8230  -32.4030   24.3240 O   0  0  0  0  0  0  0  0  0  0  0  0
  -23.0770  -29.6950   23.1030 C   0  0  0  0  0  0  0  0  0  0  0  0
  -21.7650  -29.5110   22.8920 N   0  0  0  0  0  0  0  0  0  0  0  0
  -23.7030  -29.0880   23.9760 O   0  0  0  0  0  0  0  0  0  0  0  0
  -21.3240  -30.0540   22.1640 H   0  0  0  0  0  0  0  0  0  0  0  0
  -18.3960  -28.2310   23.0880 C   0  0  0  0  0  0  0  0  0  0  0  0
  -20.8950  -28.5930   23.6290 C   0  0  0  0  0  3  0  0  0  0  0  0
  -21.0990  -27.1290   23.1720 C   0  0  0  0  0  2  0  0  0  0  0  0
  -20.1380  -26.7030   22.0580 C   0  0  0  0  0  2  0  0  0  0  0  0
  -18.6840  -26.8530   22.5170 C   0  0  0  0  0  2  0  0  0  0  0  0
  -19.4350  -29.0540   23.5900 C   0  0  0  0  0  0  0  0  0  0  0  0
  -19.1190  -30.3450   24.0670 C   0  0  0  0  0  3  0  0  0  0  0  0
  -17.7930  -30.8110   24.0570 C   0  0  0  0  0  3  0  0  0  0  0  0
  -16.7620  -29.9850   23.5790 C   0  0  0  0  0  3  0  0  0  0  0  0
  -17.0630  -28.6960   23.1000 C   0  0  0  0  0  3  0  0  0  0  0  0
  -26.1880  -32.7280   24.5230 C   0  0  0  0  0  3  0  0  0  0  0  0
  -25.9430  -34.1670   24.6810 N   0  0  0  0  0  0  0  0  0  0  0  0
  -26.4330  -35.1150   23.8700 C   0  0  0  0  0  0  0  0  0  0  0  0
  -27.2130  -34.8690   22.9470 O   0  0  0  0  0  0  0  0  0  0  0  0
  -25.2710  -34.4350   25.3850 H   0  0  0  0  0  0  0  0  0  0  0  0
  -24.9110  -36.9650   23.1070 C   0  0  0  0  0  1  0  0  0  0  0  0
  -25.9890  -36.5680   24.1280 C   0  0  0  0  0  3  0  0  0  0  0  0
  -28.0440  -37.3930   25.1890 C   0  0  0  0  0  1  0  0  0  0  0  0
  -27.1040  -37.5400   24.0810 N   0  0  0  0  0  0  0  0  0  0  0  0
  -26.7500  -38.4930   24.0900 H   0  0  0  0  0  0  0  0  0  0  0  0
  -26.5380  -32.0670   25.9130 C   0  0  1  0  0  0  0  0  0  0  0  0
  -25.3270  -31.9570   26.8670 C   0  0  0  0  0  1  0  0  0  0  0  0
  -27.1170  -30.6470   25.7130 C   0  0  0  0  0  1  0  0  0  0  0  0
  -27.6350  -32.8920   26.6260 C   0  0  0  0  0  1  0  0  0  0  0  0
  1  4  1  0
  1 54  1  0
  2  1  1  0
  3  1  1  0
  5  4  1  0
  6  5  1  0
  7  6  1  0
  8  7  1  0
  9  8  1  0
 10  9  1  0
 11 10  1  0
 12 11  1  0
 13 12  1  0
 14 13  1  0
 15 14  1  0
 16 24  1  0
 17 22  1  0
 18 17  1  0
 18 19  1  0
 20 19  1  0
 20 29  1  0
 21 20  1  0
 22 16  1  0
 22 21  1  0
 23 16  2  0
 24 25  1  0
 24 15  1  0
 26 27  2  0
 26 51  1  0
 27 46  1  0
 28 27  1  0
 29 26  1  0
 30 29  1  0
 30 28  2  0
 31 28  1  0
 32 31  1  0
 33 32  2  0
 34 35  2  0
 34 33  1  0
 35 36  1  0
 36 31  2  0
 37 34  1  0
 37 38  1  0
 38 39  1  0
 39 40  2  0
 41 45  1  0
 41 40  1  0
 42 41  2  0
 43 42  1  0
 43 38  2  0
 44 43  1  0
 46 48  2  0
 46 47  1  0
 47 50  1  0
 49 47  1  0
 51 52  1  0
 53 51  1  0
 55 54  1  0
 55 56  1  0
 57 56  1  0
 58 57  1  0
 59 58  1  0
 60 59  1  0
 61 60  1  0
 62 61  1  0
 63 62  1  0
 64 75  2  0
 65 63  1  0
 65 70  1  0
 66 74  1  0
 66 76  1  0
 67 69  1  0
 68 74  1  0
 69 70  2  0
 69 68  1  0
 71 65  2  0
 72 71  1  0
 72 67  2  0
 73 67  1  0
 73 66  1  0
 74 64  1  0
 76 78  2  0
 77 76  1  0
 79 77  1  0
 80 89  2  0
 80 85  1  0
 81 77  1  0
 82 81  1  0
 83 84  1  0
 83 82  1  0
 84 80  1  0
 85 81  1  0
 85 86  2  0
 87 86  1  0
 88 87  2  0
 89 88  1  0
 90 64  1  0
 90 91  1  0
 90100  1  0
 91 94  1  0
 92 96  1  0
 92 91  1  0
 93 92  2  0
 96 95  1  0
 98 99  1  0
 98 96  1  0
 98 97  1  0
100103  1  1
100101  1  0
102100  1  0
M  ISO  4  16 100  24 100  62 101  63 101
M  END
>  <TORSDO>  (70) 
F 37

>  <SCORE>  (70) 
30.436

>  <name>  (70) 
74

>  <ligand_id>  (70) 
74

>  <original_smiles>  (70) 
[H]c1c([H])c([H])c2c(c1[H])C([H])([H])C([H])([H])C([H])([H])C2([H])N([H])C(=O)C1([H])N(C(=O)C([H])(N([H])C(=O)C([H])(N([H])C([H])([H])[H])C([H])([H])[H])C(C([H])([H])[H])(C([H])([H])[H])C([H])([H])[H])C([H])([H])c2c([H])c(OC([H])([H])C([H])([H])OC([H])([H])C([H])([H])OC([H])([H])C([H])([H])C([H])([H])[N+]([H])([H])C([H])([H])C([H])([H])OC([H])([H])C([H])([H])C([H])([H])C([H])([H])C([H])([H])OC([H])([H])C([H])([H])C([H])([H])N([H])C(=O)N3C([H])([H])C([H])([H])C([H])([H])C([H])(n4nc(-c5c([H])c([H])c(Oc6c([H])c([H])c(F)c([H])c6F)c([H])c5[H])c(C(=O)N([H])[H])c4N([H])[H])C3([H])[H])c([H])c([H])c2C1([H])[H]

>  <smiles>  (70) 
[H]c1c([H])c([H])c2c(c1[H])C([H])([H])C([H])([H])C([H])([H])C2([H])N([H])C(=O)C1([H])N(C(=O)C([H])(N([H])C(=O)C([H])(N([H])C([H])([H])[H])C([H])([H])[H])C(C([H])([H])[H])(C([H])([H])[H])C([H])([H])[H])C([H])([H])c2c([H])c(OC([H])([H])C([H])([H])OC([H])([H])C([H])([H])OC([H])([H])C([H])([H])C([H])([H])[N+]([H])([H])C([H])([H])C([H])([H])OC([H])([H])C([H])([H])C([H])([H])C([H])([H])C([H])([H])OC([H])([H])C([H])([H])C([H])([H])N([H])C(=O)N3C([H])([H])C([H])([H])C([H])([H])C([H])(n4nc(-c5c([H])c([H])c(Oc6c([H])c([H])c(F)c([H])c6F)c([H])c5[H])c(C(=O)N([H])[H])c4N([H])[H])C3([H])[H])c([H])c([H])c2C1([H])[H]

$$$$
75:0:0
     RDKit          3D

101108  0  0  1  0  0  0  0  0999 V2000
  -28.8670  -20.1950   25.4360 C   0  0  0  0  0  2  0  0  0  0  0  0
  -30.4000  -20.3880   25.4420 C   0  0  0  0  0  2  0  0  0  0  0  0
  -30.9930  -19.0070   23.4590 C   0  0  0  0  0  0  0  0  0  0  0  0
  -30.9900  -20.1730   24.1180 N   0  0  0  0  0  0  0  0  0  0  0  0
  -30.6300  -17.9550   23.9870 O   0  0  0  0  0  0  0  0  0  0  0  0
  -31.3480  -20.9900   23.6410 H   0  0  0  0  0  0  0  0  0  0  0  0
  -31.3650  -18.0770   21.2450 C   0  0  0  0  0  3  0  0  0  0  0  0
  -31.4220  -19.1370   22.0810 C   0  0  0  0  0  3  0  0  0  0  0  0
  -31.7990  -18.2040   19.8460 C   0  0  0  0  0  0  0  0  0  0  0  0
  -32.4980  -19.1400   19.4540 O   0  0  0  0  0  0  0  0  0  0  0  0
  -31.3830  -17.1310   18.8230 C   0  0  0  0  0  2  0  0  0  0  0  0
  -29.3160  -16.0550   17.7840 C   0  0  0  0  0  1  0  0  0  0  0  0
  -30.0450  -16.3680   19.1030 C   0  0  0  0  0  3  0  0  0  0  0  0
  -30.8000  -14.0270   19.5910 C   0  0  0  0  0  0  0  0  0  0  0  0
  -30.4360  -11.7190   18.8650 C   0  0  0  0  0  2  0  0  0  0  0  0
  -29.3850  -11.7480   17.7340 C   0  0  0  0  0  2  0  0  0  0  0  0
  -27.9650  -11.6210   18.3150 C   0  0  0  0  0  2  0  0  0  0  0  0
  -27.7070  -12.6320   19.4650 C   0  0  0  0  0  3  0  0  0  0  0  0
  -28.8740  -12.6540   20.4840 C   0  0  0  0  0  2  0  0  0  0  0  0
  -30.1380  -12.8510   19.7520 N   0  0  0  0  0  0  0  0  0  0  0  0
  -31.8650  -14.1160   18.9800 O   0  0  0  0  0  0  0  0  0  0  0  0
  -30.1020  -15.1280   19.9020 N   0  0  0  0  0  0  0  0  0  0  0  0
  -29.2700  -14.9430   20.4430 H   0  0  0  0  0  0  0  0  0  0  0  0
  -25.4610  -13.3110   20.5300 C   0  0  0  0  0  0  0  0  0  0  0  0
  -24.4060  -12.5710   20.9820 C   0  0  0  0  0  0  0  0  0  0  0  0
  -24.7740  -11.2000   20.7970 C   0  0  0  0  0  0  0  0  0  0  0  0
  -26.4170  -12.3950   20.1080 N   0  0  0  0  0  0  0  0  0  0  0  0
  -26.0090  -11.1170   20.3190 N   0  0  0  0  0  0  0  0  0  0  0  0
  -23.9960   -9.9690   20.9920 C   0  0  0  0  0  0  0  0  0  0  0  0
  -24.4500   -8.9430   21.8490 C   0  0  0  0  0  3  0  0  0  0  0  0
  -23.6770   -7.7750   22.0410 C   0  0  0  0  0  3  0  0  0  0  0  0
  -22.4390   -7.6260   21.3690 C   0  0  0  0  0  0  0  0  0  0  0  0
  -22.0050   -8.6410   20.4970 C   0  0  0  0  0  3  0  0  0  0  0  0
  -22.7800   -9.7980   20.3040 C   0  0  0  0  0  3  0  0  0  0  0  0
  -21.6350   -6.5160   21.4700 O   0  0  0  0  0  0  0  0  0  0  0  0
  -21.5600   -5.7870   22.6290 C   0  0  0  0  0  0  0  0  0  0  0  0
  -21.1700   -6.3670   23.8570 C   0  0  0  0  0  3  0  0  0  0  0  0
  -21.0370   -5.5630   25.0050 C   0  0  0  0  0  3  0  0  0  0  0  0
  -21.2890   -4.1800   24.9310 C   0  0  0  0  0  0  0  0  0  0  0  0
  -21.6800   -3.6000   23.7100 C   0  0  0  0  0  3  0  0  0  0  0  0
  -21.8140   -4.4000   22.5630 C   0  0  0  0  0  0  0  0  0  0  0  0
  -22.1640   -3.8300   21.3850 F   0  0  0  0  0  0  0  0  0  0  0  0
  -21.1550   -3.4090   26.0340 F   0  0  0  0  0  0  0  0  0  0  0  0
  -23.0870  -13.0940   21.4690 C   0  0  0  0  0  0  0  0  0  0  0  0
  -22.4580  -12.3920   22.4050 N   0  0  0  0  0  0  0  0  0  0  0  0
  -22.6270  -14.1620   21.0590 O   0  0  0  0  0  0  0  0  0  0  0  0
  -22.8480  -11.5270   22.7500 H   0  0  0  0  0  0  0  0  0  0  0  0
  -21.5760  -12.7200   22.7720 H   0  0  0  0  0  0  0  0  0  0  0  0
  -25.6820  -14.6810   20.4190 N   0  0  0  0  0  0  0  0  0  0  0  0
  -24.9750  -15.3630   20.6660 H   0  0  0  0  0  0  0  0  0  0  0  0
  -26.4950  -15.1020   19.9870 H   0  0  0  0  0  0  0  0  0  0  0  0
  -28.3090  -20.8110   24.2820 O   0  0  0  0  0  0  0  0  0  0  0  0
  -28.5930  -20.1190   23.0710 C   0  0  0  0  0  2  0  0  0  0  0  0
  -28.7380  -21.1510   21.9490 C   0  0  0  0  0  2  0  0  0  0  0  0
  -29.9400  -21.8770   22.1600 O   0  0  0  0  0  0  0  0  0  0  0  0
  -30.2330  -22.7870   21.1110 C   0  0  0  0  0  2  0  0  0  0  0  0
  -31.4490  -23.6310   21.5250 C   0  0  0  0  0  2  0  0  0  0  0  0
  -31.0930  -24.6570   22.4440 O   0  0  0  0  0  0  0  0  0  0  0  0
  -30.2110  -25.6440   21.9120 C   0  0  0  0  0  2  0  0  0  0  0  0
  -30.8860  -26.5000   20.8160 C   0  0  0  0  0  2  0  0  0  0  0  0
  -30.5090  -27.8710   20.9370 O   0  0  0  0  0  0  0  0  0  0  0  0
  -25.0380  -31.5540   23.5670 C   0  0  0  0  0  0  0  0  0  0  0  0
  -29.1830  -28.2100   20.7780 C   0  0  0  0  0  0  0  0  0  0  0  0
  -24.4980  -30.0280   21.6960 C   0  0  0  0  0  3  0  0  0  0  0  0
  -26.5000  -29.0270   20.4710 C   0  0  0  0  0  0  0  0  0  0  0  0
  -26.8400  -31.0300   21.9310 C   0  0  0  0  0  2  0  0  0  0  0  0
  -27.3750  -29.7830   21.2600 C   0  0  0  0  0  0  0  0  0  0  0  0
  -28.7160  -29.3770   21.4170 C   0  0  0  0  0  3  0  0  0  0  0  0
  -28.2870  -27.4540   19.9860 C   0  0  0  0  0  3  0  0  0  0  0  0
  -26.9450  -27.8560   19.8390 C   0  0  0  0  0  3  0  0  0  0  0  0
  -25.0840  -29.5420   20.3420 C   0  0  0  0  0  2  0  0  0  0  0  0
  -25.4630  -30.8850   22.4590 N   0  0  0  0  0  0  0  0  0  0  0  0
  -23.8550  -31.5010   23.9360 O   0  0  0  0  0  0  0  0  0  0  0  0
  -23.9990  -28.8030   22.4950 C   0  0  0  0  0  0  0  0  0  0  0  0
  -22.7970  -28.3150   22.1550 N   0  0  0  0  0  0  0  0  0  0  0  0
  -24.6980  -28.2990   23.3750 O   0  0  0  0  0  0  0  0  0  0  0  0
  -22.2840  -28.7920   21.4270 H   0  0  0  0  0  0  0  0  0  0  0  0
  -19.7810  -26.3360   22.0800 C   0  0  0  0  0  0  0  0  0  0  0  0
  -22.1440  -27.1450   22.7380 C   0  0  0  0  0  3  0  0  0  0  0  0
  -22.6650  -25.8410   22.0910 C   0  0  0  0  0  2  0  0  0  0  0  0
  -21.8070  -25.3720   20.9130 C   0  0  0  0  0  2  0  0  0  0  0  0
  -20.3600  -25.1330   21.3560 C   0  0  0  0  0  2  0  0  0  0  0  0
  -20.6180  -27.2890   22.7140 C   0  0  0  0  0  0  0  0  0  0  0  0
  -20.0290  -28.4090   23.3370 C   0  0  0  0  0  3  0  0  0  0  0  0
  -18.6330  -28.5780   23.3440 C   0  0  0  0  0  3  0  0  0  0  0  0
  -17.8060  -27.6200   22.7330 C   0  0  0  0  0  3  0  0  0  0  0  0
  -18.3800  -26.5010   22.1020 C   0  0  0  0  0  3  0  0  0  0  0  0
  -26.0110  -32.4350   24.4130 C   0  0  0  0  0  3  0  0  0  0  0  0
  -25.3740  -33.7460   24.5930 N   0  0  0  0  0  0  0  0  0  0  0  0
  -25.6620  -34.8380   23.8700 C   0  0  0  0  0  0  0  0  0  0  0  0
  -26.5570  -34.8590   23.0200 O   0  0  0  0  0  0  0  0  0  0  0  0
  -24.5930  -33.7840   25.2320 H   0  0  0  0  0  0  0  0  0  0  0  0
  -23.7540  -36.2540   23.0450 C   0  0  0  0  0  1  0  0  0  0  0  0
  -24.8270  -36.1050   24.1340 C   0  0  0  0  0  3  0  0  0  0  0  0
  -26.5220  -37.3870   25.3640 C   0  0  0  0  0  1  0  0  0  0  0  0
  -25.6360  -37.3410   24.2040 N   0  0  0  0  0  0  0  0  0  0  0  0
  -25.0380  -38.1610   24.2300 H   0  0  0  0  0  0  0  0  0  0  0  0
  -26.3720  -31.7950   25.8090 C   0  0  1  0  0  0  0  0  0  0  0  0
  -25.1410  -31.3140   26.6110 C   0  0  0  0  0  1  0  0  0  0  0  0
  -27.3230  -30.5880   25.6290 C   0  0  0  0  0  1  0  0  0  0  0  0
  -27.1260  -32.8240   26.6790 C   0  0  0  0  0  1  0  0  0  0  0  0
  1  2  1  0
  3  5  2  0
  3  4  1  0
  4  2  1  0
  6  4  1  0
  7  8  2  0
  8  3  1  0
  9  7  1  0
 10  9  2  0
 11 13  1  0
 11  9  1  0
 13 12  1  0
 13 22  1  0
 14 20  1  0
 14 22  1  0
 15 20  1  0
 16 17  1  0
 16 15  1  0
 18 17  1  0
 18 27  1  0
 18 19  1  0
 20 19  1  0
 21 14  2  0
 22 23  1  0
 24 25  2  0
 25 44  1  0
 26 25  1  0
 26 29  1  0
 27 28  1  0
 27 24  1  0
 28 26  2  0
 29 30  1  0
 30 31  2  0
 32 35  1  0
 32 31  1  0
 33 32  2  0
 34 33  1  0
 34 29  2  0
 35 36  1  0
 36 37  1  0
 37 38  2  0
 39 38  1  0
 39 43  1  0
 40 39  2  0
 41 36  2  0
 41 40  1  0
 42 41  1  0
 44 45  1  0
 45 47  1  0
 45 48  1  0
 46 44  2  0
 49 24  1  0
 49 50  1  0
 51 49  1  0
 52  1  1  0
 53 52  1  0
 54 55  1  0
 54 53  1  0
 56 57  1  0
 56 55  1  0
 57 58  1  0
 59 58  1  0
 60 61  1  0
 60 59  1  0
 62 73  2  0
 63 61  1  0
 63 68  1  0
 64 72  1  0
 64 74  1  0
 65 67  1  0
 66 72  1  0
 67 68  2  0
 67 66  1  0
 69 63  2  0
 70 69  1  0
 70 65  2  0
 71 65  1  0
 71 64  1  0
 72 62  1  0
 74 76  2  0
 75 74  1  0
 77 75  1  0
 78 87  2  0
 78 83  1  0
 79 75  1  0
 80 79  1  0
 81 82  1  0
 81 80  1  0
 82 78  1  0
 83 79  1  0
 83 84  2  0
 84 85  1  0
 86 85  2  0
 87 86  1  0
 88 62  1  0
 88 89  1  0
 88 98  1  0
 89 92  1  0
 90 94  1  0
 90 89  1  0
 91 90  2  0
 94 93  1  0
 94 96  1  0
 96 97  1  0
 96 95  1  0
 98 99  1  1
 98101  1  0
100 98  1  0
M  ISO  4  14 100  22 100  60 101  61 101
M  END
>  <TORSDO>  (71) 
F 31

>  <SCORE>  (71) 
3.908

>  <name>  (71) 
75

>  <ligand_id>  (71) 
75

>  <original_smiles>  (71) 
[H]C(C(=O)N([H])C([H])([H])C([H])([H])OC([H])([H])C([H])([H])OC([H])([H])C([H])([H])OC([H])([H])C([H])([H])Oc1c([H])c([H])c2c(c1[H])C([H])([H])N(C(=O)C([H])(N([H])C(=O)C([H])(N([H])C([H])([H])[H])C([H])([H])[H])C(C([H])([H])[H])(C([H])([H])[H])C([H])([H])[H])C([H])(C(=O)N([H])C1([H])c3c([H])c([H])c([H])c([H])c3C([H])([H])C([H])([H])C1([H])[H])C2([H])[H])=C([H])C(=O)C([H])([H])C([H])(N([H])C(=O)N1C([H])([H])C([H])([H])C([H])([H])C([H])(n2nc(-c3c([H])c([H])c(Oc4c([H])c([H])c(F)c([H])c4F)c([H])c3[H])c(C(=O)N([H])[H])c2N([H])[H])C1([H])[H])C([H])([H])[H]

>  <smiles>  (71) 
[H]C(C(=O)N([H])C([H])([H])C([H])([H])OC([H])([H])C([H])([H])OC([H])([H])C([H])([H])OC([H])([H])C([H])([H])Oc1c([H])c([H])c2c(c1[H])C([H])([H])N(C(=O)C([H])(N([H])C(=O)C([H])(N([H])C([H])([H])[H])C([H])([H])[H])C(C([H])([H])[H])(C([H])([H])[H])C([H])([H])[H])C([H])(C(=O)N([H])C1([H])c3c([H])c([H])c([H])c([H])c3C([H])([H])C([H])([H])C1([H])[H])C2([H])[H])=C([H])C(=O)C([H])([H])C([H])(N([H])C(=O)N1C([H])([H])C([H])([H])C([H])([H])C([H])(n2nc(-c3c([H])c([H])c(Oc4c([H])c([H])c(F)c([H])c4F)c([H])c3[H])c(C(=O)N([H])[H])c2N([H])[H])C1([H])[H])C([H])([H])[H]

$$$$
76:0:0
     RDKit          3D

115108  0  0  1  0  0  0  0  0999 V2000
  -21.5670  -21.6070   23.1840 C   0  0  0  0  0  0  0  0  0  0  0  0
  -20.9220  -21.4560   21.9900 N   0  0  0  0  0  0  0  0  0  0  0  0
  -22.7730  -21.7420   23.2770 O   0  0  0  0  0  0  0  0  0  0  0  0
  -19.9190  -21.3870   22.0690 H   0  0  0  0  0  0  0  0  0  0  0  0
  -20.8270  -21.5850   24.4430 C   0  0  0  0  0  2  0  0  0  0  0  0
  -21.2170  -20.6960   25.4190 C   0  0  0  0  0  2  0  0  0  0  0  0
  -22.1150  -19.5630   25.1220 C   0  0  0  0  0  0  0  0  0  0  0  0
  -23.4170  -19.8530   25.0130 N   0  0  0  0  0  0  0  0  0  0  0  0
  -21.6860  -18.4520   24.8270 O   0  0  0  0  0  0  0  0  0  0  0  0
  -23.6720  -20.7470   25.4260 H   0  0  0  0  0  0  0  0  0  0  0  0
  -24.4130  -19.3250   24.0250 C   0  0  0  0  0  2  0  0  0  0  0  0
  -24.0320  -18.7560   22.5380 C   0  0  0  0  0  2  0  0  0  0  0  0
  -24.0910  -19.7070   21.3710 O   0  0  0  0  0  0  0  0  0  0  0  0
  -24.5070  -19.6800   19.8730 C   0  0  0  0  0  2  0  0  0  0  0  0
  -25.4430  -20.7960   18.9140 C   0  0  0  0  0  2  0  0  0  0  0  0
  -25.8040  -22.3030   18.9270 O   0  0  0  0  0  0  0  0  0  0  0  0
  -27.1660  -22.9600   19.2410 C   0  0  0  0  0  2  0  0  0  0  0  0
  -27.5210  -24.6040   18.9560 C   0  0  0  0  0  2  0  0  0  0  0  0
  -27.8830  -25.8560   19.8640 O   0  0  0  0  0  0  0  0  0  0  0  0
  -24.8220  -31.9160   23.1740 C   0  0  0  0  0  0  0  0  0  0  0  0
  -27.1070  -27.0530   19.9170 C   0  0  0  0  0  0  0  0  0  0  0  0
  -23.8040  -30.5200   21.5530 C   0  0  0  0  0  3  0  0  0  0  0  0
  -25.0840  -29.0630   19.9980 C   0  0  0  0  0  0  0  0  0  0  0  0
  -26.2870  -30.6890   21.4320 C   0  0  0  0  0  2  0  0  0  0  0  0
  -26.2490  -29.3100   20.7200 C   0  0  0  0  0  0  0  0  0  0  0  0
  -27.2810  -28.2820   20.6950 C   0  0  0  0  0  3  0  0  0  0  0  0
  -25.9740  -27.0250   19.1030 C   0  0  0  0  0  3  0  0  0  0  0  0
  -25.0140  -28.0040   19.1240 C   0  0  0  0  0  3  0  0  0  0  0  0
  -23.9210  -29.9690   20.1200 C   0  0  0  0  0  2  0  0  0  0  0  0
  -25.0030  -31.1300   22.0680 N   0  0  0  0  0  0  0  0  0  0  0  0
  -23.7060  -32.1650   23.6630 O   0  0  0  0  0  0  0  0  0  0  0  0
  -23.4700  -29.4030   22.5520 C   0  0  0  0  0  0  0  0  0  0  0  0
  -22.3220  -29.0950   22.3470 N   0  0  0  0  0  0  0  0  0  0  0  0
  -24.1080  -28.8950   23.4500 O   0  0  0  0  0  0  0  0  0  0  0  0
  -21.9440  -29.4390   21.4540 H   0  0  0  0  0  0  0  0  0  0  0  0
  -17.9420  -27.6550   22.4420 C   0  0  0  0  0  3  0  0  0  0  0  0
  -21.2990  -28.4680   22.9920 C   0  0  0  0  0  1  0  0  0  0  0  0
  -21.3680  -26.7900   24.1620 C   0  0  0  0  0  1  0  0  0  0  0  0
  -19.7350  -25.7020   23.9910 C   0  0  0  0  0  2  0  0  0  0  0  0
  -18.2650  -26.1330   22.9910 C   0  0  0  0  0  2  0  0  0  0  0  0
  -19.0610  -28.5930   22.0570 C   0  0  0  0  0  2  0  0  0  0  0  0
  -18.1780  -29.7900   21.9660 C   0  0  0  0  0  2  0  0  0  0  0  0
  -17.3710  -30.4100   22.9800 C   0  0  0  0  0  2  0  0  0  0  0  0
  -16.5170  -29.4990   23.5190 C   0  0  0  0  0  2  0  0  0  0  0  0
  -16.7070  -28.1440   23.0790 C   0  0  0  0  0  2  0  0  0  0  0  0
  -26.0420  -32.5210   23.8670 C   0  0  0  0  0  3  0  0  0  0  0  0
  -25.6660  -33.8840   24.2520 N   0  0  0  0  0  0  0  0  0  0  0  0
  -25.9210  -34.9650   23.5050 C   0  0  0  0  0  0  0  0  0  0  0  0
  -26.5580  -34.9150   22.4470 O   0  0  0  0  0  0  0  0  0  0  0  0
  -25.0950  -33.9840   25.0800 H   0  0  0  0  0  0  0  0  0  0  0  0
  -24.1520  -36.7330   23.2590 C   0  0  0  0  0  1  0  0  0  0  0  0
  -25.4140  -36.3180   24.0320 C   0  0  0  0  0  3  0  0  0  0  0  0
  -27.5580  -37.1890   24.8460 C   0  0  0  0  0  1  0  0  0  0  0  0
  -26.4250  -37.3930   23.9450 N   0  0  0  0  0  0  0  0  0  0  0  0
  -26.0130  -38.2980   24.1590 H   0  0  0  0  0  0  0  0  0  0  0  0
  -26.5030  -31.6740   25.1050 C   0  0  1  0  0  0  0  0  0  0  0  0
  -25.3760  -31.3850   26.1280 C   0  0  0  0  0  1  0  0  0  0  0  0
  -27.1060  -30.3180   24.6650 C   0  0  0  0  0  1  0  0  0  0  0  0
  -27.6330  -32.4510   25.8100 C   0  0  0  0  0  1  0  0  0  0  0  0
  -21.5970  -21.2380   20.6210 C   0  0  0  0  0  2  0  0  0  0  0  0
  -21.9430  -22.2280   19.3160 C   0  0  0  0  0  2  0  0  0  0  0  0
  -23.1070  -23.2080   19.1870 O   0  0  0  0  0  0  0  0  0  0  0  0
  -23.2730  -24.7500   19.2560 C   0  0  0  0  0  2  0  0  0  0  0  0
  -23.3130  -25.8980   20.5290 C   0  0  0  0  0  2  0  0  0  0  0  0
  -22.2030  -26.4880   21.7970 C   0  0  0  0  0  1  0  0  0  0  0  0
  -20.3560  -26.7620   22.2620 O   0  0  0  0  0 15  0  0  0  0  0  0
  -19.5060  -28.1550   24.2360 C   0  0  0  0  0 15  0  0  0  0  0  0
  -19.8880  -30.1120   23.8250 C   0  0  0  0  0 15  0  0  0  0  0  0
  -20.4670  -30.5830   21.9200 C   0  0  0  0  0 15  0  0  0  0  0  0
  -20.7700  -29.2730   20.5710 O   0  0  0  0  0  1  0  0  0  0  0  0
  -20.6430  -27.5370   19.9570 C   0  0  0  0  0  1  0  0  0  0  0  0
  -20.7980  -25.4700   20.1660 C   0  0  0  0  0 15  0  0  0  0  0  0
  -21.8550  -24.0190   21.2450 C   0  0  0  0  0 15  0  0  0  0  0  0
  -23.5670  -23.1600   21.5690 O   0  0  0  0  0 15  0  0  0  0  0  0
  -25.1130  -22.0240   21.3840 C   0  0  0  0  0 15  0  0  0  0  0  0
  -26.5160  -20.3410   21.5430 C   0  0  0  0  0 15  0  0  0  0  0  0
  -27.6600  -18.7580   20.7250 C   0  0  0  0  0 15  0  0  0  0  0  0
  -29.5830  -15.8360   20.5760 C   0  0  0  0  0  0  0  0  0  0  0  0
  -30.2700  -13.3160   19.6680 C   0  0  0  0  0  2  0  0  0  0  0  0
  -29.5230  -12.7460   18.4140 C   0  0  0  0  0  2  0  0  0  0  0  0
  -28.1040  -12.2920   18.7830 C   0  0  0  0  0  2  0  0  0  0  0  0
  -27.4980  -13.2770   19.8150 C   0  0  0  0  0  3  0  0  0  0  0  0
  -28.3920  -13.5440   21.0210 C   0  0  0  0  0  2  0  0  0  0  0  0
  -29.4330  -14.3700   20.4430 N   0  0  0  0  0  0  0  0  0  0  0  0
  -30.8190  -15.9700   20.2820 O   0  0  0  0  0  0  0  0  0  0  0  0
  -28.5220  -17.0460   20.9400 N   0  0  0  0  0  2  0  0  0  0  0  0
  -29.2480  -17.4880   21.5050 H   0  0  0  0  0  0  0  0  0  0  0  0
  -25.1870  -13.8180   20.5640 C   0  0  0  0  0  0  0  0  0  0  0  0
  -24.1360  -13.0360   20.9200 C   0  0  0  0  0  0  0  0  0  0  0  0
  -24.6040  -11.6830   20.8780 C   0  0  0  0  0  0  0  0  0  0  0  0
  -26.2000  -12.9350   20.2810 N   0  0  0  0  0  0  0  0  0  0  0  0
  -25.8870  -11.6450   20.5470 N   0  0  0  0  0  0  0  0  0  0  0  0
  -23.8870  -10.4200   21.0490 C   0  0  0  0  0  0  0  0  0  0  0  0
  -24.3490   -9.4180   21.9270 C   0  0  0  0  0  3  0  0  0  0  0  0
  -23.6240   -8.2190   22.0780 C   0  0  0  0  0  3  0  0  0  0  0  0
  -22.4260   -8.0210   21.3530 C   0  0  0  0  0  0  0  0  0  0  0  0
  -21.9820   -9.0180   20.4670 C   0  0  0  0  0  3  0  0  0  0  0  0
  -22.7070  -10.2080   20.3140 C   0  0  0  0  0  3  0  0  0  0  0  0
  -21.6650   -6.8830   21.4230 O   0  0  0  0  0  0  0  0  0  0  0  0
  -21.6840   -6.0710   22.5270 C   0  0  0  0  0  0  0  0  0  0  0  0
  -21.4030   -6.5650   23.8200 C   0  0  0  0  0  3  0  0  0  0  0  0
  -21.3640   -5.6800   24.9150 C   0  0  0  0  0  3  0  0  0  0  0  0
  -21.6010   -4.3060   24.7200 C   0  0  0  0  0  0  0  0  0  0  0  0
  -21.8850   -3.8160   23.4330 C   0  0  0  0  0  3  0  0  0  0  0  0
  -21.9200   -4.6960   22.3380 C   0  0  0  0  0  0  0  0  0  0  0  0
  -22.1680   -4.2150   21.0960 F   0  0  0  0  0  0  0  0  0  0  0  0
  -21.5590   -3.4550   25.7710 F   0  0  0  0  0  0  0  0  0  0  0  0
  -22.7460  -13.5180   21.1970 C   0  0  0  0  0  0  0  0  0  0  0  0
  -22.0150  -12.8170   22.0520 N   0  0  0  0  0  0  0  0  0  0  0  0
  -22.3170  -14.5490   20.6780 O   0  0  0  0  0  0  0  0  0  0  0  0
  -22.3780  -11.9810   22.4820 H   0  0  0  0  0  0  0  0  0  0  0  0
  -21.0830  -13.1270   22.2840 H   0  0  0  0  0  0  0  0  0  0  0  0
  -25.3760  -15.1920   20.4370 N   0  0  0  0  0  0  0  0  0  0  0  0
  -24.6390  -15.8680   20.5920 H   0  0  0  0  0  0  0  0  0  0  0  0
  -26.2630  -15.6290   20.2070 H   0  0  0  0  0  0  0  0  0  0  0  0
  1  3  2  0
  1  5  1  0
  2  4  1  0
  2  1  1  0
  5  6  1  0
  7  6  1  0
  8  7  1  0
  8 10  1  0
  9  7  2  0
 11  8  1  0
 12 11  1  0
 13 12  1  0
 14 13  1  0
 15 16  1  0
 15 14  1  0
 16 17  1  0
 18 17  1  0
 18 19  1  0
 19 21  1  0
 20 31  2  0
 21 26  1  0
 22 30  1  0
 22 32  1  0
 23 29  1  0
 23 25  1  0
 24 30  1  0
 25 24  1  0
 26 25  2  0
 27 28  1  0
 27 21  2  0
 28 23  2  0
 29 22  1  0
 30 20  1  0
 32 34  2  0
 33 32  1  0
 33 37  1  0
 35 33  1  0
 36 40  1  0
 36 45  1  0
 39 38  1  0
 40 39  1  0
 41 36  1  0
 42 41  1  0
 42 43  1  0
 43 44  1  0
 45 44  1  0
 46 20  1  0
 46 47  1  0
 46 56  1  0
 47 50  1  0
 48 52  1  0
 48 47  1  0
 49 48  2  0
 52 51  1  0
 54 52  1  0
 54 55  1  0
 54 53  1  0
 56 59  1  1
 56 57  1  0
 58 56  1  0
 60  2  1  0
 61 60  1  0
 62 63  1  0
 62 61  1  0
 63 64  1  0
 64 65  1  0
 71 70  1  0
 78 86  1  0
 79 84  1  0
 80 81  1  0
 80 79  1  0
 82 81  1  0
 82 91  1  0
 82 83  1  0
 84 78  1  0
 84 83  1  0
 85 78  2  0
 86 87  1  0
 88 89  2  0
 89108  1  0
 90 89  1  0
 90 93  1  0
 91 92  1  0
 91 88  1  0
 92 90  2  0
 93 94  1  0
 94 95  2  0
 96 99  1  0
 96 95  1  0
 97 96  2  0
 98 97  1  0
 98 93  2  0
 99100  1  0
100101  1  0
101102  2  0
103102  1  0
103107  1  0
104103  2  0
105100  2  0
105104  1  0
106105  1  0
108109  1  0
109112  1  0
109111  1  0
110108  2  0
113 88  1  0
113114  1  0
115113  1  0
M  ISO  4  18 101  19 101  78 100  86 100
M  END
>  <TORSDO>  (72) 
F 44

>  <SCORE>  (72) 
70.277

>  <name>  (72) 
76

>  <ligand_id>  (72) 
76

>  <original_smiles>  (72) 
[H]C(C(=O)N([H])C([H])([H])C([H])([H])OC([H])([H])C([H])([H])OC([H])([H])C([H])([H])Oc1c([H])c([H])c2c(c1[H])C([H])([H])N(C(=O)C([H])(N([H])C(=O)C([H])(N([H])C([H])([H])[H])C([H])([H])[H])C(C([H])([H])[H])(C([H])([H])[H])C([H])([H])[H])C([H])(C(=O)N([H])C1([H])c3c([H])c([H])c([H])c([H])c3C([H])([H])C([H])([H])C1([H])[H])C2([H])[H])=C([H])C(=O)N([H])C([H])([H])C([H])([H])OC([H])([H])C([H])([H])C([H])([H])OC([H])([H])C([H])([H])C([H])([H])OC([H])([H])C([H])([H])C([H])([H])OC([H])([H])C([H])([H])C([H])([H])N([H])C(=O)N1C([H])([H])C([H])([H])C([H])([H])C([H])(n2nc(-c3c([H])c([H])c(Oc4c([H])c([H])c(F)c([H])c4F)c([H])c3[H])c(C(=O)N([H])[H])c2N([H])[H])C1([H])[H]

>  <smiles>  (72) 
[H]C(C(=O)N([H])C([H])([H])C([H])([H])OC([H])([H])C([H])([H])OC([H])([H])C([H])([H])Oc1c([H])c([H])c2c(c1[H])C([H])([H])N(C(=O)C([H])(N([H])C(=O)C([H])(N([H])C([H])([H])[H])C([H])([H])[H])C(C([H])([H])[H])(C([H])([H])[H])C([H])([H])[H])C([H])(C(=O)N([H])C1([H])c3c([H])c([H])c([H])c([H])c3C([H])([H])C([H])([H])C1([H])[H])C2([H])[H])=C([H])C(=O)N([H])C([H])([H])C([H])([H])OC([H])([H])C([H])([H])C([H])([H])OC([H])([H])C([H])([H])C([H])([H])OC([H])([H])C([H])([H])C([H])([H])OC([H])([H])C([H])([H])C([H])([H])N([H])C(=O)N1C([H])([H])C([H])([H])C([H])([H])C([H])(n2nc(-c3c([H])c([H])c(Oc4c([H])c([H])c(F)c([H])c4F)c([H])c3[H])c(C(=O)N([H])[H])c2N([H])[H])C1([H])[H]

$$$$
77:0:0
     RDKit          3D

 97104  0  0  1  0  0  0  0  0999 V2000
  -26.8810  -14.4190   22.9890 C   0  0  0  0  0  2  0  0  0  0  0  0
  -27.6620  -15.7800   22.7390 O   0  0  0  0  0  0  0  0  0  0  0  0
  -27.0840  -17.1960   22.3160 C   0  0  0  0  0  2  0  0  0  0  0  0
  -27.7880  -18.7790   22.3590 C   0  0  0  0  0  2  0  0  0  0  0  0
  -27.3970  -20.0730   21.5360 O   0  0  0  0  0  0  0  0  0  0  0  0
  -27.7470  -21.5860   21.8290 C   0  0  0  0  0  3  0  0  0  0  0  0
  -27.6450  -22.9680   20.7930 C   0  0  0  0  0  3  0  0  0  0  0  0
  -27.7320  -24.6390   21.2130 C   0  0  0  0  0  2  0  0  0  0  0  0
  -28.0540  -25.9680   20.4090 O   0  0  0  0  0  0  0  0  0  0  0  0
  -24.6460  -31.8430   23.1880 C   0  0  0  0  0  0  0  0  0  0  0  0
  -27.1120  -27.0470   20.2780 C   0  0  0  0  0  0  0  0  0  0  0  0
  -23.4490  -30.4680   21.5290 C   0  0  0  0  0  3  0  0  0  0  0  0
  -24.8850  -28.8860   20.1100 C   0  0  0  0  0  0  0  0  0  0  0  0
  -26.0060  -30.7010   21.3910 C   0  0  0  0  0  2  0  0  0  0  0  0
  -26.0600  -29.3010   20.7510 C   0  0  0  0  0  0  0  0  0  0  0  0
  -27.1890  -28.3990   20.8080 C   0  0  0  0  0  3  0  0  0  0  0  0
  -25.9450  -26.7530   19.5510 C   0  0  0  0  0  3  0  0  0  0  0  0
  -24.8470  -27.6340   19.4760 C   0  0  0  0  0  3  0  0  0  0  0  0
  -23.6770  -29.8060   20.1430 C   0  0  0  0  0  2  0  0  0  0  0  0
  -24.7200  -31.0290   22.0900 N   0  0  0  0  0  0  0  0  0  0  0  0
  -23.5580  -32.1310   23.7100 O   0  0  0  0  0  0  0  0  0  0  0  0
  -22.7590  -29.4560   22.4800 C   0  0  0  0  0  0  0  0  0  0  0  0
  -21.4280  -29.3060   22.3580 N   0  0  0  0  0  0  0  0  0  0  0  0
  -23.4250  -28.8110   23.2950 O   0  0  0  0  0  0  0  0  0  0  0  0
  -20.9470  -29.8780   21.6780 H   0  0  0  0  0  0  0  0  0  0  0  0
  -18.0320  -28.1410   22.8490 C   0  0  0  0  0  0  0  0  0  0  0  0
  -20.5940  -28.3740   23.1220 C   0  0  0  0  0  3  0  0  0  0  0  0
  -20.6800  -26.9440   22.5400 C   0  0  0  0  0  2  0  0  0  0  0  0
  -19.5760  -26.6390   21.5210 C   0  0  0  0  0  2  0  0  0  0  0  0
  -18.1950  -26.7950   22.1620 C   0  0  0  0  0  2  0  0  0  0  0  0
  -19.1580  -28.8890   23.2850 C   0  0  0  0  0  0  0  0  0  0  0  0
  -18.9480  -30.1490   23.8880 C   0  0  0  0  0  3  0  0  0  0  0  0
  -17.6470  -30.6600   24.0570 C   0  0  0  0  0  3  0  0  0  0  0  0
  -16.5370  -29.9090   23.6350 C   0  0  0  0  0  3  0  0  0  0  0  0
  -16.7300  -28.6510   23.0370 C   0  0  0  0  0  3  0  0  0  0  0  0
  -25.9210  -32.4690   23.8270 C   0  0  0  0  0  3  0  0  0  0  0  0
  -25.5960  -33.8500   24.2190 N   0  0  0  0  0  0  0  0  0  0  0  0
  -25.9060  -34.9410   23.5050 C   0  0  0  0  0  0  0  0  0  0  0  0
  -26.5630  -34.8910   22.4630 O   0  0  0  0  0  0  0  0  0  0  0  0
  -25.0150  -33.9620   25.0370 H   0  0  0  0  0  0  0  0  0  0  0  0
  -24.1470  -36.7250   23.2640 C   0  0  0  0  0  1  0  0  0  0  0  0
  -25.4100  -36.3030   24.0320 C   0  0  0  0  0  3  0  0  0  0  0  0
  -27.5560  -37.1780   24.8470 C   0  0  0  0  0  1  0  0  0  0  0  0
  -26.4260  -37.3750   23.9420 N   0  0  0  0  0  0  0  0  0  0  0  0
  -26.0110  -38.2810   24.1460 H   0  0  0  0  0  0  0  0  0  0  0  0
  -26.4520  -31.6580   25.0730 C   0  0  1  0  0  0  0  0  0  0  0  0
  -25.3710  -31.3770   26.1430 C   0  0  0  0  0  1  0  0  0  0  0  0
  -27.0370  -30.2970   24.6330 C   0  0  0  0  0  1  0  0  0  0  0  0
  -27.6040  -32.4360   25.7520 C   0  0  0  0  0  1  0  0  0  0  0  0
  -27.1730  -12.6650   23.0490 C   0  0  0  0  0  2  0  0  0  0  0  0
  -27.7580  -11.5000   22.1090 O   0  0  0  0  0  0  0  0  0  0  0  0
  -27.3640  -10.1800   21.2970 C   0  0  0  0  0  2  0  0  0  0  0  0
  -26.8460   -9.8740   19.6130 C   0  0  0  0  0  2  0  0  0  0  0  0
  -26.2110  -10.8280   18.2400 C   0  0  0  0  0  2  0  0  0  0  0  0
  -27.1020  -13.2910   17.2860 C   0  0  0  0  0  0  0  0  0  0  0  0
  -26.9380  -11.8920   17.2770 N   0  0  0  0  0  0  0  0  0  0  0  0
  -26.0990  -13.9910   17.4090 O   0  0  0  0  0  0  0  0  0  0  0  0
  -27.7480  -11.4650   16.8500 H   0  0  0  0  0  0  0  0  0  0  0  0
  -28.5700  -14.0910   17.2350 C   0  0  0  0  0  2  0  0  0  0  0  0
  -30.3880  -14.6270   19.4310 C   0  0  0  0  0  0  0  0  0  0  0  0
  -30.8600  -12.4160   19.7730 C   0  0  0  0  0  2  0  0  0  0  0  0
  -30.0220  -11.9490   18.6350 C   0  0  0  0  0  2  0  0  0  0  0  0
  -28.6400  -11.8990   19.2650 C   0  0  0  0  0  2  0  0  0  0  0  0
  -27.7900  -13.1120   20.0040 C   0  0  0  0  0  3  0  0  0  0  0  0
  -28.9300  -13.5400   20.9730 C   0  0  0  0  0  2  0  0  0  0  0  0
  -30.1630  -13.6050   20.2210 N   0  0  0  0  0  0  0  0  0  0  0  0
  -31.4610  -15.2040   19.6380 O   0  0  0  0  0  0  0  0  0  0  0  0
  -29.4750  -14.8580   18.3430 N   0  0  0  0  0  0  0  0  0  0  0  0
  -29.6810  -15.7770   17.9800 H   0  0  0  0  0  0  0  0  0  0  0  0
  -25.1980  -13.9200   20.4700 C   0  0  0  0  0  0  0  0  0  0  0  0
  -24.0800  -13.1970   20.8810 C   0  0  0  0  0  0  0  0  0  0  0  0
  -24.4480  -11.8520   20.9140 C   0  0  0  0  0  0  0  0  0  0  0  0
  -26.2770  -13.0360   20.3640 N   0  0  0  0  0  0  0  0  0  0  0  0
  -25.6850  -11.8950   20.6680 N   0  0  0  0  0  0  0  0  0  0  0  0
  -23.7830  -10.5360   21.0800 C   0  0  0  0  0  0  0  0  0  0  0  0
  -24.2180   -9.5560   22.0090 C   0  0  0  0  0  3  0  0  0  0  0  0
  -23.5710   -8.3060   22.1200 C   0  0  0  0  0  3  0  0  0  0  0  0
  -22.4190   -8.0420   21.3450 C   0  0  0  0  0  0  0  0  0  0  0  0
  -21.9880   -9.0110   20.4200 C   0  0  0  0  0  3  0  0  0  0  0  0
  -22.6710  -10.2310   20.2740 C   0  0  0  0  0  3  0  0  0  0  0  0
  -21.6800   -6.8820   21.4160 O   0  0  0  0  0  0  0  0  0  0  0  0
  -21.6960   -6.0720   22.5260 C   0  0  0  0  0  0  0  0  0  0  0  0
  -21.4070   -6.5620   23.8190 C   0  0  0  0  0  3  0  0  0  0  0  0
  -21.3660   -5.6760   24.9160 C   0  0  0  0  0  3  0  0  0  0  0  0
  -21.6040   -4.3030   24.7240 C   0  0  0  0  0  0  0  0  0  0  0  0
  -21.8820   -3.8110   23.4360 C   0  0  0  0  0  3  0  0  0  0  0  0
  -21.9240   -4.6930   22.3420 C   0  0  0  0  0  0  0  0  0  0  0  0
  -22.1700   -4.2100   21.1000 F   0  0  0  0  0  0  0  0  0  0  0  0
  -21.5600   -3.4500   25.7750 F   0  0  0  0  0  0  0  0  0  0  0  0
  -22.7000  -13.6650   21.1600 C   0  0  0  0  0  0  0  0  0  0  0  0
  -21.9790  -12.9410   22.0160 N   0  0  0  0  0  0  0  0  0  0  0  0
  -22.2680  -14.6900   20.6510 O   0  0  0  0  0  0  0  0  0  0  0  0
  -22.3460  -12.0990   22.4360 H   0  0  0  0  0  0  0  0  0  0  0  0
  -21.0430  -13.2380   22.2510 H   0  0  0  0  0  0  0  0  0  0  0  0
  -25.3880  -15.2680   20.2320 N   0  0  0  0  0  0  0  0  0  0  0  0
  -24.6010  -15.8990   20.1400 H   0  0  0  0  0  0  0  0  0  0  0  0
  -26.2140  -15.5920   19.7470 H   0  0  0  0  0  0  0  0  0  0  0  0
  1 50  1  0
  2  1  1  0
  3  4  1  0
  3  2  1  0
  5  6  1  0
  5  4  1  0
  7  8  1  0
  7  6  2  0
  9  8  1  0
 10 21  2  0
 11  9  1  0
 11 16  1  0
 12 20  1  0
 12 22  1  0
 13 19  1  0
 13 15  1  0
 14 20  1  0
 15 16  2  0
 15 14  1  0
 17 11  2  0
 18 17  1  0
 18 13  2  0
 19 12  1  0
 20 10  1  0
 22 24  2  0
 23 22  1  0
 25 23  1  0
 26 35  2  0
 26 31  1  0
 27 23  1  0
 27 31  1  0
 28 27  1  0
 29 30  1  0
 29 28  1  0
 30 26  1  0
 31 32  2  0
 32 33  1  0
 34 33  2  0
 35 34  1  0
 36 10  1  0
 36 37  1  0
 36 46  1  0
 37 40  1  0
 38 42  1  0
 38 37  1  0
 39 38  2  0
 42 41  1  0
 44 42  1  0
 44 45  1  0
 44 43  1  0
 46 49  1  1
 46 47  1  0
 48 46  1  0
 51 50  1  0
 52 51  1  0
 53 52  1  0
 54 53  1  0
 55 57  2  0
 56 55  1  0
 56 54  1  0
 58 56  1  0
 59 55  1  0
 59 68  1  0
 60 67  2  0
 60 66  1  0
 61 66  1  0
 62 63  1  0
 62 61  1  0
 64 63  1  0
 64 73  1  0
 64 65  1  0
 66 65  1  0
 68 60  1  0
 69 68  1  0
 70 71  2  0
 71 72  1  0
 71 90  1  0
 72 75  1  0
 73 70  1  0
 73 74  1  0
 74 72  2  0
 75 76  1  0
 76 77  2  0
 78 81  1  0
 78 77  1  0
 79 78  2  0
 80 79  1  0
 80 75  2  0
 81 82  1  0
 82 83  1  0
 83 84  2  0
 85 84  1  0
 85 89  1  0
 86 85  2  0
 87 82  2  0
 87 86  1  0
 88 87  1  0
 90 91  1  0
 91 94  1  0
 91 93  1  0
 92 90  2  0
 95 70  1  0
 96 95  1  0
 97 95  1  0
M  ISO  4   8 101   9 101  60 100  68 100
M  END
>  <TORSDO>  (73) 
F 30

>  <SCORE>  (73) 
20.448

>  <name>  (73) 
77

>  <ligand_id>  (73) 
77

>  <original_smiles>  (73) 
[H]c1c([H])c([H])c2c(c1[H])C([H])([H])C([H])([H])C([H])([H])C2([H])N([H])C(=O)C1([H])N(C(=O)C([H])(N([H])C(=O)C([H])(N([H])C([H])([H])[H])C([H])([H])[H])C(C([H])([H])[H])(C([H])([H])[H])C([H])([H])[H])C([H])([H])c2c([H])c(OC([H])([H])C([H])([H])C([H])([H])OC([H])([H])C([H])([H])OC([H])([H])C([H])([H])OC([H])([H])C([H])([H])C([H])([H])N([H])C(=O)C([H])([H])N([H])C(=O)N3C([H])([H])C([H])([H])C([H])([H])C([H])(n4nc(-c5c([H])c([H])c(Oc6c([H])c([H])c(F)c([H])c6F)c([H])c5[H])c(C(=O)N([H])[H])c4N([H])[H])C3([H])[H])c([H])c([H])c2C1([H])[H]

>  <smiles>  (73) 
[H]c1c([H])c([H])c2c(c1[H])C([H])([H])C([H])([H])C([H])([H])C2([H])N([H])C(=O)C1([H])N(C(=O)C([H])(N([H])C(=O)C([H])(N([H])C([H])([H])[H])C([H])([H])[H])C(C([H])([H])[H])(C([H])([H])[H])C([H])([H])[H])C([H])([H])c2c([H])c(OC([H])([H])C([H])([H])C([H])([H])OC([H])([H])C([H])([H])OC([H])([H])C([H])([H])OC([H])([H])C([H])([H])C([H])([H])N([H])C(=O)C([H])([H])N([H])C(=O)N3C([H])([H])C([H])([H])C([H])([H])C([H])(n4nc(-c5c([H])c([H])c(Oc6c([H])c([H])c(F)c([H])c6F)c([H])c5[H])c(C(=O)N([H])[H])c4N([H])[H])C3([H])[H])c([H])c([H])c2C1([H])[H]

$$$$
78:0:0
     RDKit          3D

102109  0  0  1  0  0  0  0  0999 V2000
  -28.7930  -19.3430   17.6420 C   0  0  0  0  0  0  0  0  0  0  0  0
  -27.5860  -19.5290   17.0990 N   0  0  0  0  0  0  0  0  0  0  0  0
  -29.3930  -20.2290   18.2580 O   0  0  0  0  0  0  0  0  0  0  0  0
  -27.1710  -18.7430   16.6160 H   0  0  0  0  0  0  0  0  0  0  0  0
  -29.4480  -17.9630   17.4220 C   0  0  0  0  0  3  0  0  0  0  0  0
  -29.6740  -17.0500   19.7200 C   0  0  0  0  0  0  0  0  0  0  0  0
  -30.2010  -17.5410   18.5980 N   0  0  0  0  0  0  0  0  0  0  0  0
  -28.4640  -16.8430   19.8300 O   0  0  0  0  0  0  0  0  0  0  0  0
  -31.2010  -17.6800   18.5470 H   0  0  0  0  0  0  0  0  0  0  0  0
  -30.0450  -17.2030   22.2000 C   0  0  0  0  0  1  0  0  0  0  0  0
  -32.0550  -17.2470   20.7180 C   0  0  0  0  0  1  0  0  0  0  0  0
  -30.6300  -16.6610   20.8760 C   0  0  2  0  0  0  0  0  0  0  0  0
  -31.2050  -14.2890   20.1720 C   0  0  0  0  0  0  0  0  0  0  0  0
  -30.7720  -12.1920   18.9470 C   0  0  0  0  0  2  0  0  0  0  0  0
  -29.8150  -12.4890   17.7730 C   0  0  0  0  0  2  0  0  0  0  0  0
  -28.3450  -12.4290   18.2320 C   0  0  0  0  0  2  0  0  0  0  0  0
  -28.0920  -13.2600   19.5180 C   0  0  0  0  0  3  0  0  0  0  0  0
  -29.1440  -12.9110   20.5950 C   0  0  0  0  0  2  0  0  0  0  0  0
  -30.4840  -13.1480   20.0240 N   0  0  0  0  0  0  0  0  0  0  0  0
  -32.2520  -14.5120   19.5560 O   0  0  0  0  0  0  0  0  0  0  0  0
  -30.6190  -15.1960   20.9690 N   0  0  0  0  0  0  0  0  0  0  0  0
  -29.8050  -14.8300   21.4380 H   0  0  0  0  0  0  0  0  0  0  0  0
  -25.7420  -14.0240   20.2470 C   0  0  0  0  0  0  0  0  0  0  0  0
  -24.6370  -13.3180   20.6450 C   0  0  0  0  0  0  0  0  0  0  0  0
  -25.0190  -11.9410   20.6260 C   0  0  0  0  0  0  0  0  0  0  0  0
  -26.7300  -13.0790   20.0150 N   0  0  0  0  0  0  0  0  0  0  0  0
  -26.2980  -11.8230   20.2960 N   0  0  0  0  0  0  0  0  0  0  0  0
  -24.2280  -10.7240   20.8470 C   0  0  0  0  0  0  0  0  0  0  0  0
  -24.6170   -9.7540   21.7960 C   0  0  0  0  0  3  0  0  0  0  0  0
  -23.8310   -8.6010   22.0040 C   0  0  0  0  0  3  0  0  0  0  0  0
  -22.6410   -8.4110   21.2640 C   0  0  0  0  0  0  0  0  0  0  0  0
  -22.2700   -9.3670   20.3020 C   0  0  0  0  0  3  0  0  0  0  0  0
  -23.0570  -10.5120   20.0930 C   0  0  0  0  0  3  0  0  0  0  0  0
  -21.8300   -7.3080   21.3800 O   0  0  0  0  0  0  0  0  0  0  0  0
  -21.7340   -6.6040   22.5540 C   0  0  0  0  0  0  0  0  0  0  0  0
  -21.3400   -7.2190   23.7620 C   0  0  0  0  0  3  0  0  0  0  0  0
  -21.1880   -6.4450   24.9290 C   0  0  0  0  0  3  0  0  0  0  0  0
  -21.4210   -5.0560   24.8890 C   0  0  0  0  0  0  0  0  0  0  0  0
  -21.8060   -4.4420   23.6850 C   0  0  0  0  0  3  0  0  0  0  0  0
  -21.9590   -5.2140   22.5200 C   0  0  0  0  0  0  0  0  0  0  0  0
  -22.3110   -4.6120   21.3590 F   0  0  0  0  0  0  0  0  0  0  0  0
  -21.2660   -4.3110   26.0090 F   0  0  0  0  0  0  0  0  0  0  0  0
  -23.2730  -13.8760   20.9370 C   0  0  0  0  0  0  0  0  0  0  0  0
  -22.5300  -13.2380   21.8340 N   0  0  0  0  0  0  0  0  0  0  0  0
  -22.8760  -14.9100   20.4020 O   0  0  0  0  0  0  0  0  0  0  0  0
  -22.8640  -12.4010   22.2890 H   0  0  0  0  0  0  0  0  0  0  0  0
  -21.6140  -13.5910   22.0710 H   0  0  0  0  0  0  0  0  0  0  0  0
  -25.9850  -15.3810   20.0490 N   0  0  0  0  0  0  0  0  0  0  0  0
  -25.2630  -16.0830   20.1690 H   0  0  0  0  0  0  0  0  0  0  0  0
  -26.8780  -15.7830   19.7680 H   0  0  0  0  0  0  0  0  0  0  0  0
  -30.4560  -18.0250   16.2500 C   0  0  0  0  0  2  0  0  0  0  0  0
  -31.6430  -18.7380   16.5910 O   0  0  0  0  0  0  0  0  0  0  0  0
  -31.3840  -19.6120   16.8700 H   0  0  0  0  0  0  0  0  0  0  0  0
  -26.8160  -20.7700   17.1150 C   0  0  0  0  0  2  0  0  0  0  0  0
  -25.9010  -20.8680   18.3480 C   0  0  0  0  0  2  0  0  0  0  0  0
  -26.6100  -21.1340   19.5560 O   0  0  0  0  0  0  0  0  0  0  0  0
  -27.0140  -22.4900   19.7060 C   0  0  0  0  0  2  0  0  0  0  0  0
  -27.4470  -22.7300   21.1600 C   0  0  0  0  0  2  0  0  0  0  0  0
  -27.6030  -24.1220   21.4240 O   0  0  0  0  0  0  0  0  0  0  0  0
  -28.9240  -24.6110   21.2150 C   0  0  0  0  0  2  0  0  0  0  0  0
  -28.9420  -26.1380   21.4020 C   0  0  0  0  0  2  0  0  0  0  0  0
  -28.5800  -26.7730   20.1810 O   0  0  0  0  0  0  0  0  0  0  0  0
  -24.5870  -31.8680   23.1750 C   0  0  0  0  0  0  0  0  0  0  0  0
  -27.3980  -27.4650   20.2150 C   0  0  0  0  0  0  0  0  0  0  0  0
  -23.4510  -30.4210   21.5190 C   0  0  0  0  0  3  0  0  0  0  0  0
  -24.9720  -28.8940   20.1550 C   0  0  0  0  0  0  0  0  0  0  0  0
  -25.9680  -30.8360   21.3760 C   0  0  0  0  0  2  0  0  0  0  0  0
  -26.0990  -29.4560   20.7710 C   0  0  0  0  0  0  0  0  0  0  0  0
  -27.3170  -28.7430   20.8070 C   0  0  0  0  0  3  0  0  0  0  0  0
  -26.2640  -26.9100   19.5960 C   0  0  0  0  0  3  0  0  0  0  0  0
  -25.0470  -27.6170   19.5700 C   0  0  0  0  0  3  0  0  0  0  0  0
  -23.7090  -29.7250   20.1550 C   0  0  0  0  0  2  0  0  0  0  0  0
  -24.6850  -31.0570   22.0840 N   0  0  0  0  0  0  0  0  0  0  0  0
  -23.4880  -32.1250   23.6840 O   0  0  0  0  0  0  0  0  0  0  0  0
  -22.7950  -29.4010   22.4760 C   0  0  0  0  0  0  0  0  0  0  0  0
  -21.4750  -29.2010   22.3250 N   0  0  0  0  0  0  0  0  0  0  0  0
  -23.4700  -28.7890   23.3090 O   0  0  0  0  0  0  0  0  0  0  0  0
  -20.9940  -29.7480   21.6240 H   0  0  0  0  0  0  0  0  0  0  0  0
  -18.1050  -27.9750   22.7560 C   0  0  0  0  0  0  0  0  0  0  0  0
  -20.6530  -28.2610   23.0840 C   0  0  0  0  0  3  0  0  0  0  0  0
  -20.7850  -26.8280   22.5210 C   0  0  0  0  0  2  0  0  0  0  0  0
  -19.7090  -26.4860   21.4870 C   0  0  0  0  0  2  0  0  0  0  0  0
  -18.3110  -26.6220   22.0980 C   0  0  0  0  0  2  0  0  0  0  0  0
  -19.2060  -28.7510   23.2060 C   0  0  0  0  0  0  0  0  0  0  0  0
  -18.9620  -30.0180   23.7820 C   0  0  0  0  0  3  0  0  0  0  0  0
  -17.6500  -30.5080   23.9120 C   0  0  0  0  0  3  0  0  0  0  0  0
  -16.5620  -29.7270   23.4820 C   0  0  0  0  0  3  0  0  0  0  0  0
  -16.7910  -28.4630   22.9100 C   0  0  0  0  0  3  0  0  0  0  0  0
  -25.8460  -32.5300   23.8190 C   0  0  0  0  0  3  0  0  0  0  0  0
  -25.4930  -33.9150   24.1580 N   0  0  0  0  0  0  0  0  0  0  0  0
  -25.8070  -34.9820   23.4130 C   0  0  0  0  0  0  0  0  0  0  0  0
  -26.4940  -34.9070   22.3920 O   0  0  0  0  0  0  0  0  0  0  0  0
  -24.8840  -34.0450   24.9530 H   0  0  0  0  0  0  0  0  0  0  0  0
  -24.0290  -36.7230   23.0510 C   0  0  0  0  0  1  0  0  0  0  0  0
  -25.2730  -36.3520   23.8740 C   0  0  0  0  0  3  0  0  0  0  0  0
  -27.3700  -37.2920   24.7350 C   0  0  0  0  0  1  0  0  0  0  0  0
  -26.2730  -37.4350   23.7800 N   0  0  0  0  0  0  0  0  0  0  0  0
  -25.8400  -38.3410   23.9320 H   0  0  0  0  0  0  0  0  0  0  0  0
  -26.3690  -31.7590   25.0920 C   0  0  1  0  0  0  0  0  0  0  0  0
  -25.2710  -31.4750   26.1430 C   0  0  0  0  0  1  0  0  0  0  0  0
  -26.9950  -30.4060   24.6830 C   0  0  0  0  0  1  0  0  0  0  0  0
  -27.4900  -32.5760   25.7780 C   0  0  0  0  0  1  0  0  0  0  0  0
  1  3  2  0
  2 54  1  0
  2  1  1  0
  4  2  1  0
  5 51  1  0
  5  1  1  0
  5  7  1  0
  6  8  2  0
  6 12  1  0
  7  6  1  0
  9  7  1  0
 12 11  1  6
 12 21  1  0
 12 10  1  0
 13 21  1  0
 14 19  1  0
 15 16  1  0
 15 14  1  0
 17 16  1  0
 17 26  1  0
 17 18  1  0
 19 13  1  0
 19 18  1  0
 20 13  2  0
 21 22  1  0
 23 24  2  0
 24 43  1  0
 25 24  1  0
 25 28  1  0
 26 23  1  0
 26 27  1  0
 27 25  2  0
 28 29  1  0
 29 30  2  0
 31 34  1  0
 31 30  1  0
 32 31  2  0
 33 32  1  0
 33 28  2  0
 34 35  1  0
 35 36  1  0
 36 37  2  0
 38 37  1  0
 38 42  1  0
 39 38  2  0
 40 35  2  0
 40 39  1  0
 41 40  1  0
 43 44  1  0
 44 47  1  0
 44 46  1  0
 45 43  2  0
 48 49  1  0
 48 23  1  0
 50 48  1  0
 51 52  1  0
 52 53  1  0
 54 55  1  0
 55 56  1  0
 56 57  1  0
 57 58  1  0
 58 59  1  0
 60 61  1  0
 60 59  1  0
 62 64  1  0
 62 61  1  0
 63 74  2  0
 64 69  1  0
 65 73  1  0
 65 75  1  0
 66 68  1  0
 67 73  1  0
 68 69  2  0
 68 67  1  0
 70 64  2  0
 71 70  1  0
 71 66  2  0
 72 66  1  0
 72 65  1  0
 73 63  1  0
 75 77  2  0
 76 75  1  0
 78 76  1  0
 79 88  2  0
 79 84  1  0
 80 76  1  0
 80 84  1  0
 81 80  1  0
 82 83  1  0
 82 81  1  0
 83 79  1  0
 84 85  2  0
 85 86  1  0
 87 86  2  0
 88 87  1  0
 89 63  1  0
 89 90  1  0
 89 99  1  0
 90 93  1  0
 91 95  1  0
 91 90  1  0
 92 91  2  0
 95 94  1  0
 97 95  1  0
 97 98  1  0
 97 96  1  0
 99102  1  1
 99100  1  0
101 99  1  0
M  ISO  4  13 100  21 100  61 101  62 101
M  END
>  <TORSDO>  (74) 
F 29

>  <SCORE>  (74) 
-10.630

>  <name>  (74) 
78

>  <ligand_id>  (74) 
78

>  <original_smiles>  (74) 
[H]OC([H])([H])C([H])(C(=O)N([H])C([H])([H])C([H])([H])OC([H])([H])C([H])([H])OC([H])([H])C([H])([H])Oc1c([H])c([H])c2c(c1[H])C([H])([H])N(C(=O)C([H])(N([H])C(=O)C([H])(N([H])C([H])([H])[H])C([H])([H])[H])C(C([H])([H])[H])(C([H])([H])[H])C([H])([H])[H])C([H])(C(=O)N([H])C1([H])c3c([H])c([H])c([H])c([H])c3C([H])([H])C([H])([H])C1([H])[H])C2([H])[H])N([H])C(=O)C(N([H])C(=O)N1C([H])([H])C([H])([H])C([H])([H])C([H])(n2nc(-c3c([H])c([H])c(Oc4c([H])c([H])c(F)c([H])c4F)c([H])c3[H])c(C(=O)N([H])[H])c2N([H])[H])C1([H])[H])(C([H])([H])[H])C([H])([H])[H]

>  <smiles>  (74) 
[H]OC([H])([H])C([H])(C(=O)N([H])C([H])([H])C([H])([H])OC([H])([H])C([H])([H])OC([H])([H])C([H])([H])Oc1c([H])c([H])c2c(c1[H])C([H])([H])N(C(=O)C([H])(N([H])C(=O)C([H])(N([H])C([H])([H])[H])C([H])([H])[H])C(C([H])([H])[H])(C([H])([H])[H])C([H])([H])[H])C([H])(C(=O)N([H])C1([H])c3c([H])c([H])c([H])c([H])c3C([H])([H])C([H])([H])C1([H])[H])C2([H])[H])N([H])C(=O)C(N([H])C(=O)N1C([H])([H])C([H])([H])C([H])([H])C([H])(n2nc(-c3c([H])c([H])c(Oc4c([H])c([H])c(F)c([H])c4F)c([H])c3[H])c(C(=O)N([H])[H])c2N([H])[H])C1([H])[H])(C([H])([H])[H])C([H])([H])[H]

$$$$
79:0:0
     RDKit          3D

101108  0  0  1  0  0  0  0  0999 V2000
  -27.5180  -13.1600   21.4830 C   0  0  0  0  0  3  0  0  0  0  0  0
  -30.5480  -13.4030   20.7440 C   0  0  0  0  0  0  0  0  0  0  0  0
  -31.5310  -11.6180   19.1360 C   0  0  0  0  0  2  0  0  0  0  0  0
  -30.7460  -11.7590   17.7630 C   0  0  0  0  0  2  0  0  0  0  0  0
  -29.1920  -11.6050   17.7900 C   0  0  0  0  0  2  0  0  0  0  0  0
  -28.8570  -12.3260   19.0040 C   0  0  0  0  0  3  0  0  0  0  0  0
  -29.5650  -11.4890   20.1610 C   0  0  0  0  0  2  0  0  0  0  0  0
  -30.7370  -12.1520   20.2660 N   0  0  0  0  0  0  0  0  0  0  0  0
  -31.5860  -14.1040   20.5620 O   0  0  0  0  0  0  0  0  0  0  0  0
  -29.1570  -13.7580   21.1950 N   0  0  0  0  0  0  0  0  0  0  0  0
  -29.1360  -14.7430   21.4210 H   0  0  0  0  0  0  0  0  0  0  0  0
  -26.2860  -13.8510   19.5970 C   0  0  0  0  0  3  0  0  0  0  0  0
  -25.2270  -13.2840   20.8430 C   0  0  0  0  0  3  0  0  0  0  0  0
  -25.7070  -11.6400   21.3640 C   0  0  0  0  0  3  0  0  0  0  0  0
  -27.5890  -12.4760   19.3710 N   0  0  0  0  0  0  0  0  0  0  0  0
  -27.1250  -11.2020   20.5800 N   0  0  0  0  0  2  0  0  0  0  0  0
  -24.7610  -10.3920   21.2270 C   0  0  0  0  0  0  0  0  0  0  0  0
  -25.0080   -9.2730   22.0460 C   0  0  0  0  0  3  0  0  0  0  0  0
  -24.1780   -8.1190   22.0680 C   0  0  0  0  0  3  0  0  0  0  0  0
  -23.0400   -8.0060   21.2360 C   0  0  0  0  0  0  0  0  0  0  0  0
  -22.8390   -9.0430   20.2840 C   0  0  0  0  0  3  0  0  0  0  0  0
  -23.7010  -10.1890   20.2690 C   0  0  0  0  0  3  0  0  0  0  0  0
  -22.1710   -6.9320   21.2860 O   0  0  0  0  0  0  0  0  0  0  0  0
  -21.9240   -6.2550   22.4800 C   0  0  0  0  0  0  0  0  0  0  0  0
  -21.1720   -6.8400   23.5180 C   0  0  0  0  0  3  0  0  0  0  0  0
  -20.9070   -6.1210   24.7050 C   0  0  0  0  0  3  0  0  0  0  0  0
  -21.3880   -4.8100   24.8590 C   0  0  0  0  0  0  0  0  0  0  0  0
  -22.1270   -4.2080   23.8190 C   0  0  0  0  0  3  0  0  0  0  0  0
  -22.3840   -4.9290   22.6280 C   0  0  0  0  0  0  0  0  0  0  0  0
  -23.0700   -4.3230   21.6360 F   0  0  0  0  0  0  0  0  0  0  0  0
  -21.1420   -4.1190   25.9950 F   0  0  0  0  0  0  0  0  0  0  0  0
  -23.7690  -13.6150   20.8170 C   0  0  0  0  0  0  0  0  0  0  0  0
  -22.9680  -13.1120   21.7600 N   0  0  0  0  0  0  0  0  0  0  0  0
  -23.3120  -14.3010   19.9090 O   0  0  0  0  0  0  0  0  0  0  0  0
  -23.3030  -12.5000   22.4850 H   0  0  0  0  0  0  0  0  0  0  0  0
  -21.9740  -13.2970   21.7150 H   0  0  0  0  0  0  0  0  0  0  0  0
  -26.3990  -15.0720   19.0230 N   0  0  0  0  0  0  0  0  0  0  0  0
  -25.5980  -15.6980   18.9700 H   0  0  0  0  0  0  0  0  0  0  0  0
  -27.1300  -15.2780   18.3550 H   0  0  0  0  0  0  0  0  0  0  0  0
  -27.2750  -14.9600   21.4920 C   0  0  0  0  0  2  0  0  0  0  0  0
  -28.2330  -16.1010   20.9100 O   0  0  0  0  0  0  0  0  0  0  0  0
  -27.9010  -17.5490   20.3260 C   0  0  0  0  0  2  0  0  0  0  0  0
  -28.6830  -18.4460   19.0450 C   0  0  0  0  0  2  0  0  0  0  0  0
  -28.7460  -20.0200   18.7500 O   0  0  0  0  0  0  0  0  0  0  0  0
  -29.5660  -20.8800   17.6740 C   0  0  0  0  0  3  0  0  0  0  0  0
  -29.7450  -22.6180   17.5110 C   0  0  0  0  0  3  0  0  0  0  0  0
  -30.6260  -23.6260   16.5860 O   0  0  0  0  0  0  0  0  0  0  0  0
  -34.8330  -28.0860   20.7430 C   0  0  0  0  0  0  0  0  0  0  0  0
  -30.9700  -24.9620   17.0520 C   0  0  0  0  0  0  0  0  0  0  0  0
  -32.4240  -28.5290   20.5230 C   0  0  0  0  0  3  0  0  0  0  0  0
  -31.2390  -27.4570   18.5150 C   0  0  0  0  0  0  0  0  0  0  0  0
  -33.7200  -27.4790   18.5540 C   0  0  0  0  0  2  0  0  0  0  0  0
  -32.4050  -26.8130   18.0870 C   0  0  0  0  0  0  0  0  0  0  0  0
  -32.2810  -25.5790   17.3240 C   0  0  0  0  0  3  0  0  0  0  0  0
  -29.8810  -25.7810   17.3850 C   0  0  0  0  0  3  0  0  0  0  0  0
  -29.9970  -26.9710   18.1160 C   0  0  0  0  0  3  0  0  0  0  0  0
  -31.3450  -28.6700   19.4210 C   0  0  0  0  0  2  0  0  0  0  0  0
  -33.7140  -28.0180   19.9610 N   0  0  0  0  0  0  0  0  0  0  0  0
  -34.7970  -28.5550   21.8890 O   0  0  0  0  0  0  0  0  0  0  0  0
  -31.8860  -27.6570   21.6870 C   0  0  0  0  0  0  0  0  0  0  0  0
  -30.9840  -28.2120   22.5180 N   0  0  0  0  0  0  0  0  0  0  0  0
  -32.2710  -26.4930   21.8160 O   0  0  0  0  0  0  0  0  0  0  0  0
  -30.7170  -29.1720   22.3430 H   0  0  0  0  0  0  0  0  0  0  0  0
  -28.5680  -28.6520   25.1900 C   0  0  0  0  0  0  0  0  0  0  0  0
  -30.3320  -27.5450   23.6510 C   0  0  0  0  0  3  0  0  0  0  0  0
  -29.1800  -26.6250   23.1750 C   0  0  0  0  0  2  0  0  0  0  0  0
  -27.8150  -27.3190   23.1750 C   0  0  0  0  0  2  0  0  0  0  0  0
  -27.4590  -27.8120   24.5810 C   0  0  0  0  0  2  0  0  0  0  0  0
  -29.9130  -28.5380   24.7440 C   0  0  0  0  0  0  0  0  0  0  0  0
  -30.8960  -29.3670   25.3260 C   0  0  0  0  0  3  0  0  0  0  0  0
  -30.5550  -30.2910   26.3320 C   0  0  0  0  0  3  0  0  0  0  0  0
  -29.2280  -30.3880   26.7800 C   0  0  0  0  0  3  0  0  0  0  0  0
  -28.2380  -29.5680   26.2120 C   0  0  0  0  0  3  0  0  0  0  0  0
  -36.2220  -27.5960   20.2260 C   0  0  0  0  0  3  0  0  0  0  0  0
  -37.2290  -28.5840   20.6520 N   0  0  0  0  0  0  0  0  0  0  0  0
  -37.7110  -29.5670   19.8840 C   0  0  0  0  0  0  0  0  0  0  0  0
  -37.3890  -29.7080   18.7020 O   0  0  0  0  0  0  0  0  0  0  0  0
  -37.4930  -28.5750   21.6260 H   0  0  0  0  0  0  0  0  0  0  0  0
  -37.9820  -31.8550   20.9030 C   0  0  0  0  0  1  0  0  0  0  0  0
  -38.7080  -30.5520   20.5320 C   0  0  0  0  0  3  0  0  0  0  0  0
  -40.7880  -29.7270   19.5220 C   0  0  0  0  0  1  0  0  0  0  0  0
  -39.8770  -30.8580   19.6790 N   0  0  0  0  0  0  0  0  0  0  0  0
  -40.4050  -31.6390   20.0600 H   0  0  0  0  0  0  0  0  0  0  0  0
  -36.6120  -26.1610   20.7520 C   0  0  1  0  0  0  0  0  0  0  0  0
  -36.5030  -26.0080   22.2870 C   0  0  0  0  0  1  0  0  0  0  0  0
  -35.7250  -25.0700   20.1090 C   0  0  0  0  0  1  0  0  0  0  0  0
  -38.0690  -25.8380   20.3440 C   0  0  0  0  0  1  0  0  0  0  0  0
  -27.7490  -12.7630   23.0590 C   0  0  0  0  0  2  0  0  0  0  0  0
  -28.7390  -11.6840   23.2480 O   0  0  0  0  0  0  0  0  0  0  0  0
  -28.8240  -10.9170   24.4670 C   0  0  0  0  0  2  0  0  0  0  0  0
  -28.7770   -9.3390   24.2940 C   0  0  0  0  0  3  0  0  0  0  0  0
  -29.4340   -8.7060   23.0370 C   0  0  0  0  0  3  0  0  0  0  0  0
  -29.0440   -7.2680   22.5870 C   0  0  0  0  0  2  0  0  0  0  0  0
  -29.3480   -7.1510   21.1790 O   0  0  0  0  0  0  0  0  0  0  0  0
  -28.2890   -7.4340   20.2470 C   0  0  0  0  0  2  0  0  0  0  0  0
  -28.8000   -8.2070   18.9970 C   0  0  0  0  0  2  0  0  0  0  0  0
  -27.7030   -8.6370   17.9990 C   0  0  0  0  0  2  0  0  0  0  0  0
  -28.2280   -9.4750   16.8970 N   0  0  0  0  0  4  0  0  0  0  0  0
  -28.7670  -10.2480   17.2440 H   0  0  0  0  0  0  0  0  0  0  0  0
  -27.4690   -9.8570   16.3570 H   0  0  0  0  0  0  0  0  0  0  0  0
  -28.8040   -8.9320   16.2810 H   0  0  0  0  0  0  0  0  0  0  0  0
  1 40  1  0
  1 88  1  0
  2 10  1  0
  3  8  1  0
  4  5  1  0
  4  3  1  0
  6  5  1  0
  6 15  1  0
  6  7  1  0
  7  8  1  0
  8  2  1  0
  9  2  2  0
 10 11  1  0
 10  1  1  0
 12 37  1  0
 12 13  1  0
 13 32  1  0
 13 14  1  0
 14 17  1  0
 15 12  1  0
 15 16  1  0
 16 14  1  0
 17 18  1  0
 18 19  2  0
 20 23  1  0
 20 19  1  0
 21 20  2  0
 22 21  1  0
 22 17  2  0
 23 24  1  0
 24 29  2  0
 24 25  1  0
 25 26  2  0
 26 27  1  0
 27 31  1  0
 28 27  2  0
 29 28  1  0
 30 29  1  0
 32 33  1  0
 33 35  1  0
 34 32  2  0
 36 33  1  0
 38 37  1  0
 39 37  1  0
 41 40  1  0
 42 41  1  0
 43 42  1  0
 44 43  1  0
 45 44  1  0
 46 45  2  0
 47 49  1  0
 47 46  1  0
 48 59  2  0
 49 54  2  0
 49 55  1  0
 50 60  1  0
 51 57  1  0
 52 58  1  0
 53 51  2  0
 53 52  1  0
 54 53  1  0
 55 56  2  0
 56 51  1  0
 57 50  1  0
 58 50  1  0
 58 48  1  0
 60 62  2  0
 60 61  1  0
 63 61  1  0
 64 73  1  0
 65 61  1  0
 65 69  1  0
 66 67  1  0
 66 65  1  0
 67 68  1  0
 68 64  1  0
 69 64  2  0
 69 70  1  0
 70 71  2  0
 71 72  1  0
 73 72  2  0
 74 75  1  0
 74 48  1  0
 74 84  1  0
 75 78  1  0
 76 80  1  0
 76 75  1  0
 77 76  2  0
 80 79  1  0
 81 82  1  0
 82 83  1  0
 82 80  1  0
 84 85  1  1
 86 84  1  0
 87 84  1  0
 88 89  1  0
 89 90  1  0
 91 90  1  0
 92 91  2  0
 93 92  1  0
 94 93  1  0
 95 94  1  0
 96 95  1  0
 97 96  1  0
 98 99  1  0
 98 97  1  0
100 98  1  0
101 98  1  0
M  ISO  4   2 100  10 100  46 101  47 101
M  END
>  <TORSDO>  (75) 
F 34

>  <SCORE>  (75) 
-1.679

>  <name>  (75) 
79

>  <ligand_id>  (75) 
79

>  <original_smiles>  (75) 
[H]c1c([H])c([H])c2c(c1[H])C([H])([H])C([H])([H])C([H])([H])C2([H])N([H])C(=O)C1([H])N(C(=O)C([H])(N([H])C(=O)C([H])(N([H])C([H])([H])[H])C([H])([H])[H])C(C([H])([H])[H])(C([H])([H])[H])C([H])([H])[H])C([H])([H])c2c([H])c(OC([H])([H])C([H])([H])OC([H])([H])C([H])([H])OC([H])([H])C([H])(N([H])C(=O)N3C([H])([H])C([H])([H])C([H])([H])C([H])(n4nc(-c5c([H])c([H])c(Oc6c([H])c([H])c(F)c([H])c6F)c([H])c5[H])c(C(=O)N([H])[H])c4N([H])[H])C3([H])[H])C([H])([H])OC([H])([H])C([H])([H])C([H])([H])C([H])([H])OC([H])([H])C([H])([H])C([H])([H])[N+]([H])([H])[H])c([H])c([H])c2C1([H])[H]

>  <smiles>  (75) 
[H]c1c([H])c([H])c2c(c1[H])C([H])([H])C([H])([H])C([H])([H])C2([H])N([H])C(=O)C1([H])N(C(=O)C([H])(N([H])C(=O)C([H])(N([H])C([H])([H])[H])C([H])([H])[H])C(C([H])([H])[H])(C([H])([H])[H])C([H])([H])[H])C([H])([H])c2c([H])c(OC([H])([H])C([H])([H])OC([H])([H])C([H])([H])OC([H])([H])C([H])(N([H])C(=O)N3C([H])([H])C([H])([H])C([H])([H])C([H])(n4nc(-c5c([H])c([H])c(Oc6c([H])c([H])c(F)c([H])c6F)c([H])c5[H])c(C(=O)N([H])[H])c4N([H])[H])C3([H])[H])C([H])([H])OC([H])([H])C([H])([H])C([H])([H])C([H])([H])OC([H])([H])C([H])([H])C([H])([H])[N+]([H])([H])[H])c([H])c([H])c2C1([H])[H]

$$$$
80:0:0
     RDKit          3D

109113  0  0  1  0  0  0  0  0999 V2000
  -21.7130  -25.2960   18.5750 O   0  0  0  0  0  0  0  0  0  0  0  0
  -22.0160  -26.6710   18.2390 C   0  0  0  0  0  2  0  0  0  0  0  0
  -21.0230  -27.7950   18.7300 C   0  0  0  0  0  2  0  0  0  0  0  0
  -20.7230  -27.9580   20.1430 O   0  0  0  0  0  0  0  0  0  0  0  0
  -21.7650  -28.2610   21.1590 C   0  0  0  0  0  1  0  0  0  0  0  0
  -23.0820  -26.4750   22.8440 C   0  0  0  0  0  2  0  0  0  0  0  0
  -24.3470  -25.6930   22.6130 O   0  0  0  0  0  0  0  0  0  0  0  0
  -25.5690  -25.6940   23.4260 C   0  0  0  0  0  2  0  0  0  0  0  0
  -26.8860  -25.8740   22.5430 C   0  0  0  0  0  2  0  0  0  0  0  0
  -28.1930  -26.0020   23.1890 O   0  0  0  0  0  0  0  0  0  0  0  0
  -29.3410  -26.1240   22.2860 C   0  0  0  0  0  2  0  0  0  0  0  0
  -30.7300  -26.5340   22.9280 C   0  0  0  0  0  3  0  0  0  0  0  0
  -31.8200  -27.2250   22.0030 C   0  0  0  0  0  3  0  0  0  0  0  0
  -33.1730  -27.3610   22.5520 O   0  0  0  0  0  0  0  0  0  0  0  0
  -34.0640  -28.3540   21.9480 C   0  0  0  0  0  2  0  0  0  0  0  0
  -35.6070  -28.1320   22.2360 C   0  0  0  0  0  2  0  0  0  0  0  0
  -36.6820  -29.1780   21.6950 C   0  0  0  0  0  2  0  0  0  0  0  0
  -39.2830  -29.1350   21.2360 C   0  0  0  0  0  0  0  0  0  0  0  0
  -41.1920  -28.3980   19.8050 C   0  0  0  0  0  2  0  0  0  0  0  0
  -40.6380  -28.1170   18.3880 C   0  0  0  0  0  2  0  0  0  0  0  0
  -40.0190  -26.7050   18.2920 C   0  0  0  0  0  2  0  0  0  0  0  0
  -39.0520  -26.4090   19.4690 C   0  0  0  0  0  3  0  0  0  0  0  0
  -39.7610  -26.7230   20.8020 C   0  0  0  0  0  2  0  0  0  0  0  0
  -40.1130  -28.1520   20.7770 N   0  0  0  0  0  0  0  0  0  0  0  0
  -39.5690  -30.3370   21.1380 O   0  0  0  0  0  0  0  0  0  0  0  0
  -38.0730  -28.6410   21.6550 N   0  0  0  0  0  0  0  0  0  0  0  0
  -38.1050  -27.6350   21.7320 H   0  0  0  0  0  0  0  0  0  0  0  0
  -37.2480  -24.5770   19.5500 C   0  0  0  0  0  0  0  0  0  0  0  0
  -37.3250  -23.2180   19.4200 C   0  0  0  0  0  0  0  0  0  0  0  0
  -38.7100  -22.9210   19.2270 C   0  0  0  0  0  0  0  0  0  0  0  0
  -38.5500  -25.0410   19.4460 N   0  0  0  0  0  0  0  0  0  0  0  0
  -39.4360  -24.0260   19.2990 N   0  0  0  0  0  0  0  0  0  0  0  0
  -39.3810  -21.6550   18.9180 C   0  0  0  0  0  0  0  0  0  0  0  0
  -40.4280  -21.1620   19.7280 C   0  0  0  0  0  3  0  0  0  0  0  0
  -41.0520  -19.9330   19.4180 C   0  0  0  0  0  3  0  0  0  0  0  0
  -40.6250  -19.1860   18.2950 C   0  0  0  0  0  0  0  0  0  0  0  0
  -39.6000  -19.6960   17.4800 C   0  0  0  0  0  3  0  0  0  0  0  0
  -38.9840  -20.9190   17.7850 C   0  0  0  0  0  3  0  0  0  0  0  0
  -41.1900  -17.9960   17.9020 O   0  0  0  0  0  0  0  0  0  0  0  0
  -41.8020  -17.1600   18.7990 C   0  0  0  0  0  0  0  0  0  0  0  0
  -41.1130  -16.6240   19.9090 C   0  0  0  0  0  3  0  0  0  0  0  0
  -41.7610  -15.7120   20.7660 C   0  0  0  0  0  3  0  0  0  0  0  0
  -43.0920  -15.3300   20.5130 C   0  0  0  0  0  0  0  0  0  0  0  0
  -43.7790  -15.8600   19.4060 C   0  0  0  0  0  3  0  0  0  0  0  0
  -43.1330  -16.7700   18.5500 C   0  0  0  0  0  0  0  0  0  0  0  0
  -43.7920  -17.2620   17.4730 F   0  0  0  0  0  0  0  0  0  0  0  0
  -43.7130  -14.4490   21.3310 F   0  0  0  0  0  0  0  0  0  0  0  0
  -36.1750  -22.2550   19.3770 C   0  0  0  0  0  0  0  0  0  0  0  0
  -36.3550  -21.0590   19.9260 N   0  0  0  0  0  0  0  0  0  0  0  0
  -35.0890  -22.5760   18.8930 O   0  0  0  0  0  0  0  0  0  0  0  0
  -37.2380  -20.8020   20.3430 H   0  0  0  0  0  0  0  0  0  0  0  0
  -35.6000  -20.3900   19.9310 H   0  0  0  0  0  0  0  0  0  0  0  0
  -36.1810  -25.4550   19.7310 N   0  0  0  0  0  0  0  0  0  0  0  0
  -35.2220  -25.1270   19.7350 H   0  0  0  0  0  0  0  0  0  0  0  0
  -36.2600  -26.4620   19.7070 H   0  0  0  0  0  0  0  0  0  0  0  0
  -22.8130  -24.3470   18.6880 C   0  0  0  0  0  2  0  0  0  0  0  0
  -23.4810  -24.3390   20.0970 C   0  0  0  0  0  2  0  0  0  0  0  0
  -24.7880  -23.5230   20.4290 C   0  0  0  0  0  2  0  0  0  0  0  0
  -26.9020  -22.6200   19.4330 C   0  0  0  0  0  0  0  0  0  0  0  0
  -25.6630  -23.1420   19.3130 N   0  0  0  0  0  0  0  0  0  0  0  0
  -27.4030  -22.3180   20.5220 O   0  0  0  0  0  0  0  0  0  0  0  0
  -25.3210  -23.2970   18.3770 H   0  0  0  0  0  0  0  0  0  0  0  0
  -27.6650  -21.0500   17.5440 C   0  0  0  0  0  1  0  0  0  0  0  0
  -27.7280  -22.4770   18.1250 C   0  0  0  0  0  3  0  0  0  0  0  0
  -29.6570  -23.8350   18.8110 C   0  0  0  0  0  3  0  0  0  0  0  0
  -29.1450  -22.8110   18.2330 N   0  0  0  0  0  0  0  0  0  0  0  0
  -29.0200  -24.9090   19.6910 C   0  0  0  0  0  2  0  0  0  0  0  0
  -28.1570  -25.9810   19.0010 C   0  0  0  0  0  2  0  0  0  0  0  0
  -28.0600  -27.0950   19.8990 O   0  0  0  0  0  0  0  0  0  0  0  0
  -24.7590  -32.4310   23.2550 C   0  0  0  0  0  0  0  0  0  0  0  0
  -26.8880  -27.8160   20.0070 C   0  0  0  0  0  0  0  0  0  0  0  0
  -23.3610  -31.0660   21.7730 C   0  0  0  0  0  3  0  0  0  0  0  0
  -24.5710  -29.4220   20.2530 C   0  0  0  0  0  0  0  0  0  0  0  0
  -25.8490  -31.2870   21.3220 C   0  0  0  0  0  2  0  0  0  0  0  0
  -25.7970  -29.8920   20.7330 C   0  0  0  0  0  0  0  0  0  0  0  0
  -26.9510  -29.0820   20.6320 C   0  0  0  0  0  3  0  0  0  0  0  0
  -25.6370  -27.3570   19.5340 C   0  0  0  0  0  3  0  0  0  0  0  0
  -24.4940  -28.1650   19.6410 C   0  0  0  0  0  3  0  0  0  0  0  0
  -23.3860  -30.3430   20.3970 C   0  0  0  0  0  2  0  0  0  0  0  0
  -24.6810  -31.6180   22.1660 N   0  0  0  0  0  0  0  0  0  0  0  0
  -23.7480  -32.7460   23.9010 O   0  0  0  0  0  0  0  0  0  0  0  0
  -22.8520  -30.0980   22.8390 C   0  0  0  0  0  0  0  0  0  0  0  0
  -21.5420  -29.9810   22.9180 N   0  0  0  0  0  0  0  0  0  0  0  0
  -23.6120  -29.4620   23.5740 O   0  0  0  0  0  0  0  0  0  0  0  0
  -20.9500  -30.6010   22.3880 H   0  0  0  0  0  0  0  0  0  0  0  0
  -17.9140  -28.2860   23.2990 C   0  0  0  0  0  0  0  0  0  0  0  0
  -20.9240  -28.9170   23.6630 C   0  0  0  0  0  2  0  0  0  0  0  0
  -21.5160  -27.1580   22.9240 C   0  0  0  0  0  1  0  0  0  0  0  0
  -20.0540  -25.9050   22.3100 C   0  0  0  0  0 15  0  0  0  0  0  0
  -18.1760  -26.5650   22.5820 C   0  0  0  0  0  1  0  0  0  0  0  0
  -19.1080  -29.2910   23.7790 C   0  0  0  0  0  0  0  0  0  0  0  0
  -18.7410  -30.5760   24.1840 C   0  0  0  0  0  3  0  0  0  0  0  0
  -17.3920  -30.9540   24.2010 C   0  0  0  0  0  3  0  0  0  0  0  0
  -16.3580  -30.0780   23.8130 C   0  0  0  0  0  3  0  0  0  0  0  0
  -16.6040  -28.7680   23.3720 C   0  0  0  0  0  3  0  0  0  0  0  0
  -26.1190  -33.0110   23.7290 C   0  0  0  0  0  3  0  0  0  0  0  0
  -26.7910  -32.1540   24.8680 C   0  0  1  0  0  0  0  0  0  0  0  0
  -25.8440  -31.8300   26.0490 C   0  0  0  0  0  1  0  0  0  0  0  0
  -27.3270  -30.8180   24.3000 C   0  0  0  0  0  1  0  0  0  0  0  0
  -28.0150  -32.9170   25.4230 C   0  0  0  0  0  1  0  0  0  0  0  0
  -25.8700  -34.3850   24.1780 N   0  0  0  0  0  0  0  0  0  0  0  0
  -26.1680  -35.4750   23.4590 C   0  0  0  0  0  0  0  0  0  0  0  0
  -26.7560  -35.4260   22.3740 O   0  0  0  0  0  0  0  0  0  0  0  0
  -25.3590  -34.4960   25.0410 H   0  0  0  0  0  0  0  0  0  0  0  0
  -24.4690  -37.3240   23.3310 C   0  0  0  0  0  1  0  0  0  0  0  0
  -25.7470  -36.8400   24.0360 C   0  0  0  0  0  3  0  0  0  0  0  0
  -27.9510  -37.6180   24.7910 C   0  0  0  0  0  1  0  0  0  0  0  0
  -26.8010  -37.8740   23.9260 N   0  0  0  0  0  0  0  0  0  0  0  0
  -26.4330  -38.7930   24.1520 H   0  0  0  0  0  0  0  0  0  0  0  0
  1 56  1  0
  2  1  1  0
  2  3  1  0
  3  4  1  0
  4  5  1  0
  6 88  1  0
  7  6  1  0
  7  8  1  0
  9 10  1  0
  9  8  1  0
 11 12  1  0
 11 10  1  0
 13 14  1  0
 13 12  2  0
 15 16  1  0
 15 14  1  0
 17 16  1  0
 18 26  1  0
 19 24  1  0
 20 19  1  0
 21 20  1  0
 22 21  1  0
 22 23  1  0
 24 23  1  0
 24 18  1  0
 25 18  2  0
 26 17  1  0
 26 27  1  0
 28 53  1  0
 29 28  2  0
 30 32  2  0
 30 29  1  0
 31 22  1  0
 31 28  1  0
 32 31  1  0
 33 30  1  0
 33 34  1  0
 35 34  2  0
 36 35  1  0
 37 38  1  0
 37 36  2  0
 38 33  2  0
 39 36  1  0
 39 40  1  0
 40 41  1  0
 41 42  2  0
 43 42  1  0
 43 47  1  0
 44 43  2  0
 45 40  2  0
 45 44  1  0
 46 45  1  0
 48 29  1  0
 48 49  1  0
 49 52  1  0
 49 51  1  0
 50 48  2  0
 53 54  1  0
 55 53  1  0
 56 57  1  0
 57 58  1  0
 59 61  2  0
 60 59  1  0
 60 58  1  0
 62 60  1  0
 64 63  1  0
 64 66  1  0
 64 59  1  0
 65 67  1  0
 66 65  2  0
 68 67  1  0
 68 69  1  0
 69 71  1  0
 70 81  2  0
 71 76  1  0
 72 80  1  0
 72 82  1  0
 73 79  1  0
 73 75  1  0
 74 80  1  0
 75 74  1  0
 76 75  2  0
 77 78  1  0
 77 71  2  0
 78 73  2  0
 79 72  1  0
 80 70  1  0
 82 83  1  0
 82 84  2  0
 83 87  1  0
 85 83  1  0
 86 95  2  0
 86 91  1  0
 87 91  1  0
 90 86  1  0
 91 92  2  0
 92 93  1  0
 94 93  2  0
 95 94  1  0
 96 70  1  0
 96101  1  0
 96 97  1  0
 97100  1  1
 97 98  1  0
 99 97  1  0
101104  1  0
102106  1  0
102101  1  0
103102  2  0
106105  1  0
108106  1  0
108109  1  0
108107  1  0
M  ISO  4  18 100  26 100  68 101  69 101
M  END
>  <TORSDO>  (76) 
F 40

>  <SCORE>  (76) 
-4.878

>  <name>  (76) 
80

>  <ligand_id>  (76) 
80

>  <original_smiles>  (76) 
[H]C(=NC([H])(C(=O)N([H])C([H])([H])C([H])([H])C([H])([H])OC([H])([H])C([H])([H])OC([H])([H])C([H])([H])OC([H])([H])C([H])([H])OC([H])([H])C([H])([H])C([H])([H])OC([H])([H])C([H])([H])C([H])([H])N([H])C(=O)N1C([H])([H])C([H])([H])C([H])([H])C([H])(n2nc(-c3c([H])c([H])c(Oc4c([H])c([H])c(F)c([H])c4F)c([H])c3[H])c(C(=O)N([H])[H])c2N([H])[H])C1([H])[H])C([H])([H])[H])C([H])([H])C([H])([H])Oc1c([H])c([H])c2c(c1[H])C([H])([H])N(C(=O)C([H])(N([H])C(=O)C([H])(N([H])C([H])([H])[H])C([H])([H])[H])C(C([H])([H])[H])(C([H])([H])[H])C([H])([H])[H])C([H])(C(=O)N([H])C1([H])c3c([H])c([H])c([H])c([H])c3C([H])([H])C([H])([H])C1([H])[H])C2([H])[H]

>  <smiles>  (76) 
[H]C(=NC([H])(C(=O)N([H])C([H])([H])C([H])([H])C([H])([H])OC([H])([H])C([H])([H])OC([H])([H])C([H])([H])OC([H])([H])C([H])([H])OC([H])([H])C([H])([H])C([H])([H])OC([H])([H])C([H])([H])C([H])([H])N([H])C(=O)N1C([H])([H])C([H])([H])C([H])([H])C([H])(n2nc(-c3c([H])c([H])c(Oc4c([H])c([H])c(F)c([H])c4F)c([H])c3[H])c(C(=O)N([H])[H])c2N([H])[H])C1([H])[H])C([H])([H])[H])C([H])([H])C([H])([H])Oc1c([H])c([H])c2c(c1[H])C([H])([H])N(C(=O)C([H])(N([H])C(=O)C([H])(N([H])C([H])([H])[H])C([H])([H])[H])C(C([H])([H])[H])(C([H])([H])[H])C([H])([H])[H])C([H])(C(=O)N([H])C1([H])c3c([H])c([H])c([H])c([H])c3C([H])([H])C([H])([H])C1([H])[H])C2([H])[H]

$$$$
81:0:0
     RDKit          3D

111118  0  0  1  0  0  0  0  0999 V2000
  -20.1920  -22.3470   23.3940 N   0  0  0  0  0  4  0  0  0  0  0  0
  -19.9220  -23.3180   23.4010 H   0  0  0  0  0  0  0  0  0  0  0  0
  -21.1760  -22.2980   23.6120 H   0  0  0  0  0  0  0  0  0  0  0  0
  -19.4920  -21.6120   24.4630 C   0  0  0  0  0  2  0  0  0  0  0  0
  -19.8560  -22.2150   25.8170 C   0  0  0  0  0  2  0  0  0  0  0  0
  -21.2680  -22.3840   25.8040 O   0  0  0  0  0  0  0  0  0  0  0  0
  -21.7500  -23.1060   26.9240 C   0  0  0  0  0  2  0  0  0  0  0  0
  -23.2550  -23.3220   26.7330 C   0  0  0  0  0  2  0  0  0  0  0  0
  -23.5760  -24.2300   25.5290 C   0  0  0  0  0  2  0  0  0  0  0  0
  -25.0580  -24.2100   25.1340 C   0  0  0  0  0  2  0  0  0  0  0  0
  -25.3770  -22.8950   24.7040 O   0  0  0  0  0  0  0  0  0  0  0  0
  -26.7090  -22.7560   24.2350 C   0  0  0  0  0  2  0  0  0  0  0  0
  -26.9600  -21.2680   23.9630 C   0  0  0  0  0  2  0  0  0  0  0  0
  -28.3700  -20.9730   23.4390 C   0  0  0  0  0  2  0  0  0  0  0  0
  -28.5240  -19.5640   23.3400 O   0  0  0  0  0  0  0  0  0  0  0  0
  -29.7960  -19.1810   22.8420 C   0  0  0  0  0  2  0  0  0  0  0  0
  -29.9240  -17.6550   22.9240 C   0  0  0  0  0  2  0  0  0  0  0  0
  -31.2950  -17.1660   22.4300 C   0  0  0  0  0  2  0  0  0  0  0  0
  -31.5540  -15.6720   22.6900 C   0  0  0  0  0  2  0  0  0  0  0  0
  -30.8250  -14.2950   20.7500 C   0  0  0  0  0  0  0  0  0  0  0  0
  -30.4100  -12.2910   19.3780 C   0  0  0  0  0  2  0  0  0  0  0  0
  -29.4730  -12.5380   18.1840 C   0  0  0  0  0  2  0  0  0  0  0  0
  -28.0040  -12.3800   18.6090 C   0  0  0  0  0  2  0  0  0  0  0  0
  -27.6660  -13.2030   19.8790 C   0  0  0  0  0  3  0  0  0  0  0  0
  -28.7040  -12.9570   20.9960 C   0  0  0  0  0  2  0  0  0  0  0  0
  -30.0540  -13.2180   20.4610 N   0  0  0  0  0  0  0  0  0  0  0  0
  -31.7590  -14.6790   20.0390 O   0  0  0  0  0  0  0  0  0  0  0  0
  -30.6300  -14.7930   21.9760 N   0  0  0  0  0  0  0  0  0  0  0  0
  -29.8810  -14.3770   22.5110 H   0  0  0  0  0  0  0  0  0  0  0  0
  -25.2600  -13.8160   20.5660 C   0  0  0  0  0  0  0  0  0  0  0  0
  -24.1830  -13.0430   20.9160 C   0  0  0  0  0  0  0  0  0  0  0  0
  -24.6380  -11.6920   20.8720 C   0  0  0  0  0  0  0  0  0  0  0  0
  -26.3040  -12.9320   20.3380 N   0  0  0  0  0  0  0  0  0  0  0  0
  -25.9320  -11.6480   20.5760 N   0  0  0  0  0  0  0  0  0  0  0  0
  -23.9050  -10.4300   21.0410 C   0  0  0  0  0  0  0  0  0  0  0  0
  -24.3610   -9.4220   21.9180 C   0  0  0  0  0  3  0  0  0  0  0  0
  -23.6290   -8.2250   22.0760 C   0  0  0  0  0  3  0  0  0  0  0  0
  -22.4270   -8.0280   21.3550 C   0  0  0  0  0  0  0  0  0  0  0  0
  -21.9900   -9.0260   20.4650 C   0  0  0  0  0  3  0  0  0  0  0  0
  -22.7220  -10.2140   20.3050 C   0  0  0  0  0  3  0  0  0  0  0  0
  -21.6640   -6.8880   21.4240 O   0  0  0  0  0  0  0  0  0  0  0  0
  -21.6850   -6.0730   22.5280 C   0  0  0  0  0  0  0  0  0  0  0  0
  -21.4020   -6.5640   23.8210 C   0  0  0  0  0  3  0  0  0  0  0  0
  -21.3660   -5.6790   24.9170 C   0  0  0  0  0  3  0  0  0  0  0  0
  -21.6040   -4.3060   24.7220 C   0  0  0  0  0  0  0  0  0  0  0  0
  -21.8820   -3.8140   23.4350 C   0  0  0  0  0  3  0  0  0  0  0  0
  -21.9190   -4.6960   22.3400 C   0  0  0  0  0  0  0  0  0  0  0  0
  -22.1660   -4.2150   21.0980 F   0  0  0  0  0  0  0  0  0  0  0  0
  -21.5630   -3.4540   25.7740 F   0  0  0  0  0  0  0  0  0  0  0  0
  -22.7870  -13.5270   21.1820 C   0  0  0  0  0  0  0  0  0  0  0  0
  -22.0500  -12.8240   22.0390 N   0  0  0  0  0  0  0  0  0  0  0  0
  -22.3550  -14.5560   20.6690 O   0  0  0  0  0  0  0  0  0  0  0  0
  -22.4130  -11.9920   22.4760 H   0  0  0  0  0  0  0  0  0  0  0  0
  -21.1120  -13.1270   22.2590 H   0  0  0  0  0  0  0  0  0  0  0  0
  -25.4330  -15.1870   20.4070 N   0  0  0  0  0  0  0  0  0  0  0  0
  -24.6720  -15.8480   20.5240 H   0  0  0  0  0  0  0  0  0  0  0  0
  -26.2980  -15.6250   20.1160 H   0  0  0  0  0  0  0  0  0  0  0  0
  -20.0120  -21.7950   22.0460 C   0  0  0  0  0  2  0  0  0  0  0  0
  -20.9090  -22.5350   21.0500 C   0  0  0  0  0  2  0  0  0  0  0  0
  -22.3180  -22.3770   21.4170 N   0  0  0  0  0  0  0  0  0  0  0  0
  -22.5320  -22.9040   22.2570 H   0  0  0  0  0  0  0  0  0  0  0  0
  -23.1500  -22.9670   20.3840 C   0  0  0  0  0  2  0  0  0  0  0  0
  -23.3210  -22.0180   19.1920 C   0  0  0  0  0  2  0  0  0  0  0  0
  -24.1450  -22.6990   18.1020 C   0  0  0  0  0  2  0  0  0  0  0  0
  -25.4070  -23.0980   18.6250 O   0  0  0  0  0  0  0  0  0  0  0  0
  -26.3900  -22.0700   18.6910 C   0  0  0  0  0  2  0  0  0  0  0  0
  -27.6540  -22.6360   19.3630 C   0  0  0  0  0  2  0  0  0  0  0  0
  -27.8520  -23.9530   18.8560 O   0  0  0  0  0  0  0  0  0  0  0  0
  -29.0490  -24.6070   19.2490 C   0  0  0  0  0  2  0  0  0  0  0  0
  -28.8870  -26.1100   18.9490 C   0  0  0  0  0  2  0  0  0  0  0  0
  -28.4460  -26.7950   20.1120 O   0  0  0  0  0  0  0  0  0  0  0  0
  -24.6140  -31.8720   23.2110 C   0  0  0  0  0  0  0  0  0  0  0  0
  -27.2440  -27.4630   20.0750 C   0  0  0  0  0  0  0  0  0  0  0  0
  -23.3990  -30.4870   21.5550 C   0  0  0  0  0  3  0  0  0  0  0  0
  -24.8390  -28.9310   20.1310 C   0  0  0  0  0  0  0  0  0  0  0  0
  -25.9240  -30.8240   21.3740 C   0  0  0  0  0  2  0  0  0  0  0  0
  -25.9940  -29.4620   20.7170 C   0  0  0  0  0  0  0  0  0  0  0  0
  -27.1910  -28.7220   20.7030 C   0  0  0  0  0  3  0  0  0  0  0  0
  -26.0720  -26.9300   19.4890 C   0  0  0  0  0  3  0  0  0  0  0  0
  -24.8640  -27.6580   19.5300 C   0  0  0  0  0  3  0  0  0  0  0  0
  -23.6020  -29.7910   20.1790 C   0  0  0  0  0  2  0  0  0  0  0  0
  -24.6640  -31.0730   22.1060 N   0  0  0  0  0  0  0  0  0  0  0  0
  -23.5340  -32.1550   23.7460 O   0  0  0  0  0  0  0  0  0  0  0  0
  -22.7410  -29.4700   22.5120 C   0  0  0  0  0  0  0  0  0  0  0  0
  -21.4150  -29.3040   22.3820 N   0  0  0  0  0  0  0  0  0  0  0  0
  -23.4190  -28.8270   23.3180 O   0  0  0  0  0  0  0  0  0  0  0  0
  -20.9410  -29.8630   21.6880 H   0  0  0  0  0  0  0  0  0  0  0  0
  -18.0260  -28.1450   22.8510 C   0  0  0  0  0  0  0  0  0  0  0  0
  -20.5840  -28.3690   23.1380 C   0  0  0  0  0  3  0  0  0  0  0  0
  -20.6780  -26.9460   22.5390 C   0  0  0  0  0  2  0  0  0  0  0  0
  -19.5770  -26.6560   21.5170 C   0  0  0  0  0  2  0  0  0  0  0  0
  -18.1940  -26.8030   22.1570 C   0  0  0  0  0  2  0  0  0  0  0  0
  -19.1510  -28.8890   23.2940 C   0  0  0  0  0  0  0  0  0  0  0  0
  -18.9440  -30.1520   23.8920 C   0  0  0  0  0  3  0  0  0  0  0  0
  -17.6450  -30.6650   24.0620 C   0  0  0  0  0  3  0  0  0  0  0  0
  -16.5330  -29.9150   23.6430 C   0  0  0  0  0  3  0  0  0  0  0  0
  -16.7240  -28.6590   23.0380 C   0  0  0  0  0  3  0  0  0  0  0  0
  -25.9040  -32.4850   23.8400 C   0  0  0  0  0  3  0  0  0  0  0  0
  -26.4500  -31.6700   25.0750 C   0  0  1  0  0  0  0  0  0  0  0  0
  -25.3790  -31.3790   26.1500 C   0  0  0  0  0  1  0  0  0  0  0  0
  -27.0420  -30.3150   24.6250 C   0  0  0  0  0  1  0  0  0  0  0  0
  -27.6060  -32.4490   25.7510 C   0  0  0  0  0  1  0  0  0  0  0  0
  -25.5930  -33.8670   24.2290 N   0  0  0  0  0  0  0  0  0  0  0  0
  -25.9050  -34.9470   23.5030 C   0  0  0  0  0  0  0  0  0  0  0  0
  -26.5590  -34.8920   22.4580 O   0  0  0  0  0  0  0  0  0  0  0  0
  -25.0110  -33.9980   25.0440 H   0  0  0  0  0  0  0  0  0  0  0  0
  -24.1480  -36.7290   23.2630 C   0  0  0  0  0  1  0  0  0  0  0  0
  -25.4120  -36.3080   24.0300 C   0  0  0  0  0  3  0  0  0  0  0  0
  -27.5580  -37.1770   24.8450 C   0  0  0  0  0  1  0  0  0  0  0  0
  -26.4300  -37.3750   23.9370 N   0  0  0  0  0  0  0  0  0  0  0  0
  -26.0160  -38.2790   24.1460 H   0  0  0  0  0  0  0  0  0  0  0  0
  1  2  1  0
  1  3  1  0
  1  4  1  0
  4  5  1  0
  6  5  1  0
  6  7  1  0
  8  7  1  0
  9  8  1  0
 10  9  1  0
 11 10  1  0
 12 11  1  0
 13 12  1  0
 14 13  1  0
 15 14  1  0
 16 17  1  0
 16 15  1  0
 18 19  1  0
 18 17  1  0
 20 28  1  0
 21 26  1  0
 22 23  1  0
 22 21  1  0
 24 23  1  0
 24 33  1  0
 24 25  1  0
 26 20  1  0
 26 25  1  0
 27 20  2  0
 28 29  1  0
 28 19  1  0
 30 31  2  0
 31 50  1  0
 32 31  1  0
 32 35  1  0
 33 30  1  0
 33 34  1  0
 34 32  2  0
 35 36  1  0
 36 37  2  0
 38 41  1  0
 38 37  1  0
 39 38  2  0
 40 39  1  0
 40 35  2  0
 41 42  1  0
 42 43  1  0
 43 44  2  0
 45 44  1  0
 45 49  1  0
 46 45  2  0
 47 42  2  0
 47 46  1  0
 48 47  1  0
 50 51  1  0
 51 54  1  0
 51 53  1  0
 52 50  2  0
 55 56  1  0
 55 30  1  0
 57 55  1  0
 58  1  1  0
 59 60  1  0
 59 58  1  0
 60 61  1  0
 62 60  1  0
 63 62  1  0
 64 65  1  0
 64 63  1  0
 65 66  1  0
 66 67  1  0
 68 69  1  0
 68 67  1  0
 70 69  1  0
 70 71  1  0
 72 83  2  0
 73 71  1  0
 73 78  1  0
 74 82  1  0
 74 84  1  0
 75 81  1  0
 75 77  1  0
 76 82  1  0
 77 76  1  0
 78 77  2  0
 79 80  1  0
 79 73  2  0
 80 75  2  0
 81 74  1  0
 82 72  1  0
 84 86  2  0
 85 84  1  0
 87 85  1  0
 88 97  2  0
 88 93  1  0
 89 85  1  0
 89 93  1  0
 90 89  1  0
 91 92  1  0
 91 90  1  0
 92 88  1  0
 93 94  2  0
 94 95  1  0
 96 95  2  0
 97 96  1  0
 98 72  1  0
 98103  1  0
 98 99  1  0
 99102  1  1
 99100  1  0
101 99  1  0
103106  1  0
104108  1  0
104103  1  0
105104  2  0
108107  1  0
110108  1  0
110111  1  0
110109  1  0
M  ISO  4  20 100  28 100  70 101  71 101
M  END
>  <TORSDO>  (77) 
F 44

>  <SCORE>  (77) 
43.518

>  <name>  (77) 
81

>  <ligand_id>  (77) 
81

>  <original_smiles>  (77) 
[H]c1c([H])c([H])c2c(c1[H])C([H])([H])C([H])([H])C([H])([H])C2([H])N([H])C(=O)C1([H])N(C(=O)C([H])(N([H])C(=O)C([H])(N([H])C([H])([H])[H])C([H])([H])[H])C(C([H])([H])[H])(C([H])([H])[H])C([H])([H])[H])C([H])([H])c2c([H])c(OC([H])([H])C([H])([H])OC([H])([H])C([H])([H])OC([H])([H])C([H])([H])C([H])([H])N([H])C([H])([H])C([H])([H])[N+]([H])([H])C([H])([H])C([H])([H])OC([H])([H])C([H])([H])C([H])([H])C([H])([H])OC([H])([H])C([H])([H])C([H])([H])OC([H])([H])C([H])([H])C([H])([H])C([H])([H])N([H])C(=O)N3C([H])([H])C([H])([H])C([H])([H])C([H])(n4nc(-c5c([H])c([H])c(Oc6c([H])c([H])c(F)c([H])c6F)c([H])c5[H])c(C(=O)N([H])[H])c4N([H])[H])C3([H])[H])c([H])c([H])c2C1([H])[H]

>  <smiles>  (77) 
[H]c1c([H])c([H])c2c(c1[H])C([H])([H])C([H])([H])C([H])([H])C2([H])N([H])C(=O)C1([H])N(C(=O)C([H])(N([H])C(=O)C([H])(N([H])C([H])([H])[H])C([H])([H])[H])C(C([H])([H])[H])(C([H])([H])[H])C([H])([H])[H])C([H])([H])c2c([H])c(OC([H])([H])C([H])([H])OC([H])([H])C([H])([H])OC([H])([H])C([H])([H])C([H])([H])N([H])C([H])([H])C([H])([H])[N+]([H])([H])C([H])([H])C([H])([H])OC([H])([H])C([H])([H])C([H])([H])C([H])([H])OC([H])([H])C([H])([H])C([H])([H])OC([H])([H])C([H])([H])C([H])([H])C([H])([H])N([H])C(=O)N3C([H])([H])C([H])([H])C([H])([H])C([H])(n4nc(-c5c([H])c([H])c(Oc6c([H])c([H])c(F)c([H])c6F)c([H])c5[H])c(C(=O)N([H])[H])c4N([H])[H])C3([H])[H])c([H])c([H])c2C1([H])[H]

$$$$
82:0:0
     RDKit          3D

104109  0  0  1  0  0  0  0  0999 V2000
  -26.9340  -19.2280   17.2270 C   0  0  0  0  0  2  0  0  0  0  0  0
  -27.6850  -18.4250   18.2100 N   0  0  0  0  0  4  0  0  0  0  0  0
  -28.2060  -19.0390   18.8170 H   0  0  0  0  0  0  0  0  0  0  0  0
  -28.3510  -17.8600   17.7060 H   0  0  0  0  0  0  0  0  0  0  0  0
  -26.8770  -17.5450   19.0750 C   0  0  0  0  0  2  0  0  0  0  0  0
  -27.7400  -16.3780   19.5450 C   0  0  0  0  0  2  0  0  0  0  0  0
  -28.1700  -16.6570   20.8820 O   0  0  0  0  0  0  0  0  0  0  0  0
  -29.3590  -15.9600   21.2430 C   0  0  0  0  0  2  0  0  0  0  0  0
  -29.1730  -14.5610   22.0280 C   0  0  0  0  0  1  0  0  0  0  0  0
  -28.2870  -12.0410   21.3370 C   0  0  0  0  0  2  0  0  0  0  0  0
  -28.9520  -10.5730   21.2050 C   0  0  0  0  0  2  0  0  0  0  0  0
  -29.9610  -10.2240   22.1560 O   0  0  0  0  0  0  0  0  0  0  0  0
  -31.2780  -10.1770   21.6140 C   0  0  0  0  0  2  0  0  0  0  0  0
  -32.1900  -11.1320   22.4000 C   0  0  0  0  0  2  0  0  0  0  0  0
  -31.7720  -12.6230   22.3990 C   0  0  0  0  0  2  0  0  0  0  0  0
  -31.7240  -13.5900   20.0280 C   0  0  0  0  0  0  0  0  0  0  0  0
  -30.9850  -12.0760   17.9760 C   0  0  0  0  0  1  0  0  0  0  0  0
  -29.4350  -11.9880   16.7440 C   0  0  0  0  0 15  0  0  0  0  0  0
  -27.6420  -12.4930   17.4660 C   0  0  0  0  0  1  0  0  0  0  0  0
  -27.5890  -13.1980   19.2920 C   0  0  0  0  0  3  0  0  0  0  0  0
  -29.1820  -13.1540   20.3900 C   0  0  0  0  0  3  0  0  0  0  0  0
  -30.7640  -12.7370   19.6620 N   0  0  0  0  0  0  0  0  0  0  0  0
  -32.3010  -14.3070   19.2150 O   0  0  0  0  0  0  0  0  0  0  0  0
  -32.2480  -13.4100   21.2530 N   0  0  0  0  0  0  0  0  0  0  0  0
  -33.0570  -13.9870   21.4360 H   0  0  0  0  0  0  0  0  0  0  0  0
  -25.4670  -13.8030   20.3940 C   0  0  0  0  0  0  0  0  0  0  0  0
  -24.4460  -13.0220   20.8260 C   0  0  0  0  0  0  0  0  0  0  0  0
  -24.8750  -11.6680   20.6860 C   0  0  0  0  0  0  0  0  0  0  0  0
  -26.4110  -12.8990   19.9850 N   0  0  0  0  0  0  0  0  0  0  0  0
  -26.0910  -11.6150   20.2050 N   0  0  0  0  0  0  0  0  0  0  0  0
  -24.1780  -10.4080   20.8970 C   0  0  0  0  0  0  0  0  0  0  0  0
  -24.6540   -9.4480   21.8150 C   0  0  0  0  0  3  0  0  0  0  0  0
  -23.9350   -8.2550   22.0220 C   0  0  0  0  0  3  0  0  0  0  0  0
  -22.7420   -8.0170   21.2980 C   0  0  0  0  0  0  0  0  0  0  0  0
  -22.3020   -8.9610   20.3570 C   0  0  0  0  0  3  0  0  0  0  0  0
  -23.0150  -10.1500   20.1540 C   0  0  0  0  0  3  0  0  0  0  0  0
  -21.9820   -6.8830   21.4160 O   0  0  0  0  0  0  0  0  0  0  0  0
  -21.8840   -6.2100   22.6060 C   0  0  0  0  0  0  0  0  0  0  0  0
  -21.4010   -6.8310   23.7780 C   0  0  0  0  0  3  0  0  0  0  0  0
  -21.2450   -6.0790   24.9590 C   0  0  0  0  0  3  0  0  0  0  0  0
  -21.5650   -4.7080   24.9680 C   0  0  0  0  0  0  0  0  0  0  0  0
  -22.0470   -4.0880   23.8020 C   0  0  0  0  0  3  0  0  0  0  0  0
  -22.2010   -4.8380   22.6230 C   0  0  0  0  0  0  0  0  0  0  0  0
  -22.6460   -4.2340   21.4930 F   0  0  0  0  0  0  0  0  0  0  0  0
  -21.4070   -3.9820   26.0990 F   0  0  0  0  0  0  0  0  0  0  0  0
  -23.1060  -13.5190   21.2360 C   0  0  0  0  0  0  0  0  0  0  0  0
  -22.4810  -12.8380   22.1830 N   0  0  0  0  0  0  0  0  0  0  0  0
  -22.6370  -14.5450   20.7470 O   0  0  0  0  0  0  0  0  0  0  0  0
  -22.8970  -12.0100   22.5840 H   0  0  0  0  0  0  0  0  0  0  0  0
  -21.5860  -13.1550   22.5270 H   0  0  0  0  0  0  0  0  0  0  0  0
  -25.6540  -15.1820   20.2720 N   0  0  0  0  0  0  0  0  0  0  0  0
  -24.9600  -15.8650   20.5570 H   0  0  0  0  0  0  0  0  0  0  0  0
  -26.5050  -15.6020   19.9210 H   0  0  0  0  0  0  0  0  0  0  0  0
  -27.3430  -20.7070   17.2950 C   0  0  0  0  0  2  0  0  0  0  0  0
  -28.8520  -20.9760   17.1230 C   0  0  0  0  0  2  0  0  0  0  0  0
  -29.2370  -22.3380   17.7150 C   0  0  0  0  0  2  0  0  0  0  0  0
  -30.6800  -22.7610   17.4300 C   0  0  0  0  0  2  0  0  0  0  0  0
  -30.9620  -23.8010   18.3470 O   0  0  0  0  0  0  0  0  0  0  0  0
  -32.1890  -24.4720   18.1120 C   0  0  0  0  0  2  0  0  0  0  0  0
  -32.5190  -25.2560   19.3870 C   0  0  0  0  0  2  0  0  0  0  0  0
  -31.5260  -26.2570   19.5910 O   0  0  0  0  0  0  0  0  0  0  0  0
  -31.7670  -27.0230   20.7640 C   0  0  0  0  0  2  0  0  0  0  0  0
  -30.6880  -28.0990   20.9580 C   0  0  0  0  0  2  0  0  0  0  0  0
  -29.4900  -27.4910   21.4450 O   0  0  0  0  0  0  0  0  0  0  0  0
  -28.5940  -32.3300   26.6340 C   0  0  0  0  0  0  0  0  0  0  0  0
  -28.6550  -28.1980   22.2850 C   0  0  0  0  0  0  0  0  0  0  0  0
  -26.6380  -30.8950   26.1310 C   0  0  0  0  0  3  0  0  0  0  0  0
  -26.8170  -29.4930   24.0070 C   0  0  0  0  0  0  0  0  0  0  0  0
  -28.3540  -31.4430   24.3210 C   0  0  0  0  0  2  0  0  0  0  0  0
  -28.0410  -30.0980   23.7030 C   0  0  0  0  0  0  0  0  0  0  0  0
  -28.9570  -29.4650   22.8410 C   0  0  0  0  0  3  0  0  0  0  0  0
  -27.4210  -27.5960   22.6110 C   0  0  0  0  0  3  0  0  0  0  0  0
  -26.5000  -28.2360   23.4640 C   0  0  0  0  0  3  0  0  0  0  0  0
  -25.8920  -30.2570   24.9270 C   0  0  0  0  0  2  0  0  0  0  0  0
  -27.9150  -31.5690   25.7290 N   0  0  0  0  0  0  0  0  0  0  0  0
  -28.1490  -32.5170   27.7740 O   0  0  0  0  0  0  0  0  0  0  0  0
  -26.8330  -29.8120   27.2160 C   0  0  0  0  0  0  0  0  0  0  0  0
  -25.9220  -29.7840   28.2010 N   0  0  0  0  0  0  0  0  0  0  0  0
  -27.7640  -29.0050   27.1450 O   0  0  0  0  0  0  0  0  0  0  0  0
  -25.1930  -30.4850   28.1910 H   0  0  0  0  0  0  0  0  0  0  0  0
  -24.4490  -29.1470   31.4370 C   0  0  0  0  0  0  0  0  0  0  0  0
  -25.8780  -28.8290   29.3060 C   0  0  0  0  0  3  0  0  0  0  0  0
  -24.9410  -27.6430   28.9780 C   0  0  0  0  0  2  0  0  0  0  0  0
  -23.5080  -27.8480   29.4780 C   0  0  0  0  0  2  0  0  0  0  0  0
  -23.4940  -28.0510   30.9970 C   0  0  0  0  0  2  0  0  0  0  0  0
  -25.5600  -29.5230   30.6350 C   0  0  0  0  0  0  0  0  0  0  0  0
  -26.3970  -30.5720   31.0730 C   0  0  0  0  0  3  0  0  0  0  0  0
  -26.1430  -31.2370   32.2870 C   0  0  0  0  0  3  0  0  0  0  0  0
  -25.0510  -30.8500   33.0840 C   0  0  0  0  0  3  0  0  0  0  0  0
  -24.2110  -29.8050   32.6610 C   0  0  0  0  0  3  0  0  0  0  0  0
  -29.9470  -33.0220   26.2730 C   0  0  0  0  0  3  0  0  0  0  0  0
  -31.1900  -32.3790   27.0010 C   0  0  1  0  0  0  0  0  0  0  0  0
  -30.9840  -32.1770   28.5200 C   0  0  0  0  0  1  0  0  0  0  0  0
  -31.5300  -31.0040   26.3820 C   0  0  0  0  0  1  0  0  0  0  0  0
  -32.4360  -33.2750   26.8030 C   0  0  0  0  0  1  0  0  0  0  0  0
  -29.8210  -34.4450   26.6150 N   0  0  0  0  0  0  0  0  0  0  0  0
  -29.8940  -35.4480   25.7290 C   0  0  0  0  0  0  0  0  0  0  0  0
  -30.1510  -35.2710   24.5360 O   0  0  0  0  0  0  0  0  0  0  0  0
  -29.5540  -34.6610   27.5640 H   0  0  0  0  0  0  0  0  0  0  0  0
  -28.3670  -37.4410   25.6090 C   0  0  0  0  0  1  0  0  0  0  0  0
  -29.6430  -36.8750   26.2510 C   0  0  0  0  0  3  0  0  0  0  0  0
  -31.9390  -37.5110   26.8410 C   0  0  0  0  0  1  0  0  0  0  0  0
  -30.7730  -37.7960   26.0080 N   0  0  0  0  0  0  0  0  0  0  0  0
  -30.4960  -38.7610   26.1700 H   0  0  0  0  0  0  0  0  0  0  0  0
  1 54  1  0
  1  2  1  0
  2  3  1  0
  2  5  1  0
  4  2  1  0
  5  6  1  0
  6  7  1  0
  7  8  1  0
  8  9  1  0
 11 10  1  0
 11 12  1  0
 13 12  1  0
 13 14  1  0
 15 14  1  0
 16 24  1  0
 17 22  1  0
 20 19  1  0
 20 29  1  0
 21 20  1  0
 21 10  1  0
 22 16  1  0
 22 21  1  0
 23 16  2  0
 24 25  1  0
 24 15  1  0
 26 27  2  0
 27 46  1  0
 28 27  1  0
 28 31  1  0
 29 30  1  0
 29 26  1  0
 30 28  2  0
 31 32  1  0
 32 33  2  0
 34 37  1  0
 34 33  1  0
 35 34  2  0
 36 35  1  0
 36 31  2  0
 37 38  1  0
 38 43  2  0
 38 39  1  0
 39 40  2  0
 40 41  1  0
 41 45  1  0
 42 41  2  0
 43 42  1  0
 44 43  1  0
 46 47  1  0
 47 50  1  0
 47 49  1  0
 48 46  2  0
 51 26  1  0
 51 52  1  0
 53 51  1  0
 55 54  1  0
 55 56  1  0
 57 56  1  0
 57 58  1  0
 59 58  1  0
 59 60  1  0
 60 61  1  0
 61 62  1  0
 62 63  1  0
 63 64  1  0
 64 66  1  0
 65 76  2  0
 66 72  2  0
 66 71  1  0
 67 77  1  0
 68 74  1  0
 69 75  1  0
 70 68  1  0
 70 69  1  0
 71 70  2  0
 72 73  1  0
 73 68  2  0
 74 67  1  0
 75 67  1  0
 75 65  1  0
 77 78  1  0
 79 77  2  0
 80 78  1  0
 81 90  1  0
 82 78  1  0
 82 86  1  0
 83 82  1  0
 83 84  1  0
 84 85  1  0
 85 81  1  0
 86 87  1  0
 86 81  2  0
 87 88  2  0
 88 89  1  0
 90 89  2  0
 91 96  1  0
 91 65  1  0
 91 92  1  0
 92 93  1  1
 94 92  1  0
 95 92  1  0
 96 99  1  0
 97101  1  0
 97 96  1  0
 98 97  2  0
101100  1  0
103104  1  0
103101  1  0
103102  1  0
M  ISO  4  16 100  24 100  63 101  64 101
M  END
>  <TORSDO>  (78) 
F 38

>  <SCORE>  (78) 
-4.292

>  <name>  (78) 
82

>  <ligand_id>  (78) 
82

>  <original_smiles>  (78) 
[H]c1c([H])c([H])c2c(c1[H])C([H])([H])C([H])([H])C([H])([H])C2([H])N([H])C(=O)C1([H])N(C(=O)C([H])(N([H])C(=O)C([H])(N([H])C([H])([H])[H])C([H])([H])[H])C(C([H])([H])[H])(C([H])([H])[H])C([H])([H])[H])C([H])([H])c2c([H])c(OC([H])([H])C([H])([H])OC([H])([H])C([H])([H])OC([H])([H])C([H])([H])C([H])([H])C([H])([H])C([H])([H])[N+]([H])([H])C([H])([H])C([H])([H])OC([H])([H])C([H])([H])C([H])([H])C([H])([H])OC([H])([H])C([H])([H])C([H])([H])N([H])C(=O)N3C([H])([H])C([H])([H])C([H])([H])C([H])(n4nc(-c5c([H])c([H])c(Oc6c([H])c([H])c(F)c([H])c6F)c([H])c5[H])c(C(=O)N([H])[H])c4N([H])[H])C3([H])[H])c([H])c([H])c2C1([H])[H]

>  <smiles>  (78) 
[H]c1c([H])c([H])c2c(c1[H])C([H])([H])C([H])([H])C([H])([H])C2([H])N([H])C(=O)C1([H])N(C(=O)C([H])(N([H])C(=O)C([H])(N([H])C([H])([H])[H])C([H])([H])[H])C(C([H])([H])[H])(C([H])([H])[H])C([H])([H])[H])C([H])([H])c2c([H])c(OC([H])([H])C([H])([H])OC([H])([H])C([H])([H])OC([H])([H])C([H])([H])C([H])([H])C([H])([H])C([H])([H])[N+]([H])([H])C([H])([H])C([H])([H])OC([H])([H])C([H])([H])C([H])([H])C([H])([H])OC([H])([H])C([H])([H])C([H])([H])N([H])C(=O)N3C([H])([H])C([H])([H])C([H])([H])C([H])(n4nc(-c5c([H])c([H])c(Oc6c([H])c([H])c(F)c([H])c6F)c([H])c5[H])c(C(=O)N([H])[H])c4N([H])[H])C3([H])[H])c([H])c([H])c2C1([H])[H]

$$$$
83:0:0
     RDKit          3D

111118  0  0  1  0  0  0  0  0999 V2000
  -26.3930  -23.2720   21.0920 N   0  0  0  0  0  4  0  0  0  0  0  0
  -26.9290  -23.6630   20.3330 H   0  0  0  0  0  0  0  0  0  0  0  0
  -26.6670  -22.3050   21.1870 H   0  0  0  0  0  0  0  0  0  0  0  0
  -26.7200  -23.9860   22.3500 C   0  0  0  0  0  2  0  0  0  0  0  0
  -28.2350  -24.1300   22.5630 C   0  0  0  0  0  2  0  0  0  0  0  0
  -28.5180  -23.9580   23.9480 O   0  0  0  0  0  0  0  0  0  0  0  0
  -29.8720  -23.6130   24.2220 C   0  0  0  0  0  2  0  0  0  0  0  0
  -30.1260  -22.1450   23.8380 C   0  0  0  0  0  2  0  0  0  0  0  0
  -30.0040  -21.8840   22.3290 C   0  0  0  0  0  2  0  0  0  0  0  0
  -30.3620  -20.4540   21.9100 C   0  0  0  0  0  2  0  0  0  0  0  0
  -30.3090  -20.4320   20.4930 O   0  0  0  0  0  0  0  0  0  0  0  0
  -31.0000  -19.3460   19.8900 C   0  0  0  0  0  2  0  0  0  0  0  0
  -31.4660  -19.8100   18.5010 C   0  0  0  0  0  2  0  0  0  0  0  0
  -32.3830  -21.0430   18.5900 C   0  0  0  0  0  2  0  0  0  0  0  0
  -32.6460  -21.7320   17.2470 C   0  0  0  0  0  2  0  0  0  0  0  0
  -33.3570  -22.9270   17.5340 O   0  0  0  0  0  0  0  0  0  0  0  0
  -33.5610  -23.7630   16.4070 C   0  0  0  0  0  2  0  0  0  0  0  0
  -34.3920  -24.9660   16.8760 C   0  0  0  0  0  2  0  0  0  0  0  0
  -34.8390  -25.9130   15.7520 C   0  0  0  0  0  2  0  0  0  0  0  0
  -33.7140  -28.0650   15.1890 C   0  0  0  0  0  0  0  0  0  0  0  0
  -33.1970  -29.8950   13.6260 C   0  0  0  0  0  2  0  0  0  0  0  0
  -32.1200  -30.8760   14.1120 C   0  0  0  0  0  2  0  0  0  0  0  0
  -30.7200  -30.3620   13.7420 C   0  0  0  0  0  2  0  0  0  0  0  0
  -30.4960  -28.8940   14.1850 C   0  0  0  0  0  3  0  0  0  0  0  0
  -31.6640  -27.9890   13.7340 C   0  0  0  0  0  2  0  0  0  0  0  0
  -32.9350  -28.5710   14.2040 N   0  0  0  0  0  0  0  0  0  0  0  0
  -34.5040  -28.7430   15.8530 O   0  0  0  0  0  0  0  0  0  0  0  0
  -33.7510  -26.7240   15.2010 N   0  0  0  0  0  0  0  0  0  0  0  0
  -33.1050  -26.2670   14.5720 H   0  0  0  0  0  0  0  0  0  0  0  0
  -28.1390  -27.8840   14.4360 C   0  0  0  0  0  0  0  0  0  0  0  0
  -27.1550  -27.6230   13.5230 C   0  0  0  0  0  0  0  0  0  0  0  0
  -27.6850  -28.0020   12.2500 C   0  0  0  0  0  0  0  0  0  0  0  0
  -29.2080  -28.3900   13.7110 N   0  0  0  0  0  0  0  0  0  0  0  0
  -28.9410  -28.4090   12.3790 N   0  0  0  0  0  0  0  0  0  0  0  0
  -27.0510  -28.0530   10.9280 C   0  0  0  0  0  0  0  0  0  0  0  0
  -27.6640  -27.4790    9.7920 C   0  0  0  0  0  3  0  0  0  0  0  0
  -27.0260  -27.5260    8.5340 C   0  0  0  0  0  3  0  0  0  0  0  0
  -25.7620  -28.1470    8.4010 C   0  0  0  0  0  0  0  0  0  0  0  0
  -25.1680  -28.7380    9.5300 C   0  0  0  0  0  3  0  0  0  0  0  0
  -25.8050  -28.6960   10.7810 C   0  0  0  0  0  3  0  0  0  0  0  0
  -25.0810  -28.2640    7.2140 O   0  0  0  0  0  0  0  0  0  0  0  0
  -25.3000  -27.4010    6.1710 C   0  0  0  0  0  0  0  0  0  0  0  0
  -25.1460  -26.0050    6.3130 C   0  0  0  0  0  3  0  0  0  0  0  0
  -25.3140  -25.1600    5.1980 C   0  0  0  0  0  3  0  0  0  0  0  0
  -25.6260  -25.7080    3.9390 C   0  0  0  0  0  0  0  0  0  0  0  0
  -25.7730  -27.0990    3.7940 C   0  0  0  0  0  3  0  0  0  0  0  0
  -25.6080  -27.9420    4.9070 C   0  0  0  0  0  0  0  0  0  0  0  0
  -25.7300  -29.2830    4.7560 F   0  0  0  0  0  0  0  0  0  0  0  0
  -25.7780  -24.8980    2.8650 F   0  0  0  0  0  0  0  0  0  0  0  0
  -25.7640  -27.1380   13.8180 C   0  0  0  0  0  0  0  0  0  0  0  0
  -25.1720  -26.3780   12.9040 N   0  0  0  0  0  0  0  0  0  0  0  0
  -25.2120  -27.3940   14.8880 O   0  0  0  0  0  0  0  0  0  0  0  0
  -25.6320  -26.1510   12.0350 H   0  0  0  0  0  0  0  0  0  0  0  0
  -24.2450  -26.0150   13.0770 H   0  0  0  0  0  0  0  0  0  0  0  0
  -28.2120  -27.7510   15.8210 N   0  0  0  0  0  0  0  0  0  0  0  0
  -27.4240  -27.4350   16.3760 H   0  0  0  0  0  0  0  0  0  0  0  0
  -29.0140  -28.0170   16.3770 H   0  0  0  0  0  0  0  0  0  0  0  0
  -24.9560  -23.3000   20.7310 C   0  0  0  0  0  2  0  0  0  0  0  0
  -24.7120  -22.7320   19.3220 C   0  0  0  0  0  2  0  0  0  0  0  0
  -24.9660  -21.2130   19.2090 C   0  0  0  0  0  2  0  0  0  0  0  0
  -25.4840  -20.7570   17.8280 C   0  0  0  0  0  2  0  0  0  0  0  0
  -27.9160  -21.2490   18.1330 C   0  0  0  0  0  0  0  0  0  0  0  0
  -26.7560  -21.3890   17.4790 N   0  0  0  0  0  0  0  0  0  0  0  0
  -28.0530  -20.4850   19.0900 O   0  0  0  0  0  0  0  0  0  0  0  0
  -26.7480  -22.0300   16.6950 H   0  0  0  0  0  0  0  0  0  0  0  0
  -29.0610  -22.1700   17.7090 C   0  0  0  0  0  2  0  0  0  0  0  0
  -29.0000  -23.3550   18.4980 O   0  0  0  0  0  0  0  0  0  0  0  0
  -29.9490  -24.3290   18.0810 C   0  0  0  0  0  2  0  0  0  0  0  0
  -29.7700  -25.6010   18.9190 C   0  0  0  0  0  2  0  0  0  0  0  0
  -28.3830  -26.2350   18.7630 C   0  0  0  0  0  2  0  0  0  0  0  0
  -28.2790  -27.3210   19.6770 O   0  0  0  0  0  0  0  0  0  0  0  0
  -24.6070  -32.1100   23.4120 C   0  0  0  0  0  0  0  0  0  0  0  0
  -27.0650  -27.9550   19.8220 C   0  0  0  0  0  0  0  0  0  0  0  0
  -23.2930  -30.8020   21.7740 C   0  0  0  0  0  3  0  0  0  0  0  0
  -24.6510  -29.3890   20.1450 C   0  0  0  0  0  0  0  0  0  0  0  0
  -25.7890  -31.2190   21.4120 C   0  0  0  0  0  2  0  0  0  0  0  0
  -25.8400  -29.8960   20.6770 C   0  0  0  0  0  0  0  0  0  0  0  0
  -27.0460  -29.1820   20.5220 C   0  0  0  0  0  3  0  0  0  0  0  0
  -25.8510  -27.4480   19.3020 C   0  0  0  0  0  3  0  0  0  0  0  0
  -24.6480  -28.1590   19.4660 C   0  0  0  0  0  3  0  0  0  0  0  0
  -23.4020  -30.2200   20.3400 C   0  0  0  0  0  2  0  0  0  0  0  0
  -24.5840  -31.3890   22.2560 N   0  0  0  0  0  0  0  0  0  0  0  0
  -23.5670  -32.3280   24.0490 O   0  0  0  0  0  0  0  0  0  0  0  0
  -22.7330  -29.7060   22.7070 C   0  0  0  0  0  0  0  0  0  0  0  0
  -21.4250  -29.4300   22.5850 N   0  0  0  0  0  0  0  0  0  0  0  0
  -23.4720  -29.1090   23.4950 O   0  0  0  0  0  0  0  0  0  0  0  0
  -20.8860  -29.9690   21.9210 H   0  0  0  0  0  0  0  0  0  0  0  0
  -18.1840  -27.8850   22.9720 C   0  0  0  0  0  0  0  0  0  0  0  0
  -20.6880  -28.4120   23.3340 C   0  0  0  0  0  3  0  0  0  0  0  0
  -20.9650  -27.0000   22.7710 C   0  0  0  0  0  2  0  0  0  0  0  0
  -19.9420  -26.5570   21.7210 C   0  0  0  0  0  2  0  0  0  0  0  0
  -18.5290  -26.5580   22.3130 C   0  0  0  0  0  2  0  0  0  0  0  0
  -19.1990  -28.7620   23.4370 C   0  0  0  0  0  0  0  0  0  0  0  0
  -18.8270  -29.9990   24.0060 C   0  0  0  0  0  3  0  0  0  0  0  0
  -17.4720  -30.3590   24.1230 C   0  0  0  0  0  3  0  0  0  0  0  0
  -16.4700  -29.4780   23.6780 C   0  0  0  0  0  3  0  0  0  0  0  0
  -16.8270  -28.2440   23.1060 C   0  0  0  0  0  3  0  0  0  0  0  0
  -25.9320  -32.7190   23.9720 C   0  0  0  0  0  3  0  0  0  0  0  0
  -25.6690  -34.1240   24.3030 N   0  0  0  0  0  0  0  0  0  0  0  0
  -26.0170  -35.1660   23.5340 C   0  0  0  0  0  0  0  0  0  0  0  0
  -26.6680  -35.0410   22.4930 O   0  0  0  0  0  0  0  0  0  0  0  0
  -25.1000  -34.2980   25.1190 H   0  0  0  0  0  0  0  0  0  0  0  0
  -24.3460  -37.0090   23.1830 C   0  0  0  0  0  1  0  0  0  0  0  0
  -25.5730  -36.5660   23.9950 C   0  0  0  0  0  3  0  0  0  0  0  0
  -27.7330  -37.3810   24.8300 C   0  0  0  0  0  1  0  0  0  0  0  0
  -26.6360  -37.5880   23.8860 N   0  0  0  0  0  0  0  0  0  0  0  0
  -26.2570  -38.5180   24.0440 H   0  0  0  0  0  0  0  0  0  0  0  0
  -26.4900  -31.9460   25.2290 C   0  0  1  0  0  0  0  0  0  0  0  0
  -25.4450  -31.7510   26.3500 C   0  0  0  0  0  1  0  0  0  0  0  0
  -27.0190  -30.5510   24.8210 C   0  0  0  0  0  1  0  0  0  0  0  0
  -27.6900  -32.7180   25.8290 C   0  0  0  0  0  1  0  0  0  0  0  0
  1  3  1  0
  1  4  1  0
  2  1  1  0
  4  5  1  0
  5  6  1  0
  6  7  1  0
  8  7  1  0
  9  8  1  0
 10  9  1  0
 11 10  1  0
 12 11  1  0
 13 14  1  0
 13 12  1  0
 15 16  1  0
 15 14  1  0
 17 18  1  0
 17 16  1  0
 19 18  1  0
 20 28  1  0
 20 27  2  0
 21 22  1  0
 21 26  1  0
 23 22  1  0
 23 24  1  0
 24 33  1  0
 25 24  1  0
 25 26  1  0
 26 20  1  0
 28 19  1  0
 29 28  1  0
 30 55  1  0
 31 50  1  0
 31 30  2  0
 32 34  2  0
 32 31  1  0
 33 30  1  0
 34 33  1  0
 35 32  1  0
 36 35  2  0
 37 36  1  0
 38 37  2  0
 38 39  1  0
 39 40  2  0
 40 35  1  0
 41 38  1  0
 42 43  1  0
 42 41  1  0
 44 43  2  0
 45 44  1  0
 46 45  2  0
 46 47  1  0
 47 42  2  0
 48 47  1  0
 49 45  1  0
 50 52  2  0
 51 54  1  0
 51 50  1  0
 53 51  1  0
 55 56  1  0
 55 57  1  0
 58  1  1  0
 59 58  1  0
 60 59  1  0
 61 60  1  0
 62 64  2  0
 63 61  1  0
 63 62  1  0
 65 63  1  0
 66 62  1  0
 66 67  1  0
 68 67  1  0
 68 69  1  0
 70 69  1  0
 70 71  1  0
 71 73  1  0
 72 83  2  0
 73 78  1  0
 74 82  1  0
 74 84  1  0
 75 81  1  0
 75 77  1  0
 76 82  1  0
 77 76  1  0
 78 77  2  0
 79 80  1  0
 79 73  2  0
 80 75  2  0
 81 74  1  0
 82 72  1  0
 84 86  2  0
 85 84  1  0
 87 85  1  0
 88 97  2  0
 88 93  1  0
 89 85  1  0
 89 93  1  0
 90 89  1  0
 91 92  1  0
 91 90  1  0
 92 88  1  0
 93 94  2  0
 94 95  1  0
 96 95  2  0
 97 96  1  0
 98 72  1  0
 98 99  1  0
 98108  1  0
 99102  1  0
100104  1  0
100 99  1  0
101100  2  0
104103  1  0
106104  1  0
106107  1  0
106105  1  0
108111  1  1
108109  1  0
110108  1  0
M  ISO  4  20 100  28 100  70 101  71 101
M  END
>  <TORSDO>  (79) 
F 42

>  <SCORE>  (79) 
-4.166

>  <name>  (79) 
83

>  <ligand_id>  (79) 
83

>  <original_smiles>  (79) 
[H]c1c([H])c([H])c2c(c1[H])C([H])([H])C([H])([H])C([H])([H])C2([H])N([H])C(=O)C1([H])N(C(=O)C([H])(N([H])C(=O)C([H])(N([H])C([H])([H])[H])C([H])([H])[H])C(C([H])([H])[H])(C([H])([H])[H])C([H])([H])[H])C([H])([H])c2c([H])c(OC([H])([H])C([H])([H])C([H])([H])OC([H])([H])C(=O)N([H])C([H])([H])C([H])([H])C([H])([H])C([H])([H])[N+]([H])([H])C([H])([H])C([H])([H])OC([H])([H])C([H])([H])C([H])([H])C([H])([H])OC([H])([H])C([H])([H])C([H])([H])C([H])([H])OC([H])([H])C([H])([H])C([H])([H])N([H])C(=O)N3C([H])([H])C([H])([H])C([H])([H])C([H])(n4nc(-c5c([H])c([H])c(Oc6c([H])c([H])c(F)c([H])c6F)c([H])c5[H])c(C(=O)N([H])[H])c4N([H])[H])C3([H])[H])c([H])c([H])c2C1([H])[H]

>  <smiles>  (79) 
[H]c1c([H])c([H])c2c(c1[H])C([H])([H])C([H])([H])C([H])([H])C2([H])N([H])C(=O)C1([H])N(C(=O)C([H])(N([H])C(=O)C([H])(N([H])C([H])([H])[H])C([H])([H])[H])C(C([H])([H])[H])(C([H])([H])[H])C([H])([H])[H])C([H])([H])c2c([H])c(OC([H])([H])C([H])([H])C([H])([H])OC([H])([H])C(=O)N([H])C([H])([H])C([H])([H])C([H])([H])C([H])([H])[N+]([H])([H])C([H])([H])C([H])([H])OC([H])([H])C([H])([H])C([H])([H])C([H])([H])OC([H])([H])C([H])([H])C([H])([H])C([H])([H])OC([H])([H])C([H])([H])C([H])([H])N([H])C(=O)N3C([H])([H])C([H])([H])C([H])([H])C([H])(n4nc(-c5c([H])c([H])c(Oc6c([H])c([H])c(F)c([H])c6F)c([H])c5[H])c(C(=O)N([H])[H])c4N([H])[H])C3([H])[H])c([H])c([H])c2C1([H])[H]

$$$$
84:0:0
     RDKit          3D

102110  0  0  1  0  0  0  0  0999 V2000
  -29.7590  -18.7550   18.8210 C   0  0  0  0  0  2  0  0  0  0  0  0
  -30.5310  -22.5280   18.5940 C   0  0  0  0  0  2  0  0  0  0  0  0
  -28.2080  -22.3280   18.8910 C   0  0  0  0  0  2  0  0  0  0  0  0
  -30.7340  -21.0150   18.8640 C   0  0  0  0  0  2  0  0  0  0  0  0
  -28.3370  -20.8040   19.1660 C   0  0  0  0  0  2  0  0  0  0  0  0
  -29.3950  -23.0570   19.3650 N   0  0  0  0  0  0  0  0  0  0  0  0
  -29.5360  -20.2060   18.5080 N   0  0  2  0  0  4  0  0  0  0  0  0
  -29.4100  -20.2840   17.5080 H   0  0  0  0  0  0  0  0  0  0  0  0
  -29.2790  -24.5180   19.1620 C   0  0  0  0  0  2  0  0  0  0  0  0
  -28.3160  -25.2340   20.1520 C   0  0  0  0  0  2  0  0  0  0  0  0
  -28.3950  -26.6740   20.0460 O   0  0  0  0  0  0  0  0  0  0  0  0
  -24.6160  -31.8690   23.2120 C   0  0  0  0  0  0  0  0  0  0  0  0
  -27.2230  -27.4140   20.0700 C   0  0  0  0  0  0  0  0  0  0  0  0
  -23.4050  -30.4950   21.5560 C   0  0  0  0  0  3  0  0  0  0  0  0
  -24.8440  -28.9640   20.1130 C   0  0  0  0  0  0  0  0  0  0  0  0
  -25.9400  -30.8220   21.3730 C   0  0  0  0  0  2  0  0  0  0  0  0
  -26.0100  -29.4580   20.7100 C   0  0  0  0  0  0  0  0  0  0  0  0
  -27.2010  -28.6920   20.6820 C   0  0  0  0  0  3  0  0  0  0  0  0
  -26.0370  -26.9500   19.4550 C   0  0  0  0  0  3  0  0  0  0  0  0
  -24.8540  -27.7090   19.4820 C   0  0  0  0  0  3  0  0  0  0  0  0
  -23.6100  -29.8350   20.1680 C   0  0  0  0  0  2  0  0  0  0  0  0
  -24.6720  -31.0750   22.1050 N   0  0  0  0  0  0  0  0  0  0  0  0
  -23.5340  -32.1460   23.7500 O   0  0  0  0  0  0  0  0  0  0  0  0
  -22.7430  -29.4650   22.5000 C   0  0  0  0  0  0  0  0  0  0  0  0
  -21.4150  -29.3020   22.3730 N   0  0  0  0  0  0  0  0  0  0  0  0
  -23.4200  -28.8190   23.3050 O   0  0  0  0  0  0  0  0  0  0  0  0
  -20.9310  -29.8750   21.6970 H   0  0  0  0  0  0  0  0  0  0  0  0
  -18.0280  -28.1360   22.8500 C   0  0  0  0  0  0  0  0  0  0  0  0
  -20.5870  -28.3640   23.1330 C   0  0  0  0  0  3  0  0  0  0  0  0
  -20.6770  -26.9380   22.5420 C   0  0  0  0  0  2  0  0  0  0  0  0
  -19.5750  -26.6370   21.5220 C   0  0  0  0  0  2  0  0  0  0  0  0
  -18.1930  -26.7910   22.1630 C   0  0  0  0  0  2  0  0  0  0  0  0
  -19.1530  -28.8820   23.2910 C   0  0  0  0  0  0  0  0  0  0  0  0
  -18.9450  -30.1430   23.8910 C   0  0  0  0  0  3  0  0  0  0  0  0
  -17.6450  -30.6570   24.0560 C   0  0  0  0  0  3  0  0  0  0  0  0
  -16.5350  -29.9070   23.6320 C   0  0  0  0  0  3  0  0  0  0  0  0
  -16.7260  -28.6480   23.0350 C   0  0  0  0  0  3  0  0  0  0  0  0
  -25.9060  -32.4830   23.8400 C   0  0  0  0  0  3  0  0  0  0  0  0
  -25.5920  -33.8630   24.2330 N   0  0  0  0  0  0  0  0  0  0  0  0
  -25.9040  -34.9490   23.5130 C   0  0  0  0  0  0  0  0  0  0  0  0
  -26.5600  -34.8930   22.4700 O   0  0  0  0  0  0  0  0  0  0  0  0
  -25.0070  -33.9810   25.0470 H   0  0  0  0  0  0  0  0  0  0  0  0
  -24.1490  -36.7310   23.2630 C   0  0  0  0  0  1  0  0  0  0  0  0
  -25.4120  -36.3130   24.0330 C   0  0  0  0  0  3  0  0  0  0  0  0
  -27.5600  -37.1810   24.8450 C   0  0  0  0  0  1  0  0  0  0  0  0
  -26.4310  -37.3810   23.9390 N   0  0  0  0  0  0  0  0  0  0  0  0
  -26.0220  -38.2890   24.1400 H   0  0  0  0  0  0  0  0  0  0  0  0
  -26.4460  -31.6610   25.0740 C   0  0  1  0  0  0  0  0  0  0  0  0
  -25.3690  -31.3800   26.1480 C   0  0  0  0  0  1  0  0  0  0  0  0
  -27.0260  -30.3030   24.6160 C   0  0  0  0  0  1  0  0  0  0  0  0
  -27.6080  -32.4300   25.7470 C   0  0  0  0  0  1  0  0  0  0  0  0
  -28.6570  -17.7580   18.3660 C   0  0  0  0  0  2  0  0  0  0  0  0
  -28.9040  -17.1530   17.0870 O   0  0  0  0  0  0  0  0  0  0  0  0
  -28.1290  -15.9560   16.9090 C   0  0  0  0  0  2  0  0  0  0  0  0
  -28.3630  -15.2050   15.5720 C   0  0  0  0  0  2  0  0  0  0  0  0
  -27.7620  -13.9080   15.6710 O   0  0  0  0  0  0  0  0  0  0  0  0
  -28.0200  -13.0150   14.5880 C   0  0  0  0  0  2  0  0  0  0  0  0
  -27.5080  -11.5880   14.9170 C   0  0  0  0  0  2  0  0  0  0  0  0
  -28.4320  -10.8920   15.7510 O   0  0  0  0  0  0  0  0  0  0  0  0
  -28.0520   -9.5680   16.1350 C   0  0  0  0  0  2  0  0  0  0  0  0
  -29.0140   -9.0150   17.2180 C   0  0  0  0  0  2  0  0  0  0  0  0
  -28.6620   -9.5310   18.4980 O   0  0  0  0  0  0  0  0  0  0  0  0
  -29.7070   -9.5910   19.4680 C   0  0  0  0  0  2  0  0  0  0  0  0
  -29.2940  -10.5460   20.6270 C   0  0  0  0  0  2  0  0  0  0  0  0
  -30.1400  -13.3880   20.2140 C   0  0  1  0  0  0  0  0  0  0  0  0
  -30.9920  -12.6620   19.0380 C   0  0  0  0  0  2  0  0  0  0  0  0
  -29.6370  -12.5010   18.0040 C   0  0  0  0  0  2  0  0  0  0  0  0
  -28.0960  -12.5450   18.6030 C   0  0  0  0  0  2  0  0  0  0  0  0
  -27.6900  -13.3470   19.9730 C   0  0  0  0  0  3  0  0  0  0  0  0
  -28.8570  -13.5690   21.2340 C   0  0  0  0  0  2  0  0  0  0  0  0
  -30.5780  -12.9430   20.8630 N   0  0  0  0  0  2  0  0  0  0  0  0
  -30.8500  -14.5120   20.3410 O   0  0  0  0  0  1  0  0  0  0  0  0
  -30.0740  -11.8140   20.8100 N   0  0  0  0  0  0  0  0  0  0  0  0
  -30.7890  -11.7150   21.5120 H   0  0  0  0  0  0  0  0  0  0  0  0
  -25.2500  -13.8390   20.6090 C   0  0  0  0  0  0  0  0  0  0  0  0
  -24.1800  -13.0460   20.9220 C   0  0  0  0  0  0  0  0  0  0  0  0
  -24.6510  -11.6980   20.8760 C   0  0  0  0  0  0  0  0  0  0  0  0
  -26.3250  -12.9910   20.4050 N   0  0  0  0  0  0  0  0  0  0  0  0
  -25.9560  -11.6910   20.5960 N   0  0  0  0  0  0  0  0  0  0  0  0
  -23.9180  -10.4300   21.0360 C   0  0  0  0  0  0  0  0  0  0  0  0
  -24.3630   -9.4210   21.9190 C   0  0  0  0  0  3  0  0  0  0  0  0
  -23.6280   -8.2250   22.0730 C   0  0  0  0  0  3  0  0  0  0  0  0
  -22.4300   -8.0260   21.3480 C   0  0  0  0  0  0  0  0  0  0  0  0
  -21.9950   -9.0280   20.4630 C   0  0  0  0  0  3  0  0  0  0  0  0
  -22.7300  -10.2160   20.3060 C   0  0  0  0  0  3  0  0  0  0  0  0
  -21.6670   -6.8840   21.4170 O   0  0  0  0  0  0  0  0  0  0  0  0
  -21.6850   -6.0690   22.5230 C   0  0  0  0  0  0  0  0  0  0  0  0
  -21.4040   -6.5630   23.8170 C   0  0  0  0  0  3  0  0  0  0  0  0
  -21.3710   -5.6800   24.9150 C   0  0  0  0  0  3  0  0  0  0  0  0
  -21.6070   -4.3060   24.7220 C   0  0  0  0  0  0  0  0  0  0  0  0
  -21.8830   -3.8100   23.4360 C   0  0  0  0  0  3  0  0  0  0  0  0
  -21.9170   -4.6900   22.3390 C   0  0  0  0  0  0  0  0  0  0  0  0
  -22.1610   -4.2040   21.0970 F   0  0  0  0  0  0  0  0  0  0  0  0
  -21.5660   -3.4600   25.7770 F   0  0  0  0  0  0  0  0  0  0  0  0
  -22.7790  -13.5170   21.1770 C   0  0  0  0  0  0  0  0  0  0  0  0
  -22.0440  -12.8100   22.0280 N   0  0  0  0  0  0  0  0  0  0  0  0
  -22.3470  -14.5460   20.6610 O   0  0  0  0  0  0  0  0  0  0  0  0
  -22.4060  -11.9690   22.4520 H   0  0  0  0  0  0  0  0  0  0  0  0
  -21.1180  -13.1310   22.2730 H   0  0  0  0  0  0  0  0  0  0  0  0
  -25.3930  -15.2150   20.4620 N   0  0  0  0  0  0  0  0  0  0  0  0
  -24.6080  -15.8530   20.5500 H   0  0  0  0  0  0  0  0  0  0  0  0
  -26.2630  -15.6830   20.2530 H   0  0  0  0  0  0  0  0  0  0  0  0
  2  4  1  0
  2  6  1  0
  3  5  1  0
  3  6  1  0
  7  1  1  0
  7  4  1  0
  7  5  1  0
  7  8  1  6
  9  6  1  0
  9 10  1  0
 11 13  1  0
 11 10  1  0
 12 23  2  0
 13 18  1  0
 14 22  1  0
 14 24  1  0
 15 21  1  0
 15 17  1  0
 16 22  1  0
 17 16  1  0
 18 17  2  0
 19 20  1  0
 19 13  2  0
 20 15  2  0
 21 14  1  0
 22 12  1  0
 24 26  2  0
 25 24  1  0
 27 25  1  0
 28 37  2  0
 28 33  1  0
 29 25  1  0
 29 33  1  0
 30 29  1  0
 31 32  1  0
 31 30  1  0
 32 28  1  0
 33 34  2  0
 34 35  1  0
 36 35  2  0
 37 36  1  0
 38 12  1  0
 38 39  1  0
 38 48  1  0
 39 42  1  0
 40 44  1  0
 40 39  1  0
 41 40  2  0
 44 43  1  0
 46 44  1  0
 46 47  1  0
 46 45  1  0
 48 51  1  1
 48 49  1  0
 50 48  1  0
 52  1  1  0
 53 52  1  0
 54 53  1  0
 55 56  1  0
 55 54  1  0
 57 58  1  0
 57 56  1  0
 58 59  1  0
 59 60  1  0
 60 61  1  0
 61 62  1  0
 62 63  1  0
 63 64  1  0
 64 73  1  0
 65 72  1  1
 65 71  1  0
 65 70  1  0
 66 65  1  0
 67 68  1  0
 67 66  1  0
 69 68  1  0
 69 78  1  0
 69 70  1  0
 73 71  1  0
 73 74  1  0
 75 76  2  0
 76 95  1  0
 77 76  1  0
 77 80  1  0
 78 79  1  0
 78 75  1  0
 79 77  2  0
 80 81  1  0
 81 82  2  0
 83 86  1  0
 83 82  1  0
 84 83  2  0
 85 84  1  0
 85 80  2  0
 86 87  1  0
 87 88  1  0
 88 89  2  0
 90 89  1  0
 90 94  1  0
 91 90  2  0
 92 87  2  0
 92 91  1  0
 93 92  1  0
 95 96  1  0
 96 99  1  0
 96 98  1  0
 97 95  2  0
100101  1  0
100 75  1  0
102100  1  0
M  ISO  4  10 101  11 101  65 100  73 100
M  END
>  <TORSDO>  (80) 
F 32

>  <SCORE>  (80) 
23.314

>  <name>  (80) 
84

>  <ligand_id>  (80) 
84

>  <original_smiles>  (80) 
[H]c1c([H])c([H])c2c(c1[H])C([H])([H])C([H])([H])C([H])([H])C2([H])N([H])C(=O)C1([H])N(C(=O)C([H])(N([H])C(=O)C([H])(N([H])C([H])([H])[H])C([H])([H])[H])C(C([H])([H])[H])(C([H])([H])[H])C([H])([H])[H])C([H])([H])c2c([H])c(OC([H])([H])C([H])([H])N3C([H])([H])C([H])([H])[N+]([H])(C([H])([H])C([H])([H])OC([H])([H])C([H])([H])OC([H])([H])C([H])([H])OC([H])([H])C([H])([H])OC([H])([H])C([H])([H])N([H])C(=O)N4C([H])([H])C([H])([H])C([H])([H])C([H])(n5nc(-c6c([H])c([H])c(Oc7c([H])c([H])c(F)c([H])c7F)c([H])c6[H])c(C(=O)N([H])[H])c5N([H])[H])C4([H])[H])C([H])([H])C3([H])[H])c([H])c([H])c2C1([H])[H]

>  <smiles>  (80) 
[H]c1c([H])c([H])c2c(c1[H])C([H])([H])C([H])([H])C([H])([H])C2([H])N([H])C(=O)C1([H])N(C(=O)C([H])(N([H])C(=O)C([H])(N([H])C([H])([H])[H])C([H])([H])[H])C(C([H])([H])[H])(C([H])([H])[H])C([H])([H])[H])C([H])([H])c2c([H])c(OC([H])([H])C([H])([H])N3C([H])([H])C([H])([H])[N+]([H])(C([H])([H])C([H])([H])OC([H])([H])C([H])([H])OC([H])([H])C([H])([H])OC([H])([H])C([H])([H])OC([H])([H])C([H])([H])N([H])C(=O)N4C([H])([H])C([H])([H])C([H])([H])C([H])(n5nc(-c6c([H])c([H])c(Oc7c([H])c([H])c(F)c([H])c7F)c([H])c6[H])c(C(=O)N([H])[H])c5N([H])[H])C4([H])[H])C([H])([H])C3([H])[H])c([H])c([H])c2C1([H])[H]

$$$$
85:0:0
     RDKit          3D

102109  0  0  1  0  0  0  0  0999 V2000
  -31.9470  -27.8720   20.9700 C   0  0  0  0  0  0  0  0  0  0  0  0
  -31.8750  -27.8890   19.6370 N   0  0  0  0  0  0  0  0  0  0  0  0
  -31.7090  -28.8580   21.6730 O   0  0  0  0  0  0  0  0  0  0  0  0
  -32.0730  -27.0140   19.1680 H   0  0  0  0  0  0  0  0  0  0  0  0
  -31.4550  -29.0200   18.8130 C   0  0  0  0  0  3  0  0  0  0  0  0
  -32.4460  -31.3240   18.9270 C   0  0  0  0  0  2  0  0  0  0  0  0
  -32.5940  -30.0220   18.6230 C   0  0  0  0  0  0  0  0  0  0  0  0
  -33.9060  -29.4800   18.0840 C   0  0  0  0  0  1  0  0  0  0  0  0
  -30.9090  -28.5080   17.4600 C   0  0  0  0  0  2  0  0  0  0  0  0
  -29.4930  -28.3800   17.5140 O   0  0  0  0  0  0  0  0  0  0  0  0
  -28.9700  -27.0650   17.3410 C   0  0  0  0  0  2  0  0  0  0  0  0
  -29.0420  -26.2130   18.6280 C   0  0  0  0  0  2  0  0  0  0  0  0
  -28.7320  -26.9500   19.8130 O   0  0  0  0  0  0  0  0  0  0  0  0
  -24.8930  -31.8400   23.2440 C   0  0  0  0  0  0  0  0  0  0  0  0
  -27.5220  -27.6040   19.8870 C   0  0  0  0  0  0  0  0  0  0  0  0
  -23.6720  -30.5310   21.5330 C   0  0  0  0  0  3  0  0  0  0  0  0
  -25.1140  -29.0720   20.0180 C   0  0  0  0  0  0  0  0  0  0  0  0
  -26.1950  -30.9030   21.3390 C   0  0  0  0  0  2  0  0  0  0  0  0
  -26.2740  -29.5680   20.6290 C   0  0  0  0  0  0  0  0  0  0  0  0
  -27.4740  -28.8330   20.5720 C   0  0  0  0  0  3  0  0  0  0  0  0
  -26.3420  -27.0940   19.2980 C   0  0  0  0  0  3  0  0  0  0  0  0
  -25.1420  -27.8300   19.3580 C   0  0  0  0  0  3  0  0  0  0  0  0
  -23.8730  -29.9270   20.1160 C   0  0  0  0  0  2  0  0  0  0  0  0
  -24.9390  -31.1030   22.0970 N   0  0  0  0  0  0  0  0  0  0  0  0
  -23.8160  -32.0830   23.8050 O   0  0  0  0  0  0  0  0  0  0  0  0
  -23.0270  -29.4590   22.4380 C   0  0  0  0  0  0  0  0  0  0  0  0
  -21.6980  -29.2980   22.3190 N   0  0  0  0  0  0  0  0  0  0  0  0
  -23.7170  -28.7790   23.2000 O   0  0  0  0  0  0  0  0  0  0  0  0
  -21.2050  -29.8990   21.6740 H   0  0  0  0  0  0  0  0  0  0  0  0
  -18.3170  -28.1180   22.8000 C   0  0  0  0  0  0  0  0  0  0  0  0
  -20.8830  -28.3220   23.0400 C   0  0  0  0  0  3  0  0  0  0  0  0
  -20.9540  -26.9320   22.3670 C   0  0  0  0  0  2  0  0  0  0  0  0
  -19.8280  -26.6910   21.3560 C   0  0  0  0  0  2  0  0  0  0  0  0
  -18.4590  -26.8130   22.0320 C   0  0  0  0  0  2  0  0  0  0  0  0
  -19.4550  -28.8340   23.2560 C   0  0  0  0  0  0  0  0  0  0  0  0
  -19.2660  -30.0620   23.9290 C   0  0  0  0  0  3  0  0  0  0  0  0
  -17.9720  -30.5700   24.1500 C   0  0  0  0  0  3  0  0  0  0  0  0
  -16.8490  -29.8500   23.7090 C   0  0  0  0  0  3  0  0  0  0  0  0
  -17.0230  -28.6250   23.0400 C   0  0  0  0  0  3  0  0  0  0  0  0
  -26.1850  -32.4330   23.8910 C   0  0  0  0  0  3  0  0  0  0  0  0
  -26.7340  -31.5650   25.0900 C   0  0  1  0  0  0  0  0  0  0  0  0
  -25.6660  -31.2320   26.1570 C   0  0  0  0  0  1  0  0  0  0  0  0
  -27.3180  -30.2290   24.5750 C   0  0  0  0  0  1  0  0  0  0  0  0
  -27.8920  -32.3150   25.7920 C   0  0  0  0  0  1  0  0  0  0  0  0
  -25.8710  -33.7980   24.3340 N   0  0  0  0  0  0  0  0  0  0  0  0
  -26.1800  -34.9100   23.6550 C   0  0  0  0  0  0  0  0  0  0  0  0
  -26.8350  -34.8950   22.6090 O   0  0  0  0  0  0  0  0  0  0  0  0
  -25.2900  -33.8840   25.1570 H   0  0  0  0  0  0  0  0  0  0  0  0
  -24.4220  -36.7020   23.4680 C   0  0  0  0  0  1  0  0  0  0  0  0
  -25.6850  -36.2540   24.2240 C   0  0  0  0  0  3  0  0  0  0  0  0
  -27.8240  -37.0960   25.0820 C   0  0  0  0  0  1  0  0  0  0  0  0
  -26.7020  -37.3270   24.1760 N   0  0  0  0  0  0  0  0  0  0  0  0
  -26.2900  -38.2270   24.4060 H   0  0  0  0  0  0  0  0  0  0  0  0
  -32.3230  -26.5320   21.6060 C   0  0  0  0  0  2  0  0  0  0  0  0
  -31.4620  -25.5300   21.0770 O   0  0  0  0  0  0  0  0  0  0  0  0
  -31.7770  -24.2270   21.5490 C   0  0  0  0  0  2  0  0  0  0  0  0
  -30.6850  -23.2520   21.0860 C   0  0  0  0  0  2  0  0  0  0  0  0
  -30.8610  -21.9890   21.7160 O   0  0  0  0  0  0  0  0  0  0  0  0
  -29.7440  -21.1300   21.5190 C   0  0  0  0  0  2  0  0  0  0  0  0
  -29.9320  -19.8340   22.3200 C   0  0  0  0  0  2  0  0  0  0  0  0
  -30.7710  -18.9410   21.5980 O   0  0  0  0  0  0  0  0  0  0  0  0
  -30.9630  -17.7020   22.2690 C   0  0  0  0  0  2  0  0  0  0  0  0
  -31.7270  -16.7360   21.3500 C   0  0  0  0  0  2  0  0  0  0  0  0
  -30.9230  -16.3060   20.1060 C   0  0  0  0  0  2  0  0  0  0  0  0
  -30.9380  -13.8920   19.4660 C   0  0  0  0  0  0  0  0  0  0  0  0
  -30.3920  -11.6880   18.5110 C   0  0  0  0  0  2  0  0  0  0  0  0
  -29.3550  -11.8510   17.3820 C   0  0  0  0  0  2  0  0  0  0  0  0
  -27.9220  -11.8460   17.9480 C   0  0  0  0  0  2  0  0  0  0  0  0
  -27.7520  -12.8150   19.1490 C   0  0  0  0  0  3  0  0  0  0  0  0
  -28.8860  -12.6110   20.1800 C   0  0  0  0  0  2  0  0  0  0  0  0
  -30.1760  -12.7680   19.4830 N   0  0  0  0  0  0  0  0  0  0  0  0
  -31.9620  -14.0070   18.7830 O   0  0  0  0  0  0  0  0  0  0  0  0
  -30.4560  -14.9200   20.1780 N   0  0  0  0  0  0  0  0  0  0  0  0
  -29.6110  -14.7410   20.7010 H   0  0  0  0  0  0  0  0  0  0  0  0
  -25.4870  -13.6520   20.0500 C   0  0  0  0  0  0  0  0  0  0  0  0
  -24.4030  -12.9870   20.5550 C   0  0  0  0  0  0  0  0  0  0  0  0
  -24.7490  -11.6010   20.5410 C   0  0  0  0  0  0  0  0  0  0  0  0
  -26.4320  -12.6780   19.7630 N   0  0  0  0  0  0  0  0  0  0  0  0
  -25.9940  -11.4410   20.1110 N   0  0  0  0  0  0  0  0  0  0  0  0
  -23.9470  -10.4120   20.8580 C   0  0  0  0  0  0  0  0  0  0  0  0
  -24.3860   -9.4550   21.8000 C   0  0  0  0  0  3  0  0  0  0  0  0
  -23.5890   -8.3280   22.1000 C   0  0  0  0  0  3  0  0  0  0  0  0
  -22.3390   -8.1530   21.4600 C   0  0  0  0  0  0  0  0  0  0  0  0
  -21.9190   -9.0960   20.5060 C   0  0  0  0  0  3  0  0  0  0  0  0
  -22.7140  -10.2130   20.2050 C   0  0  0  0  0  3  0  0  0  0  0  0
  -21.5100   -7.0770   21.6700 O   0  0  0  0  0  0  0  0  0  0  0  0
  -21.5000   -6.3990   22.8620 C   0  0  0  0  0  0  0  0  0  0  0  0
  -21.2340   -7.0490   24.0870 C   0  0  0  0  0  3  0  0  0  0  0  0
  -21.1640   -6.3010   25.2810 C   0  0  0  0  0  3  0  0  0  0  0  0
  -21.3490   -4.9070   25.2500 C   0  0  0  0  0  0  0  0  0  0  0  0
  -21.6090   -4.2570   24.0300 C   0  0  0  0  0  3  0  0  0  0  0  0
  -21.6800   -5.0020   22.8390 C   0  0  0  0  0  0  0  0  0  0  0  0
  -21.9090   -4.3670   21.6640 F   0  0  0  0  0  0  0  0  0  0  0  0
  -21.2740   -4.1870   26.3940 F   0  0  0  0  0  0  0  0  0  0  0  0
  -23.0830  -13.5890   20.9410 C   0  0  0  0  0  0  0  0  0  0  0  0
  -22.4020  -13.0000   21.9190 N   0  0  0  0  0  0  0  0  0  0  0  0
  -22.6690  -14.6170   20.4070 O   0  0  0  0  0  0  0  0  0  0  0  0
  -22.7520  -12.1680   22.3700 H   0  0  0  0  0  0  0  0  0  0  0  0
  -21.5190  -13.3880   22.2190 H   0  0  0  0  0  0  0  0  0  0  0  0
  -25.7440  -14.9950   19.7960 N   0  0  0  0  0  0  0  0  0  0  0  0
  -25.0500  -15.7190   19.9470 H   0  0  0  0  0  0  0  0  0  0  0  0
  -26.5960  -15.3460   19.3770 H   0  0  0  0  0  0  0  0  0  0  0  0
  1 54  1  0
  1  3  2  0
  2  1  1  0
  4  2  1  0
  5  9  1  0
  5  2  1  0
  7  5  1  0
  7  6  2  0
  8  7  1  0
  9 10  1  0
 11 10  1  0
 11 12  1  0
 12 13  1  0
 13 15  1  0
 14 25  2  0
 15 20  1  0
 16 24  1  0
 16 26  1  0
 17 23  1  0
 17 19  1  0
 18 24  1  0
 19 18  1  0
 20 19  2  0
 21 22  1  0
 21 15  2  0
 22 17  2  0
 23 16  1  0
 24 14  1  0
 26 28  2  0
 27 26  1  0
 29 27  1  0
 30 39  2  0
 30 35  1  0
 31 27  1  0
 31 35  1  0
 32 31  1  0
 33 34  1  0
 33 32  1  0
 34 30  1  0
 35 36  2  0
 36 37  1  0
 38 37  2  0
 39 38  1  0
 40 14  1  0
 40 45  1  0
 40 41  1  0
 41 44  1  1
 41 42  1  0
 43 41  1  0
 45 48  1  0
 46 50  1  0
 46 45  1  0
 47 46  2  0
 50 49  1  0
 52 50  1  0
 52 53  1  0
 52 51  1  0
 55 56  1  0
 55 54  1  0
 57 56  1  0
 57 58  1  0
 59 58  1  0
 59 60  1  0
 61 62  1  0
 61 60  1  0
 63 62  1  0
 64 73  1  0
 64 63  1  0
 65 71  1  0
 65 73  1  0
 66 71  1  0
 67 68  1  0
 67 66  1  0
 69 68  1  0
 69 78  1  0
 69 70  1  0
 71 70  1  0
 72 65  2  0
 73 74  1  0
 75 76  2  0
 76 95  1  0
 77 76  1  0
 77 80  1  0
 78 75  1  0
 78 79  1  0
 79 77  2  0
 80 81  1  0
 81 82  2  0
 83 86  1  0
 83 82  1  0
 84 83  2  0
 85 84  1  0
 85 80  2  0
 86 87  1  0
 87 88  1  0
 88 89  2  0
 90 89  1  0
 90 94  1  0
 91 90  2  0
 92 87  2  0
 92 91  1  0
 93 92  1  0
 95 96  1  0
 96 99  1  0
 96 98  1  0
 97 95  2  0
100101  1  0
100 75  1  0
102100  1  0
M  ISO  4  12 101  13 101  65 100  73 100
M  END
>  <TORSDO>  (81) 
F 33

>  <SCORE>  (81) 
-7.402

>  <name>  (81) 
85

>  <ligand_id>  (81) 
85

>  <original_smiles>  (81) 
[H]C([H])=C(C([H])([H])[H])C([H])(N([H])C(=O)C([H])([H])OC([H])([H])C([H])([H])OC([H])([H])C([H])([H])OC([H])([H])C([H])([H])C([H])([H])N([H])C(=O)N1C([H])([H])C([H])([H])C([H])([H])C([H])(n2nc(-c3c([H])c([H])c(Oc4c([H])c([H])c(F)c([H])c4F)c([H])c3[H])c(C(=O)N([H])[H])c2N([H])[H])C1([H])[H])C([H])([H])OC([H])([H])C([H])([H])Oc1c([H])c([H])c2c(c1[H])C([H])([H])N(C(=O)C([H])(N([H])C(=O)C([H])(N([H])C([H])([H])[H])C([H])([H])[H])C(C([H])([H])[H])(C([H])([H])[H])C([H])([H])[H])C([H])(C(=O)N([H])C1([H])c3c([H])c([H])c([H])c([H])c3C([H])([H])C([H])([H])C1([H])[H])C2([H])[H]

>  <smiles>  (81) 
[H]C([H])=C(C([H])([H])[H])C([H])(N([H])C(=O)C([H])([H])OC([H])([H])C([H])([H])OC([H])([H])C([H])([H])OC([H])([H])C([H])([H])C([H])([H])N([H])C(=O)N1C([H])([H])C([H])([H])C([H])([H])C([H])(n2nc(-c3c([H])c([H])c(Oc4c([H])c([H])c(F)c([H])c4F)c([H])c3[H])c(C(=O)N([H])[H])c2N([H])[H])C1([H])[H])C([H])([H])OC([H])([H])C([H])([H])Oc1c([H])c([H])c2c(c1[H])C([H])([H])N(C(=O)C([H])(N([H])C(=O)C([H])(N([H])C([H])([H])[H])C([H])([H])[H])C(C([H])([H])[H])(C([H])([H])[H])C([H])([H])[H])C([H])(C(=O)N([H])C1([H])c3c([H])c([H])c([H])c([H])c3C([H])([H])C([H])([H])C1([H])[H])C2([H])[H]

$$$$
86:0:0
     RDKit          3D

 98105  0  0  1  0  0  0  0  0999 V2000
  -32.5140  -20.6440   16.9730 C   0  0  0  0  0  2  0  0  0  0  0  0
  -32.2910  -19.2540   17.2140 O   0  0  0  0  0  0  0  0  0  0  0  0
  -30.9820  -18.7890   16.8850 C   0  0  0  0  0  2  0  0  0  0  0  0
  -30.0410  -18.8600   18.0990 C   0  0  0  0  0  2  0  0  0  0  0  0
  -30.2370  -16.9450   19.6690 C   0  0  0  0  0  0  0  0  0  0  0  0
  -30.6160  -18.1550   19.2420 N   0  0  0  0  0  0  0  0  0  0  0  0
  -29.3150  -16.3180   19.1390 O   0  0  0  0  0  0  0  0  0  0  0  0
  -31.3920  -18.6030   19.7110 H   0  0  0  0  0  0  0  0  0  0  0  0
  -31.0090  -16.3360   20.8640 C   0  0  0  0  0  3  0  0  0  0  0  0
  -31.2570  -13.9830   20.1160 C   0  0  0  0  0  0  0  0  0  0  0  0
  -30.8440  -11.8250   19.0050 C   0  0  0  0  0  2  0  0  0  0  0  0
  -29.9240  -12.0270   17.7860 C   0  0  0  0  0  2  0  0  0  0  0  0
  -28.4420  -11.9770   18.2040 C   0  0  0  0  0  2  0  0  0  0  0  0
  -28.1360  -12.8970   19.4160 C   0  0  0  0  0  3  0  0  0  0  0  0
  -29.1580  -12.6560   20.5490 C   0  0  0  0  0  2  0  0  0  0  0  0
  -30.5170  -12.8510   20.0040 N   0  0  0  0  0  0  0  0  0  0  0  0
  -32.2980  -14.1880   19.4860 O   0  0  0  0  0  0  0  0  0  0  0  0
  -30.7430  -14.9020   20.9380 N   0  0  0  0  0  0  0  0  0  0  0  0
  -29.9120  -14.6350   21.4400 H   0  0  0  0  0  0  0  0  0  0  0  0
  -25.7450  -13.6600   19.9980 C   0  0  0  0  0  0  0  0  0  0  0  0
  -24.6400  -12.9650   20.4150 C   0  0  0  0  0  0  0  0  0  0  0  0
  -25.0500  -11.6010   20.5240 C   0  0  0  0  0  0  0  0  0  0  0  0
  -26.7610  -12.7240   19.8820 N   0  0  0  0  0  0  0  0  0  0  0  0
  -26.3440  -11.4860   20.2500 N   0  0  0  0  0  0  0  0  0  0  0  0
  -24.2770  -10.3890   20.8200 C   0  0  0  0  0  0  0  0  0  0  0  0
  -24.6570   -9.5030   21.8520 C   0  0  0  0  0  3  0  0  0  0  0  0
  -23.8860   -8.3530   22.1290 C   0  0  0  0  0  3  0  0  0  0  0  0
  -22.7200   -8.0810   21.3730 C   0  0  0  0  0  0  0  0  0  0  0  0
  -22.3590   -8.9550   20.3330 C   0  0  0  0  0  3  0  0  0  0  0  0
  -23.1300  -10.0960   20.0560 C   0  0  0  0  0  3  0  0  0  0  0  0
  -21.9250   -6.9760   21.5540 O   0  0  0  0  0  0  0  0  0  0  0  0
  -21.8230   -6.3520   22.7720 C   0  0  0  0  0  0  0  0  0  0  0  0
  -21.4050   -7.0440   23.9300 C   0  0  0  0  0  3  0  0  0  0  0  0
  -21.2490   -6.3490   25.1470 C   0  0  0  0  0  3  0  0  0  0  0  0
  -21.4980   -4.9650   25.2040 C   0  0  0  0  0  0  0  0  0  0  0  0
  -21.9100   -4.2740   24.0520 C   0  0  0  0  0  3  0  0  0  0  0  0
  -22.0680   -4.9660   22.8380 C   0  0  0  0  0  0  0  0  0  0  0  0
  -22.4440   -4.2920   21.7240 F   0  0  0  0  0  0  0  0  0  0  0  0
  -21.3410   -4.2960   26.3710 F   0  0  0  0  0  0  0  0  0  0  0  0
  -23.2570  -13.5150   20.6140 C   0  0  0  0  0  0  0  0  0  0  0  0
  -22.4970  -12.9410   21.5400 N   0  0  0  0  0  0  0  0  0  0  0  0
  -22.8580  -14.4910   19.9790 O   0  0  0  0  0  0  0  0  0  0  0  0
  -22.8310  -12.1540   22.0760 H   0  0  0  0  0  0  0  0  0  0  0  0
  -21.5680  -13.2960   21.7190 H   0  0  0  0  0  0  0  0  0  0  0  0
  -25.9670  -15.0000   19.6940 N   0  0  0  0  0  0  0  0  0  0  0  0
  -25.2310  -15.6960   19.7240 H   0  0  0  0  0  0  0  0  0  0  0  0
  -26.8590  -15.3770   19.3890 H   0  0  0  0  0  0  0  0  0  0  0  0
  -29.1610  -16.6570   22.6790 C   0  0  0  0  0  1  0  0  0  0  0  0
  -31.5970  -16.6300   23.3250 C   0  0  0  0  0  1  0  0  0  0  0  0
  -30.5960  -16.9890   22.2130 C   0  0  0  0  0  3  0  0  0  0  0  0
  -32.9030  -21.3670   18.2690 C   0  0  0  0  0  2  0  0  0  0  0  0
  -31.7210  -21.5610   19.0260 O   0  0  0  0  0  0  0  0  0  0  0  0
  -31.9090  -22.3500   20.1870 C   0  0  0  0  0  2  0  0  0  0  0  0
  -30.5920  -22.3450   20.9800 C   0  0  0  0  0  2  0  0  0  0  0  0
  -29.5310  -23.0090   20.2990 O   0  0  0  0  0  0  0  0  0  0  0  0
  -29.6570  -24.4260   20.2670 C   0  0  0  0  0  2  0  0  0  0  0  0
  -28.3090  -25.0420   19.8800 C   0  0  0  0  0  2  0  0  0  0  0  0
  -28.3690  -26.4380   20.1440 O   0  0  0  0  0  0  0  0  0  0  0  0
  -24.5700  -31.6240   23.1480 C   0  0  0  0  0  0  0  0  0  0  0  0
  -27.1890  -27.1460   20.1150 C   0  0  0  0  0  0  0  0  0  0  0  0
  -23.3800  -30.2680   21.4570 C   0  0  0  0  0  3  0  0  0  0  0  0
  -24.8310  -28.7020   20.0710 C   0  0  0  0  0  0  0  0  0  0  0  0
  -25.9180  -30.5610   21.3430 C   0  0  0  0  0  2  0  0  0  0  0  0
  -25.9830  -29.1940   20.6960 C   0  0  0  0  0  0  0  0  0  0  0  0
  -27.1650  -28.4240   20.7130 C   0  0  0  0  0  3  0  0  0  0  0  0
  -26.0130  -26.6560   19.4990 C   0  0  0  0  0  3  0  0  0  0  0  0
  -24.8380  -27.4300   19.4740 C   0  0  0  0  0  3  0  0  0  0  0  0
  -23.6150  -29.5980   20.0780 C   0  0  0  0  0  2  0  0  0  0  0  0
  -24.6400  -30.8300   22.0420 N   0  0  0  0  0  0  0  0  0  0  0  0
  -23.4790  -31.9210   23.6530 O   0  0  0  0  0  0  0  0  0  0  0  0
  -22.6720  -29.2540   22.3840 C   0  0  0  0  0  0  0  0  0  0  0  0
  -21.3440  -29.1340   22.2290 N   0  0  0  0  0  0  0  0  0  0  0  0
  -23.3130  -28.5860   23.1980 O   0  0  0  0  0  0  0  0  0  0  0  0
  -20.8920  -29.7270   21.5460 H   0  0  0  0  0  0  0  0  0  0  0  0
  -17.9080  -28.1030   22.6550 C   0  0  0  0  0  0  0  0  0  0  0  0
  -20.4720  -28.2190   22.9640 C   0  0  0  0  0  3  0  0  0  0  0  0
  -20.5080  -26.8000   22.3520 C   0  0  0  0  0  2  0  0  0  0  0  0
  -19.4020  -26.5610   21.3180 C   0  0  0  0  0  2  0  0  0  0  0  0
  -18.0210  -26.7630   21.9490 C   0  0  0  0  0  2  0  0  0  0  0  0
  -19.0590  -28.7940   23.1170 C   0  0  0  0  0  0  0  0  0  0  0  0
  -18.8990  -30.0530   23.7360 C   0  0  0  0  0  3  0  0  0  0  0  0
  -17.6210  -30.6190   23.8980 C   0  0  0  0  0  3  0  0  0  0  0  0
  -16.4840  -29.9240   23.4520 C   0  0  0  0  0  3  0  0  0  0  0  0
  -16.6280  -28.6690   22.8350 C   0  0  0  0  0  3  0  0  0  0  0  0
  -25.8520  -32.2100   23.8160 C   0  0  0  0  0  3  0  0  0  0  0  0
  -25.5640  -33.6040   24.1720 N   0  0  0  0  0  0  0  0  0  0  0  0
  -25.9310  -34.6670   23.4440 C   0  0  0  0  0  0  0  0  0  0  0  0
  -26.6210  -34.5740   22.4260 O   0  0  0  0  0  0  0  0  0  0  0  0
  -24.9520  -33.7510   24.9610 H   0  0  0  0  0  0  0  0  0  0  0  0
  -24.2360  -36.4910   23.1030 C   0  0  0  0  0  1  0  0  0  0  0  0
  -25.4590  -36.0520   23.9240 C   0  0  0  0  0  3  0  0  0  0  0  0
  -27.5960  -36.8810   24.8020 C   0  0  0  0  0  1  0  0  0  0  0  0
  -26.5090  -37.0910   23.8490 N   0  0  0  0  0  0  0  0  0  0  0  0
  -26.1150  -38.0130   24.0120 H   0  0  0  0  0  0  0  0  0  0  0  0
  -26.3220  -31.3960   25.0820 C   0  0  1  0  0  0  0  0  0  0  0  0
  -25.1980  -31.1580   26.1180 C   0  0  0  0  0  1  0  0  0  0  0  0
  -26.8820  -30.0170   24.6620 C   0  0  0  0  0  1  0  0  0  0  0  0
  -27.4730  -32.1490   25.7900 C   0  0  0  0  0  1  0  0  0  0  0  0
  1  2  1  0
  1 51  1  0
  3  2  1  0
  3  4  1  0
  4  6  1  0
  6  5  1  0
  6  8  1  0
  7  5  2  0
  9  5  1  0
  9 18  1  0
  9 50  1  0
 10 18  1  0
 11 16  1  0
 12 13  1  0
 12 11  1  0
 14 13  1  0
 14 23  1  0
 14 15  1  0
 16 10  1  0
 16 15  1  0
 17 10  2  0
 18 19  1  0
 20 21  2  0
 21 22  1  0
 21 40  1  0
 22 25  1  0
 23 20  1  0
 23 24  1  0
 24 22  2  0
 25 26  1  0
 26 27  2  0
 28 31  1  0
 28 27  1  0
 29 28  2  0
 30 29  1  0
 30 25  2  0
 31 32  1  0
 32 37  2  0
 32 33  1  0
 33 34  2  0
 34 35  1  0
 35 39  1  0
 36 35  2  0
 37 36  1  0
 38 37  1  0
 40 41  1  0
 41 44  1  0
 41 43  1  0
 42 40  2  0
 45 46  1  0
 45 20  1  0
 47 45  1  0
 50 48  1  0
 50 49  1  0
 51 52  1  0
 52 53  1  0
 53 54  1  0
 55 54  1  0
 56 55  1  0
 57 58  1  0
 57 56  1  0
 59 70  2  0
 60 58  1  0
 60 65  1  0
 61 69  1  0
 61 71  1  0
 62 68  1  0
 62 64  1  0
 63 69  1  0
 64 65  2  0
 64 63  1  0
 66 60  2  0
 67 66  1  0
 67 62  2  0
 68 61  1  0
 69 59  1  0
 71 73  2  0
 72 71  1  0
 74 72  1  0
 75 84  2  0
 75 80  1  0
 76 72  1  0
 76 80  1  0
 77 76  1  0
 78 79  1  0
 78 77  1  0
 79 75  1  0
 80 81  2  0
 81 82  1  0
 83 82  2  0
 84 83  1  0
 85 59  1  0
 85 86  1  0
 85 95  1  0
 86 89  1  0
 87 91  1  0
 87 86  1  0
 88 87  2  0
 91 90  1  0
 93 91  1  0
 93 94  1  0
 93 92  1  0
 95 98  1  1
 95 96  1  0
 97 95  1  0
M  ISO  4  10 100  18 100  57 101  58 101
M  END
>  <TORSDO>  (82) 
F 29

>  <SCORE>  (82) 
-7.007

>  <name>  (82) 
86

>  <ligand_id>  (82) 
86

>  <original_smiles>  (82) 
[H]c1c([H])c([H])c2c(c1[H])C([H])([H])C([H])([H])C([H])([H])C2([H])N([H])C(=O)C1([H])N(C(=O)C([H])(N([H])C(=O)C([H])(N([H])C([H])([H])[H])C([H])([H])[H])C(C([H])([H])[H])(C([H])([H])[H])C([H])([H])[H])C([H])([H])c2c([H])c(OC([H])([H])C([H])([H])OC([H])([H])C([H])([H])OC([H])([H])C([H])([H])OC([H])([H])C([H])([H])N([H])C(=O)C([H])(N([H])C(=O)N3C([H])([H])C([H])([H])C([H])([H])C([H])(n4nc(-c5c([H])c([H])c(Oc6c([H])c([H])c(F)c([H])c6F)c([H])c5[H])c(C(=O)N([H])[H])c4N([H])[H])C3([H])[H])C([H])(C([H])([H])[H])C([H])([H])[H])c([H])c([H])c2C1([H])[H]

>  <smiles>  (82) 
[H]c1c([H])c([H])c2c(c1[H])C([H])([H])C([H])([H])C([H])([H])C2([H])N([H])C(=O)C1([H])N(C(=O)C([H])(N([H])C(=O)C([H])(N([H])C([H])([H])[H])C([H])([H])[H])C(C([H])([H])[H])(C([H])([H])[H])C([H])([H])[H])C([H])([H])c2c([H])c(OC([H])([H])C([H])([H])OC([H])([H])C([H])([H])OC([H])([H])C([H])([H])OC([H])([H])C([H])([H])N([H])C(=O)C([H])(N([H])C(=O)N3C([H])([H])C([H])([H])C([H])([H])C([H])(n4nc(-c5c([H])c([H])c(Oc6c([H])c([H])c(F)c([H])c6F)c([H])c5[H])c(C(=O)N([H])[H])c4N([H])[H])C3([H])[H])C([H])(C([H])([H])[H])C([H])([H])[H])c([H])c([H])c2C1([H])[H]

$$$$
88:0:0
     RDKit          3D

131138  0  0  1  0  0  0  0  0999 V2000
  -24.2060  -23.7570   21.8480 C   0  0  0  0  0  3  0  0  0  0  0  0
  -23.2970  -22.8720   22.7050 C   0  0  0  0  0  0  0  0  0  0  0  0
  -22.0660  -23.3270   22.9810 N   0  0  0  0  0  0  0  0  0  0  0  0
  -23.7160  -21.7790   23.0910 O   0  0  0  0  0  0  0  0  0  0  0  0
  -21.7810  -24.2150   22.5910 H   0  0  0  0  0  0  0  0  0  0  0  0
  -21.0380  -22.5850   23.7120 C   0  0  0  0  0  2  0  0  0  0  0  0
  -20.0760  -21.8690   22.7490 C   0  0  0  0  0  2  0  0  0  0  0  0
  -20.8410  -21.2290   21.7400 O   0  0  0  0  0  0  0  0  0  0  0  0
  -20.1100  -20.3170   20.9380 C   0  0  0  0  0  2  0  0  0  0  0  0
  -20.9960  -19.9770   19.7360 C   0  0  0  0  0  2  0  0  0  0  0  0
  -22.1730  -19.3330   20.2040 O   0  0  0  0  0  0  0  0  0  0  0  0
  -23.1560  -19.1700   19.1930 C   0  0  0  0  0  2  0  0  0  0  0  0
  -24.3670  -18.4600   19.8070 C   0  0  0  0  0  2  0  0  0  0  0  0
  -25.0390  -19.3210   20.7210 O   0  0  0  0  0  0  0  0  0  0  0  0
  -26.0820  -18.6460   21.4160 C   0  0  0  0  0  2  0  0  0  0  0  0
  -26.6310  -19.5340   22.5360 C   0  0  0  0  0  2  0  0  0  0  0  0
  -27.4270  -20.5750   21.9860 O   0  0  0  0  0  0  0  0  0  0  0  0
  -28.0970  -21.3180   22.9940 C   0  0  0  0  0  2  0  0  0  0  0  0
  -28.9820  -22.3640   22.3170 C   0  0  0  0  0  2  0  0  0  0  0  0
  -29.6230  -23.3650   23.2830 C   0  0  0  0  0  2  0  0  0  0  0  0
  -30.3490  -24.2910   22.4890 O   0  0  0  0  0  0  0  0  0  0  0  0
  -30.5560  -25.5530   23.1060 C   0  0  0  0  0  2  0  0  0  0  0  0
  -31.3160  -26.4300   22.1040 C   0  0  0  0  0  2  0  0  0  0  0  0
  -31.4390  -27.8980   22.5340 C   0  0  0  0  0  2  0  0  0  0  0  0
  -32.1050  -28.5960   21.4910 O   0  0  0  0  0  0  0  0  0  0  0  0
  -32.2060  -29.9940   21.7200 C   0  0  0  0  0  2  0  0  0  0  0  0
  -32.9380  -30.6200   20.5250 C   0  0  0  0  0  2  0  0  0  0  0  0
  -33.1190  -32.1370   20.6560 C   0  0  0  0  0  2  0  0  0  0  0  0
  -34.0460  -34.0070   19.5490 C   0  0  0  0  0  1  0  0  0  0  0  0
  -33.8070  -32.6080   19.5060 O   0  0  0  0  0  0  0  0  0  0  0  0
  -25.2710  -22.9220   21.2480 N   0  0  0  0  0  4  0  0  0  0  0  0
  -26.1490  -23.2730   21.6040 H   0  0  0  0  0  0  0  0  0  0  0  0
  -25.1280  -21.9950   21.6370 H   0  0  0  0  0  0  0  0  0  0  0  0
  -25.3200  -22.8570   19.7660 C   0  0  0  0  0  2  0  0  0  0  0  0
  -26.7650  -22.9060   19.2540 C   0  0  0  0  0  2  0  0  0  0  0  0
  -27.2670  -24.1750   19.6520 O   0  0  0  0  0  0  0  0  0  0  0  0
  -28.5860  -24.4720   19.2070 C   0  0  0  0  0  2  0  0  0  0  0  0
  -28.7040  -25.9710   18.8810 C   0  0  0  0  0  2  0  0  0  0  0  0
  -28.4360  -26.7950   20.0190 O   0  0  0  0  0  0  0  0  0  0  0  0
  -24.6140  -31.8720   23.2190 C   0  0  0  0  0  0  0  0  0  0  0  0
  -27.2390  -27.4760   20.0560 C   0  0  0  0  0  0  0  0  0  0  0  0
  -23.3990  -30.5020   21.5590 C   0  0  0  0  0  3  0  0  0  0  0  0
  -24.8410  -28.9720   20.1230 C   0  0  0  0  0  0  0  0  0  0  0  0
  -25.9280  -30.8410   21.3740 C   0  0  0  0  0  2  0  0  0  0  0  0
  -26.0010  -29.4770   20.7220 C   0  0  0  0  0  0  0  0  0  0  0  0
  -27.1970  -28.7280   20.7030 C   0  0  0  0  0  3  0  0  0  0  0  0
  -26.0540  -26.9770   19.4650 C   0  0  0  0  0  3  0  0  0  0  0  0
  -24.8580  -27.7130   19.5030 C   0  0  0  0  0  3  0  0  0  0  0  0
  -23.6050  -29.8420   20.1720 C   0  0  0  0  0  2  0  0  0  0  0  0
  -24.6660  -31.0850   22.1080 N   0  0  0  0  0  0  0  0  0  0  0  0
  -23.5330  -32.1470   23.7590 O   0  0  0  0  0  0  0  0  0  0  0  0
  -22.7420  -29.4680   22.5020 C   0  0  0  0  0  0  0  0  0  0  0  0
  -21.4160  -29.3050   22.3760 N   0  0  0  0  0  0  0  0  0  0  0  0
  -23.4220  -28.8120   23.2960 O   0  0  0  0  0  0  0  0  0  0  0  0
  -20.9290  -29.8870   21.7080 H   0  0  0  0  0  0  0  0  0  0  0  0
  -18.0280  -28.1370   22.8530 C   0  0  0  0  0  0  0  0  0  0  0  0
  -20.5870  -28.3670   23.1330 C   0  0  0  0  0  3  0  0  0  0  0  0
  -20.6780  -26.9390   22.5460 C   0  0  0  0  0  2  0  0  0  0  0  0
  -19.5740  -26.6330   21.5270 C   0  0  0  0  0  2  0  0  0  0  0  0
  -18.1920  -26.7900   22.1680 C   0  0  0  0  0  2  0  0  0  0  0  0
  -19.1530  -28.8830   23.2910 C   0  0  0  0  0  0  0  0  0  0  0  0
  -18.9460  -30.1440   23.8930 C   0  0  0  0  0  3  0  0  0  0  0  0
  -17.6460  -30.6590   24.0570 C   0  0  0  0  0  3  0  0  0  0  0  0
  -16.5360  -29.9100   23.6310 C   0  0  0  0  0  3  0  0  0  0  0  0
  -16.7270  -28.6500   23.0370 C   0  0  0  0  0  3  0  0  0  0  0  0
  -25.9040  -32.4840   23.8470 C   0  0  0  0  0  3  0  0  0  0  0  0
  -26.4470  -31.6620   25.0800 C   0  0  1  0  0  0  0  0  0  0  0  0
  -25.3740  -31.3720   26.1560 C   0  0  0  0  0  1  0  0  0  0  0  0
  -27.0350  -30.3070   24.6180 C   0  0  0  0  0  1  0  0  0  0  0  0
  -27.6030  -32.4380   25.7540 C   0  0  0  0  0  1  0  0  0  0  0  0
  -25.5900  -33.8640   24.2380 N   0  0  0  0  0  0  0  0  0  0  0  0
  -25.9040  -34.9490   23.5160 C   0  0  0  0  0  0  0  0  0  0  0  0
  -26.5600  -34.8930   22.4720 O   0  0  0  0  0  0  0  0  0  0  0  0
  -25.0050  -33.9840   25.0520 H   0  0  0  0  0  0  0  0  0  0  0  0
  -24.1480  -36.7320   23.2650 C   0  0  0  0  0  1  0  0  0  0  0  0
  -25.4100  -36.3130   24.0350 C   0  0  0  0  0  3  0  0  0  0  0  0
  -27.5580  -37.1810   24.8460 C   0  0  0  0  0  1  0  0  0  0  0  0
  -26.4280  -37.3820   23.9430 N   0  0  0  0  0  0  0  0  0  0  0  0
  -26.0180  -38.2900   24.1450 H   0  0  0  0  0  0  0  0  0  0  0  0
  -24.8430  -24.8940   22.6750 C   0  0  0  0  0  2  0  0  0  0  0  0
  -25.7880  -24.3450   23.5960 O   0  0  0  0  0  0  0  0  0  0  0  0
  -25.4550  -24.6070   24.9580 C   0  0  0  0  0  2  0  0  0  0  0  0
  -26.3950  -23.8320   25.8910 C   0  0  0  0  0  2  0  0  0  0  0  0
  -26.0670  -22.4510   25.8220 O   0  0  0  0  0  0  0  0  0  0  0  0
  -27.0210  -21.6130   26.4600 C   0  0  0  0  0  2  0  0  0  0  0  0
  -26.5130  -20.1660   26.3960 C   0  0  0  0  0  2  0  0  0  0  0  0
  -27.5730  -19.1110   26.7460 C   0  0  0  0  0  2  0  0  0  0  0  0
  -28.5130  -18.9990   25.6820 O   0  0  0  0  0  0  0  0  0  0  0  0
  -29.4590  -17.9580   25.9000 C   0  0  0  0  0  2  0  0  0  0  0  0
  -30.5110  -17.9370   24.7810 C   0  0  0  0  0  2  0  0  0  0  0  0
  -29.9970  -17.3230   23.6030 O   0  0  0  0  0  0  0  0  0  0  0  0
  -30.9610  -17.2960   22.5560 C   0  0  0  0  0  2  0  0  0  0  0  0
  -30.3150  -16.7810   21.2640 C   0  0  0  0  0  2  0  0  0  0  0  0
  -30.7040  -14.4060   20.6240 C   0  0  0  0  0  0  0  0  0  0  0  0
  -30.4230  -12.2790   19.4090 C   0  0  0  0  0  2  0  0  0  0  0  0
  -29.4890  -12.5070   18.2020 C   0  0  0  0  0  2  0  0  0  0  0  0
  -28.0110  -12.3670   18.6150 C   0  0  0  0  0  2  0  0  0  0  0  0
  -27.6680  -13.1900   19.8850 C   0  0  0  0  0  3  0  0  0  0  0  0
  -28.7040  -12.9230   21.0000 C   0  0  0  0  0  2  0  0  0  0  0  0
  -30.0420  -13.2320   20.4630 N   0  0  0  0  0  0  0  0  0  0  0  0
  -31.7850  -14.6560   20.0830 O   0  0  0  0  0  0  0  0  0  0  0  0
  -30.0380  -15.3440   21.3090 N   0  0  0  0  0  0  0  0  0  0  0  0
  -29.1840  -15.0570   21.7640 H   0  0  0  0  0  0  0  0  0  0  0  0
  -25.2650  -13.8080   20.5670 C   0  0  0  0  0  0  0  0  0  0  0  0
  -24.1860  -13.0410   20.9160 C   0  0  0  0  0  0  0  0  0  0  0  0
  -24.6380  -11.6870   20.8720 C   0  0  0  0  0  0  0  0  0  0  0  0
  -26.3060  -12.9230   20.3400 N   0  0  0  0  0  0  0  0  0  0  0  0
  -25.9310  -11.6400   20.5780 N   0  0  0  0  0  0  0  0  0  0  0  0
  -23.9040  -10.4270   21.0400 C   0  0  0  0  0  0  0  0  0  0  0  0
  -24.3600   -9.4190   21.9190 C   0  0  0  0  0  3  0  0  0  0  0  0
  -23.6280   -8.2230   22.0760 C   0  0  0  0  0  3  0  0  0  0  0  0
  -22.4270   -8.0270   21.3540 C   0  0  0  0  0  0  0  0  0  0  0  0
  -21.9900   -9.0240   20.4640 C   0  0  0  0  0  3  0  0  0  0  0  0
  -22.7210  -10.2120   20.3060 C   0  0  0  0  0  3  0  0  0  0  0  0
  -21.6630   -6.8870   21.4240 O   0  0  0  0  0  0  0  0  0  0  0  0
  -21.6850   -6.0730   22.5270 C   0  0  0  0  0  0  0  0  0  0  0  0
  -21.4010   -6.5630   23.8200 C   0  0  0  0  0  3  0  0  0  0  0  0
  -21.3660   -5.6790   24.9160 C   0  0  0  0  0  3  0  0  0  0  0  0
  -21.6050   -4.3050   24.7220 C   0  0  0  0  0  0  0  0  0  0  0  0
  -21.8820   -3.8150   23.4340 C   0  0  0  0  0  3  0  0  0  0  0  0
  -21.9190   -4.6960   22.3400 C   0  0  0  0  0  0  0  0  0  0  0  0
  -22.1660   -4.2150   21.0970 F   0  0  0  0  0  0  0  0  0  0  0  0
  -21.5640   -3.4540   25.7730 F   0  0  0  0  0  0  0  0  0  0  0  0
  -22.7900  -13.5260   21.1820 C   0  0  0  0  0  0  0  0  0  0  0  0
  -22.0520  -12.8240   22.0350 N   0  0  0  0  0  0  0  0  0  0  0  0
  -22.3620  -14.5590   20.6690 O   0  0  0  0  0  0  0  0  0  0  0  0
  -22.4110  -11.9870   22.4700 H   0  0  0  0  0  0  0  0  0  0  0  0
  -21.1150  -13.1280   22.2560 H   0  0  0  0  0  0  0  0  0  0  0  0
  -25.4420  -15.1770   20.4040 N   0  0  0  0  0  0  0  0  0  0  0  0
  -24.6680  -15.8210   20.4980 H   0  0  0  0  0  0  0  0  0  0  0  0
  -26.2920  -15.6010   20.0560 H   0  0  0  0  0  0  0  0  0  0  0  0
  1 80  1  0
  1  2  1  0
  2  3  1  0
  2  4  2  0
  3  6  1  0
  5  3  1  0
  7  6  1  0
  8  7  1  0
  9  8  1  0
 10 11  1  0
 10  9  1  0
 12 13  1  0
 12 11  1  0
 13 14  1  0
 14 15  1  0
 15 16  1  0
 17 16  1  0
 17 18  1  0
 19 18  1  0
 19 20  1  0
 21 22  1  0
 21 20  1  0
 23 24  1  0
 23 22  1  0
 25 26  1  0
 25 24  1  0
 27 28  1  0
 27 26  1  0
 30 29  1  0
 30 28  1  0
 31 32  1  0
 31 33  1  0
 31  1  1  0
 34 31  1  0
 35 36  1  0
 35 34  1  0
 37 36  1  0
 38 37  1  0
 38 39  1  0
 39 41  1  0
 40 51  2  0
 41 46  1  0
 42 50  1  0
 42 52  1  0
 43 49  1  0
 43 45  1  0
 44 50  1  0
 45 44  1  0
 46 45  2  0
 47 48  1  0
 47 41  2  0
 48 43  2  0
 49 42  1  0
 50 40  1  0
 52 54  2  0
 53 52  1  0
 55 53  1  0
 56 65  2  0
 56 61  1  0
 57 53  1  0
 57 61  1  0
 58 57  1  0
 59 60  1  0
 59 58  1  0
 60 56  1  0
 61 62  2  0
 62 63  1  0
 64 63  2  0
 65 64  1  0
 66 40  1  0
 66 71  1  0
 66 67  1  0
 67 70  1  1
 67 68  1  0
 69 67  1  0
 71 74  1  0
 72 76  1  0
 72 71  1  0
 73 72  2  0
 76 75  1  0
 78 76  1  0
 78 79  1  0
 78 77  1  0
 80 81  1  0
 81 82  1  0
 82 83  1  0
 84 83  1  0
 84 85  1  0
 86 85  1  0
 86 87  1  0
 88 89  1  0
 88 87  1  0
 90 89  1  0
 91 90  1  0
 92 91  1  0
 93102  1  0
 93 92  1  0
 94102  1  0
 95100  1  0
 96 97  1  0
 96 95  1  0
 98 97  1  0
 98107  1  0
 98 99  1  0
100 94  1  0
100 99  1  0
101 94  2  0
102103  1  0
104105  2  0
105124  1  0
106105  1  0
106109  1  0
107104  1  0
107108  1  0
108106  2  0
109110  1  0
110111  2  0
112115  1  0
112111  1  0
113112  2  0
114113  1  0
114109  2  0
115116  1  0
116117  1  0
117118  2  0
119118  1  0
119123  1  0
120119  2  0
121116  2  0
121120  1  0
122121  1  0
124125  1  0
125128  1  0
125127  1  0
126124  2  0
129130  1  0
129104  1  0
131129  1  0
M  ISO  4  38 101  39 101  94 100 102 100
M  END
>  <TORSDO>  (83) 
F 61

>  <SCORE>  (83) 
40.080

>  <name>  (83) 
88

>  <ligand_id>  (83) 
88

>  <original_smiles>  (83) 
[H]c1c([H])c([H])c2c(c1[H])C([H])([H])C([H])([H])C([H])([H])C2([H])N([H])C(=O)C1([H])N(C(=O)C([H])(N([H])C(=O)C([H])(N([H])C([H])([H])[H])C([H])([H])[H])C(C([H])([H])[H])(C([H])([H])[H])C([H])([H])[H])C([H])([H])c2c([H])c(OC([H])([H])C([H])([H])OC([H])([H])C([H])([H])[N+]([H])([H])C([H])(C(=O)N([H])C([H])([H])C([H])([H])OC([H])([H])C([H])([H])OC([H])([H])C([H])([H])OC([H])([H])C([H])([H])OC([H])([H])C([H])([H])C([H])([H])OC([H])([H])C([H])([H])C([H])([H])OC([H])([H])C([H])([H])C([H])([H])OC([H])([H])[H])C([H])([H])OC([H])([H])C([H])([H])OC([H])([H])C([H])([H])C([H])([H])OC([H])([H])C([H])([H])OC([H])([H])C([H])([H])N([H])C(=O)N3C([H])([H])C([H])([H])C([H])([H])C([H])(n4nc(-c5c([H])c([H])c(Oc6c([H])c([H])c(F)c([H])c6F)c([H])c5[H])c(C(=O)N([H])[H])c4N([H])[H])C3([H])[H])c([H])c([H])c2C1([H])[H]

>  <smiles>  (83) 
[H]c1c([H])c([H])c2c(c1[H])C([H])([H])C([H])([H])C([H])([H])C2([H])N([H])C(=O)C1([H])N(C(=O)C([H])(N([H])C(=O)C([H])(N([H])C([H])([H])[H])C([H])([H])[H])C(C([H])([H])[H])(C([H])([H])[H])C([H])([H])[H])C([H])([H])c2c([H])c(OC([H])([H])C([H])([H])OC([H])([H])C([H])([H])[N+]([H])([H])C([H])(C(=O)N([H])C([H])([H])C([H])([H])OC([H])([H])C([H])([H])OC([H])([H])C([H])([H])OC([H])([H])C([H])([H])OC([H])([H])C([H])([H])C([H])([H])OC([H])([H])C([H])([H])C([H])([H])OC([H])([H])C([H])([H])C([H])([H])OC([H])([H])[H])C([H])([H])OC([H])([H])C([H])([H])OC([H])([H])C([H])([H])C([H])([H])OC([H])([H])C([H])([H])OC([H])([H])C([H])([H])N([H])C(=O)N3C([H])([H])C([H])([H])C([H])([H])C([H])(n4nc(-c5c([H])c([H])c(Oc6c([H])c([H])c(F)c([H])c6F)c([H])c5[H])c(C(=O)N([H])[H])c4N([H])[H])C3([H])[H])c([H])c([H])c2C1([H])[H]

$$$$
89:0:0
     RDKit          3D

 96103  0  0  1  0  0  0  0  0999 V2000
  -28.9290  -24.2780   13.6270 C   0  0  0  0  0  2  0  0  0  0  0  0
  -30.0830  -22.2590   13.2750 C   0  0  0  0  0  3  0  0  0  0  0  0
  -29.4650  -23.0130   14.0960 N   0  0  0  0  0  0  0  0  0  0  0  0
  -30.6190  -20.9020   13.6810 C   0  0  0  0  0  2  0  0  0  0  0  0
  -30.0040  -20.4480   14.8790 O   0  0  0  0  0  0  0  0  0  0  0  0
  -30.4950  -19.1910   15.3000 C   0  0  0  0  0  2  0  0  0  0  0  0
  -29.7800  -18.7950   16.5950 C   0  0  0  0  0  2  0  0  0  0  0  0
  -30.7500  -18.5810   17.6090 O   0  0  0  0  0  0  0  0  0  0  0  0
  -30.1810  -17.9910   18.7630 C   0  0  0  0  0  2  0  0  0  0  0  0
  -31.2860  -17.8380   19.8130 C   0  0  0  0  0  2  0  0  0  0  0  0
  -30.8030  -17.1940   21.1330 C   0  0  0  0  0  2  0  0  0  0  0  0
  -31.0300  -14.7590   20.6550 C   0  0  0  0  0  0  0  0  0  0  0  0
  -30.7460  -12.5960   19.5420 C   0  0  0  0  0  2  0  0  0  0  0  0
  -29.8790  -12.7890   18.2860 C   0  0  0  0  0  2  0  0  0  0  0  0
  -28.3840  -12.6800   18.6470 C   0  0  0  0  0  2  0  0  0  0  0  0
  -27.9810  -13.5450   19.8700 C   0  0  0  0  0  3  0  0  0  0  0  0
  -28.9770  -13.3520   21.0340 C   0  0  0  0  0  2  0  0  0  0  0  0
  -30.3330  -13.6110   20.5140 N   0  0  0  0  0  0  0  0  0  0  0  0
  -32.2160  -14.8850   20.3320 O   0  0  0  0  0  0  0  0  0  0  0  0
  -30.2940  -15.8280   20.9820 N   0  0  0  0  0  0  0  0  0  0  0  0
  -29.3040  -15.6740   21.1150 H   0  0  0  0  0  0  0  0  0  0  0  0
  -25.5560  -14.1800   20.4610 C   0  0  0  0  0  0  0  0  0  0  0  0
  -24.4630  -13.4190   20.7780 C   0  0  0  0  0  0  0  0  0  0  0  0
  -24.9120  -12.0640   20.7800 C   0  0  0  0  0  0  0  0  0  0  0  0
  -26.6050  -13.2860   20.2880 N   0  0  0  0  0  0  0  0  0  0  0  0
  -26.2170  -12.0110   20.5440 N   0  0  0  0  0  0  0  0  0  0  0  0
  -24.1690  -10.8080   20.9380 C   0  0  0  0  0  0  0  0  0  0  0  0
  -24.5530   -9.8450   21.8990 C   0  0  0  0  0  3  0  0  0  0  0  0
  -23.8160   -8.6510   22.0510 C   0  0  0  0  0  3  0  0  0  0  0  0
  -22.6800   -8.4120   21.2420 C   0  0  0  0  0  0  0  0  0  0  0  0
  -22.3150   -9.3630   20.2730 C   0  0  0  0  0  3  0  0  0  0  0  0
  -23.0520  -10.5490   20.1180 C   0  0  0  0  0  3  0  0  0  0  0  0
  -21.9200   -7.2690   21.2970 O   0  0  0  0  0  0  0  0  0  0  0  0
  -21.8100   -6.5370   22.4510 C   0  0  0  0  0  0  0  0  0  0  0  0
  -21.3190   -7.1010   23.6490 C   0  0  0  0  0  3  0  0  0  0  0  0
  -21.1560   -6.2920   24.7910 C   0  0  0  0  0  3  0  0  0  0  0  0
  -21.4730   -4.9210   24.7330 C   0  0  0  0  0  0  0  0  0  0  0  0
  -21.9620   -4.3590   23.5400 C   0  0  0  0  0  3  0  0  0  0  0  0
  -22.1250   -5.1650   22.4010 C   0  0  0  0  0  0  0  0  0  0  0  0
  -22.5730   -4.6150   21.2450 F   0  0  0  0  0  0  0  0  0  0  0  0
  -21.3120   -4.1410   25.8270 F   0  0  0  0  0  0  0  0  0  0  0  0
  -23.0580  -13.9090   20.9690 C   0  0  0  0  0  0  0  0  0  0  0  0
  -22.2820  -13.2330   21.8030 N   0  0  0  0  0  0  0  0  0  0  0  0
  -22.6560  -14.9290   20.4050 O   0  0  0  0  0  0  0  0  0  0  0  0
  -22.6280  -12.4150   22.2840 H   0  0  0  0  0  0  0  0  0  0  0  0
  -21.3310  -13.5410   21.9640 H   0  0  0  0  0  0  0  0  0  0  0  0
  -25.7390  -15.5450   20.2810 N   0  0  0  0  0  0  0  0  0  0  0  0
  -24.9610  -16.1960   20.3390 H   0  0  0  0  0  0  0  0  0  0  0  0
  -26.5960  -15.9790   19.9630 H   0  0  0  0  0  0  0  0  0  0  0  0
  -29.4510  -25.4510   14.4790 C   0  0  0  0  0  2  0  0  0  0  0  0
  -29.4230  -25.1140   15.8610 O   0  0  0  0  0  0  0  0  0  0  0  0
  -29.8270  -26.1830   16.7010 C   0  0  0  0  0  2  0  0  0  0  0  0
  -30.1610  -25.5980   18.0760 C   0  0  0  0  0  2  0  0  0  0  0  0
  -30.6870  -26.6440   19.0760 C   0  0  0  0  0  2  0  0  0  0  0  0
  -29.6110  -27.6140   19.5870 C   0  0  0  0  0  2  0  0  0  0  0  0
  -28.4700  -26.8770   20.0200 O   0  0  0  0  0  0  0  0  0  0  0  0
  -24.5890  -31.9290   23.2440 C   0  0  0  0  0  0  0  0  0  0  0  0
  -27.3020  -27.5900   20.1050 C   0  0  0  0  0  0  0  0  0  0  0  0
  -23.3920  -30.5190   21.5970 C   0  0  0  0  0  3  0  0  0  0  0  0
  -24.8620  -29.0080   20.1650 C   0  0  0  0  0  0  0  0  0  0  0  0
  -25.9030  -30.9270   21.3840 C   0  0  0  0  0  2  0  0  0  0  0  0
  -26.0110  -29.5630   20.7410 C   0  0  0  0  0  0  0  0  0  0  0  0
  -27.2330  -28.8640   20.7140 C   0  0  0  0  0  3  0  0  0  0  0  0
  -26.1330  -27.0230   19.5600 C   0  0  0  0  0  3  0  0  0  0  0  0
  -24.9140  -27.7290   19.5780 C   0  0  0  0  0  3  0  0  0  0  0  0
  -23.6030  -29.8420   20.2170 C   0  0  0  0  0  2  0  0  0  0  0  0
  -24.6470  -31.1390   22.1340 N   0  0  0  0  0  0  0  0  0  0  0  0
  -23.5060  -32.1850   23.7900 O   0  0  0  0  0  0  0  0  0  0  0  0
  -22.7580  -29.4880   22.5570 C   0  0  0  0  0  0  0  0  0  0  0  0
  -21.4350  -29.2940   22.4340 N   0  0  0  0  0  0  0  0  0  0  0  0
  -23.4530  -28.8660   23.3640 O   0  0  0  0  0  0  0  0  0  0  0  0
  -20.9410  -29.8480   21.7490 H   0  0  0  0  0  0  0  0  0  0  0  0
  -18.0730  -28.0700   22.9400 C   0  0  0  0  0  0  0  0  0  0  0  0
  -20.6300  -28.3460   23.2010 C   0  0  0  0  0  3  0  0  0  0  0  0
  -20.7420  -26.9190   22.6150 C   0  0  0  0  0  2  0  0  0  0  0  0
  -19.6380  -26.5950   21.6030 C   0  0  0  0  0  2  0  0  0  0  0  0
  -18.2570  -26.7270   22.2530 C   0  0  0  0  0  2  0  0  0  0  0  0
  -19.1880  -28.8360   23.3700 C   0  0  0  0  0  0  0  0  0  0  0  0
  -18.9630  -30.0930   23.9720 C   0  0  0  0  0  3  0  0  0  0  0  0
  -17.6560  -30.5840   24.1470 C   0  0  0  0  0  3  0  0  0  0  0  0
  -16.5560  -29.8150   23.7310 C   0  0  0  0  0  3  0  0  0  0  0  0
  -16.7660  -28.5590   23.1350 C   0  0  0  0  0  3  0  0  0  0  0  0
  -25.8720  -32.5690   23.8610 C   0  0  0  0  0  3  0  0  0  0  0  0
  -25.5590  -33.9680   24.1790 N   0  0  0  0  0  0  0  0  0  0  0  0
  -25.9020  -35.0160   23.4190 C   0  0  0  0  0  0  0  0  0  0  0  0
  -26.5850  -34.9080   22.3970 O   0  0  0  0  0  0  0  0  0  0  0  0
  -24.9600  -34.1280   24.9770 H   0  0  0  0  0  0  0  0  0  0  0  0
  -24.1880  -36.8120   23.0100 C   0  0  0  0  0  1  0  0  0  0  0  0
  -25.4040  -36.4050   23.8600 C   0  0  0  0  0  3  0  0  0  0  0  0
  -27.5170  -37.2830   24.7480 C   0  0  0  0  0  1  0  0  0  0  0  0
  -26.4410  -37.4570   23.7740 N   0  0  0  0  0  0  0  0  0  0  0  0
  -26.0330  -38.3770   23.9170 H   0  0  0  0  0  0  0  0  0  0  0  0
  -26.3920  -31.8090   25.1420 C   0  0  1  0  0  0  0  0  0  0  0  0
  -25.3030  -31.5780   26.2140 C   0  0  0  0  0  1  0  0  0  0  0  0
  -26.9790  -30.4300   24.7540 C   0  0  0  0  0  1  0  0  0  0  0  0
  -27.5470  -32.6080   25.7910 C   0  0  0  0  0  1  0  0  0  0  0  0
  1  3  1  0
  1 50  1  0
  2  4  1  0
  2  3  2  0
  4  5  1  0
  5  6  1  0
  6  7  1  0
  7  8  1  0
  8  9  1  0
  9 10  1  0
 10 11  1  0
 12 20  1  0
 13 18  1  0
 14 15  1  0
 14 13  1  0
 16 15  1  0
 16 25  1  0
 16 17  1  0
 18 12  1  0
 18 17  1  0
 19 12  2  0
 20 21  1  0
 20 11  1  0
 22 23  2  0
 23 24  1  0
 23 42  1  0
 24 27  1  0
 25 22  1  0
 25 26  1  0
 26 24  2  0
 27 28  1  0
 28 29  2  0
 30 33  1  0
 30 29  1  0
 31 30  2  0
 32 31  1  0
 32 27  2  0
 33 34  1  0
 34 35  1  0
 35 36  2  0
 37 36  1  0
 37 41  1  0
 38 37  2  0
 39 34  2  0
 39 38  1  0
 40 39  1  0
 42 43  1  0
 43 46  1  0
 43 45  1  0
 44 42  2  0
 47 48  1  0
 47 22  1  0
 49 47  1  0
 50 51  1  0
 51 52  1  0
 52 53  1  0
 53 54  1  0
 54 55  1  0
 55 56  1  0
 56 58  1  0
 57 68  2  0
 58 63  1  0
 59 67  1  0
 59 69  1  0
 60 66  1  0
 60 62  1  0
 61 67  1  0
 62 61  1  0
 63 62  2  0
 64 65  1  0
 64 58  2  0
 65 60  2  0
 66 59  1  0
 67 57  1  0
 69 71  2  0
 70 69  1  0
 72 70  1  0
 73 82  2  0
 73 78  1  0
 74 70  1  0
 74 78  1  0
 75 74  1  0
 76 77  1  0
 76 75  1  0
 77 73  1  0
 78 79  2  0
 79 80  1  0
 81 80  2  0
 82 81  1  0
 83 57  1  0
 83 84  1  0
 83 93  1  0
 84 87  1  0
 85 89  1  0
 85 84  1  0
 86 85  2  0
 89 88  1  0
 91 89  1  0
 91 92  1  0
 91 90  1  0
 93 96  1  1
 93 94  1  0
 95 93  1  0
M  ISO  4  12 100  20 100  55 101  56 101
M  END
>  <TORSDO>  (84) 
F 31

>  <SCORE>  (84) 
-10.329

>  <name>  (84) 
89

>  <ligand_id>  (84) 
89

>  <original_smiles>  (84) 
[H]C(=NC([H])([H])C([H])([H])OC([H])([H])C([H])([H])C([H])([H])C([H])([H])Oc1c([H])c([H])c2c(c1[H])C([H])([H])N(C(=O)C([H])(N([H])C(=O)C([H])(N([H])C([H])([H])[H])C([H])([H])[H])C(C([H])([H])[H])(C([H])([H])[H])C([H])([H])[H])C([H])(C(=O)N([H])C1([H])c3c([H])c([H])c([H])c([H])c3C([H])([H])C([H])([H])C1([H])[H])C2([H])[H])C([H])([H])OC([H])([H])C([H])([H])OC([H])([H])C([H])([H])C([H])([H])N([H])C(=O)N1C([H])([H])C([H])([H])C([H])([H])C([H])(n2nc(-c3c([H])c([H])c(Oc4c([H])c([H])c(F)c([H])c4F)c([H])c3[H])c(C(=O)N([H])[H])c2N([H])[H])C1([H])[H]

>  <smiles>  (84) 
[H]C(=NC([H])([H])C([H])([H])OC([H])([H])C([H])([H])C([H])([H])C([H])([H])Oc1c([H])c([H])c2c(c1[H])C([H])([H])N(C(=O)C([H])(N([H])C(=O)C([H])(N([H])C([H])([H])[H])C([H])([H])[H])C(C([H])([H])[H])(C([H])([H])[H])C([H])([H])[H])C([H])(C(=O)N([H])C1([H])c3c([H])c([H])c([H])c([H])c3C([H])([H])C([H])([H])C1([H])[H])C2([H])[H])C([H])([H])OC([H])([H])C([H])([H])OC([H])([H])C([H])([H])C([H])([H])N([H])C(=O)N1C([H])([H])C([H])([H])C([H])([H])C([H])(n2nc(-c3c([H])c([H])c(Oc4c([H])c([H])c(F)c([H])c4F)c([H])c3[H])c(C(=O)N([H])[H])c2N([H])[H])C1([H])[H]

$$$$
90:0:0
     RDKit          3D

 98105  0  0  1  0  0  0  0  0999 V2000
  -28.1590  -19.7470   21.0210 C   0  0  0  0  0  2  0  0  0  0  0  0
  -29.0470  -17.4130   20.8750 C   0  0  0  0  0  0  0  0  0  0  0  0
  -29.0530  -18.7030   20.5320 N   0  0  0  0  0  0  0  0  0  0  0  0
  -28.1320  -16.8970   21.5180 O   0  0  0  0  0  0  0  0  0  0  0  0
  -29.8300  -19.0440   19.9790 H   0  0  0  0  0  0  0  0  0  0  0  0
  -30.2690  -16.5910   20.4280 C   0  0  0  0  0  3  0  0  0  0  0  0
  -30.6540  -14.2580   19.8330 C   0  0  0  0  0  0  0  0  0  0  0  0
  -30.3090  -12.1200   18.6730 C   0  0  0  0  0  2  0  0  0  0  0  0
  -29.2990  -12.3690   17.5330 C   0  0  0  0  0  2  0  0  0  0  0  0
  -27.8500  -12.2350   18.0480 C   0  0  0  0  0  2  0  0  0  0  0  0
  -27.5950  -13.0540   19.3440 C   0  0  0  0  0  3  0  0  0  0  0  0
  -28.7070  -12.7690   20.3720 C   0  0  0  0  0  2  0  0  0  0  0  0
  -30.0040  -13.0760   19.7490 N   0  0  0  0  0  0  0  0  0  0  0  0
  -31.6450  -14.5330   19.1480 O   0  0  0  0  0  0  0  0  0  0  0  0
  -30.0760  -15.1620   20.6260 N   0  0  0  0  0  0  0  0  0  0  0  0
  -29.2630  -14.8940   21.1590 H   0  0  0  0  0  0  0  0  0  0  0  0
  -25.2310  -13.6670   20.1650 C   0  0  0  0  0  0  0  0  0  0  0  0
  -24.2050  -12.8980   20.6370 C   0  0  0  0  0  0  0  0  0  0  0  0
  -24.6810  -11.5490   20.6190 C   0  0  0  0  0  0  0  0  0  0  0  0
  -26.2720  -12.7880   19.9010 N   0  0  0  0  0  0  0  0  0  0  0  0
  -25.9490  -11.5120   20.2300 N   0  0  0  0  0  0  0  0  0  0  0  0
  -23.9870  -10.2870   20.8980 C   0  0  0  0  0  0  0  0  0  0  0  0
  -24.4460   -9.3970   21.8930 C   0  0  0  0  0  3  0  0  0  0  0  0
  -23.7560   -8.1940   22.1550 C   0  0  0  0  0  3  0  0  0  0  0  0
  -22.5880   -7.8730   21.4250 C   0  0  0  0  0  0  0  0  0  0  0  0
  -22.1480   -8.7500   20.4130 C   0  0  0  0  0  3  0  0  0  0  0  0
  -22.8410   -9.9440   20.1520 C   0  0  0  0  0  3  0  0  0  0  0  0
  -21.8670   -6.7160   21.5960 O   0  0  0  0  0  0  0  0  0  0  0  0
  -21.7870   -6.0890   22.8130 C   0  0  0  0  0  0  0  0  0  0  0  0
  -21.2890   -6.7440   23.9610 C   0  0  0  0  0  3  0  0  0  0  0  0
  -21.1610   -6.0350   25.1720 C   0  0  0  0  0  3  0  0  0  0  0  0
  -21.5160   -4.6750   25.2390 C   0  0  0  0  0  0  0  0  0  0  0  0
  -22.0010   -4.0210   24.0930 C   0  0  0  0  0  3  0  0  0  0  0  0
  -22.1340   -4.7250   22.8840 C   0  0  0  0  0  0  0  0  0  0  0  0
  -22.5830   -4.0840   21.7780 F   0  0  0  0  0  0  0  0  0  0  0  0
  -21.3850   -3.9940   26.4010 F   0  0  0  0  0  0  0  0  0  0  0  0
  -22.8230  -13.3630   20.9900 C   0  0  0  0  0  0  0  0  0  0  0  0
  -22.1660  -12.7060   21.9360 N   0  0  0  0  0  0  0  0  0  0  0  0
  -22.3320  -14.3530   20.4500 O   0  0  0  0  0  0  0  0  0  0  0  0
  -22.5720  -11.9170   22.4160 H   0  0  0  0  0  0  0  0  0  0  0  0
  -21.2400  -13.0070   22.1970 H   0  0  0  0  0  0  0  0  0  0  0  0
  -25.3670  -15.0350   19.9300 N   0  0  0  0  0  0  0  0  0  0  0  0
  -24.6030  -15.6870   20.0740 H   0  0  0  0  0  0  0  0  0  0  0  0
  -26.2000  -15.4740   19.5610 H   0  0  0  0  0  0  0  0  0  0  0  0
  -31.6850  -17.0530   20.8990 C   0  0  0  0  0  3  0  0  0  0  0  0
  -31.7460  -17.2240   22.3100 O   0  0  0  0  0  0  0  0  0  0  0  0
  -31.1610  -17.9370   22.5630 H   0  0  0  0  0  0  0  0  0  0  0  0
  -32.2740  -18.2700   18.6770 C   0  0  0  0  0  1  0  0  0  0  0  0
  -32.1800  -18.3450   20.2140 C   0  0  0  0  0  2  0  0  0  0  0  0
  -28.9750  -21.0390   21.1550 C   0  0  0  0  0  2  0  0  0  0  0  0
  -30.0040  -21.1180   20.1640 O   0  0  0  0  0  0  0  0  0  0  0  0
  -31.1890  -21.7820   20.6280 C   0  0  0  0  0  2  0  0  0  0  0  0
  -30.9960  -23.2790   20.9150 C   0  0  0  0  0  2  0  0  0  0  0  0
  -31.0550  -23.9590   19.6730 O   0  0  0  0  0  0  0  0  0  0  0  0
  -31.3470  -25.3400   19.7780 C   0  0  0  0  0  2  0  0  0  0  0  0
  -30.4660  -26.0520   18.7190 C   0  0  0  0  0  2  0  0  0  0  0  0
  -28.9280  -25.9730   18.9180 C   0  0  0  0  0  2  0  0  0  0  0  0
  -28.6100  -26.7700   20.0590 O   0  0  0  0  0  0  0  0  0  0  0  0
  -24.6180  -31.7440   23.1790 C   0  0  0  0  0  0  0  0  0  0  0  0
  -27.4000  -27.4200   20.0710 C   0  0  0  0  0  0  0  0  0  0  0  0
  -23.4550  -30.3220   21.5200 C   0  0  0  0  0  3  0  0  0  0  0  0
  -24.9550  -28.8310   20.0910 C   0  0  0  0  0  0  0  0  0  0  0  0
  -25.9610  -30.7680   21.3050 C   0  0  0  0  0  2  0  0  0  0  0  0
  -26.0880  -29.3960   20.6830 C   0  0  0  0  0  0  0  0  0  0  0  0
  -27.3100  -28.6880   20.6840 C   0  0  0  0  0  3  0  0  0  0  0  0
  -26.2380  -26.8480   19.5070 C   0  0  0  0  0  3  0  0  0  0  0  0
  -25.0180  -27.5550   19.5120 C   0  0  0  0  0  3  0  0  0  0  0  0
  -23.6800  -29.6430   20.1390 C   0  0  0  0  0  2  0  0  0  0  0  0
  -24.7000  -30.9610   22.0630 N   0  0  0  0  0  0  0  0  0  0  0  0
  -23.5280  -31.9770   23.7220 O   0  0  0  0  0  0  0  0  0  0  0  0
  -22.8270  -29.2780   22.4740 C   0  0  0  0  0  0  0  0  0  0  0  0
  -21.5130  -29.0480   22.3140 N   0  0  0  0  0  0  0  0  0  0  0  0
  -23.5170  -28.6670   23.2960 O   0  0  0  0  0  0  0  0  0  0  0  0
  -21.0250  -29.5890   21.6150 H   0  0  0  0  0  0  0  0  0  0  0  0
  -18.1800  -27.7170   22.7120 C   0  0  0  0  0  0  0  0  0  0  0  0
  -20.7160  -28.0770   23.0580 C   0  0  0  0  0  3  0  0  0  0  0  0
  -20.8960  -26.6570   22.4810 C   0  0  0  0  0  2  0  0  0  0  0  0
  -19.8370  -26.2890   21.4380 C   0  0  0  0  0  2  0  0  0  0  0  0
  -18.4310  -26.3780   22.0410 C   0  0  0  0  0  2  0  0  0  0  0  0
  -19.2550  -28.5210   23.1750 C   0  0  0  0  0  0  0  0  0  0  0  0
  -18.9720  -29.7730   23.7560 C   0  0  0  0  0  3  0  0  0  0  0  0
  -17.6440  -30.2280   23.8850 C   0  0  0  0  0  3  0  0  0  0  0  0
  -16.5820  -29.4180   23.4430 C   0  0  0  0  0  3  0  0  0  0  0  0
  -16.8500  -28.1660   22.8620 C   0  0  0  0  0  3  0  0  0  0  0  0
  -25.8840  -32.3960   23.8200 C   0  0  0  0  0  3  0  0  0  0  0  0
  -25.5480  -33.7870   24.1520 N   0  0  0  0  0  0  0  0  0  0  0  0
  -25.8690  -34.8470   23.4020 C   0  0  0  0  0  0  0  0  0  0  0  0
  -26.5620  -34.7600   22.3820 O   0  0  0  0  0  0  0  0  0  0  0  0
  -24.9390  -33.9320   24.9450 H   0  0  0  0  0  0  0  0  0  0  0  0
  -24.1130  -36.6080   23.0300 C   0  0  0  0  0  1  0  0  0  0  0  0
  -25.3460  -36.2220   23.8590 C   0  0  0  0  0  3  0  0  0  0  0  0
  -27.4470  -37.1440   24.7320 C   0  0  0  0  0  1  0  0  0  0  0  0
  -26.3570  -37.2960   23.7710 N   0  0  0  0  0  0  0  0  0  0  0  0
  -25.9320  -38.2080   23.9180 H   0  0  0  0  0  0  0  0  0  0  0  0
  -26.4010  -31.6260   25.0950 C   0  0  1  0  0  0  0  0  0  0  0  0
  -25.3010  -31.3540   26.1490 C   0  0  0  0  0  1  0  0  0  0  0  0
  -27.0180  -30.2690   24.6820 C   0  0  0  0  0  1  0  0  0  0  0  0
  -27.5300  -32.4390   25.7770 C   0  0  0  0  0  1  0  0  0  0  0  0
  1 50  1  0
  2  4  2  0
  3  2  1  0
  3  1  1  0
  5  3  1  0
  6 15  1  0
  6  2  1  0
  6 45  1  0
  7 15  1  0
  8 13  1  0
  9 10  1  0
  9  8  1  0
 11 10  1  0
 11 20  1  0
 11 12  1  0
 13  7  1  0
 13 12  1  0
 14  7  2  0
 15 16  1  0
 17 18  2  0
 18 37  1  0
 19 18  1  0
 19 22  1  0
 20 17  1  0
 20 21  1  0
 21 19  2  0
 22 23  1  0
 23 24  2  0
 25 28  1  0
 25 24  1  0
 26 25  2  0
 27 26  1  0
 27 22  2  0
 28 29  1  0
 29 34  2  0
 29 30  1  0
 30 31  2  0
 31 32  1  0
 32 36  1  0
 33 32  2  0
 34 33  1  0
 35 34  1  0
 37 38  1  0
 38 41  1  0
 38 40  1  0
 39 37  2  0
 42 43  1  0
 42 17  1  0
 44 42  1  0
 45 49  1  0
 45 46  1  0
 46 47  1  0
 48 49  1  0
 51 52  1  0
 51 50  1  0
 52 53  1  0
 54 55  1  0
 54 53  1  0
 56 57  1  0
 56 55  1  0
 57 58  1  0
 58 60  1  0
 59 70  2  0
 60 65  1  0
 61 69  1  0
 61 71  1  0
 62 68  1  0
 62 64  1  0
 63 69  1  0
 64 65  2  0
 64 63  1  0
 66 67  1  0
 66 60  2  0
 67 62  2  0
 68 61  1  0
 69 59  1  0
 71 73  2  0
 72 71  1  0
 74 72  1  0
 75 84  2  0
 75 80  1  0
 76 72  1  0
 76 80  1  0
 77 76  1  0
 78 79  1  0
 78 77  1  0
 79 75  1  0
 80 81  2  0
 81 82  1  0
 83 82  2  0
 84 83  1  0
 85 59  1  0
 85 86  1  0
 85 95  1  0
 86 89  1  0
 87 91  1  0
 87 86  1  0
 88 87  2  0
 91 90  1  0
 93 91  1  0
 93 94  1  0
 93 92  1  0
 95 98  1  1
 95 96  1  0
 97 95  1  0
M  ISO  4   7 100  15 100  57 101  58 101
M  END
>  <TORSDO>  (85) 
F 29

>  <SCORE>  (85) 
-9.603

>  <name>  (85) 
90

>  <ligand_id>  (85) 
90

>  <original_smiles>  (85) 
[H]OC([H])(C([H])(C(=O)N([H])C([H])([H])C([H])([H])OC([H])([H])C([H])([H])OC([H])([H])C([H])([H])C([H])([H])Oc1c([H])c([H])c2c(c1[H])C([H])([H])N(C(=O)C([H])(N([H])C(=O)C([H])(N([H])C([H])([H])[H])C([H])([H])[H])C(C([H])([H])[H])(C([H])([H])[H])C([H])([H])[H])C([H])(C(=O)N([H])C1([H])c3c([H])c([H])c([H])c([H])c3C([H])([H])C([H])([H])C1([H])[H])C2([H])[H])N([H])C(=O)N1C([H])([H])C([H])([H])C([H])([H])C([H])(n2nc(-c3c([H])c([H])c(Oc4c([H])c([H])c(F)c([H])c4F)c([H])c3[H])c(C(=O)N([H])[H])c2N([H])[H])C1([H])[H])C([H])([H])C([H])([H])[H]

>  <smiles>  (85) 
[H]OC([H])(C([H])(C(=O)N([H])C([H])([H])C([H])([H])OC([H])([H])C([H])([H])OC([H])([H])C([H])([H])C([H])([H])Oc1c([H])c([H])c2c(c1[H])C([H])([H])N(C(=O)C([H])(N([H])C(=O)C([H])(N([H])C([H])([H])[H])C([H])([H])[H])C(C([H])([H])[H])(C([H])([H])[H])C([H])([H])[H])C([H])(C(=O)N([H])C1([H])c3c([H])c([H])c([H])c([H])c3C([H])([H])C([H])([H])C1([H])[H])C2([H])[H])N([H])C(=O)N1C([H])([H])C([H])([H])C([H])([H])C([H])(n2nc(-c3c([H])c([H])c(Oc4c([H])c([H])c(F)c([H])c4F)c([H])c3[H])c(C(=O)N([H])[H])c2N([H])[H])C1([H])[H])C([H])([H])C([H])([H])[H]

$$$$
91:0:0
     RDKit          3D

105112  0  0  1  0  0  0  0  0999 V2000
  -22.6540  -25.1390   16.4550 C   0  0  0  0  0  2  0  0  0  0  0  0
  -23.0030  -24.8140   17.7970 O   0  0  0  0  0  0  0  0  0  0  0  0
  -21.8700  -24.4160   18.5700 C   0  0  0  0  0  2  0  0  0  0  0  0
  -22.2210  -24.5360   20.0600 C   0  0  0  0  0  2  0  0  0  0  0  0
  -23.4660  -23.8090   20.3850 N   0  0  0  0  0  4  0  0  0  0  0  0
  -24.1780  -24.1170   19.7360 H   0  0  0  0  0  0  0  0  0  0  0  0
  -23.3270  -22.8200   20.2450 H   0  0  0  0  0  0  0  0  0  0  0  0
  -23.9870  -24.0490   21.7500 C   0  0  0  0  0  2  0  0  0  0  0  0
  -25.4600  -23.6250   21.8480 C   0  0  0  0  0  2  0  0  0  0  0  0
  -26.1450  -24.3510   20.8350 O   0  0  0  0  0  0  0  0  0  0  0  0
  -27.5640  -24.3170   20.9290 C   0  0  0  0  0  2  0  0  0  0  0  0
  -28.1910  -25.2240   19.8430 C   0  0  0  0  0  2  0  0  0  0  0  0
  -28.1880  -26.6150   20.1900 O   0  0  0  0  0  0  0  0  0  0  0  0
  -24.5080  -31.8520   23.2690 C   0  0  0  0  0  0  0  0  0  0  0  0
  -27.0090  -27.3310   20.1750 C   0  0  0  0  0  0  0  0  0  0  0  0
  -23.2430  -30.4470   21.6770 C   0  0  0  0  0  3  0  0  0  0  0  0
  -24.6370  -28.8740   20.2320 C   0  0  0  0  0  0  0  0  0  0  0  0
  -25.7700  -30.7560   21.4250 C   0  0  0  0  0  2  0  0  0  0  0  0
  -25.8130  -29.3800   20.7960 C   0  0  0  0  0  0  0  0  0  0  0  0
  -26.9970  -28.6110   20.7760 C   0  0  0  0  0  3  0  0  0  0  0  0
  -25.8180  -26.8550   19.5790 C   0  0  0  0  0  3  0  0  0  0  0  0
  -24.6350  -27.6070   19.6250 C   0  0  0  0  0  3  0  0  0  0  0  0
  -23.4040  -29.7460   20.3010 C   0  0  0  0  0  2  0  0  0  0  0  0
  -24.5270  -31.0330   22.1800 N   0  0  0  0  0  0  0  0  0  0  0  0
  -23.4430  -32.1480   23.8280 O   0  0  0  0  0  0  0  0  0  0  0  0
  -22.6010  -29.4470   22.6660 C   0  0  0  0  0  0  0  0  0  0  0  0
  -21.2780  -29.2530   22.5430 N   0  0  0  0  0  0  0  0  0  0  0  0
  -23.2890  -28.8440   23.4940 O   0  0  0  0  0  0  0  0  0  0  0  0
  -20.7780  -29.8040   21.8590 H   0  0  0  0  0  0  0  0  0  0  0  0
  -17.9190  -28.0270   23.0400 C   0  0  0  0  0  0  0  0  0  0  0  0
  -20.4690  -28.3280   23.3320 C   0  0  0  0  0  3  0  0  0  0  0  0
  -20.6000  -26.8790   22.8070 C   0  0  0  0  0  2  0  0  0  0  0  0
  -19.5120  -26.5060   21.7950 C   0  0  0  0  0  2  0  0  0  0  0  0
  -18.1220  -26.6550   22.4220 C   0  0  0  0  0  2  0  0  0  0  0  0
  -19.0230  -28.8190   23.4540 C   0  0  0  0  0  0  0  0  0  0  0  0
  -18.7820  -30.1000   23.9940 C   0  0  0  0  0  3  0  0  0  0  0  0
  -17.4700  -30.5920   24.1200 C   0  0  0  0  0  3  0  0  0  0  0  0
  -16.3800  -29.7960   23.7300 C   0  0  0  0  0  3  0  0  0  0  0  0
  -16.6060  -28.5160   23.1950 C   0  0  0  0  0  3  0  0  0  0  0  0
  -25.8190  -32.4690   23.8500 C   0  0  0  0  0  3  0  0  0  0  0  0
  -25.5530  -33.8850   24.1350 N   0  0  0  0  0  0  0  0  0  0  0  0
  -25.8990  -34.9000   23.3340 C   0  0  0  0  0  0  0  0  0  0  0  0
  -26.5500  -34.7430   22.2970 O   0  0  0  0  0  0  0  0  0  0  0  0
  -24.9810  -34.0890   24.9410 H   0  0  0  0  0  0  0  0  0  0  0  0
  -24.2070  -36.7180   22.9440 C   0  0  0  0  0  1  0  0  0  0  0  0
  -25.4520  -36.3140   23.7510 C   0  0  0  0  0  3  0  0  0  0  0  0
  -27.6200  -37.1780   24.5170 C   0  0  0  0  0  1  0  0  0  0  0  0
  -26.5070  -37.3380   23.5850 N   0  0  0  0  0  0  0  0  0  0  0  0
  -26.1240  -38.2740   23.7030 H   0  0  0  0  0  0  0  0  0  0  0  0
  -26.3400  -31.7280   25.1410 C   0  0  1  0  0  0  0  0  0  0  0  0
  -25.2590  -31.5470   26.2320 C   0  0  0  0  0  1  0  0  0  0  0  0
  -26.8940  -30.3280   24.7860 C   0  0  0  0  0  1  0  0  0  0  0  0
  -27.5160  -32.5190   25.7620 C   0  0  0  0  0  1  0  0  0  0  0  0
  -23.8870  -25.5390   15.6220 C   0  0  0  0  0  2  0  0  0  0  0  0
  -24.6630  -24.3700   14.9680 C   0  0  0  0  0  2  0  0  0  0  0  0
  -25.8340  -23.9090   15.7440 N   0  0  0  0  0  4  0  0  0  0  0  0
  -26.3940  -23.3380   15.1290 H   0  0  0  0  0  0  0  0  0  0  0  0
  -26.3980  -24.7050   15.9950 H   0  0  0  0  0  0  0  0  0  0  0  0
  -25.5330  -23.1060   16.9460 C   0  0  0  0  0  2  0  0  0  0  0  0
  -26.8240  -22.6880   17.6690 C   0  0  0  0  0  2  0  0  0  0  0  0
  -26.6010  -21.5890   18.7100 C   0  0  0  0  0  2  0  0  0  0  0  0
  -27.8640  -21.2260   19.2430 O   0  0  0  0  0  0  0  0  0  0  0  0
  -27.8090  -20.0560   20.0410 C   0  0  0  0  0  2  0  0  0  0  0  0
  -29.2410  -19.7100   20.4590 C   0  0  0  0  0  2  0  0  0  0  0  0
  -29.3410  -18.4070   21.2640 C   0  0  0  0  0  2  0  0  0  0  0  0
  -30.8020  -18.0530   21.5850 C   0  0  0  0  0  2  0  0  0  0  0  0
  -30.9770  -16.7960   22.4590 C   0  0  0  0  0  2  0  0  0  0  0  0
  -30.8650  -14.9010   20.8360 C   0  0  0  0  0  0  0  0  0  0  0  0
  -30.5360  -12.9550   19.3590 C   0  0  0  0  0  2  0  0  0  0  0  0
  -29.6250  -13.3080   18.1670 C   0  0  0  0  0  2  0  0  0  0  0  0
  -28.1440  -13.1210   18.5440 C   0  0  0  0  0  2  0  0  0  0  0  0
  -27.7780  -13.8210   19.8780 C   0  0  0  0  0  3  0  0  0  0  0  0
  -28.7960  -13.4620   20.9820 C   0  0  0  0  0  2  0  0  0  0  0  0
  -30.1490  -13.7990   20.4980 N   0  0  0  0  0  0  0  0  0  0  0  0
  -31.9060  -15.2410   20.2630 O   0  0  0  0  0  0  0  0  0  0  0  0
  -30.3800  -15.6000   21.8700 N   0  0  0  0  0  0  0  0  0  0  0  0
  -29.5430  -15.2390   22.3030 H   0  0  0  0  0  0  0  0  0  0  0  0
  -25.3180  -14.3500   20.4370 C   0  0  0  0  0  0  0  0  0  0  0  0
  -24.2630  -13.5440   20.7650 C   0  0  0  0  0  0  0  0  0  0  0  0
  -24.7760  -12.2110   20.7940 C   0  0  0  0  0  0  0  0  0  0  0  0
  -26.4090  -13.5070   20.2860 N   0  0  0  0  0  0  0  0  0  0  0  0
  -26.0810  -12.2170   20.5550 N   0  0  0  0  0  0  0  0  0  0  0  0
  -24.0900  -10.9260   20.9760 C   0  0  0  0  0  0  0  0  0  0  0  0
  -24.4850  -10.0140   21.9800 C   0  0  0  0  0  3  0  0  0  0  0  0
  -23.8000   -8.7920   22.1480 C   0  0  0  0  0  3  0  0  0  0  0  0
  -22.7050   -8.4720   21.3110 C   0  0  0  0  0  0  0  0  0  0  0  0
  -22.3300   -9.3730   20.2980 C   0  0  0  0  0  3  0  0  0  0  0  0
  -23.0160  -10.5870   20.1290 C   0  0  0  0  0  3  0  0  0  0  0  0
  -21.9960   -7.2970   21.3830 O   0  0  0  0  0  0  0  0  0  0  0  0
  -21.8470   -6.6180   22.5660 C   0  0  0  0  0  0  0  0  0  0  0  0
  -21.2630   -7.2210   23.7020 C   0  0  0  0  0  3  0  0  0  0  0  0
  -21.0660   -6.4650   24.8760 C   0  0  0  0  0  3  0  0  0  0  0  0
  -21.4420   -5.1090   24.9130 C   0  0  0  0  0  0  0  0  0  0  0  0
  -22.0180   -4.5060   23.7800 C   0  0  0  0  0  3  0  0  0  0  0  0
  -22.2170   -5.2590   22.6100 C   0  0  0  0  0  0  0  0  0  0  0  0
  -22.7530   -4.6680   21.5140 F   0  0  0  0  0  0  0  0  0  0  0  0
  -21.2450   -4.3810   26.0360 F   0  0  0  0  0  0  0  0  0  0  0  0
  -22.8340  -13.9700   20.9530 C   0  0  0  0  0  0  0  0  0  0  0  0
  -22.0910  -13.2700   21.8030 N   0  0  0  0  0  0  0  0  0  0  0  0
  -22.3830  -14.9620   20.3810 O   0  0  0  0  0  0  0  0  0  0  0  0
  -22.4670  -12.4680   22.2880 H   0  0  0  0  0  0  0  0  0  0  0  0
  -21.1320  -13.5380   21.9710 H   0  0  0  0  0  0  0  0  0  0  0  0
  -25.4400  -15.7230   20.2350 N   0  0  0  0  0  0  0  0  0  0  0  0
  -24.6450  -16.3500   20.2950 H   0  0  0  0  0  0  0  0  0  0  0  0
  -26.2970  -16.1870   19.9630 H   0  0  0  0  0  0  0  0  0  0  0  0
  1  2  1  0
  2  3  1  0
  3  4  1  0
  4  5  1  0
  5  8  1  0
  6  5  1  0
  7  5  1  0
  8  9  1  0
 10 11  1  0
 10  9  1  0
 12 13  1  0
 12 11  1  0
 14 25  2  0
 15 13  1  0
 15 20  1  0
 16 24  1  0
 16 26  1  0
 17 23  1  0
 17 19  1  0
 18 24  1  0
 19 18  1  0
 20 19  2  0
 21 22  1  0
 21 15  2  0
 22 17  2  0
 23 16  1  0
 24 14  1  0
 26 28  2  0
 27 26  1  0
 29 27  1  0
 30 39  2  0
 30 35  1  0
 31 27  1  0
 31 35  1  0
 32 31  1  0
 33 34  1  0
 33 32  1  0
 34 30  1  0
 35 36  2  0
 36 37  1  0
 38 37  2  0
 39 38  1  0
 40 14  1  0
 40 41  1  0
 40 50  1  0
 41 44  1  0
 42 46  1  0
 42 41  1  0
 43 42  2  0
 46 45  1  0
 48 49  1  0
 48 46  1  0
 48 47  1  0
 50 53  1  1
 50 51  1  0
 52 50  1  0
 54  1  1  0
 55 54  1  0
 55 56  1  0
 56 58  1  0
 56 59  1  0
 57 56  1  0
 59 60  1  0
 60 61  1  0
 61 62  1  0
 62 63  1  0
 63 64  1  0
 64 65  1  0
 65 66  1  0
 66 67  1  0
 68 76  1  0
 69 74  1  0
 70 71  1  0
 70 69  1  0
 72 71  1  0
 72 81  1  0
 72 73  1  0
 74 68  1  0
 74 73  1  0
 75 68  2  0
 76 77  1  0
 76 67  1  0
 78 79  2  0
 79 80  1  0
 79 98  1  0
 80 83  1  0
 81 78  1  0
 81 82  1  0
 82 80  2  0
 83 84  1  0
 84 85  2  0
 86 89  1  0
 86 85  1  0
 87 86  2  0
 88 87  1  0
 88 83  2  0
 89 90  1  0
 90 95  2  0
 90 91  1  0
 91 92  2  0
 92 93  1  0
 93 97  1  0
 94 93  2  0
 95 94  1  0
 96 95  1  0
 98 99  1  0
 99102  1  0
 99101  1  0
100 98  2  0
103104  1  0
103 78  1  0
105103  1  0
M  ISO  4  12 101  13 101  68 100  76 100
M  END
>  <TORSDO>  (86) 
F 37

>  <SCORE>  (86) 
-8.054

>  <name>  (86) 
91

>  <ligand_id>  (86) 
91

>  <original_smiles>  (86) 
[H]c1c([H])c([H])c2c(c1[H])C([H])([H])C([H])([H])C([H])([H])C2([H])N([H])C(=O)C1([H])N(C(=O)C([H])(N([H])C(=O)C([H])(N([H])C([H])([H])[H])C([H])([H])[H])C(C([H])([H])[H])(C([H])([H])[H])C([H])([H])[H])C([H])([H])c2c([H])c(OC([H])([H])C([H])([H])OC([H])([H])C([H])([H])[N+]([H])([H])C([H])([H])C([H])([H])OC([H])([H])C([H])([H])C([H])([H])[N+]([H])([H])C([H])([H])C([H])([H])C([H])([H])OC([H])([H])C([H])([H])C([H])([H])C([H])([H])C([H])([H])N([H])C(=O)N3C([H])([H])C([H])([H])C([H])([H])C([H])(n4nc(-c5c([H])c([H])c(Oc6c([H])c([H])c(F)c([H])c6F)c([H])c5[H])c(C(=O)N([H])[H])c4N([H])[H])C3([H])[H])c([H])c([H])c2C1([H])[H]

>  <smiles>  (86) 
[H]c1c([H])c([H])c2c(c1[H])C([H])([H])C([H])([H])C([H])([H])C2([H])N([H])C(=O)C1([H])N(C(=O)C([H])(N([H])C(=O)C([H])(N([H])C([H])([H])[H])C([H])([H])[H])C(C([H])([H])[H])(C([H])([H])[H])C([H])([H])[H])C([H])([H])c2c([H])c(OC([H])([H])C([H])([H])OC([H])([H])C([H])([H])[N+]([H])([H])C([H])([H])C([H])([H])OC([H])([H])C([H])([H])C([H])([H])[N+]([H])([H])C([H])([H])C([H])([H])C([H])([H])OC([H])([H])C([H])([H])C([H])([H])C([H])([H])C([H])([H])N([H])C(=O)N3C([H])([H])C([H])([H])C([H])([H])C([H])(n4nc(-c5c([H])c([H])c(Oc6c([H])c([H])c(F)c([H])c6F)c([H])c5[H])c(C(=O)N([H])[H])c4N([H])[H])C3([H])[H])c([H])c([H])c2C1([H])[H]

$$$$
92:0:0
     RDKit          3D

110117  0  0  1  0  0  0  0  0999 V2000
  -26.7430  -19.3560   20.1990 C   0  0  0  0  0  3  0  0  0  0  0  0
  -26.2470  -19.8150   19.0400 C   0  0  0  0  0  3  0  0  0  0  0  0
  -25.3810  -20.9750   19.0610 C   0  0  0  0  0  0  0  0  0  0  0  0
  -25.0490  -21.3980   17.8520 N   0  0  0  0  0  0  0  0  0  0  0  0
  -25.0300  -21.5740   20.0810 O   0  0  0  0  0  0  0  0  0  0  0  0
  -25.4030  -20.8980   17.0490 H   0  0  0  0  0  0  0  0  0  0  0  0
  -24.4530  -22.7010   17.5860 C   0  0  0  0  0  2  0  0  0  0  0  0
  -25.5640  -23.7420   17.3970 C   0  0  0  0  0  2  0  0  0  0  0  0
  -26.5680  -23.1200   16.6090 O   0  0  0  0  0  0  0  0  0  0  0  0
  -27.7400  -23.9000   16.4750 C   0  0  0  0  0  2  0  0  0  0  0  0
  -28.7430  -23.1320   15.6100 C   0  0  0  0  0  2  0  0  0  0  0  0
  -29.3930  -22.1480   16.3960 O   0  0  0  0  0  0  0  0  0  0  0  0
  -30.4030  -21.4370   15.7150 C   0  0  0  0  0  2  0  0  0  0  0  0
  -31.3500  -20.7850   16.7150 C   0  0  0  0  0  2  0  0  0  0  0  0
  -30.7950  -19.5640   17.1750 O   0  0  0  0  0  0  0  0  0  0  0  0
  -31.4860  -19.0140   18.2870 C   0  0  0  0  0  2  0  0  0  0  0  0
  -30.9900  -17.5780   18.5160 C   0  0  0  0  0  2  0  0  0  0  0  0
  -31.6230  -16.8860   19.7420 C   0  0  0  0  0  2  0  0  0  0  0  0
  -31.6800  -14.4070   19.3880 C   0  0  0  0  0  0  0  0  0  0  0  0
  -31.2350  -12.0530   18.7920 C   0  0  0  0  0  2  0  0  0  0  0  0
  -30.1420  -11.9940   17.7010 C   0  0  0  0  0  2  0  0  0  0  0  0
  -28.7360  -11.9910   18.3420 C   0  0  0  0  0  2  0  0  0  0  0  0
  -28.5600  -13.1110   19.4050 C   0  0  0  0  0  3  0  0  0  0  0  0
  -29.7540  -13.1260   20.3890 C   0  0  0  0  0  2  0  0  0  0  0  0
  -30.9930  -13.2570   19.6040 N   0  0  0  0  0  0  0  0  0  0  0  0
  -32.6750  -14.4670   18.6610 O   0  0  0  0  0  0  0  0  0  0  0  0
  -31.1530  -15.5100   19.9290 N   0  0  0  0  0  0  0  0  0  0  0  0
  -30.3260  -15.3770   20.4900 H   0  0  0  0  0  0  0  0  0  0  0  0
  -26.5210  -13.9530   20.7430 C   0  0  0  0  0  0  0  0  0  0  0  0
  -25.3820  -13.3230   21.1630 C   0  0  0  0  0  0  0  0  0  0  0  0
  -25.5020  -11.9650   20.7360 C   0  0  0  0  0  0  0  0  0  0  0  0
  -27.2810  -12.9870   20.1000 N   0  0  0  0  0  0  0  0  0  0  0  0
  -26.6770  -11.7730   20.1500 N   0  0  0  0  0  0  0  0  0  0  0  0
  -24.5460  -10.8540   20.8100 C   0  0  0  0  0  0  0  0  0  0  0  0
  -24.8480   -9.6640   21.5060 C   0  0  0  0  0  3  0  0  0  0  0  0
  -23.9030   -8.6170   21.5770 C   0  0  0  0  0  3  0  0  0  0  0  0
  -22.6370   -8.7610   20.9540 C   0  0  0  0  0  0  0  0  0  0  0  0
  -22.3550   -9.9360   20.2400 C   0  0  0  0  0  3  0  0  0  0  0  0
  -23.2960  -10.9760   20.1680 C   0  0  0  0  0  3  0  0  0  0  0  0
  -21.6720   -7.7840   20.9430 O   0  0  0  0  0  0  0  0  0  0  0  0
  -21.5110   -6.9200   21.9960 C   0  0  0  0  0  0  0  0  0  0  0  0
  -21.2340   -7.3810   23.3040 C   0  0  0  0  0  3  0  0  0  0  0  0
  -21.0070   -6.4540   24.3420 C   0  0  0  0  0  3  0  0  0  0  0  0
  -21.0510   -5.0750   24.0740 C   0  0  0  0  0  0  0  0  0  0  0  0
  -21.3170   -4.6120   22.7730 C   0  0  0  0  0  3  0  0  0  0  0  0
  -21.5420   -5.5360   21.7330 C   0  0  0  0  0  0  0  0  0  0  0  0
  -21.7830   -5.0890   20.4780 F   0  0  0  0  0  0  0  0  0  0  0  0
  -20.8220   -4.1840   25.0690 F   0  0  0  0  0  0  0  0  0  0  0  0
  -24.2000  -13.9670   21.8290 C   0  0  0  0  0  0  0  0  0  0  0  0
  -23.5160  -13.2310   22.6980 N   0  0  0  0  0  0  0  0  0  0  0  0
  -23.9180  -15.1460   21.6360 O   0  0  0  0  0  0  0  0  0  0  0  0
  -23.7560  -12.2690   22.8720 H   0  0  0  0  0  0  0  0  0  0  0  0
  -22.7330  -13.6340   23.1870 H   0  0  0  0  0  0  0  0  0  0  0  0
  -26.9750  -15.2640   20.8400 N   0  0  0  0  0  0  0  0  0  0  0  0
  -26.4340  -15.9810   21.3090 H   0  0  0  0  0  0  0  0  0  0  0  0
  -27.8760  -15.5930   20.5220 H   0  0  0  0  0  0  0  0  0  0  0  0
  -27.6800  -18.2590   20.2620 C   0  0  0  0  0  0  0  0  0  0  0  0
  -28.4480  -18.3300   21.3460 N   0  0  0  0  0  0  0  0  0  0  0  0
  -27.7600  -17.3550   19.4450 O   0  0  0  0  0  0  0  0  0  0  0  0
  -28.3190  -19.1300   21.9360 H   0  0  0  0  0  0  0  0  0  0  0  0
  -29.4480  -17.3600   21.7670 C   0  0  0  0  0  2  0  0  0  0  0  0
  -30.4940  -17.9290   22.7300 C   0  0  0  0  0  2  0  0  0  0  0  0
  -31.4610  -18.9200   22.0850 C   0  0  0  0  0  2  0  0  0  0  0  0
  -30.8530  -20.1910   21.9190 O   0  0  0  0  0  0  0  0  0  0  0  0
  -31.7660  -21.2840   21.9020 C   0  0  0  0  0  2  0  0  0  0  0  0
  -31.0740  -22.5480   21.3650 C   0  0  0  0  0  2  0  0  0  0  0  0
  -31.9430  -23.6880   21.3770 O   0  0  0  0  0  0  0  0  0  0  0  0
  -31.6740  -24.7990   20.5310 C   0  0  0  0  0  2  0  0  0  0  0  0
  -30.4150  -25.6000   20.8370 C   0  0  0  0  0  2  0  0  0  0  0  0
  -30.2190  -26.8840   21.3530 O   0  0  0  0  0  0  0  0  0  0  0  0
  -25.3340  -31.2810   23.8690 C   0  0  0  0  0  0  0  0  0  0  0  0
  -28.9330  -27.3810   21.1010 C   0  0  0  0  0  0  0  0  0  0  0  0
  -24.6000  -29.9060   21.9400 C   0  0  0  0  0  3  0  0  0  0  0  0
  -26.4360  -28.6180   20.7400 C   0  0  0  0  0  0  0  0  0  0  0  0
  -27.0740  -30.5090   22.2450 C   0  0  0  0  0  2  0  0  0  0  0  0
  -27.4140  -29.2160   21.5400 C   0  0  0  0  0  0  0  0  0  0  0  0
  -28.6520  -28.5860   21.7370 C   0  0  0  0  0  3  0  0  0  0  0  0
  -27.9320  -26.7740   20.2810 C   0  0  0  0  0  3  0  0  0  0  0  0
  -26.6930  -27.3870   20.0970 C   0  0  0  0  0  3  0  0  0  0  0  0
  -25.1250  -29.3560   20.5880 C   0  0  0  0  0  2  0  0  0  0  0  0
  -25.6720  -30.5740   22.7510 N   0  0  0  0  0  0  0  0  0  0  0  0
  -24.1470  -31.4120   24.2190 O   0  0  0  0  0  0  0  0  0  0  0  0
  -23.8850  -28.7750   22.7090 C   0  0  0  0  0  0  0  0  0  0  0  0
  -22.6020  -28.5250   22.3710 N   0  0  0  0  0  0  0  0  0  0  0  0
  -24.4820  -28.1010   23.5450 O   0  0  0  0  0  0  0  0  0  0  0  0
  -22.1650  -29.1350   21.6980 H   0  0  0  0  0  0  0  0  0  0  0  0
  -19.2710  -27.1320   22.2800 C   0  0  0  0  0  0  0  0  0  0  0  0
  -21.7550  -27.4700   22.9200 C   0  0  0  0  0  3  0  0  0  0  0  0
  -22.0090  -26.1120   22.2220 C   0  0  0  0  0  2  0  0  0  0  0  0
  -21.0710  -25.8580   21.0370 C   0  0  0  0  0  2  0  0  0  0  0  0
  -19.6100  -25.8730   21.4960 C   0  0  0  0  0  2  0  0  0  0  0  0
  -20.2800  -27.8940   22.9220 C   0  0  0  0  0  0  0  0  0  0  0  0
  -19.9220  -29.0820   23.5950 C   0  0  0  0  0  3  0  0  0  0  0  0
  -18.5770  -29.4930   23.6640 C   0  0  0  0  0  3  0  0  0  0  0  0
  -17.5790  -28.7320   23.0260 C   0  0  0  0  0  3  0  0  0  0  0  0
  -17.9330  -27.5670   22.3210 C   0  0  0  0  0  3  0  0  0  0  0  0
  -26.4230  -31.9650   24.7560 C   0  0  0  0  0  3  0  0  0  0  0  0
  -26.0750  -33.3850   24.8590 N   0  0  0  0  0  0  0  0  0  0  0  0
  -26.6570  -34.3780   24.1700 C   0  0  0  0  0  0  0  0  0  0  0  0
  -27.6170  -34.1930   23.4120 O   0  0  0  0  0  0  0  0  0  0  0  0
  -25.2500  -33.5890   25.4050 H   0  0  0  0  0  0  0  0  0  0  0  0
  -25.2130  -36.1720   23.1280 C   0  0  0  0  0  1  0  0  0  0  0  0
  -26.0750  -35.7950   24.3460 C   0  0  0  0  0  3  0  0  0  0  0  0
  -27.8080  -36.7220   25.8150 C   0  0  0  0  0  1  0  0  0  0  0  0
  -27.1090  -36.8330   24.5380 N   0  0  0  0  0  0  0  0  0  0  0  0
  -26.6960  -37.7570   24.4810 H   0  0  0  0  0  0  0  0  0  0  0  0
  -26.5650  -31.3160   26.1900 C   0  0  1  0  0  0  0  0  0  0  0  0
  -25.2240  -31.2220   26.9480 C   0  0  0  0  0  1  0  0  0  0  0  0
  -27.1850  -29.9050   26.0990 C   0  0  0  0  0  1  0  0  0  0  0  0
  -27.5200  -32.1620   27.0580 C   0  0  0  0  0  1  0  0  0  0  0  0
  1 57  1  0
  2  3  1  0
  2  1  2  0
  3  5  2  0
  4  3  1  0
  6  4  1  0
  7  4  1  0
  8  7  1  0
  9  8  1  0
 10  9  1  0
 11 12  1  0
 11 10  1  0
 13 12  1  0
 13 14  1  0
 14 15  1  0
 15 16  1  0
 16 17  1  0
 17 18  1  0
 18 27  1  0
 19 25  1  0
 19 27  1  0
 20 25  1  0
 21 22  1  0
 21 20  1  0
 23 22  1  0
 23 32  1  0
 23 24  1  0
 25 24  1  0
 26 19  2  0
 27 28  1  0
 29 54  1  0
 29 30  2  0
 30 49  1  0
 31 34  1  0
 31 30  1  0
 32 33  1  0
 32 29  1  0
 33 31  2  0
 34 35  1  0
 35 36  2  0
 37 36  1  0
 38 37  2  0
 39 38  1  0
 39 34  2  0
 40 37  1  0
 40 41  1  0
 41 42  1  0
 42 43  2  0
 44 43  1  0
 44 48  1  0
 45 44  2  0
 46 41  2  0
 46 45  1  0
 47 46  1  0
 49 50  1  0
 50 52  1  0
 50 53  1  0
 51 49  2  0
 54 55  1  0
 56 54  1  0
 57 58  1  0
 58 61  1  0
 58 60  1  0
 59 57  2  0
 61 62  1  0
 63 62  1  0
 64 63  1  0
 65 64  1  0
 66 67  1  0
 66 65  1  0
 68 69  1  0
 68 67  1  0
 69 70  1  0
 71 82  2  0
 72 70  1  0
 72 77  1  0
 73 83  1  0
 73 81  1  0
 74 76  1  0
 75 81  1  0
 76 77  2  0
 76 75  1  0
 78 72  2  0
 79 78  1  0
 79 74  2  0
 80 74  1  0
 80 73  1  0
 81 71  1  0
 83 85  2  0
 84 83  1  0
 86 84  1  0
 87 96  2  0
 87 92  1  0
 88 84  1  0
 88 92  1  0
 89 88  1  0
 90 91  1  0
 90 89  1  0
 91 87  1  0
 92 93  2  0
 93 94  1  0
 95 94  2  0
 96 95  1  0
 97 71  1  0
 97 98  1  0
 97107  1  0
 98101  1  0
 99103  1  0
 99 98  1  0
100 99  2  0
103102  1  0
103105  1  0
105104  1  0
106105  1  0
107108  1  1
107110  1  0
109107  1  0
M  ISO  4  19 100  27 100  69 101  70 101
M  END
>  <TORSDO>  (87) 
F 39

>  <SCORE>  (87) 
-2.876

>  <name>  (87) 
92

>  <ligand_id>  (87) 
92

>  <original_smiles>  (87) 
[H]C(C(=O)N([H])C([H])([H])C([H])([H])OC([H])([H])C([H])([H])OC([H])([H])C([H])([H])OC([H])([H])C([H])([H])C([H])([H])N([H])C(=O)N1C([H])([H])C([H])([H])C([H])([H])C([H])(n2nc(-c3c([H])c([H])c(Oc4c([H])c([H])c(F)c([H])c4F)c([H])c3[H])c(C(=O)N([H])[H])c2N([H])[H])C1([H])[H])=C([H])C(=O)N([H])C([H])([H])C([H])([H])C([H])([H])OC([H])([H])C([H])([H])OC([H])([H])C([H])([H])Oc1c([H])c([H])c2c(c1[H])C([H])([H])N(C(=O)C([H])(N([H])C(=O)C([H])(N([H])C([H])([H])[H])C([H])([H])[H])C(C([H])([H])[H])(C([H])([H])[H])C([H])([H])[H])C([H])(C(=O)N([H])C1([H])c3c([H])c([H])c([H])c([H])c3C([H])([H])C([H])([H])C1([H])[H])C2([H])[H]

>  <smiles>  (87) 
[H]C(C(=O)N([H])C([H])([H])C([H])([H])OC([H])([H])C([H])([H])OC([H])([H])C([H])([H])OC([H])([H])C([H])([H])C([H])([H])N([H])C(=O)N1C([H])([H])C([H])([H])C([H])([H])C([H])(n2nc(-c3c([H])c([H])c(Oc4c([H])c([H])c(F)c([H])c4F)c([H])c3[H])c(C(=O)N([H])[H])c2N([H])[H])C1([H])[H])=C([H])C(=O)N([H])C([H])([H])C([H])([H])C([H])([H])OC([H])([H])C([H])([H])OC([H])([H])C([H])([H])Oc1c([H])c([H])c2c(c1[H])C([H])([H])N(C(=O)C([H])(N([H])C(=O)C([H])(N([H])C([H])([H])[H])C([H])([H])[H])C(C([H])([H])[H])(C([H])([H])[H])C([H])([H])[H])C([H])(C(=O)N([H])C1([H])c3c([H])c([H])c([H])c([H])c3C([H])([H])C([H])([H])C1([H])[H])C2([H])[H]

$$$$
93:0:0
     RDKit          3D

105112  0  0  1  0  0  0  0  0999 V2000
  -27.9800  -13.5680   23.6450 C   0  0  0  0  0  2  0  0  0  0  0  0
  -28.6730  -12.3670   24.0930 O   0  0  0  0  0  0  0  0  0  0  0  0
  -27.9310  -11.1340   24.2910 C   0  0  0  0  0  2  0  0  0  0  0  0
  -28.8510   -9.9170   24.7030 C   0  0  0  0  0  2  0  0  0  0  0  0
  -28.8790   -8.5390   23.9090 C   0  0  0  0  0  2  0  0  0  0  0  0
  -29.2980   -8.5600   22.5230 O   0  0  0  0  0  0  0  0  0  0  0  0
  -29.1050   -7.4000   21.6600 C   0  0  0  0  0  2  0  0  0  0  0  0
  -28.3280   -7.4550   20.2540 C   0  0  0  0  0  2  0  0  0  0  0  0
  -28.7540   -8.1940   18.9030 C   0  0  0  0  0  2  0  0  0  0  0  0
  -27.9230   -9.4180   18.2530 C   0  0  0  0  0  2  0  0  0  0  0  0
  -28.8380  -10.5130   17.5930 C   0  0  0  0  0  2  0  0  0  0  0  0
  -28.8760  -11.9700   17.5590 O   0  0  0  0  0  0  0  0  0  0  0  0
  -30.2490  -12.4910   17.3740 C   0  0  0  0  0  2  0  0  0  0  0  0
  -30.7670  -13.7950   18.1410 C   0  0  0  0  0  2  0  0  0  0  0  0
  -32.1180  -13.7250   19.0030 C   0  0  0  0  0  2  0  0  0  0  0  0
  -32.6500  -12.8100   21.3220 C   0  0  0  0  0  0  0  0  0  0  0  0
  -32.3510  -10.4190   21.1650 C   0  0  0  0  0  2  0  0  0  0  0  0
  -31.8080  -10.2300   19.7610 C   0  0  0  0  0  2  0  0  0  0  0  0
  -30.2930  -10.3880   19.7840 C   0  0  0  0  0  2  0  0  0  0  0  0
  -29.7240  -11.7070   20.4510 C   0  0  0  0  0  3  0  0  0  0  0  0
  -30.4400  -11.7780   21.7940 C   0  0  0  0  0  2  0  0  0  0  0  0
  -31.8850  -11.7350   21.5850 N   0  0  0  0  0  0  0  0  0  0  0  0
  -33.8690  -12.8230   21.5210 O   0  0  0  0  0  0  0  0  0  0  0  0
  -32.0550  -13.7330   20.5080 N   0  0  0  0  0  0  0  0  0  0  0  0
  -32.3560  -14.6450   20.8140 H   0  0  0  0  0  0  0  0  0  0  0  0
  -27.4220  -12.9950   20.3420 C   0  0  0  0  0  0  0  0  0  0  0  0
  -26.1320  -12.5550   20.5220 C   0  0  0  0  0  0  0  0  0  0  0  0
  -26.2350  -11.1920   20.8830 C   0  0  0  0  0  0  0  0  0  0  0  0
  -28.2540  -11.8900   20.5530 N   0  0  0  0  0  0  0  0  0  0  0  0
  -27.5010  -10.8490   20.9110 N   0  0  0  0  0  0  0  0  0  0  0  0
  -25.2060  -10.1720   21.1160 C   0  0  0  0  0  0  0  0  0  0  0  0
  -25.2970   -9.2730   22.1940 C   0  0  0  0  0  3  0  0  0  0  0  0
  -24.3490   -8.2400   22.3610 C   0  0  0  0  0  3  0  0  0  0  0  0
  -23.2540   -8.1430   21.4690 C   0  0  0  0  0  0  0  0  0  0  0  0
  -23.1580   -9.0530   20.4000 C   0  0  0  0  0  3  0  0  0  0  0  0
  -24.1260  -10.0550   20.2200 C   0  0  0  0  0  3  0  0  0  0  0  0
  -22.2670   -7.1920   21.5570 O   0  0  0  0  0  0  0  0  0  0  0  0
  -22.0800   -6.4470   22.6930 C   0  0  0  0  0  0  0  0  0  0  0  0
  -21.8940   -7.0470   23.9590 C   0  0  0  0  0  3  0  0  0  0  0  0
  -21.6410   -6.2440   25.0880 C   0  0  0  0  0  3  0  0  0  0  0  0
  -21.5640   -4.8450   24.9550 C   0  0  0  0  0  0  0  0  0  0  0  0
  -21.7360   -4.2450   23.6930 C   0  0  0  0  0  3  0  0  0  0  0  0
  -21.9900   -5.0440   22.5660 C   0  0  0  0  0  0  0  0  0  0  0  0
  -22.1300   -4.4690   21.3470 F   0  0  0  0  0  0  0  0  0  0  0  0
  -21.3160   -4.0750   26.0420 F   0  0  0  0  0  0  0  0  0  0  0  0
  -24.8570  -13.2990   20.2680 C   0  0  0  0  0  0  0  0  0  0  0  0
  -23.8120  -12.9780   21.0270 N   0  0  0  0  0  0  0  0  0  0  0  0
  -24.7840  -14.1750   19.4130 O   0  0  0  0  0  0  0  0  0  0  0  0
  -22.9130  -13.4050   20.8510 H   0  0  0  0  0  0  0  0  0  0  0  0
  -23.8920  -12.3000   21.7690 H   0  0  0  0  0  0  0  0  0  0  0  0
  -27.9260  -14.2410   20.0030 N   0  0  0  0  0  0  0  0  0  0  0  0
  -27.3140  -14.9720   19.6580 H   0  0  0  0  0  0  0  0  0  0  0  0
  -28.8850  -14.3440   19.7070 H   0  0  0  0  0  0  0  0  0  0  0  0
  -28.7660  -14.2920   22.4860 C   0  0  0  0  0  2  0  0  0  0  0  0
  -28.8390  -15.8550   22.3580 C   0  0  0  0  0  2  0  0  0  0  0  0
  -29.7650  -16.2960   21.2470 N   0  0  0  0  0  4  0  0  0  0  0  0
  -29.2070  -16.3410   20.4090 H   0  0  0  0  0  0  0  0  0  0  0  0
  -30.4450  -15.5640   21.1050 H   0  0  0  0  0  0  0  0  0  0  0  0
  -30.5340  -17.5890   21.3920 C   0  0  0  0  0  2  0  0  0  0  0  0
  -30.9800  -18.2480   20.0250 C   0  0  0  0  0  2  0  0  0  0  0  0
  -31.6860  -19.5270   20.0860 O   0  0  0  0  0  0  0  0  0  0  0  0
  -31.7500  -20.2510   18.8190 C   0  0  0  0  0  3  0  0  0  0  0  0
  -32.3530  -21.7210   18.8160 C   0  0  0  0  0  3  0  0  0  0  0  0
  -31.9840  -22.5940   17.5540 C   0  0  0  0  0  2  0  0  0  0  0  0
  -32.0000  -24.0710   17.6610 O   0  0  0  0  0  0  0  0  0  0  0  0
  -26.6420  -27.2330   21.2140 C   0  0  0  0  0  0  0  0  0  0  0  0
  -30.8010  -24.7850   17.5640 C   0  0  0  0  0  0  0  0  0  0  0  0
  -26.1900  -26.6050   18.8680 C   0  0  0  0  0  3  0  0  0  0  0  0
  -28.2360  -26.0230   17.4600 C   0  0  0  0  0  0  0  0  0  0  0  0
  -28.5640  -27.2180   19.6200 C   0  0  0  0  0  2  0  0  0  0  0  0
  -29.0900  -26.2860   18.5380 C   0  0  0  0  0  0  0  0  0  0  0  0
  -30.3740  -25.6740   18.5920 C   0  0  0  0  0  3  0  0  0  0  0  0
  -29.9440  -24.6280   16.4460 C   0  0  0  0  0  3  0  0  0  0  0  0
  -28.6690  -25.2080   16.4060 C   0  0  0  0  0  3  0  0  0  0  0  0
  -26.8630  -26.6600   17.4710 C   0  0  0  0  0  2  0  0  0  0  0  0
  -27.1320  -27.0100   19.9620 N   0  0  0  0  0  0  0  0  0  0  0  0
  -25.4320  -27.1330   21.4570 O   0  0  0  0  0  0  0  0  0  0  0  0
  -25.5720  -25.2030   19.0800 C   0  0  0  0  0  0  0  0  0  0  0  0
  -24.4530  -24.9290   18.3880 N   0  0  0  0  0  0  0  0  0  0  0  0
  -26.1030  -24.3850   19.8340 O   0  0  0  0  0  0  0  0  0  0  0  0
  -24.0730  -25.6540   17.7980 H   0  0  0  0  0  0  0  0  0  0  0  0
  -21.6210  -23.1780   16.9760 C   0  0  0  0  0  0  0  0  0  0  0  0
  -23.7190  -23.6620   18.4080 C   0  0  0  0  0  3  0  0  0  0  0  0
  -24.4270  -22.5910   17.5440 C   0  0  0  0  0  2  0  0  0  0  0  0
  -23.9090  -22.5380   16.1030 C   0  0  0  0  0  2  0  0  0  0  0  0
  -22.4080  -22.2330   16.0850 C   0  0  0  0  0  2  0  0  0  0  0  0
  -22.2410  -23.8620   18.0570 C   0  0  0  0  0  0  0  0  0  0  0  0
  -21.4690  -24.7540   18.8320 C   0  0  0  0  0  3  0  0  0  0  0  0
  -20.1080  -24.9720   18.5440 C   0  0  0  0  0  3  0  0  0  0  0  0
  -19.4970  -24.2800   17.4830 C   0  0  0  0  0  3  0  0  0  0  0  0
  -20.2510  -23.3820   16.7070 C   0  0  0  0  0  3  0  0  0  0  0  0
  -27.5750  -27.6410   22.3940 C   0  0  0  0  0  3  0  0  0  0  0  0
  -28.0070  -26.4200   23.2940 C   0  0  1  0  0  0  0  0  0  0  0  0
  -26.8170  -25.5620   23.7860 C   0  0  0  0  0  1  0  0  0  0  0  0
  -28.9750  -25.4930   22.5240 C   0  0  0  0  0  1  0  0  0  0  0  0
  -28.7770  -26.9290   24.5350 C   0  0  0  0  0  1  0  0  0  0  0  0
  -26.8660  -28.6480   23.1940 N   0  0  0  0  0  0  0  0  0  0  0  0
  -27.0950  -29.9680   23.1310 C   0  0  0  0  0  0  0  0  0  0  0  0
  -27.9890  -30.4600   22.4350 O   0  0  0  0  0  0  0  0  0  0  0  0
  -26.0910  -28.3190   23.7520 H   0  0  0  0  0  0  0  0  0  0  0  0
  -25.1140  -31.5140   23.0680 C   0  0  0  0  0  1  0  0  0  0  0  0
  -26.1880  -30.8850   23.9710 C   0  0  0  0  0  3  0  0  0  0  0  0
  -27.7800  -31.4400   25.7560 C   0  0  0  0  0  1  0  0  0  0  0  0
  -26.9270  -31.9500   24.6840 N   0  0  0  0  0  0  0  0  0  0  0  0
  -26.2840  -32.6220   25.0900 H   0  0  0  0  0  0  0  0  0  0  0  0
  1  2  1  0
  2  3  1  0
  3  4  1  0
  5  4  1  0
  6  5  1  0
  7  6  1  0
  8  7  1  0
  9  8  1  0
 10  9  1  0
 11 10  1  0
 12 11  1  0
 13 12  1  0
 13 14  1  0
 14 15  1  0
 15 24  1  0
 16 23  2  0
 16 22  1  0
 17 22  1  0
 18 19  1  0
 18 17  1  0
 20 19  1  0
 20 29  1  0
 20 21  1  0
 22 21  1  0
 24 25  1  0
 24 16  1  0
 26 27  2  0
 26 29  1  0
 27 28  1  0
 28 30  2  0
 28 31  1  0
 29 30  1  0
 31 32  1  0
 32 33  2  0
 34 37  1  0
 34 33  1  0
 35 34  2  0
 36 35  1  0
 36 31  2  0
 37 38  1  0
 38 39  1  0
 39 40  2  0
 41 40  1  0
 41 45  1  0
 42 41  2  0
 43 38  2  0
 43 42  1  0
 44 43  1  0
 46 27  1  0
 46 47  1  0
 47 50  1  0
 48 46  2  0
 49 47  1  0
 51 26  1  0
 52 51  1  0
 53 51  1  0
 54  1  1  0
 55 54  1  0
 56 59  1  0
 56 55  1  0
 57 56  1  0
 58 56  1  0
 60 61  1  0
 60 59  1  0
 62 61  1  0
 63 62  2  0
 64 65  1  0
 64 63  1  0
 66 77  2  0
 67 65  1  0
 67 72  1  0
 68 78  1  0
 68 76  1  0
 69 75  1  0
 69 71  1  0
 70 76  1  0
 71 72  2  0
 71 70  1  0
 73 67  2  0
 74 73  1  0
 74 69  2  0
 75 68  1  0
 76 66  1  0
 78 80  2  0
 79 78  1  0
 81 79  1  0
 82 87  1  0
 83 79  1  0
 84 83  1  0
 85 84  1  0
 86 85  1  0
 86 82  1  0
 87 83  1  0
 87 88  2  0
 89 88  1  0
 90 89  2  0
 91 82  2  0
 91 90  1  0
 92 66  1  0
 92 97  1  0
 92 93  1  0
 93 94  1  1
 93 96  1  0
 95 93  1  0
 97100  1  0
 98 97  1  0
 98102  1  0
 99 98  2  0
102101  1  0
102104  1  0
104105  1  0
104103  1  0
M  ISO  4  16 100  24 100  64 101  65 101
M  END
>  <TORSDO>  (88) 
F 39

>  <SCORE>  (88) 
3.664

>  <name>  (88) 
93

>  <ligand_id>  (88) 
93

>  <original_smiles>  (88) 
[H]c1c([H])c([H])c2c(c1[H])C([H])([H])C([H])([H])C([H])([H])C2([H])N([H])C(=O)C1([H])N(C(=O)C([H])(N([H])C(=O)C([H])(N([H])C([H])([H])[H])C([H])([H])[H])C(C([H])([H])[H])(C([H])([H])[H])C([H])([H])[H])C([H])([H])c2c([H])c(OC([H])([H])C([H])([H])C([H])([H])OC([H])([H])C([H])([H])[N+]([H])([H])C([H])([H])C([H])([H])C([H])([H])OC([H])([H])C([H])([H])C([H])([H])OC([H])([H])C([H])([H])C([H])([H])C([H])([H])C([H])([H])OC([H])([H])C([H])([H])C([H])([H])N([H])C(=O)N3C([H])([H])C([H])([H])C([H])([H])C([H])(n4nc(-c5c([H])c([H])c(Oc6c([H])c([H])c(F)c([H])c6F)c([H])c5[H])c(C(=O)N([H])[H])c4N([H])[H])C3([H])[H])c([H])c([H])c2C1([H])[H]

>  <smiles>  (88) 
[H]c1c([H])c([H])c2c(c1[H])C([H])([H])C([H])([H])C([H])([H])C2([H])N([H])C(=O)C1([H])N(C(=O)C([H])(N([H])C(=O)C([H])(N([H])C([H])([H])[H])C([H])([H])[H])C(C([H])([H])[H])(C([H])([H])[H])C([H])([H])[H])C([H])([H])c2c([H])c(OC([H])([H])C([H])([H])C([H])([H])OC([H])([H])C([H])([H])[N+]([H])([H])C([H])([H])C([H])([H])C([H])([H])OC([H])([H])C([H])([H])C([H])([H])OC([H])([H])C([H])([H])C([H])([H])C([H])([H])C([H])([H])OC([H])([H])C([H])([H])C([H])([H])N([H])C(=O)N3C([H])([H])C([H])([H])C([H])([H])C([H])(n4nc(-c5c([H])c([H])c(Oc6c([H])c([H])c(F)c([H])c6F)c([H])c5[H])c(C(=O)N([H])[H])c4N([H])[H])C3([H])[H])c([H])c([H])c2C1([H])[H]

$$$$
94:0:0
     RDKit          3D

101108  0  0  1  0  0  0  0  0999 V2000
  -23.8110  -23.5290   18.4200 C   0  0  0  0  0  2  0  0  0  0  0  0
  -24.7690  -24.2780   17.6800 O   0  0  0  0  0  0  0  0  0  0  0  0
  -24.3300  -24.5730   16.3510 C   0  0  0  0  0  2  0  0  0  0  0  0
  -25.2640  -25.6540   15.7940 C   0  0  0  0  0  2  0  0  0  0  0  0
  -26.6700  -25.3020   16.0870 N   0  0  0  0  0  4  0  0  0  0  0  0
  -26.6260  -24.7900   16.9530 H   0  0  0  0  0  0  0  0  0  0  0  0
  -27.0240  -24.6740   15.3800 H   0  0  0  0  0  0  0  0  0  0  0  0
  -27.5950  -26.4500   16.2410 C   0  0  0  0  0  2  0  0  0  0  0  0
  -28.7580  -26.1230   17.1960 C   0  0  0  0  0  2  0  0  0  0  0  0
  -28.3820  -25.9420   18.6840 C   0  0  0  0  0  2  0  0  0  0  0  0
  -28.2410  -27.1890   19.3640 O   0  0  0  0  0  0  0  0  0  0  0  0
  -24.4280  -31.6770   23.3160 C   0  0  0  0  0  0  0  0  0  0  0  0
  -27.0130  -27.7980   19.5140 C   0  0  0  0  0  0  0  0  0  0  0  0
  -23.1720  -30.5020   21.5380 C   0  0  0  0  0  3  0  0  0  0  0  0
  -24.5830  -29.2120   19.8540 C   0  0  0  0  0  0  0  0  0  0  0  0
  -25.6790  -30.9420   21.2890 C   0  0  0  0  0  2  0  0  0  0  0  0
  -25.7550  -29.6780   20.4600 C   0  0  0  0  0  0  0  0  0  0  0  0
  -26.9680  -28.9790   20.2870 C   0  0  0  0  0  3  0  0  0  0  0  0
  -25.8110  -27.3230   18.9390 C   0  0  0  0  0  3  0  0  0  0  0  0
  -24.6040  -28.0290   19.0960 C   0  0  0  0  0  3  0  0  0  0  0  0
  -23.3300  -30.0280   20.0690 C   0  0  0  0  0  2  0  0  0  0  0  0
  -24.4480  -31.0480   22.1070 N   0  0  0  0  0  0  0  0  0  0  0  0
  -23.3680  -31.8470   23.9320 O   0  0  0  0  0  0  0  0  0  0  0  0
  -22.5800  -29.3400   22.3660 C   0  0  0  0  0  0  0  0  0  0  0  0
  -21.2640  -29.1130   22.2210 N   0  0  0  0  0  0  0  0  0  0  0  0
  -23.2980  -28.6510   23.0940 O   0  0  0  0  0  0  0  0  0  0  0  0
  -20.7400  -29.7370   21.6240 H   0  0  0  0  0  0  0  0  0  0  0  0
  -17.9760  -27.6430   22.4780 C   0  0  0  0  0  0  0  0  0  0  0  0
  -20.4970  -28.0510   22.8680 C   0  0  0  0  0  3  0  0  0  0  0  0
  -20.7210  -26.6910   22.1660 C   0  0  0  0  0  2  0  0  0  0  0  0
  -19.6780  -26.3900   21.0870 C   0  0  0  0  0  2  0  0  0  0  0  0
  -18.2690  -26.3780   21.6890 C   0  0  0  0  0  2  0  0  0  0  0  0
  -19.0210  -28.4360   23.0180 C   0  0  0  0  0  0  0  0  0  0  0  0
  -18.6930  -29.6220   23.7100 C   0  0  0  0  0  3  0  0  0  0  0  0
  -17.3520  -30.0150   23.8720 C   0  0  0  0  0  3  0  0  0  0  0  0
  -16.3190  -29.2170   23.3500 C   0  0  0  0  0  3  0  0  0  0  0  0
  -16.6320  -28.0320   22.6590 C   0  0  0  0  0  3  0  0  0  0  0  0
  -25.7320  -32.2350   23.9670 C   0  0  0  0  0  3  0  0  0  0  0  0
  -25.4550  -33.6130   24.3970 N   0  0  0  0  0  0  0  0  0  0  0  0
  -25.8140  -34.7070   23.7130 C   0  0  0  0  0  0  0  0  0  0  0  0
  -26.4830  -34.6620   22.6760 O   0  0  0  0  0  0  0  0  0  0  0  0
  -24.8580  -33.7260   25.2020 H   0  0  0  0  0  0  0  0  0  0  0  0
  -24.1290  -36.5610   23.4830 C   0  0  0  0  0  1  0  0  0  0  0  0
  -25.3570  -36.0710   24.2660 C   0  0  0  0  0  3  0  0  0  0  0  0
  -27.5100  -36.8420   25.1630 C   0  0  0  0  0  1  0  0  0  0  0  0
  -26.4150  -37.1050   24.2320 N   0  0  0  0  0  0  0  0  0  0  0  0
  -26.0300  -38.0210   24.4450 H   0  0  0  0  0  0  0  0  0  0  0  0
  -26.2450  -31.3650   25.1790 C   0  0  1  0  0  0  0  0  0  0  0  0
  -25.1620  -31.0780   26.2440 C   0  0  0  0  0  1  0  0  0  0  0  0
  -26.7870  -30.0040   24.6820 C   0  0  0  0  0  1  0  0  0  0  0  0
  -27.4220  -32.0840   25.8810 C   0  0  0  0  0  1  0  0  0  0  0  0
  -24.3060  -23.2640   19.8570 C   0  0  0  0  0  2  0  0  0  0  0  0
  -25.0420  -21.9220   20.0880 C   0  0  0  0  0  2  0  0  0  0  0  0
  -26.4860  -21.9520   19.7650 N   0  0  0  0  0  4  0  0  0  0  0  0
  -26.9390  -21.2560   20.3420 H   0  0  0  0  0  0  0  0  0  0  0  0
  -26.8770  -22.8410   20.0370 H   0  0  0  0  0  0  0  0  0  0  0  0
  -26.8350  -21.6190   18.3660 C   0  0  0  0  0  2  0  0  0  0  0  0
  -28.2790  -21.1220   18.2680 C   0  0  0  0  0  2  0  0  0  0  0  0
  -28.4350  -20.0010   19.1300 O   0  0  0  0  0  0  0  0  0  0  0  0
  -29.7820  -19.5570   19.1700 C   0  0  0  0  0  2  0  0  0  0  0  0
  -29.9150  -18.4090   20.1750 C   0  0  0  0  0  2  0  0  0  0  0  0
  -31.3860  -18.0360   20.4120 C   0  0  0  0  0  2  0  0  0  0  0  0
  -31.5940  -16.9570   21.4900 C   0  0  0  0  0  2  0  0  0  0  0  0
  -31.3340  -14.8260   20.2110 C   0  0  0  0  0  0  0  0  0  0  0  0
  -31.0050  -12.5580   19.3000 C   0  0  0  0  0  2  0  0  0  0  0  0
  -30.0550  -12.5430   18.0910 C   0  0  0  0  0  2  0  0  0  0  0  0
  -28.5880  -12.4460   18.5480 C   0  0  0  0  0  2  0  0  0  0  0  0
  -28.2380  -13.4870   19.6410 C   0  0  0  0  0  3  0  0  0  0  0  0
  -29.2870  -13.4650   20.7730 C   0  0  0  0  0  2  0  0  0  0  0  0
  -30.6240  -13.6710   20.1800 N   0  0  0  0  0  0  0  0  0  0  0  0
  -32.3140  -15.0450   19.4900 O   0  0  0  0  0  0  0  0  0  0  0  0
  -30.9470  -15.6920   21.1540 N   0  0  0  0  0  0  0  0  0  0  0  0
  -30.1620  -15.4130   21.7240 H   0  0  0  0  0  0  0  0  0  0  0  0
  -25.9160  -14.2150   20.4870 C   0  0  0  0  0  0  0  0  0  0  0  0
  -24.8090  -13.4950   20.8540 C   0  0  0  0  0  0  0  0  0  0  0  0
  -25.1700  -12.1200   20.7150 C   0  0  0  0  0  0  0  0  0  0  0  0
  -26.8850  -13.2810   20.1570 N   0  0  0  0  0  0  0  0  0  0  0  0
  -26.4400  -12.0110   20.3470 N   0  0  0  0  0  0  0  0  0  0  0  0
  -24.3630  -10.9000   20.8560 C   0  0  0  0  0  0  0  0  0  0  0  0
  -24.7130   -9.8850   21.7730 C   0  0  0  0  0  3  0  0  0  0  0  0
  -23.9110   -8.7310   21.9040 C   0  0  0  0  0  3  0  0  0  0  0  0
  -22.7450   -8.5840   21.1150 C   0  0  0  0  0  0  0  0  0  0  0  0
  -22.4140   -9.5880   20.1880 C   0  0  0  0  0  3  0  0  0  0  0  0
  -23.2150  -10.7340   20.0570 C   0  0  0  0  0  3  0  0  0  0  0  0
  -21.9210   -7.4860   21.1560 O   0  0  0  0  0  0  0  0  0  0  0  0
  -21.7270   -6.7730   22.3120 C   0  0  0  0  0  0  0  0  0  0  0  0
  -21.2170   -7.3750   23.4820 C   0  0  0  0  0  3  0  0  0  0  0  0
  -20.9680   -6.5910   24.6270 C   0  0  0  0  0  3  0  0  0  0  0  0
  -21.2190   -5.2070   24.6000 C   0  0  0  0  0  0  0  0  0  0  0  0
  -21.7220   -4.6040   23.4330 C   0  0  0  0  0  3  0  0  0  0  0  0
  -21.9720   -5.3850   22.2910 C   0  0  0  0  0  0  0  0  0  0  0  0
  -22.4360   -4.7950   21.1630 F   0  0  0  0  0  0  0  0  0  0  0  0
  -20.9720   -4.4520   25.6960 F   0  0  0  0  0  0  0  0  0  0  0  0
  -23.4630  -14.0490   21.2210 C   0  0  0  0  0  0  0  0  0  0  0  0
  -22.7290  -13.3540   22.0860 N   0  0  0  0  0  0  0  0  0  0  0  0
  -23.0720  -15.1280   20.7790 O   0  0  0  0  0  0  0  0  0  0  0  0
  -23.0590  -12.4790   22.4640 H   0  0  0  0  0  0  0  0  0  0  0  0
  -21.8260  -13.7040   22.3730 H   0  0  0  0  0  0  0  0  0  0  0  0
  -26.1740  -15.5790   20.3920 N   0  0  0  0  0  0  0  0  0  0  0  0
  -25.4630  -16.2790   20.5790 H   0  0  0  0  0  0  0  0  0  0  0  0
  -27.0480  -15.9750   20.0720 H   0  0  0  0  0  0  0  0  0  0  0  0
  1 52  1  0
  2  1  1  0
  3  2  1  0
  4  5  1  0
  4  3  1  0
  5  8  1  0
  5  6  1  0
  7  5  1  0
  8  9  1  0
  9 10  1  0
 10 11  1  0
 11 13  1  0
 12 23  2  0
 13 18  1  0
 14 22  1  0
 14 24  1  0
 15 21  1  0
 15 17  1  0
 16 22  1  0
 17 16  1  0
 18 17  2  0
 19 20  1  0
 19 13  2  0
 20 15  2  0
 21 14  1  0
 22 12  1  0
 24 26  2  0
 25 24  1  0
 27 25  1  0
 28 37  2  0
 28 33  1  0
 29 25  1  0
 29 33  1  0
 30 29  1  0
 31 32  1  0
 31 30  1  0
 32 28  1  0
 33 34  2  0
 34 35  1  0
 36 35  2  0
 37 36  1  0
 38 12  1  0
 38 39  1  0
 38 48  1  0
 39 42  1  0
 40 44  1  0
 40 39  1  0
 41 40  2  0
 44 43  1  0
 46 44  1  0
 46 47  1  0
 46 45  1  0
 48 51  1  1
 48 49  1  0
 50 48  1  0
 52 53  1  0
 54 56  1  0
 54 53  1  0
 54 55  1  0
 57 54  1  0
 58 57  1  0
 58 59  1  0
 59 60  1  0
 60 61  1  0
 61 62  1  0
 62 63  1  0
 64 72  1  0
 65 70  1  0
 66 67  1  0
 66 65  1  0
 68 67  1  0
 68 77  1  0
 68 69  1  0
 70 64  1  0
 70 69  1  0
 71 64  2  0
 72 63  1  0
 72 73  1  0
 74 75  2  0
 75 94  1  0
 76 75  1  0
 76 79  1  0
 77 78  1  0
 77 74  1  0
 78 76  2  0
 79 80  1  0
 80 81  2  0
 82 85  1  0
 82 81  1  0
 83 82  2  0
 84 83  1  0
 84 79  2  0
 85 86  1  0
 86 87  1  0
 87 88  2  0
 89 88  1  0
 89 93  1  0
 90 89  2  0
 91 86  2  0
 91 90  1  0
 92 91  1  0
 94 95  1  0
 95 98  1  0
 95 97  1  0
 96 94  2  0
 99 74  1  0
 99100  1  0
101 99  1  0
M  ISO  4  10 101  11 101  64 100  72 100
M  END
>  <TORSDO>  (89) 
F 33

>  <SCORE>  (89) 
-8.552

>  <name>  (89) 
94

>  <ligand_id>  (89) 
94

>  <original_smiles>  (89) 
[H]c1c([H])c([H])c2c(c1[H])C([H])([H])C([H])([H])C([H])([H])C2([H])N([H])C(=O)C1([H])N(C(=O)C([H])(N([H])C(=O)C([H])(N([H])C([H])([H])[H])C([H])([H])[H])C(C([H])([H])[H])(C([H])([H])[H])C([H])([H])[H])C([H])([H])c2c([H])c(OC([H])([H])C([H])([H])C([H])([H])[N+]([H])([H])C([H])([H])C([H])([H])OC([H])([H])C([H])([H])C([H])([H])[N+]([H])([H])C([H])([H])C([H])([H])OC([H])([H])C([H])([H])C([H])([H])C([H])([H])N([H])C(=O)N3C([H])([H])C([H])([H])C([H])([H])C([H])(n4nc(-c5c([H])c([H])c(Oc6c([H])c([H])c(F)c([H])c6F)c([H])c5[H])c(C(=O)N([H])[H])c4N([H])[H])C3([H])[H])c([H])c([H])c2C1([H])[H]

>  <smiles>  (89) 
[H]c1c([H])c([H])c2c(c1[H])C([H])([H])C([H])([H])C([H])([H])C2([H])N([H])C(=O)C1([H])N(C(=O)C([H])(N([H])C(=O)C([H])(N([H])C([H])([H])[H])C([H])([H])[H])C(C([H])([H])[H])(C([H])([H])[H])C([H])([H])[H])C([H])([H])c2c([H])c(OC([H])([H])C([H])([H])C([H])([H])[N+]([H])([H])C([H])([H])C([H])([H])OC([H])([H])C([H])([H])C([H])([H])[N+]([H])([H])C([H])([H])C([H])([H])OC([H])([H])C([H])([H])C([H])([H])C([H])([H])N([H])C(=O)N3C([H])([H])C([H])([H])C([H])([H])C([H])(n4nc(-c5c([H])c([H])c(Oc6c([H])c([H])c(F)c([H])c6F)c([H])c5[H])c(C(=O)N([H])[H])c4N([H])[H])C3([H])[H])c([H])c([H])c2C1([H])[H]

$$$$
95:0:0
     RDKit          3D

100107  0  0  1  0  0  0  0  0999 V2000
  -24.8860  -20.1550   22.2150 C   0  0  0  0  0  0  0  0  0  0  0  0
  -23.7740  -20.6560   22.7650 N   0  0  0  0  0  0  0  0  0  0  0  0
  -25.9460  -20.7820   22.1680 O   0  0  0  0  0  0  0  0  0  0  0  0
  -22.9440  -20.0790   22.7500 H   0  0  0  0  0  0  0  0  0  0  0  0
  -24.6620  -18.8290   21.6660 C   0  0  0  0  0  3  0  0  0  0  0  0
  -25.3590  -18.4110   20.5920 C   0  0  0  0  0  3  0  0  0  0  0  0
  -25.1630  -17.0780   19.9010 C   0  0  0  0  0  2  0  0  0  0  0  0
  -24.3920  -17.1910   18.7040 O   0  0  0  0  0  0  0  0  0  0  0  0
  -24.7280  -18.2640   17.8250 C   0  0  0  0  0  2  0  0  0  0  0  0
  -24.2190  -19.6060   18.3860 C   0  0  0  0  0  2  0  0  0  0  0  0
  -24.1840  -20.7490   17.3550 C   0  0  0  0  0  2  0  0  0  0  0  0
  -24.0440  -22.1170   18.0440 C   0  0  0  0  0  2  0  0  0  0  0  0
  -23.5830  -23.2560   17.1130 C   0  0  0  0  0  2  0  0  0  0  0  0
  -23.4560  -25.7710   17.3880 C   0  0  0  0  0  0  0  0  0  0  0  0
  -21.5450  -27.3280   17.2500 C   0  0  0  0  0  2  0  0  0  0  0  0
  -21.1610  -27.8930   18.6310 C   0  0  0  0  0  2  0  0  0  0  0  0
  -20.1890  -26.9530   19.3710 C   0  0  0  0  0  2  0  0  0  0  0  0
  -20.6740  -25.4810   19.3600 C   0  0  0  0  0  3  0  0  0  0  0  0
  -21.0660  -25.0650   17.9300 C   0  0  0  0  0  2  0  0  0  0  0  0
  -22.1080  -25.9780   17.4300 N   0  0  0  0  0  0  0  0  0  0  0  0
  -24.2620  -26.6820   17.1900 O   0  0  0  0  0  0  0  0  0  0  0  0
  -23.9340  -24.5530   17.6950 N   0  0  0  0  0  0  0  0  0  0  0  0
  -24.9180  -24.6060   17.9220 H   0  0  0  0  0  0  0  0  0  0  0  0
  -19.8350  -23.3470   20.5380 C   0  0  0  0  0  0  0  0  0  0  0  0
  -18.5860  -22.9520   20.9350 C   0  0  0  0  0  0  0  0  0  0  0  0
  -17.6990  -23.9970   20.5350 C   0  0  0  0  0  0  0  0  0  0  0  0
  -19.6700  -24.5790   19.9220 N   0  0  0  0  0  0  0  0  0  0  0  0
  -18.3620  -24.9430   19.8820 N   0  0  0  0  0  0  0  0  0  0  0  0
  -16.2650  -24.1840   20.7900 C   0  0  0  0  0  0  0  0  0  0  0  0
  -15.3050  -24.0190   19.7670 C   0  0  0  0  0  3  0  0  0  0  0  0
  -13.9290  -24.1900   20.0410 C   0  0  0  0  0  3  0  0  0  0  0  0
  -13.5030  -24.5220   21.3500 C   0  0  0  0  0  0  0  0  0  0  0  0
  -14.4640  -24.7060   22.3600 C   0  0  0  0  0  3  0  0  0  0  0  0
  -15.8320  -24.5420   22.0840 C   0  0  0  0  0  3  0  0  0  0  0  0
  -12.1920  -24.7290   21.7040 O   0  0  0  0  0  0  0  0  0  0  0  0
  -11.1960  -23.8700   21.3100 C   0  0  0  0  0  0  0  0  0  0  0  0
  -11.2520  -22.4870   21.5860 C   0  0  0  0  0  3  0  0  0  0  0  0
  -10.1760  -21.6520   21.2230 C   0  0  0  0  0  3  0  0  0  0  0  0
   -9.0410  -22.2010   20.5960 C   0  0  0  0  0  0  0  0  0  0  0  0
   -8.9800  -23.5790   20.3260 C   0  0  0  0  0  3  0  0  0  0  0  0
  -10.0550  -24.4110   20.6850 C   0  0  0  0  0  0  0  0  0  0  0  0
   -9.9840  -25.7430   20.4400 F   0  0  0  0  0  0  0  0  0  0  0  0
   -8.0030  -21.4010   20.2540 F   0  0  0  0  0  0  0  0  0  0  0  0
  -18.2450  -21.7230   21.7280 C   0  0  0  0  0  0  0  0  0  0  0  0
  -17.0260  -21.2150   21.5820 N   0  0  0  0  0  0  0  0  0  0  0  0
  -19.0780  -21.1760   22.4480 O   0  0  0  0  0  0  0  0  0  0  0  0
  -16.3440  -21.6430   20.9740 H   0  0  0  0  0  0  0  0  0  0  0  0
  -16.7720  -20.3750   22.0840 H   0  0  0  0  0  0  0  0  0  0  0  0
  -21.0930  -22.7660   20.6670 N   0  0  0  0  0  0  0  0  0  0  0  0
  -21.2210  -21.8850   21.1500 H   0  0  0  0  0  0  0  0  0  0  0  0
  -21.9600  -23.1740   20.3440 H   0  0  0  0  0  0  0  0  0  0  0  0
  -23.6370  -21.9820   23.3610 C   0  0  0  0  0  2  0  0  0  0  0  0
  -24.8840  -22.3700   24.1810 C   0  0  0  0  0  2  0  0  0  0  0  0
  -25.8070  -23.1290   23.4060 O   0  0  0  0  0  0  0  0  0  0  0  0
  -25.2080  -24.2340   22.7390 C   0  0  0  0  0  2  0  0  0  0  0  0
  -25.8870  -24.4860   21.3840 C   0  0  0  0  0  2  0  0  0  0  0  0
  -26.1610  -25.8750   21.2170 O   0  0  0  0  0  0  0  0  0  0  0  0
  -26.1340  -26.2790   19.8510 C   0  0  0  0  0  2  0  0  0  0  0  0
  -25.9910  -27.8020   19.7170 C   0  0  0  0  0  2  0  0  0  0  0  0
  -24.6860  -28.2060   20.1330 O   0  0  0  0  0  0  0  0  0  0  0  0
  -27.7210  -32.3990   24.9970 C   0  0  0  0  0  0  0  0  0  0  0  0
  -24.6450  -28.7240   21.4010 C   0  0  0  0  0  0  0  0  0  0  0  0
  -25.9320  -30.8980   25.8230 C   0  0  0  0  0  3  0  0  0  0  0  0
  -24.5410  -29.7400   24.0250 C   0  0  0  0  0  0  0  0  0  0  0  0
  -25.9280  -31.7310   23.4070 C   0  0  0  0  0  2  0  0  0  0  0  0
  -25.2390  -30.4380   23.0310 C   0  0  0  0  0  0  0  0  0  0  0  0
  -25.2920  -29.9360   21.7160 C   0  0  0  0  0  3  0  0  0  0  0  0
  -23.9280  -28.0360   22.4010 C   0  0  0  0  0  3  0  0  0  0  0  0
  -23.8770  -28.5400   23.7140 C   0  0  0  0  0  3  0  0  0  0  0  0
  -24.5380  -30.3480   25.4080 C   0  0  0  0  0  2  0  0  0  0  0  0
  -26.5880  -31.6890   24.7300 N   0  0  0  0  0  0  0  0  0  0  0  0
  -28.1970  -32.4370   26.1390 O   0  0  0  0  0  0  0  0  0  0  0  0
  -26.7960  -29.7220   26.3300 C   0  0  0  0  0  0  0  0  0  0  0  0
  -26.5870  -29.3280   27.5970 N   0  0  0  0  0  0  0  0  0  0  0  0
  -27.6100  -29.1700   25.5850 O   0  0  0  0  0  0  0  0  0  0  0  0
  -25.9120  -29.8440   28.1450 H   0  0  0  0  0  0  0  0  0  0  0  0
  -26.7950  -27.5420   30.7290 C   0  0  0  0  0  0  0  0  0  0  0  0
  -27.2540  -28.2200   28.2770 C   0  0  0  0  0  3  0  0  0  0  0  0
  -26.6180  -26.8640   27.8920 C   0  0  0  0  0  2  0  0  0  0  0  0
  -25.5170  -26.4190   28.8580 C   0  0  0  0  0  2  0  0  0  0  0  0
  -26.0700  -26.2850   30.2790 C   0  0  0  0  0  2  0  0  0  0  0  0
  -27.3380  -28.4590   29.7900 C   0  0  0  0  0  0  0  0  0  0  0  0
  -27.9690  -29.6300   30.2610 C   0  0  0  0  0  3  0  0  0  0  0  0
  -28.0680  -29.8900   31.6420 C   0  0  0  0  0  3  0  0  0  0  0  0
  -27.5430  -28.9710   32.5680 C   0  0  0  0  0  3  0  0  0  0  0  0
  -26.9140  -27.7990   32.1110 C   0  0  0  0  0  3  0  0  0  0  0  0
  -28.4590  -33.2110   23.8860 C   0  0  0  0  0  3  0  0  0  0  0  0
  -28.6750  -34.5710   24.3990 N   0  0  0  0  0  0  0  0  0  0  0  0
  -27.9250  -35.6320   24.0750 C   0  0  0  0  0  0  0  0  0  0  0  0
  -27.0110  -35.5810   23.2450 O   0  0  0  0  0  0  0  0  0  0  0  0
  -29.3760  -34.6800   25.1170 H   0  0  0  0  0  0  0  0  0  0  0  0
  -27.1980  -37.2100   25.8910 C   0  0  0  0  0  1  0  0  0  0  0  0
  -28.2350  -36.9640   24.7840 C   0  0  0  0  0  3  0  0  0  0  0  0
  -29.3730  -38.0640   22.9080 C   0  0  0  0  0  1  0  0  0  0  0  0
  -28.2730  -38.1240   23.8680 N   0  0  0  0  0  0  0  0  0  0  0  0
  -28.3590  -38.9910   24.3910 H   0  0  0  0  0  0  0  0  0  0  0  0
  -29.8240  -32.5580   23.4370 C   0  0  1  0  0  0  0  0  0  0  0  0
  -30.7640  -32.2090   24.6130 C   0  0  0  0  0  1  0  0  0  0  0  0
  -29.5640  -31.2590   22.6390 C   0  0  0  0  0  1  0  0  0  0  0  0
  -30.5790  -33.5180   22.4880 C   0  0  0  0  0  1  0  0  0  0  0  0
  1  2  1  0
  2 52  1  0
  3  1  2  0
  4  2  1  0
  5  1  1  0
  6  5  2  0
  7  6  1  0
  8  7  1  0
  9 10  1  0
  9  8  1  0
 11 12  1  0
 11 10  1  0
 13 22  1  0
 13 12  1  0
 14 20  1  0
 14 22  1  0
 15 20  1  0
 15 16  1  0
 16 17  1  0
 18 19  1  0
 18 17  1  0
 18 27  1  0
 20 19  1  0
 21 14  2  0
 22 23  1  0
 24 49  1  0
 24 25  2  0
 25 44  1  0
 26 29  1  0
 26 25  1  0
 27 24  1  0
 28 27  1  0
 28 26  2  0
 29 34  1  0
 30 31  1  0
 30 29  2  0
 31 32  2  0
 32 35  1  0
 32 33  1  0
 34 33  2  0
 36 37  1  0
 36 35  1  0
 38 37  2  0
 39 38  1  0
 40 39  2  0
 40 41  1  0
 41 36  2  0
 42 41  1  0
 43 39  1  0
 44 46  2  0
 45 44  1  0
 45 48  1  0
 47 45  1  0
 49 50  1  0
 51 49  1  0
 52 53  1  0
 54 53  1  0
 55 54  1  0
 56 55  1  0
 57 56  1  0
 58 57  1  0
 59 58  1  0
 59 60  1  0
 60 62  1  0
 61 72  2  0
 62 67  2  0
 62 68  1  0
 63 73  1  0
 64 70  1  0
 65 71  1  0
 66 65  1  0
 66 64  2  0
 67 66  1  0
 68 69  2  0
 69 64  1  0
 70 63  1  0
 71 61  1  0
 71 63  1  0
 73 74  1  0
 74 76  1  0
 75 73  2  0
 77 86  1  0
 78 74  1  0
 78 82  1  0
 79 78  1  0
 79 80  1  0
 80 81  1  0
 81 77  1  0
 82 83  1  0
 82 77  2  0
 83 84  2  0
 84 85  1  0
 86 85  2  0
 87 88  1  0
 87 61  1  0
 88 91  1  0
 89 88  1  0
 89 93  1  0
 90 89  2  0
 93 92  1  0
 94 95  1  0
 95 96  1  0
 95 93  1  0
 97 87  1  0
 97 98  1  1
 99 97  1  0
100 97  1  0
M  ISO  4  14 100  22 100  59 101  60 101
M  END
>  <TORSDO>  (90) 
F 32

>  <SCORE>  (90) 
36.586

>  <name>  (90) 
95

>  <ligand_id>  (90) 
95

>  <original_smiles>  (90) 
[H]C(C(=O)N([H])C([H])([H])C([H])([H])OC([H])([H])C([H])([H])OC([H])([H])C([H])([H])Oc1c([H])c([H])c2c(c1[H])C([H])([H])N(C(=O)C([H])(N([H])C(=O)C([H])(N([H])C([H])([H])[H])C([H])([H])[H])C(C([H])([H])[H])(C([H])([H])[H])C([H])([H])[H])C([H])(C(=O)N([H])C1([H])c3c([H])c([H])c([H])c([H])c3C([H])([H])C([H])([H])C1([H])[H])C2([H])[H])=C([H])C([H])([H])OC([H])([H])C([H])([H])C([H])([H])C([H])([H])C([H])([H])N([H])C(=O)N1C([H])([H])C([H])([H])C([H])([H])C([H])(n2nc(-c3c([H])c([H])c(Oc4c([H])c([H])c(F)c([H])c4F)c([H])c3[H])c(C(=O)N([H])[H])c2N([H])[H])C1([H])[H]

>  <smiles>  (90) 
[H]C(C(=O)N([H])C([H])([H])C([H])([H])OC([H])([H])C([H])([H])OC([H])([H])C([H])([H])Oc1c([H])c([H])c2c(c1[H])C([H])([H])N(C(=O)C([H])(N([H])C(=O)C([H])(N([H])C([H])([H])[H])C([H])([H])[H])C(C([H])([H])[H])(C([H])([H])[H])C([H])([H])[H])C([H])(C(=O)N([H])C1([H])c3c([H])c([H])c([H])c([H])c3C([H])([H])C([H])([H])C1([H])[H])C2([H])[H])=C([H])C([H])([H])OC([H])([H])C([H])([H])C([H])([H])C([H])([H])C([H])([H])N([H])C(=O)N1C([H])([H])C([H])([H])C([H])([H])C([H])(n2nc(-c3c([H])c([H])c(Oc4c([H])c([H])c(F)c([H])c4F)c([H])c3[H])c(C(=O)N([H])[H])c2N([H])[H])C1([H])[H]

$$$$
96:0:0
     RDKit          3D

119126  0  0  1  0  0  0  0  0999 V2000
  -29.0580  -20.6070   19.9980 C   0  0  0  0  0  3  0  0  0  0  0  0
  -29.0850  -19.8220   21.3180 C   0  0  0  0  0  0  0  0  0  0  0  0
  -30.1620  -19.0670   21.5650 N   0  0  0  0  0  0  0  0  0  0  0  0
  -28.1390  -19.9180   22.1000 O   0  0  0  0  0  0  0  0  0  0  0  0
  -30.8890  -19.0540   20.8610 H   0  0  0  0  0  0  0  0  0  0  0  0
  -30.3730  -18.1910   22.7160 C   0  0  0  0  0  2  0  0  0  0  0  0
  -30.0910  -18.8430   24.0870 C   0  0  0  0  0  2  0  0  0  0  0  0
  -30.6520  -18.0570   25.2750 C   0  0  0  0  0  2  0  0  0  0  0  0
  -30.0840  -16.7580   25.2990 O   0  0  0  0  0  0  0  0  0  0  0  0
  -30.2920  -16.1090   26.5440 C   0  0  0  0  0  2  0  0  0  0  0  0
  -30.0800  -14.5970   26.3940 C   0  0  0  0  0  2  0  0  0  0  0  0
  -31.2600  -13.9370   25.9400 O   0  0  0  0  0  0  0  0  0  0  0  0
  -31.0210  -12.5520   25.7000 C   0  0  0  0  0  2  0  0  0  0  0  0
  -32.3000  -11.7580   25.3930 C   0  0  0  0  0  2  0  0  0  0  0  0
  -32.5020  -11.7120   23.9840 O   0  0  0  0  0  0  0  0  0  0  0  0
  -33.4850  -10.7720   23.5620 C   0  0  0  0  0  2  0  0  0  0  0  0
  -33.6520  -10.8340   22.0320 C   0  0  0  0  0  2  0  0  0  0  0  0
  -34.4340  -12.0690   21.5560 C   0  0  0  0  0  2  0  0  0  0  0  0
  -33.6270  -13.1970   21.8160 O   0  0  0  0  0  0  0  0  0  0  0  0
  -34.2790  -14.4540   21.7860 C   0  0  0  0  0  2  0  0  0  0  0  0
  -33.3200  -15.5230   22.3560 C   0  0  0  0  0  2  0  0  0  0  0  0
  -32.0030  -14.9930   22.9820 C   0  0  0  0  0  2  0  0  0  0  0  0
  -30.8940  -14.2330   20.7900 C   0  0  0  0  0  0  0  0  0  0  0  0
  -30.4090  -12.2930   19.3610 C   0  0  0  0  0  2  0  0  0  0  0  0
  -29.4660  -12.5430   18.1770 C   0  0  0  0  0  2  0  0  0  0  0  0
  -28.0040  -12.3730   18.6150 C   0  0  0  0  0  2  0  0  0  0  0  0
  -27.6710  -13.2060   19.8770 C   0  0  0  0  0  3  0  0  0  0  0  0
  -28.7180  -12.9840   20.9960 C   0  0  0  0  0  2  0  0  0  0  0  0
  -30.0730  -13.2100   20.4560 N   0  0  0  0  0  0  0  0  0  0  0  0
  -31.6980  -14.7430   20.0080 O   0  0  0  0  0  0  0  0  0  0  0  0
  -30.9490  -14.4170   22.1190 N   0  0  0  0  0  0  0  0  0  0  0  0
  -30.2610  -13.8720   22.6210 H   0  0  0  0  0  0  0  0  0  0  0  0
  -25.2640  -13.8170   20.5710 C   0  0  0  0  0  0  0  0  0  0  0  0
  -24.1870  -13.0440   20.9140 C   0  0  0  0  0  0  0  0  0  0  0  0
  -24.6400  -11.6910   20.8720 C   0  0  0  0  0  0  0  0  0  0  0  0
  -26.3100  -12.9340   20.3450 N   0  0  0  0  0  0  0  0  0  0  0  0
  -25.9350  -11.6490   20.5800 N   0  0  0  0  0  0  0  0  0  0  0  0
  -23.9070  -10.4290   21.0390 C   0  0  0  0  0  0  0  0  0  0  0  0
  -24.3620   -9.4220   21.9170 C   0  0  0  0  0  3  0  0  0  0  0  0
  -23.6300   -8.2260   22.0750 C   0  0  0  0  0  3  0  0  0  0  0  0
  -22.4280   -8.0290   21.3540 C   0  0  0  0  0  0  0  0  0  0  0  0
  -21.9910   -9.0270   20.4650 C   0  0  0  0  0  3  0  0  0  0  0  0
  -22.7230  -10.2150   20.3050 C   0  0  0  0  0  3  0  0  0  0  0  0
  -21.6650   -6.8880   21.4240 O   0  0  0  0  0  0  0  0  0  0  0  0
  -21.6850   -6.0730   22.5270 C   0  0  0  0  0  0  0  0  0  0  0  0
  -21.4000   -6.5640   23.8200 C   0  0  0  0  0  3  0  0  0  0  0  0
  -21.3670   -5.6810   24.9170 C   0  0  0  0  0  3  0  0  0  0  0  0
  -21.6040   -4.3070   24.7220 C   0  0  0  0  0  0  0  0  0  0  0  0
  -21.8820   -3.8140   23.4340 C   0  0  0  0  0  3  0  0  0  0  0  0
  -21.9190   -4.6960   22.3390 C   0  0  0  0  0  0  0  0  0  0  0  0
  -22.1660   -4.2140   21.0970 F   0  0  0  0  0  0  0  0  0  0  0  0
  -21.5640   -3.4540   25.7720 F   0  0  0  0  0  0  0  0  0  0  0  0
  -22.7890  -13.5240   21.1840 C   0  0  0  0  0  0  0  0  0  0  0  0
  -22.0560  -12.8230   22.0410 N   0  0  0  0  0  0  0  0  0  0  0  0
  -22.3570  -14.5560   20.6710 O   0  0  0  0  0  0  0  0  0  0  0  0
  -22.4130  -11.9820   22.4700 H   0  0  0  0  0  0  0  0  0  0  0  0
  -21.1200  -13.1290   22.2690 H   0  0  0  0  0  0  0  0  0  0  0  0
  -25.4340  -15.1880   20.4080 N   0  0  0  0  0  0  0  0  0  0  0  0
  -24.6680  -15.8430   20.5110 H   0  0  0  0  0  0  0  0  0  0  0  0
  -26.2920  -15.6290   20.1010 H   0  0  0  0  0  0  0  0  0  0  0  0
  -28.7400  -22.0080   20.3430 N   0  0  0  0  0  4  0  0  0  0  0  0
  -27.7410  -22.0660   20.4600 H   0  0  0  0  0  0  0  0  0  0  0  0
  -29.1190  -22.1760   21.2630 H   0  0  0  0  0  0  0  0  0  0  0  0
  -29.1870  -23.1100   19.4530 C   0  0  0  0  0  3  0  0  0  0  0  0
  -28.5550  -24.3920   20.0440 C   0  0  0  0  0  0  0  0  0  0  0  0
  -27.9860  -24.4060   21.1410 O   0  0  0  0  0  0  0  0  0  0  0  0
  -28.6700  -25.6850   19.2180 C   0  0  0  0  0  2  0  0  0  0  0  0
  -28.4660  -26.8280   20.0550 O   0  0  0  0  0  0  0  0  0  0  0  0
  -24.6120  -31.8690   23.2120 C   0  0  0  0  0  0  0  0  0  0  0  0
  -27.2480  -27.4710   20.0690 C   0  0  0  0  0  0  0  0  0  0  0  0
  -23.3980  -30.4920   21.5520 C   0  0  0  0  0  3  0  0  0  0  0  0
  -24.8420  -28.9570   20.1170 C   0  0  0  0  0  0  0  0  0  0  0  0
  -25.9240  -30.8390   21.3650 C   0  0  0  0  0  2  0  0  0  0  0  0
  -25.9990  -29.4770   20.7110 C   0  0  0  0  0  0  0  0  0  0  0  0
  -27.1970  -28.7360   20.6920 C   0  0  0  0  0  3  0  0  0  0  0  0
  -26.0650  -26.9460   19.4930 C   0  0  0  0  0  3  0  0  0  0  0  0
  -24.8680  -27.6870   19.5150 C   0  0  0  0  0  3  0  0  0  0  0  0
  -23.6030  -29.8200   20.1690 C   0  0  0  0  0  2  0  0  0  0  0  0
  -24.6630  -31.0810   22.1010 N   0  0  0  0  0  0  0  0  0  0  0  0
  -23.5330  -32.1450   23.7520 O   0  0  0  0  0  0  0  0  0  0  0  0
  -22.7400  -29.4680   22.5020 C   0  0  0  0  0  0  0  0  0  0  0  0
  -21.4130  -29.3020   22.3730 N   0  0  0  0  0  0  0  0  0  0  0  0
  -23.4170  -28.8230   23.3080 O   0  0  0  0  0  0  0  0  0  0  0  0
  -20.9310  -29.8700   21.6890 H   0  0  0  0  0  0  0  0  0  0  0  0
  -18.0280  -28.1390   22.8500 C   0  0  0  0  0  0  0  0  0  0  0  0
  -20.5870  -28.3670   23.1330 C   0  0  0  0  0  3  0  0  0  0  0  0
  -20.6770  -26.9410   22.5440 C   0  0  0  0  0  2  0  0  0  0  0  0
  -19.5750  -26.6390   21.5240 C   0  0  0  0  0  2  0  0  0  0  0  0
  -18.1920  -26.7940   22.1620 C   0  0  0  0  0  2  0  0  0  0  0  0
  -19.1520  -28.8850   23.2900 C   0  0  0  0  0  0  0  0  0  0  0  0
  -18.9450  -30.1470   23.8910 C   0  0  0  0  0  3  0  0  0  0  0  0
  -17.6450  -30.6600   24.0580 C   0  0  0  0  0  3  0  0  0  0  0  0
  -16.5340  -29.9100   23.6340 C   0  0  0  0  0  3  0  0  0  0  0  0
  -16.7260  -28.6530   23.0340 C   0  0  0  0  0  3  0  0  0  0  0  0
  -25.9050  -32.4820   23.8400 C   0  0  0  0  0  3  0  0  0  0  0  0
  -26.4480  -31.6600   25.0740 C   0  0  1  0  0  0  0  0  0  0  0  0
  -25.3750  -31.3730   26.1500 C   0  0  0  0  0  1  0  0  0  0  0  0
  -27.0330  -30.3030   24.6150 C   0  0  0  0  0  1  0  0  0  0  0  0
  -27.6080  -32.4320   25.7480 C   0  0  0  0  0  1  0  0  0  0  0  0
  -25.5900  -33.8620   24.2330 N   0  0  0  0  0  0  0  0  0  0  0  0
  -25.9040  -34.9470   23.5120 C   0  0  0  0  0  0  0  0  0  0  0  0
  -26.5590  -34.8920   22.4690 O   0  0  0  0  0  0  0  0  0  0  0  0
  -25.0080  -33.9780   25.0490 H   0  0  0  0  0  0  0  0  0  0  0  0
  -24.1480  -36.7330   23.2630 C   0  0  0  0  0  1  0  0  0  0  0  0
  -25.4100  -36.3110   24.0330 C   0  0  0  0  0  3  0  0  0  0  0  0
  -27.5590  -37.1810   24.8460 C   0  0  0  0  0  1  0  0  0  0  0  0
  -26.4300  -37.3790   23.9400 N   0  0  0  0  0  0  0  0  0  0  0  0
  -26.0190  -38.2870   24.1400 H   0  0  0  0  0  0  0  0  0  0  0  0
  -30.7400  -23.2150   19.3370 C   0  0  0  0  0  2  0  0  0  0  0  0
  -31.2760  -22.8630   17.9330 C   0  0  0  0  0  2  0  0  0  0  0  0
  -32.7920  -23.0910   17.7810 C   0  0  0  0  0  2  0  0  0  0  0  0
  -33.3040  -22.7290   16.3720 C   0  0  0  0  0  2  0  0  0  0  0  0
  -34.7220  -23.0700   16.1730 N   0  0  0  0  0  4  0  0  0  0  0  0
  -34.8850  -24.0480   16.3270 H   0  0  0  0  0  0  0  0  0  0  0  0
  -34.9940  -22.8610   15.2280 H   0  0  0  0  0  0  0  0  0  0  0  0
  -35.3130  -22.5430   16.7880 H   0  0  0  0  0  0  0  0  0  0  0  0
  -28.3640  -20.2230   17.5370 C   0  0  0  0  0  1  0  0  0  0  0  0
  -26.5470  -20.3270   19.3070 C   0  0  0  0  0  1  0  0  0  0  0  0
  -28.0250  -19.9710   19.0150 C   0  0  0  0  0  3  0  0  0  0  0  0
  1119  1  0
  1 61  1  0
  1  2  1  0
  2  3  1  0
  2  4  2  0
  3  6  1  0
  5  3  1  0
  6  7  1  0
  7  8  1  0
  8  9  1  0
  9 10  1  0
 11 10  1  0
 12 11  1  0
 13 12  1  0
 14 13  1  0
 15 14  1  0
 16 15  1  0
 17 16  1  0
 18 19  1  0
 18 17  1  0
 20 19  1  0
 20 21  1  0
 21 22  1  0
 23 31  1  0
 24 29  1  0
 25 26  1  0
 25 24  1  0
 27 26  1  0
 27 36  1  0
 27 28  1  0
 29 23  1  0
 29 28  1  0
 30 23  2  0
 31 32  1  0
 31 22  1  0
 33 34  2  0
 34 53  1  0
 35 34  1  0
 35 38  1  0
 36 33  1  0
 36 37  1  0
 37 35  2  0
 38 39  1  0
 39 40  2  0
 41 44  1  0
 41 40  1  0
 42 41  2  0
 43 42  1  0
 43 38  2  0
 44 45  1  0
 45 46  1  0
 46 47  2  0
 48 47  1  0
 48 52  1  0
 49 48  2  0
 50 45  2  0
 50 49  1  0
 51 50  1  0
 53 54  1  0
 54 57  1  0
 54 56  1  0
 55 53  2  0
 58 59  1  0
 58 33  1  0
 60 58  1  0
 61 62  1  0
 61 63  1  0
 64109  1  0
 64 65  1  0
 64 61  1  0
 65 66  2  0
 67 65  1  0
 67 68  1  0
 68 70  1  0
 69 80  2  0
 70 75  1  0
 71 79  1  0
 71 81  1  0
 72 78  1  0
 72 74  1  0
 73 79  1  0
 74 73  1  0
 75 74  2  0
 76 77  1  0
 76 70  2  0
 77 72  2  0
 78 71  1  0
 79 69  1  0
 81 83  2  0
 82 81  1  0
 84 82  1  0
 85 94  2  0
 85 90  1  0
 86 82  1  0
 86 90  1  0
 87 86  1  0
 88 89  1  0
 88 87  1  0
 89 85  1  0
 90 91  2  0
 91 92  1  0
 93 92  2  0
 94 93  1  0
 95 69  1  0
 95100  1  0
 95 96  1  0
 96 99  1  1
 96 97  1  0
 98 96  1  0
100103  1  0
101105  1  0
101100  1  0
102101  2  0
105104  1  0
107105  1  0
107108  1  0
107106  1  0
110109  1  0
111110  1  0
112111  1  0
113114  1  0
113112  1  0
113116  1  0
115113  1  0
117119  1  0
119118  1  0
M  ISO  4  23 100  31 100  67 101  68 101
M  END
>  <TORSDO>  (91) 
F 44

>  <SCORE>  (91) 
29.413

>  <name>  (91) 
96

>  <ligand_id>  (91) 
96

>  <original_smiles>  (91) 
[H]c1c([H])c([H])c2c(c1[H])C([H])([H])C([H])([H])C([H])([H])C2([H])N([H])C(=O)C1([H])N(C(=O)C([H])(N([H])C(=O)C([H])(N([H])C([H])([H])[H])C([H])([H])[H])C(C([H])([H])[H])(C([H])([H])[H])C([H])([H])[H])C([H])([H])c2c([H])c(OC([H])([H])C(=O)C([H])(C([H])([H])C([H])([H])C([H])([H])C([H])([H])[N+]([H])([H])[H])[N+]([H])([H])C([H])(C(=O)N([H])C([H])([H])C([H])([H])C([H])([H])OC([H])([H])C([H])([H])OC([H])([H])C([H])([H])OC([H])([H])C([H])([H])C([H])([H])OC([H])([H])C([H])([H])C([H])([H])N([H])C(=O)N3C([H])([H])C([H])([H])C([H])([H])C([H])(n4nc(-c5c([H])c([H])c(Oc6c([H])c([H])c(F)c([H])c6F)c([H])c5[H])c(C(=O)N([H])[H])c4N([H])[H])C3([H])[H])C([H])(C([H])([H])[H])C([H])([H])[H])c([H])c([H])c2C1([H])[H]

>  <smiles>  (91) 
[H]c1c([H])c([H])c2c(c1[H])C([H])([H])C([H])([H])C([H])([H])C2([H])N([H])C(=O)C1([H])N(C(=O)C([H])(N([H])C(=O)C([H])(N([H])C([H])([H])[H])C([H])([H])[H])C(C([H])([H])[H])(C([H])([H])[H])C([H])([H])[H])C([H])([H])c2c([H])c(OC([H])([H])C(=O)C([H])(C([H])([H])C([H])([H])C([H])([H])C([H])([H])[N+]([H])([H])[H])[N+]([H])([H])C([H])(C(=O)N([H])C([H])([H])C([H])([H])C([H])([H])OC([H])([H])C([H])([H])OC([H])([H])C([H])([H])OC([H])([H])C([H])([H])C([H])([H])OC([H])([H])C([H])([H])C([H])([H])N([H])C(=O)N3C([H])([H])C([H])([H])C([H])([H])C([H])(n4nc(-c5c([H])c([H])c(Oc6c([H])c([H])c(F)c([H])c6F)c([H])c5[H])c(C(=O)N([H])[H])c4N([H])[H])C3([H])[H])C([H])(C([H])([H])[H])C([H])([H])[H])c([H])c([H])c2C1([H])[H]

$$$$
97:0:0
     RDKit          3D

 98105  0  0  1  0  0  0  0  0999 V2000
  -24.6860  -16.9910   21.7180 C   0  0  0  0  0  2  0  0  0  0  0  0
  -25.6870  -16.0220   21.9820 O   0  0  0  0  0  0  0  0  0  0  0  0
  -25.1800  -14.7290   22.2430 C   0  0  0  0  0  2  0  0  0  0  0  0
  -26.3710  -13.8470   22.6350 C   0  0  0  0  0  2  0  0  0  0  0  0
  -26.6260  -12.7390   21.6050 C   0  0  0  0  0  2  0  0  0  0  0  0
  -28.8470  -11.8920   22.4520 C   0  0  0  0  0  0  0  0  0  0  0  0
  -27.5620  -11.7350   22.1060 N   0  0  0  0  0  0  0  0  0  0  0  0
  -29.4800  -10.9460   22.9220 O   0  0  0  0  0  0  0  0  0  0  0  0
  -27.1770  -10.8090   22.2210 H   0  0  0  0  0  0  0  0  0  0  0  0
  -29.5410  -13.2530   22.2820 C   0  0  0  0  0  2  0  0  0  0  0  0
  -30.8920  -13.1670   21.5450 C   0  0  0  0  0  2  0  0  0  0  0  0
  -30.7060  -12.7170   19.0800 C   0  0  0  0  0  0  0  0  0  0  0  0
  -30.0380  -10.5560   18.1070 C   0  0  0  0  0  2  0  0  0  0  0  0
  -28.8730  -10.6660   17.1050 C   0  0  0  0  0  2  0  0  0  0  0  0
  -27.5130  -10.6210   17.8240 C   0  0  0  0  0  2  0  0  0  0  0  0
  -27.4410  -11.6060   19.0180 C   0  0  0  0  0  3  0  0  0  0  0  0
  -28.6810  -11.4350   19.9230 C   0  0  0  0  0  2  0  0  0  0  0  0
  -29.9080  -11.6160   19.1200 N   0  0  0  0  0  0  0  0  0  0  0  0
  -31.4370  -12.9850   18.1240 O   0  0  0  0  0  0  0  0  0  0  0  0
  -30.7150  -13.5380   20.1360 N   0  0  0  0  0  0  0  0  0  0  0  0
  -31.1480  -14.4220   19.9110 H   0  0  0  0  0  0  0  0  0  0  0  0
  -25.2630  -12.3950   20.1540 C   0  0  0  0  0  0  0  0  0  0  0  0
  -24.2450  -11.7080   20.7610 C   0  0  0  0  0  0  0  0  0  0  0  0
  -24.6090  -10.3270   20.6960 C   0  0  0  0  0  0  0  0  0  0  0  0
  -26.1920  -11.4410   19.7640 N   0  0  0  0  0  0  0  0  0  0  0  0
  -25.8070  -10.1930   20.1390 N   0  0  0  0  0  0  0  0  0  0  0  0
  -23.8610   -9.1210   21.0780 C   0  0  0  0  0  0  0  0  0  0  0  0
  -24.3470   -8.2320   22.0620 C   0  0  0  0  0  3  0  0  0  0  0  0
  -23.6010   -7.0910   22.4270 C   0  0  0  0  0  3  0  0  0  0  0  0
  -22.3570   -6.8280   21.8060 C   0  0  0  0  0  0  0  0  0  0  0  0
  -21.8880   -7.7030   20.8100 C   0  0  0  0  0  3  0  0  0  0  0  0
  -22.6330   -8.8370   20.4470 C   0  0  0  0  0  3  0  0  0  0  0  0
  -21.5790   -5.7270   22.0790 O   0  0  0  0  0  0  0  0  0  0  0  0
  -21.5540   -5.1520   23.3230 C   0  0  0  0  0  0  0  0  0  0  0  0
  -21.0790   -5.8490   24.4550 C   0  0  0  0  0  3  0  0  0  0  0  0
  -21.0060   -5.1990   25.7020 C   0  0  0  0  0  3  0  0  0  0  0  0
  -21.4000   -3.8520   25.8190 C   0  0  0  0  0  0  0  0  0  0  0  0
  -21.8660   -3.1550   24.6910 C   0  0  0  0  0  3  0  0  0  0  0  0
  -21.9420   -3.8030   23.4460 C   0  0  0  0  0  0  0  0  0  0  0  0
  -22.3740   -3.1210   22.3590 F   0  0  0  0  0  0  0  0  0  0  0  0
  -21.3240   -3.2230   27.0150 F   0  0  0  0  0  0  0  0  0  0  0  0
  -22.9610  -12.2840   21.2880 C   0  0  0  0  0  0  0  0  0  0  0  0
  -22.3900  -11.6750   22.3220 N   0  0  0  0  0  0  0  0  0  0  0  0
  -22.4840  -13.3140   20.8150 O   0  0  0  0  0  0  0  0  0  0  0  0
  -22.7840  -10.8410   22.7260 H   0  0  0  0  0  0  0  0  0  0  0  0
  -21.5320  -12.0460   22.7060 H   0  0  0  0  0  0  0  0  0  0  0  0
  -25.4670  -13.7450   19.8870 N   0  0  0  0  0  0  0  0  0  0  0  0
  -24.7800  -14.4550   20.1030 H   0  0  0  0  0  0  0  0  0  0  0  0
  -26.2700  -14.1110   19.3950 H   0  0  0  0  0  0  0  0  0  0  0  0
  -25.1180  -17.7060   20.4360 C   0  0  0  0  0  2  0  0  0  0  0  0
  -26.5330  -17.5770   20.3190 O   0  0  0  0  0  0  0  0  0  0  0  0
  -27.2270  -18.7870   20.0550 C   0  0  0  0  0  2  0  0  0  0  0  0
  -26.9190  -19.3870   18.6690 C   0  0  0  0  0  2  0  0  0  0  0  0
  -27.6500  -20.5980   18.5400 O   0  0  0  0  0  0  0  0  0  0  0  0
  -27.2420  -21.3960   17.4370 C   0  0  0  0  0  2  0  0  0  0  0  0
  -27.8990  -22.7720   17.5960 C   0  0  0  0  0  2  0  0  0  0  0  0
  -27.6480  -23.7040   16.3920 C   0  0  0  0  0  2  0  0  0  0  0  0
  -27.9290  -25.0710   16.7100 O   0  0  0  0  0  0  0  0  0  0  0  0
  -25.5480  -28.6190   22.3690 C   0  0  0  0  0  0  0  0  0  0  0  0
  -26.9110  -25.8570   17.2080 C   0  0  0  0  0  0  0  0  0  0  0  0
  -23.9290  -28.3660   20.5140 C   0  0  0  0  0  3  0  0  0  0  0  0
  -24.8890  -27.4950   18.3190 C   0  0  0  0  0  0  0  0  0  0  0  0
  -26.4450  -28.4040   20.0530 C   0  0  0  0  0  2  0  0  0  0  0  0
  -26.1790  -27.5090   18.8620 C   0  0  0  0  0  0  0  0  0  0  0  0
  -27.1910  -26.6980   18.3070 C   0  0  0  0  0  3  0  0  0  0  0  0
  -25.5990  -25.8550   16.6720 C   0  0  0  0  0  3  0  0  0  0  0  0
  -24.5930  -26.6690   17.2220 C   0  0  0  0  0  3  0  0  0  0  0  0
  -23.8670  -28.4020   18.9630 C   0  0  0  0  0  2  0  0  0  0  0  0
  -25.3330  -28.4450   21.0330 N   0  0  0  0  0  0  0  0  0  0  0  0
  -24.6020  -28.7520   23.1560 O   0  0  0  0  0  0  0  0  0  0  0  0
  -23.1600  -27.1200   21.0080 C   0  0  0  0  0  0  0  0  0  0  0  0
  -21.8210  -27.1720   20.9290 N   0  0  0  0  0  0  0  0  0  0  0  0
  -23.7660  -26.1300   21.4260 O   0  0  0  0  0  0  0  0  0  0  0  0
  -21.3990  -28.0230   20.5860 H   0  0  0  0  0  0  0  0  0  0  0  0
  -18.3380  -26.2140   20.9420 C   0  0  0  0  0  0  0  0  0  0  0  0
  -20.8950  -26.1030   21.3000 C   0  0  0  0  0  3  0  0  0  0  0  0
  -20.8910  -24.9770   20.2390 C   0  0  0  0  0  2  0  0  0  0  0  0
  -19.8050  -25.1540   19.1730 C   0  0  0  0  0  2  0  0  0  0  0  0
  -18.4190  -25.1920   19.8210 C   0  0  0  0  0  2  0  0  0  0  0  0
  -19.5040  -26.6530   21.6260 C   0  0  0  0  0  0  0  0  0  0  0  0
  -19.3770  -27.6320   22.6350 C   0  0  0  0  0  3  0  0  0  0  0  0
  -18.1180  -28.1670   22.9660 C   0  0  0  0  0  3  0  0  0  0  0  0
  -16.9660  -27.7160   22.2980 C   0  0  0  0  0  3  0  0  0  0  0  0
  -17.0780  -26.7400   21.2920 C   0  0  0  0  0  3  0  0  0  0  0  0
  -26.9890  -28.6780   22.9650 C   0  0  0  0  0  3  0  0  0  0  0  0
  -27.5110  -27.2770   23.4730 C   0  0  1  0  0  0  0  0  0  0  0  0
  -26.5350  -26.5630   24.4360 C   0  0  0  0  0  1  0  0  0  0  0  0
  -27.7770  -26.3310   22.2780 C   0  0  0  0  0  1  0  0  0  0  0  0
  -28.8610  -27.4560   24.2070 C   0  0  0  0  0  1  0  0  0  0  0  0
  -26.9740  -29.6540   24.0620 N   0  0  0  0  0  0  0  0  0  0  0  0
  -27.4510  -30.9040   23.9740 C   0  0  0  0  0  0  0  0  0  0  0  0
  -28.0230  -31.3330   22.9680 O   0  0  0  0  0  0  0  0  0  0  0  0
  -26.4800  -29.3860   24.9000 H   0  0  0  0  0  0  0  0  0  0  0  0
  -26.0940  -32.7860   24.9410 C   0  0  0  0  0  1  0  0  0  0  0  0
  -27.2630  -31.8210   25.1980 C   0  0  0  0  0  3  0  0  0  0  0  0
  -29.5580  -31.7580   26.0670 C   0  0  0  0  0  1  0  0  0  0  0  0
  -28.4760  -32.5910   25.5490 N   0  0  0  0  0  0  0  0  0  0  0  0
  -28.2630  -33.3030   26.2420 H   0  0  0  0  0  0  0  0  0  0  0  0
  1  2  1  0
  2  3  1  0
  3  4  1  0
  5  7  1  0
  5  4  1  0
  6  8  2  0
  7  9  1  0
  7  6  1  0
 10  6  1  0
 11 10  1  0
 12 18  1  0
 12 20  1  0
 13 18  1  0
 14 15  1  0
 14 13  1  0
 16 15  1  0
 16 25  1  0
 16 17  1  0
 18 17  1  0
 19 12  2  0
 20 11  1  0
 21 20  1  0
 22 23  2  0
 23 42  1  0
 24 23  1  0
 24 27  1  0
 25 26  1  0
 25 22  1  0
 26 24  2  0
 27 28  1  0
 28 29  2  0
 30 33  1  0
 30 29  1  0
 31 30  2  0
 32 31  1  0
 32 27  2  0
 33 34  1  0
 34 39  2  0
 34 35  1  0
 35 36  2  0
 36 37  1  0
 37 41  1  0
 38 37  2  0
 39 38  1  0
 40 39  1  0
 42 43  1  0
 43 46  1  0
 43 45  1  0
 44 42  2  0
 47 48  1  0
 47 22  1  0
 49 47  1  0
 50  1  1  0
 51 50  1  0
 52 51  1  0
 53 52  1  0
 54 53  1  0
 55 56  1  0
 55 54  1  0
 57 58  1  0
 57 56  1  0
 58 60  1  0
 59 70  2  0
 60 65  1  0
 61 71  1  0
 61 69  1  0
 62 64  1  0
 62 68  1  0
 63 69  1  0
 64 63  1  0
 65 64  2  0
 66 60  2  0
 66 67  1  0
 67 62  2  0
 68 61  1  0
 69 59  1  0
 71 73  2  0
 72 71  1  0
 74 72  1  0
 75 84  2  0
 75 80  1  0
 76 72  1  0
 76 80  1  0
 77 76  1  0
 78 79  1  0
 78 77  1  0
 79 75  1  0
 80 81  2  0
 81 82  1  0
 83 82  2  0
 84 83  1  0
 85 59  1  0
 85 86  1  0
 85 90  1  0
 86 89  1  1
 86 87  1  0
 88 86  1  0
 90 93  1  0
 91 90  1  0
 91 95  1  0
 92 91  2  0
 95 94  1  0
 95 97  1  0
 97 96  1  0
 97 98  1  0
M  ISO  4  12 100  20 100  57 101  58 101
M  END
>  <TORSDO>  (92) 
F 31

>  <SCORE>  (92) 
4.786

>  <name>  (92) 
97

>  <ligand_id>  (92) 
97

>  <original_smiles>  (92) 
[H]c1c([H])c([H])c2c(c1[H])C([H])([H])C([H])([H])C([H])([H])C2([H])N([H])C(=O)C1([H])N(C(=O)C([H])(N([H])C(=O)C([H])(N([H])C([H])([H])[H])C([H])([H])[H])C(C([H])([H])[H])(C([H])([H])[H])C([H])([H])[H])C([H])([H])c2c([H])c(OC([H])([H])C([H])([H])C([H])([H])OC([H])([H])C([H])([H])OC([H])([H])C([H])([H])OC([H])([H])C([H])([H])C([H])([H])N([H])C(=O)C([H])([H])C([H])([H])N([H])C(=O)N3C([H])([H])C([H])([H])C([H])([H])C([H])(n4nc(-c5c([H])c([H])c(Oc6c([H])c([H])c(F)c([H])c6F)c([H])c5[H])c(C(=O)N([H])[H])c4N([H])[H])C3([H])[H])c([H])c([H])c2C1([H])[H]

>  <smiles>  (92) 
[H]c1c([H])c([H])c2c(c1[H])C([H])([H])C([H])([H])C([H])([H])C2([H])N([H])C(=O)C1([H])N(C(=O)C([H])(N([H])C(=O)C([H])(N([H])C([H])([H])[H])C([H])([H])[H])C(C([H])([H])[H])(C([H])([H])[H])C([H])([H])[H])C([H])([H])c2c([H])c(OC([H])([H])C([H])([H])C([H])([H])OC([H])([H])C([H])([H])OC([H])([H])C([H])([H])OC([H])([H])C([H])([H])C([H])([H])N([H])C(=O)C([H])([H])C([H])([H])N([H])C(=O)N3C([H])([H])C([H])([H])C([H])([H])C([H])(n4nc(-c5c([H])c([H])c(Oc6c([H])c([H])c(F)c([H])c6F)c([H])c5[H])c(C(=O)N([H])[H])c4N([H])[H])C3([H])[H])c([H])c([H])c2C1([H])[H]

$$$$
